
 OpenBabel09302610443D

 42 43  0  0  0  0  0  0  0  0999 V2000
   -5.7886    1.7674    0.7927 C   0  0  0  0  0  0  0  0  0  0  0  0
   -5.2118    0.3699    0.5797 C   0  0  2  0  0  0  0  0  0  0  0  0
   -3.7390    0.4699    0.4190 N   0  3  0  0  0  0  0  0  0  0  0  0
   -3.1050   -0.8482    0.5358 C   0  0  0  0  0  0  0  0  0  0  0  0
   -1.6036   -0.7151    0.4457 C   0  0  0  0  0  0  0  0  0  0  0  0
   -0.9769   -0.5543   -0.7977 C   0  0  0  0  0  0  0  0  0  0  0  0
    0.4128   -0.4133   -0.8876 C   0  0  0  0  0  0  0  0  0  0  0  0
    1.1939   -0.4253    0.2675 C   0  0  0  0  0  0  0  0  0  0  0  0
    2.5539   -0.2974    0.3245 O   0  0  0  0  0  0  0  0  0  0  0  0
    3.2445   -0.1514   -0.9128 C   0  0  0  0  0  0  0  0  0  0  0  0
    4.7172   -0.0277   -0.6107 C   0  0  0  0  0  0  0  0  0  0  0  0
    5.2675    1.2122   -0.2471 C   0  0  0  0  0  0  0  0  0  0  0  0
    6.6283    1.3284    0.0496 C   0  0  0  0  0  0  0  0  0  0  0  0
    7.4501    0.2046   -0.0061 C   0  0  0  0  0  0  0  0  0  0  0  0
    6.9038   -1.0256   -0.3518 C   0  0  0  0  0  0  0  0  0  0  0  0
    7.6929   -2.1072   -0.3981 F   0  0  0  0  0  0  0  0  0  0  0  0
    5.5507   -1.1535   -0.6494 C   0  0  0  0  0  0  0  0  0  0  0  0
    0.5723   -0.5763    1.5090 C   0  0  0  0  0  0  0  0  0  0  0  0
   -0.8145   -0.7170    1.6018 C   0  0  0  0  0  0  0  0  0  0  0  0
   -5.8396   -0.2499   -0.6803 C   0  0  0  0  0  0  0  0  0  0  0  0
   -5.3499    0.2361   -1.8624 N   0  0  0  0  0  0  0  0  0  0  0  0
   -6.7308   -1.0911   -0.6531 O   0  0  0  0  0  0  0  0  0  0  0  0
   -5.3546    2.2027    1.6685 H   0  0  0  0  0  0  0  0  0  0  0  0
   -6.8494    1.7005    0.9159 H   0  0  0  0  0  0  0  0  0  0  0  0
   -5.5661    2.3784   -0.0570 H   0  0  0  0  0  0  0  0  0  0  0  0
   -5.4322   -0.2506    1.4231 H   0  0  0  0  0  0  0  0  0  0  0  0
   -3.3658    1.0845    1.1424 H   0  0  0  0  0  0  0  0  0  0  0  0
   -3.5387    0.8451   -0.5081 H   0  0  0  0  0  0  0  0  0  0  0  0
   -3.4520   -1.4786   -0.2561 H   0  0  0  0  0  0  0  0  0  0  0  0
   -3.3612   -1.2759    1.4825 H   0  0  0  0  0  0  0  0  0  0  0  0
   -1.5472   -0.5397   -1.6577 H   0  0  0  0  0  0  0  0  0  0  0  0
    0.8603   -0.3002   -1.8106 H   0  0  0  0  0  0  0  0  0  0  0  0
    2.9022    0.7272   -1.4186 H   0  0  0  0  0  0  0  0  0  0  0  0
    3.0632   -0.9972   -1.5426 H   0  0  0  0  0  0  0  0  0  0  0  0
    4.6610    2.0458   -0.1985 H   0  0  0  0  0  0  0  0  0  0  0  0
    7.0239    2.2454    0.3096 H   0  0  0  0  0  0  0  0  0  0  0  0
    8.4565    0.2851    0.2077 H   0  0  0  0  0  0  0  0  0  0  0  0
    5.1614   -2.0763   -0.8983 H   0  0  0  0  0  0  0  0  0  0  0  0
    1.1442   -0.5840    2.3680 H   0  0  0  0  0  0  0  0  0  0  0  0
   -1.2592   -0.8228    2.5270 H   0  0  0  0  0  0  0  0  0  0  0  0
   -4.6337    0.9116   -1.8579 H   0  0  0  0  0  0  0  0  0  0  0  0
   -5.7139   -0.0898   -2.7171 H   0  0  0  0  0  0  0  0  0  0  0  0
  1  2  1  0  0  0  0
  1 23  1  0  0  0  0
  1 24  1  0  0  0  0
  1 25  1  0  0  0  0
  2  3  1  0  0  0  0
  2 20  1  0  0  0  0
  2 26  1  1  0  0  0
  3  4  1  0  0  0  0
  3 27  1  0  0  0  0
  3 28  1  0  0  0  0
  4  5  1  0  0  0  0
  4 29  1  0  0  0  0
  4 30  1  0  0  0  0
  5  6  2  0  0  0  0
  6  7  1  0  0  0  0
  6 31  1  0  0  0  0
  7  8  2  0  0  0  0
  7 32  1  0  0  0  0
  8  9  1  0  0  0  0
  8 18  1  0  0  0  0
  9 10  1  0  0  0  0
 10 11  1  0  0  0  0
 10 33  1  0  0  0  0
 10 34  1  0  0  0  0
 11 12  2  0  0  0  0
 12 13  1  0  0  0  0
 12 35  1  0  0  0  0
 13 14  2  0  0  0  0
 13 36  1  0  0  0  0
 14 15  1  0  0  0  0
 14 37  1  0  0  0  0
 15 16  1  0  0  0  0
 15 17  2  0  0  0  0
 17 11  1  0  0  0  0
 17 38  1  0  0  0  0
 18 19  2  0  0  0  0
 18 39  1  0  0  0  0
 19  5  1  0  0  0  0
 19 40  1  0  0  0  0
 20 21  1  0  0  0  0
 20 22  2  0  0  0  0
 21 41  1  0  0  0  0
 21 42  1  0  0  0  0
M  CHG  1   3   1
M  END
$$$$
