cand_055_out
     RDKit          3D

 41 43  0  0  0  0  0  0  0  0999 V2000
  181.2090   15.4030   40.3610 C   0  0  0  0  0  0  0  0  0  0  0  0
  180.9690   14.5980   41.6270 C   0  0  0  0  0  0  0  0  0  0  0  0
  181.9320   15.0100   42.7420 C   0  0  0  0  0  0  0  0  0  0  0  0
  181.3390   16.0820   43.6300 C   0  0  0  0  0  0  0  0  0  0  0  0
  181.7430   17.4120   43.4300 C   0  0  0  0  0  0  0  0  0  0  0  0
  181.2390   18.4440   44.2250 C   0  0  0  0  0  0  0  0  0  0  0  0
  180.3130   18.1770   45.2370 C   0  0  0  0  0  0  0  0  0  0  0  0
  179.7810   19.2480   46.1080 C   0  0  0  0  0  0  0  0  0  0  0  0
  178.3920   19.3060   46.1060 O   0  0  0  0  0  0  0  0  0  0  0  0
  177.7660   20.2540   46.8730 C   0  0  0  0  0  0  0  0  0  0  0  0
  176.3700   20.2660   46.8520 C   0  0  0  0  0  0  0  0  0  0  0  0
  175.6700   21.2080   47.6090 C   0  0  0  0  0  0  0  0  0  0  0  0
  176.3650   22.1380   48.3850 C   0  0  0  0  0  0  0  0  0  0  0  0
  177.7580   22.1230   48.4050 C   0  0  0  0  0  0  0  0  0  0  0  0
  178.3740   23.0620   49.1850 O   0  0  0  0  0  0  0  0  0  0  0  0
  178.4570   21.1800   47.6470 C   0  0  0  0  0  0  0  0  0  0  0  0
  179.9200   21.1310   47.6390 C   0  0  0  0  0  0  0  0  0  0  0  0
  180.6020   21.9190   48.2900 O   0  0  0  0  0  0  0  0  0  0  0  0
  180.5660   20.0880   46.8080 C   0  0  0  0  0  0  0  0  0  0  0  0
  181.9490   20.0590   46.7980 O   0  0  0  0  0  0  0  0  0  0  0  0
  179.9200   16.8470   45.4470 C   0  0  0  0  0  0  0  0  0  0  0  0
  180.4240   15.7930   44.6610 C   0  0  0  0  0  0  0  0  0  0  0  0
  179.9450   14.3930   44.9310 C   0  0  0  0  0  0  0  0  0  0  0  0
  181.5138   16.4254   40.6289 H   0  0  0  0  0  0  0  0  0  0  0  0
  182.0042   14.9266   39.7688 H   0  0  0  0  0  0  0  0  0  0  0  0
  180.2828   15.4398   39.7688 H   0  0  0  0  0  0  0  0  0  0  0  0
  179.9361   14.7647   41.9666 H   0  0  0  0  0  0  0  0  0  0  0  0
  181.1384   13.5354   41.3986 H   0  0  0  0  0  0  0  0  0  0  0  0
  182.1641   14.1273   43.3561 H   0  0  0  0  0  0  0  0  0  0  0  0
  182.8409   15.4174   42.2752 H   0  0  0  0  0  0  0  0  0  0  0  0
  182.4672   17.6446   42.6354 H   0  0  0  0  0  0  0  0  0  0  0  0
  181.5744   19.4774   44.0527 H   0  0  0  0  0  0  0  0  0  0  0  0
  175.8222   19.5344   46.2399 H   0  0  0  0  0  0  0  0  0  0  0  0
  174.5701   21.2174   47.5940 H   0  0  0  0  0  0  0  0  0  0  0  0
  175.8135   22.8812   48.9795 H   0  0  0  0  0  0  0  0  0  0  0  0
  177.9470   23.3880   49.9520 H   0  0  0  0  0  0  0  0  0  0  0  0
  182.4330   20.6630   47.3260 H   0  0  0  0  0  0  0  0  0  0  0  0
  179.1992   16.6214   46.2467 H   0  0  0  0  0  0  0  0  0  0  0  0
  179.8885   14.2279   46.0171 H   0  0  0  0  0  0  0  0  0  0  0  0
  178.9483   14.2544   44.4867 H   0  0  0  0  0  0  0  0  0  0  0  0
  180.6479   13.6729   44.4867 H   0  0  0  0  0  0  0  0  0  0  0  0
  1  2  1  0
  2  3  1  0
  3  4  1  0
  4  5  2  0
  5  6  1  0
  6  7  2  0
  7  8  1  0
  8  9  1  0
  9 10  1  0
 10 11  2  0
 11 12  1  0
 12 13  2  0
 13 14  1  0
 14 15  1  0
 14 16  2  0
 16 17  1  0
 17 18  2  0
 17 19  1  0
 19 20  1  0
  7 21  1  0
 21 22  2  0
 22 23  1  0
 22  4  1  0
 19  8  2  0
 16 10  1  0
  1 24  1  0
  1 25  1  0
  1 26  1  0
  2 27  1  0
  2 28  1  0
  3 29  1  0
  3 30  1  0
  5 31  1  0
  6 32  1  0
 11 33  1  0
 12 34  1  0
 13 35  1  0
 15 36  1  0
 20 37  1  0
 21 38  1  0
 23 39  1  0
 23 40  1  0
 23 41  1  0
M  END
>  <meeko>  (1) 
{"is_sidechain": [false], "free_energy": -8.838, "intermolecular_energy": -10.904, "internal_energy": -0.324}

$$$$
cand_055_out
     RDKit          3D

 41 43  0  0  0  0  0  0  0  0999 V2000
  177.8270   24.0970   47.4380 C   0  0  0  0  0  0  0  0  0  0  0  0
  177.3420   23.8240   48.8520 C   0  0  0  0  0  0  0  0  0  0  0  0
  176.7460   22.4200   48.9760 C   0  0  0  0  0  0  0  0  0  0  0  0
  177.4950   21.4150   48.1300 C   0  0  0  0  0  0  0  0  0  0  0  0
  178.8860   21.3100   48.2930 C   0  0  0  0  0  0  0  0  0  0  0  0
  179.6350   20.4070   47.5340 C   0  0  0  0  0  0  0  0  0  0  0  0
  179.0130   19.5800   46.5940 C   0  0  0  0  0  0  0  0  0  0  0  0
  179.7850   18.6330   45.7600 C   0  0  0  0  0  0  0  0  0  0  0  0
  179.2570   17.3470   45.7760 O   0  0  0  0  0  0  0  0  0  0  0  0
  179.8760   16.3670   45.0440 C   0  0  0  0  0  0  0  0  0  0  0  0
  179.3040   15.0940   45.0770 C   0  0  0  0  0  0  0  0  0  0  0  0
  179.8860   14.0490   44.3550 C   0  0  0  0  0  0  0  0  0  0  0  0
  181.0390   14.2770   43.6010 C   0  0  0  0  0  0  0  0  0  0  0  0
  181.6060   15.5490   43.5680 C   0  0  0  0  0  0  0  0  0  0  0  0
  182.7350   15.7020   42.8110 O   0  0  0  0  0  0  0  0  0  0  0  0
  181.0240   16.5930   44.2910 C   0  0  0  0  0  0  0  0  0  0  0  0
  181.5890   17.9430   44.2850 C   0  0  0  0  0  0  0  0  0  0  0  0
  182.6050   18.2210   43.6510 O   0  0  0  0  0  0  0  0  0  0  0  0
  180.8910   18.9820   45.0780 C   0  0  0  0  0  0  0  0  0  0  0  0
  181.4420   20.2510   45.0750 O   0  0  0  0  0  0  0  0  0  0  0  0
  177.6260   19.6950   46.4190 C   0  0  0  0  0  0  0  0  0  0  0  0
  176.8570   20.6050   47.1700 C   0  0  0  0  0  0  0  0  0  0  0  0
  175.3720   20.6610   46.9410 C   0  0  0  0  0  0  0  0  0  0  0  0
  178.7850   24.6362   47.4767 H   0  0  0  0  0  0  0  0  0  0  0  0
  177.9641   23.1435   46.9069 H   0  0  0  0  0  0  0  0  0  0  0  0
  177.0830   24.7089   46.9069 H   0  0  0  0  0  0  0  0  0  0  0  0
  178.1910   23.9150   49.5455 H   0  0  0  0  0  0  0  0  0  0  0  0
  176.5582   24.5559   49.0967 H   0  0  0  0  0  0  0  0  0  0  0  0
  176.7935   22.1048   50.0288 H   0  0  0  0  0  0  0  0  0  0  0  0
  175.7056   22.4578   48.6210 H   0  0  0  0  0  0  0  0  0  0  0  0
  179.3941   21.9490   49.0302 H   0  0  0  0  0  0  0  0  0  0  0  0
  180.7239   20.3463   47.6774 H   0  0  0  0  0  0  0  0  0  0  0  0
  178.3958   14.9138   45.6709 H   0  0  0  0  0  0  0  0  0  0  0  0
  179.4356   13.0458   44.3805 H   0  0  0  0  0  0  0  0  0  0  0  0
  181.4986   13.4539   43.0343 H   0  0  0  0  0  0  0  0  0  0  0  0
  182.7270   15.4650   41.9040 H   0  0  0  0  0  0  0  0  0  0  0  0
  180.9260   20.9860   45.3410 H   0  0  0  0  0  0  0  0  0  0  0  0
  177.1256   19.0574   45.6753 H   0  0  0  0  0  0  0  0  0  0  0  0
  174.8520   20.6806   47.9102 H   0  0  0  0  0  0  0  0  0  0  0  0
  175.1226   21.5692   46.3727 H   0  0  0  0  0  0  0  0  0  0  0  0
  175.0549   19.7742   46.3727 H   0  0  0  0  0  0  0  0  0  0  0  0
  1  2  1  0
  2  3  1  0
  3  4  1  0
  4  5  2  0
  5  6  1  0
  6  7  2  0
  7  8  1  0
  8  9  1  0
  9 10  1  0
 10 11  2  0
 11 12  1  0
 12 13  2  0
 13 14  1  0
 14 15  1  0
 14 16  2  0
 16 17  1  0
 17 18  2  0
 17 19  1  0
 19 20  1  0
  7 21  1  0
 21 22  2  0
 22 23  1  0
 22  4  1  0
 19  8  2  0
 16 10  1  0
  1 24  1  0
  1 25  1  0
  1 26  1  0
  2 27  1  0
  2 28  1  0
  3 29  1  0
  3 30  1  0
  5 31  1  0
  6 32  1  0
 11 33  1  0
 12 34  1  0
 13 35  1  0
 15 36  1  0
 20 37  1  0
 21 38  1  0
 23 39  1  0
 23 40  1  0
 23 41  1  0
M  END
>  <meeko>  (2) 
{"is_sidechain": [false], "free_energy": -7.163, "intermolecular_energy": -9.092, "internal_energy": -0.071}

$$$$
cand_055_out
     RDKit          3D

 41 43  0  0  0  0  0  0  0  0999 V2000
  181.2320   14.3530   41.8040 C   0  0  0  0  0  0  0  0  0  0  0  0
  181.5490   15.8130   42.0850 C   0  0  0  0  0  0  0  0  0  0  0  0
  181.9580   16.0250   43.5430 C   0  0  0  0  0  0  0  0  0  0  0  0
  180.9840   16.9200   44.2760 C   0  0  0  0  0  0  0  0  0  0  0  0
  181.1580   18.3110   44.1840 C   0  0  0  0  0  0  0  0  0  0  0  0
  180.2970   19.1900   44.8470 C   0  0  0  0  0  0  0  0  0  0  0  0
  179.2360   18.7040   45.6150 C   0  0  0  0  0  0  0  0  0  0  0  0
  178.3240   19.6100   46.3460 C   0  0  0  0  0  0  0  0  0  0  0  0
  178.9610   20.7550   46.8130 O   0  0  0  0  0  0  0  0  0  0  0  0
  178.2300   21.6830   47.5090 C   0  0  0  0  0  0  0  0  0  0  0  0
  178.9070   22.8230   47.9470 C   0  0  0  0  0  0  0  0  0  0  0  0
  178.2220   23.8070   48.6630 C   0  0  0  0  0  0  0  0  0  0  0  0
  176.8630   23.6510   48.9430 C   0  0  0  0  0  0  0  0  0  0  0  0
  176.1910   22.5130   48.5040 C   0  0  0  0  0  0  0  0  0  0  0  0
  174.8610   22.4240   48.8140 O   0  0  0  0  0  0  0  0  0  0  0  0
  176.8760   21.5290   47.7870 C   0  0  0  0  0  0  0  0  0  0  0  0
  176.2070   20.3180   47.3090 C   0  0  0  0  0  0  0  0  0  0  0  0
  175.0150   20.1060   47.5210 O   0  0  0  0  0  0  0  0  0  0  0  0
  177.0220   19.3390   46.5510 C   0  0  0  0  0  0  0  0  0  0  0  0
  176.3820   18.1930   46.1150 O   0  0  0  0  0  0  0  0  0  0  0  0
  179.0710   17.3140   45.7200 C   0  0  0  0  0  0  0  0  0  0  0  0
  179.9330   16.4140   45.0650 C   0  0  0  0  0  0  0  0  0  0  0  0
  179.6850   14.9380   45.2080 C   0  0  0  0  0  0  0  0  0  0  0  0
  181.1149   13.8135   42.7554 H   0  0  0  0  0  0  0  0  0  0  0  0
  180.2982   14.2851   41.2266 H   0  0  0  0  0  0  0  0  0  0  0  0
  182.0536   13.9040   41.2266 H   0  0  0  0  0  0  0  0  0  0  0  0
  182.3746   16.1320   41.4318 H   0  0  0  0  0  0  0  0  0  0  0  0
  180.6442   16.4073   41.8895 H   0  0  0  0  0  0  0  0  0  0  0  0
  181.9935   15.0485   44.0482 H   0  0  0  0  0  0  0  0  0  0  0  0
  182.9441   16.5123   43.5537 H   0  0  0  0  0  0  0  0  0  0  0  0
  181.9846   18.7146   43.5809 H   0  0  0  0  0  0  0  0  0  0  0  0
  180.4564   20.2752   44.7633 H   0  0  0  0  0  0  0  0  0  0  0  0
  179.9781   22.9458   47.7284 H   0  0  0  0  0  0  0  0  0  0  0  0
  178.7539   24.7064   49.0069 H   0  0  0  0  0  0  0  0  0  0  0  0
  176.3244   24.4252   49.5091 H   0  0  0  0  0  0  0  0  0  0  0  0
  174.4440   21.5850   48.8520 H   0  0  0  0  0  0  0  0  0  0  0  0
  176.8840   17.4400   45.8750 H   0  0  0  0  0  0  0  0  0  0  0  0
  178.2462   16.9174   46.3303 H   0  0  0  0  0  0  0  0  0  0  0  0
  179.6409   14.6753   46.2753 H   0  0  0  0  0  0  0  0  0  0  0  0
  178.7306   14.6782   44.7267 H   0  0  0  0  0  0  0  0  0  0  0  0
  180.5021   14.3806   44.7267 H   0  0  0  0  0  0  0  0  0  0  0  0
  1  2  1  0
  2  3  1  0
  3  4  1  0
  4  5  2  0
  5  6  1  0
  6  7  2  0
  7  8  1  0
  8  9  1  0
  9 10  1  0
 10 11  2  0
 11 12  1  0
 12 13  2  0
 13 14  1  0
 14 15  1  0
 14 16  2  0
 16 17  1  0
 17 18  2  0
 17 19  1  0
 19 20  1  0
  7 21  1  0
 21 22  2  0
 22 23  1  0
 22  4  1  0
 19  8  2  0
 16 10  1  0
  1 24  1  0
  1 25  1  0
  1 26  1  0
  2 27  1  0
  2 28  1  0
  3 29  1  0
  3 30  1  0
  5 31  1  0
  6 32  1  0
 11 33  1  0
 12 34  1  0
 13 35  1  0
 15 36  1  0
 20 37  1  0
 21 38  1  0
 23 39  1  0
 23 40  1  0
 23 41  1  0
M  END
>  <meeko>  (3) 
{"is_sidechain": [false], "free_energy": -7.121, "intermolecular_energy": -8.927, "internal_energy": -0.183}

$$$$
cand_055_out
     RDKit          3D

 41 43  0  0  0  0  0  0  0  0999 V2000
  180.4490   14.3740   43.1070 C   0  0  0  0  0  0  0  0  0  0  0  0
  180.6980   15.2130   44.3500 C   0  0  0  0  0  0  0  0  0  0  0  0
  181.3190   16.5650   43.9950 C   0  0  0  0  0  0  0  0  0  0  0  0
  180.7330   17.6880   44.8230 C   0  0  0  0  0  0  0  0  0  0  0  0
  179.4930   17.4780   45.4480 C   0  0  0  0  0  0  0  0  0  0  0  0
  178.8970   18.4810   46.2170 C   0  0  0  0  0  0  0  0  0  0  0  0
  179.5240   19.7180   46.3870 C   0  0  0  0  0  0  0  0  0  0  0  0
  178.9040   20.8040   47.1760 C   0  0  0  0  0  0  0  0  0  0  0  0
  177.5150   20.7430   47.1790 O   0  0  0  0  0  0  0  0  0  0  0  0
  176.8110   21.6930   47.8740 C   0  0  0  0  0  0  0  0  0  0  0  0
  175.4190   21.5850   47.8620 C   0  0  0  0  0  0  0  0  0  0  0  0
  174.6420   22.5200   48.5490 C   0  0  0  0  0  0  0  0  0  0  0  0
  175.2560   23.5640   49.2450 C   0  0  0  0  0  0  0  0  0  0  0  0
  176.6450   23.6680   49.2560 C   0  0  0  0  0  0  0  0  0  0  0  0
  177.1800   24.7150   49.9560 O   0  0  0  0  0  0  0  0  0  0  0  0
  177.4220   22.7320   48.5690 C   0  0  0  0  0  0  0  0  0  0  0  0
  178.8840   22.8060   48.5540 C   0  0  0  0  0  0  0  0  0  0  0  0
  179.4960   23.6980   49.1370 O   0  0  0  0  0  0  0  0  0  0  0  0
  179.6150   21.7600   47.8020 C   0  0  0  0  0  0  0  0  0  0  0  0
  180.9950   21.8480   47.7850 O   0  0  0  0  0  0  0  0  0  0  0  0
  180.7560   19.9330   45.7500 C   0  0  0  0  0  0  0  0  0  0  0  0
  181.3680   18.9370   44.9650 C   0  0  0  0  0  0  0  0  0  0  0  0
  182.6970   19.2320   44.3260 C   0  0  0  0  0  0  0  0  0  0  0  0
  180.1477   13.3587   43.4042 H   0  0  0  0  0  0  0  0  0  0  0  0
  179.6486   14.8336   42.5087 H   0  0  0  0  0  0  0  0  0  0  0  0
  181.3706   14.3226   42.5087 H   0  0  0  0  0  0  0  0  0  0  0  0
  179.7409   15.3828   44.8649 H   0  0  0  0  0  0  0  0  0  0  0  0
  181.3996   14.6695   44.9999 H   0  0  0  0  0  0  0  0  0  0  0  0
  182.4029   16.5174   44.1761 H   0  0  0  0  0  0  0  0  0  0  0  0
  181.1035   16.7726   42.9365 H   0  0  0  0  0  0  0  0  0  0  0  0
  178.9837   16.5101   45.3305 H   0  0  0  0  0  0  0  0  0  0  0  0
  177.9234   18.2946   46.6938 H   0  0  0  0  0  0  0  0  0  0  0  0
  174.9350   20.7644   47.3121 H   0  0  0  0  0  0  0  0  0  0  0  0
  173.5454   22.4344   48.5421 H   0  0  0  0  0  0  0  0  0  0  0  0
  174.6438   24.3025   49.7833 H   0  0  0  0  0  0  0  0  0  0  0  0
  178.1070   24.7670   50.0840 H   0  0  0  0  0  0  0  0  0  0  0  0
  181.5150   21.0760   47.8960 H   0  0  0  0  0  0  0  0  0  0  0  0
  181.2568   20.9054   45.8671 H   0  0  0  0  0  0  0  0  0  0  0  0
  183.4512   19.3994   45.1090 H   0  0  0  0  0  0  0  0  0  0  0  0
  183.0006   18.3794   43.7008 H   0  0  0  0  0  0  0  0  0  0  0  0
  182.6113   20.1330   43.7008 H   0  0  0  0  0  0  0  0  0  0  0  0
  1  2  1  0
  2  3  1  0
  3  4  1  0
  4  5  2  0
  5  6  1  0
  6  7  2  0
  7  8  1  0
  8  9  1  0
  9 10  1  0
 10 11  2  0
 11 12  1  0
 12 13  2  0
 13 14  1  0
 14 15  1  0
 14 16  2  0
 16 17  1  0
 17 18  2  0
 17 19  1  0
 19 20  1  0
  7 21  1  0
 21 22  2  0
 22 23  1  0
 22  4  1  0
 19  8  2  0
 16 10  1  0
  1 24  1  0
  1 25  1  0
  1 26  1  0
  2 27  1  0
  2 28  1  0
  3 29  1  0
  3 30  1  0
  5 31  1  0
  6 32  1  0
 11 33  1  0
 12 34  1  0
 13 35  1  0
 15 36  1  0
 20 37  1  0
 21 38  1  0
 23 39  1  0
 23 40  1  0
 23 41  1  0
M  END
>  <meeko>  (4) 
{"is_sidechain": [false], "free_energy": -6.372, "intermolecular_energy": -8.172, "internal_energy": -0.013}

$$$$
