cand_056_out
     RDKit          3D

 50 53  0  0  0  0  0  0  0  0999 V2000
  175.7250   23.5480   49.4470 C   0  0  0  0  0  0  0  0  0  0  0  0
  177.1000   23.2340   49.0620 N   0  0  0  0  0  0  0  0  0  0  0  0
  177.3160   21.7680   49.0540 C   0  0  0  0  0  0  0  0  0  0  0  0
  178.7440   21.3840   48.5960 C   0  0  0  0  0  0  0  0  0  0  0  0
  179.0110   21.9510   47.2540 N   0  0  0  0  0  0  0  0  0  0  0  0
  180.2400   21.5410   46.7050 C   0  0  0  0  0  0  0  0  0  0  0  0
  181.3800   22.3660   46.7330 C   0  0  0  0  0  0  0  0  0  0  0  0
  182.6080   21.9540   46.1950 C   0  0  0  0  0  0  0  0  0  0  0  0
  183.7960   22.8320   46.2110 C   0  0  0  0  0  0  0  0  0  0  0  0
  184.0450   23.3840   47.4610 O   0  0  0  0  0  0  0  0  0  0  0  0
  185.1210   24.2190   47.6150 C   0  0  0  0  0  0  0  0  0  0  0  0
  185.3420   24.7400   48.8920 C   0  0  0  0  0  0  0  0  0  0  0  0
  186.4200   25.5990   49.1160 C   0  0  0  0  0  0  0  0  0  0  0  0
  187.2760   25.9370   48.0660 C   0  0  0  0  0  0  0  0  0  0  0  0
  187.0540   25.4170   46.7940 C   0  0  0  0  0  0  0  0  0  0  0  0
  187.9290   25.7900   45.8110 O   0  0  0  0  0  0  0  0  0  0  0  0
  185.9750   24.5570   46.5690 C   0  0  0  0  0  0  0  0  0  0  0  0
  185.7050   23.9890   45.2480 C   0  0  0  0  0  0  0  0  0  0  0  0
  186.4080   24.2440   44.2720 O   0  0  0  0  0  0  0  0  0  0  0  0
  184.5410   23.0820   45.1170 C   0  0  0  0  0  0  0  0  0  0  0  0
  184.2860   22.5610   43.8630 O   0  0  0  0  0  0  0  0  0  0  0  0
  182.6820   20.6920   45.5970 C   0  0  0  0  0  0  0  0  0  0  0  0
  181.5610   19.8610   45.5550 C   0  0  0  0  0  0  0  0  0  0  0  0
  180.3340   20.2720   46.1070 C   0  0  0  0  0  0  0  0  0  0  0  0
  179.1380   19.3530   46.0520 C   0  0  0  0  0  0  0  0  0  0  0  0
  179.4170   18.1630   45.4350 F   0  0  0  0  0  0  0  0  0  0  0  0
  178.0830   19.8670   45.3540 F   0  0  0  0  0  0  0  0  0  0  0  0
  178.6550   19.0030   47.2800 F   0  0  0  0  0  0  0  0  0  0  0  0
  178.8280   23.4220   47.2400 C   0  0  0  0  0  0  0  0  0  0  0  0
  177.3990   23.7790   47.7170 C   0  0  0  0  0  0  0  0  0  0  0  0
  175.6464   23.5659   50.5440 H   0  0  0  0  0  0  0  0  0  0  0  0
  175.4470   24.5328   49.0433 H   0  0  0  0  0  0  0  0  0  0  0  0
  175.0471   22.7815   49.0433 H   0  0  0  0  0  0  0  0  0  0  0  0
  177.7230   23.6640   49.7470 H   0  0  0  0  0  0  0  0  0  0  0  0
  177.1556   21.3818   50.0714 H   0  0  0  0  0  0  0  0  0  0  0  0
  176.6050   21.3283   48.3390 H   0  0  0  0  0  0  0  0  0  0  0  0
  179.4768   21.7826   49.3130 H   0  0  0  0  0  0  0  0  0  0  0  0
  178.8279   20.2882   48.5501 H   0  0  0  0  0  0  0  0  0  0  0  0
  181.3056   23.3636   47.1905 H   0  0  0  0  0  0  0  0  0  0  0  0
  184.6681   24.4741   49.7197 H   0  0  0  0  0  0  0  0  0  0  0  0
  186.5950   26.0100   50.1212 H   0  0  0  0  0  0  0  0  0  0  0  0
  188.1250   26.6135   48.2438 H   0  0  0  0  0  0  0  0  0  0  0  0
  187.6450   26.3570   45.1210 H   0  0  0  0  0  0  0  0  0  0  0  0
  184.8880   22.7130   43.1610 H   0  0  0  0  0  0  0  0  0  0  0  0
  183.6307   20.3515   45.1564 H   0  0  0  0  0  0  0  0  0  0  0  0
  181.6383   18.8703   45.0833 H   0  0  0  0  0  0  0  0  0  0  0  0
  179.5640   23.8877   47.9120 H   0  0  0  0  0  0  0  0  0  0  0  0
  178.9720   23.7955   46.2154 H   0  0  0  0  0  0  0  0  0  0  0  0
  177.3007   24.8741   47.7497 H   0  0  0  0  0  0  0  0  0  0  0  0
  176.6871   23.3315   47.0079 H   0  0  0  0  0  0  0  0  0  0  0  0
  1  2  1  0
  2  3  1  0
  3  4  1  0
  4  5  1  0
  5  6  1  0
  6  7  2  0
  7  8  1  0
  8  9  1  0
  9 10  1  0
 10 11  1  0
 11 12  2  0
 12 13  1  0
 13 14  2  0
 14 15  1  0
 15 16  1  0
 15 17  2  0
 17 18  1  0
 18 19  2  0
 18 20  1  0
 20 21  1  0
  8 22  2  0
 22 23  1  0
 23 24  2  0
 24 25  1  0
 25 26  1  0
 25 27  1  0
 25 28  1  0
  5 29  1  0
 29 30  1  0
 30  2  1  0
 24  6  1  0
 20  9  2  0
 17 11  1  0
  1 31  1  0
  1 32  1  0
  1 33  1  0
  2 34  1  0
  3 35  1  0
  3 36  1  0
  4 37  1  0
  4 38  1  0
  7 39  1  0
 12 40  1  0
 13 41  1  0
 14 42  1  0
 16 43  1  0
 21 44  1  0
 22 45  1  0
 23 46  1  0
 29 47  1  0
 29 48  1  0
 30 49  1  0
 30 50  1  0
M  CHG  1   2   1
M  END
>  <meeko>  (1) 
{"is_sidechain": [false], "free_energy": -6.185, "intermolecular_energy": -7.631, "internal_energy": 0.142}

$$$$
cand_056_out
     RDKit          3D

 50 53  0  0  0  0  0  0  0  0999 V2000
  187.9230   21.7570   40.0760 C   0  0  0  0  0  0  0  0  0  0  0  0
  186.9290   21.7240   41.1480 N   0  0  0  0  0  0  0  0  0  0  0  0
  187.5550   21.3040   42.4240 C   0  0  0  0  0  0  0  0  0  0  0  0
  186.5520   21.3090   43.6030 C   0  0  0  0  0  0  0  0  0  0  0  0
  185.9480   22.6540   43.7440 N   0  0  0  0  0  0  0  0  0  0  0  0
  185.1210   22.7840   44.8740 C   0  0  0  0  0  0  0  0  0  0  0  0
  183.8930   22.1030   44.9800 C   0  0  0  0  0  0  0  0  0  0  0  0
  183.0730   22.2240   46.1110 C   0  0  0  0  0  0  0  0  0  0  0  0
  181.7770   21.5220   46.2080 C   0  0  0  0  0  0  0  0  0  0  0  0
  180.8070   22.2640   46.8720 O   0  0  0  0  0  0  0  0  0  0  0  0
  179.5550   21.7280   47.0310 C   0  0  0  0  0  0  0  0  0  0  0  0
  178.6090   22.5140   47.6910 C   0  0  0  0  0  0  0  0  0  0  0  0
  177.3150   22.0260   47.8880 C   0  0  0  0  0  0  0  0  0  0  0  0
  176.9680   20.7550   47.4250 C   0  0  0  0  0  0  0  0  0  0  0  0
  177.9140   19.9740   46.7680 C   0  0  0  0  0  0  0  0  0  0  0  0
  177.5070   18.7380   46.3430 O   0  0  0  0  0  0  0  0  0  0  0  0
  179.2080   20.4610   46.5710 C   0  0  0  0  0  0  0  0  0  0  0  0
  180.2330   19.6720   45.8860 C   0  0  0  0  0  0  0  0  0  0  0  0
  180.0070   18.5420   45.4570 O   0  0  0  0  0  0  0  0  0  0  0  0
  181.5720   20.2840   45.7210 C   0  0  0  0  0  0  0  0  0  0  0  0
  182.5360   19.5260   45.0840 O   0  0  0  0  0  0  0  0  0  0  0  0
  183.4890   23.0650   47.1480 C   0  0  0  0  0  0  0  0  0  0  0  0
  184.7010   23.7520   47.0600 C   0  0  0  0  0  0  0  0  0  0  0  0
  185.5280   23.6190   45.9290 C   0  0  0  0  0  0  0  0  0  0  0  0
  186.8350   24.3710   45.8600 C   0  0  0  0  0  0  0  0  0  0  0  0
  187.0760   25.1120   46.9860 F   0  0  0  0  0  0  0  0  0  0  0  0
  186.8990   25.2680   44.8330 F   0  0  0  0  0  0  0  0  0  0  0  0
  187.9280   23.5630   45.7360 F   0  0  0  0  0  0  0  0  0  0  0  0
  185.2920   23.0890   42.4880 C   0  0  0  0  0  0  0  0  0  0  0  0
  186.3110   23.0590   41.3240 C   0  0  0  0  0  0  0  0  0  0  0  0
  188.9321   21.7905   40.5126 H   0  0  0  0  0  0  0  0  0  0  0  0
  187.8221   20.8550   39.4545 H   0  0  0  0  0  0  0  0  0  0  0  0
  187.7625   22.6503   39.4545 H   0  0  0  0  0  0  0  0  0  0  0  0
  186.2080   21.0500   40.8870 H   0  0  0  0  0  0  0  0  0  0  0  0
  187.9536   20.2859   42.3036 H   0  0  0  0  0  0  0  0  0  0  0  0
  188.3527   22.0240   42.6592 H   0  0  0  0  0  0  0  0  0  0  0  0
  185.7591   20.5712   43.4107 H   0  0  0  0  0  0  0  0  0  0  0  0
  187.0824   21.0506   44.5314 H   0  0  0  0  0  0  0  0  0  0  0  0
  183.5675   21.4571   44.1512 H   0  0  0  0  0  0  0  0  0  0  0  0
  178.8818   23.5155   48.0552 H   0  0  0  0  0  0  0  0  0  0  0  0
  176.5684   22.6437   48.4085 H   0  0  0  0  0  0  0  0  0  0  0  0
  175.9485   20.3718   47.5794 H   0  0  0  0  0  0  0  0  0  0  0  0
  177.5540   18.0040   46.9240 H   0  0  0  0  0  0  0  0  0  0  0  0
  183.3220   19.9320   44.7720 H   0  0  0  0  0  0  0  0  0  0  0  0
  182.8564   23.1861   48.0397 H   0  0  0  0  0  0  0  0  0  0  0  0
  185.0142   24.4068   47.8866 H   0  0  0  0  0  0  0  0  0  0  0  0
  184.4566   22.4110   42.2590 H   0  0  0  0  0  0  0  0  0  0  0  0
  184.9148   24.1147   42.6128 H   0  0  0  0  0  0  0  0  0  0  0  0
  185.7925   23.3336   40.3935 H   0  0  0  0  0  0  0  0  0  0  0  0
  187.1143   23.7713   41.5634 H   0  0  0  0  0  0  0  0  0  0  0  0
  1  2  1  0
  2  3  1  0
  3  4  1  0
  4  5  1  0
  5  6  1  0
  6  7  2  0
  7  8  1  0
  8  9  1  0
  9 10  1  0
 10 11  1  0
 11 12  2  0
 12 13  1  0
 13 14  2  0
 14 15  1  0
 15 16  1  0
 15 17  2  0
 17 18  1  0
 18 19  2  0
 18 20  1  0
 20 21  1  0
  8 22  2  0
 22 23  1  0
 23 24  2  0
 24 25  1  0
 25 26  1  0
 25 27  1  0
 25 28  1  0
  5 29  1  0
 29 30  1  0
 30  2  1  0
 24  6  1  0
 20  9  2  0
 17 11  1  0
  1 31  1  0
  1 32  1  0
  1 33  1  0
  2 34  1  0
  3 35  1  0
  3 36  1  0
  4 37  1  0
  4 38  1  0
  7 39  1  0
 12 40  1  0
 13 41  1  0
 14 42  1  0
 16 43  1  0
 21 44  1  0
 22 45  1  0
 23 46  1  0
 29 47  1  0
 29 48  1  0
 30 49  1  0
 30 50  1  0
M  CHG  1   2   1
M  END
>  <meeko>  (2) 
{"is_sidechain": [false], "free_energy": -5.938, "intermolecular_energy": -6.785, "internal_energy": -0.4}

$$$$
cand_056_out
     RDKit          3D

 50 53  0  0  0  0  0  0  0  0999 V2000
  175.8170   23.8820   49.5440 C   0  0  0  0  0  0  0  0  0  0  0  0
  177.1300   23.4290   49.0890 N   0  0  0  0  0  0  0  0  0  0  0  0
  177.2210   21.9510   49.1540 C   0  0  0  0  0  0  0  0  0  0  0  0
  178.5760   21.4190   48.6280 C   0  0  0  0  0  0  0  0  0  0  0  0
  178.7950   21.8880   47.2390 N   0  0  0  0  0  0  0  0  0  0  0  0
  179.9430   21.3430   46.6370 C   0  0  0  0  0  0  0  0  0  0  0  0
  181.1540   22.0570   46.5600 C   0  0  0  0  0  0  0  0  0  0  0  0
  182.3020   21.5100   45.9680 C   0  0  0  0  0  0  0  0  0  0  0  0
  183.5640   22.2720   45.8740 C   0  0  0  0  0  0  0  0  0  0  0  0
  184.2060   22.1080   44.6510 O   0  0  0  0  0  0  0  0  0  0  0  0
  185.3900   22.7630   44.4320 C   0  0  0  0  0  0  0  0  0  0  0  0
  185.9920   22.5820   43.1850 C   0  0  0  0  0  0  0  0  0  0  0  0
  187.2010   23.2190   42.8970 C   0  0  0  0  0  0  0  0  0  0  0  0
  187.8080   24.0350   43.8540 C   0  0  0  0  0  0  0  0  0  0  0  0
  187.2060   24.2140   45.0960 C   0  0  0  0  0  0  0  0  0  0  0  0
  187.8540   25.0250   45.9870 O   0  0  0  0  0  0  0  0  0  0  0  0
  185.9960   23.5770   45.3850 C   0  0  0  0  0  0  0  0  0  0  0  0
  185.3300   23.7370   46.6780 C   0  0  0  0  0  0  0  0  0  0  0  0
  185.8040   24.4330   47.5740 O   0  0  0  0  0  0  0  0  0  0  0  0
  184.0460   23.0250   46.8800 C   0  0  0  0  0  0  0  0  0  0  0  0
  183.4310   23.1720   48.1090 O   0  0  0  0  0  0  0  0  0  0  0  0
  182.2220   20.2250   45.4230 C   0  0  0  0  0  0  0  0  0  0  0  0
  181.0290   19.5020   45.4850 C   0  0  0  0  0  0  0  0  0  0  0  0
  179.8820   20.0490   46.0910 C   0  0  0  0  0  0  0  0  0  0  0  0
  178.6060   19.2450   46.1480 C   0  0  0  0  0  0  0  0  0  0  0  0
  178.0900   19.1650   47.4140 F   0  0  0  0  0  0  0  0  0  0  0  0
  178.7560   17.9480   45.7510 F   0  0  0  0  0  0  0  0  0  0  0  0
  177.5940   19.7650   45.3930 F   0  0  0  0  0  0  0  0  0  0  0  0
  178.7350   23.3660   47.1500 C   0  0  0  0  0  0  0  0  0  0  0  0
  177.3790   23.8720   47.6970 C   0  0  0  0  0  0  0  0  0  0  0  0
  175.7928   23.8903   50.6437 H   0  0  0  0  0  0  0  0  0  0  0  0
  175.6279   24.8973   49.1654 H   0  0  0  0  0  0  0  0  0  0  0  0
  175.0421   23.1993   49.1654 H   0  0  0  0  0  0  0  0  0  0  0  0
  177.8340   23.8380   49.7040 H   0  0  0  0  0  0  0  0  0  0  0  0
  177.1000   21.6354   50.2008 H   0  0  0  0  0  0  0  0  0  0  0  0
  176.4275   21.5379   48.5139 H   0  0  0  0  0  0  0  0  0  0  0  0
  179.3881   21.7896   49.2708 H   0  0  0  0  0  0  0  0  0  0  0  0
  178.5644   20.3192   48.6422 H   0  0  0  0  0  0  0  0  0  0  0  0
  181.2013   23.0740   46.9765 H   0  0  0  0  0  0  0  0  0  0  0  0
  185.5148   21.9388   42.4309 H   0  0  0  0  0  0  0  0  0  0  0  0
  187.6758   23.0778   41.9149 H   0  0  0  0  0  0  0  0  0  0  0  0
  188.7607   24.5356   43.6265 H   0  0  0  0  0  0  0  0  0  0  0  0
  188.7720   24.9110   46.1420 H   0  0  0  0  0  0  0  0  0  0  0  0
  182.7020   23.7530   48.2020 H   0  0  0  0  0  0  0  0  0  0  0  0
  183.1055   19.7802   44.9417 H   0  0  0  0  0  0  0  0  0  0  0  0
  180.9848   18.4908   45.0543 H   0  0  0  0  0  0  0  0  0  0  0  0
  179.5528   23.8006   47.7436 H   0  0  0  0  0  0  0  0  0  0  0  0
  178.8371   23.6698   46.0977 H   0  0  0  0  0  0  0  0  0  0  0  0
  177.3757   24.9717   47.6704 H   0  0  0  0  0  0  0  0  0  0  0  0
  176.5841   23.4508   47.0640 H   0  0  0  0  0  0  0  0  0  0  0  0
  1  2  1  0
  2  3  1  0
  3  4  1  0
  4  5  1  0
  5  6  1  0
  6  7  2  0
  7  8  1  0
  8  9  1  0
  9 10  1  0
 10 11  1  0
 11 12  2  0
 12 13  1  0
 13 14  2  0
 14 15  1  0
 15 16  1  0
 15 17  2  0
 17 18  1  0
 18 19  2  0
 18 20  1  0
 20 21  1  0
  8 22  2  0
 22 23  1  0
 23 24  2  0
 24 25  1  0
 25 26  1  0
 25 27  1  0
 25 28  1  0
  5 29  1  0
 29 30  1  0
 30  2  1  0
 24  6  1  0
 20  9  2  0
 17 11  1  0
  1 31  1  0
  1 32  1  0
  1 33  1  0
  2 34  1  0
  3 35  1  0
  3 36  1  0
  4 37  1  0
  4 38  1  0
  7 39  1  0
 12 40  1  0
 13 41  1  0
 14 42  1  0
 16 43  1  0
 21 44  1  0
 22 45  1  0
 23 46  1  0
 29 47  1  0
 29 48  1  0
 30 49  1  0
 30 50  1  0
M  CHG  1   2   1
M  END
>  <meeko>  (3) 
{"is_sidechain": [false], "free_energy": -5.933, "intermolecular_energy": -7.559, "internal_energy": 0.379}

$$$$
cand_056_out
     RDKit          3D

 50 53  0  0  0  0  0  0  0  0999 V2000
  186.9720   26.8490   50.7500 C   0  0  0  0  0  0  0  0  0  0  0  0
  186.1480   25.9320   49.9640 N   0  0  0  0  0  0  0  0  0  0  0  0
  185.6560   26.5990   48.7350 C   0  0  0  0  0  0  0  0  0  0  0  0
  184.8250   25.6490   47.8400 C   0  0  0  0  0  0  0  0  0  0  0  0
  185.6300   24.4550   47.4900 N   0  0  0  0  0  0  0  0  0  0  0  0
  184.9970   23.5990   46.5710 C   0  0  0  0  0  0  0  0  0  0  0  0
  183.7430   23.0170   46.8370 C   0  0  0  0  0  0  0  0  0  0  0  0
  183.1070   22.1720   45.9160 C   0  0  0  0  0  0  0  0  0  0  0  0
  181.8000   21.5480   46.2100 C   0  0  0  0  0  0  0  0  0  0  0  0
  180.9650   22.3680   46.9600 O   0  0  0  0  0  0  0  0  0  0  0  0
  179.7190   21.9100   47.3010 C   0  0  0  0  0  0  0  0  0  0  0  0
  178.9080   22.7720   48.0420 C   0  0  0  0  0  0  0  0  0  0  0  0
  177.6280   22.3660   48.4240 C   0  0  0  0  0  0  0  0  0  0  0  0
  177.1580   21.1000   48.0670 C   0  0  0  0  0  0  0  0  0  0  0  0
  177.9690   20.2430   47.3280 C   0  0  0  0  0  0  0  0  0  0  0  0
  177.4470   19.0170   47.0140 O   0  0  0  0  0  0  0  0  0  0  0  0
  179.2500   20.6480   46.9450 C   0  0  0  0  0  0  0  0  0  0  0  0
  180.1340   19.7780   46.1700 C   0  0  0  0  0  0  0  0  0  0  0  0
  179.7960   18.6480   45.8230 O   0  0  0  0  0  0  0  0  0  0  0  0
  181.4700   20.3060   45.8070 C   0  0  0  0  0  0  0  0  0  0  0  0
  182.3030   19.4720   45.0860 O   0  0  0  0  0  0  0  0  0  0  0  0
  183.7570   21.8910   44.7110 C   0  0  0  0  0  0  0  0  0  0  0  0
  185.0030   22.4560   44.4290 C   0  0  0  0  0  0  0  0  0  0  0  0
  185.6330   23.3130   45.3500 C   0  0  0  0  0  0  0  0  0  0  0  0
  186.9790   23.9130   45.0210 C   0  0  0  0  0  0  0  0  0  0  0  0
  187.5130   23.4050   43.8670 F   0  0  0  0  0  0  0  0  0  0  0  0
  187.9290   23.6850   45.9730 F   0  0  0  0  0  0  0  0  0  0  0  0
  186.9450   25.2630   44.8230 F   0  0  0  0  0  0  0  0  0  0  0  0
  186.1140   23.7530   48.7020 C   0  0  0  0  0  0  0  0  0  0  0  0
  186.9270   24.7290   49.5870 C   0  0  0  0  0  0  0  0  0  0  0  0
  186.8060   26.6643   51.8216 H   0  0  0  0  0  0  0  0  0  0  0  0
  188.0330   26.6860   50.5099 H   0  0  0  0  0  0  0  0  0  0  0  0
  186.6969   27.8866   50.5099 H   0  0  0  0  0  0  0  0  0  0  0  0
  185.3530   25.6530   50.5390 H   0  0  0  0  0  0  0  0  0  0  0  0
  185.0257   27.4527   49.0247 H   0  0  0  0  0  0  0  0  0  0  0  0
  186.5330   26.9234   48.1557 H   0  0  0  0  0  0  0  0  0  0  0  0
  183.9215   25.3338   48.3825 H   0  0  0  0  0  0  0  0  0  0  0  0
  184.5393   26.1767   46.9181 H   0  0  0  0  0  0  0  0  0  0  0  0
  183.2475   23.2313   47.7954 H   0  0  0  0  0  0  0  0  0  0  0  0
  179.2770   23.7691   48.3242 H   0  0  0  0  0  0  0  0  0  0  0  0
  176.9883   23.0445   49.0074 H   0  0  0  0  0  0  0  0  0  0  0  0
  176.1496   20.7809   48.3690 H   0  0  0  0  0  0  0  0  0  0  0  0
  177.8210   18.5150   46.3160 H   0  0  0  0  0  0  0  0  0  0  0  0
  182.0120   19.1090   44.2720 H   0  0  0  0  0  0  0  0  0  0  0  0
  183.2838   21.2198   43.9791 H   0  0  0  0  0  0  0  0  0  0  0  0
  185.4985   22.2278   43.4738 H   0  0  0  0  0  0  0  0  0  0  0  0
  185.2530   23.3744   49.2724 H   0  0  0  0  0  0  0  0  0  0  0  0
  186.7588   22.9141   48.4013 H   0  0  0  0  0  0  0  0  0  0  0  0
  187.2318   24.2038   50.5042 H   0  0  0  0  0  0  0  0  0  0  0  0
  187.7987   25.0627   49.0050 H   0  0  0  0  0  0  0  0  0  0  0  0
  1  2  1  0
  2  3  1  0
  3  4  1  0
  4  5  1  0
  5  6  1  0
  6  7  2  0
  7  8  1  0
  8  9  1  0
  9 10  1  0
 10 11  1  0
 11 12  2  0
 12 13  1  0
 13 14  2  0
 14 15  1  0
 15 16  1  0
 15 17  2  0
 17 18  1  0
 18 19  2  0
 18 20  1  0
 20 21  1  0
  8 22  2  0
 22 23  1  0
 23 24  2  0
 24 25  1  0
 25 26  1  0
 25 27  1  0
 25 28  1  0
  5 29  1  0
 29 30  1  0
 30  2  1  0
 24  6  1  0
 20  9  2  0
 17 11  1  0
  1 31  1  0
  1 32  1  0
  1 33  1  0
  2 34  1  0
  3 35  1  0
  3 36  1  0
  4 37  1  0
  4 38  1  0
  7 39  1  0
 12 40  1  0
 13 41  1  0
 14 42  1  0
 16 43  1  0
 21 44  1  0
 22 45  1  0
 23 46  1  0
 29 47  1  0
 29 48  1  0
 30 49  1  0
 30 50  1  0
M  CHG  1   2   1
M  END
>  <meeko>  (4) 
{"is_sidechain": [false], "free_energy": -5.829, "intermolecular_energy": -6.761, "internal_energy": -0.29}

$$$$
cand_056_out
     RDKit          3D

 50 53  0  0  0  0  0  0  0  0999 V2000
  174.0600   21.0120   48.2680 C   0  0  0  0  0  0  0  0  0  0  0  0
  175.2060   20.6580   47.4320 N   0  0  0  0  0  0  0  0  0  0  0  0
  176.1900   21.7660   47.4040 C   0  0  0  0  0  0  0  0  0  0  0  0
  177.4500   21.4160   46.5760 C   0  0  0  0  0  0  0  0  0  0  0  0
  178.0770   20.1840   47.1110 N   0  0  0  0  0  0  0  0  0  0  0  0
  179.3030   19.8660   46.4990 C   0  0  0  0  0  0  0  0  0  0  0  0
  179.4190   18.8200   45.5650 C   0  0  0  0  0  0  0  0  0  0  0  0
  180.6390   18.5080   44.9470 C   0  0  0  0  0  0  0  0  0  0  0  0
  180.7580   17.3970   43.9810 C   0  0  0  0  0  0  0  0  0  0  0  0
  181.0240   17.8290   42.6870 O   0  0  0  0  0  0  0  0  0  0  0  0
  181.1600   16.8970   41.6910 C   0  0  0  0  0  0  0  0  0  0  0  0
  181.4410   17.3760   40.4100 C   0  0  0  0  0  0  0  0  0  0  0  0
  181.5900   16.4790   39.3500 C   0  0  0  0  0  0  0  0  0  0  0  0
  181.4570   15.1060   39.5690 C   0  0  0  0  0  0  0  0  0  0  0  0
  181.1770   14.6320   40.8480 C   0  0  0  0  0  0  0  0  0  0  0  0
  181.0580   13.2770   40.9920 O   0  0  0  0  0  0  0  0  0  0  0  0
  181.0280   15.5290   41.9090 C   0  0  0  0  0  0  0  0  0  0  0  0
  180.7320   15.0730   43.2670 C   0  0  0  0  0  0  0  0  0  0  0  0
  180.5940   13.8820   43.5390 O   0  0  0  0  0  0  0  0  0  0  0  0
  180.6020   16.1040   44.3230 C   0  0  0  0  0  0  0  0  0  0  0  0
  180.3090   15.6640   45.6000 O   0  0  0  0  0  0  0  0  0  0  0  0
  181.7700   19.2530   45.2940 C   0  0  0  0  0  0  0  0  0  0  0  0
  181.6760   20.2920   46.2220 C   0  0  0  0  0  0  0  0  0  0  0  0
  180.4480   20.6100   46.8320 C   0  0  0  0  0  0  0  0  0  0  0  0
  180.3740   21.7400   47.8290 C   0  0  0  0  0  0  0  0  0  0  0  0
  181.5850   22.0150   48.4050 F   0  0  0  0  0  0  0  0  0  0  0  0
  179.5390   21.4900   48.8800 F   0  0  0  0  0  0  0  0  0  0  0  0
  179.9700   22.9260   47.2880 F   0  0  0  0  0  0  0  0  0  0  0  0
  177.1210   19.0520   47.1270 C   0  0  0  0  0  0  0  0  0  0  0  0
  175.8650   19.4340   47.9460 C   0  0  0  0  0  0  0  0  0  0  0  0
  174.3392   20.9258   49.3285 H   0  0  0  0  0  0  0  0  0  0  0  0
  173.7544   22.0464   48.0523 H   0  0  0  0  0  0  0  0  0  0  0  0
  173.2242   20.3302   48.0523 H   0  0  0  0  0  0  0  0  0  0  0  0
  174.8640   20.4860   46.4860 H   0  0  0  0  0  0  0  0  0  0  0  0
  175.7115   22.6522   46.9615 H   0  0  0  0  0  0  0  0  0  0  0  0
  176.5110   21.9554   48.4389 H   0  0  0  0  0  0  0  0  0  0  0  0
  177.1636   21.2537   45.5264 H   0  0  0  0  0  0  0  0  0  0  0  0
  178.1687   22.2463   46.6403 H   0  0  0  0  0  0  0  0  0  0  0  0
  178.5263   18.2293   45.3119 H   0  0  0  0  0  0  0  0  0  0  0  0
  181.5448   18.4572   40.2361 H   0  0  0  0  0  0  0  0  0  0  0  0
  181.8126   16.8547   38.3404 H   0  0  0  0  0  0  0  0  0  0  0  0
  181.5732   14.4007   38.7329 H   0  0  0  0  0  0  0  0  0  0  0  0
  180.4530   12.9230   41.6140 H   0  0  0  0  0  0  0  0  0  0  0  0
  179.4650   15.8320   45.9720 H   0  0  0  0  0  0  0  0  0  0  0  0
  182.7408   19.0190   44.8327 H   0  0  0  0  0  0  0  0  0  0  0  0
  182.5751   20.8707   46.4803 H   0  0  0  0  0  0  0  0  0  0  0  0
  176.8243   18.8108   46.0956 H   0  0  0  0  0  0  0  0  0  0  0  0
  177.6027   18.1781   47.5898 H   0  0  0  0  0  0  0  0  0  0  0  0
  175.1476   18.6013   47.9015 H   0  0  0  0  0  0  0  0  0  0  0  0
  176.1863   19.6346   48.9787 H   0  0  0  0  0  0  0  0  0  0  0  0
  1  2  1  0
  2  3  1  0
  3  4  1  0
  4  5  1  0
  5  6  1  0
  6  7  2  0
  7  8  1  0
  8  9  1  0
  9 10  1  0
 10 11  1  0
 11 12  2  0
 12 13  1  0
 13 14  2  0
 14 15  1  0
 15 16  1  0
 15 17  2  0
 17 18  1  0
 18 19  2  0
 18 20  1  0
 20 21  1  0
  8 22  2  0
 22 23  1  0
 23 24  2  0
 24 25  1  0
 25 26  1  0
 25 27  1  0
 25 28  1  0
  5 29  1  0
 29 30  1  0
 30  2  1  0
 24  6  1  0
 20  9  2  0
 17 11  1  0
  1 31  1  0
  1 32  1  0
  1 33  1  0
  2 34  1  0
  3 35  1  0
  3 36  1  0
  4 37  1  0
  4 38  1  0
  7 39  1  0
 12 40  1  0
 13 41  1  0
 14 42  1  0
 16 43  1  0
 21 44  1  0
 22 45  1  0
 23 46  1  0
 29 47  1  0
 29 48  1  0
 30 49  1  0
 30 50  1  0
M  CHG  1   2   1
M  END
>  <meeko>  (5) 
{"is_sidechain": [false], "free_energy": -5.217, "intermolecular_energy": -6.268, "internal_energy": -0.028}

$$$$
cand_056_out
     RDKit          3D

 50 53  0  0  0  0  0  0  0  0999 V2000
  186.6890   27.0120   48.4030 C   0  0  0  0  0  0  0  0  0  0  0  0
  185.6010   26.1510   47.9420 N   0  0  0  0  0  0  0  0  0  0  0  0
  185.7050   25.9190   46.4820 C   0  0  0  0  0  0  0  0  0  0  0  0
  184.6060   24.9660   45.9550 C   0  0  0  0  0  0  0  0  0  0  0  0
  184.6650   23.6780   46.6860 N   0  0  0  0  0  0  0  0  0  0  0  0
  183.7850   22.7040   46.1820 C   0  0  0  0  0  0  0  0  0  0  0  0
  182.5290   22.4600   46.7690 C   0  0  0  0  0  0  0  0  0  0  0  0
  181.6470   21.4960   46.2600 C   0  0  0  0  0  0  0  0  0  0  0  0
  180.3370   21.2310   46.8920 C   0  0  0  0  0  0  0  0  0  0  0  0
  179.5800   20.2950   46.1980 O   0  0  0  0  0  0  0  0  0  0  0  0
  178.3420   19.9560   46.6790 C   0  0  0  0  0  0  0  0  0  0  0  0
  177.6230   19.0010   45.9590 C   0  0  0  0  0  0  0  0  0  0  0  0
  176.3530   18.6120   46.3930 C   0  0  0  0  0  0  0  0  0  0  0  0
  175.8040   19.1790   47.5460 C   0  0  0  0  0  0  0  0  0  0  0  0
  176.5230   20.1320   48.2610 C   0  0  0  0  0  0  0  0  0  0  0  0
  175.9250   20.6460   49.3790 O   0  0  0  0  0  0  0  0  0  0  0  0
  177.7930   20.5200   47.8270 C   0  0  0  0  0  0  0  0  0  0  0  0
  178.5820   21.5190   48.5500 C   0  0  0  0  0  0  0  0  0  0  0  0
  178.1650   22.0670   49.5670 O   0  0  0  0  0  0  0  0  0  0  0  0
  179.9210   21.8540   48.0110 C   0  0  0  0  0  0  0  0  0  0  0  0
  180.6540   22.8080   48.6920 O   0  0  0  0  0  0  0  0  0  0  0  0
  182.0470   20.7470   45.1490 C   0  0  0  0  0  0  0  0  0  0  0  0
  183.2910   20.9710   44.5550 C   0  0  0  0  0  0  0  0  0  0  0  0
  184.1690   21.9480   45.0610 C   0  0  0  0  0  0  0  0  0  0  0  0
  185.5070   22.1720   44.3980 C   0  0  0  0  0  0  0  0  0  0  0  0
  185.9000   21.1070   43.6310 F   0  0  0  0  0  0  0  0  0  0  0  0
  186.5310   22.3610   45.2800 F   0  0  0  0  0  0  0  0  0  0  0  0
  185.5270   23.2390   43.5470 F   0  0  0  0  0  0  0  0  0  0  0  0
  184.5370   23.8780   48.1490 C   0  0  0  0  0  0  0  0  0  0  0  0
  185.6370   24.8480   48.6460 C   0  0  0  0  0  0  0  0  0  0  0  0
  186.7054   27.0250   49.5028 H   0  0  0  0  0  0  0  0  0  0  0  0
  187.6474   26.6251   48.0265 H   0  0  0  0  0  0  0  0  0  0  0  0
  186.5327   28.0337   48.0265 H   0  0  0  0  0  0  0  0  0  0  0  0
  184.7190   26.6220   48.1480 H   0  0  0  0  0  0  0  0  0  0  0  0
  185.6130   26.8848   45.9637 H   0  0  0  0  0  0  0  0  0  0  0  0
  186.6792   25.4471   46.2866 H   0  0  0  0  0  0  0  0  0  0  0  0
  183.6191   25.4273   46.1071 H   0  0  0  0  0  0  0  0  0  0  0  0
  184.7683   24.7825   44.8826 H   0  0  0  0  0  0  0  0  0  0  0  0
  182.2307   23.0427   47.6530 H   0  0  0  0  0  0  0  0  0  0  0  0
  178.0554   18.5551   45.0511 H   0  0  0  0  0  0  0  0  0  0  0  0
  175.7852   17.8591   45.8267 H   0  0  0  0  0  0  0  0  0  0  0  0
  174.8045   18.8724   47.8881 H   0  0  0  0  0  0  0  0  0  0  0  0
  175.3060   20.1310   49.8580 H   0  0  0  0  0  0  0  0  0  0  0  0
  181.2570   23.3550   48.2290 H   0  0  0  0  0  0  0  0  0  0  0  0
  181.3773   19.9761   44.7401 H   0  0  0  0  0  0  0  0  0  0  0  0
  183.5889   20.3755   43.6794 H   0  0  0  0  0  0  0  0  0  0  0  0
  183.5475   24.3025   48.3740 H   0  0  0  0  0  0  0  0  0  0  0  0
  184.6506   22.9097   48.6584 H   0  0  0  0  0  0  0  0  0  0  0  0
  185.4930   25.0239   49.7223 H   0  0  0  0  0  0  0  0  0  0  0  0
  186.6123   24.3826   48.4406 H   0  0  0  0  0  0  0  0  0  0  0  0
  1  2  1  0
  2  3  1  0
  3  4  1  0
  4  5  1  0
  5  6  1  0
  6  7  2  0
  7  8  1  0
  8  9  1  0
  9 10  1  0
 10 11  1  0
 11 12  2  0
 12 13  1  0
 13 14  2  0
 14 15  1  0
 15 16  1  0
 15 17  2  0
 17 18  1  0
 18 19  2  0
 18 20  1  0
 20 21  1  0
  8 22  2  0
 22 23  1  0
 23 24  2  0
 24 25  1  0
 25 26  1  0
 25 27  1  0
 25 28  1  0
  5 29  1  0
 29 30  1  0
 30  2  1  0
 24  6  1  0
 20  9  2  0
 17 11  1  0
  1 31  1  0
  1 32  1  0
  1 33  1  0
  2 34  1  0
  3 35  1  0
  3 36  1  0
  4 37  1  0
  4 38  1  0
  7 39  1  0
 12 40  1  0
 13 41  1  0
 14 42  1  0
 16 43  1  0
 21 44  1  0
 22 45  1  0
 23 46  1  0
 29 47  1  0
 29 48  1  0
 30 49  1  0
 30 50  1  0
M  CHG  1   2   1
M  END
>  <meeko>  (6) 
{"is_sidechain": [false], "free_energy": -4.545, "intermolecular_energy": -5.718, "internal_energy": 0.252}

$$$$
cand_056_out
     RDKit          3D

 50 53  0  0  0  0  0  0  0  0999 V2000
  187.1140   25.5580   51.8790 C   0  0  0  0  0  0  0  0  0  0  0  0
  186.4560   24.7740   50.8350 N   0  0  0  0  0  0  0  0  0  0  0  0
  185.3440   25.5440   50.2300 C   0  0  0  0  0  0  0  0  0  0  0  0
  184.6520   24.7760   49.0780 C   0  0  0  0  0  0  0  0  0  0  0  0
  185.6490   24.4150   48.0440 N   0  0  0  0  0  0  0  0  0  0  0  0
  185.0830   23.8280   46.8980 C   0  0  0  0  0  0  0  0  0  0  0  0
  184.0220   22.9070   46.9800 C   0  0  0  0  0  0  0  0  0  0  0  0
  183.4510   22.3290   45.8370 C   0  0  0  0  0  0  0  0  0  0  0  0
  182.3490   21.3490   45.9310 C   0  0  0  0  0  0  0  0  0  0  0  0
  182.5490   20.2310   45.1290 O   0  0  0  0  0  0  0  0  0  0  0  0
  181.6000   19.2420   45.1230 C   0  0  0  0  0  0  0  0  0  0  0  0
  181.8480   18.1310   44.3150 C   0  0  0  0  0  0  0  0  0  0  0  0
  180.9210   17.0880   44.2610 C   0  0  0  0  0  0  0  0  0  0  0  0
  179.7470   17.1550   45.0150 C   0  0  0  0  0  0  0  0  0  0  0  0
  179.5020   18.2640   45.8200 C   0  0  0  0  0  0  0  0  0  0  0  0
  178.3330   18.2650   46.5310 O   0  0  0  0  0  0  0  0  0  0  0  0
  180.4300   19.3070   45.8740 C   0  0  0  0  0  0  0  0  0  0  0  0
  180.2110   20.4910   46.7070 C   0  0  0  0  0  0  0  0  0  0  0  0
  179.2000   20.6270   47.3930 O   0  0  0  0  0  0  0  0  0  0  0  0
  181.2600   21.5370   46.6990 C   0  0  0  0  0  0  0  0  0  0  0  0
  181.0380   22.6570   47.4790 O   0  0  0  0  0  0  0  0  0  0  0  0
  183.9740   22.6710   44.5860 C   0  0  0  0  0  0  0  0  0  0  0  0
  185.0300   23.5790   44.4840 C   0  0  0  0  0  0  0  0  0  0  0  0
  185.5930   24.1660   45.6320 C   0  0  0  0  0  0  0  0  0  0  0  0
  186.7310   25.1480   45.4940 C   0  0  0  0  0  0  0  0  0  0  0  0
  187.9300   24.6240   45.9000 F   0  0  0  0  0  0  0  0  0  0  0  0
  186.5750   26.2780   46.2430 F   0  0  0  0  0  0  0  0  0  0  0  0
  186.9490   25.5600   44.2110 F   0  0  0  0  0  0  0  0  0  0  0  0
  186.7620   23.6210   48.6170 C   0  0  0  0  0  0  0  0  0  0  0  0
  187.4250   24.4040   49.7760 C   0  0  0  0  0  0  0  0  0  0  0  0
  186.8029   25.1874   52.8669 H   0  0  0  0  0  0  0  0  0  0  0  0
  188.2050   25.4609   51.7778 H   0  0  0  0  0  0  0  0  0  0  0  0
  186.8291   26.6156   51.7778 H   0  0  0  0  0  0  0  0  0  0  0  0
  186.0860   23.9260   51.2650 H   0  0  0  0  0  0  0  0  0  0  0  0
  184.5981   25.7587   51.0094 H   0  0  0  0  0  0  0  0  0  0  0  0
  185.7663   26.4688   49.8101 H   0  0  0  0  0  0  0  0  0  0  0  0
  184.1905   23.8600   49.4755 H   0  0  0  0  0  0  0  0  0  0  0  0
  183.8788   25.4163   48.6283 H   0  0  0  0  0  0  0  0  0  0  0  0
  183.6290   22.6324   47.9700 H   0  0  0  0  0  0  0  0  0  0  0  0
  182.7726   18.0772   43.7215 H   0  0  0  0  0  0  0  0  0  0  0  0
  181.1155   16.2126   43.6239 H   0  0  0  0  0  0  0  0  0  0  0  0
  179.0174   16.3329   44.9727 H   0  0  0  0  0  0  0  0  0  0  0  0
  177.5180   18.1210   46.0910 H   0  0  0  0  0  0  0  0  0  0  0  0
  180.7950   23.4680   47.0760 H   0  0  0  0  0  0  0  0  0  0  0  0
  183.5505   22.2215   43.6757 H   0  0  0  0  0  0  0  0  0  0  0  0
  185.4274   23.8391   43.4918 H   0  0  0  0  0  0  0  0  0  0  0  0
  186.3705   22.6665   48.9986 H   0  0  0  0  0  0  0  0  0  0  0  0
  187.5107   23.4293   47.8343 H   0  0  0  0  0  0  0  0  0  0  0  0
  188.2122   23.7775   50.2207 H   0  0  0  0  0  0  0  0  0  0  0  0
  187.8378   25.3345   49.3592 H   0  0  0  0  0  0  0  0  0  0  0  0
  1  2  1  0
  2  3  1  0
  3  4  1  0
  4  5  1  0
  5  6  1  0
  6  7  2  0
  7  8  1  0
  8  9  1  0
  9 10  1  0
 10 11  1  0
 11 12  2  0
 12 13  1  0
 13 14  2  0
 14 15  1  0
 15 16  1  0
 15 17  2  0
 17 18  1  0
 18 19  2  0
 18 20  1  0
 20 21  1  0
  8 22  2  0
 22 23  1  0
 23 24  2  0
 24 25  1  0
 25 26  1  0
 25 27  1  0
 25 28  1  0
  5 29  1  0
 29 30  1  0
 30  2  1  0
 24  6  1  0
 20  9  2  0
 17 11  1  0
  1 31  1  0
  1 32  1  0
  1 33  1  0
  2 34  1  0
  3 35  1  0
  3 36  1  0
  4 37  1  0
  4 38  1  0
  7 39  1  0
 12 40  1  0
 13 41  1  0
 14 42  1  0
 16 43  1  0
 21 44  1  0
 22 45  1  0
 23 46  1  0
 29 47  1  0
 29 48  1  0
 30 49  1  0
 30 50  1  0
M  CHG  1   2   1
M  END
>  <meeko>  (7) 
{"is_sidechain": [false], "free_energy": -4.152, "intermolecular_energy": -4.705, "internal_energy": -0.276}

$$$$
cand_056_out
     RDKit          3D

 50 53  0  0  0  0  0  0  0  0999 V2000
  180.4290   14.4310   43.0730 C   0  0  0  0  0  0  0  0  0  0  0  0
  180.8920   15.6240   43.7810 N   0  0  0  0  0  0  0  0  0  0  0  0
  180.9200   16.7910   42.8690 C   0  0  0  0  0  0  0  0  0  0  0  0
  181.3500   18.0920   43.5880 C   0  0  0  0  0  0  0  0  0  0  0  0
  180.4470   18.3560   44.7330 N   0  0  0  0  0  0  0  0  0  0  0  0
  180.6860   19.5890   45.3650 C   0  0  0  0  0  0  0  0  0  0  0  0
  181.9250   20.2500   45.2640 C   0  0  0  0  0  0  0  0  0  0  0  0
  182.1600   21.4850   45.8860 C   0  0  0  0  0  0  0  0  0  0  0  0
  183.4690   22.1640   45.7920 C   0  0  0  0  0  0  0  0  0  0  0  0
  184.1100   21.9400   44.5790 O   0  0  0  0  0  0  0  0  0  0  0  0
  185.3350   22.5150   44.3610 C   0  0  0  0  0  0  0  0  0  0  0  0
  185.9360   22.2750   43.1240 C   0  0  0  0  0  0  0  0  0  0  0  0
  187.1860   22.8290   42.8380 C   0  0  0  0  0  0  0  0  0  0  0  0
  187.8340   23.6220   43.7880 C   0  0  0  0  0  0  0  0  0  0  0  0
  187.2320   23.8600   45.0200 C   0  0  0  0  0  0  0  0  0  0  0  0
  187.9220   24.6440   45.9040 O   0  0  0  0  0  0  0  0  0  0  0  0
  185.9820   23.3060   45.3070 C   0  0  0  0  0  0  0  0  0  0  0  0
  185.3150   23.5300   46.5900 C   0  0  0  0  0  0  0  0  0  0  0  0
  185.8240   24.2100   47.4790 O   0  0  0  0  0  0  0  0  0  0  0  0
  183.9880   22.9040   46.7910 C   0  0  0  0  0  0  0  0  0  0  0  0
  183.3720   23.1100   48.0100 O   0  0  0  0  0  0  0  0  0  0  0  0
  181.1310   22.0560   46.6420 C   0  0  0  0  0  0  0  0  0  0  0  0
  179.8970   21.4140   46.7570 C   0  0  0  0  0  0  0  0  0  0  0  0
  179.6600   20.1810   46.1220 C   0  0  0  0  0  0  0  0  0  0  0  0
  178.3150   19.5100   46.2600 C   0  0  0  0  0  0  0  0  0  0  0  0
  177.7540   19.7040   47.4940 F   0  0  0  0  0  0  0  0  0  0  0  0
  178.3610   18.1540   46.1100 F   0  0  0  0  0  0  0  0  0  0  0  0
  177.3790   19.9650   45.3770 F   0  0  0  0  0  0  0  0  0  0  0  0
  180.4200   17.2130   45.6760 C   0  0  0  0  0  0  0  0  0  0  0  0
  180.0040   15.9230   44.9280 C   0  0  0  0  0  0  0  0  0  0  0  0
  180.1313   13.6639   43.8030 H   0  0  0  0  0  0  0  0  0  0  0  0
  179.5664   14.6909   42.4418 H   0  0  0  0  0  0  0  0  0  0  0  0
  181.2410   14.0410   42.4418 H   0  0  0  0  0  0  0  0  0  0  0  0
  181.8350   15.4390   44.1230 H   0  0  0  0  0  0  0  0  0  0  0  0
  181.6307   16.5860   42.0548 H   0  0  0  0  0  0  0  0  0  0  0  0
  179.9000   16.9413   42.4856 H   0  0  0  0  0  0  0  0  0  0  0  0
  182.3815   17.9828   43.9543 H   0  0  0  0  0  0  0  0  0  0  0  0
  181.2943   18.9327   42.8808 H   0  0  0  0  0  0  0  0  0  0  0  0
  182.7325   19.7842   44.6801 H   0  0  0  0  0  0  0  0  0  0  0  0
  185.4260   21.6506   42.3757 H   0  0  0  0  0  0  0  0  0  0  0  0
  187.6606   22.6406   41.8637 H   0  0  0  0  0  0  0  0  0  0  0  0
  188.8186   24.0577   43.5627 H   0  0  0  0  0  0  0  0  0  0  0  0
  188.7430   25.0200   45.6540 H   0  0  0  0  0  0  0  0  0  0  0  0
  183.7720   23.6670   48.6500 H   0  0  0  0  0  0  0  0  0  0  0  0
  181.2955   23.0179   47.1496 H   0  0  0  0  0  0  0  0  0  0  0  0
  179.0978   21.8789   47.3530 H   0  0  0  0  0  0  0  0  0  0  0  0
  181.4208   17.0756   46.1114 H   0  0  0  0  0  0  0  0  0  0  0  0
  179.6923   17.4194   46.4747 H   0  0  0  0  0  0  0  0  0  0  0  0
  180.0405   15.0789   45.6324 H   0  0  0  0  0  0  0  0  0  0  0  0
  178.9882   16.0762   44.5347 H   0  0  0  0  0  0  0  0  0  0  0  0
  1  2  1  0
  2  3  1  0
  3  4  1  0
  4  5  1  0
  5  6  1  0
  6  7  2  0
  7  8  1  0
  8  9  1  0
  9 10  1  0
 10 11  1  0
 11 12  2  0
 12 13  1  0
 13 14  2  0
 14 15  1  0
 15 16  1  0
 15 17  2  0
 17 18  1  0
 18 19  2  0
 18 20  1  0
 20 21  1  0
  8 22  2  0
 22 23  1  0
 23 24  2  0
 24 25  1  0
 25 26  1  0
 25 27  1  0
 25 28  1  0
  5 29  1  0
 29 30  1  0
 30  2  1  0
 24  6  1  0
 20  9  2  0
 17 11  1  0
  1 31  1  0
  1 32  1  0
  1 33  1  0
  2 34  1  0
  3 35  1  0
  3 36  1  0
  4 37  1  0
  4 38  1  0
  7 39  1  0
 12 40  1  0
 13 41  1  0
 14 42  1  0
 16 43  1  0
 21 44  1  0
 22 45  1  0
 23 46  1  0
 29 47  1  0
 29 48  1  0
 30 49  1  0
 30 50  1  0
M  CHG  1   2   1
M  END
>  <meeko>  (8) 
{"is_sidechain": [false], "free_energy": -4.118, "intermolecular_energy": -6.524, "internal_energy": 1.584}

$$$$
cand_056_out
     RDKit          3D

 50 53  0  0  0  0  0  0  0  0999 V2000
  180.6360   14.6890   43.1630 C   0  0  0  0  0  0  0  0  0  0  0  0
  181.0320   15.8660   43.9350 N   0  0  0  0  0  0  0  0  0  0  0  0
  181.1550   17.0500   43.0520 C   0  0  0  0  0  0  0  0  0  0  0  0
  181.5180   18.3350   43.8340 C   0  0  0  0  0  0  0  0  0  0  0  0
  180.5080   18.5840   44.8890 N   0  0  0  0  0  0  0  0  0  0  0  0
  180.6880   19.8040   45.5640 C   0  0  0  0  0  0  0  0  0  0  0  0
  181.9190   20.4880   45.5490 C   0  0  0  0  0  0  0  0  0  0  0  0
  182.0970   21.7100   46.2130 C   0  0  0  0  0  0  0  0  0  0  0  0
  183.3960   22.4140   46.2100 C   0  0  0  0  0  0  0  0  0  0  0  0
  183.6420   23.1030   47.3910 O   0  0  0  0  0  0  0  0  0  0  0  0
  184.8160   23.8000   47.5200 C   0  0  0  0  0  0  0  0  0  0  0  0
  185.0280   24.4660   48.7280 C   0  0  0  0  0  0  0  0  0  0  0  0
  186.2030   25.1950   48.9240 C   0  0  0  0  0  0  0  0  0  0  0  0
  187.1640   25.2600   47.9120 C   0  0  0  0  0  0  0  0  0  0  0  0
  186.9490   24.5960   46.7080 C   0  0  0  0  0  0  0  0  0  0  0  0
  187.9300   24.7020   45.7600 O   0  0  0  0  0  0  0  0  0  0  0  0
  185.7740   23.8650   46.5120 C   0  0  0  0  0  0  0  0  0  0  0  0
  185.5090   23.1530   45.2620 C   0  0  0  0  0  0  0  0  0  0  0  0
  186.3020   23.1680   44.3220 O   0  0  0  0  0  0  0  0  0  0  0  0
  184.2370   22.4010   45.1580 C   0  0  0  0  0  0  0  0  0  0  0  0
  183.9890   21.7420   43.9690 O   0  0  0  0  0  0  0  0  0  0  0  0
  181.0180   22.2440   46.9250 C   0  0  0  0  0  0  0  0  0  0  0  0
  179.7910   21.5790   46.9560 C   0  0  0  0  0  0  0  0  0  0  0  0
  179.6120   20.3580   46.2780 C   0  0  0  0  0  0  0  0  0  0  0  0
  178.2740   19.6610   46.3250 C   0  0  0  0  0  0  0  0  0  0  0  0
  178.3630   18.3310   46.0110 F   0  0  0  0  0  0  0  0  0  0  0  0
  177.3620   20.1650   45.4430 F   0  0  0  0  0  0  0  0  0  0  0  0
  177.6810   19.6890   47.5540 F   0  0  0  0  0  0  0  0  0  0  0  0
  180.3830   17.4240   45.8040 C   0  0  0  0  0  0  0  0  0  0  0  0
  180.0360   16.1510   44.9950 C   0  0  0  0  0  0  0  0  0  0  0  0
  180.3621   13.8749   43.8502 H   0  0  0  0  0  0  0  0  0  0  0  0
  179.7727   14.9397   42.5290 H   0  0  0  0  0  0  0  0  0  0  0  0
  181.4753   14.3669   42.5290 H   0  0  0  0  0  0  0  0  0  0  0  0
  181.9360   15.6700   44.3650 H   0  0  0  0  0  0  0  0  0  0  0  0
  181.9415   16.8554   42.3080 H   0  0  0  0  0  0  0  0  0  0  0  0
  180.1783   17.2138   42.5733 H   0  0  0  0  0  0  0  0  0  0  0  0
  182.5078   18.2125   44.2980 H   0  0  0  0  0  0  0  0  0  0  0  0
  181.5362   19.1887   43.1405 H   0  0  0  0  0  0  0  0  0  0  0  0
  182.7660   20.0506   45.0001 H   0  0  0  0  0  0  0  0  0  0  0  0
  184.2709   24.4168   49.5244 H   0  0  0  0  0  0  0  0  0  0  0  0
  186.3721   25.7187   49.8764 H   0  0  0  0  0  0  0  0  0  0  0  0
  188.0889   25.8350   48.0666 H   0  0  0  0  0  0  0  0  0  0  0  0
  187.8070   25.2640   45.0200 H   0  0  0  0  0  0  0  0  0  0  0  0
  184.3550   20.8920   43.8180 H   0  0  0  0  0  0  0  0  0  0  0  0
  181.1372   23.1951   47.4646 H   0  0  0  0  0  0  0  0  0  0  0  0
  178.9520   22.0151   47.5181 H   0  0  0  0  0  0  0  0  0  0  0  0
  181.3356   17.2720   46.3327 H   0  0  0  0  0  0  0  0  0  0  0  0
  179.5817   17.6208   46.5315 H   0  0  0  0  0  0  0  0  0  0  0  0
  179.9982   15.2941   45.6837 H   0  0  0  0  0  0  0  0  0  0  0  0
  179.0649   16.3186   44.5063 H   0  0  0  0  0  0  0  0  0  0  0  0
  1  2  1  0
  2  3  1  0
  3  4  1  0
  4  5  1  0
  5  6  1  0
  6  7  2  0
  7  8  1  0
  8  9  1  0
  9 10  1  0
 10 11  1  0
 11 12  2  0
 12 13  1  0
 13 14  2  0
 14 15  1  0
 15 16  1  0
 15 17  2  0
 17 18  1  0
 18 19  2  0
 18 20  1  0
 20 21  1  0
  8 22  2  0
 22 23  1  0
 23 24  2  0
 24 25  1  0
 25 26  1  0
 25 27  1  0
 25 28  1  0
  5 29  1  0
 29 30  1  0
 30  2  1  0
 24  6  1  0
 20  9  2  0
 17 11  1  0
  1 31  1  0
  1 32  1  0
  1 33  1  0
  2 34  1  0
  3 35  1  0
  3 36  1  0
  4 37  1  0
  4 38  1  0
  7 39  1  0
 12 40  1  0
 13 41  1  0
 14 42  1  0
 16 43  1  0
 21 44  1  0
 22 45  1  0
 23 46  1  0
 29 47  1  0
 29 48  1  0
 30 49  1  0
 30 50  1  0
M  CHG  1   2   1
M  END
>  <meeko>  (9) 
{"is_sidechain": [false], "free_energy": -3.762, "intermolecular_energy": -6.363, "internal_energy": 1.862}

$$$$
