cand_033_out
     RDKit          3D

 44 46  0  0  0  0  0  0  0  0999 V2000
  175.5450   19.6010   49.0870 C   0  0  0  0  0  0  0  0  0  0  0  0
  174.9730   19.8250   47.6960 C   0  0  0  0  0  0  0  0  0  0  0  0
  175.6670   20.9910   46.9890 C   0  0  0  0  0  0  0  0  0  0  0  0
  177.1700   20.9240   47.1420 C   0  0  0  0  0  0  0  0  0  0  0  0
  177.8660   19.9440   46.4040 C   0  0  0  0  0  0  0  0  0  0  0  0
  179.2560   19.7930   46.4980 C   0  0  0  0  0  0  0  0  0  0  0  0
  179.9860   18.7820   45.7040 C   0  0  0  0  0  0  0  0  0  0  0  0
  179.3700   17.5360   45.7210 O   0  0  0  0  0  0  0  0  0  0  0  0
  179.9430   16.5020   45.0250 C   0  0  0  0  0  0  0  0  0  0  0  0
  179.3000   15.2660   45.0810 C   0  0  0  0  0  0  0  0  0  0  0  0
  179.8310   14.1720   44.3930 C   0  0  0  0  0  0  0  0  0  0  0  0
  181.0030   14.3160   43.6480 C   0  0  0  0  0  0  0  0  0  0  0  0
  181.6420   15.5520   43.5930 C   0  0  0  0  0  0  0  0  0  0  0  0
  182.7850   15.6230   42.8450 O   0  0  0  0  0  0  0  0  0  0  0  0
  181.1110   16.6450   44.2820 C   0  0  0  0  0  0  0  0  0  0  0  0
  181.7520   17.9620   44.2510 C   0  0  0  0  0  0  0  0  0  0  0  0
  182.7820   18.1680   43.6120 O   0  0  0  0  0  0  0  0  0  0  0  0
  181.1140   19.0520   45.0220 C   0  0  0  0  0  0  0  0  0  0  0  0
  181.7200   20.2940   44.9750 O   0  0  0  0  0  0  0  0  0  0  0  0
  179.9600   20.6570   47.3420 C   0  0  0  0  0  0  0  0  0  0  0  0
  179.2880   21.6310   48.0860 C   0  0  0  0  0  0  0  0  0  0  0  0
  177.8920   21.7720   48.0060 C   0  0  0  0  0  0  0  0  0  0  0  0
  177.2390   22.8540   48.8350 C   0  0  0  0  0  0  0  0  0  0  0  0
  178.0510   24.1420   48.8300 C   0  0  0  0  0  0  0  0  0  0  0  0
  174.7995   19.8929   49.8414 H   0  0  0  0  0  0  0  0  0  0  0  0
  175.7971   18.5377   49.2129 H   0  0  0  0  0  0  0  0  0  0  0  0
  176.4521   20.2103   49.2129 H   0  0  0  0  0  0  0  0  0  0  0  0
  175.1123   18.9109   47.1001 H   0  0  0  0  0  0  0  0  0  0  0  0
  173.9045   20.0666   47.7955 H   0  0  0  0  0  0  0  0  0  0  0  0
  175.4160   20.9589   45.9185 H   0  0  0  0  0  0  0  0  0  0  0  0
  175.3173   21.9273   47.4484 H   0  0  0  0  0  0  0  0  0  0  0  0
  177.3009   19.2785   45.7348 H   0  0  0  0  0  0  0  0  0  0  0  0
  178.3756   15.1523   45.6663 H   0  0  0  0  0  0  0  0  0  0  0  0
  179.3252   13.1963   44.4383 H   0  0  0  0  0  0  0  0  0  0  0  0
  181.4207   13.4549   43.1057 H   0  0  0  0  0  0  0  0  0  0  0  0
  183.0630   16.4450   42.4890 H   0  0  0  0  0  0  0  0  0  0  0  0
  182.0880   20.6660   45.7530 H   0  0  0  0  0  0  0  0  0  0  0  0
  181.0536   20.5695   47.4214 H   0  0  0  0  0  0  0  0  0  0  0  0
  179.8617   22.2987   48.7455 H   0  0  0  0  0  0  0  0  0  0  0  0
  176.2399   23.0621   48.4246 H   0  0  0  0  0  0  0  0  0  0  0  0
  177.1750   22.4958   49.8731 H   0  0  0  0  0  0  0  0  0  0  0  0
  178.2483   24.4550   49.8659 H   0  0  0  0  0  0  0  0  0  0  0  0
  179.0054   23.9718   48.3103 H   0  0  0  0  0  0  0  0  0  0  0  0
  177.4859   24.9297   48.3103 H   0  0  0  0  0  0  0  0  0  0  0  0
  1  2  1  0
  2  3  1  0
  3  4  1  0
  4  5  2  0
  5  6  1  0
  6  7  1  0
  7  8  1  0
  8  9  1  0
  9 10  2  0
 10 11  1  0
 11 12  2  0
 12 13  1  0
 13 14  1  0
 13 15  2  0
 15 16  1  0
 16 17  2  0
 16 18  1  0
 18 19  1  0
  6 20  2  0
 20 21  1  0
 21 22  2  0
 22 23  1  0
 23 24  1  0
 22  4  1  0
 18  7  2  0
 15  9  1  0
  1 25  1  0
  1 26  1  0
  1 27  1  0
  2 28  1  0
  2 29  1  0
  3 30  1  0
  3 31  1  0
  5 32  1  0
 10 33  1  0
 11 34  1  0
 12 35  1  0
 14 36  1  0
 19 37  1  0
 20 38  1  0
 21 39  1  0
 23 40  1  0
 23 41  1  0
 24 42  1  0
 24 43  1  0
 24 44  1  0
M  END
>  <meeko>  (1) 
{"is_sidechain": [false], "free_energy": -7.428, "intermolecular_energy": -9.6, "internal_energy": -0.403}

$$$$
cand_033_out
     RDKit          3D

 44 46  0  0  0  0  0  0  0  0999 V2000
  178.2140   14.2330   43.7860 C   0  0  0  0  0  0  0  0  0  0  0  0
  179.6140   13.6550   43.9180 C   0  0  0  0  0  0  0  0  0  0  0  0
  180.4130   14.3690   45.0090 C   0  0  0  0  0  0  0  0  0  0  0  0
  180.6930   15.8110   44.6450 C   0  0  0  0  0  0  0  0  0  0  0  0
  180.1440   16.8170   45.4670 C   0  0  0  0  0  0  0  0  0  0  0  0
  180.3320   18.1790   45.1960 C   0  0  0  0  0  0  0  0  0  0  0  0
  179.7770   19.2320   46.0730 C   0  0  0  0  0  0  0  0  0  0  0  0
  178.3870   19.2610   46.0690 O   0  0  0  0  0  0  0  0  0  0  0  0
  177.7390   20.1920   46.8400 C   0  0  0  0  0  0  0  0  0  0  0  0
  176.3450   20.1940   46.7940 C   0  0  0  0  0  0  0  0  0  0  0  0
  175.6240   21.1170   47.5560 C   0  0  0  0  0  0  0  0  0  0  0  0
  176.2970   22.0340   48.3650 C   0  0  0  0  0  0  0  0  0  0  0  0
  177.6890   22.0290   48.4100 C   0  0  0  0  0  0  0  0  0  0  0  0
  178.2850   22.9530   49.2230 O   0  0  0  0  0  0  0  0  0  0  0  0
  178.4100   21.1060   47.6460 C   0  0  0  0  0  0  0  0  0  0  0  0
  179.8730   21.0670   47.6640 C   0  0  0  0  0  0  0  0  0  0  0  0
  180.5360   21.8380   48.3550 O   0  0  0  0  0  0  0  0  0  0  0  0
  180.5410   20.0570   46.8110 C   0  0  0  0  0  0  0  0  0  0  0  0
  181.9230   20.0200   46.8460 O   0  0  0  0  0  0  0  0  0  0  0  0
  181.1000   18.5330   44.0840 C   0  0  0  0  0  0  0  0  0  0  0  0
  181.6480   17.5510   43.2540 C   0  0  0  0  0  0  0  0  0  0  0  0
  181.4460   16.1850   43.5150 C   0  0  0  0  0  0  0  0  0  0  0  0
  182.0780   15.1820   42.5760 C   0  0  0  0  0  0  0  0  0  0  0  0
  181.4000   15.1730   41.2140 C   0  0  0  0  0  0  0  0  0  0  0  0
  177.7931   14.4068   44.7873 H   0  0  0  0  0  0  0  0  0  0  0  0
  178.2607   15.1854   43.2376 H   0  0  0  0  0  0  0  0  0  0  0  0
  177.5752   13.5250   43.2376 H   0  0  0  0  0  0  0  0  0  0  0  0
  179.5377   12.5873   44.1712 H   0  0  0  0  0  0  0  0  0  0  0  0
  180.1368   13.7932   42.9601 H   0  0  0  0  0  0  0  0  0  0  0  0
  179.8382   14.3432   45.9465 H   0  0  0  0  0  0  0  0  0  0  0  0
  181.3766   13.8509   45.1229 H   0  0  0  0  0  0  0  0  0  0  0  0
  179.5512   16.5241   46.3461 H   0  0  0  0  0  0  0  0  0  0  0  0
  175.8139   19.4699   46.1587 H   0  0  0  0  0  0  0  0  0  0  0  0
  174.5246   21.1210   47.5183 H   0  0  0  0  0  0  0  0  0  0  0  0
  175.7289   22.7594   48.9660 H   0  0  0  0  0  0  0  0  0  0  0  0
  178.2330   22.8620   50.1540 H   0  0  0  0  0  0  0  0  0  0  0  0
  182.4080   20.7960   47.0520 H   0  0  0  0  0  0  0  0  0  0  0  0
  181.2752   19.5955   43.8594 H   0  0  0  0  0  0  0  0  0  0  0  0
  182.2472   17.8523   42.3822 H   0  0  0  0  0  0  0  0  0  0  0  0
  183.1392   15.4392   42.4431 H   0  0  0  0  0  0  0  0  0  0  0  0
  181.9644   14.1818   43.0195 H   0  0  0  0  0  0  0  0  0  0  0  0
  180.3083   15.1585   41.3480 H   0  0  0  0  0  0  0  0  0  0  0  0
  181.6888   16.0751   40.6547 H   0  0  0  0  0  0  0  0  0  0  0  0
  181.7127   14.2789   40.6547 H   0  0  0  0  0  0  0  0  0  0  0  0
  1  2  1  0
  2  3  1  0
  3  4  1  0
  4  5  2  0
  5  6  1  0
  6  7  1  0
  7  8  1  0
  8  9  1  0
  9 10  2  0
 10 11  1  0
 11 12  2  0
 12 13  1  0
 13 14  1  0
 13 15  2  0
 15 16  1  0
 16 17  2  0
 16 18  1  0
 18 19  1  0
  6 20  2  0
 20 21  1  0
 21 22  2  0
 22 23  1  0
 23 24  1  0
 22  4  1  0
 18  7  2  0
 15  9  1  0
  1 25  1  0
  1 26  1  0
  1 27  1  0
  2 28  1  0
  2 29  1  0
  3 30  1  0
  3 31  1  0
  5 32  1  0
 10 33  1  0
 11 34  1  0
 12 35  1  0
 14 36  1  0
 19 37  1  0
 20 38  1  0
 21 39  1  0
 23 40  1  0
 23 41  1  0
 24 42  1  0
 24 43  1  0
 24 44  1  0
M  END
>  <meeko>  (2) 
{"is_sidechain": [false], "free_energy": -6.855, "intermolecular_energy": -8.739, "internal_energy": -0.522}

$$$$
cand_033_out
     RDKit          3D

 44 46  0  0  0  0  0  0  0  0999 V2000
  177.8540   24.0930   47.2750 C   0  0  0  0  0  0  0  0  0  0  0  0
  179.0260   23.3940   47.9450 C   0  0  0  0  0  0  0  0  0  0  0  0
  178.5550   22.2360   48.8270 C   0  0  0  0  0  0  0  0  0  0  0  0
  177.9910   21.0990   48.0040 C   0  0  0  0  0  0  0  0  0  0  0  0
  178.8940   20.3170   47.2540 C   0  0  0  0  0  0  0  0  0  0  0  0
  178.4620   19.2570   46.4460 C   0  0  0  0  0  0  0  0  0  0  0  0
  179.4120   18.4230   45.6810 C   0  0  0  0  0  0  0  0  0  0  0  0
  179.0210   17.0900   45.6060 O   0  0  0  0  0  0  0  0  0  0  0  0
  179.8150   16.2030   44.9250 C   0  0  0  0  0  0  0  0  0  0  0  0
  179.3920   14.8740   44.8880 C   0  0  0  0  0  0  0  0  0  0  0  0
  180.1530   13.9190   44.2100 C   0  0  0  0  0  0  0  0  0  0  0  0
  181.3350   14.2940   43.5670 C   0  0  0  0  0  0  0  0  0  0  0  0
  181.7530   15.6220   43.6050 C   0  0  0  0  0  0  0  0  0  0  0  0
  182.9190   15.9200   42.9540 O   0  0  0  0  0  0  0  0  0  0  0  0
  180.9920   16.5760   44.2840 C   0  0  0  0  0  0  0  0  0  0  0  0
  181.3960   17.9820   44.3490 C   0  0  0  0  0  0  0  0  0  0  0  0
  182.4200   18.3890   43.8030 O   0  0  0  0  0  0  0  0  0  0  0  0
  180.5240   18.9110   45.1020 C   0  0  0  0  0  0  0  0  0  0  0  0
  180.9090   20.2390   45.1450 O   0  0  0  0  0  0  0  0  0  0  0  0
  177.0940   18.9700   46.4060 C   0  0  0  0  0  0  0  0  0  0  0  0
  176.1830   19.7370   47.1380 C   0  0  0  0  0  0  0  0  0  0  0  0
  176.6140   20.8110   47.9340 C   0  0  0  0  0  0  0  0  0  0  0  0
  175.5690   21.5880   48.7030 C   0  0  0  0  0  0  0  0  0  0  0  0
  175.1260   20.8550   49.9610 C   0  0  0  0  0  0  0  0  0  0  0  0
  177.1788   24.4957   48.0443 H   0  0  0  0  0  0  0  0  0  0  0  0
  178.2277   24.9159   46.6479 H   0  0  0  0  0  0  0  0  0  0  0  0
  177.3075   23.3732   46.6479 H   0  0  0  0  0  0  0  0  0  0  0  0
  179.6999   23.0018   47.1691 H   0  0  0  0  0  0  0  0  0  0  0  0
  179.5469   24.1244   48.5815 H   0  0  0  0  0  0  0  0  0  0  0  0
  179.4088   21.8633   49.4119 H   0  0  0  0  0  0  0  0  0  0  0  0
  177.7581   22.6098   49.4868 H   0  0  0  0  0  0  0  0  0  0  0  0
  179.9687   20.5460   47.3049 H   0  0  0  0  0  0  0  0  0  0  0  0
  178.4601   14.5786   45.3923 H   0  0  0  0  0  0  0  0  0  0  0  0
  179.8212   12.8706   44.1824 H   0  0  0  0  0  0  0  0  0  0  0  0
  181.9341   13.5424   43.0320 H   0  0  0  0  0  0  0  0  0  0  0  0
  183.4680   16.6120   43.2690 H   0  0  0  0  0  0  0  0  0  0  0  0
  180.2830   20.9010   45.3620 H   0  0  0  0  0  0  0  0  0  0  0  0
  176.7311   18.1323   45.7924 H   0  0  0  0  0  0  0  0  0  0  0  0
  175.1109   19.4955   47.0898 H   0  0  0  0  0  0  0  0  0  0  0  0
  175.9905   22.5628   48.9896 H   0  0  0  0  0  0  0  0  0  0  0  0
  174.6898   21.7106   48.0534 H   0  0  0  0  0  0  0  0  0  0  0  0
  175.4627   21.4121   50.8477 H   0  0  0  0  0  0  0  0  0  0  0  0
  174.0289   20.7761   49.9723 H   0  0  0  0  0  0  0  0  0  0  0  0
  175.5662   19.8470   49.9723 H   0  0  0  0  0  0  0  0  0  0  0  0
  1  2  1  0
  2  3  1  0
  3  4  1  0
  4  5  2  0
  5  6  1  0
  6  7  1  0
  7  8  1  0
  8  9  1  0
  9 10  2  0
 10 11  1  0
 11 12  2  0
 12 13  1  0
 13 14  1  0
 13 15  2  0
 15 16  1  0
 16 17  2  0
 16 18  1  0
 18 19  1  0
  6 20  2  0
 20 21  1  0
 21 22  2  0
 22 23  1  0
 23 24  1  0
 22  4  1  0
 18  7  2  0
 15  9  1  0
  1 25  1  0
  1 26  1  0
  1 27  1  0
  2 28  1  0
  2 29  1  0
  3 30  1  0
  3 31  1  0
  5 32  1  0
 10 33  1  0
 11 34  1  0
 12 35  1  0
 14 36  1  0
 19 37  1  0
 20 38  1  0
 21 39  1  0
 23 40  1  0
 23 41  1  0
 24 42  1  0
 24 43  1  0
 24 44  1  0
M  END
>  <meeko>  (3) 
{"is_sidechain": [false], "free_energy": -6.351, "intermolecular_energy": -8.124, "internal_energy": -0.486}

$$$$
cand_033_out
     RDKit          3D

 44 46  0  0  0  0  0  0  0  0999 V2000
  181.4380   15.7990   40.1860 C   0  0  0  0  0  0  0  0  0  0  0  0
  181.0160   16.9790   41.0470 C   0  0  0  0  0  0  0  0  0  0  0  0
  181.8590   17.0710   42.3210 C   0  0  0  0  0  0  0  0  0  0  0  0
  181.0080   16.9470   43.5650 C   0  0  0  0  0  0  0  0  0  0  0  0
  180.7790   18.1120   44.3260 C   0  0  0  0  0  0  0  0  0  0  0  0
  180.0220   18.0900   45.5050 C   0  0  0  0  0  0  0  0  0  0  0  0
  179.7610   19.3170   46.2870 C   0  0  0  0  0  0  0  0  0  0  0  0
  178.4140   19.6630   46.3170 O   0  0  0  0  0  0  0  0  0  0  0  0
  178.0310   20.7830   47.0080 C   0  0  0  0  0  0  0  0  0  0  0  0
  176.6720   21.1000   46.9990 C   0  0  0  0  0  0  0  0  0  0  0  0
  176.2150   22.2280   47.6840 C   0  0  0  0  0  0  0  0  0  0  0  0
  177.1160   23.0380   48.3790 C   0  0  0  0  0  0  0  0  0  0  0  0
  178.4720   22.7180   48.3870 C   0  0  0  0  0  0  0  0  0  0  0  0
  179.2990   23.5530   49.0880 O   0  0  0  0  0  0  0  0  0  0  0  0
  178.9280   21.5900   47.7010 C   0  0  0  0  0  0  0  0  0  0  0  0
  180.3450   21.2190   47.6830 C   0  0  0  0  0  0  0  0  0  0  0  0
  181.1970   21.8780   48.2760 O   0  0  0  0  0  0  0  0  0  0  0  0
  180.7260   20.0100   46.9180 C   0  0  0  0  0  0  0  0  0  0  0  0
  182.0650   19.6620   46.9200 O   0  0  0  0  0  0  0  0  0  0  0  0
  179.4720   16.8720   45.9160 C   0  0  0  0  0  0  0  0  0  0  0  0
  179.6930   15.7060   45.1790 C   0  0  0  0  0  0  0  0  0  0  0  0
  180.4670   15.7230   44.0070 C   0  0  0  0  0  0  0  0  0  0  0  0
  180.6530   14.4220   43.2600 C   0  0  0  0  0  0  0  0  0  0  0  0
  180.0370   13.2460   44.0040 C   0  0  0  0  0  0  0  0  0  0  0  0
  181.7375   14.9615   40.8332 H   0  0  0  0  0  0  0  0  0  0  0  0
  180.5952   15.4885   39.5510 H   0  0  0  0  0  0  0  0  0  0  0  0
  182.2866   16.0934   39.5510 H   0  0  0  0  0  0  0  0  0  0  0  0
  181.1396   17.9064   40.4685 H   0  0  0  0  0  0  0  0  0  0  0  0
  179.9646   16.8369   41.3374 H   0  0  0  0  0  0  0  0  0  0  0  0
  182.6027   16.2606   42.3156 H   0  0  0  0  0  0  0  0  0  0  0  0
  182.3491   18.0557   42.3375 H   0  0  0  0  0  0  0  0  0  0  0  0
  181.2071   19.0658   43.9841 H   0  0  0  0  0  0  0  0  0  0  0  0
  175.9615   20.4621   46.4529 H   0  0  0  0  0  0  0  0  0  0  0  0
  175.1440   22.4789   47.6762 H   0  0  0  0  0  0  0  0  0  0  0  0
  176.7559   23.9263   48.9187 H   0  0  0  0  0  0  0  0  0  0  0  0
  180.0160   23.9740   48.6560 H   0  0  0  0  0  0  0  0  0  0  0  0
  182.6670   20.1190   47.4730 H   0  0  0  0  0  0  0  0  0  0  0  0
  178.8593   16.8315   46.8286 H   0  0  0  0  0  0  0  0  0  0  0  0
  179.2532   14.7581   45.5225 H   0  0  0  0  0  0  0  0  0  0  0  0
  180.1754   14.5076   42.2728 H   0  0  0  0  0  0  0  0  0  0  0  0
  181.7329   14.2360   43.1639 H   0  0  0  0  0  0  0  0  0  0  0  0
  180.1238   13.4118   45.0880 H   0  0  0  0  0  0  0  0  0  0  0  0
  178.9753   13.1548   43.7309 H   0  0  0  0  0  0  0  0  0  0  0  0
  180.5666   12.3213   43.7309 H   0  0  0  0  0  0  0  0  0  0  0  0
  1  2  1  0
  2  3  1  0
  3  4  1  0
  4  5  2  0
  5  6  1  0
  6  7  1  0
  7  8  1  0
  8  9  1  0
  9 10  2  0
 10 11  1  0
 11 12  2  0
 12 13  1  0
 13 14  1  0
 13 15  2  0
 15 16  1  0
 16 17  2  0
 16 18  1  0
 18 19  1  0
  6 20  2  0
 20 21  1  0
 21 22  2  0
 22 23  1  0
 23 24  1  0
 22  4  1  0
 18  7  2  0
 15  9  1  0
  1 25  1  0
  1 26  1  0
  1 27  1  0
  2 28  1  0
  2 29  1  0
  3 30  1  0
  3 31  1  0
  5 32  1  0
 10 33  1  0
 11 34  1  0
 12 35  1  0
 14 36  1  0
 19 37  1  0
 20 38  1  0
 21 39  1  0
 23 40  1  0
 23 41  1  0
 24 42  1  0
 24 43  1  0
 24 44  1  0
M  END
>  <meeko>  (4) 
{"is_sidechain": [false], "free_energy": -6.11, "intermolecular_energy": -7.809, "internal_energy": -0.49}

$$$$
cand_033_out
     RDKit          3D

 44 46  0  0  0  0  0  0  0  0999 V2000
  175.5010   18.1910   47.0470 C   0  0  0  0  0  0  0  0  0  0  0  0
  176.2240   19.3350   46.3560 C   0  0  0  0  0  0  0  0  0  0  0  0
  177.2610   19.9790   47.2790 C   0  0  0  0  0  0  0  0  0  0  0  0
  178.6680   19.7920   46.7570 C   0  0  0  0  0  0  0  0  0  0  0  0
  178.9050   18.7250   45.8660 C   0  0  0  0  0  0  0  0  0  0  0  0
  180.1800   18.4600   45.3480 C   0  0  0  0  0  0  0  0  0  0  0  0
  180.4200   17.3570   44.3930 C   0  0  0  0  0  0  0  0  0  0  0  0
  180.7430   17.8080   43.1180 O   0  0  0  0  0  0  0  0  0  0  0  0
  180.9910   16.8880   42.1320 C   0  0  0  0  0  0  0  0  0  0  0  0
  181.2960   17.3850   40.8640 C   0  0  0  0  0  0  0  0  0  0  0  0
  181.5600   16.5010   39.8150 C   0  0  0  0  0  0  0  0  0  0  0  0
  181.5200   15.1220   40.0340 C   0  0  0  0  0  0  0  0  0  0  0  0
  181.2160   14.6300   41.3000 C   0  0  0  0  0  0  0  0  0  0  0  0
  181.1940   13.2700   41.4450 O   0  0  0  0  0  0  0  0  0  0  0  0
  180.9510   15.5140   42.3490 C   0  0  0  0  0  0  0  0  0  0  0  0
  180.6270   15.0380   43.6960 C   0  0  0  0  0  0  0  0  0  0  0  0
  180.5790   13.8400   43.9680 O   0  0  0  0  0  0  0  0  0  0  0  0
  180.3540   16.0570   44.7350 C   0  0  0  0  0  0  0  0  0  0  0  0
  180.0610   15.5970   46.0050 O   0  0  0  0  0  0  0  0  0  0  0  0
  181.2340   19.2980   45.7250 C   0  0  0  0  0  0  0  0  0  0  0  0
  181.0210   20.3560   46.6110 C   0  0  0  0  0  0  0  0  0  0  0  0
  179.7460   20.6120   47.1450 C   0  0  0  0  0  0  0  0  0  0  0  0
  179.5940   21.7810   48.0920 C   0  0  0  0  0  0  0  0  0  0  0  0
  178.9940   22.9970   47.4010 C   0  0  0  0  0  0  0  0  0  0  0  0
  175.5785   18.3136   48.1374 H   0  0  0  0  0  0  0  0  0  0  0  0
  174.4413   18.1954   46.7519 H   0  0  0  0  0  0  0  0  0  0  0  0
  175.9598   17.2358   46.7519 H   0  0  0  0  0  0  0  0  0  0  0  0
  176.7329   18.9480   45.4609 H   0  0  0  0  0  0  0  0  0  0  0  0
  175.4814   20.0993   46.0832 H   0  0  0  0  0  0  0  0  0  0  0  0
  177.0496   21.0557   47.3561 H   0  0  0  0  0  0  0  0  0  0  0  0
  177.1931   19.4922   48.2631 H   0  0  0  0  0  0  0  0  0  0  0  0
  178.0640   18.0814   45.5686 H   0  0  0  0  0  0  0  0  0  0  0  0
  181.3285   18.4708   40.6909 H   0  0  0  0  0  0  0  0  0  0  0  0
  181.7997   16.8915   38.8150 H   0  0  0  0  0  0  0  0  0  0  0  0
  181.7283   14.4264   39.2077 H   0  0  0  0  0  0  0  0  0  0  0  0
  181.7690   12.8550   42.0590 H   0  0  0  0  0  0  0  0  0  0  0  0
  179.2740   15.1120   46.1580 H   0  0  0  0  0  0  0  0  0  0  0  0
  182.2412   19.1219   45.3194 H   0  0  0  0  0  0  0  0  0  0  0  0
  181.8656   21.0004   46.8961 H   0  0  0  0  0  0  0  0  0  0  0  0
  178.9364   21.4831   48.9220 H   0  0  0  0  0  0  0  0  0  0  0  0
  180.5944   22.0558   48.4576 H   0  0  0  0  0  0  0  0  0  0  0  0
  178.6411   23.7122   48.1585 H   0  0  0  0  0  0  0  0  0  0  0  0
  179.7591   23.4762   46.7725 H   0  0  0  0  0  0  0  0  0  0  0  0
  178.1482   22.6814   46.7725 H   0  0  0  0  0  0  0  0  0  0  0  0
  1  2  1  0
  2  3  1  0
  3  4  1  0
  4  5  2  0
  5  6  1  0
  6  7  1  0
  7  8  1  0
  8  9  1  0
  9 10  2  0
 10 11  1  0
 11 12  2  0
 12 13  1  0
 13 14  1  0
 13 15  2  0
 15 16  1  0
 16 17  2  0
 16 18  1  0
 18 19  1  0
  6 20  2  0
 20 21  1  0
 21 22  2  0
 22 23  1  0
 23 24  1  0
 22  4  1  0
 18  7  2  0
 15  9  1  0
  1 25  1  0
  1 26  1  0
  1 27  1  0
  2 28  1  0
  2 29  1  0
  3 30  1  0
  3 31  1  0
  5 32  1  0
 10 33  1  0
 11 34  1  0
 12 35  1  0
 14 36  1  0
 19 37  1  0
 20 38  1  0
 21 39  1  0
 23 40  1  0
 23 41  1  0
 24 42  1  0
 24 43  1  0
 24 44  1  0
M  END
>  <meeko>  (5) 
{"is_sidechain": [false], "free_energy": -5.904, "intermolecular_energy": -7.409, "internal_energy": -0.623}

$$$$
cand_033_out
     RDKit          3D

 44 46  0  0  0  0  0  0  0  0999 V2000
  180.2990   13.8480   43.2790 C   0  0  0  0  0  0  0  0  0  0  0  0
  179.3540   14.6740   44.1360 C   0  0  0  0  0  0  0  0  0  0  0  0
  180.0970   15.3610   45.2830 C   0  0  0  0  0  0  0  0  0  0  0  0
  180.0740   16.8680   45.1430 C   0  0  0  0  0  0  0  0  0  0  0  0
  179.0890   17.5820   45.8550 C   0  0  0  0  0  0  0  0  0  0  0  0
  178.9770   18.9760   45.7700 C   0  0  0  0  0  0  0  0  0  0  0  0
  177.9600   19.7250   46.5370 C   0  0  0  0  0  0  0  0  0  0  0  0
  178.4290   20.9480   47.0060 O   0  0  0  0  0  0  0  0  0  0  0  0
  177.5870   21.7470   47.7360 C   0  0  0  0  0  0  0  0  0  0  0  0
  178.1050   22.9570   48.1980 C   0  0  0  0  0  0  0  0  0  0  0  0
  177.2990   23.8180   48.9480 C   0  0  0  0  0  0  0  0  0  0  0  0
  175.9770   23.4690   49.2320 C   0  0  0  0  0  0  0  0  0  0  0  0
  175.4640   22.2610   48.7690 C   0  0  0  0  0  0  0  0  0  0  0  0
  174.1620   21.9820   49.0830 O   0  0  0  0  0  0  0  0  0  0  0  0
  176.2700   21.3990   48.0200 C   0  0  0  0  0  0  0  0  0  0  0  0
  175.7700   20.1200   47.5150 C   0  0  0  0  0  0  0  0  0  0  0  0
  174.6160   19.7460   47.7190 O   0  0  0  0  0  0  0  0  0  0  0  0
  176.7080   19.2760   46.7390 C   0  0  0  0  0  0  0  0  0  0  0  0
  176.2200   18.0760   46.2550 O   0  0  0  0  0  0  0  0  0  0  0  0
  179.8870   19.6650   44.9620 C   0  0  0  0  0  0  0  0  0  0  0  0
  180.8670   18.9740   44.2440 C   0  0  0  0  0  0  0  0  0  0  0  0
  180.9680   17.5750   44.3150 C   0  0  0  0  0  0  0  0  0  0  0  0
  182.0600   16.9010   43.5150 C   0  0  0  0  0  0  0  0  0  0  0  0
  181.6580   16.6980   42.0620 C   0  0  0  0  0  0  0  0  0  0  0  0
  180.9673   13.2638   43.9287 H   0  0  0  0  0  0  0  0  0  0  0  0
  179.7157   13.1649   42.6440 H   0  0  0  0  0  0  0  0  0  0  0  0
  180.8979   14.5174   42.6440 H   0  0  0  0  0  0  0  0  0  0  0  0
  178.8787   15.4412   43.5071 H   0  0  0  0  0  0  0  0  0  0  0  0
  178.5991   14.0000   44.5671 H   0  0  0  0  0  0  0  0  0  0  0  0
  179.6185   15.0841   46.2340 H   0  0  0  0  0  0  0  0  0  0  0  0
  181.1459   15.0307   45.2582 H   0  0  0  0  0  0  0  0  0  0  0  0
  178.3875   17.0283   46.4964 H   0  0  0  0  0  0  0  0  0  0  0  0
  179.1457   23.2330   47.9725 H   0  0  0  0  0  0  0  0  0  0  0  0
  177.7064   24.7716   49.3150 H   0  0  0  0  0  0  0  0  0  0  0  0
  175.3423   24.1477   49.8206 H   0  0  0  0  0  0  0  0  0  0  0  0
  173.4670   22.4110   48.6250 H   0  0  0  0  0  0  0  0  0  0  0  0
  175.5930   18.0710   45.5590 H   0  0  0  0  0  0  0  0  0  0  0  0
  179.8309   20.7613   44.8909 H   0  0  0  0  0  0  0  0  0  0  0  0
  181.5712   19.5355   43.6125 H   0  0  0  0  0  0  0  0  0  0  0  0
  182.9638   17.5271   43.5495 H   0  0  0  0  0  0  0  0  0  0  0  0
  182.2450   15.9114   43.9582 H   0  0  0  0  0  0  0  0  0  0  0  0
  180.6769   16.2025   42.0188 H   0  0  0  0  0  0  0  0  0  0  0  0
  181.5984   17.6741   41.5583 H   0  0  0  0  0  0  0  0  0  0  0  0
  182.4081   16.0706   41.5583 H   0  0  0  0  0  0  0  0  0  0  0  0
  1  2  1  0
  2  3  1  0
  3  4  1  0
  4  5  2  0
  5  6  1  0
  6  7  1  0
  7  8  1  0
  8  9  1  0
  9 10  2  0
 10 11  1  0
 11 12  2  0
 12 13  1  0
 13 14  1  0
 13 15  2  0
 15 16  1  0
 16 17  2  0
 16 18  1  0
 18 19  1  0
  6 20  2  0
 20 21  1  0
 21 22  2  0
 22 23  1  0
 23 24  1  0
 22  4  1  0
 18  7  2  0
 15  9  1  0
  1 25  1  0
  1 26  1  0
  1 27  1  0
  2 28  1  0
  2 29  1  0
  3 30  1  0
  3 31  1  0
  5 32  1  0
 10 33  1  0
 11 34  1  0
 12 35  1  0
 14 36  1  0
 19 37  1  0
 20 38  1  0
 21 39  1  0
 23 40  1  0
 23 41  1  0
 24 42  1  0
 24 43  1  0
 24 44  1  0
M  END
>  <meeko>  (6) 
{"is_sidechain": [false], "free_energy": -5.766, "intermolecular_energy": -7.551, "internal_energy": -0.303}

$$$$
cand_033_out
     RDKit          3D

 44 46  0  0  0  0  0  0  0  0999 V2000
  178.3170   23.7650   47.6600 C   0  0  0  0  0  0  0  0  0  0  0  0
  178.2590   22.2940   47.2800 C   0  0  0  0  0  0  0  0  0  0  0  0
  179.3430   21.4880   47.9980 C   0  0  0  0  0  0  0  0  0  0  0  0
  180.5080   21.1780   47.0850 C   0  0  0  0  0  0  0  0  0  0  0  0
  181.5830   22.0900   47.0550 C   0  0  0  0  0  0  0  0  0  0  0  0
  182.6950   21.8980   46.2240 C   0  0  0  0  0  0  0  0  0  0  0  0
  183.8330   22.8420   46.2130 C   0  0  0  0  0  0  0  0  0  0  0  0
  184.0990   23.3800   47.4670 O   0  0  0  0  0  0  0  0  0  0  0  0
  185.1310   24.2740   47.6010 C   0  0  0  0  0  0  0  0  0  0  0  0
  185.3530   24.8000   48.8740 C   0  0  0  0  0  0  0  0  0  0  0  0
  186.3890   25.7150   49.0790 C   0  0  0  0  0  0  0  0  0  0  0  0
  187.2030   26.1010   48.0110 C   0  0  0  0  0  0  0  0  0  0  0  0
  186.9780   25.5740   46.7420 C   0  0  0  0  0  0  0  0  0  0  0  0
  187.8120   25.9950   45.7430 O   0  0  0  0  0  0  0  0  0  0  0  0
  185.9420   24.6590   46.5380 C   0  0  0  0  0  0  0  0  0  0  0  0
  185.6720   24.0820   45.2200 C   0  0  0  0  0  0  0  0  0  0  0  0
  186.3480   24.3680   44.2340 O   0  0  0  0  0  0  0  0  0  0  0  0
  184.5440   23.1290   45.1080 C   0  0  0  0  0  0  0  0  0  0  0  0
  184.3070   22.5790   43.8610 O   0  0  0  0  0  0  0  0  0  0  0  0
  182.7300   20.7560   45.4190 C   0  0  0  0  0  0  0  0  0  0  0  0
  181.6720   19.8430   45.4300 C   0  0  0  0  0  0  0  0  0  0  0  0
  180.5490   20.0440   46.2500 C   0  0  0  0  0  0  0  0  0  0  0  0
  179.4480   19.0070   46.2120 C   0  0  0  0  0  0  0  0  0  0  0  0
  179.8840   17.7420   45.4880 C   0  0  0  0  0  0  0  0  0  0  0  0
  178.3208   23.8607   48.7558 H   0  0  0  0  0  0  0  0  0  0  0  0
  179.2335   24.2139   47.2496 H   0  0  0  0  0  0  0  0  0  0  0  0
  177.4386   24.2846   47.2496 H   0  0  0  0  0  0  0  0  0  0  0  0
  177.2728   21.8920   47.5554 H   0  0  0  0  0  0  0  0  0  0  0  0
  178.4264   22.2100   46.1961 H   0  0  0  0  0  0  0  0  0  0  0  0
  179.7087   22.0691   48.8574 H   0  0  0  0  0  0  0  0  0  0  0  0
  178.9012   20.5352   48.3250 H   0  0  0  0  0  0  0  0  0  0  0  0
  181.5477   22.9783   47.7029 H   0  0  0  0  0  0  0  0  0  0  0  0
  184.7133   24.4948   49.7152 H   0  0  0  0  0  0  0  0  0  0  0  0
  186.5638   26.1317   50.0819 H   0  0  0  0  0  0  0  0  0  0  0  0
  188.0199   26.8197   48.1724 H   0  0  0  0  0  0  0  0  0  0  0  0
  187.4670   26.4740   45.0150 H   0  0  0  0  0  0  0  0  0  0  0  0
  184.9650   22.6250   43.1960 H   0  0  0  0  0  0  0  0  0  0  0  0
  183.5993   20.5739   44.7700 H   0  0  0  0  0  0  0  0  0  0  0  0
  181.7192   18.9524   44.7861 H   0  0  0  0  0  0  0  0  0  0  0  0
  179.1682   18.7476   47.2437 H   0  0  0  0  0  0  0  0  0  0  0  0
  178.5951   19.4356   45.6653 H   0  0  0  0  0  0  0  0  0  0  0  0
  180.1499   16.9705   46.2256 H   0  0  0  0  0  0  0  0  0  0  0  0
  179.0596   17.3778   44.8574 H   0  0  0  0  0  0  0  0  0  0  0  0
  180.7578   17.9631   44.8574 H   0  0  0  0  0  0  0  0  0  0  0  0
  1  2  1  0
  2  3  1  0
  3  4  1  0
  4  5  2  0
  5  6  1  0
  6  7  1  0
  7  8  1  0
  8  9  1  0
  9 10  2  0
 10 11  1  0
 11 12  2  0
 12 13  1  0
 13 14  1  0
 13 15  2  0
 15 16  1  0
 16 17  2  0
 16 18  1  0
 18 19  1  0
  6 20  2  0
 20 21  1  0
 21 22  2  0
 22 23  1  0
 23 24  1  0
 22  4  1  0
 18  7  2  0
 15  9  1  0
  1 25  1  0
  1 26  1  0
  1 27  1  0
  2 28  1  0
  2 29  1  0
  3 30  1  0
  3 31  1  0
  5 32  1  0
 10 33  1  0
 11 34  1  0
 12 35  1  0
 14 36  1  0
 19 37  1  0
 20 38  1  0
 21 39  1  0
 23 40  1  0
 23 41  1  0
 24 42  1  0
 24 43  1  0
 24 44  1  0
M  END
>  <meeko>  (7) 
{"is_sidechain": [false], "free_energy": -5.635, "intermolecular_energy": -7.359, "internal_energy": -0.326}

$$$$
cand_033_out
     RDKit          3D

 44 46  0  0  0  0  0  0  0  0999 V2000
  177.2580   23.7370   48.0620 C   0  0  0  0  0  0  0  0  0  0  0  0
  178.5570   23.3100   47.3990 C   0  0  0  0  0  0  0  0  0  0  0  0
  179.0710   21.9900   47.9760 C   0  0  0  0  0  0  0  0  0  0  0  0
  180.1090   21.3520   47.0780 C   0  0  0  0  0  0  0  0  0  0  0  0
  181.3160   22.0500   46.8670 C   0  0  0  0  0  0  0  0  0  0  0  0
  182.3260   21.5480   46.0350 C   0  0  0  0  0  0  0  0  0  0  0  0
  183.6010   22.2680   45.8360 C   0  0  0  0  0  0  0  0  0  0  0  0
  184.1800   22.0090   44.5980 O   0  0  0  0  0  0  0  0  0  0  0  0
  185.3700   22.6130   44.2820 C   0  0  0  0  0  0  0  0  0  0  0  0
  185.9210   22.3140   43.0360 C   0  0  0  0  0  0  0  0  0  0  0  0
  187.1310   22.8960   42.6510 C   0  0  0  0  0  0  0  0  0  0  0  0
  187.7880   23.7780   43.5110 C   0  0  0  0  0  0  0  0  0  0  0  0
  187.2340   24.0760   44.7540 C   0  0  0  0  0  0  0  0  0  0  0  0
  187.9290   24.9480   45.5460 O   0  0  0  0  0  0  0  0  0  0  0  0
  186.0250   23.4930   45.1380 C   0  0  0  0  0  0  0  0  0  0  0  0
  185.4090   23.7780   46.4360 C   0  0  0  0  0  0  0  0  0  0  0  0
  185.9230   24.5490   47.2440 O   0  0  0  0  0  0  0  0  0  0  0  0
  184.1300   23.1010   46.7510 C   0  0  0  0  0  0  0  0  0  0  0  0
  183.5510   23.3890   47.9730 O   0  0  0  0  0  0  0  0  0  0  0  0
  182.1200   20.3120   45.4150 C   0  0  0  0  0  0  0  0  0  0  0  0
  180.9280   19.6090   45.6070 C   0  0  0  0  0  0  0  0  0  0  0  0
  179.9070   20.1190   46.4270 C   0  0  0  0  0  0  0  0  0  0  0  0
  178.6500   19.2950   46.5910 C   0  0  0  0  0  0  0  0  0  0  0  0
  177.4570   19.9340   45.8970 C   0  0  0  0  0  0  0  0  0  0  0  0
  177.3744   23.6987   49.1552 H   0  0  0  0  0  0  0  0  0  0  0  0
  177.0101   24.7639   47.7554 H   0  0  0  0  0  0  0  0  0  0  0  0
  176.4492   23.0574   47.7554 H   0  0  0  0  0  0  0  0  0  0  0  0
  178.3839   23.1855   46.3199 H   0  0  0  0  0  0  0  0  0  0  0  0
  179.3128   24.0870   47.5862 H   0  0  0  0  0  0  0  0  0  0  0  0
  179.5219   22.1831   48.9606 H   0  0  0  0  0  0  0  0  0  0  0  0
  178.2197   21.2986   48.0606 H   0  0  0  0  0  0  0  0  0  0  0  0
  181.4692   23.0163   47.3699 H   0  0  0  0  0  0  0  0  0  0  0  0
  185.4031   21.6205   42.3572 H   0  0  0  0  0  0  0  0  0  0  0  0
  187.5667   22.6592   41.6691 H   0  0  0  0  0  0  0  0  0  0  0  0
  188.7408   24.2365   43.2078 H   0  0  0  0  0  0  0  0  0  0  0  0
  188.0600   25.8330   45.2670 H   0  0  0  0  0  0  0  0  0  0  0  0
  182.9680   22.7730   48.3720 H   0  0  0  0  0  0  0  0  0  0  0  0
  182.9040   19.8889   44.7698 H   0  0  0  0  0  0  0  0  0  0  0  0
  180.7862   18.6392   45.1075 H   0  0  0  0  0  0  0  0  0  0  0  0
  178.8200   18.2976   46.1593 H   0  0  0  0  0  0  0  0  0  0  0  0
  178.4238   19.2294   47.6655 H   0  0  0  0  0  0  0  0  0  0  0  0
  176.7522   20.3115   46.6525 H   0  0  0  0  0  0  0  0  0  0  0  0
  177.8020   20.7681   45.2683 H   0  0  0  0  0  0  0  0  0  0  0  0
  176.9539   19.1846   45.2683 H   0  0  0  0  0  0  0  0  0  0  0  0
  1  2  1  0
  2  3  1  0
  3  4  1  0
  4  5  2  0
  5  6  1  0
  6  7  1  0
  7  8  1  0
  8  9  1  0
  9 10  2  0
 10 11  1  0
 11 12  2  0
 12 13  1  0
 13 14  1  0
 13 15  2  0
 15 16  1  0
 16 17  2  0
 16 18  1  0
 18 19  1  0
  6 20  2  0
 20 21  1  0
 21 22  2  0
 22 23  1  0
 23 24  1  0
 22  4  1  0
 18  7  2  0
 15  9  1  0
  1 25  1  0
  1 26  1  0
  1 27  1  0
  2 28  1  0
  2 29  1  0
  3 30  1  0
  3 31  1  0
  5 32  1  0
 10 33  1  0
 11 34  1  0
 12 35  1  0
 14 36  1  0
 19 37  1  0
 20 38  1  0
 21 39  1  0
 23 40  1  0
 23 41  1  0
 24 42  1  0
 24 43  1  0
 24 44  1  0
M  END
>  <meeko>  (8) 
{"is_sidechain": [false], "free_energy": -5.362, "intermolecular_energy": -7.174, "internal_energy": -0.158}

$$$$
cand_033_out
     RDKit          3D

 44 46  0  0  0  0  0  0  0  0999 V2000
  187.9030   21.2470   44.0900 C   0  0  0  0  0  0  0  0  0  0  0  0
  186.7710   21.4500   43.0970 C   0  0  0  0  0  0  0  0  0  0  0  0
  186.1350   22.8340   43.2500 C   0  0  0  0  0  0  0  0  0  0  0  0
  185.4070   22.9720   44.5700 C   0  0  0  0  0  0  0  0  0  0  0  0
  184.2010   22.2610   44.7350 C   0  0  0  0  0  0  0  0  0  0  0  0
  183.4470   22.3440   45.9130 C   0  0  0  0  0  0  0  0  0  0  0  0
  182.1960   21.5780   46.0940 C   0  0  0  0  0  0  0  0  0  0  0  0
  181.2510   22.2590   46.8530 O   0  0  0  0  0  0  0  0  0  0  0  0
  180.0410   21.6620   47.1000 C   0  0  0  0  0  0  0  0  0  0  0  0
  179.1290   22.3750   47.8780 C   0  0  0  0  0  0  0  0  0  0  0  0
  177.8780   21.8240   48.1660 C   0  0  0  0  0  0  0  0  0  0  0  0
  177.5400   20.5610   47.6750 C   0  0  0  0  0  0  0  0  0  0  0  0
  178.4520   19.8520   46.8980 C   0  0  0  0  0  0  0  0  0  0  0  0
  178.0560   18.6220   46.4490 O   0  0  0  0  0  0  0  0  0  0  0  0
  179.7030   20.4030   46.6110 C   0  0  0  0  0  0  0  0  0  0  0  0
  180.6920   19.6920   45.7980 C   0  0  0  0  0  0  0  0  0  0  0  0
  180.4650   18.5800   45.3250 O   0  0  0  0  0  0  0  0  0  0  0  0
  181.9910   20.3600   45.5600 C   0  0  0  0  0  0  0  0  0  0  0  0
  182.9120   19.6840   44.7800 O   0  0  0  0  0  0  0  0  0  0  0  0
  183.9270   23.1490   46.9500 C   0  0  0  0  0  0  0  0  0  0  0  0
  185.1170   23.8660   46.8040 C   0  0  0  0  0  0  0  0  0  0  0  0
  185.8650   23.7970   45.6160 C   0  0  0  0  0  0  0  0  0  0  0  0
  187.1470   24.5950   45.5370 C   0  0  0  0  0  0  0  0  0  0  0  0
  187.9290   24.5450   46.8410 C   0  0  0  0  0  0  0  0  0  0  0  0
  187.5090   21.3176   45.1146 H   0  0  0  0  0  0  0  0  0  0  0  0
  188.3512   20.2542   43.9371 H   0  0  0  0  0  0  0  0  0  0  0  0
  188.6683   22.0222   43.9371 H   0  0  0  0  0  0  0  0  0  0  0  0
  187.1682   21.3496   42.0761 H   0  0  0  0  0  0  0  0  0  0  0  0
  185.9992   20.6909   43.2921 H   0  0  0  0  0  0  0  0  0  0  0  0
  186.9252   23.5974   43.1970 H   0  0  0  0  0  0  0  0  0  0  0  0
  185.4037   22.9672   42.4392 H   0  0  0  0  0  0  0  0  0  0  0  0
  183.8413   21.6223   43.9148 H   0  0  0  0  0  0  0  0  0  0  0  0
  179.3945   23.3701   48.2644 H   0  0  0  0  0  0  0  0  0  0  0  0
  177.1585   22.3854   48.7801 H   0  0  0  0  0  0  0  0  0  0  0  0
  176.5549   20.1272   47.9018 H   0  0  0  0  0  0  0  0  0  0  0  0
  177.2600   18.5350   45.9620 H   0  0  0  0  0  0  0  0  0  0  0  0
  183.8200   19.6910   45.0150 H   0  0  0  0  0  0  0  0  0  0  0  0
  183.3617   23.2187   47.8911 H   0  0  0  0  0  0  0  0  0  0  0  0
  185.4746   24.4950   47.6325 H   0  0  0  0  0  0  0  0  0  0  0  0
  187.7727   24.1835   44.7313 H   0  0  0  0  0  0  0  0  0  0  0  0
  186.8831   25.6442   45.3383 H   0  0  0  0  0  0  0  0  0  0  0  0
  187.2303   24.5897   47.6895 H   0  0  0  0  0  0  0  0  0  0  0  0
  188.5037   23.6083   46.8882 H   0  0  0  0  0  0  0  0  0  0  0  0
  188.6183   25.4009   46.8882 H   0  0  0  0  0  0  0  0  0  0  0  0
  1  2  1  0
  2  3  1  0
  3  4  1  0
  4  5  2  0
  5  6  1  0
  6  7  1  0
  7  8  1  0
  8  9  1  0
  9 10  2  0
 10 11  1  0
 11 12  2  0
 12 13  1  0
 13 14  1  0
 13 15  2  0
 15 16  1  0
 16 17  2  0
 16 18  1  0
 18 19  1  0
  6 20  2  0
 20 21  1  0
 21 22  2  0
 22 23  1  0
 23 24  1  0
 22  4  1  0
 18  7  2  0
 15  9  1  0
  1 25  1  0
  1 26  1  0
  1 27  1  0
  2 28  1  0
  2 29  1  0
  3 30  1  0
  3 31  1  0
  5 32  1  0
 10 33  1  0
 11 34  1  0
 12 35  1  0
 14 36  1  0
 19 37  1  0
 20 38  1  0
 21 39  1  0
 23 40  1  0
 23 41  1  0
 24 42  1  0
 24 43  1  0
 24 44  1  0
M  END
>  <meeko>  (9) 
{"is_sidechain": [false], "free_energy": -5.35, "intermolecular_energy": -6.829, "internal_energy": -0.487}

$$$$
