cand_003_out
     RDKit          3D

 35 37  0  0  0  0  0  0  0  0999 V2000
  179.9980   14.3040   44.8120 C   0  0  0  0  0  0  0  0  0  0  0  0
  180.3720   15.7290   44.5010 C   0  0  0  0  0  0  0  0  0  0  0  0
  179.9620   16.7510   45.3780 C   0  0  0  0  0  0  0  0  0  0  0  0
  180.2920   18.0950   45.1450 C   0  0  0  0  0  0  0  0  0  0  0  0
  179.8190   19.1400   46.0770 C   0  0  0  0  0  0  0  0  0  0  0  0
  178.4460   19.0950   46.2890 O   0  0  0  0  0  0  0  0  0  0  0  0
  177.8750   20.0110   47.1350 C   0  0  0  0  0  0  0  0  0  0  0  0
  176.4920   19.9380   47.3090 C   0  0  0  0  0  0  0  0  0  0  0  0
  175.8480   20.8400   48.1580 C   0  0  0  0  0  0  0  0  0  0  0  0
  176.5860   21.8140   48.8340 C   0  0  0  0  0  0  0  0  0  0  0  0
  177.9660   21.8840   48.6600 C   0  0  0  0  0  0  0  0  0  0  0  0
  178.6270   22.8610   49.3520 O   0  0  0  0  0  0  0  0  0  0  0  0
  178.6100   20.9820   47.8090 C   0  0  0  0  0  0  0  0  0  0  0  0
  180.0570   21.0220   47.5980 C   0  0  0  0  0  0  0  0  0  0  0  0
  180.7760   21.8440   48.1620 O   0  0  0  0  0  0  0  0  0  0  0  0
  180.6420   20.0260   46.6700 C   0  0  0  0  0  0  0  0  0  0  0  0
  182.0120   20.0620   46.4870 O   0  0  0  0  0  0  0  0  0  0  0  0
  181.0330   18.4100   44.0010 C   0  0  0  0  0  0  0  0  0  0  0  0
  181.4500   17.4070   43.1230 C   0  0  0  0  0  0  0  0  0  0  0  0
  181.1320   16.0580   43.3580 C   0  0  0  0  0  0  0  0  0  0  0  0
  181.6030   14.9990   42.3840 C   0  0  0  0  0  0  0  0  0  0  0  0
  181.3860   15.3420   41.0840 F   0  0  0  0  0  0  0  0  0  0  0  0
  180.9880   13.7930   42.5520 F   0  0  0  0  0  0  0  0  0  0  0  0
  182.9380   14.7460   42.4880 F   0  0  0  0  0  0  0  0  0  0  0  0
  179.9613   14.1642   45.9025 H   0  0  0  0  0  0  0  0  0  0  0  0
  179.0110   14.0814   44.3804 H   0  0  0  0  0  0  0  0  0  0  0  0
  180.7485   13.6254   44.3804 H   0  0  0  0  0  0  0  0  0  0  0  0
  179.3690   16.4900   46.2669 H   0  0  0  0  0  0  0  0  0  0  0  0
  175.9101   19.1705   46.7777 H   0  0  0  0  0  0  0  0  0  0  0  0
  174.7580   20.7834   48.2946 H   0  0  0  0  0  0  0  0  0  0  0  0
  176.0782   22.5246   49.5027 H   0  0  0  0  0  0  0  0  0  0  0  0
  179.1370   22.6380   50.1060 H   0  0  0  0  0  0  0  0  0  0  0  0
  182.3860   19.7570   45.6850 H   0  0  0  0  0  0  0  0  0  0  0  0
  181.2900   19.4587   43.7907 H   0  0  0  0  0  0  0  0  0  0  0  0
  182.0370   17.6772   42.2328 H   0  0  0  0  0  0  0  0  0  0  0  0
  1  2  1  0
  2  3  2  0
  3  4  1  0
  4  5  1  0
  5  6  1  0
  6  7  1  0
  7  8  2  0
  8  9  1  0
  9 10  2  0
 10 11  1  0
 11 12  1  0
 11 13  2  0
 13 14  1  0
 14 15  2  0
 14 16  1  0
 16 17  1  0
  4 18  2  0
 18 19  1  0
 19 20  2  0
 20 21  1  0
 21 22  1  0
 21 23  1  0
 21 24  1  0
 20  2  1  0
 16  5  2  0
 13  7  1  0
  1 25  1  0
  1 26  1  0
  1 27  1  0
  3 28  1  0
  8 29  1  0
  9 30  1  0
 10 31  1  0
 12 32  1  0
 17 33  1  0
 18 34  1  0
 19 35  1  0
M  END
>  <meeko>  (1) 
{"is_sidechain": [false], "free_energy": -9.217, "intermolecular_energy": -10.834, "internal_energy": 0.227}

$$$$
cand_003_out
     RDKit          3D

 35 37  0  0  0  0  0  0  0  0999 V2000
  181.4600   17.2860   41.1100 C   0  0  0  0  0  0  0  0  0  0  0  0
  181.0580   16.9850   42.5290 C   0  0  0  0  0  0  0  0  0  0  0  0
  180.7550   18.0530   43.3960 C   0  0  0  0  0  0  0  0  0  0  0  0
  180.3630   17.8320   44.7250 C   0  0  0  0  0  0  0  0  0  0  0  0
  180.0790   18.9820   45.6090 C   0  0  0  0  0  0  0  0  0  0  0  0
  178.7860   18.9670   46.1190 O   0  0  0  0  0  0  0  0  0  0  0  0
  178.3920   19.9790   46.9560 C   0  0  0  0  0  0  0  0  0  0  0  0
  177.0820   19.9320   47.4340 C   0  0  0  0  0  0  0  0  0  0  0  0
  176.6160   20.9310   48.2920 C   0  0  0  0  0  0  0  0  0  0  0  0
  177.4610   21.9750   48.6730 C   0  0  0  0  0  0  0  0  0  0  0  0
  178.7680   22.0200   48.1960 C   0  0  0  0  0  0  0  0  0  0  0  0
  179.5410   23.0700   48.6090 O   0  0  0  0  0  0  0  0  0  0  0  0
  179.2330   21.0210   47.3360 C   0  0  0  0  0  0  0  0  0  0  0  0
  180.5990   21.0300   46.8110 C   0  0  0  0  0  0  0  0  0  0  0  0
  181.4040   21.9110   47.1060 O   0  0  0  0  0  0  0  0  0  0  0  0
  180.9910   19.9280   45.9010 C   0  0  0  0  0  0  0  0  0  0  0  0
  182.2880   19.9390   45.4220 O   0  0  0  0  0  0  0  0  0  0  0  0
  180.2920   16.5140   45.1880 C   0  0  0  0  0  0  0  0  0  0  0  0
  180.5870   15.4430   44.3390 C   0  0  0  0  0  0  0  0  0  0  0  0
  180.9690   15.6590   43.0040 C   0  0  0  0  0  0  0  0  0  0  0  0
  181.2790   14.4740   42.1160 C   0  0  0  0  0  0  0  0  0  0  0  0
  182.6130   14.3190   41.8870 F   0  0  0  0  0  0  0  0  0  0  0  0
  180.7030   14.5530   40.8810 F   0  0  0  0  0  0  0  0  0  0  0  0
  180.8490   13.2930   42.6440 F   0  0  0  0  0  0  0  0  0  0  0  0
  182.3405   17.9453   41.1104 H   0  0  0  0  0  0  0  0  0  0  0  0
  181.7049   16.3474   40.5913 H   0  0  0  0  0  0  0  0  0  0  0  0
  180.6283   17.7853   40.5913 H   0  0  0  0  0  0  0  0  0  0  0  0
  180.8274   19.0850   43.0222 H   0  0  0  0  0  0  0  0  0  0  0  0
  176.4165   19.1087   47.1353 H   0  0  0  0  0  0  0  0  0  0  0  0
  175.5827   20.8951   48.6676 H   0  0  0  0  0  0  0  0  0  0  0  0
  177.0944   22.7612   49.3494 H   0  0  0  0  0  0  0  0  0  0  0  0
  179.3070   23.9460   48.3720 H   0  0  0  0  0  0  0  0  0  0  0  0
  182.9830   19.5950   45.9470 H   0  0  0  0  0  0  0  0  0  0  0  0
  180.0011   16.3181   46.2306 H   0  0  0  0  0  0  0  0  0  0  0  0
  180.5190   14.4142   44.7224 H   0  0  0  0  0  0  0  0  0  0  0  0
  1  2  1  0
  2  3  2  0
  3  4  1  0
  4  5  1  0
  5  6  1  0
  6  7  1  0
  7  8  2  0
  8  9  1  0
  9 10  2  0
 10 11  1  0
 11 12  1  0
 11 13  2  0
 13 14  1  0
 14 15  2  0
 14 16  1  0
 16 17  1  0
  4 18  2  0
 18 19  1  0
 19 20  2  0
 20 21  1  0
 21 22  1  0
 21 23  1  0
 21 24  1  0
 20  2  1  0
 16  5  2  0
 13  7  1  0
  1 25  1  0
  1 26  1  0
  1 27  1  0
  3 28  1  0
  8 29  1  0
  9 30  1  0
 10 31  1  0
 12 32  1  0
 17 33  1  0
 18 34  1  0
 19 35  1  0
M  END
>  <meeko>  (2) 
{"is_sidechain": [false], "free_energy": -8.196, "intermolecular_energy": -9.229, "internal_energy": -0.177}

$$$$
cand_003_out
     RDKit          3D

 35 37  0  0  0  0  0  0  0  0999 V2000
  174.8670   19.9090   47.2600 C   0  0  0  0  0  0  0  0  0  0  0  0
  176.3500   20.1530   47.3370 C   0  0  0  0  0  0  0  0  0  0  0  0
  177.2170   19.3420   46.5800 C   0  0  0  0  0  0  0  0  0  0  0  0
  178.6070   19.5320   46.6030 C   0  0  0  0  0  0  0  0  0  0  0  0
  179.4840   18.6420   45.8130 C   0  0  0  0  0  0  0  0  0  0  0  0
  179.0520   17.3210   45.8090 O   0  0  0  0  0  0  0  0  0  0  0  0
  179.7760   16.3880   45.1110 C   0  0  0  0  0  0  0  0  0  0  0  0
  179.3140   15.0710   45.1460 C   0  0  0  0  0  0  0  0  0  0  0  0
  180.0040   14.0720   44.4560 C   0  0  0  0  0  0  0  0  0  0  0  0
  181.1540   14.3900   43.7300 C   0  0  0  0  0  0  0  0  0  0  0  0
  181.6120   15.7050   43.6960 C   0  0  0  0  0  0  0  0  0  0  0  0
  182.7430   15.9460   42.9660 O   0  0  0  0  0  0  0  0  0  0  0  0
  180.9220   16.7030   44.3890 C   0  0  0  0  0  0  0  0  0  0  0  0
  181.3700   18.0960   44.3790 C   0  0  0  0  0  0  0  0  0  0  0  0
  182.3680   18.4560   43.7580 O   0  0  0  0  0  0  0  0  0  0  0  0
  180.5720   19.0780   45.1510 C   0  0  0  0  0  0  0  0  0  0  0  0
  180.9950   20.3940   45.1240 O   0  0  0  0  0  0  0  0  0  0  0  0
  179.1280   20.5440   47.4150 C   0  0  0  0  0  0  0  0  0  0  0  0
  178.2800   21.3590   48.1710 C   0  0  0  0  0  0  0  0  0  0  0  0
  176.8870   21.1800   48.1420 C   0  0  0  0  0  0  0  0  0  0  0  0
  176.0010   22.0840   48.9740 C   0  0  0  0  0  0  0  0  0  0  0  0
  175.3870   21.4260   49.9960 F   0  0  0  0  0  0  0  0  0  0  0  0
  174.9980   22.6700   48.2600 F   0  0  0  0  0  0  0  0  0  0  0  0
  176.6890   23.1110   49.5470 F   0  0  0  0  0  0  0  0  0  0  0  0
  174.4533   19.8409   48.2770 H   0  0  0  0  0  0  0  0  0  0  0  0
  174.3860   20.7401   46.7234 H   0  0  0  0  0  0  0  0  0  0  0  0
  174.6777   18.9676   46.7234 H   0  0  0  0  0  0  0  0  0  0  0  0
  176.7947   18.5406   45.9559 H   0  0  0  0  0  0  0  0  0  0  0  0
  178.4075   14.8205   45.7165 H   0  0  0  0  0  0  0  0  0  0  0  0
  179.6415   13.0338   44.4843 H   0  0  0  0  0  0  0  0  0  0  0  0
  181.6972   13.6032   43.1859 H   0  0  0  0  0  0  0  0  0  0  0  0
  183.4550   16.4210   43.3470 H   0  0  0  0  0  0  0  0  0  0  0  0
  181.6680   20.6570   44.5290 H   0  0  0  0  0  0  0  0  0  0  0  0
  180.2159   20.7005   47.4595 H   0  0  0  0  0  0  0  0  0  0  0  0
  178.7106   22.1532   48.7986 H   0  0  0  0  0  0  0  0  0  0  0  0
  1  2  1  0
  2  3  2  0
  3  4  1  0
  4  5  1  0
  5  6  1  0
  6  7  1  0
  7  8  2  0
  8  9  1  0
  9 10  2  0
 10 11  1  0
 11 12  1  0
 11 13  2  0
 13 14  1  0
 14 15  2  0
 14 16  1  0
 16 17  1  0
  4 18  2  0
 18 19  1  0
 19 20  2  0
 20 21  1  0
 21 22  1  0
 21 23  1  0
 21 24  1  0
 20  2  1  0
 16  5  2  0
 13  7  1  0
  1 25  1  0
  1 26  1  0
  1 27  1  0
  3 28  1  0
  8 29  1  0
  9 30  1  0
 10 31  1  0
 12 32  1  0
 17 33  1  0
 18 34  1  0
 19 35  1  0
M  END
>  <meeko>  (3) 
{"is_sidechain": [false], "free_energy": -7.901, "intermolecular_energy": -9.013, "internal_energy": -0.046}

$$$$
cand_003_out
     RDKit          3D

 35 37  0  0  0  0  0  0  0  0999 V2000
  179.4310   14.8080   45.2370 C   0  0  0  0  0  0  0  0  0  0  0  0
  179.7280   16.2790   45.1250 C   0  0  0  0  0  0  0  0  0  0  0  0
  178.9090   17.1970   45.8110 C   0  0  0  0  0  0  0  0  0  0  0  0
  179.1450   18.5790   45.7530 C   0  0  0  0  0  0  0  0  0  0  0  0
  178.2450   19.5090   46.4660 C   0  0  0  0  0  0  0  0  0  0  0  0
  178.8840   20.6750   46.8740 O   0  0  0  0  0  0  0  0  0  0  0  0
  178.1610   21.6260   47.5470 C   0  0  0  0  0  0  0  0  0  0  0  0
  178.8440   22.7740   47.9500 C   0  0  0  0  0  0  0  0  0  0  0  0
  178.1680   23.7830   48.6390 C   0  0  0  0  0  0  0  0  0  0  0  0
  176.8080   23.6440   48.9240 C   0  0  0  0  0  0  0  0  0  0  0  0
  176.1270   22.4980   48.5200 C   0  0  0  0  0  0  0  0  0  0  0  0
  174.7970   22.4280   48.8310 O   0  0  0  0  0  0  0  0  0  0  0  0
  176.8060   21.4880   47.8320 C   0  0  0  0  0  0  0  0  0  0  0  0
  176.1290   20.2690   47.3910 C   0  0  0  0  0  0  0  0  0  0  0  0
  174.9320   20.0760   47.5970 O   0  0  0  0  0  0  0  0  0  0  0  0
  176.9390   19.2560   46.6750 C   0  0  0  0  0  0  0  0  0  0  0  0
  176.2870   18.1130   46.2490 O   0  0  0  0  0  0  0  0  0  0  0  0
  180.2150   19.0390   44.9790 C   0  0  0  0  0  0  0  0  0  0  0  0
  181.0390   18.1410   44.2950 C   0  0  0  0  0  0  0  0  0  0  0  0
  180.8130   16.7560   44.3600 C   0  0  0  0  0  0  0  0  0  0  0  0
  181.7290   15.8150   43.6060 C   0  0  0  0  0  0  0  0  0  0  0  0
  181.1530   15.3040   42.4820 F   0  0  0  0  0  0  0  0  0  0  0  0
  182.1220   14.7330   44.3390 F   0  0  0  0  0  0  0  0  0  0  0  0
  182.8810   16.4170   43.1980 F   0  0  0  0  0  0  0  0  0  0  0  0
  179.3739   14.5252   46.2985 H   0  0  0  0  0  0  0  0  0  0  0  0
  178.4706   14.5895   44.7472 H   0  0  0  0  0  0  0  0  0  0  0  0
  180.2314   14.2340   44.7472 H   0  0  0  0  0  0  0  0  0  0  0  0
  178.0639   16.8214   46.4066 H   0  0  0  0  0  0  0  0  0  0  0  0
  179.9151   22.8842   47.7249 H   0  0  0  0  0  0  0  0  0  0  0  0
  178.7069   24.6876   48.9574 H   0  0  0  0  0  0  0  0  0  0  0  0
  176.2751   24.4386   49.4669 H   0  0  0  0  0  0  0  0  0  0  0  0
  174.3270   23.2070   49.0560 H   0  0  0  0  0  0  0  0  0  0  0  0
  176.1250   17.4150   46.8520 H   0  0  0  0  0  0  0  0  0  0  0  0
  180.4102   20.1192   44.9078 H   0  0  0  0  0  0  0  0  0  0  0  0
  181.8780   18.5249   43.6961 H   0  0  0  0  0  0  0  0  0  0  0  0
  1  2  1  0
  2  3  2  0
  3  4  1  0
  4  5  1  0
  5  6  1  0
  6  7  1  0
  7  8  2  0
  8  9  1  0
  9 10  2  0
 10 11  1  0
 11 12  1  0
 11 13  2  0
 13 14  1  0
 14 15  2  0
 14 16  1  0
 16 17  1  0
  4 18  2  0
 18 19  1  0
 19 20  2  0
 20 21  1  0
 21 22  1  0
 21 23  1  0
 21 24  1  0
 20  2  1  0
 16  5  2  0
 13  7  1  0
  1 25  1  0
  1 26  1  0
  1 27  1  0
  3 28  1  0
  8 29  1  0
  9 30  1  0
 10 31  1  0
 12 32  1  0
 17 33  1  0
 18 34  1  0
 19 35  1  0
M  END
>  <meeko>  (4) 
{"is_sidechain": [false], "free_energy": -7.135, "intermolecular_energy": -8.349, "internal_energy": 0.19}

$$$$
cand_003_out
     RDKit          3D

 35 37  0  0  0  0  0  0  0  0999 V2000
  182.4250   18.5170   43.9560 C   0  0  0  0  0  0  0  0  0  0  0  0
  181.1390   18.2970   44.7070 C   0  0  0  0  0  0  0  0  0  0  0  0
  180.5790   19.3660   45.4320 C   0  0  0  0  0  0  0  0  0  0  0  0
  179.3760   19.2230   46.1400 C   0  0  0  0  0  0  0  0  0  0  0  0
  178.8370   20.3640   46.9110 C   0  0  0  0  0  0  0  0  0  0  0  0
  177.4630   20.2810   47.1090 O   0  0  0  0  0  0  0  0  0  0  0  0
  176.8340   21.2770   47.8110 C   0  0  0  0  0  0  0  0  0  0  0  0
  175.4530   21.1620   47.9750 C   0  0  0  0  0  0  0  0  0  0  0  0
  174.7510   22.1410   48.6810 C   0  0  0  0  0  0  0  0  0  0  0  0
  175.4290   23.2340   49.2240 C   0  0  0  0  0  0  0  0  0  0  0  0
  176.8070   23.3460   49.0600 C   0  0  0  0  0  0  0  0  0  0  0  0
  177.4080   24.4410   49.6180 O   0  0  0  0  0  0  0  0  0  0  0  0
  177.5090   22.3670   48.3520 C   0  0  0  0  0  0  0  0  0  0  0  0
  178.9570   22.4470   48.1570 C   0  0  0  0  0  0  0  0  0  0  0  0
  179.6260   23.3740   48.6100 O   0  0  0  0  0  0  0  0  0  0  0  0
  179.6060   21.3610   47.3850 C   0  0  0  0  0  0  0  0  0  0  0  0
  180.9760   21.4390   47.2180 O   0  0  0  0  0  0  0  0  0  0  0  0
  178.7400   17.9780   46.1280 C   0  0  0  0  0  0  0  0  0  0  0  0
  179.2820   16.9080   45.4110 C   0  0  0  0  0  0  0  0  0  0  0  0
  180.4800   17.0490   44.6900 C   0  0  0  0  0  0  0  0  0  0  0  0
  181.0340   15.8670   43.9240 C   0  0  0  0  0  0  0  0  0  0  0  0
  182.3960   15.8440   43.9010 F   0  0  0  0  0  0  0  0  0  0  0  0
  180.6450   15.8330   42.6170 F   0  0  0  0  0  0  0  0  0  0  0  0
  180.6470   14.6710   44.4510 F   0  0  0  0  0  0  0  0  0  0  0  0
  183.2482   18.6578   44.6719 H   0  0  0  0  0  0  0  0  0  0  0  0
  182.6347   17.6417   43.3237 H   0  0  0  0  0  0  0  0  0  0  0  0
  182.3318   19.4122   43.3237 H   0  0  0  0  0  0  0  0  0  0  0  0
  181.0968   20.3364   45.4437 H   0  0  0  0  0  0  0  0  0  0  0  0
  174.9179   20.3008   47.5484 H   0  0  0  0  0  0  0  0  0  0  0  0
  173.6623   22.0510   48.8095 H   0  0  0  0  0  0  0  0  0  0  0  0
  174.8756   24.0050   49.7802 H   0  0  0  0  0  0  0  0  0  0  0  0
  178.3420   24.4750   49.6940 H   0  0  0  0  0  0  0  0  0  0  0  0
  181.3320   21.8710   46.4670 H   0  0  0  0  0  0  0  0  0  0  0  0
  177.8037   17.8394   46.6885 H   0  0  0  0  0  0  0  0  0  0  0  0
  178.7620   15.9387   45.4110 H   0  0  0  0  0  0  0  0  0  0  0  0
  1  2  1  0
  2  3  2  0
  3  4  1  0
  4  5  1  0
  5  6  1  0
  6  7  1  0
  7  8  2  0
  8  9  1  0
  9 10  2  0
 10 11  1  0
 11 12  1  0
 11 13  2  0
 13 14  1  0
 14 15  2  0
 14 16  1  0
 16 17  1  0
  4 18  2  0
 18 19  1  0
 19 20  2  0
 20 21  1  0
 21 22  1  0
 21 23  1  0
 21 24  1  0
 20  2  1  0
 16  5  2  0
 13  7  1  0
  1 25  1  0
  1 26  1  0
  1 27  1  0
  3 28  1  0
  8 29  1  0
  9 30  1  0
 10 31  1  0
 12 32  1  0
 17 33  1  0
 18 34  1  0
 19 35  1  0
M  END
>  <meeko>  (5) 
{"is_sidechain": [false], "free_energy": -6.315, "intermolecular_energy": -7.612, "internal_energy": 0.417}

$$$$
