cand_014_out
     RDKit          3D

 35 37  0  0  0  0  0  0  0  0999 V2000
  181.9430   15.2160   42.6860 C   0  0  0  0  0  0  0  0  0  0  0  0
  181.3350   16.2480   43.5970 C   0  0  0  0  0  0  0  0  0  0  0  0
  181.6980   17.5940   43.4380 C   0  0  0  0  0  0  0  0  0  0  0  0
  181.1650   18.5830   44.2690 C   0  0  0  0  0  0  0  0  0  0  0  0
  180.2550   18.2550   45.2790 C   0  0  0  0  0  0  0  0  0  0  0  0
  179.7170   19.3130   46.1580 C   0  0  0  0  0  0  0  0  0  0  0  0
  178.3290   19.3110   46.2220 O   0  0  0  0  0  0  0  0  0  0  0  0
  177.7020   20.2480   47.0030 C   0  0  0  0  0  0  0  0  0  0  0  0
  176.3070   20.2230   47.0260 C   0  0  0  0  0  0  0  0  0  0  0  0
  175.6060   21.1470   47.8030 C   0  0  0  0  0  0  0  0  0  0  0  0
  176.2990   22.0960   48.5580 C   0  0  0  0  0  0  0  0  0  0  0  0
  177.6910   22.1200   48.5330 C   0  0  0  0  0  0  0  0  0  0  0  0
  178.3060   23.0740   49.2960 O   0  0  0  0  0  0  0  0  0  0  0  0
  178.3920   21.1950   47.7550 C   0  0  0  0  0  0  0  0  0  0  0  0
  179.8540   21.1850   47.7020 C   0  0  0  0  0  0  0  0  0  0  0  0
  180.5360   21.9820   48.3430 O   0  0  0  0  0  0  0  0  0  0  0  0
  180.5020   20.1690   46.8390 C   0  0  0  0  0  0  0  0  0  0  0  0
  181.8830   20.1590   46.8050 O   0  0  0  0  0  0  0  0  0  0  0  0
  179.9100   16.9070   45.4520 C   0  0  0  0  0  0  0  0  0  0  0  0
  180.4410   15.8940   44.6290 C   0  0  0  0  0  0  0  0  0  0  0  0
  180.0060   14.4640   44.8530 C   0  0  0  0  0  0  0  0  0  0  0  0
  180.9750   13.6820   45.4100 F   0  0  0  0  0  0  0  0  0  0  0  0
  179.6460   13.8260   43.7050 F   0  0  0  0  0  0  0  0  0  0  0  0
  182.4098   14.4236   43.2895 H   0  0  0  0  0  0  0  0  0  0  0  0
  181.1580   14.7791   42.0513 H   0  0  0  0  0  0  0  0  0  0  0  0
  182.7056   15.6909   42.0513 H   0  0  0  0  0  0  0  0  0  0  0  0
  182.4114   17.8743   42.6490 H   0  0  0  0  0  0  0  0  0  0  0  0
  181.4647   19.6318   44.1270 H   0  0  0  0  0  0  0  0  0  0  0  0
  175.7601   19.4757   46.4323 H   0  0  0  0  0  0  0  0  0  0  0  0
  174.5063   21.1276   47.8207 H   0  0  0  0  0  0  0  0  0  0  0  0
  175.7462   22.8230   49.1711 H   0  0  0  0  0  0  0  0  0  0  0  0
  179.1980   23.3080   49.1250 H   0  0  0  0  0  0  0  0  0  0  0  0
  182.3700   20.8020   47.2820 H   0  0  0  0  0  0  0  0  0  0  0  0
  179.2060   16.6330   46.2516 H   0  0  0  0  0  0  0  0  0  0  0  0
  179.1491   14.5757   45.5336 H   0  0  0  0  0  0  0  0  0  0  0  0
  1  2  1  0
  2  3  2  0
  3  4  1  0
  4  5  2  0
  5  6  1  0
  6  7  1  0
  7  8  1  0
  8  9  2  0
  9 10  1  0
 10 11  2  0
 11 12  1  0
 12 13  1  0
 12 14  2  0
 14 15  1  0
 15 16  2  0
 15 17  1  0
 17 18  1  0
  5 19  1  0
 19 20  2  0
 20 21  1  0
 21 22  1  0
 21 23  1  0
 20  2  1  0
 17  6  2  0
 14  8  1  0
  1 24  1  0
  1 25  1  0
  1 26  1  0
  3 27  1  0
  4 28  1  0
  9 29  1  0
 10 30  1  0
 11 31  1  0
 13 32  1  0
 18 33  1  0
 19 34  1  0
 21 35  1  0
M  END
>  <meeko>  (1) 
{"is_sidechain": [false], "free_energy": -8.764, "intermolecular_energy": -10.302, "internal_energy": -0.055}

$$$$
cand_014_out
     RDKit          3D

 35 37  0  0  0  0  0  0  0  0999 V2000
  176.6950   22.5540   48.9990 C   0  0  0  0  0  0  0  0  0  0  0  0
  177.4330   21.5340   48.1760 C   0  0  0  0  0  0  0  0  0  0  0  0
  178.8280   21.6290   48.0640 C   0  0  0  0  0  0  0  0  0  0  0  0
  179.5500   20.7090   47.3000 C   0  0  0  0  0  0  0  0  0  0  0  0
  178.9000   19.6690   46.6300 C   0  0  0  0  0  0  0  0  0  0  0  0
  179.6810   18.7170   45.8130 C   0  0  0  0  0  0  0  0  0  0  0  0
  179.1520   17.4320   45.8240 O   0  0  0  0  0  0  0  0  0  0  0  0
  179.7860   16.4500   45.1070 C   0  0  0  0  0  0  0  0  0  0  0  0
  179.2330   15.1700   45.1590 C   0  0  0  0  0  0  0  0  0  0  0  0
  179.8270   14.1250   44.4490 C   0  0  0  0  0  0  0  0  0  0  0  0
  180.9740   14.3580   43.6860 C   0  0  0  0  0  0  0  0  0  0  0  0
  181.5230   15.6360   43.6360 C   0  0  0  0  0  0  0  0  0  0  0  0
  182.6450   15.7960   42.8690 O   0  0  0  0  0  0  0  0  0  0  0  0
  180.9290   16.6820   44.3460 C   0  0  0  0  0  0  0  0  0  0  0  0
  181.4750   18.0390   44.3200 C   0  0  0  0  0  0  0  0  0  0  0  0
  182.4760   18.3280   43.6670 O   0  0  0  0  0  0  0  0  0  0  0  0
  180.7760   19.0750   45.1160 C   0  0  0  0  0  0  0  0  0  0  0  0
  181.2900   20.3570   45.0740 O   0  0  0  0  0  0  0  0  0  0  0  0
  177.5030   19.5860   46.7230 C   0  0  0  0  0  0  0  0  0  0  0  0
  176.7560   20.5080   47.4820 C   0  0  0  0  0  0  0  0  0  0  0  0
  175.2550   20.3460   47.5620 C   0  0  0  0  0  0  0  0  0  0  0  0
  174.8220   19.8950   48.7740 F   0  0  0  0  0  0  0  0  0  0  0  0
  174.7620   19.4600   46.6520 F   0  0  0  0  0  0  0  0  0  0  0  0
  176.8477   22.3429   50.0677 H   0  0  0  0  0  0  0  0  0  0  0  0
  177.0764   23.5590   48.7656 H   0  0  0  0  0  0  0  0  0  0  0  0
  175.6211   22.5061   48.7656 H   0  0  0  0  0  0  0  0  0  0  0  0
  179.3604   22.4386   48.5846 H   0  0  0  0  0  0  0  0  0  0  0  0
  180.6433   20.8043   47.2249 H   0  0  0  0  0  0  0  0  0  0  0  0
  178.3298   14.9845   45.7589 H   0  0  0  0  0  0  0  0  0  0  0  0
  179.3910   13.1159   44.4904 H   0  0  0  0  0  0  0  0  0  0  0  0
  181.4416   13.5342   43.1267 H   0  0  0  0  0  0  0  0  0  0  0  0
  182.8010   15.2250   42.1420 H   0  0  0  0  0  0  0  0  0  0  0  0
  181.3420   20.8160   44.2590 H   0  0  0  0  0  0  0  0  0  0  0  0
  176.9773   18.7803   46.1896 H   0  0  0  0  0  0  0  0  0  0  0  0
  174.8895   21.3649   47.3663 H   0  0  0  0  0  0  0  0  0  0  0  0
  1  2  1  0
  2  3  2  0
  3  4  1  0
  4  5  2  0
  5  6  1  0
  6  7  1  0
  7  8  1  0
  8  9  2  0
  9 10  1  0
 10 11  2  0
 11 12  1  0
 12 13  1  0
 12 14  2  0
 14 15  1  0
 15 16  2  0
 15 17  1  0
 17 18  1  0
  5 19  1  0
 19 20  2  0
 20 21  1  0
 21 22  1  0
 21 23  1  0
 20  2  1  0
 17  6  2  0
 14  8  1  0
  1 24  1  0
  1 25  1  0
  1 26  1  0
  3 27  1  0
  4 28  1  0
  9 29  1  0
 10 30  1  0
 11 31  1  0
 13 32  1  0
 18 33  1  0
 19 34  1  0
 21 35  1  0
M  END
>  <meeko>  (2) 
{"is_sidechain": [false], "free_energy": -7.724, "intermolecular_energy": -9.08, "internal_energy": -0.053}

$$$$
cand_014_out
     RDKit          3D

 35 37  0  0  0  0  0  0  0  0999 V2000
  181.1530   13.6450   42.2960 C   0  0  0  0  0  0  0  0  0  0  0  0
  180.9260   14.9260   43.0520 C   0  0  0  0  0  0  0  0  0  0  0  0
  180.5220   14.8620   44.3930 C   0  0  0  0  0  0  0  0  0  0  0  0
  180.2890   16.0270   45.1280 C   0  0  0  0  0  0  0  0  0  0  0  0
  180.4550   17.2870   44.5430 C   0  0  0  0  0  0  0  0  0  0  0  0
  180.1860   18.5070   45.3330 C   0  0  0  0  0  0  0  0  0  0  0  0
  178.8960   18.5460   45.8470 O   0  0  0  0  0  0  0  0  0  0  0  0
  178.5160   19.6290   46.5980 C   0  0  0  0  0  0  0  0  0  0  0  0
  177.2070   19.6370   47.0820 C   0  0  0  0  0  0  0  0  0  0  0  0
  176.7570   20.7090   47.8560 C   0  0  0  0  0  0  0  0  0  0  0  0
  177.6150   21.7720   48.1460 C   0  0  0  0  0  0  0  0  0  0  0  0
  178.9200   21.7610   47.6630 C   0  0  0  0  0  0  0  0  0  0  0  0
  179.7070   22.8330   47.9860 O   0  0  0  0  0  0  0  0  0  0  0  0
  179.3710   20.6890   46.8890 C   0  0  0  0  0  0  0  0  0  0  0  0
  180.7350   20.6390   46.3610 C   0  0  0  0  0  0  0  0  0  0  0  0
  181.5520   21.5310   46.5800 O   0  0  0  0  0  0  0  0  0  0  0  0
  181.1110   19.4620   45.5430 C   0  0  0  0  0  0  0  0  0  0  0  0
  182.4050   19.4170   45.0610 O   0  0  0  0  0  0  0  0  0  0  0  0
  180.8370   17.3510   43.1960 C   0  0  0  0  0  0  0  0  0  0  0  0
  181.0690   16.1870   42.4360 C   0  0  0  0  0  0  0  0  0  0  0  0
  181.5050   16.3280   40.9950 C   0  0  0  0  0  0  0  0  0  0  0  0
  181.4820   17.6140   40.5440 F   0  0  0  0  0  0  0  0  0  0  0  0
  180.7220   15.6280   40.1270 F   0  0  0  0  0  0  0  0  0  0  0  0
  181.2992   12.8198   43.0085 H   0  0  0  0  0  0  0  0  0  0  0  0
  180.2785   13.4327   41.6634 H   0  0  0  0  0  0  0  0  0  0  0  0
  182.0472   13.7461   41.6634 H   0  0  0  0  0  0  0  0  0  0  0  0
  180.3867   13.8815   44.8728 H   0  0  0  0  0  0  0  0  0  0  0  0
  179.9714   15.9528   46.1785 H   0  0  0  0  0  0  0  0  0  0  0  0
  176.5305   18.8001   46.8542 H   0  0  0  0  0  0  0  0  0  0  0  0
  175.7254   20.7160   48.2377 H   0  0  0  0  0  0  0  0  0  0  0  0
  177.2599   22.6164   48.7551 H   0  0  0  0  0  0  0  0  0  0  0  0
  180.6190   22.8260   47.7690 H   0  0  0  0  0  0  0  0  0  0  0  0
  182.5620   19.4220   44.1370 H   0  0  0  0  0  0  0  0  0  0  0  0
  180.9589   18.3350   42.7198 H   0  0  0  0  0  0  0  0  0  0  0  0
  182.5323   15.9351   41.0125 H   0  0  0  0  0  0  0  0  0  0  0  0
  1  2  1  0
  2  3  2  0
  3  4  1  0
  4  5  2  0
  5  6  1  0
  6  7  1  0
  7  8  1  0
  8  9  2  0
  9 10  1  0
 10 11  2  0
 11 12  1  0
 12 13  1  0
 12 14  2  0
 14 15  1  0
 15 16  2  0
 15 17  1  0
 17 18  1  0
  5 19  1  0
 19 20  2  0
 20 21  1  0
 21 22  1  0
 21 23  1  0
 20  2  1  0
 17  6  2  0
 14  8  1  0
  1 24  1  0
  1 25  1  0
  1 26  1  0
  3 27  1  0
  4 28  1  0
  9 29  1  0
 10 30  1  0
 11 31  1  0
 13 32  1  0
 18 33  1  0
 19 34  1  0
 21 35  1  0
M  END
>  <meeko>  (3) 
{"is_sidechain": [false], "free_energy": -7.513, "intermolecular_energy": -8.664, "internal_energy": -0.221}

$$$$
cand_014_out
     RDKit          3D

 35 37  0  0  0  0  0  0  0  0999 V2000
  182.1500   15.8240   43.3840 C   0  0  0  0  0  0  0  0  0  0  0  0
  181.1830   16.7070   44.1260 C   0  0  0  0  0  0  0  0  0  0  0  0
  181.3380   18.0990   44.0500 C   0  0  0  0  0  0  0  0  0  0  0  0
  180.4700   18.9550   44.7320 C   0  0  0  0  0  0  0  0  0  0  0  0
  179.4230   18.4440   45.5060 C   0  0  0  0  0  0  0  0  0  0  0  0
  178.5270   19.3660   46.2340 C   0  0  0  0  0  0  0  0  0  0  0  0
  179.1330   20.5770   46.5460 O   0  0  0  0  0  0  0  0  0  0  0  0
  178.4090   21.5240   47.2260 C   0  0  0  0  0  0  0  0  0  0  0  0
  179.0590   22.7190   47.5350 C   0  0  0  0  0  0  0  0  0  0  0  0
  178.3790   23.7250   48.2220 C   0  0  0  0  0  0  0  0  0  0  0  0
  177.0480   23.5370   48.6020 C   0  0  0  0  0  0  0  0  0  0  0  0
  176.4010   22.3440   48.2930 C   0  0  0  0  0  0  0  0  0  0  0  0
  175.0980   22.2270   48.6930 O   0  0  0  0  0  0  0  0  0  0  0  0
  177.0820   21.3370   47.6050 C   0  0  0  0  0  0  0  0  0  0  0  0
  176.4390   20.0690   47.2600 C   0  0  0  0  0  0  0  0  0  0  0  0
  175.2680   19.8300   47.5510 O   0  0  0  0  0  0  0  0  0  0  0  0
  177.2510   19.0620   46.5370 C   0  0  0  0  0  0  0  0  0  0  0  0
  176.6310   17.8720   46.2040 O   0  0  0  0  0  0  0  0  0  0  0  0
  179.2820   17.0530   45.6000 C   0  0  0  0  0  0  0  0  0  0  0  0
  180.1520   16.1730   44.9260 C   0  0  0  0  0  0  0  0  0  0  0  0
  179.9270   14.6830   45.0490 C   0  0  0  0  0  0  0  0  0  0  0  0
  181.0140   14.0070   45.5180 F   0  0  0  0  0  0  0  0  0  0  0  0
  179.6170   14.0870   43.8640 F   0  0  0  0  0  0  0  0  0  0  0  0
  182.7631   15.2641   44.1055 H   0  0  0  0  0  0  0  0  0  0  0  0
  181.5912   15.1180   42.7521 H   0  0  0  0  0  0  0  0  0  0  0  0
  182.8024   16.4445   42.7521 H   0  0  0  0  0  0  0  0  0  0  0  0
  182.1538   18.5221   43.4454 H   0  0  0  0  0  0  0  0  0  0  0  0
  180.6115   20.0434   44.6595 H   0  0  0  0  0  0  0  0  0  0  0  0
  180.1074   22.8681   47.2371 H   0  0  0  0  0  0  0  0  0  0  0  0
  178.8916   24.6675   48.4648 H   0  0  0  0  0  0  0  0  0  0  0  0
  176.5124   24.3301   49.1443 H   0  0  0  0  0  0  0  0  0  0  0  0
  174.5350   22.9760   48.6790 H   0  0  0  0  0  0  0  0  0  0  0  0
  176.3160   17.3030   46.8780 H   0  0  0  0  0  0  0  0  0  0  0  0
  178.4710   16.6372   46.2160 H   0  0  0  0  0  0  0  0  0  0  0  0
  179.0881   14.6222   45.7579 H   0  0  0  0  0  0  0  0  0  0  0  0
  1  2  1  0
  2  3  2  0
  3  4  1  0
  4  5  2  0
  5  6  1  0
  6  7  1  0
  7  8  1  0
  8  9  2  0
  9 10  1  0
 10 11  2  0
 11 12  1  0
 12 13  1  0
 12 14  2  0
 14 15  1  0
 15 16  2  0
 15 17  1  0
 17 18  1  0
  5 19  1  0
 19 20  2  0
 20 21  1  0
 21 22  1  0
 21 23  1  0
 20  2  1  0
 17  6  2  0
 14  8  1  0
  1 24  1  0
  1 25  1  0
  1 26  1  0
  3 27  1  0
  4 28  1  0
  9 29  1  0
 10 30  1  0
 11 31  1  0
 13 32  1  0
 18 33  1  0
 19 34  1  0
 21 35  1  0
M  END
>  <meeko>  (4) 
{"is_sidechain": [false], "free_energy": -7.308, "intermolecular_energy": -8.772, "internal_energy": 0.127}

$$$$
cand_014_out
     RDKit          3D

 35 37  0  0  0  0  0  0  0  0999 V2000
  175.6230   22.2170   48.6230 C   0  0  0  0  0  0  0  0  0  0  0  0
  176.6080   21.3570   47.8790 C   0  0  0  0  0  0  0  0  0  0  0  0
  176.2080   20.0840   47.4450 C   0  0  0  0  0  0  0  0  0  0  0  0
  177.0950   19.2480   46.7620 C   0  0  0  0  0  0  0  0  0  0  0  0
  178.4030   19.6620   46.4900 C   0  0  0  0  0  0  0  0  0  0  0  0
  179.3300   18.7560   45.7810 C   0  0  0  0  0  0  0  0  0  0  0  0
  178.9070   17.4330   45.7900 O   0  0  0  0  0  0  0  0  0  0  0  0
  179.6810   16.4870   45.1670 C   0  0  0  0  0  0  0  0  0  0  0  0
  179.2290   15.1670   45.2140 C   0  0  0  0  0  0  0  0  0  0  0  0
  179.9680   14.1560   44.5980 C   0  0  0  0  0  0  0  0  0  0  0  0
  181.1580   14.4620   43.9350 C   0  0  0  0  0  0  0  0  0  0  0  0
  181.6070   15.7790   43.8890 C   0  0  0  0  0  0  0  0  0  0  0  0
  182.7790   16.0100   43.2230 O   0  0  0  0  0  0  0  0  0  0  0  0
  180.8680   16.7910   44.5060 C   0  0  0  0  0  0  0  0  0  0  0  0
  181.3040   18.1880   44.4820 C   0  0  0  0  0  0  0  0  0  0  0  0
  182.3350   18.5400   43.9120 O   0  0  0  0  0  0  0  0  0  0  0  0
  180.4530   19.1840   45.1740 C   0  0  0  0  0  0  0  0  0  0  0  0
  180.8650   20.5030   45.1350 O   0  0  0  0  0  0  0  0  0  0  0  0
  178.8090   20.9250   46.9430 C   0  0  0  0  0  0  0  0  0  0  0  0
  177.9330   21.7790   47.6410 C   0  0  0  0  0  0  0  0  0  0  0  0
  178.4280   23.1390   48.0780 C   0  0  0  0  0  0  0  0  0  0  0  0
  178.6020   24.0120   47.0440 F   0  0  0  0  0  0  0  0  0  0  0  0
  179.6310   23.0940   48.7160 F   0  0  0  0  0  0  0  0  0  0  0  0
  175.7693   22.0893   49.7057 H   0  0  0  0  0  0  0  0  0  0  0  0
  175.7805   23.2718   48.3536 H   0  0  0  0  0  0  0  0  0  0  0  0
  174.5991   21.9187   48.3536 H   0  0  0  0  0  0  0  0  0  0  0  0
  175.1826   19.7397   47.6451 H   0  0  0  0  0  0  0  0  0  0  0  0
  176.7607   18.2526   46.4344 H   0  0  0  0  0  0  0  0  0  0  0  0
  178.2916   14.9241   45.7359 H   0  0  0  0  0  0  0  0  0  0  0  0
  179.6121   13.1158   44.6349 H   0  0  0  0  0  0  0  0  0  0  0  0
  181.7396   13.6642   43.4500 H   0  0  0  0  0  0  0  0  0  0  0  0
  183.3700   16.6700   43.5290 H   0  0  0  0  0  0  0  0  0  0  0  0
  180.3290   21.1730   45.5100 H   0  0  0  0  0  0  0  0  0  0  0  0
  179.8391   21.2580   46.7482 H   0  0  0  0  0  0  0  0  0  0  0  0
  177.6302   23.4809   48.7538 H   0  0  0  0  0  0  0  0  0  0  0  0
  1  2  1  0
  2  3  2  0
  3  4  1  0
  4  5  2  0
  5  6  1  0
  6  7  1  0
  7  8  1  0
  8  9  2  0
  9 10  1  0
 10 11  2  0
 11 12  1  0
 12 13  1  0
 12 14  2  0
 14 15  1  0
 15 16  2  0
 15 17  1  0
 17 18  1  0
  5 19  1  0
 19 20  2  0
 20 21  1  0
 21 22  1  0
 21 23  1  0
 20  2  1  0
 17  6  2  0
 14  8  1  0
  1 24  1  0
  1 25  1  0
  1 26  1  0
  3 27  1  0
  4 28  1  0
  9 29  1  0
 10 30  1  0
 11 31  1  0
 13 32  1  0
 18 33  1  0
 19 34  1  0
 21 35  1  0
M  END
>  <meeko>  (5) 
{"is_sidechain": [false], "free_energy": -7.08, "intermolecular_energy": -8.412, "internal_energy": 0.036}

$$$$
cand_014_out
     RDKit          3D

 35 37  0  0  0  0  0  0  0  0999 V2000
  175.5620   23.5020   49.6270 C   0  0  0  0  0  0  0  0  0  0  0  0
  176.5840   22.7070   48.8600 C   0  0  0  0  0  0  0  0  0  0  0  0
  177.6920   23.3700   48.3130 C   0  0  0  0  0  0  0  0  0  0  0  0
  178.6580   22.6710   47.5850 C   0  0  0  0  0  0  0  0  0  0  0  0
  178.5440   21.2920   47.3850 C   0  0  0  0  0  0  0  0  0  0  0  0
  179.5670   20.5750   46.5960 C   0  0  0  0  0  0  0  0  0  0  0  0
  179.1580   19.3070   46.2030 O   0  0  0  0  0  0  0  0  0  0  0  0
  180.0180   18.5330   45.4660 C   0  0  0  0  0  0  0  0  0  0  0  0
  179.5750   17.2590   45.1060 C   0  0  0  0  0  0  0  0  0  0  0  0
  180.4000   16.4220   44.3540 C   0  0  0  0  0  0  0  0  0  0  0  0
  181.6670   16.8560   43.9600 C   0  0  0  0  0  0  0  0  0  0  0  0
  182.1070   18.1270   44.3200 C   0  0  0  0  0  0  0  0  0  0  0  0
  183.3570   18.4890   43.9000 O   0  0  0  0  0  0  0  0  0  0  0  0
  181.2810   18.9650   45.0730 C   0  0  0  0  0  0  0  0  0  0  0  0
  181.7050   20.3080   45.4720 C   0  0  0  0  0  0  0  0  0  0  0  0
  182.8020   20.7660   45.1580 O   0  0  0  0  0  0  0  0  0  0  0  0
  180.7590   21.1140   46.2790 C   0  0  0  0  0  0  0  0  0  0  0  0
  181.1620   22.3860   46.6400 O   0  0  0  0  0  0  0  0  0  0  0  0
  177.4250   20.6320   47.9130 C   0  0  0  0  0  0  0  0  0  0  0  0
  176.4360   21.3210   48.6430 C   0  0  0  0  0  0  0  0  0  0  0  0
  175.2680   20.5440   49.2080 C   0  0  0  0  0  0  0  0  0  0  0  0
  175.6430   19.4790   49.9720 F   0  0  0  0  0  0  0  0  0  0  0  0
  174.4520   20.0270   48.2470 F   0  0  0  0  0  0  0  0  0  0  0  0
  175.7302   23.3712   50.7062 H   0  0  0  0  0  0  0  0  0  0  0  0
  175.6558   24.5669   49.3677 H   0  0  0  0  0  0  0  0  0  0  0  0
  174.5529   23.1490   49.3677 H   0  0  0  0  0  0  0  0  0  0  0  0
  177.8020   24.4547   48.4590 H   0  0  0  0  0  0  0  0  0  0  0  0
  179.5184   23.2120   47.1642 H   0  0  0  0  0  0  0  0  0  0  0  0
  178.5767   16.9155   45.4148 H   0  0  0  0  0  0  0  0  0  0  0  0
  180.0513   15.4179   44.0709 H   0  0  0  0  0  0  0  0  0  0  0  0
  182.3162   16.1954   43.3666 H   0  0  0  0  0  0  0  0  0  0  0  0
  183.6260   19.3870   43.9480 H   0  0  0  0  0  0  0  0  0  0  0  0
  181.0920   23.0920   46.0280 H   0  0  0  0  0  0  0  0  0  0  0  0
  177.3165   19.5491   47.7533 H   0  0  0  0  0  0  0  0  0  0  0  0
  174.7446   21.2989   49.8131 H   0  0  0  0  0  0  0  0  0  0  0  0
  1  2  1  0
  2  3  2  0
  3  4  1  0
  4  5  2  0
  5  6  1  0
  6  7  1  0
  7  8  1  0
  8  9  2  0
  9 10  1  0
 10 11  2  0
 11 12  1  0
 12 13  1  0
 12 14  2  0
 14 15  1  0
 15 16  2  0
 15 17  1  0
 17 18  1  0
  5 19  1  0
 19 20  2  0
 20 21  1  0
 21 22  1  0
 21 23  1  0
 20  2  1  0
 17  6  2  0
 14  8  1  0
  1 24  1  0
  1 25  1  0
  1 26  1  0
  3 27  1  0
  4 28  1  0
  9 29  1  0
 10 30  1  0
 11 31  1  0
 13 32  1  0
 18 33  1  0
 19 34  1  0
 21 35  1  0
M  END
>  <meeko>  (6) 
{"is_sidechain": [false], "free_energy": -6.028, "intermolecular_energy": -7.275, "internal_energy": 0.135}

$$$$
cand_014_out
     RDKit          3D

 35 37  0  0  0  0  0  0  0  0999 V2000
  187.2170   24.3360   45.4080 C   0  0  0  0  0  0  0  0  0  0  0  0
  185.9060   23.6090   45.5330 C   0  0  0  0  0  0  0  0  0  0  0  0
  185.1400   23.7800   46.6950 C   0  0  0  0  0  0  0  0  0  0  0  0
  183.9230   23.1140   46.8570 C   0  0  0  0  0  0  0  0  0  0  0  0
  183.4360   22.2620   45.8610 C   0  0  0  0  0  0  0  0  0  0  0  0
  182.1550   21.5530   46.0590 C   0  0  0  0  0  0  0  0  0  0  0  0
  181.2400   22.2860   46.8040 O   0  0  0  0  0  0  0  0  0  0  0  0
  180.0090   21.7400   47.0640 C   0  0  0  0  0  0  0  0  0  0  0  0
  179.1260   22.5010   47.8300 C   0  0  0  0  0  0  0  0  0  0  0  0
  177.8550   22.0050   48.1280 C   0  0  0  0  0  0  0  0  0  0  0  0
  177.4670   20.7480   47.6600 C   0  0  0  0  0  0  0  0  0  0  0  0
  178.3490   19.9900   46.8960 C   0  0  0  0  0  0  0  0  0  0  0  0
  177.9040   18.7690   46.4690 O   0  0  0  0  0  0  0  0  0  0  0  0
  179.6200   20.4870   46.5980 C   0  0  0  0  0  0  0  0  0  0  0  0
  180.5780   19.7220   45.7980 C   0  0  0  0  0  0  0  0  0  0  0  0
  180.3090   18.6130   45.3420 O   0  0  0  0  0  0  0  0  0  0  0  0
  181.9040   20.3340   45.5450 C   0  0  0  0  0  0  0  0  0  0  0  0
  182.7970   19.6110   44.7770 O   0  0  0  0  0  0  0  0  0  0  0  0
  184.2120   22.0730   44.7080 C   0  0  0  0  0  0  0  0  0  0  0  0
  185.4460   22.7290   44.5300 C   0  0  0  0  0  0  0  0  0  0  0  0
  186.2190   22.5010   43.2510 C   0  0  0  0  0  0  0  0  0  0  0  0
  185.5590   22.9240   42.1350 F   0  0  0  0  0  0  0  0  0  0  0  0
  186.5060   21.1890   43.0240 F   0  0  0  0  0  0  0  0  0  0  0  0
  187.6119   24.5550   46.4110 H   0  0  0  0  0  0  0  0  0  0  0  0
  187.9344   23.7069   44.8608 H   0  0  0  0  0  0  0  0  0  0  0  0
  187.0633   25.2778   44.8608 H   0  0  0  0  0  0  0  0  0  0  0  0
  185.5026   24.4480   47.4901 H   0  0  0  0  0  0  0  0  0  0  0  0
  183.3410   23.2615   47.7787 H   0  0  0  0  0  0  0  0  0  0  0  0
  179.4307   23.4914   48.1992 H   0  0  0  0  0  0  0  0  0  0  0  0
  177.1587   22.6053   48.7321 H   0  0  0  0  0  0  0  0  0  0  0  0
  176.4658   20.3576   47.8949 H   0  0  0  0  0  0  0  0  0  0  0  0
  177.0680   18.4510   46.7500 H   0  0  0  0  0  0  0  0  0  0  0  0
  183.1690   18.8190   45.1120 H   0  0  0  0  0  0  0  0  0  0  0  0
  183.8476   21.3949   43.9223 H   0  0  0  0  0  0  0  0  0  0  0  0
  187.1353   23.0876   43.4132 H   0  0  0  0  0  0  0  0  0  0  0  0
  1  2  1  0
  2  3  2  0
  3  4  1  0
  4  5  2  0
  5  6  1  0
  6  7  1  0
  7  8  1  0
  8  9  2  0
  9 10  1  0
 10 11  2  0
 11 12  1  0
 12 13  1  0
 12 14  2  0
 14 15  1  0
 15 16  2  0
 15 17  1  0
 17 18  1  0
  5 19  1  0
 19 20  2  0
 20 21  1  0
 21 22  1  0
 21 23  1  0
 20  2  1  0
 17  6  2  0
 14  8  1  0
  1 24  1  0
  1 25  1  0
  1 26  1  0
  3 27  1  0
  4 28  1  0
  9 29  1  0
 10 30  1  0
 11 31  1  0
 13 32  1  0
 18 33  1  0
 19 34  1  0
 21 35  1  0
M  END
>  <meeko>  (7) 
{"is_sidechain": [false], "free_energy": -5.852, "intermolecular_energy": -6.88, "internal_energy": -0.053}

$$$$
cand_014_out
     RDKit          3D

 35 37  0  0  0  0  0  0  0  0999 V2000
  179.4950   21.7490   48.1950 C   0  0  0  0  0  0  0  0  0  0  0  0
  179.6900   20.6030   47.2410 C   0  0  0  0  0  0  0  0  0  0  0  0
  180.9880   20.2840   46.8170 C   0  0  0  0  0  0  0  0  0  0  0  0
  181.2130   19.2340   45.9230 C   0  0  0  0  0  0  0  0  0  0  0  0
  180.1480   18.4740   45.4290 C   0  0  0  0  0  0  0  0  0  0  0  0
  180.4050   17.3800   44.4710 C   0  0  0  0  0  0  0  0  0  0  0  0
  180.7380   17.8380   43.2020 O   0  0  0  0  0  0  0  0  0  0  0  0
  180.9990   16.9220   42.2150 C   0  0  0  0  0  0  0  0  0  0  0  0
  181.3130   17.4240   40.9510 C   0  0  0  0  0  0  0  0  0  0  0  0
  181.5920   16.5460   39.9030 C   0  0  0  0  0  0  0  0  0  0  0  0
  181.5580   15.1660   40.1170 C   0  0  0  0  0  0  0  0  0  0  0  0
  181.2450   14.6680   41.3780 C   0  0  0  0  0  0  0  0  0  0  0  0
  181.2310   13.3070   41.5190 O   0  0  0  0  0  0  0  0  0  0  0  0
  180.9650   15.5470   42.4270 C   0  0  0  0  0  0  0  0  0  0  0  0
  180.6320   15.0650   43.7680 C   0  0  0  0  0  0  0  0  0  0  0  0
  180.5900   13.8660   44.0390 O   0  0  0  0  0  0  0  0  0  0  0  0
  180.3430   16.0790   44.8090 C   0  0  0  0  0  0  0  0  0  0  0  0
  180.0420   15.6140   46.0760 O   0  0  0  0  0  0  0  0  0  0  0  0
  178.8480   18.8070   45.8360 C   0  0  0  0  0  0  0  0  0  0  0  0
  178.6000   19.8670   46.7310 C   0  0  0  0  0  0  0  0  0  0  0  0
  177.1760   20.1550   47.1480 C   0  0  0  0  0  0  0  0  0  0  0  0
  176.6500   19.2080   47.9760 F   0  0  0  0  0  0  0  0  0  0  0  0
  176.3130   20.2330   46.0970 F   0  0  0  0  0  0  0  0  0  0  0  0
  179.5578   21.3798   49.2293 H   0  0  0  0  0  0  0  0  0  0  0  0
  180.2777   22.5034   48.0268 H   0  0  0  0  0  0  0  0  0  0  0  0
  178.5068   22.2021   48.0268 H   0  0  0  0  0  0  0  0  0  0  0  0
  181.8406   20.8683   47.1933 H   0  0  0  0  0  0  0  0  0  0  0  0
  182.2399   19.0024   45.6040 H   0  0  0  0  0  0  0  0  0  0  0  0
  181.3405   18.5105   40.7812 H   0  0  0  0  0  0  0  0  0  0  0  0
  181.8391   16.9412   38.9066 H   0  0  0  0  0  0  0  0  0  0  0  0
  181.7782   14.4745   39.2904 H   0  0  0  0  0  0  0  0  0  0  0  0
  181.5730   12.9130   42.2980 H   0  0  0  0  0  0  0  0  0  0  0  0
  180.0260   14.6930   46.2470 H   0  0  0  0  0  0  0  0  0  0  0  0
  177.9994   18.2255   45.4464 H   0  0  0  0  0  0  0  0  0  0  0  0
  177.2663   21.1230   47.6627 H   0  0  0  0  0  0  0  0  0  0  0  0
  1  2  1  0
  2  3  2  0
  3  4  1  0
  4  5  2  0
  5  6  1  0
  6  7  1  0
  7  8  1  0
  8  9  2  0
  9 10  1  0
 10 11  2  0
 11 12  1  0
 12 13  1  0
 12 14  2  0
 14 15  1  0
 15 16  2  0
 15 17  1  0
 17 18  1  0
  5 19  1  0
 19 20  2  0
 20 21  1  0
 21 22  1  0
 21 23  1  0
 20  2  1  0
 17  6  2  0
 14  8  1  0
  1 24  1  0
  1 25  1  0
  1 26  1  0
  3 27  1  0
  4 28  1  0
  9 29  1  0
 10 30  1  0
 11 31  1  0
 13 32  1  0
 18 33  1  0
 19 34  1  0
 21 35  1  0
M  END
>  <meeko>  (8) 
{"is_sidechain": [false], "free_energy": -5.805, "intermolecular_energy": -6.356, "internal_energy": -0.522}

$$$$
