cand_016_out
     RDKit          3D

 35 37  0  0  0  0  0  0  0  0999 V2000
  179.6060   14.3860   44.9890 C   0  0  0  0  0  0  0  0  0  0  0  0
  180.1450   15.7640   44.7160 C   0  0  0  0  0  0  0  0  0  0  0  0
  179.7030   16.8370   45.5120 C   0  0  0  0  0  0  0  0  0  0  0  0
  180.1750   18.1430   45.3140 C   0  0  0  0  0  0  0  0  0  0  0  0
  179.7280   19.2680   46.1620 C   0  0  0  0  0  0  0  0  0  0  0  0
  178.3440   19.3710   46.2380 O   0  0  0  0  0  0  0  0  0  0  0  0
  177.7940   20.3740   46.9940 C   0  0  0  0  0  0  0  0  0  0  0  0
  176.4010   20.4510   47.0290 C   0  0  0  0  0  0  0  0  0  0  0  0
  175.7770   21.4490   47.7810 C   0  0  0  0  0  0  0  0  0  0  0  0
  176.5450   22.3690   48.4970 C   0  0  0  0  0  0  0  0  0  0  0  0
  177.9340   22.2910   48.4600 C   0  0  0  0  0  0  0  0  0  0  0  0
  178.6250   23.2230   49.1850 O   0  0  0  0  0  0  0  0  0  0  0  0
  178.5590   21.2930   47.7070 C   0  0  0  0  0  0  0  0  0  0  0  0
  180.0160   21.1760   47.6410 C   0  0  0  0  0  0  0  0  0  0  0  0
  180.7600   21.9430   48.2490 O   0  0  0  0  0  0  0  0  0  0  0  0
  180.5790   20.0880   46.8070 C   0  0  0  0  0  0  0  0  0  0  0  0
  181.9550   19.9770   46.7620 O   0  0  0  0  0  0  0  0  0  0  0  0
  181.1250   18.3610   44.3110 C   0  0  0  0  0  0  0  0  0  0  0  0
  181.5820   17.3060   43.5180 C   0  0  0  0  0  0  0  0  0  0  0  0
  181.1070   15.9980   43.7120 C   0  0  0  0  0  0  0  0  0  0  0  0
  181.6160   14.8860   42.8220 C   0  0  0  0  0  0  0  0  0  0  0  0
  180.9270   14.7720   41.6490 F   0  0  0  0  0  0  0  0  0  0  0  0
  182.9200   15.0430   42.4620 F   0  0  0  0  0  0  0  0  0  0  0  0
  179.5432   14.2254   46.0754 H   0  0  0  0  0  0  0  0  0  0  0  0
  178.6039   14.2897   44.5456 H   0  0  0  0  0  0  0  0  0  0  0  0
  180.2768   13.6354   44.5456 H   0  0  0  0  0  0  0  0  0  0  0  0
  178.9693   16.6469   46.3092 H   0  0  0  0  0  0  0  0  0  0  0  0
  175.7951   19.7265   46.4650 H   0  0  0  0  0  0  0  0  0  0  0  0
  174.6791   21.5101   47.8091 H   0  0  0  0  0  0  0  0  0  0  0  0
  176.0530   23.1544   49.0895 H   0  0  0  0  0  0  0  0  0  0  0  0
  179.1310   22.9590   49.9280 H   0  0  0  0  0  0  0  0  0  0  0  0
  182.4910   20.7390   46.8700 H   0  0  0  0  0  0  0  0  0  0  0  0
  181.5169   19.3753   44.1447 H   0  0  0  0  0  0  0  0  0  0  0  0
  182.3244   17.5019   42.7303 H   0  0  0  0  0  0  0  0  0  0  0  0
  181.4803   13.9908   43.4466 H   0  0  0  0  0  0  0  0  0  0  0  0
  1  2  1  0
  2  3  2  0
  3  4  1  0
  4  5  1  0
  5  6  1  0
  6  7  1  0
  7  8  2  0
  8  9  1  0
  9 10  2  0
 10 11  1  0
 11 12  1  0
 11 13  2  0
 13 14  1  0
 14 15  2  0
 14 16  1  0
 16 17  1  0
  4 18  2  0
 18 19  1  0
 19 20  2  0
 20 21  1  0
 21 22  1  0
 21 23  1  0
 20  2  1  0
 16  5  2  0
 13  7  1  0
  1 24  1  0
  1 25  1  0
  1 26  1  0
  3 27  1  0
  8 28  1  0
  9 29  1  0
 10 30  1  0
 12 31  1  0
 17 32  1  0
 18 33  1  0
 19 34  1  0
 21 35  1  0
M  END
>  <meeko>  (1) 
{"is_sidechain": [false], "free_energy": -8.767, "intermolecular_energy": -10.304, "internal_energy": -0.253}

$$$$
cand_016_out
     RDKit          3D

 35 37  0  0  0  0  0  0  0  0999 V2000
  175.3000   20.9220   46.9010 C   0  0  0  0  0  0  0  0  0  0  0  0
  176.7750   20.7870   47.1670 C   0  0  0  0  0  0  0  0  0  0  0  0
  177.5200   19.8600   46.4140 C   0  0  0  0  0  0  0  0  0  0  0  0
  178.8990   19.6940   46.6080 C   0  0  0  0  0  0  0  0  0  0  0  0
  179.6870   18.7360   45.8040 C   0  0  0  0  0  0  0  0  0  0  0  0
  179.1490   17.4540   45.8090 O   0  0  0  0  0  0  0  0  0  0  0  0
  179.7830   16.4660   45.1010 C   0  0  0  0  0  0  0  0  0  0  0  0
  179.2180   15.1910   45.1470 C   0  0  0  0  0  0  0  0  0  0  0  0
  179.8140   14.1390   44.4470 C   0  0  0  0  0  0  0  0  0  0  0  0
  180.9730   14.3620   43.7030 C   0  0  0  0  0  0  0  0  0  0  0  0
  181.5360   15.6350   43.6580 C   0  0  0  0  0  0  0  0  0  0  0  0
  182.6700   15.7830   42.9090 O   0  0  0  0  0  0  0  0  0  0  0  0
  180.9390   16.6870   44.3590 C   0  0  0  0  0  0  0  0  0  0  0  0
  181.4980   18.0400   44.3400 C   0  0  0  0  0  0  0  0  0  0  0  0
  182.5120   18.3170   43.7010 O   0  0  0  0  0  0  0  0  0  0  0  0
  180.7960   19.0820   45.1230 C   0  0  0  0  0  0  0  0  0  0  0  0
  181.3230   20.3590   45.0870 O   0  0  0  0  0  0  0  0  0  0  0  0
  179.5370   20.4940   47.5610 C   0  0  0  0  0  0  0  0  0  0  0  0
  178.8150   21.4260   48.3110 C   0  0  0  0  0  0  0  0  0  0  0  0
  177.4330   21.5900   48.1210 C   0  0  0  0  0  0  0  0  0  0  0  0
  176.6850   22.5990   48.9640 C   0  0  0  0  0  0  0  0  0  0  0  0
  176.2880   23.7020   48.2650 F   0  0  0  0  0  0  0  0  0  0  0  0
  175.5490   22.0950   49.5200 F   0  0  0  0  0  0  0  0  0  0  0  0
  174.7581   20.9716   47.8570 H   0  0  0  0  0  0  0  0  0  0  0  0
  175.1137   21.8409   46.3258 H   0  0  0  0  0  0  0  0  0  0  0  0
  174.9500   20.0521   46.3258 H   0  0  0  0  0  0  0  0  0  0  0  0
  177.0079   19.2507   45.6547 H   0  0  0  0  0  0  0  0  0  0  0  0
  178.3044   15.0144   45.7337 H   0  0  0  0  0  0  0  0  0  0  0  0
  179.3689   13.1337   44.4825 H   0  0  0  0  0  0  0  0  0  0  0  0
  181.4417   13.5330   43.1524 H   0  0  0  0  0  0  0  0  0  0  0  0
  183.5100   15.7930   43.3260 H   0  0  0  0  0  0  0  0  0  0  0  0
  181.0430   20.9640   44.4270 H   0  0  0  0  0  0  0  0  0  0  0  0
  180.6200   20.3884   47.7222 H   0  0  0  0  0  0  0  0  0  0  0  0
  179.3361   22.0397   49.0605 H   0  0  0  0  0  0  0  0  0  0  0  0
  177.4216   22.8665   49.7359 H   0  0  0  0  0  0  0  0  0  0  0  0
  1  2  1  0
  2  3  2  0
  3  4  1  0
  4  5  1  0
  5  6  1  0
  6  7  1  0
  7  8  2  0
  8  9  1  0
  9 10  2  0
 10 11  1  0
 11 12  1  0
 11 13  2  0
 13 14  1  0
 14 15  2  0
 14 16  1  0
 16 17  1  0
  4 18  2  0
 18 19  1  0
 19 20  2  0
 20 21  1  0
 21 22  1  0
 21 23  1  0
 20  2  1  0
 16  5  2  0
 13  7  1  0
  1 24  1  0
  1 25  1  0
  1 26  1  0
  3 27  1  0
  8 28  1  0
  9 29  1  0
 10 30  1  0
 12 31  1  0
 17 32  1  0
 18 33  1  0
 19 34  1  0
 21 35  1  0
M  END
>  <meeko>  (2) 
{"is_sidechain": [false], "free_energy": -7.344, "intermolecular_energy": -8.854, "internal_energy": -0.03}

$$$$
cand_016_out
     RDKit          3D

 35 37  0  0  0  0  0  0  0  0999 V2000
  179.6710   14.8400   45.1820 C   0  0  0  0  0  0  0  0  0  0  0  0
  179.9060   16.3190   45.0320 C   0  0  0  0  0  0  0  0  0  0  0  0
  179.0700   17.2140   45.7250 C   0  0  0  0  0  0  0  0  0  0  0  0
  179.2440   18.6030   45.6340 C   0  0  0  0  0  0  0  0  0  0  0  0
  178.3810   19.5450   46.3780 C   0  0  0  0  0  0  0  0  0  0  0  0
  179.0470   20.7040   46.7570 O   0  0  0  0  0  0  0  0  0  0  0  0
  178.3610   21.6650   47.4550 C   0  0  0  0  0  0  0  0  0  0  0  0
  179.0720   22.8060   47.8290 C   0  0  0  0  0  0  0  0  0  0  0  0
  178.4330   23.8230   48.5420 C   0  0  0  0  0  0  0  0  0  0  0  0
  177.0840   23.7000   48.8780 C   0  0  0  0  0  0  0  0  0  0  0  0
  176.3760   22.5610   48.5030 C   0  0  0  0  0  0  0  0  0  0  0  0
  175.0580   22.5060   48.8640 O   0  0  0  0  0  0  0  0  0  0  0  0
  177.0160   21.5430   47.7910 C   0  0  0  0  0  0  0  0  0  0  0  0
  176.3090   20.3300   47.3790 C   0  0  0  0  0  0  0  0  0  0  0  0
  175.1190   20.1510   47.6310 O   0  0  0  0  0  0  0  0  0  0  0  0
  177.0810   19.3070   46.6360 C   0  0  0  0  0  0  0  0  0  0  0  0
  176.4010   18.1710   46.2390 O   0  0  0  0  0  0  0  0  0  0  0  0
  180.2920   19.0910   44.8480 C   0  0  0  0  0  0  0  0  0  0  0  0
  181.1370   18.2170   44.1600 C   0  0  0  0  0  0  0  0  0  0  0  0
  180.9620   16.8260   44.2460 C   0  0  0  0  0  0  0  0  0  0  0  0
  181.8880   15.9140   43.4740 C   0  0  0  0  0  0  0  0  0  0  0  0
  182.2810   14.8140   44.1800 F   0  0  0  0  0  0  0  0  0  0  0  0
  181.3310   15.4290   42.3300 F   0  0  0  0  0  0  0  0  0  0  0  0
  179.6300   14.5818   46.2505 H   0  0  0  0  0  0  0  0  0  0  0  0
  178.7186   14.5696   44.7026 H   0  0  0  0  0  0  0  0  0  0  0  0
  180.4927   14.2877   44.7026 H   0  0  0  0  0  0  0  0  0  0  0  0
  178.2603   16.8147   46.3534 H   0  0  0  0  0  0  0  0  0  0  0  0
  180.1347   22.9044   47.5626 H   0  0  0  0  0  0  0  0  0  0  0  0
  178.9935   24.7217   48.8390 H   0  0  0  0  0  0  0  0  0  0  0  0
  176.5807   24.5017   49.4383 H   0  0  0  0  0  0  0  0  0  0  0  0
  174.7630   22.9560   49.6320 H   0  0  0  0  0  0  0  0  0  0  0  0
  175.9880   17.6240   46.8780 H   0  0  0  0  0  0  0  0  0  0  0  0
  180.4532   20.1764   44.7704 H   0  0  0  0  0  0  0  0  0  0  0  0
  181.9510   18.6239   43.5421 H   0  0  0  0  0  0  0  0  0  0  0  0
  182.7455   16.5671   43.2545 H   0  0  0  0  0  0  0  0  0  0  0  0
  1  2  1  0
  2  3  2  0
  3  4  1  0
  4  5  1  0
  5  6  1  0
  6  7  1  0
  7  8  2  0
  8  9  1  0
  9 10  2  0
 10 11  1  0
 11 12  1  0
 11 13  2  0
 13 14  1  0
 14 15  2  0
 14 16  1  0
 16 17  1  0
  4 18  2  0
 18 19  1  0
 19 20  2  0
 20 21  1  0
 21 22  1  0
 21 23  1  0
 20  2  1  0
 16  5  2  0
 13  7  1  0
  1 24  1  0
  1 25  1  0
  1 26  1  0
  3 27  1  0
  8 28  1  0
  9 29  1  0
 10 30  1  0
 12 31  1  0
 17 32  1  0
 18 33  1  0
 19 34  1  0
 21 35  1  0
M  END
>  <meeko>  (3) 
{"is_sidechain": [false], "free_energy": -6.75, "intermolecular_energy": -8.396, "internal_energy": 0.209}

$$$$
cand_016_out
     RDKit          3D

 35 37  0  0  0  0  0  0  0  0999 V2000
  182.4230   18.2140   43.7760 C   0  0  0  0  0  0  0  0  0  0  0  0
  181.1830   18.0190   44.6060 C   0  0  0  0  0  0  0  0  0  0  0  0
  180.6670   19.1130   45.3250 C   0  0  0  0  0  0  0  0  0  0  0  0
  179.5100   18.9990   46.1080 C   0  0  0  0  0  0  0  0  0  0  0  0
  178.9540   20.1520   46.8480 C   0  0  0  0  0  0  0  0  0  0  0  0
  177.5760   20.0750   47.0150 O   0  0  0  0  0  0  0  0  0  0  0  0
  176.9320   21.0820   47.6850 C   0  0  0  0  0  0  0  0  0  0  0  0
  175.5470   20.9720   47.8160 C   0  0  0  0  0  0  0  0  0  0  0  0
  174.8290   21.9640   48.4890 C   0  0  0  0  0  0  0  0  0  0  0  0
  175.4960   23.0640   49.0310 C   0  0  0  0  0  0  0  0  0  0  0  0
  176.8780   23.1710   48.9000 C   0  0  0  0  0  0  0  0  0  0  0  0
  177.4670   24.2730   49.4550 O   0  0  0  0  0  0  0  0  0  0  0  0
  177.5960   22.1790   48.2260 C   0  0  0  0  0  0  0  0  0  0  0  0
  179.0490   22.2540   48.0650 C   0  0  0  0  0  0  0  0  0  0  0  0
  179.7080   23.1870   48.5200 O   0  0  0  0  0  0  0  0  0  0  0  0
  179.7140   21.1560   47.3260 C   0  0  0  0  0  0  0  0  0  0  0  0
  181.0870   21.2280   47.1920 O   0  0  0  0  0  0  0  0  0  0  0  0
  178.8530   17.7650   46.1470 C   0  0  0  0  0  0  0  0  0  0  0  0
  179.3460   16.6710   45.4320 C   0  0  0  0  0  0  0  0  0  0  0  0
  180.5070   16.7820   44.6500 C   0  0  0  0  0  0  0  0  0  0  0  0
  181.0160   15.5690   43.9040 C   0  0  0  0  0  0  0  0  0  0  0  0
  180.9450   14.4160   44.6300 F   0  0  0  0  0  0  0  0  0  0  0  0
  180.3260   15.3180   42.7570 F   0  0  0  0  0  0  0  0  0  0  0  0
  183.2902   18.3504   44.4388 H   0  0  0  0  0  0  0  0  0  0  0  0
  182.5821   17.3298   43.1412 H   0  0  0  0  0  0  0  0  0  0  0  0
  182.3031   19.1043   43.1412 H   0  0  0  0  0  0  0  0  0  0  0  0
  181.1847   20.0821   45.2712 H   0  0  0  0  0  0  0  0  0  0  0  0
  175.0209   20.1051   47.3898 H   0  0  0  0  0  0  0  0  0  0  0  0
  173.7372   21.8780   48.5918 H   0  0  0  0  0  0  0  0  0  0  0  0
  174.9307   23.8449   49.5607 H   0  0  0  0  0  0  0  0  0  0  0  0
  178.2320   24.6460   49.0610 H   0  0  0  0  0  0  0  0  0  0  0  0
  181.5950   21.7000   47.8230 H   0  0  0  0  0  0  0  0  0  0  0  0
  177.9379   17.6547   46.7474 H   0  0  0  0  0  0  0  0  0  0  0  0
  178.8168   15.7080   45.4823 H   0  0  0  0  0  0  0  0  0  0  0  0
  182.0618   15.8345   43.6900 H   0  0  0  0  0  0  0  0  0  0  0  0
  1  2  1  0
  2  3  2  0
  3  4  1  0
  4  5  1  0
  5  6  1  0
  6  7  1  0
  7  8  2  0
  8  9  1  0
  9 10  2  0
 10 11  1  0
 11 12  1  0
 11 13  2  0
 13 14  1  0
 14 15  2  0
 14 16  1  0
 16 17  1  0
  4 18  2  0
 18 19  1  0
 19 20  2  0
 20 21  1  0
 21 22  1  0
 21 23  1  0
 20  2  1  0
 16  5  2  0
 13  7  1  0
  1 24  1  0
  1 25  1  0
  1 26  1  0
  3 27  1  0
  8 28  1  0
  9 29  1  0
 10 30  1  0
 12 31  1  0
 17 32  1  0
 18 33  1  0
 19 34  1  0
 21 35  1  0
M  END
>  <meeko>  (4) 
{"is_sidechain": [false], "free_energy": -6.087, "intermolecular_energy": -7.363, "internal_energy": -0.044}

$$$$
