cand_029_out
     RDKit          3D

 50 53  0  0  0  0  0  0  0  0999 V2000
  183.0060   20.6410   44.9540 C   0  0  0  0  0  0  0  0  0  0  0  0
  182.4440   19.2900   44.5380 C   0  0  0  0  0  0  0  0  0  0  0  0
  181.0690   19.0450   45.1180 C   0  0  0  0  0  0  0  0  0  0  0  0
  180.4820   20.0450   45.9170 C   0  0  0  0  0  0  0  0  0  0  0  0
  179.2200   19.8720   46.5040 C   0  0  0  0  0  0  0  0  0  0  0  0
  178.6280   20.9590   47.3110 C   0  0  0  0  0  0  0  0  0  0  0  0
  177.2380   20.9200   47.3360 O   0  0  0  0  0  0  0  0  0  0  0  0
  176.5580   21.8740   48.0490 C   0  0  0  0  0  0  0  0  0  0  0  0
  175.1660   21.7880   48.0550 C   0  0  0  0  0  0  0  0  0  0  0  0
  174.4140   22.7300   48.7600 C   0  0  0  0  0  0  0  0  0  0  0  0
  175.0530   23.7570   49.4570 C   0  0  0  0  0  0  0  0  0  0  0  0
  176.4430   23.8410   49.4480 C   0  0  0  0  0  0  0  0  0  0  0  0
  177.0040   24.8720   50.1510 O   0  0  0  0  0  0  0  0  0  0  0  0
  177.1950   22.8980   48.7430 C   0  0  0  0  0  0  0  0  0  0  0  0
  178.6580   22.9490   48.7080 C   0  0  0  0  0  0  0  0  0  0  0  0
  179.2930   23.8260   49.2910 O   0  0  0  0  0  0  0  0  0  0  0  0
  179.3620   21.8990   47.9370 C   0  0  0  0  0  0  0  0  0  0  0  0
  180.7430   21.9650   47.9000 O   0  0  0  0  0  0  0  0  0  0  0  0
  178.5380   18.6760   46.2630 C   0  0  0  0  0  0  0  0  0  0  0  0
  179.1120   17.6710   45.4790 C   0  0  0  0  0  0  0  0  0  0  0  0
  180.3820   17.8330   44.9040 C   0  0  0  0  0  0  0  0  0  0  0  0
  180.9760   16.8290   44.1080 N   0  0  0  0  0  0  0  0  0  0  0  0
  180.5940   15.4650   44.5060 C   0  0  0  0  0  0  0  0  0  0  0  0
  181.4740   14.4650   43.7540 C   0  0  0  0  0  0  0  0  0  0  0  0
  181.3790   14.6750   42.2440 C   0  0  0  0  0  0  0  0  0  0  0  0
  181.6780   16.1280   41.8750 C   0  0  0  0  0  0  0  0  0  0  0  0
  180.8020   17.0960   42.6720 C   0  0  0  0  0  0  0  0  0  0  0  0
  183.0325   20.7048   46.0518 H   0  0  0  0  0  0  0  0  0  0  0  0
  184.0252   20.7526   44.5555 H   0  0  0  0  0  0  0  0  0  0  0  0
  182.3667   21.4425   44.5555 H   0  0  0  0  0  0  0  0  0  0  0  0
  182.3777   19.2557   43.4405 H   0  0  0  0  0  0  0  0  0  0  0  0
  183.1180   18.5094   44.9207 H   0  0  0  0  0  0  0  0  0  0  0  0
  181.0270   20.9856   46.0850 H   0  0  0  0  0  0  0  0  0  0  0  0
  174.6615   20.9797   47.5054 H   0  0  0  0  0  0  0  0  0  0  0  0
  173.3161   22.6627   48.7662 H   0  0  0  0  0  0  0  0  0  0  0  0
  174.4597   24.4984   50.0122 H   0  0  0  0  0  0  0  0  0  0  0  0
  177.0270   25.7330   49.7820 H   0  0  0  0  0  0  0  0  0  0  0  0
  181.2450   21.7020   48.6460 H   0  0  0  0  0  0  0  0  0  0  0  0
  177.5380   18.5238   46.6953 H   0  0  0  0  0  0  0  0  0  0  0  0
  178.5580   16.7359   45.3096 H   0  0  0  0  0  0  0  0  0  0  0  0
  180.7385   15.3423   45.5895 H   0  0  0  0  0  0  0  0  0  0  0  0
  179.5361   15.2879   44.2620 H   0  0  0  0  0  0  0  0  0  0  0  0
  182.5192   14.5977   44.0700 H   0  0  0  0  0  0  0  0  0  0  0  0
  181.1253   13.4483   43.9878 H   0  0  0  0  0  0  0  0  0  0  0  0
  182.1062   14.0193   41.7428 H   0  0  0  0  0  0  0  0  0  0  0  0
  180.3561   14.4335   41.9195 H   0  0  0  0  0  0  0  0  0  0  0  0
  182.7354   16.3419   42.0900 H   0  0  0  0  0  0  0  0  0  0  0  0
  181.4625   16.2656   40.8051 H   0  0  0  0  0  0  0  0  0  0  0  0
  181.1008   18.1312   42.4506 H   0  0  0  0  0  0  0  0  0  0  0  0
  179.7469   16.9571   42.3937 H   0  0  0  0  0  0  0  0  0  0  0  0
  1  2  1  0
  2  3  1  0
  3  4  2  0
  4  5  1  0
  5  6  1  0
  6  7  1  0
  7  8  1  0
  8  9  2  0
  9 10  1  0
 10 11  2  0
 11 12  1  0
 12 13  1  0
 12 14  2  0
 14 15  1  0
 15 16  2  0
 15 17  1  0
 17 18  1  0
  5 19  2  0
 19 20  1  0
 20 21  2  0
 21 22  1  0
 22 23  1  0
 23 24  1  0
 24 25  1  0
 25 26  1  0
 26 27  1  0
 21  3  1  0
 27 22  1  0
 17  6  2  0
 14  8  1  0
  1 28  1  0
  1 29  1  0
  1 30  1  0
  2 31  1  0
  2 32  1  0
  4 33  1  0
  9 34  1  0
 10 35  1  0
 11 36  1  0
 13 37  1  0
 18 38  1  0
 19 39  1  0
 20 40  1  0
 23 41  1  0
 23 42  1  0
 24 43  1  0
 24 44  1  0
 25 45  1  0
 25 46  1  0
 26 47  1  0
 26 48  1  0
 27 49  1  0
 27 50  1  0
M  END
>  <meeko>  (1) 
{"is_sidechain": [false], "free_energy": -6.176, "intermolecular_energy": -7.62, "internal_energy": -0.087}

$$$$
cand_029_out
     RDKit          3D

 50 53  0  0  0  0  0  0  0  0999 V2000
  180.8900   18.1450   44.5240 C   0  0  0  0  0  0  0  0  0  0  0  0
  180.1090   18.4710   45.7880 C   0  0  0  0  0  0  0  0  0  0  0  0
  180.4090   19.8630   46.2970 C   0  0  0  0  0  0  0  0  0  0  0  0
  181.6710   20.4270   46.0260 C   0  0  0  0  0  0  0  0  0  0  0  0
  182.0210   21.7040   46.4900 C   0  0  0  0  0  0  0  0  0  0  0  0
  183.3460   22.2690   46.1580 C   0  0  0  0  0  0  0  0  0  0  0  0
  183.6950   23.3420   46.9700 O   0  0  0  0  0  0  0  0  0  0  0  0
  184.9000   23.9640   46.7690 C   0  0  0  0  0  0  0  0  0  0  0  0
  185.2140   25.0280   47.6150 C   0  0  0  0  0  0  0  0  0  0  0  0
  186.4250   25.7060   47.4630 C   0  0  0  0  0  0  0  0  0  0  0  0
  187.3220   25.3200   46.4640 C   0  0  0  0  0  0  0  0  0  0  0  0
  187.0060   24.2570   45.6210 C   0  0  0  0  0  0  0  0  0  0  0  0
  187.9300   23.9330   44.6650 O   0  0  0  0  0  0  0  0  0  0  0  0
  185.7950   23.5800   45.7750 C   0  0  0  0  0  0  0  0  0  0  0  0
  185.4230   22.4580   44.9090 C   0  0  0  0  0  0  0  0  0  0  0  0
  186.1570   22.0640   44.0050 O   0  0  0  0  0  0  0  0  0  0  0  0
  184.1190   21.8030   45.1590 C   0  0  0  0  0  0  0  0  0  0  0  0
  183.7740   20.7540   44.3270 O   0  0  0  0  0  0  0  0  0  0  0  0
  181.0740   22.4230   47.2230 C   0  0  0  0  0  0  0  0  0  0  0  0
  179.8210   21.8720   47.5070 C   0  0  0  0  0  0  0  0  0  0  0  0
  179.4720   20.5890   47.0590 C   0  0  0  0  0  0  0  0  0  0  0  0
  178.2100   20.0190   47.3350 N   0  0  0  0  0  0  0  0  0  0  0  0
  177.4880   20.6950   48.4240 C   0  0  0  0  0  0  0  0  0  0  0  0
  176.2660   19.8560   48.8030 C   0  0  0  0  0  0  0  0  0  0  0  0
  175.3750   19.6020   47.5890 C   0  0  0  0  0  0  0  0  0  0  0  0
  176.1790   18.9960   46.4400 C   0  0  0  0  0  0  0  0  0  0  0  0
  177.4090   19.8450   46.1130 C   0  0  0  0  0  0  0  0  0  0  0  0
  181.8735   17.7345   44.7963 H   0  0  0  0  0  0  0  0  0  0  0  0
  180.3347   17.4036   43.9308 H   0  0  0  0  0  0  0  0  0  0  0  0
  181.0266   19.0612   43.9308 H   0  0  0  0  0  0  0  0  0  0  0  0
  179.0334   18.3970   45.5697 H   0  0  0  0  0  0  0  0  0  0  0  0
  180.4078   17.7533   46.5662 H   0  0  0  0  0  0  0  0  0  0  0  0
  182.4000   19.8521   45.4361 H   0  0  0  0  0  0  0  0  0  0  0  0
  184.5078   25.3326   48.4014 H   0  0  0  0  0  0  0  0  0  0  0  0
  186.6730   26.5446   48.1303 H   0  0  0  0  0  0  0  0  0  0  0  0
  188.2759   25.8544   46.3433 H   0  0  0  0  0  0  0  0  0  0  0  0
  187.9830   23.0550   44.3430 H   0  0  0  0  0  0  0  0  0  0  0  0
  184.4280   20.1430   44.0480 H   0  0  0  0  0  0  0  0  0  0  0  0
  181.3170   23.4344   47.5809 H   0  0  0  0  0  0  0  0  0  0  0  0
  179.0951   22.4552   48.0926 H   0  0  0  0  0  0  0  0  0  0  0  0
  178.1494   20.7995   49.2967 H   0  0  0  0  0  0  0  0  0  0  0  0
  177.1669   21.6942   48.0947 H   0  0  0  0  0  0  0  0  0  0  0  0
  176.6045   18.8910   49.2083 H   0  0  0  0  0  0  0  0  0  0  0  0
  175.6829   20.4081   49.5547 H   0  0  0  0  0  0  0  0  0  0  0  0
  174.5707   18.9069   47.8717 H   0  0  0  0  0  0  0  0  0  0  0  0
  174.9537   20.5617   47.2553 H   0  0  0  0  0  0  0  0  0  0  0  0
  176.5068   17.9857   46.7260 H   0  0  0  0  0  0  0  0  0  0  0  0
  175.5360   18.9590   45.5483 H   0  0  0  0  0  0  0  0  0  0  0  0
  178.0128   19.3390   45.3453 H   0  0  0  0  0  0  0  0  0  0  0  0
  177.0920   20.8276   45.7336 H   0  0  0  0  0  0  0  0  0  0  0  0
  1  2  1  0
  2  3  1  0
  3  4  2  0
  4  5  1  0
  5  6  1  0
  6  7  1  0
  7  8  1  0
  8  9  2  0
  9 10  1  0
 10 11  2  0
 11 12  1  0
 12 13  1  0
 12 14  2  0
 14 15  1  0
 15 16  2  0
 15 17  1  0
 17 18  1  0
  5 19  2  0
 19 20  1  0
 20 21  2  0
 21 22  1  0
 22 23  1  0
 23 24  1  0
 24 25  1  0
 25 26  1  0
 26 27  1  0
 21  3  1  0
 27 22  1  0
 17  6  2  0
 14  8  1  0
  1 28  1  0
  1 29  1  0
  1 30  1  0
  2 31  1  0
  2 32  1  0
  4 33  1  0
  9 34  1  0
 10 35  1  0
 11 36  1  0
 13 37  1  0
 18 38  1  0
 19 39  1  0
 20 40  1  0
 23 41  1  0
 23 42  1  0
 24 43  1  0
 24 44  1  0
 25 45  1  0
 25 46  1  0
 26 47  1  0
 26 48  1  0
 27 49  1  0
 27 50  1  0
M  END
>  <meeko>  (2) 
{"is_sidechain": [false], "free_energy": -5.806, "intermolecular_energy": -7.467, "internal_energy": 0.217}

$$$$
cand_029_out
     RDKit          3D

 50 53  0  0  0  0  0  0  0  0999 V2000
  175.1410   18.8890   46.8620 C   0  0  0  0  0  0  0  0  0  0  0  0
  175.7090   20.2990   46.9300 C   0  0  0  0  0  0  0  0  0  0  0  0
  177.2180   20.2980   47.0410 C   0  0  0  0  0  0  0  0  0  0  0  0
  177.9530   19.3770   46.2690 C   0  0  0  0  0  0  0  0  0  0  0  0
  179.3520   19.3080   46.3420 C   0  0  0  0  0  0  0  0  0  0  0  0
  180.0870   18.3470   45.4930 C   0  0  0  0  0  0  0  0  0  0  0  0
  179.4800   17.0970   45.4410 O   0  0  0  0  0  0  0  0  0  0  0  0
  180.0590   16.1070   44.6890 C   0  0  0  0  0  0  0  0  0  0  0  0
  179.4080   14.8730   44.6560 C   0  0  0  0  0  0  0  0  0  0  0  0
  179.9450   13.8230   43.9100 C   0  0  0  0  0  0  0  0  0  0  0  0
  181.1330   14.0050   43.1980 C   0  0  0  0  0  0  0  0  0  0  0  0
  181.7800   15.2380   43.2330 C   0  0  0  0  0  0  0  0  0  0  0  0
  182.9380   15.3470   42.5130 O   0  0  0  0  0  0  0  0  0  0  0  0
  181.2410   16.2890   43.9790 C   0  0  0  0  0  0  0  0  0  0  0  0
  181.8890   17.6000   44.0420 C   0  0  0  0  0  0  0  0  0  0  0  0
  182.9400   17.8360   43.4480 O   0  0  0  0  0  0  0  0  0  0  0  0
  181.2340   18.6500   44.8560 C   0  0  0  0  0  0  0  0  0  0  0  0
  181.8620   19.8800   44.9200 O   0  0  0  0  0  0  0  0  0  0  0  0
  180.0140   20.1940   47.1970 C   0  0  0  0  0  0  0  0  0  0  0  0
  179.2960   21.1070   47.9750 C   0  0  0  0  0  0  0  0  0  0  0  0
  177.8950   21.1690   47.9170 C   0  0  0  0  0  0  0  0  0  0  0  0
  177.1550   22.0860   48.6950 N   0  0  0  0  0  0  0  0  0  0  0  0
  177.1580   23.4520   48.1480 C   0  0  0  0  0  0  0  0  0  0  0  0
  176.5480   24.4000   49.1820 C   0  0  0  0  0  0  0  0  0  0  0  0
  175.1490   23.9430   49.5910 C   0  0  0  0  0  0  0  0  0  0  0  0
  175.1640   22.4870   50.0540 C   0  0  0  0  0  0  0  0  0  0  0  0
  175.8100   21.5770   49.0080 C   0  0  0  0  0  0  0  0  0  0  0  0
  174.9868   18.5062   47.8817 H   0  0  0  0  0  0  0  0  0  0  0  0
  174.1797   18.9063   46.3276 H   0  0  0  0  0  0  0  0  0  0  0  0
  175.8459   18.2351   46.3276 H   0  0  0  0  0  0  0  0  0  0  0  0
  175.4204   20.8424   46.0181 H   0  0  0  0  0  0  0  0  0  0  0  0
  175.3027   20.7857   47.8289 H   0  0  0  0  0  0  0  0  0  0  0  0
  177.4167   18.6953   45.5925 H   0  0  0  0  0  0  0  0  0  0  0  0
  178.4730   14.7283   45.2172 H   0  0  0  0  0  0  0  0  0  0  0  0
  179.4320   12.8504   43.8826 H   0  0  0  0  0  0  0  0  0  0  0  0
  181.5565   13.1766   42.6111 H   0  0  0  0  0  0  0  0  0  0  0  0
  183.2400   16.1890   42.2350 H   0  0  0  0  0  0  0  0  0  0  0  0
  181.4250   20.6090   45.3130 H   0  0  0  0  0  0  0  0  0  0  0  0
  181.1121   20.1725   47.2583 H   0  0  0  0  0  0  0  0  0  0  0  0
  179.8392   21.7895   48.6451 H   0  0  0  0  0  0  0  0  0  0  0  0
  178.1910   23.7598   47.9286 H   0  0  0  0  0  0  0  0  0  0  0  0
  176.5689   23.4835   47.2196 H   0  0  0  0  0  0  0  0  0  0  0  0
  177.1930   24.4228   50.0728 H   0  0  0  0  0  0  0  0  0  0  0  0
  176.4708   25.4017   48.7341 H   0  0  0  0  0  0  0  0  0  0  0  0
  174.7887   24.5786   50.4133 H   0  0  0  0  0  0  0  0  0  0  0  0
  174.4832   24.0275   48.7195 H   0  0  0  0  0  0  0  0  0  0  0  0
  175.7339   22.4153   50.9921 H   0  0  0  0  0  0  0  0  0  0  0  0
  174.1245   22.1599   50.2038 H   0  0  0  0  0  0  0  0  0  0  0  0
  175.8861   20.5542   49.4056 H   0  0  0  0  0  0  0  0  0  0  0  0
  175.1956   21.5650   48.0956 H   0  0  0  0  0  0  0  0  0  0  0  0
  1  2  1  0
  2  3  1  0
  3  4  2  0
  4  5  1  0
  5  6  1  0
  6  7  1  0
  7  8  1  0
  8  9  2  0
  9 10  1  0
 10 11  2  0
 11 12  1  0
 12 13  1  0
 12 14  2  0
 14 15  1  0
 15 16  2  0
 15 17  1  0
 17 18  1  0
  5 19  2  0
 19 20  1  0
 20 21  2  0
 21 22  1  0
 22 23  1  0
 23 24  1  0
 24 25  1  0
 25 26  1  0
 26 27  1  0
 21  3  1  0
 27 22  1  0
 17  6  2  0
 14  8  1  0
  1 28  1  0
  1 29  1  0
  1 30  1  0
  2 31  1  0
  2 32  1  0
  4 33  1  0
  9 34  1  0
 10 35  1  0
 11 36  1  0
 13 37  1  0
 18 38  1  0
 19 39  1  0
 20 40  1  0
 23 41  1  0
 23 42  1  0
 24 43  1  0
 24 44  1  0
 25 45  1  0
 25 46  1  0
 26 47  1  0
 26 48  1  0
 27 49  1  0
 27 50  1  0
M  END
>  <meeko>  (3) 
{"is_sidechain": [false], "free_energy": -5.714, "intermolecular_energy": -8.187, "internal_energy": 1.05}

$$$$
cand_029_out
     RDKit          3D

 50 53  0  0  0  0  0  0  0  0999 V2000
  180.8940   18.2140   44.4330 C   0  0  0  0  0  0  0  0  0  0  0  0
  180.3390   18.4530   45.8300 C   0  0  0  0  0  0  0  0  0  0  0  0
  180.5460   19.8800   46.2860 C   0  0  0  0  0  0  0  0  0  0  0  0
  181.7980   20.4880   46.0630 C   0  0  0  0  0  0  0  0  0  0  0  0
  182.0630   21.8000   46.4830 C   0  0  0  0  0  0  0  0  0  0  0  0
  183.3800   22.4100   46.2020 C   0  0  0  0  0  0  0  0  0  0  0  0
  183.8390   22.1380   44.9190 O   0  0  0  0  0  0  0  0  0  0  0  0
  185.0520   22.6430   44.5250 C   0  0  0  0  0  0  0  0  0  0  0  0
  185.4670   22.3550   43.2250 C   0  0  0  0  0  0  0  0  0  0  0  0
  186.6930   22.8370   42.7630 C   0  0  0  0  0  0  0  0  0  0  0  0
  187.5040   23.6050   43.6000 C   0  0  0  0  0  0  0  0  0  0  0  0
  187.0870   23.8920   44.8980 C   0  0  0  0  0  0  0  0  0  0  0  0
  187.9300   24.6490   45.6640 O   0  0  0  0  0  0  0  0  0  0  0  0
  185.8600   23.4090   45.3590 C   0  0  0  0  0  0  0  0  0  0  0  0
  185.3840   23.6860   46.7160 C   0  0  0  0  0  0  0  0  0  0  0  0
  186.0430   24.3500   47.5140 O   0  0  0  0  0  0  0  0  0  0  0  0
  184.0660   23.1340   47.1060 C   0  0  0  0  0  0  0  0  0  0  0  0
  183.6340   23.3910   48.3940 O   0  0  0  0  0  0  0  0  0  0  0  0
  181.0420   22.5080   47.1220 C   0  0  0  0  0  0  0  0  0  0  0  0
  179.7990   21.9140   47.3570 C   0  0  0  0  0  0  0  0  0  0  0  0
  179.5340   20.5960   46.9550 C   0  0  0  0  0  0  0  0  0  0  0  0
  178.2840   19.9820   47.1830 N   0  0  0  0  0  0  0  0  0  0  0  0
  177.5070   20.6180   48.2580 C   0  0  0  0  0  0  0  0  0  0  0  0
  176.3010   19.7350   48.5880 C   0  0  0  0  0  0  0  0  0  0  0  0
  175.4570   19.4700   47.3430 C   0  0  0  0  0  0  0  0  0  0  0  0
  176.3150   18.9090   46.2100 C   0  0  0  0  0  0  0  0  0  0  0  0
  177.5260   19.8010   45.9340 C   0  0  0  0  0  0  0  0  0  0  0  0
  181.9019   17.7799   44.5082 H   0  0  0  0  0  0  0  0  0  0  0  0
  180.2353   17.5198   43.8906 H   0  0  0  0  0  0  0  0  0  0  0  0
  180.9458   19.1696   43.8906 H   0  0  0  0  0  0  0  0  0  0  0  0
  179.2609   18.2344   45.8259 H   0  0  0  0  0  0  0  0  0  0  0  0
  180.8765   17.7927   46.5264 H   0  0  0  0  0  0  0  0  0  0  0  0
  182.5863   19.9200   45.5472 H   0  0  0  0  0  0  0  0  0  0  0  0
  184.8292   21.7490   42.5647 H   0  0  0  0  0  0  0  0  0  0  0  0
  187.0205   22.6111   41.7375 H   0  0  0  0  0  0  0  0  0  0  0  0
  188.4706   23.9830   43.2355 H   0  0  0  0  0  0  0  0  0  0  0  0
  188.0870   25.5460   45.4420 H   0  0  0  0  0  0  0  0  0  0  0  0
  182.7570   23.6880   48.5430 H   0  0  0  0  0  0  0  0  0  0  0  0
  181.2186   23.5449   47.4439 H   0  0  0  0  0  0  0  0  0  0  0  0
  179.0133   22.4908   47.8669 H   0  0  0  0  0  0  0  0  0  0  0  0
  178.1376   20.7308   49.1522 H   0  0  0  0  0  0  0  0  0  0  0  0
  177.1636   21.6109   47.9320 H   0  0  0  0  0  0  0  0  0  0  0  0
  176.6576   18.7757   48.9912 H   0  0  0  0  0  0  0  0  0  0  0  0
  175.6774   20.2575   49.3284 H   0  0  0  0  0  0  0  0  0  0  0  0
  174.6685   18.7441   47.5906 H   0  0  0  0  0  0  0  0  0  0  0  0
  175.0145   20.4205   47.0103 H   0  0  0  0  0  0  0  0  0  0  0  0
  176.6663   17.9050   46.4903 H   0  0  0  0  0  0  0  0  0  0  0  0
  175.7008   18.8668   45.2984 H   0  0  0  0  0  0  0  0  0  0  0  0
  178.1689   19.3262   45.1782 H   0  0  0  0  0  0  0  0  0  0  0  0
  177.1890   20.7788   45.5593 H   0  0  0  0  0  0  0  0  0  0  0  0
  1  2  1  0
  2  3  1  0
  3  4  2  0
  4  5  1  0
  5  6  1  0
  6  7  1  0
  7  8  1  0
  8  9  2  0
  9 10  1  0
 10 11  2  0
 11 12  1  0
 12 13  1  0
 12 14  2  0
 14 15  1  0
 15 16  2  0
 15 17  1  0
 17 18  1  0
  5 19  2  0
 19 20  1  0
 20 21  2  0
 21 22  1  0
 22 23  1  0
 23 24  1  0
 24 25  1  0
 25 26  1  0
 26 27  1  0
 21  3  1  0
 27 22  1  0
 17  6  2  0
 14  8  1  0
  1 28  1  0
  1 29  1  0
  1 30  1  0
  2 31  1  0
  2 32  1  0
  4 33  1  0
  9 34  1  0
 10 35  1  0
 11 36  1  0
 13 37  1  0
 18 38  1  0
 19 39  1  0
 20 40  1  0
 23 41  1  0
 23 42  1  0
 24 43  1  0
 24 44  1  0
 25 45  1  0
 25 46  1  0
 26 47  1  0
 26 48  1  0
 27 49  1  0
 27 50  1  0
M  END
>  <meeko>  (4) 
{"is_sidechain": [false], "free_energy": -5.531, "intermolecular_energy": -6.696, "internal_energy": -0.215}

$$$$
cand_029_out
     RDKit          3D

 50 53  0  0  0  0  0  0  0  0999 V2000
  178.2600   15.6480   45.5060 C   0  0  0  0  0  0  0  0  0  0  0  0
  179.7410   15.9980   45.4820 C   0  0  0  0  0  0  0  0  0  0  0  0
  179.9720   17.4680   45.2130 C   0  0  0  0  0  0  0  0  0  0  0  0
  179.3700   18.4160   46.0640 C   0  0  0  0  0  0  0  0  0  0  0  0
  179.5250   19.7940   45.8560 C   0  0  0  0  0  0  0  0  0  0  0  0
  178.8990   20.7540   46.7900 C   0  0  0  0  0  0  0  0  0  0  0  0
  177.5180   20.6180   46.8600 O   0  0  0  0  0  0  0  0  0  0  0  0
  176.8090   21.4490   47.6890 C   0  0  0  0  0  0  0  0  0  0  0  0
  175.4260   21.2690   47.7370 C   0  0  0  0  0  0  0  0  0  0  0  0
  174.6450   22.0830   48.5590 C   0  0  0  0  0  0  0  0  0  0  0  0
  175.2460   23.0780   49.3330 C   0  0  0  0  0  0  0  0  0  0  0  0
  176.6270   23.2560   49.2840 C   0  0  0  0  0  0  0  0  0  0  0  0
  177.1490   24.2480   50.0670 O   0  0  0  0  0  0  0  0  0  0  0  0
  177.4070   22.4400   48.4610 C   0  0  0  0  0  0  0  0  0  0  0  0
  178.8610   22.5940   48.3790 C   0  0  0  0  0  0  0  0  0  0  0  0
  179.4620   23.4500   49.0250 O   0  0  0  0  0  0  0  0  0  0  0  0
  179.5980   21.6750   47.4810 C   0  0  0  0  0  0  0  0  0  0  0  0
  180.9690   21.8380   47.4020 O   0  0  0  0  0  0  0  0  0  0  0  0
  180.3140   20.2160   44.7820 C   0  0  0  0  0  0  0  0  0  0  0  0
  180.9100   19.2860   43.9250 C   0  0  0  0  0  0  0  0  0  0  0  0
  180.7450   17.9070   44.1190 C   0  0  0  0  0  0  0  0  0  0  0  0
  181.3410   16.9550   43.2650 N   0  0  0  0  0  0  0  0  0  0  0  0
  181.5480   15.6450   43.9020 C   0  0  0  0  0  0  0  0  0  0  0  0
  182.4140   14.7790   42.9850 C   0  0  0  0  0  0  0  0  0  0  0  0
  181.7920   14.6540   41.5960 C   0  0  0  0  0  0  0  0  0  0  0  0
  181.4940   16.0320   41.0070 C   0  0  0  0  0  0  0  0  0  0  0  0
  180.6550   16.8780   41.9660 C   0  0  0  0  0  0  0  0  0  0  0  0
  177.9191   15.5674   46.5487 H   0  0  0  0  0  0  0  0  0  0  0  0
  177.6887   16.4359   44.9933 H   0  0  0  0  0  0  0  0  0  0  0  0
  178.1018   14.6877   44.9933 H   0  0  0  0  0  0  0  0  0  0  0  0
  180.1822   15.7418   46.4565 H   0  0  0  0  0  0  0  0  0  0  0  0
  180.2119   15.4260   44.6690 H   0  0  0  0  0  0  0  0  0  0  0  0
  178.7635   18.0665   46.9125 H   0  0  0  0  0  0  0  0  0  0  0  0
  174.9515   20.4860   47.1273 H   0  0  0  0  0  0  0  0  0  0  0  0
  173.5549   21.9406   48.5972 H   0  0  0  0  0  0  0  0  0  0  0  0
  174.6303   23.7200   49.9801 H   0  0  0  0  0  0  0  0  0  0  0  0
  176.7510   25.0960   50.0780 H   0  0  0  0  0  0  0  0  0  0  0  0
  181.4290   21.5640   46.6330 H   0  0  0  0  0  0  0  0  0  0  0  0
  180.4676   21.2914   44.6093 H   0  0  0  0  0  0  0  0  0  0  0  0
  181.5202   19.6429   43.0822 H   0  0  0  0  0  0  0  0  0  0  0  0
  182.0550   15.7805   44.8687 H   0  0  0  0  0  0  0  0  0  0  0  0
  180.5776   15.1549   44.0700 H   0  0  0  0  0  0  0  0  0  0  0  0
  183.4094   15.2380   42.8926 H   0  0  0  0  0  0  0  0  0  0  0  0
  182.4903   13.7736   43.4247 H   0  0  0  0  0  0  0  0  0  0  0  0
  182.4920   14.1230   40.9342 H   0  0  0  0  0  0  0  0  0  0  0  0
  180.8477   14.0965   41.6823 H   0  0  0  0  0  0  0  0  0  0  0  0
  182.4440   16.5502   40.8099 H   0  0  0  0  0  0  0  0  0  0  0  0
  180.9241   15.8953   40.0761 H   0  0  0  0  0  0  0  0  0  0  0  0
  180.5325   17.8903   41.5534 H   0  0  0  0  0  0  0  0  0  0  0  0
  179.6643   16.4180   42.0965 H   0  0  0  0  0  0  0  0  0  0  0  0
  1  2  1  0
  2  3  1  0
  3  4  2  0
  4  5  1  0
  5  6  1  0
  6  7  1  0
  7  8  1  0
  8  9  2  0
  9 10  1  0
 10 11  2  0
 11 12  1  0
 12 13  1  0
 12 14  2  0
 14 15  1  0
 15 16  2  0
 15 17  1  0
 17 18  1  0
  5 19  2  0
 19 20  1  0
 20 21  2  0
 21 22  1  0
 22 23  1  0
 23 24  1  0
 24 25  1  0
 25 26  1  0
 26 27  1  0
 21  3  1  0
 27 22  1  0
 17  6  2  0
 14  8  1  0
  1 28  1  0
  1 29  1  0
  1 30  1  0
  2 31  1  0
  2 32  1  0
  4 33  1  0
  9 34  1  0
 10 35  1  0
 11 36  1  0
 13 37  1  0
 18 38  1  0
 19 39  1  0
 20 40  1  0
 23 41  1  0
 23 42  1  0
 24 43  1  0
 24 44  1  0
 25 45  1  0
 25 46  1  0
 26 47  1  0
 26 48  1  0
 27 49  1  0
 27 50  1  0
M  END
>  <meeko>  (5) 
{"is_sidechain": [false], "free_energy": -5.48, "intermolecular_energy": -7.667, "internal_energy": 0.819}

$$$$
cand_029_out
     RDKit          3D

 50 53  0  0  0  0  0  0  0  0999 V2000
  178.5970   24.0680   48.0680 C   0  0  0  0  0  0  0  0  0  0  0  0
  178.2420   22.8650   47.2070 C   0  0  0  0  0  0  0  0  0  0  0  0
  179.3990   21.9000   47.0760 C   0  0  0  0  0  0  0  0  0  0  0  0
  180.6610   22.4020   46.7020 C   0  0  0  0  0  0  0  0  0  0  0  0
  181.7700   21.5580   46.5390 C   0  0  0  0  0  0  0  0  0  0  0  0
  183.0830   22.1310   46.1740 C   0  0  0  0  0  0  0  0  0  0  0  0
  183.4590   23.1880   46.9960 O   0  0  0  0  0  0  0  0  0  0  0  0
  184.6570   23.8140   46.7670 C   0  0  0  0  0  0  0  0  0  0  0  0
  184.9990   24.8600   47.6240 C   0  0  0  0  0  0  0  0  0  0  0  0
  186.2050   25.5410   47.4450 C   0  0  0  0  0  0  0  0  0  0  0  0
  187.0680   25.1760   46.4100 C   0  0  0  0  0  0  0  0  0  0  0  0
  186.7240   24.1300   45.5560 C   0  0  0  0  0  0  0  0  0  0  0  0
  187.6150   23.8250   44.5640 O   0  0  0  0  0  0  0  0  0  0  0  0
  185.5180   23.4490   45.7370 C   0  0  0  0  0  0  0  0  0  0  0  0
  185.1170   22.3450   44.8620 C   0  0  0  0  0  0  0  0  0  0  0  0
  185.8200   21.9700   43.9260 O   0  0  0  0  0  0  0  0  0  0  0  0
  183.8220   21.6850   45.1410 C   0  0  0  0  0  0  0  0  0  0  0  0
  183.4480   20.6530   44.3000 O   0  0  0  0  0  0  0  0  0  0  0  0
  181.5990   20.1910   46.7740 C   0  0  0  0  0  0  0  0  0  0  0  0
  180.3510   19.6780   47.1370 C   0  0  0  0  0  0  0  0  0  0  0  0
  179.2350   20.5160   47.2850 C   0  0  0  0  0  0  0  0  0  0  0  0
  177.9670   20.0150   47.6530 N   0  0  0  0  0  0  0  0  0  0  0  0
  177.3140   20.7980   48.7140 C   0  0  0  0  0  0  0  0  0  0  0  0
  176.0810   20.0360   49.2040 C   0  0  0  0  0  0  0  0  0  0  0  0
  175.1320   19.7240   48.0480 C   0  0  0  0  0  0  0  0  0  0  0  0
  175.8670   19.0040   46.9180 C   0  0  0  0  0  0  0  0  0  0  0  0
  177.1100   19.7790   46.4800 C   0  0  0  0  0  0  0  0  0  0  0  0
  178.5164   23.7950   49.1305 H   0  0  0  0  0  0  0  0  0  0  0  0
  179.6270   24.3852   47.8480 H   0  0  0  0  0  0  0  0  0  0  0  0
  177.9042   24.8936   47.8480 H   0  0  0  0  0  0  0  0  0  0  0  0
  177.3913   22.3392   47.6651 H   0  0  0  0  0  0  0  0  0  0  0  0
  177.9892   23.2305   46.2008 H   0  0  0  0  0  0  0  0  0  0  0  0
  180.7800   23.4825   46.5336 H   0  0  0  0  0  0  0  0  0  0  0  0
  184.3197   25.1481   48.4398 H   0  0  0  0  0  0  0  0  0  0  0  0
  186.4754   26.3661   48.1204 H   0  0  0  0  0  0  0  0  0  0  0  0
  188.0176   25.7130   46.2690 H   0  0  0  0  0  0  0  0  0  0  0  0
  188.1510   24.4980   44.1920 H   0  0  0  0  0  0  0  0  0  0  0  0
  183.1420   19.8430   44.6600 H   0  0  0  0  0  0  0  0  0  0  0  0
  182.4573   19.5106   46.6720 H   0  0  0  0  0  0  0  0  0  0  0  0
  180.2412   18.5972   47.3100 H   0  0  0  0  0  0  0  0  0  0  0  0
  178.0143   20.9438   49.5496 H   0  0  0  0  0  0  0  0  0  0  0  0
  177.0135   21.7805   48.3212 H   0  0  0  0  0  0  0  0  0  0  0  0
  176.4030   19.0926   49.6691 H   0  0  0  0  0  0  0  0  0  0  0  0
  175.5487   20.6645   49.9331 H   0  0  0  0  0  0  0  0  0  0  0  0
  174.3173   19.0820   48.4142 H   0  0  0  0  0  0  0  0  0  0  0  0
  174.7297   20.6707   47.6583 H   0  0  0  0  0  0  0  0  0  0  0  0
  176.1716   18.0064   47.2674 H   0  0  0  0  0  0  0  0  0  0  0  0
  175.1867   18.9245   46.0572 H   0  0  0  0  0  0  0  0  0  0  0  0
  177.6638   19.1944   45.7306 H   0  0  0  0  0  0  0  0  0  0  0  0
  176.8111   20.7414   46.0391 H   0  0  0  0  0  0  0  0  0  0  0  0
  1  2  1  0
  2  3  1  0
  3  4  2  0
  4  5  1  0
  5  6  1  0
  6  7  1  0
  7  8  1  0
  8  9  2  0
  9 10  1  0
 10 11  2  0
 11 12  1  0
 12 13  1  0
 12 14  2  0
 14 15  1  0
 15 16  2  0
 15 17  1  0
 17 18  1  0
  5 19  2  0
 19 20  1  0
 20 21  2  0
 21 22  1  0
 22 23  1  0
 23 24  1  0
 24 25  1  0
 25 26  1  0
 26 27  1  0
 21  3  1  0
 27 22  1  0
 17  6  2  0
 14  8  1  0
  1 28  1  0
  1 29  1  0
  1 30  1  0
  2 31  1  0
  2 32  1  0
  4 33  1  0
  9 34  1  0
 10 35  1  0
 11 36  1  0
 13 37  1  0
 18 38  1  0
 19 39  1  0
 20 40  1  0
 23 41  1  0
 23 42  1  0
 24 43  1  0
 24 44  1  0
 25 45  1  0
 25 46  1  0
 26 47  1  0
 26 48  1  0
 27 49  1  0
 27 50  1  0
M  END
>  <meeko>  (6) 
{"is_sidechain": [false], "free_energy": -5.078, "intermolecular_energy": -6.807, "internal_energy": 0.455}

$$$$
cand_029_out
     RDKit          3D

 50 53  0  0  0  0  0  0  0  0999 V2000
  175.1960   19.3680   47.7900 C   0  0  0  0  0  0  0  0  0  0  0  0
  175.9380   19.8820   49.0140 C   0  0  0  0  0  0  0  0  0  0  0  0
  176.1370   21.3810   48.9690 C   0  0  0  0  0  0  0  0  0  0  0  0
  175.1590   22.2130   49.5480 C   0  0  0  0  0  0  0  0  0  0  0  0
  175.2710   23.6110   49.5190 C   0  0  0  0  0  0  0  0  0  0  0  0
  174.2360   24.4450   50.1650 C   0  0  0  0  0  0  0  0  0  0  0  0
  174.5300   24.7420   51.4910 O   0  0  0  0  0  0  0  0  0  0  0  0
  173.6510   25.5090   52.2120 C   0  0  0  0  0  0  0  0  0  0  0  0
  173.9940   25.7930   53.5340 C   0  0  0  0  0  0  0  0  0  0  0  0
  173.1420   26.5670   54.3240 C   0  0  0  0  0  0  0  0  0  0  0  0
  171.9480   27.0580   53.7910 C   0  0  0  0  0  0  0  0  0  0  0  0
  171.6090   26.7740   52.4700 C   0  0  0  0  0  0  0  0  0  0  0  0
  170.4250   27.2860   52.0140 O   0  0  0  0  0  0  0  0  0  0  0  0
  172.4620   25.9990   51.6810 C   0  0  0  0  0  0  0  0  0  0  0  0
  172.1430   25.6770   50.2890 C   0  0  0  0  0  0  0  0  0  0  0  0
  171.1090   26.0670   49.7510 O   0  0  0  0  0  0  0  0  0  0  0  0
  173.1180   24.8540   49.5360 C   0  0  0  0  0  0  0  0  0  0  0  0
  172.8000   24.5440   48.2260 O   0  0  0  0  0  0  0  0  0  0  0  0
  176.3970   24.1710   48.9100 C   0  0  0  0  0  0  0  0  0  0  0  0
  177.3710   23.3570   48.3240 C   0  0  0  0  0  0  0  0  0  0  0  0
  177.2550   21.9590   48.3350 C   0  0  0  0  0  0  0  0  0  0  0  0
  178.2310   21.1230   47.7500 N   0  0  0  0  0  0  0  0  0  0  0  0
  178.0350   20.9190   46.3060 C   0  0  0  0  0  0  0  0  0  0  0  0
  178.9820   19.8160   45.8280 C   0  0  0  0  0  0  0  0  0  0  0  0
  180.4330   20.1480   46.1750 C   0  0  0  0  0  0  0  0  0  0  0  0
  180.5800   20.4570   47.6640 C   0  0  0  0  0  0  0  0  0  0  0  0
  179.5950   21.5400   48.1080 C   0  0  0  0  0  0  0  0  0  0  0  0
  174.3310   18.7688   48.1104 H   0  0  0  0  0  0  0  0  0  0  0  0
  174.8487   20.2200   47.1871 H   0  0  0  0  0  0  0  0  0  0  0  0
  175.8716   18.7434   47.1871 H   0  0  0  0  0  0  0  0  0  0  0  0
  175.3580   19.6277   49.9134 H   0  0  0  0  0  0  0  0  0  0  0  0
  176.9306   19.4083   49.0330 H   0  0  0  0  0  0  0  0  0  0  0  0
  174.2855   21.7550   50.0351 H   0  0  0  0  0  0  0  0  0  0  0  0
  174.9349   25.4075   53.9536 H   0  0  0  0  0  0  0  0  0  0  0  0
  173.4112   26.7903   55.3669 H   0  0  0  0  0  0  0  0  0  0  0  0
  171.2765   27.6679   54.4132 H   0  0  0  0  0  0  0  0  0  0  0  0
  169.6260   26.8160   52.1530 H   0  0  0  0  0  0  0  0  0  0  0  0
  172.3650   25.1770   47.6880 H   0  0  0  0  0  0  0  0  0  0  0  0
  176.5184   25.2641   48.8914 H   0  0  0  0  0  0  0  0  0  0  0  0
  178.2453   23.8218   47.8450 H   0  0  0  0  0  0  0  0  0  0  0  0
  176.9939   20.6209   46.1132 H   0  0  0  0  0  0  0  0  0  0  0  0
  178.2479   21.8531   45.7654 H   0  0  0  0  0  0  0  0  0  0  0  0
  178.7042   18.8688   46.3134 H   0  0  0  0  0  0  0  0  0  0  0  0
  178.8950   19.7303   44.7348 H   0  0  0  0  0  0  0  0  0  0  0  0
  181.0700   19.2879   45.9210 H   0  0  0  0  0  0  0  0  0  0  0  0
  180.7380   21.0348   45.6000 H   0  0  0  0  0  0  0  0  0  0  0  0
  180.3880   19.5402   48.2407 H   0  0  0  0  0  0  0  0  0  0  0  0
  181.6017   20.8232   47.8429 H   0  0  0  0  0  0  0  0  0  0  0  0
  179.6646   21.6776   49.1971 H   0  0  0  0  0  0  0  0  0  0  0  0
  179.8365   22.4895   47.6078 H   0  0  0  0  0  0  0  0  0  0  0  0
  1  2  1  0
  2  3  1  0
  3  4  2  0
  4  5  1  0
  5  6  1  0
  6  7  1  0
  7  8  1  0
  8  9  2  0
  9 10  1  0
 10 11  2  0
 11 12  1  0
 12 13  1  0
 12 14  2  0
 14 15  1  0
 15 16  2  0
 15 17  1  0
 17 18  1  0
  5 19  2  0
 19 20  1  0
 20 21  2  0
 21 22  1  0
 22 23  1  0
 23 24  1  0
 24 25  1  0
 25 26  1  0
 26 27  1  0
 21  3  1  0
 27 22  1  0
 17  6  2  0
 14  8  1  0
  1 28  1  0
  1 29  1  0
  1 30  1  0
  2 31  1  0
  2 32  1  0
  4 33  1  0
  9 34  1  0
 10 35  1  0
 11 36  1  0
 13 37  1  0
 18 38  1  0
 19 39  1  0
 20 40  1  0
 23 41  1  0
 23 42  1  0
 24 43  1  0
 24 44  1  0
 25 45  1  0
 25 46  1  0
 26 47  1  0
 26 48  1  0
 27 49  1  0
 27 50  1  0
M  END
>  <meeko>  (7) 
{"is_sidechain": [false], "free_energy": -5.065, "intermolecular_energy": -5.532, "internal_energy": -0.804}

$$$$
cand_029_out
     RDKit          3D

 50 53  0  0  0  0  0  0  0  0999 V2000
  183.1070   21.6950   45.8030 C   0  0  0  0  0  0  0  0  0  0  0  0
  183.7850   22.9200   45.2080 C   0  0  0  0  0  0  0  0  0  0  0  0
  184.9130   23.4250   46.0800 C   0  0  0  0  0  0  0  0  0  0  0  0
  184.5950   24.1000   47.2750 C   0  0  0  0  0  0  0  0  0  0  0  0
  185.5930   24.6130   48.1170 C   0  0  0  0  0  0  0  0  0  0  0  0
  185.2160   25.2890   49.3770 C   0  0  0  0  0  0  0  0  0  0  0  0
  185.7330   24.6590   50.5040 O   0  0  0  0  0  0  0  0  0  0  0  0
  185.4590   25.1800   51.7420 C   0  0  0  0  0  0  0  0  0  0  0  0
  186.0090   24.5230   52.8430 C   0  0  0  0  0  0  0  0  0  0  0  0
  185.7680   25.0010   54.1320 C   0  0  0  0  0  0  0  0  0  0  0  0
  184.9760   26.1360   54.3210 C   0  0  0  0  0  0  0  0  0  0  0  0
  184.4280   26.7910   53.2190 C   0  0  0  0  0  0  0  0  0  0  0  0
  183.6630   27.8950   53.4760 O   0  0  0  0  0  0  0  0  0  0  0  0
  184.6710   26.3110   51.9300 C   0  0  0  0  0  0  0  0  0  0  0  0
  184.1150   26.9690   50.7460 C   0  0  0  0  0  0  0  0  0  0  0  0
  183.4040   27.9680   50.8310 O   0  0  0  0  0  0  0  0  0  0  0  0
  184.4370   26.3850   49.4230 C   0  0  0  0  0  0  0  0  0  0  0  0
  183.8950   27.0070   48.3130 O   0  0  0  0  0  0  0  0  0  0  0  0
  186.9280   24.4270   47.7500 C   0  0  0  0  0  0  0  0  0  0  0  0
  187.2570   23.7670   46.5620 C   0  0  0  0  0  0  0  0  0  0  0  0
  186.2630   23.2660   45.7080 C   0  0  0  0  0  0  0  0  0  0  0  0
  186.5770   22.5950   44.5070 N   0  0  0  0  0  0  0  0  0  0  0  0
  186.5850   23.4780   43.3290 C   0  0  0  0  0  0  0  0  0  0  0  0
  186.6880   22.6200   42.0670 C   0  0  0  0  0  0  0  0  0  0  0  0
  187.9150   21.7110   42.1170 C   0  0  0  0  0  0  0  0  0  0  0  0
  187.9300   20.8850   43.4030 C   0  0  0  0  0  0  0  0  0  0  0  0
  187.7920   21.7750   44.6390 C   0  0  0  0  0  0  0  0  0  0  0  0
  183.1400   21.7546   46.9009 H   0  0  0  0  0  0  0  0  0  0  0  0
  182.0596   21.6572   45.4692 H   0  0  0  0  0  0  0  0  0  0  0  0
  183.6312   20.7874   45.4692 H   0  0  0  0  0  0  0  0  0  0  0  0
  184.1909   22.6562   44.2202 H   0  0  0  0  0  0  0  0  0  0  0  0
  183.0332   23.7191   45.1297 H   0  0  0  0  0  0  0  0  0  0  0  0
  183.5388   24.2279   47.5546 H   0  0  0  0  0  0  0  0  0  0  0  0
  186.6323   23.6287   52.6953 H   0  0  0  0  0  0  0  0  0  0  0  0
  186.2023   24.4833   55.0000 H   0  0  0  0  0  0  0  0  0  0  0  0
  184.7851   26.5121   55.3369 H   0  0  0  0  0  0  0  0  0  0  0  0
  183.5420   28.5460   52.8130 H   0  0  0  0  0  0  0  0  0  0  0  0
  183.2740   27.7010   48.4220 H   0  0  0  0  0  0  0  0  0  0  0  0
  187.7292   24.8039   48.4028 H   0  0  0  0  0  0  0  0  0  0  0  0
  188.3155   23.6381   46.2918 H   0  0  0  0  0  0  0  0  0  0  0  0
  185.6552   24.0651   43.3014 H   0  0  0  0  0  0  0  0  0  0  0  0
  187.4427   24.1645   43.3838 H   0  0  0  0  0  0  0  0  0  0  0  0
  185.7843   21.9989   41.9804 H   0  0  0  0  0  0  0  0  0  0  0  0
  186.7837   23.2877   41.1981 H   0  0  0  0  0  0  0  0  0  0  0  0
  187.8949   21.0311   41.2525 H   0  0  0  0  0  0  0  0  0  0  0  0
  188.8183   22.3383   42.0917 H   0  0  0  0  0  0  0  0  0  0  0  0
  187.0928   20.1718   43.3802 H   0  0  0  0  0  0  0  0  0  0  0  0
  188.8922   20.3553   43.4632 H   0  0  0  0  0  0  0  0  0  0  0  0
  187.7169   21.1469   45.5389 H   0  0  0  0  0  0  0  0  0  0  0  0
  188.6729   22.4280   44.7264 H   0  0  0  0  0  0  0  0  0  0  0  0
  1  2  1  0
  2  3  1  0
  3  4  2  0
  4  5  1  0
  5  6  1  0
  6  7  1  0
  7  8  1  0
  8  9  2  0
  9 10  1  0
 10 11  2  0
 11 12  1  0
 12 13  1  0
 12 14  2  0
 14 15  1  0
 15 16  2  0
 15 17  1  0
 17 18  1  0
  5 19  2  0
 19 20  1  0
 20 21  2  0
 21 22  1  0
 22 23  1  0
 23 24  1  0
 24 25  1  0
 25 26  1  0
 26 27  1  0
 21  3  1  0
 27 22  1  0
 17  6  2  0
 14  8  1  0
  1 28  1  0
  1 29  1  0
  1 30  1  0
  2 31  1  0
  2 32  1  0
  4 33  1  0
  9 34  1  0
 10 35  1  0
 11 36  1  0
 13 37  1  0
 18 38  1  0
 19 39  1  0
 20 40  1  0
 23 41  1  0
 23 42  1  0
 24 43  1  0
 24 44  1  0
 25 45  1  0
 25 46  1  0
 26 47  1  0
 26 48  1  0
 27 49  1  0
 27 50  1  0
M  END
>  <meeko>  (8) 
{"is_sidechain": [false], "free_energy": -4.99, "intermolecular_energy": -5.686, "internal_energy": -0.558}

$$$$
cand_029_out
     RDKit          3D

 50 53  0  0  0  0  0  0  0  0999 V2000
  183.3810   22.0100   45.3740 C   0  0  0  0  0  0  0  0  0  0  0  0
  184.5270   22.6920   44.6420 C   0  0  0  0  0  0  0  0  0  0  0  0
  185.5590   23.2490   45.5980 C   0  0  0  0  0  0  0  0  0  0  0  0
  185.1250   23.7890   46.8250 C   0  0  0  0  0  0  0  0  0  0  0  0
  186.0270   24.3430   47.7450 C   0  0  0  0  0  0  0  0  0  0  0  0
  185.5330   24.8720   49.0330 C   0  0  0  0  0  0  0  0  0  0  0  0
  184.9170   26.1120   48.9080 O   0  0  0  0  0  0  0  0  0  0  0  0
  184.4120   26.7210   50.0280 C   0  0  0  0  0  0  0  0  0  0  0  0
  183.7920   27.9580   49.8530 C   0  0  0  0  0  0  0  0  0  0  0  0
  183.2590   28.6320   50.9540 C   0  0  0  0  0  0  0  0  0  0  0  0
  183.3470   28.0690   52.2290 C   0  0  0  0  0  0  0  0  0  0  0  0
  183.9660   26.8330   52.4010 C   0  0  0  0  0  0  0  0  0  0  0  0
  184.0170   26.3400   53.6760 O   0  0  0  0  0  0  0  0  0  0  0  0
  184.4990   26.1590   51.2990 C   0  0  0  0  0  0  0  0  0  0  0  0
  185.1580   24.8590   51.4350 C   0  0  0  0  0  0  0  0  0  0  0  0
  185.2800   24.3030   52.5250 O   0  0  0  0  0  0  0  0  0  0  0  0
  185.6840   24.2250   50.2040 C   0  0  0  0  0  0  0  0  0  0  0  0
  186.3170   23.0040   50.3480 O   0  0  0  0  0  0  0  0  0  0  0  0
  187.3870   24.3350   47.4230 C   0  0  0  0  0  0  0  0  0  0  0  0
  187.8310   23.8100   46.2060 C   0  0  0  0  0  0  0  0  0  0  0  0
  186.9310   23.2700   45.2750 C   0  0  0  0  0  0  0  0  0  0  0  0
  187.3620   22.7340   44.0420 N   0  0  0  0  0  0  0  0  0  0  0  0
  186.7870   21.4120   43.7450 C   0  0  0  0  0  0  0  0  0  0  0  0
  187.5020   20.8230   42.5280 C   0  0  0  0  0  0  0  0  0  0  0  0
  187.4230   21.7700   41.3320 C   0  0  0  0  0  0  0  0  0  0  0  0
  187.9300   23.1630   41.7040 C   0  0  0  0  0  0  0  0  0  0  0  0
  187.2140   23.7020   42.9430 C   0  0  0  0  0  0  0  0  0  0  0  0
  183.5336   22.1008   46.4596 H   0  0  0  0  0  0  0  0  0  0  0  0
  182.4310   22.4898   45.0959 H   0  0  0  0  0  0  0  0  0  0  0  0
  183.3497   20.9462   45.0959 H   0  0  0  0  0  0  0  0  0  0  0  0
  185.0135   21.9585   43.9823 H   0  0  0  0  0  0  0  0  0  0  0  0
  184.1103   23.5310   44.0655 H   0  0  0  0  0  0  0  0  0  0  0  0
  184.0521   23.7757   47.0673 H   0  0  0  0  0  0  0  0  0  0  0  0
  183.7229   28.4022   48.8491 H   0  0  0  0  0  0  0  0  0  0  0  0
  182.7693   29.6074   50.8167 H   0  0  0  0  0  0  0  0  0  0  0  0
  182.9282   28.6007   53.0961 H   0  0  0  0  0  0  0  0  0  0  0  0
  184.4090   26.8480   54.3590 H   0  0  0  0  0  0  0  0  0  0  0  0
  187.1740   22.8770   49.9920 H   0  0  0  0  0  0  0  0  0  0  0  0
  188.1167   24.7468   48.1358 H   0  0  0  0  0  0  0  0  0  0  0  0
  188.9062   23.8204   45.9739 H   0  0  0  0  0  0  0  0  0  0  0  0
  186.9230   20.7472   44.6107 H   0  0  0  0  0  0  0  0  0  0  0  0
  185.7122   21.5120   43.5336 H   0  0  0  0  0  0  0  0  0  0  0  0
  188.5586   20.6508   42.7807 H   0  0  0  0  0  0  0  0  0  0  0  0
  187.0099   19.8771   42.2577 H   0  0  0  0  0  0  0  0  0  0  0  0
  188.0395   21.3691   40.5140 H   0  0  0  0  0  0  0  0  0  0  0  0
  186.3721   21.8513   41.0173 H   0  0  0  0  0  0  0  0  0  0  0  0
  189.0093   23.1086   41.9091 H   0  0  0  0  0  0  0  0  0  0  0  0
  187.7276   23.8423   40.8629 H   0  0  0  0  0  0  0  0  0  0  0  0
  187.6591   24.6641   43.2367 H   0  0  0  0  0  0  0  0  0  0  0  0
  186.1471   23.8505   42.7201 H   0  0  0  0  0  0  0  0  0  0  0  0
  1  2  1  0
  2  3  1  0
  3  4  2  0
  4  5  1  0
  5  6  1  0
  6  7  1  0
  7  8  1  0
  8  9  2  0
  9 10  1  0
 10 11  2  0
 11 12  1  0
 12 13  1  0
 12 14  2  0
 14 15  1  0
 15 16  2  0
 15 17  1  0
 17 18  1  0
  5 19  2  0
 19 20  1  0
 20 21  2  0
 21 22  1  0
 22 23  1  0
 23 24  1  0
 24 25  1  0
 25 26  1  0
 26 27  1  0
 21  3  1  0
 27 22  1  0
 17  6  2  0
 14  8  1  0
  1 28  1  0
  1 29  1  0
  1 30  1  0
  2 31  1  0
  2 32  1  0
  4 33  1  0
  9 34  1  0
 10 35  1  0
 11 36  1  0
 13 37  1  0
 18 38  1  0
 19 39  1  0
 20 40  1  0
 23 41  1  0
 23 42  1  0
 24 43  1  0
 24 44  1  0
 25 45  1  0
 25 46  1  0
 26 47  1  0
 26 48  1  0
 27 49  1  0
 27 50  1  0
M  END
>  <meeko>  (9) 
{"is_sidechain": [false], "free_energy": -4.88, "intermolecular_energy": -6.333, "internal_energy": 0.226}

$$$$
