cand_002_out
     RDKit          3D

 45 48  0  0  0  0  0  0  0  0999 V2000
  179.9970   15.5590   45.1670 C   0  0  0  0  0  0  0  0  0  0  0  0
  180.0660   17.0620   45.1890 C   0  0  0  0  0  0  0  0  0  0  0  0
  179.0610   17.7710   45.8740 C   0  0  0  0  0  0  0  0  0  0  0  0
  179.0480   19.1730   45.9260 C   0  0  0  0  0  0  0  0  0  0  0  0
  177.9600   19.8740   46.6400 C   0  0  0  0  0  0  0  0  0  0  0  0
  178.3550   21.1050   47.1500 O   0  0  0  0  0  0  0  0  0  0  0  0
  177.4410   21.8630   47.8370 C   0  0  0  0  0  0  0  0  0  0  0  0
  177.8840   23.0850   48.3440 C   0  0  0  0  0  0  0  0  0  0  0  0
  177.0040   23.9060   49.0520 C   0  0  0  0  0  0  0  0  0  0  0  0
  175.6820   23.5060   49.2520 C   0  0  0  0  0  0  0  0  0  0  0  0
  175.2420   22.2860   48.7450 C   0  0  0  0  0  0  0  0  0  0  0  0
  173.9340   21.9560   48.9780 O   0  0  0  0  0  0  0  0  0  0  0  0
  176.1230   21.4640   48.0380 C   0  0  0  0  0  0  0  0  0  0  0  0
  175.7020   20.1750   47.4890 C   0  0  0  0  0  0  0  0  0  0  0  0
  174.5530   19.7560   47.6180 O   0  0  0  0  0  0  0  0  0  0  0  0
  176.7150   19.3760   46.7610 C   0  0  0  0  0  0  0  0  0  0  0  0
  176.3020   18.1660   46.2350 O   0  0  0  0  0  0  0  0  0  0  0  0
  180.0570   19.8700   45.2550 C   0  0  0  0  0  0  0  0  0  0  0  0
  181.0540   19.1830   44.5590 C   0  0  0  0  0  0  0  0  0  0  0  0
  181.0730   17.7780   44.5120 C   0  0  0  0  0  0  0  0  0  0  0  0
  182.1810   17.0950   43.7290 C   0  0  0  0  0  0  0  0  0  0  0  0
  181.7200   16.2680   42.5480 C   0  0  0  0  0  0  0  0  0  0  0  0
  180.9290   16.8500   41.5470 C   0  0  0  0  0  0  0  0  0  0  0  0
  180.4760   16.0930   40.4660 C   0  0  0  0  0  0  0  0  0  0  0  0
  180.8020   14.7410   40.3750 C   0  0  0  0  0  0  0  0  0  0  0  0
  181.5770   14.1460   41.3680 C   0  0  0  0  0  0  0  0  0  0  0  0
  182.0300   14.9030   42.4510 C   0  0  0  0  0  0  0  0  0  0  0  0
  179.9795   15.1776   46.1986 H   0  0  0  0  0  0  0  0  0  0  0  0
  179.0833   15.2415   44.6431 H   0  0  0  0  0  0  0  0  0  0  0  0
  180.8777   15.1591   44.6431 H   0  0  0  0  0  0  0  0  0  0  0  0
  178.2634   17.2099   46.3829 H   0  0  0  0  0  0  0  0  0  0  0  0
  178.9256   23.4014   48.1861 H   0  0  0  0  0  0  0  0  0  0  0  0
  177.3531   24.8691   49.4526 H   0  0  0  0  0  0  0  0  0  0  0  0
  174.9888   24.1533   49.8092 H   0  0  0  0  0  0  0  0  0  0  0  0
  173.2800   22.6260   49.0100 H   0  0  0  0  0  0  0  0  0  0  0  0
  175.8180   17.5650   46.7660 H   0  0  0  0  0  0  0  0  0  0  0  0
  180.0658   20.9698   45.2754 H   0  0  0  0  0  0  0  0  0  0  0  0
  181.8386   19.7514   44.0382 H   0  0  0  0  0  0  0  0  0  0  0  0
  182.8624   17.8730   43.3544 H   0  0  0  0  0  0  0  0  0  0  0  0
  182.6587   16.3913   44.4266 H   0  0  0  0  0  0  0  0  0  0  0  0
  180.6627   17.9151   41.6148 H   0  0  0  0  0  0  0  0  0  0  0  0
  179.8610   16.5637   39.6849 H   0  0  0  0  0  0  0  0  0  0  0  0
  180.4481   14.1450   39.5209 H   0  0  0  0  0  0  0  0  0  0  0  0
  181.8326   13.0783   41.2991 H   0  0  0  0  0  0  0  0  0  0  0  0
  182.6353   14.4246   43.2350 H   0  0  0  0  0  0  0  0  0  0  0  0
  1  2  1  0
  2  3  2  0
  3  4  1  0
  4  5  1  0
  5  6  1  0
  6  7  1  0
  7  8  2  0
  8  9  1  0
  9 10  2  0
 10 11  1  0
 11 12  1  0
 11 13  2  0
 13 14  1  0
 14 15  2  0
 14 16  1  0
 16 17  1  0
  4 18  2  0
 18 19  1  0
 19 20  2  0
 20 21  1  0
 21 22  1  0
 22 23  2  0
 23 24  1  0
 24 25  2  0
 25 26  1  0
 26 27  2  0
 20  2  1  0
 27 22  1  0
 16  5  2  0
 13  7  1  0
  1 28  1  0
  1 29  1  0
  1 30  1  0
  3 31  1  0
  8 32  1  0
  9 33  1  0
 10 34  1  0
 12 35  1  0
 17 36  1  0
 18 37  1  0
 19 38  1  0
 21 39  1  0
 21 40  1  0
 23 41  1  0
 24 42  1  0
 25 43  1  0
 26 44  1  0
 27 45  1  0
M  END
>  <meeko>  (1) 
{"is_sidechain": [false], "free_energy": -8.39, "intermolecular_energy": -10.352, "internal_energy": -0.202}

$$$$
cand_002_out
     RDKit          3D

 45 48  0  0  0  0  0  0  0  0999 V2000
  179.9780   16.3160   45.0780 C   0  0  0  0  0  0  0  0  0  0  0  0
  180.4420   17.7390   45.2220 C   0  0  0  0  0  0  0  0  0  0  0  0
  179.6800   18.6180   46.0160 C   0  0  0  0  0  0  0  0  0  0  0  0
  180.0400   19.9630   46.1860 C   0  0  0  0  0  0  0  0  0  0  0  0
  179.1960   20.8530   47.0120 C   0  0  0  0  0  0  0  0  0  0  0  0
  177.8530   20.4980   46.9880 O   0  0  0  0  0  0  0  0  0  0  0  0
  176.9560   21.2410   47.7130 C   0  0  0  0  0  0  0  0  0  0  0  0
  175.6160   20.8570   47.6490 C   0  0  0  0  0  0  0  0  0  0  0  0
  174.6520   21.5700   48.3640 C   0  0  0  0  0  0  0  0  0  0  0  0
  175.0280   22.6660   49.1430 C   0  0  0  0  0  0  0  0  0  0  0  0
  176.3660   23.0470   49.2050 C   0  0  0  0  0  0  0  0  0  0  0  0
  176.6640   24.1300   49.9880 O   0  0  0  0  0  0  0  0  0  0  0  0
  177.3300   22.3340   48.4880 C   0  0  0  0  0  0  0  0  0  0  0  0
  178.7460   22.7010   48.5260 C   0  0  0  0  0  0  0  0  0  0  0  0
  179.1550   23.6490   49.1930 O   0  0  0  0  0  0  0  0  0  0  0  0
  179.6870   21.8850   47.7250 C   0  0  0  0  0  0  0  0  0  0  0  0
  181.0240   22.2320   47.7780 O   0  0  0  0  0  0  0  0  0  0  0  0
  181.1780   20.4330   45.5250 C   0  0  0  0  0  0  0  0  0  0  0  0
  181.9390   19.5800   44.7240 C   0  0  0  0  0  0  0  0  0  0  0  0
  181.5840   18.2290   44.5570 C   0  0  0  0  0  0  0  0  0  0  0  0
  182.4500   17.3580   43.6630 C   0  0  0  0  0  0  0  0  0  0  0  0
  181.6950   16.5130   42.6600 C   0  0  0  0  0  0  0  0  0  0  0  0
  181.8820   15.1230   42.6300 C   0  0  0  0  0  0  0  0  0  0  0  0
  181.2120   14.3340   41.6930 C   0  0  0  0  0  0  0  0  0  0  0  0
  180.3540   14.9250   40.7690 C   0  0  0  0  0  0  0  0  0  0  0  0
  180.1690   16.3070   40.7780 C   0  0  0  0  0  0  0  0  0  0  0  0
  180.8390   17.0970   41.7150 C   0  0  0  0  0  0  0  0  0  0  0  0
  179.8341   15.8746   46.0752 H   0  0  0  0  0  0  0  0  0  0  0  0
  179.0263   16.2946   44.5267 H   0  0  0  0  0  0  0  0  0  0  0  0
  180.7341   15.7378   44.5267 H   0  0  0  0  0  0  0  0  0  0  0  0
  178.7770   18.2390   46.5170 H   0  0  0  0  0  0  0  0  0  0  0  0
  175.3195   19.9933   47.0357 H   0  0  0  0  0  0  0  0  0  0  0  0
  173.5954   21.2681   48.3136 H   0  0  0  0  0  0  0  0  0  0  0  0
  174.2686   23.2276   49.7068 H   0  0  0  0  0  0  0  0  0  0  0  0
  176.8050   24.0190   50.9070 H   0  0  0  0  0  0  0  0  0  0  0  0
  181.6470   21.6410   48.1550 H   0  0  0  0  0  0  0  0  0  0  0  0
  181.4770   21.4856   45.6370 H   0  0  0  0  0  0  0  0  0  0  0  0
  182.8320   19.9710   44.2144 H   0  0  0  0  0  0  0  0  0  0  0  0
  183.1345   18.0156   43.1071 H   0  0  0  0  0  0  0  0  0  0  0  0
  182.9648   16.6518   44.3310 H   0  0  0  0  0  0  0  0  0  0  0  0
  182.5636   14.6498   43.3522 H   0  0  0  0  0  0  0  0  0  0  0  0
  181.3621   13.2443   41.6847 H   0  0  0  0  0  0  0  0  0  0  0  0
  179.8232   14.3028   40.0334 H   0  0  0  0  0  0  0  0  0  0  0  0
  179.4946   16.7757   40.0463 H   0  0  0  0  0  0  0  0  0  0  0  0
  180.6939   18.1874   41.7117 H   0  0  0  0  0  0  0  0  0  0  0  0
  1  2  1  0
  2  3  2  0
  3  4  1  0
  4  5  1  0
  5  6  1  0
  6  7  1  0
  7  8  2  0
  8  9  1  0
  9 10  2  0
 10 11  1  0
 11 12  1  0
 11 13  2  0
 13 14  1  0
 14 15  2  0
 14 16  1  0
 16 17  1  0
  4 18  2  0
 18 19  1  0
 19 20  2  0
 20 21  1  0
 21 22  1  0
 22 23  2  0
 23 24  1  0
 24 25  2  0
 25 26  1  0
 26 27  2  0
 20  2  1  0
 27 22  1  0
 16  5  2  0
 13  7  1  0
  1 28  1  0
  1 29  1  0
  1 30  1  0
  3 31  1  0
  8 32  1  0
  9 33  1  0
 10 34  1  0
 12 35  1  0
 17 36  1  0
 18 37  1  0
 19 38  1  0
 21 39  1  0
 21 40  1  0
 23 41  1  0
 24 42  1  0
 25 43  1  0
 26 44  1  0
 27 45  1  0
M  END
>  <meeko>  (2) 
{"is_sidechain": [false], "free_energy": -8.382, "intermolecular_energy": -10.69, "internal_energy": 0.145}

$$$$
cand_002_out
     RDKit          3D

 45 48  0  0  0  0  0  0  0  0999 V2000
  180.9690   18.2520   44.5760 C   0  0  0  0  0  0  0  0  0  0  0  0
  181.1080   19.5230   45.3670 C   0  0  0  0  0  0  0  0  0  0  0  0
  182.2680   20.3020   45.1900 C   0  0  0  0  0  0  0  0  0  0  0  0
  182.4760   21.4920   45.9040 C   0  0  0  0  0  0  0  0  0  0  0  0
  183.7200   22.2650   45.6990 C   0  0  0  0  0  0  0  0  0  0  0  0
  184.3070   22.0270   44.4620 O   0  0  0  0  0  0  0  0  0  0  0  0
  185.4690   22.6810   44.1410 C   0  0  0  0  0  0  0  0  0  0  0  0
  186.0300   22.4020   42.8940 C   0  0  0  0  0  0  0  0  0  0  0  0
  187.2120   23.0340   42.5050 C   0  0  0  0  0  0  0  0  0  0  0  0
  187.8320   23.9470   43.3610 C   0  0  0  0  0  0  0  0  0  0  0  0
  187.2700   24.2240   44.6040 C   0  0  0  0  0  0  0  0  0  0  0  0
  187.9300   25.1270   45.3930 O   0  0  0  0  0  0  0  0  0  0  0  0
  186.0880   23.5890   44.9940 C   0  0  0  0  0  0  0  0  0  0  0  0
  185.4640   23.8520   46.2910 C   0  0  0  0  0  0  0  0  0  0  0  0
  185.9460   24.6460   47.0970 O   0  0  0  0  0  0  0  0  0  0  0  0
  184.2160   23.1230   46.6120 C   0  0  0  0  0  0  0  0  0  0  0  0
  183.6270   23.3890   47.8350 O   0  0  0  0  0  0  0  0  0  0  0  0
  181.5070   21.8890   46.8280 C   0  0  0  0  0  0  0  0  0  0  0  0
  180.3560   21.1230   47.0260 C   0  0  0  0  0  0  0  0  0  0  0  0
  180.1410   19.9340   46.3070 C   0  0  0  0  0  0  0  0  0  0  0  0
  178.8740   19.1420   46.5790 C   0  0  0  0  0  0  0  0  0  0  0  0
  177.6890   19.9610   47.0440 C   0  0  0  0  0  0  0  0  0  0  0  0
  177.5330   20.2600   48.4060 C   0  0  0  0  0  0  0  0  0  0  0  0
  176.4320   20.9920   48.8530 C   0  0  0  0  0  0  0  0  0  0  0  0
  175.4680   21.4270   47.9460 C   0  0  0  0  0  0  0  0  0  0  0  0
  175.6030   21.1250   46.5920 C   0  0  0  0  0  0  0  0  0  0  0  0
  176.7040   20.3930   46.1440 C   0  0  0  0  0  0  0  0  0  0  0  0
  180.8758   17.3996   45.2651 H   0  0  0  0  0  0  0  0  0  0  0  0
  180.0719   18.3109   43.9421 H   0  0  0  0  0  0  0  0  0  0  0  0
  181.8576   18.1156   43.9421 H   0  0  0  0  0  0  0  0  0  0  0  0
  183.0320   19.9684   44.4723 H   0  0  0  0  0  0  0  0  0  0  0  0
  185.5411   21.6847   42.2184 H   0  0  0  0  0  0  0  0  0  0  0  0
  187.6558   22.8128   41.5231 H   0  0  0  0  0  0  0  0  0  0  0  0
  188.7627   24.4462   43.0535 H   0  0  0  0  0  0  0  0  0  0  0  0
  187.4730   25.8680   45.7390 H   0  0  0  0  0  0  0  0  0  0  0  0
  183.2420   24.2280   47.9970 H   0  0  0  0  0  0  0  0  0  0  0  0
  181.6517   22.8140   47.4055 H   0  0  0  0  0  0  0  0  0  0  0  0
  179.6046   21.4557   47.7572 H   0  0  0  0  0  0  0  0  0  0  0  0
  178.5883   18.6274   45.6497 H   0  0  0  0  0  0  0  0  0  0  0  0
  179.1141   18.4565   47.4051 H   0  0  0  0  0  0  0  0  0  0  0  0
  178.2863   19.9139   49.1290 H   0  0  0  0  0  0  0  0  0  0  0  0
  176.3252   21.2258   49.9226 H   0  0  0  0  0  0  0  0  0  0  0  0
  174.6023   22.0075   48.2977 H   0  0  0  0  0  0  0  0  0  0  0  0
  174.8406   21.4641   45.8752 H   0  0  0  0  0  0  0  0  0  0  0  0
  176.7999   20.1527   45.0749 H   0  0  0  0  0  0  0  0  0  0  0  0
  1  2  1  0
  2  3  2  0
  3  4  1  0
  4  5  1  0
  5  6  1  0
  6  7  1  0
  7  8  2  0
  8  9  1  0
  9 10  2  0
 10 11  1  0
 11 12  1  0
 11 13  2  0
 13 14  1  0
 14 15  2  0
 14 16  1  0
 16 17  1  0
  4 18  2  0
 18 19  1  0
 19 20  2  0
 20 21  1  0
 21 22  1  0
 22 23  2  0
 23 24  1  0
 24 25  2  0
 25 26  1  0
 26 27  2  0
 20  2  1  0
 27 22  1  0
 16  5  2  0
 13  7  1  0
  1 28  1  0
  1 29  1  0
  1 30  1  0
  3 31  1  0
  8 32  1  0
  9 33  1  0
 10 34  1  0
 12 35  1  0
 17 36  1  0
 18 37  1  0
 19 38  1  0
 21 39  1  0
 21 40  1  0
 23 41  1  0
 24 42  1  0
 25 43  1  0
 26 44  1  0
 27 45  1  0
M  END
>  <meeko>  (3) 
{"is_sidechain": [false], "free_energy": -6.903, "intermolecular_energy": -8.59, "internal_energy": -0.131}

$$$$
cand_002_out
     RDKit          3D

 45 48  0  0  0  0  0  0  0  0999 V2000
  181.1600   18.5540   44.6800 C   0  0  0  0  0  0  0  0  0  0  0  0
  181.1860   19.7890   45.5370 C   0  0  0  0  0  0  0  0  0  0  0  0
  182.3200   20.6220   45.4830 C   0  0  0  0  0  0  0  0  0  0  0  0
  182.4240   21.7830   46.2630 C   0  0  0  0  0  0  0  0  0  0  0  0
  183.6450   22.6140   46.1880 C   0  0  0  0  0  0  0  0  0  0  0  0
  183.8800   23.3350   47.3530 O   0  0  0  0  0  0  0  0  0  0  0  0
  184.9820   24.1490   47.4200 C   0  0  0  0  0  0  0  0  0  0  0  0
  185.1710   24.8640   48.6030 C   0  0  0  0  0  0  0  0  0  0  0  0
  186.2740   25.7100   48.7370 C   0  0  0  0  0  0  0  0  0  0  0  0
  187.1870   25.8390   47.6890 C   0  0  0  0  0  0  0  0  0  0  0  0
  186.9960   25.1240   46.5100 C   0  0  0  0  0  0  0  0  0  0  0  0
  187.9300   25.2980   45.5240 O   0  0  0  0  0  0  0  0  0  0  0  0
  185.8920   24.2790   46.3760 C   0  0  0  0  0  0  0  0  0  0  0  0
  185.6540   23.5100   45.1540 C   0  0  0  0  0  0  0  0  0  0  0  0
  186.4160   23.5660   44.1910 O   0  0  0  0  0  0  0  0  0  0  0  0
  184.4500   22.6480   45.1100 C   0  0  0  0  0  0  0  0  0  0  0  0
  184.2420   21.9160   43.9550 O   0  0  0  0  0  0  0  0  0  0  0  0
  181.3730   22.0960   47.1290 C   0  0  0  0  0  0  0  0  0  0  0  0
  180.2450   21.2760   47.2050 C   0  0  0  0  0  0  0  0  0  0  0  0
  180.1350   20.1150   46.4190 C   0  0  0  0  0  0  0  0  0  0  0  0
  178.8870   19.2610   46.5590 C   0  0  0  0  0  0  0  0  0  0  0  0
  177.6510   19.9970   47.0310 C   0  0  0  0  0  0  0  0  0  0  0  0
  177.4140   20.1610   48.4040 C   0  0  0  0  0  0  0  0  0  0  0  0
  176.2660   20.8150   48.8550 C   0  0  0  0  0  0  0  0  0  0  0  0
  175.3360   21.3050   47.9390 C   0  0  0  0  0  0  0  0  0  0  0  0
  175.5530   21.1360   46.5730 C   0  0  0  0  0  0  0  0  0  0  0  0
  176.7010   20.4830   46.1210 C   0  0  0  0  0  0  0  0  0  0  0  0
  181.1412   17.6618   45.3231 H   0  0  0  0  0  0  0  0  0  0  0  0
  180.2619   18.5672   44.0449 H   0  0  0  0  0  0  0  0  0  0  0  0
  182.0578   18.5294   44.0449 H   0  0  0  0  0  0  0  0  0  0  0  0
  183.1479   20.3546   44.8099 H   0  0  0  0  0  0  0  0  0  0  0  0
  184.4521   24.7615   49.4292 H   0  0  0  0  0  0  0  0  0  0  0  0
  186.4234   26.2750   49.6689 H   0  0  0  0  0  0  0  0  0  0  0  0
  188.0562   26.5048   47.7947 H   0  0  0  0  0  0  0  0  0  0  0  0
  188.2910   24.5540   45.0850 H   0  0  0  0  0  0  0  0  0  0  0  0
  184.7290   21.1290   43.8060 H   0  0  0  0  0  0  0  0  0  0  0  0
  181.4347   22.9970   47.7570 H   0  0  0  0  0  0  0  0  0  0  0  0
  179.4282   21.5430   47.8917 H   0  0  0  0  0  0  0  0  0  0  0  0
  178.6653   18.8190   45.5764 H   0  0  0  0  0  0  0  0  0  0  0  0
  179.1132   18.5155   47.3356 H   0  0  0  0  0  0  0  0  0  0  0  0
  178.1399   19.7704   49.1324 H   0  0  0  0  0  0  0  0  0  0  0  0
  176.0950   20.9438   49.9340 H   0  0  0  0  0  0  0  0  0  0  0  0
  174.4332   21.8237   48.2938 H   0  0  0  0  0  0  0  0  0  0  0  0
  174.8180   21.5180   45.8492 H   0  0  0  0  0  0  0  0  0  0  0  0
  176.8620   20.3484   45.0412 H   0  0  0  0  0  0  0  0  0  0  0  0
  1  2  1  0
  2  3  2  0
  3  4  1  0
  4  5  1  0
  5  6  1  0
  6  7  1  0
  7  8  2  0
  8  9  1  0
  9 10  2  0
 10 11  1  0
 11 12  1  0
 11 13  2  0
 13 14  1  0
 14 15  2  0
 14 16  1  0
 16 17  1  0
  4 18  2  0
 18 19  1  0
 19 20  2  0
 20 21  1  0
 21 22  1  0
 22 23  2  0
 23 24  1  0
 24 25  2  0
 25 26  1  0
 26 27  2  0
 20  2  1  0
 27 22  1  0
 16  5  2  0
 13  7  1  0
  1 28  1  0
  1 29  1  0
  1 30  1  0
  3 31  1  0
  8 32  1  0
  9 33  1  0
 10 34  1  0
 12 35  1  0
 17 36  1  0
 18 37  1  0
 19 38  1  0
 21 39  1  0
 21 40  1  0
 23 41  1  0
 24 42  1  0
 25 43  1  0
 26 44  1  0
 27 45  1  0
M  END
>  <meeko>  (4) 
{"is_sidechain": [false], "free_energy": -6.784, "intermolecular_energy": -8.461, "internal_energy": -0.112}

$$$$
cand_002_out
     RDKit          3D

 45 48  0  0  0  0  0  0  0  0999 V2000
  179.3830   20.8260   47.6960 C   0  0  0  0  0  0  0  0  0  0  0  0
  180.5960   20.7000   46.8160 C   0  0  0  0  0  0  0  0  0  0  0  0
  181.5870   21.6970   46.8900 C   0  0  0  0  0  0  0  0  0  0  0  0
  182.7390   21.6570   46.0890 C   0  0  0  0  0  0  0  0  0  0  0  0
  183.7420   22.7390   46.1860 C   0  0  0  0  0  0  0  0  0  0  0  0
  183.9620   23.1550   47.4940 O   0  0  0  0  0  0  0  0  0  0  0  0
  184.8710   24.1550   47.7290 C   0  0  0  0  0  0  0  0  0  0  0  0
  185.0510   24.5500   49.0550 C   0  0  0  0  0  0  0  0  0  0  0  0
  185.9620   25.5620   49.3630 C   0  0  0  0  0  0  0  0  0  0  0  0
  186.6930   26.1780   48.3460 C   0  0  0  0  0  0  0  0  0  0  0  0
  186.5120   25.7820   47.0240 C   0  0  0  0  0  0  0  0  0  0  0  0
  187.2610   26.4280   46.0780 O   0  0  0  0  0  0  0  0  0  0  0  0
  185.5990   24.7700   46.7160 C   0  0  0  0  0  0  0  0  0  0  0  0
  185.3790   24.3240   45.3400 C   0  0  0  0  0  0  0  0  0  0  0  0
  185.9890   24.8130   44.3910 O   0  0  0  0  0  0  0  0  0  0  0  0
  184.3840   23.2490   45.1190 C   0  0  0  0  0  0  0  0  0  0  0  0
  184.1930   22.8260   43.8160 O   0  0  0  0  0  0  0  0  0  0  0  0
  182.8800   20.6020   45.1840 C   0  0  0  0  0  0  0  0  0  0  0  0
  181.9010   19.6110   45.0880 C   0  0  0  0  0  0  0  0  0  0  0  0
  180.7500   19.6450   45.8940 C   0  0  0  0  0  0  0  0  0  0  0  0
  179.7190   18.5410   45.7310 C   0  0  0  0  0  0  0  0  0  0  0  0
  180.2160   17.2910   45.0370 C   0  0  0  0  0  0  0  0  0  0  0  0
  181.0950   17.3940   43.9480 C   0  0  0  0  0  0  0  0  0  0  0  0
  181.5410   16.2510   43.2830 C   0  0  0  0  0  0  0  0  0  0  0  0
  181.1070   14.9920   43.6900 C   0  0  0  0  0  0  0  0  0  0  0  0
  180.2230   14.8750   44.7610 C   0  0  0  0  0  0  0  0  0  0  0  0
  179.7760   16.0180   45.4280 C   0  0  0  0  0  0  0  0  0  0  0  0
  179.6909   20.7940   48.7516 H   0  0  0  0  0  0  0  0  0  0  0  0
  178.8782   21.7814   47.4901 H   0  0  0  0  0  0  0  0  0  0  0  0
  178.6926   19.9947   47.4901 H   0  0  0  0  0  0  0  0  0  0  0  0
  181.4549   22.5308   47.5953 H   0  0  0  0  0  0  0  0  0  0  0  0
  184.4756   24.0645   49.8570 H   0  0  0  0  0  0  0  0  0  0  0  0
  186.1039   25.8742   50.4082 H   0  0  0  0  0  0  0  0  0  0  0  0
  187.4110   26.9752   48.5889 H   0  0  0  0  0  0  0  0  0  0  0  0
  186.9760   26.4440   45.1850 H   0  0  0  0  0  0  0  0  0  0  0  0
  183.9000   21.9520   43.6460 H   0  0  0  0  0  0  0  0  0  0  0  0
  183.7709   20.5516   44.5408 H   0  0  0  0  0  0  0  0  0  0  0  0
  182.0329   18.7891   44.3689 H   0  0  0  0  0  0  0  0  0  0  0  0
  179.3647   18.2559   46.7326 H   0  0  0  0  0  0  0  0  0  0  0  0
  178.9294   18.9542   45.0861 H   0  0  0  0  0  0  0  0  0  0  0  0
  181.4359   18.3855   43.6152 H   0  0  0  0  0  0  0  0  0  0  0  0
  182.2365   16.3448   42.4360 H   0  0  0  0  0  0  0  0  0  0  0  0
  181.4613   14.0914   43.1671 H   0  0  0  0  0  0  0  0  0  0  0  0
  179.8768   13.8813   45.0815 H   0  0  0  0  0  0  0  0  0  0  0  0
  179.0724   15.9188   46.2677 H   0  0  0  0  0  0  0  0  0  0  0  0
  1  2  1  0
  2  3  2  0
  3  4  1  0
  4  5  1  0
  5  6  1  0
  6  7  1  0
  7  8  2  0
  8  9  1  0
  9 10  2  0
 10 11  1  0
 11 12  1  0
 11 13  2  0
 13 14  1  0
 14 15  2  0
 14 16  1  0
 16 17  1  0
  4 18  2  0
 18 19  1  0
 19 20  2  0
 20 21  1  0
 21 22  1  0
 22 23  2  0
 23 24  1  0
 24 25  2  0
 25 26  1  0
 26 27  2  0
 20  2  1  0
 27 22  1  0
 16  5  2  0
 13  7  1  0
  1 28  1  0
  1 29  1  0
  1 30  1  0
  3 31  1  0
  8 32  1  0
  9 33  1  0
 10 34  1  0
 12 35  1  0
 17 36  1  0
 18 37  1  0
 19 38  1  0
 21 39  1  0
 21 40  1  0
 23 41  1  0
 24 42  1  0
 25 43  1  0
 26 44  1  0
 27 45  1  0
M  END
>  <meeko>  (5) 
{"is_sidechain": [false], "free_energy": -5.954, "intermolecular_energy": -8.127, "internal_energy": 0.578}

$$$$
cand_002_out
     RDKit          3D

 45 48  0  0  0  0  0  0  0  0999 V2000
  185.2840   24.3650   47.4890 C   0  0  0  0  0  0  0  0  0  0  0  0
  184.5990   23.3820   46.5800 C   0  0  0  0  0  0  0  0  0  0  0  0
  183.2980   22.9540   46.9090 C   0  0  0  0  0  0  0  0  0  0  0  0
  182.6010   22.0280   46.1190 C   0  0  0  0  0  0  0  0  0  0  0  0
  181.2460   21.5920   46.5170 C   0  0  0  0  0  0  0  0  0  0  0  0
  180.4970   22.6130   47.0910 O   0  0  0  0  0  0  0  0  0  0  0  0
  179.2180   22.3460   47.5080 C   0  0  0  0  0  0  0  0  0  0  0  0
  178.5090   23.3960   48.0910 C   0  0  0  0  0  0  0  0  0  0  0  0
  177.2010   23.1910   48.5360 C   0  0  0  0  0  0  0  0  0  0  0  0
  176.6030   21.9370   48.3960 C   0  0  0  0  0  0  0  0  0  0  0  0
  177.3130   20.8910   47.8130 C   0  0  0  0  0  0  0  0  0  0  0  0
  176.6670   19.6890   47.7080 O   0  0  0  0  0  0  0  0  0  0  0  0
  178.6220   21.0960   47.3700 C   0  0  0  0  0  0  0  0  0  0  0  0
  179.4030   20.0240   46.7530 C   0  0  0  0  0  0  0  0  0  0  0  0
  178.9440   18.8950   46.5890 O   0  0  0  0  0  0  0  0  0  0  0  0
  180.7850   20.3420   46.3230 C   0  0  0  0  0  0  0  0  0  0  0  0
  181.5090   19.3250   45.7280 O   0  0  0  0  0  0  0  0  0  0  0  0
  183.2380   21.5100   44.9880 C   0  0  0  0  0  0  0  0  0  0  0  0
  184.5320   21.9140   44.6520 C   0  0  0  0  0  0  0  0  0  0  0  0
  185.2300   22.8470   45.4390 C   0  0  0  0  0  0  0  0  0  0  0  0
  186.6390   23.2340   45.0230 C   0  0  0  0  0  0  0  0  0  0  0  0
  187.1120   22.6410   43.7140 C   0  0  0  0  0  0  0  0  0  0  0  0
  187.1660   23.4370   42.5600 C   0  0  0  0  0  0  0  0  0  0  0  0
  187.5770   22.8970   41.3410 C   0  0  0  0  0  0  0  0  0  0  0  0
  187.9300   21.5520   41.2560 C   0  0  0  0  0  0  0  0  0  0  0  0
  187.8680   20.7460   42.3910 C   0  0  0  0  0  0  0  0  0  0  0  0
  187.4580   21.2850   43.6120 C   0  0  0  0  0  0  0  0  0  0  0  0
  185.0926   24.0904   48.5368 H   0  0  0  0  0  0  0  0  0  0  0  0
  186.3671   24.3483   47.2975 H   0  0  0  0  0  0  0  0  0  0  0  0
  184.8933   25.3753   47.2975 H   0  0  0  0  0  0  0  0  0  0  0  0
  182.8149   23.3574   47.8111 H   0  0  0  0  0  0  0  0  0  0  0  0
  178.9793   24.3844   48.2002 H   0  0  0  0  0  0  0  0  0  0  0  0
  176.6415   24.0182   48.9972 H   0  0  0  0  0  0  0  0  0  0  0  0
  175.5726   21.7759   48.7458 H   0  0  0  0  0  0  0  0  0  0  0  0
  175.7460   19.6660   47.5350 H   0  0  0  0  0  0  0  0  0  0  0  0
  182.2720   19.5280   45.2230 H   0  0  0  0  0  0  0  0  0  0  0  0
  182.7151   20.7769   44.3563 H   0  0  0  0  0  0  0  0  0  0  0  0
  185.0135   21.4950   43.7561 H   0  0  0  0  0  0  0  0  0  0  0  0
  186.6782   24.3297   44.9337 H   0  0  0  0  0  0  0  0  0  0  0  0
  187.3069   22.8311   45.7986 H   0  0  0  0  0  0  0  0  0  0  0  0
  186.8813   24.4980   42.6169 H   0  0  0  0  0  0  0  0  0  0  0  0
  187.6224   23.5343   40.4455 H   0  0  0  0  0  0  0  0  0  0  0  0
  188.2568   21.1274   40.2953 H   0  0  0  0  0  0  0  0  0  0  0  0
  188.1426   19.6829   42.3249 H   0  0  0  0  0  0  0  0  0  0  0  0
  187.4057   20.6408   44.5021 H   0  0  0  0  0  0  0  0  0  0  0  0
  1  2  1  0
  2  3  2  0
  3  4  1  0
  4  5  1  0
  5  6  1  0
  6  7  1  0
  7  8  2  0
  8  9  1  0
  9 10  2  0
 10 11  1  0
 11 12  1  0
 11 13  2  0
 13 14  1  0
 14 15  2  0
 14 16  1  0
 16 17  1  0
  4 18  2  0
 18 19  1  0
 19 20  2  0
 20 21  1  0
 21 22  1  0
 22 23  2  0
 23 24  1  0
 24 25  2  0
 25 26  1  0
 26 27  2  0
 20  2  1  0
 27 22  1  0
 16  5  2  0
 13  7  1  0
  1 28  1  0
  1 29  1  0
  1 30  1  0
  3 31  1  0
  8 32  1  0
  9 33  1  0
 10 34  1  0
 12 35  1  0
 17 36  1  0
 18 37  1  0
 19 38  1  0
 21 39  1  0
 21 40  1  0
 23 41  1  0
 24 42  1  0
 25 43  1  0
 26 44  1  0
 27 45  1  0
M  END
>  <meeko>  (6) 
{"is_sidechain": [false], "free_energy": -5.666, "intermolecular_energy": -7.027, "internal_energy": -0.166}

$$$$
