cand_028_out
     RDKit          3D

 38 40  0  0  0  0  0  0  0  0999 V2000
  178.9330   14.0420   43.9320 C   0  0  0  0  0  0  0  0  0  0  0  0
  180.0840   14.4260   44.8500 C   0  0  0  0  0  0  0  0  0  0  0  0
  180.5350   15.8510   44.6250 C   0  0  0  0  0  0  0  0  0  0  0  0
  179.9830   16.8620   45.4370 C   0  0  0  0  0  0  0  0  0  0  0  0
  180.3340   18.2100   45.2790 C   0  0  0  0  0  0  0  0  0  0  0  0
  179.7760   19.2680   46.1470 C   0  0  0  0  0  0  0  0  0  0  0  0
  178.3850   19.2650   46.1750 O   0  0  0  0  0  0  0  0  0  0  0  0
  177.7360   20.1980   46.9430 C   0  0  0  0  0  0  0  0  0  0  0  0
  176.3410   20.1690   46.9290 C   0  0  0  0  0  0  0  0  0  0  0  0
  175.6170   21.0900   47.6910 C   0  0  0  0  0  0  0  0  0  0  0  0
  176.2880   22.0390   48.4660 C   0  0  0  0  0  0  0  0  0  0  0  0
  177.6800   22.0650   48.4770 C   0  0  0  0  0  0  0  0  0  0  0  0
  178.2740   23.0190   49.2580 O   0  0  0  0  0  0  0  0  0  0  0  0
  178.4040   21.1440   47.7140 C   0  0  0  0  0  0  0  0  0  0  0  0
  179.8680   21.1370   47.6990 C   0  0  0  0  0  0  0  0  0  0  0  0
  180.5290   21.9350   48.3590 O   0  0  0  0  0  0  0  0  0  0  0  0
  180.5380   20.1250   46.8510 C   0  0  0  0  0  0  0  0  0  0  0  0
  181.9210   20.1200   46.8540 O   0  0  0  0  0  0  0  0  0  0  0  0
  181.2680   18.5400   44.2910 C   0  0  0  0  0  0  0  0  0  0  0  0
  181.8210   17.5510   43.4730 C   0  0  0  0  0  0  0  0  0  0  0  0
  181.4570   16.2050   43.6210 C   0  0  0  0  0  0  0  0  0  0  0  0
  182.0860   15.1790   42.7180 C   0  0  0  0  0  0  0  0  0  0  0  0
  178.0621   13.7514   44.5378 H   0  0  0  0  0  0  0  0  0  0  0  0
  178.6682   14.9005   43.2972 H   0  0  0  0  0  0  0  0  0  0  0  0
  179.2366   13.1965   43.2972 H   0  0  0  0  0  0  0  0  0  0  0  0
  179.7568   14.3176   45.8946 H   0  0  0  0  0  0  0  0  0  0  0  0
  180.9322   13.7616   44.6284 H   0  0  0  0  0  0  0  0  0  0  0  0
  179.2570   16.5859   46.2159 H   0  0  0  0  0  0  0  0  0  0  0  0
  175.8118   19.4221   46.3189 H   0  0  0  0  0  0  0  0  0  0  0  0
  174.5173   21.0676   47.6805 H   0  0  0  0  0  0  0  0  0  0  0  0
  175.7181   22.7638   49.0659 H   0  0  0  0  0  0  0  0  0  0  0  0
  178.6320   22.7850   50.0920 H   0  0  0  0  0  0  0  0  0  0  0  0
  182.3890   20.2870   47.6480 H   0  0  0  0  0  0  0  0  0  0  0  0
  181.5703   19.5891   44.1566 H   0  0  0  0  0  0  0  0  0  0  0  0
  182.5528   17.8327   42.7015 H   0  0  0  0  0  0  0  0  0  0  0  0
  182.5646   14.3983   43.3275 H   0  0  0  0  0  0  0  0  0  0  0  0
  181.3109   14.7249   42.0832 H   0  0  0  0  0  0  0  0  0  0  0  0
  182.8423   15.6637   42.0832 H   0  0  0  0  0  0  0  0  0  0  0  0
  1  2  1  0
  2  3  1  0
  3  4  2  0
  4  5  1  0
  5  6  1  0
  6  7  1  0
  7  8  1  0
  8  9  2  0
  9 10  1  0
 10 11  2  0
 11 12  1  0
 12 13  1  0
 12 14  2  0
 14 15  1  0
 15 16  2  0
 15 17  1  0
 17 18  1  0
  5 19  2  0
 19 20  1  0
 20 21  2  0
 21 22  1  0
 21  3  1  0
 17  6  2  0
 14  8  1  0
  1 23  1  0
  1 24  1  0
  1 25  1  0
  2 26  1  0
  2 27  1  0
  4 28  1  0
  9 29  1  0
 10 30  1  0
 11 31  1  0
 13 32  1  0
 18 33  1  0
 19 34  1  0
 20 35  1  0
 22 36  1  0
 22 37  1  0
 22 38  1  0
M  END
>  <meeko>  (1) 
{"is_sidechain": [false], "free_energy": -7.699, "intermolecular_energy": -9.049, "internal_energy": -0.191}

$$$$
cand_028_out
     RDKit          3D

 38 40  0  0  0  0  0  0  0  0999 V2000
  174.7740   19.9120   47.6780 C   0  0  0  0  0  0  0  0  0  0  0  0
  175.4910   21.0290   46.9330 C   0  0  0  0  0  0  0  0  0  0  0  0
  176.9890   20.9640   47.1260 C   0  0  0  0  0  0  0  0  0  0  0  0
  177.7130   19.9940   46.4040 C   0  0  0  0  0  0  0  0  0  0  0  0
  179.1010   19.8560   46.5410 C   0  0  0  0  0  0  0  0  0  0  0  0
  179.8650   18.8560   45.7660 C   0  0  0  0  0  0  0  0  0  0  0  0
  179.2740   17.5970   45.7770 O   0  0  0  0  0  0  0  0  0  0  0  0
  179.8810   16.5730   45.0960 C   0  0  0  0  0  0  0  0  0  0  0  0
  179.2620   15.3240   45.1470 C   0  0  0  0  0  0  0  0  0  0  0  0
  179.8260   14.2380   44.4730 C   0  0  0  0  0  0  0  0  0  0  0  0
  181.0090   14.4020   43.7490 C   0  0  0  0  0  0  0  0  0  0  0  0
  181.6240   15.6500   43.6990 C   0  0  0  0  0  0  0  0  0  0  0  0
  182.7800   15.7410   42.9710 O   0  0  0  0  0  0  0  0  0  0  0  0
  181.0600   16.7360   44.3750 C   0  0  0  0  0  0  0  0  0  0  0  0
  181.6750   18.0650   44.3480 C   0  0  0  0  0  0  0  0  0  0  0  0
  182.7110   18.2890   43.7270 O   0  0  0  0  0  0  0  0  0  0  0  0
  181.0000   19.1450   45.1030 C   0  0  0  0  0  0  0  0  0  0  0  0
  181.5830   20.3990   45.0600 O   0  0  0  0  0  0  0  0  0  0  0  0
  179.7710   20.7230   47.4120 C   0  0  0  0  0  0  0  0  0  0  0  0
  179.0680   21.6870   48.1390 C   0  0  0  0  0  0  0  0  0  0  0  0
  177.6770   21.8130   48.0140 C   0  0  0  0  0  0  0  0  0  0  0  0
  176.9690   22.8710   48.8160 C   0  0  0  0  0  0  0  0  0  0  0  0
  174.8755   20.0701   48.7618 H   0  0  0  0  0  0  0  0  0  0  0  0
  173.7083   19.9145   47.4053 H   0  0  0  0  0  0  0  0  0  0  0  0
  175.2200   18.9442   47.4053 H   0  0  0  0  0  0  0  0  0  0  0  0
  175.2666   20.9419   45.8597 H   0  0  0  0  0  0  0  0  0  0  0  0
  175.1367   21.9895   47.3354 H   0  0  0  0  0  0  0  0  0  0  0  0
  177.1743   19.3274   45.7145 H   0  0  0  0  0  0  0  0  0  0  0  0
  178.3305   15.1942   45.7175 H   0  0  0  0  0  0  0  0  0  0  0  0
  179.3380   13.2530   44.5126 H   0  0  0  0  0  0  0  0  0  0  0  0
  181.4540   13.5468   43.2193 H   0  0  0  0  0  0  0  0  0  0  0  0
  183.1340   14.9780   42.5580 H   0  0  0  0  0  0  0  0  0  0  0  0
  181.1930   21.1140   45.5230 H   0  0  0  0  0  0  0  0  0  0  0  0
  180.8623   20.6446   47.5253 H   0  0  0  0  0  0  0  0  0  0  0  0
  179.6138   22.3571   48.8195 H   0  0  0  0  0  0  0  0  0  0  0  0
  177.1039   22.6694   49.8889 H   0  0  0  0  0  0  0  0  0  0  0  0
  177.3892   23.8580   48.5727 H   0  0  0  0  0  0  0  0  0  0  0  0
  175.8963   22.8590   48.5727 H   0  0  0  0  0  0  0  0  0  0  0  0
  1  2  1  0
  2  3  1  0
  3  4  2  0
  4  5  1  0
  5  6  1  0
  6  7  1  0
  7  8  1  0
  8  9  2  0
  9 10  1  0
 10 11  2  0
 11 12  1  0
 12 13  1  0
 12 14  2  0
 14 15  1  0
 15 16  2  0
 15 17  1  0
 17 18  1  0
  5 19  2  0
 19 20  1  0
 20 21  2  0
 21 22  1  0
 21  3  1  0
 17  6  2  0
 14  8  1  0
  1 23  1  0
  1 24  1  0
  1 25  1  0
  2 26  1  0
  2 27  1  0
  4 28  1  0
  9 29  1  0
 10 30  1  0
 11 31  1  0
 13 32  1  0
 18 33  1  0
 19 34  1  0
 20 35  1  0
 22 36  1  0
 22 37  1  0
 22 38  1  0
M  END
>  <meeko>  (2) 
{"is_sidechain": [false], "free_energy": -7.349, "intermolecular_energy": -8.661, "internal_energy": -0.168}

$$$$
cand_028_out
     RDKit          3D

 38 40  0  0  0  0  0  0  0  0999 V2000
  181.1110   16.5470   41.0180 C   0  0  0  0  0  0  0  0  0  0  0  0
  181.9170   16.4800   42.3070 C   0  0  0  0  0  0  0  0  0  0  0  0
  181.0290   16.5140   43.5300 C   0  0  0  0  0  0  0  0  0  0  0  0
  180.7930   17.7590   44.1490 C   0  0  0  0  0  0  0  0  0  0  0  0
  179.9990   17.8730   45.2980 C   0  0  0  0  0  0  0  0  0  0  0  0
  179.7300   19.1800   45.9330 C   0  0  0  0  0  0  0  0  0  0  0  0
  178.3780   19.3910   46.1830 O   0  0  0  0  0  0  0  0  0  0  0  0
  177.9870   20.5670   46.7700 C   0  0  0  0  0  0  0  0  0  0  0  0
  176.6200   20.7420   46.9880 C   0  0  0  0  0  0  0  0  0  0  0  0
  176.1550   21.9170   47.5840 C   0  0  0  0  0  0  0  0  0  0  0  0
  177.0560   22.9160   47.9610 C   0  0  0  0  0  0  0  0  0  0  0  0
  178.4190   22.7370   47.7420 C   0  0  0  0  0  0  0  0  0  0  0  0
  179.2460   23.7540   48.1360 O   0  0  0  0  0  0  0  0  0  0  0  0
  178.8840   21.5620   47.1450 C   0  0  0  0  0  0  0  0  0  0  0  0
  180.3100   21.3350   46.8970 C   0  0  0  0  0  0  0  0  0  0  0  0
  181.1630   22.1630   47.2070 O   0  0  0  0  0  0  0  0  0  0  0  0
  180.6970   20.0600   46.2520 C   0  0  0  0  0  0  0  0  0  0  0  0
  182.0460   19.8510   46.0340 O   0  0  0  0  0  0  0  0  0  0  0  0
  179.4200   16.7120   45.8220 C   0  0  0  0  0  0  0  0  0  0  0  0
  179.6470   15.4690   45.2240 C   0  0  0  0  0  0  0  0  0  0  0  0
  180.4570   15.3530   44.0850 C   0  0  0  0  0  0  0  0  0  0  0  0
  180.6650   13.9930   43.4770 C   0  0  0  0  0  0  0  0  0  0  0  0
  180.0413   16.6359   41.2586 H   0  0  0  0  0  0  0  0  0  0  0  0
  181.4289   17.4218   40.4318 H   0  0  0  0  0  0  0  0  0  0  0  0
  181.2801   15.6317   40.4318 H   0  0  0  0  0  0  0  0  0  0  0  0
  182.4977   15.5458   42.3151 H   0  0  0  0  0  0  0  0  0  0  0  0
  182.5782   17.3584   42.3415 H   0  0  0  0  0  0  0  0  0  0  0  0
  181.2443   18.6650   43.7183 H   0  0  0  0  0  0  0  0  0  0  0  0
  175.9097   19.9563   46.6912 H   0  0  0  0  0  0  0  0  0  0  0  0
  175.0775   22.0558   47.7567 H   0  0  0  0  0  0  0  0  0  0  0  0
  176.6894   23.8413   48.4295 H   0  0  0  0  0  0  0  0  0  0  0  0
  180.0430   23.5600   48.5910 H   0  0  0  0  0  0  0  0  0  0  0  0
  182.5970   20.5660   45.7820 H   0  0  0  0  0  0  0  0  0  0  0  0
  178.7795   16.7780   46.7138 H   0  0  0  0  0  0  0  0  0  0  0  0
  179.1834   14.5685   45.6532 H   0  0  0  0  0  0  0  0  0  0  0  0
  180.7791   13.2471   44.2774 H   0  0  0  0  0  0  0  0  0  0  0  0
  179.7962   13.7329   42.8545 H   0  0  0  0  0  0  0  0  0  0  0  0
  181.5718   14.0044   42.8545 H   0  0  0  0  0  0  0  0  0  0  0  0
  1  2  1  0
  2  3  1  0
  3  4  2  0
  4  5  1  0
  5  6  1  0
  6  7  1  0
  7  8  1  0
  8  9  2  0
  9 10  1  0
 10 11  2  0
 11 12  1  0
 12 13  1  0
 12 14  2  0
 14 15  1  0
 15 16  2  0
 15 17  1  0
 17 18  1  0
  5 19  2  0
 19 20  1  0
 20 21  2  0
 21 22  1  0
 21  3  1  0
 17  6  2  0
 14  8  1  0
  1 23  1  0
  1 24  1  0
  1 25  1  0
  2 26  1  0
  2 27  1  0
  4 28  1  0
  9 29  1  0
 10 30  1  0
 11 31  1  0
 13 32  1  0
 18 33  1  0
 19 34  1  0
 20 35  1  0
 22 36  1  0
 22 37  1  0
 22 38  1  0
M  END
>  <meeko>  (3) 
{"is_sidechain": [false], "free_energy": -6.983, "intermolecular_energy": -8.201, "internal_energy": -0.198}

$$$$
cand_028_out
     RDKit          3D

 38 40  0  0  0  0  0  0  0  0999 V2000
  179.6400   14.3370   43.8530 C   0  0  0  0  0  0  0  0  0  0  0  0
  179.9230   14.9970   45.1950 C   0  0  0  0  0  0  0  0  0  0  0  0
  180.0400   16.4990   45.0710 C   0  0  0  0  0  0  0  0  0  0  0  0
  179.1020   17.3000   45.7530 C   0  0  0  0  0  0  0  0  0  0  0  0
  179.1290   18.6990   45.6740 C   0  0  0  0  0  0  0  0  0  0  0  0
  178.1630   19.5410   46.4100 C   0  0  0  0  0  0  0  0  0  0  0  0
  178.7180   20.7340   46.8590 O   0  0  0  0  0  0  0  0  0  0  0  0
  177.9300   21.6110   47.5600 C   0  0  0  0  0  0  0  0  0  0  0  0
  178.5330   22.7880   48.0040 C   0  0  0  0  0  0  0  0  0  0  0  0
  177.7860   23.7250   48.7220 C   0  0  0  0  0  0  0  0  0  0  0  0
  176.4370   23.4850   48.9950 C   0  0  0  0  0  0  0  0  0  0  0  0
  175.8390   22.3090   48.5500 C   0  0  0  0  0  0  0  0  0  0  0  0
  174.5150   22.1370   48.8510 O   0  0  0  0  0  0  0  0  0  0  0  0
  176.5870   21.3710   47.8330 C   0  0  0  0  0  0  0  0  0  0  0  0
  175.9960   20.1220   47.3470 C   0  0  0  0  0  0  0  0  0  0  0  0
  174.8150   19.8430   47.5410 O   0  0  0  0  0  0  0  0  0  0  0  0
  176.8770   19.1930   46.6040 C   0  0  0  0  0  0  0  0  0  0  0  0
  176.3050   18.0230   46.1390 O   0  0  0  0  0  0  0  0  0  0  0  0
  180.1300   19.3000   44.9030 C   0  0  0  0  0  0  0  0  0  0  0  0
  181.0650   18.5210   44.2150 C   0  0  0  0  0  0  0  0  0  0  0  0
  181.0260   17.1200   44.2810 C   0  0  0  0  0  0  0  0  0  0  0  0
  182.0590   16.3290   43.5260 C   0  0  0  0  0  0  0  0  0  0  0  0
  179.2115   13.3376   44.0190 H   0  0  0  0  0  0  0  0  0  0  0  0
  178.9265   14.9522   43.2851 H   0  0  0  0  0  0  0  0  0  0  0  0
  180.5775   14.2443   43.2851 H   0  0  0  0  0  0  0  0  0  0  0  0
  179.1021   14.7602   45.8879 H   0  0  0  0  0  0  0  0  0  0  0  0
  180.8822   14.6101   45.5696 H   0  0  0  0  0  0  0  0  0  0  0  0
  178.3274   16.8137   46.3641 H   0  0  0  0  0  0  0  0  0  0  0  0
  179.5950   22.9780   47.7891 H   0  0  0  0  0  0  0  0  0  0  0  0
  178.2606   24.6532   49.0730 H   0  0  0  0  0  0  0  0  0  0  0  0
  175.8489   24.2232   49.5600 H   0  0  0  0  0  0  0  0  0  0  0  0
  174.2430   21.4020   49.3640 H   0  0  0  0  0  0  0  0  0  0  0  0
  176.5480   17.6820   45.3000 H   0  0  0  0  0  0  0  0  0  0  0  0
  180.1818   20.3968   44.8375 H   0  0  0  0  0  0  0  0  0  0  0  0
  181.8428   19.0137   43.6130 H   0  0  0  0  0  0  0  0  0  0  0  0
  182.7241   15.8197   44.2390 H   0  0  0  0  0  0  0  0  0  0  0  0
  181.5581   15.5813   42.8935 H   0  0  0  0  0  0  0  0  0  0  0  0
  182.6502   17.0075   42.8935 H   0  0  0  0  0  0  0  0  0  0  0  0
  1  2  1  0
  2  3  1  0
  3  4  2  0
  4  5  1  0
  5  6  1  0
  6  7  1  0
  7  8  1  0
  8  9  2  0
  9 10  1  0
 10 11  2  0
 11 12  1  0
 12 13  1  0
 12 14  2  0
 14 15  1  0
 15 16  2  0
 15 17  1  0
 17 18  1  0
  5 19  2  0
 19 20  1  0
 20 21  2  0
 21 22  1  0
 21  3  1  0
 17  6  2  0
 14  8  1  0
  1 23  1  0
  1 24  1  0
  1 25  1  0
  2 26  1  0
  2 27  1  0
  4 28  1  0
  9 29  1  0
 10 30  1  0
 11 31  1  0
 13 32  1  0
 18 33  1  0
 19 34  1  0
 20 35  1  0
 22 36  1  0
 22 37  1  0
 22 38  1  0
M  END
>  <meeko>  (4) 
{"is_sidechain": [false], "free_energy": -6.337, "intermolecular_energy": -7.948, "internal_energy": 0.308}

$$$$
cand_028_out
     RDKit          3D

 38 40  0  0  0  0  0  0  0  0999 V2000
  176.3350   18.9640   46.7160 C   0  0  0  0  0  0  0  0  0  0  0  0
  177.3010   20.0170   47.2390 C   0  0  0  0  0  0  0  0  0  0  0  0
  178.7120   19.7810   46.7480 C   0  0  0  0  0  0  0  0  0  0  0  0
  178.9350   18.7250   45.8430 C   0  0  0  0  0  0  0  0  0  0  0  0
  180.2160   18.4280   45.3570 C   0  0  0  0  0  0  0  0  0  0  0  0
  180.4480   17.3380   44.3860 C   0  0  0  0  0  0  0  0  0  0  0  0
  180.7790   17.8040   43.1190 O   0  0  0  0  0  0  0  0  0  0  0  0
  181.0210   16.8960   42.1190 C   0  0  0  0  0  0  0  0  0  0  0  0
  181.3340   17.4080   40.8600 C   0  0  0  0  0  0  0  0  0  0  0  0
  181.5930   16.5380   39.7990 C   0  0  0  0  0  0  0  0  0  0  0  0
  181.5380   15.1560   39.9970 C   0  0  0  0  0  0  0  0  0  0  0  0
  181.2260   14.6490   41.2540 C   0  0  0  0  0  0  0  0  0  0  0  0
  181.1910   13.2860   41.3800 O   0  0  0  0  0  0  0  0  0  0  0  0
  180.9660   15.5200   42.3160 C   0  0  0  0  0  0  0  0  0  0  0  0
  180.6330   15.0270   43.6550 C   0  0  0  0  0  0  0  0  0  0  0  0
  180.5730   13.8260   43.9090 O   0  0  0  0  0  0  0  0  0  0  0  0
  180.3680   16.0330   44.7070 C   0  0  0  0  0  0  0  0  0  0  0  0
  180.0670   15.5560   45.9700 O   0  0  0  0  0  0  0  0  0  0  0  0
  181.2870   19.2220   45.7820 C   0  0  0  0  0  0  0  0  0  0  0  0
  181.0840   20.2700   46.6840 C   0  0  0  0  0  0  0  0  0  0  0  0
  179.8050   20.5550   47.1830 C   0  0  0  0  0  0  0  0  0  0  0  0
  179.6400   21.6980   48.1480 C   0  0  0  0  0  0  0  0  0  0  0  0
  175.8613   18.4476   47.5639 H   0  0  0  0  0  0  0  0  0  0  0  0
  175.5609   19.4487   46.1030 H   0  0  0  0  0  0  0  0  0  0  0  0
  176.8846   18.2344   46.1030 H   0  0  0  0  0  0  0  0  0  0  0  0
  176.9665   21.0076   46.8972 H   0  0  0  0  0  0  0  0  0  0  0  0
  177.3078   19.9581   48.3374 H   0  0  0  0  0  0  0  0  0  0  0  0
  178.0813   18.1172   45.5087 H   0  0  0  0  0  0  0  0  0  0  0  0
  181.3768   18.4959   40.7031 H   0  0  0  0  0  0  0  0  0  0  0  0
  181.8407   16.9412   38.8060 H   0  0  0  0  0  0  0  0  0  0  0  0
  181.7409   14.4707   39.1609 H   0  0  0  0  0  0  0  0  0  0  0  0
  181.4860   12.7440   40.6750 H   0  0  0  0  0  0  0  0  0  0  0  0
  180.7160   15.5750   46.6460 H   0  0  0  0  0  0  0  0  0  0  0  0
  182.2992   19.0192   45.4022 H   0  0  0  0  0  0  0  0  0  0  0  0
  181.9402   20.8803   47.0073 H   0  0  0  0  0  0  0  0  0  0  0  0
  179.6948   21.3183   49.1789 H   0  0  0  0  0  0  0  0  0  0  0  0
  180.4412   22.4339   47.9852 H   0  0  0  0  0  0  0  0  0  0  0  0
  178.6634   22.1773   47.9852 H   0  0  0  0  0  0  0  0  0  0  0  0
  1  2  1  0
  2  3  1  0
  3  4  2  0
  4  5  1  0
  5  6  1  0
  6  7  1  0
  7  8  1  0
  8  9  2  0
  9 10  1  0
 10 11  2  0
 11 12  1  0
 12 13  1  0
 12 14  2  0
 14 15  1  0
 15 16  2  0
 15 17  1  0
 17 18  1  0
  5 19  2  0
 19 20  1  0
 20 21  2  0
 21 22  1  0
 21  3  1  0
 17  6  2  0
 14  8  1  0
  1 23  1  0
  1 24  1  0
  1 25  1  0
  2 26  1  0
  2 27  1  0
  4 28  1  0
  9 29  1  0
 10 30  1  0
 11 31  1  0
 13 32  1  0
 18 33  1  0
 19 34  1  0
 20 35  1  0
 22 36  1  0
 22 37  1  0
 22 38  1  0
M  END
>  <meeko>  (5) 
{"is_sidechain": [false], "free_energy": -5.474, "intermolecular_energy": -6.199, "internal_energy": -0.425}

$$$$
cand_028_out
     RDKit          3D

 38 40  0  0  0  0  0  0  0  0999 V2000
  182.8320   21.9670   46.2140 C   0  0  0  0  0  0  0  0  0  0  0  0
  182.8230   20.8760   45.1540 C   0  0  0  0  0  0  0  0  0  0  0  0
  181.6060   19.9860   45.2710 C   0  0  0  0  0  0  0  0  0  0  0  0
  180.4750   20.4860   45.9470 C   0  0  0  0  0  0  0  0  0  0  0  0
  179.3160   19.7170   46.1160 C   0  0  0  0  0  0  0  0  0  0  0  0
  178.1200   20.2510   46.8020 C   0  0  0  0  0  0  0  0  0  0  0  0
  178.3340   21.5060   47.3620 O   0  0  0  0  0  0  0  0  0  0  0  0
  177.3050   22.1180   48.0310 C   0  0  0  0  0  0  0  0  0  0  0  0
  177.5680   23.3680   48.5910 C   0  0  0  0  0  0  0  0  0  0  0  0
  176.5630   24.0470   49.2830 C   0  0  0  0  0  0  0  0  0  0  0  0
  175.2960   23.4760   49.4170 C   0  0  0  0  0  0  0  0  0  0  0  0
  175.0360   22.2280   48.8570 C   0  0  0  0  0  0  0  0  0  0  0  0
  173.7740   21.7260   49.0240 O   0  0  0  0  0  0  0  0  0  0  0  0
  176.0430   21.5480   48.1650 C   0  0  0  0  0  0  0  0  0  0  0  0
  175.8110   20.2340   47.5610 C   0  0  0  0  0  0  0  0  0  0  0  0
  174.7210   19.6700   47.6290 O   0  0  0  0  0  0  0  0  0  0  0  0
  176.9460   19.5960   46.8560 C   0  0  0  0  0  0  0  0  0  0  0  0
  176.7120   18.3610   46.2800 O   0  0  0  0  0  0  0  0  0  0  0  0
  179.2930   18.4250   45.5800 C   0  0  0  0  0  0  0  0  0  0  0  0
  180.4080   17.9110   44.9120 C   0  0  0  0  0  0  0  0  0  0  0  0
  181.5740   18.6750   44.7580 C   0  0  0  0  0  0  0  0  0  0  0  0
  182.7430   18.0760   44.0250 C   0  0  0  0  0  0  0  0  0  0  0  0
  182.8282   21.5073   47.2133 H   0  0  0  0  0  0  0  0  0  0  0  0
  183.7353   22.5839   46.0976 H   0  0  0  0  0  0  0  0  0  0  0  0
  181.9390   22.5987   46.0976 H   0  0  0  0  0  0  0  0  0  0  0  0
  182.8253   21.3463   44.1596 H   0  0  0  0  0  0  0  0  0  0  0  0
  183.7170   20.2519   45.2996 H   0  0  0  0  0  0  0  0  0  0  0  0
  180.5029   21.5079   46.3531 H   0  0  0  0  0  0  0  0  0  0  0  0
  178.5662   23.8186   48.4876 H   0  0  0  0  0  0  0  0  0  0  0  0
  176.7699   25.0335   49.7233 H   0  0  0  0  0  0  0  0  0  0  0  0
  174.5052   24.0107   49.9636 H   0  0  0  0  0  0  0  0  0  0  0  0
  173.2480   21.5250   48.2750 H   0  0  0  0  0  0  0  0  0  0  0  0
  175.8420   18.1160   46.0310 H   0  0  0  0  0  0  0  0  0  0  0  0
  178.3887   17.8076   45.6853 H   0  0  0  0  0  0  0  0  0  0  0  0
  180.3704   16.8915   44.5007 H   0  0  0  0  0  0  0  0  0  0  0  0
  183.4777   17.6995   44.7520 H   0  0  0  0  0  0  0  0  0  0  0  0
  182.3935   17.2459   43.3935 H   0  0  0  0  0  0  0  0  0  0  0  0
  183.2126   18.8445   43.3935 H   0  0  0  0  0  0  0  0  0  0  0  0
  1  2  1  0
  2  3  1  0
  3  4  2  0
  4  5  1  0
  5  6  1  0
  6  7  1  0
  7  8  1  0
  8  9  2  0
  9 10  1  0
 10 11  2  0
 11 12  1  0
 12 13  1  0
 12 14  2  0
 14 15  1  0
 15 16  2  0
 15 17  1  0
 17 18  1  0
  5 19  2  0
 19 20  1  0
 20 21  2  0
 21 22  1  0
 21  3  1  0
 17  6  2  0
 14  8  1  0
  1 23  1  0
  1 24  1  0
  1 25  1  0
  2 26  1  0
  2 27  1  0
  4 28  1  0
  9 29  1  0
 10 30  1  0
 11 31  1  0
 13 32  1  0
 18 33  1  0
 19 34  1  0
 20 35  1  0
 22 36  1  0
 22 37  1  0
 22 38  1  0
M  END
>  <meeko>  (6) 
{"is_sidechain": [false], "free_energy": -5.468, "intermolecular_energy": -6.847, "internal_energy": 0.229}

$$$$
cand_028_out
     RDKit          3D

 38 40  0  0  0  0  0  0  0  0999 V2000
  186.9850   21.2520   43.2030 C   0  0  0  0  0  0  0  0  0  0  0  0
  186.1480   22.5220   43.1710 C   0  0  0  0  0  0  0  0  0  0  0  0
  185.4150   22.7480   44.4730 C   0  0  0  0  0  0  0  0  0  0  0  0
  184.1820   22.0930   44.6670 C   0  0  0  0  0  0  0  0  0  0  0  0
  183.4300   22.2650   45.8370 C   0  0  0  0  0  0  0  0  0  0  0  0
  182.1500   21.5580   46.0520 C   0  0  0  0  0  0  0  0  0  0  0  0
  181.2610   22.2800   46.8420 O   0  0  0  0  0  0  0  0  0  0  0  0
  180.0320   21.7380   47.1220 C   0  0  0  0  0  0  0  0  0  0  0  0
  179.1790   22.4890   47.9300 C   0  0  0  0  0  0  0  0  0  0  0  0
  177.9120   21.9970   48.2520 C   0  0  0  0  0  0  0  0  0  0  0  0
  177.4990   20.7540   47.7670 C   0  0  0  0  0  0  0  0  0  0  0  0
  178.3530   20.0080   46.9600 C   0  0  0  0  0  0  0  0  0  0  0  0
  177.8860   18.8000   46.5170 O   0  0  0  0  0  0  0  0  0  0  0  0
  179.6210   20.5000   46.6390 C   0  0  0  0  0  0  0  0  0  0  0  0
  180.5500   19.7460   45.7940 C   0  0  0  0  0  0  0  0  0  0  0  0
  180.2560   18.6500   45.3230 O   0  0  0  0  0  0  0  0  0  0  0  0
  181.8720   20.3540   45.5200 C   0  0  0  0  0  0  0  0  0  0  0  0
  182.7360   19.6390   44.7100 O   0  0  0  0  0  0  0  0  0  0  0  0
  183.9400   23.1020   46.8350 C   0  0  0  0  0  0  0  0  0  0  0  0
  185.1580   23.7640   46.6580 C   0  0  0  0  0  0  0  0  0  0  0  0
  185.9010   23.6050   45.4790 C   0  0  0  0  0  0  0  0  0  0  0  0
  187.2090   24.3350   45.3410 C   0  0  0  0  0  0  0  0  0  0  0  0
  187.1747   20.9641   44.2476 H   0  0  0  0  0  0  0  0  0  0  0  0
  186.4428   20.4426   42.6923 H   0  0  0  0  0  0  0  0  0  0  0  0
  187.9427   21.4310   42.6923 H   0  0  0  0  0  0  0  0  0  0  0  0
  186.8105   23.3797   42.9826 H   0  0  0  0  0  0  0  0  0  0  0  0
  185.3989   22.4160   42.3725 H   0  0  0  0  0  0  0  0  0  0  0  0
  183.7995   21.4285   43.8783 H   0  0  0  0  0  0  0  0  0  0  0  0
  179.5035   23.4677   48.3133 H   0  0  0  0  0  0  0  0  0  0  0  0
  177.2384   22.5894   48.8886 H   0  0  0  0  0  0  0  0  0  0  0  0
  176.5018   20.3659   48.0221 H   0  0  0  0  0  0  0  0  0  0  0  0
  178.2890   18.3840   45.7810 H   0  0  0  0  0  0  0  0  0  0  0  0
  183.2560   20.0840   44.0710 H   0  0  0  0  0  0  0  0  0  0  0  0
  183.3762   23.2407   47.7693 H   0  0  0  0  0  0  0  0  0  0  0  0
  185.5396   24.4193   47.4549 H   0  0  0  0  0  0  0  0  0  0  0  0
  187.6109   24.5593   46.3401 H   0  0  0  0  0  0  0  0  0  0  0  0
  187.9240   23.7055   44.7910 H   0  0  0  0  0  0  0  0  0  0  0  0
  187.0486   25.2740   44.7910 H   0  0  0  0  0  0  0  0  0  0  0  0
  1  2  1  0
  2  3  1  0
  3  4  2  0
  4  5  1  0
  5  6  1  0
  6  7  1  0
  7  8  1  0
  8  9  2  0
  9 10  1  0
 10 11  2  0
 11 12  1  0
 12 13  1  0
 12 14  2  0
 14 15  1  0
 15 16  2  0
 15 17  1  0
 17 18  1  0
  5 19  2  0
 19 20  1  0
 20 21  2  0
 21 22  1  0
 21  3  1  0
 17  6  2  0
 14  8  1  0
  1 23  1  0
  1 24  1  0
  1 25  1  0
  2 26  1  0
  2 27  1  0
  4 28  1  0
  9 29  1  0
 10 30  1  0
 11 31  1  0
 13 32  1  0
 18 33  1  0
 19 34  1  0
 20 35  1  0
 22 36  1  0
 22 37  1  0
 22 38  1  0
M  END
>  <meeko>  (7) 
{"is_sidechain": [false], "free_energy": -5.4, "intermolecular_energy": -6.536, "internal_energy": -0.002}

$$$$
cand_028_out
     RDKit          3D

 38 40  0  0  0  0  0  0  0  0999 V2000
  178.7970   23.1140   47.3370 C   0  0  0  0  0  0  0  0  0  0  0  0
  179.2000   21.7090   47.7610 C   0  0  0  0  0  0  0  0  0  0  0  0
  180.2730   21.1340   46.8630 C   0  0  0  0  0  0  0  0  0  0  0  0
  181.4470   21.8870   46.6620 C   0  0  0  0  0  0  0  0  0  0  0  0
  182.4800   21.4350   45.8290 C   0  0  0  0  0  0  0  0  0  0  0  0
  183.7230   22.2110   45.6370 C   0  0  0  0  0  0  0  0  0  0  0  0
  184.3220   21.9740   44.4050 O   0  0  0  0  0  0  0  0  0  0  0  0
  185.4870   22.6300   44.0960 C   0  0  0  0  0  0  0  0  0  0  0  0
  186.0620   22.3500   42.8560 C   0  0  0  0  0  0  0  0  0  0  0  0
  187.2470   22.9860   42.4780 C   0  0  0  0  0  0  0  0  0  0  0  0
  187.8560   23.9010   43.3400 C   0  0  0  0  0  0  0  0  0  0  0  0
  187.2800   24.1780   44.5770 C   0  0  0  0  0  0  0  0  0  0  0  0
  187.9280   25.0840   45.3720 O   0  0  0  0  0  0  0  0  0  0  0  0
  186.0940   23.5410   44.9550 C   0  0  0  0  0  0  0  0  0  0  0  0
  185.4560   23.8040   46.2460 C   0  0  0  0  0  0  0  0  0  0  0  0
  185.9270   24.6000   47.0540 O   0  0  0  0  0  0  0  0  0  0  0  0
  184.2060   23.0700   46.5530 C   0  0  0  0  0  0  0  0  0  0  0  0
  183.6050   23.3360   47.7700 O   0  0  0  0  0  0  0  0  0  0  0  0
  182.3290   20.1940   45.2010 C   0  0  0  0  0  0  0  0  0  0  0  0
  181.1690   19.4370   45.3850 C   0  0  0  0  0  0  0  0  0  0  0  0
  180.1290   19.8980   46.2050 C   0  0  0  0  0  0  0  0  0  0  0  0
  178.9030   19.0420   46.3750 C   0  0  0  0  0  0  0  0  0  0  0  0
  178.6202   23.7302   48.2309 H   0  0  0  0  0  0  0  0  0  0  0  0
  179.6031   23.5613   46.7368 H   0  0  0  0  0  0  0  0  0  0  0  0
  177.8764   23.0660   46.7368 H   0  0  0  0  0  0  0  0  0  0  0  0
  179.5809   21.7444   48.7923 H   0  0  0  0  0  0  0  0  0  0  0  0
  178.3124   21.0633   47.6877 H   0  0  0  0  0  0  0  0  0  0  0  0
  181.5558   22.8553   47.1724 H   0  0  0  0  0  0  0  0  0  0  0  0
  185.5829   21.6294   42.1769 H   0  0  0  0  0  0  0  0  0  0  0  0
  187.7010   22.7660   41.5005 H   0  0  0  0  0  0  0  0  0  0  0  0
  188.7890   24.4018   43.0421 H   0  0  0  0  0  0  0  0  0  0  0  0
  188.8640   25.1340   45.3570 H   0  0  0  0  0  0  0  0  0  0  0  0
  182.9130   23.9660   47.8240 H   0  0  0  0  0  0  0  0  0  0  0  0
  183.1324   19.8099   44.5552 H   0  0  0  0  0  0  0  0  0  0  0  0
  181.0702   18.4652   44.8792 H   0  0  0  0  0  0  0  0  0  0  0  0
  178.7003   18.9005   47.4469 H   0  0  0  0  0  0  0  0  0  0  0  0
  178.0421   19.5363   45.9012 H   0  0  0  0  0  0  0  0  0  0  0  0
  179.0704   18.0635   45.9012 H   0  0  0  0  0  0  0  0  0  0  0  0
  1  2  1  0
  2  3  1  0
  3  4  2  0
  4  5  1  0
  5  6  1  0
  6  7  1  0
  7  8  1  0
  8  9  2  0
  9 10  1  0
 10 11  2  0
 11 12  1  0
 12 13  1  0
 12 14  2  0
 14 15  1  0
 15 16  2  0
 15 17  1  0
 17 18  1  0
  5 19  2  0
 19 20  1  0
 20 21  2  0
 21 22  1  0
 21  3  1  0
 17  6  2  0
 14  8  1  0
  1 23  1  0
  1 24  1  0
  1 25  1  0
  2 26  1  0
  2 27  1  0
  4 28  1  0
  9 29  1  0
 10 30  1  0
 11 31  1  0
 13 32  1  0
 18 33  1  0
 19 34  1  0
 20 35  1  0
 22 36  1  0
 22 37  1  0
 22 38  1  0
M  END
>  <meeko>  (8) 
{"is_sidechain": [false], "free_energy": -5.241, "intermolecular_energy": -6.375, "internal_energy": 0.023}

$$$$
cand_028_out
     RDKit          3D

 38 40  0  0  0  0  0  0  0  0999 V2000
  178.5460   22.8640   47.3820 C   0  0  0  0  0  0  0  0  0  0  0  0
  179.2440   21.6010   47.8650 C   0  0  0  0  0  0  0  0  0  0  0  0
  180.4300   21.2450   46.9970 C   0  0  0  0  0  0  0  0  0  0  0  0
  181.5270   22.1300   46.9730 C   0  0  0  0  0  0  0  0  0  0  0  0
  182.6570   21.8830   46.1800 C   0  0  0  0  0  0  0  0  0  0  0  0
  183.8190   22.7960   46.1740 C   0  0  0  0  0  0  0  0  0  0  0  0
  184.0720   23.3560   47.4220 O   0  0  0  0  0  0  0  0  0  0  0  0
  185.1250   24.2250   47.5580 C   0  0  0  0  0  0  0  0  0  0  0  0
  185.3320   24.7750   48.8230 C   0  0  0  0  0  0  0  0  0  0  0  0
  186.3880   25.6660   49.0320 C   0  0  0  0  0  0  0  0  0  0  0  0
  187.2350   26.0060   47.9750 C   0  0  0  0  0  0  0  0  0  0  0  0
  187.0260   25.4560   46.7140 C   0  0  0  0  0  0  0  0  0  0  0  0
  187.8930   25.8310   45.7230 O   0  0  0  0  0  0  0  0  0  0  0  0
  185.9680   24.5650   46.5050 C   0  0  0  0  0  0  0  0  0  0  0  0
  185.7130   23.9640   45.1950 C   0  0  0  0  0  0  0  0  0  0  0  0
  186.4190   24.2080   44.2190 O   0  0  0  0  0  0  0  0  0  0  0  0
  184.5630   23.0390   45.0790 C   0  0  0  0  0  0  0  0  0  0  0  0
  184.3390   22.4670   43.8400 O   0  0  0  0  0  0  0  0  0  0  0  0
  182.6840   20.7160   45.4090 C   0  0  0  0  0  0  0  0  0  0  0  0
  181.6020   19.8310   45.4170 C   0  0  0  0  0  0  0  0  0  0  0  0
  180.4650   20.0870   46.1980 C   0  0  0  0  0  0  0  0  0  0  0  0
  179.3310   19.0990   46.1740 C   0  0  0  0  0  0  0  0  0  0  0  0
  178.2186   23.4564   48.2491 H   0  0  0  0  0  0  0  0  0  0  0  0
  179.2435   23.4587   46.7739 H   0  0  0  0  0  0  0  0  0  0  0  0
  177.6713   22.5898   46.7739 H   0  0  0  0  0  0  0  0  0  0  0  0
  179.5928   21.7596   48.8961 H   0  0  0  0  0  0  0  0  0  0  0  0
  178.5228   20.7720   47.8134 H   0  0  0  0  0  0  0  0  0  0  0  0
  181.4958   23.0383   47.5927 H   0  0  0  0  0  0  0  0  0  0  0  0
  184.6645   24.5076   49.6554 H   0  0  0  0  0  0  0  0  0  0  0  0
  186.5522   26.0997   50.0295 H   0  0  0  0  0  0  0  0  0  0  0  0
  188.0662   26.7076   48.1390 H   0  0  0  0  0  0  0  0  0  0  0  0
  188.1510   25.2120   45.0680 H   0  0  0  0  0  0  0  0  0  0  0  0
  185.0540   22.3320   43.2500 H   0  0  0  0  0  0  0  0  0  0  0  0
  183.5656   20.4925   44.7902 H   0  0  0  0  0  0  0  0  0  0  0  0
  181.6427   18.9201   44.8017 H   0  0  0  0  0  0  0  0  0  0  0  0
  179.0421   18.8473   47.2051 H   0  0  0  0  0  0  0  0  0  0  0  0
  178.4708   19.5408   45.6497 H   0  0  0  0  0  0  0  0  0  0  0  0
  179.6508   18.1864   45.6497 H   0  0  0  0  0  0  0  0  0  0  0  0
  1  2  1  0
  2  3  1  0
  3  4  2  0
  4  5  1  0
  5  6  1  0
  6  7  1  0
  7  8  1  0
  8  9  2  0
  9 10  1  0
 10 11  2  0
 11 12  1  0
 12 13  1  0
 12 14  2  0
 14 15  1  0
 15 16  2  0
 15 17  1  0
 17 18  1  0
  5 19  2  0
 19 20  1  0
 20 21  2  0
 21 22  1  0
 21  3  1  0
 17  6  2  0
 14  8  1  0
  1 23  1  0
  1 24  1  0
  1 25  1  0
  2 26  1  0
  2 27  1  0
  4 28  1  0
  9 29  1  0
 10 30  1  0
 11 31  1  0
 13 32  1  0
 18 33  1  0
 19 34  1  0
 20 35  1  0
 22 36  1  0
 22 37  1  0
 22 38  1  0
M  END
>  <meeko>  (9) 
{"is_sidechain": [false], "free_energy": -5.227, "intermolecular_energy": -6.29, "internal_energy": -0.045}

$$$$
