cand_043_out
     RDKit          3D

 44 46  0  0  0  0  0  0  0  0999 V2000
  179.2140   15.1620   45.4220 C   0  0  0  0  0  0  0  0  0  0  0  0
  179.9160   16.4170   44.9730 C   0  0  0  0  0  0  0  0  0  0  0  0
  179.7070   17.5530   45.7940 C   0  0  0  0  0  0  0  0  0  0  0  0
  180.2880   18.7960   45.5240 C   0  0  0  0  0  0  0  0  0  0  0  0
  180.0060   19.9550   46.3980 C   0  0  0  0  0  0  0  0  0  0  0  0
  178.6680   20.3340   46.3770 O   0  0  0  0  0  0  0  0  0  0  0  0
  178.2690   21.3980   47.1440 C   0  0  0  0  0  0  0  0  0  0  0  0
  176.9210   21.7530   47.0820 C   0  0  0  0  0  0  0  0  0  0  0  0
  176.4470   22.8270   47.8400 C   0  0  0  0  0  0  0  0  0  0  0  0
  177.3210   23.5450   48.6590 C   0  0  0  0  0  0  0  0  0  0  0  0
  178.6660   23.1890   48.7190 C   0  0  0  0  0  0  0  0  0  0  0  0
  179.4660   23.9350   49.5400 O   0  0  0  0  0  0  0  0  0  0  0  0
  179.1390   22.1150   47.9590 C   0  0  0  0  0  0  0  0  0  0  0  0
  180.5450   21.7080   47.9930 C   0  0  0  0  0  0  0  0  0  0  0  0
  181.3730   22.2860   48.6940 O   0  0  0  0  0  0  0  0  0  0  0  0
  180.9470   20.5620   47.1460 C   0  0  0  0  0  0  0  0  0  0  0  0
  182.2740   20.1790   47.1950 O   0  0  0  0  0  0  0  0  0  0  0  0
  181.0870   18.9000   44.3930 C   0  0  0  0  0  0  0  0  0  0  0  0
  181.3190   17.7860   43.5770 C   0  0  0  0  0  0  0  0  0  0  0  0
  180.7670   16.5100   43.8410 C   0  0  0  0  0  0  0  0  0  0  0  0
  181.0930   15.3360   42.8780 C   0  0  0  0  0  0  0  0  0  0  0  0
  180.5800   15.5760   41.4390 C   0  0  0  0  0  0  0  0  0  0  0  0
  180.4470   13.9880   43.3100 C   0  0  0  0  0  0  0  0  0  0  0  0
  182.6180   15.1030   42.8610 C   0  0  0  0  0  0  0  0  0  0  0  0
  179.1940   15.1263   46.5212 H   0  0  0  0  0  0  0  0  0  0  0  0
  178.1838   15.1601   45.0363 H   0  0  0  0  0  0  0  0  0  0  0  0
  179.7515   14.2832   45.0363 H   0  0  0  0  0  0  0  0  0  0  0  0
  179.0618   17.4530   46.6793 H   0  0  0  0  0  0  0  0  0  0  0  0
  176.2320   21.1879   46.4370 H   0  0  0  0  0  0  0  0  0  0  0  0
  175.3844   23.1071   47.7915 H   0  0  0  0  0  0  0  0  0  0  0  0
  176.9477   24.3903   49.2557 H   0  0  0  0  0  0  0  0  0  0  0  0
  180.1980   23.5360   49.9690 H   0  0  0  0  0  0  0  0  0  0  0  0
  182.7030   19.8790   46.4180 H   0  0  0  0  0  0  0  0  0  0  0  0
  181.5424   19.8676   44.1355 H   0  0  0  0  0  0  0  0  0  0  0  0
  181.9592   17.9082   42.6909 H   0  0  0  0  0  0  0  0  0  0  0  0
  179.5843   16.0418   41.4776 H   0  0  0  0  0  0  0  0  0  0  0  0
  181.2760   16.2420   40.9079 H   0  0  0  0  0  0  0  0  0  0  0  0
  180.5148   14.6149   40.9079 H   0  0  0  0  0  0  0  0  0  0  0  0
  180.4192   13.9300   44.4081 H   0  0  0  0  0  0  0  0  0  0  0  0
  179.4226   13.9287   42.9136 H   0  0  0  0  0  0  0  0  0  0  0  0
  181.0425   13.1524   42.9136 H   0  0  0  0  0  0  0  0  0  0  0  0
  182.9917   15.0459   43.8940 H   0  0  0  0  0  0  0  0  0  0  0  0
  182.8391   14.1606   42.3384 H   0  0  0  0  0  0  0  0  0  0  0  0
  183.1104   15.9363   42.3384 H   0  0  0  0  0  0  0  0  0  0  0  0
  1  2  1  0
  2  3  2  0
  3  4  1  0
  4  5  1  0
  5  6  1  0
  6  7  1  0
  7  8  2  0
  8  9  1  0
  9 10  2  0
 10 11  1  0
 11 12  1  0
 11 13  2  0
 13 14  1  0
 14 15  2  0
 14 16  1  0
 16 17  1  0
  4 18  2  0
 18 19  1  0
 19 20  2  0
 20 21  1  0
 21 22  1  0
 21 23  1  0
 21 24  1  0
 20  2  1  0
 16  5  2  0
 13  7  1  0
  1 25  1  0
  1 26  1  0
  1 27  1  0
  3 28  1  0
  8 29  1  0
  9 30  1  0
 10 31  1  0
 12 32  1  0
 17 33  1  0
 18 34  1  0
 19 35  1  0
 22 36  1  0
 22 37  1  0
 22 38  1  0
 23 39  1  0
 23 40  1  0
 23 41  1  0
 24 42  1  0
 24 43  1  0
 24 44  1  0
M  END
>  <meeko>  (1) 
{"is_sidechain": [false], "free_energy": -8.678, "intermolecular_energy": -10.199, "internal_energy": 0.373}

$$$$
cand_043_out
     RDKit          3D

 44 46  0  0  0  0  0  0  0  0999 V2000
  174.9400   19.6990   47.1490 C   0  0  0  0  0  0  0  0  0  0  0  0
  176.3940   20.0780   47.2540 C   0  0  0  0  0  0  0  0  0  0  0  0
  177.2840   19.2670   46.5060 C   0  0  0  0  0  0  0  0  0  0  0  0
  178.6660   19.4830   46.4880 C   0  0  0  0  0  0  0  0  0  0  0  0
  179.5500   18.5830   45.7160 C   0  0  0  0  0  0  0  0  0  0  0  0
  179.1040   17.2660   45.7070 O   0  0  0  0  0  0  0  0  0  0  0  0
  179.8330   16.3250   45.0270 C   0  0  0  0  0  0  0  0  0  0  0  0
  179.3570   15.0130   45.0570 C   0  0  0  0  0  0  0  0  0  0  0  0
  180.0510   14.0050   44.3830 C   0  0  0  0  0  0  0  0  0  0  0  0
  181.2190   14.3080   43.6800 C   0  0  0  0  0  0  0  0  0  0  0  0
  181.6910   15.6180   43.6520 C   0  0  0  0  0  0  0  0  0  0  0  0
  182.8410   15.8450   42.9460 O   0  0  0  0  0  0  0  0  0  0  0  0
  180.9980   16.6260   44.3280 C   0  0  0  0  0  0  0  0  0  0  0  0
  181.4600   18.0150   44.3250 C   0  0  0  0  0  0  0  0  0  0  0  0
  182.4750   18.3610   43.7230 O   0  0  0  0  0  0  0  0  0  0  0  0
  180.6570   19.0060   45.0770 C   0  0  0  0  0  0  0  0  0  0  0  0
  181.0960   20.3170   45.0560 O   0  0  0  0  0  0  0  0  0  0  0  0
  179.1630   20.5320   47.2520 C   0  0  0  0  0  0  0  0  0  0  0  0
  178.2990   21.3540   47.9850 C   0  0  0  0  0  0  0  0  0  0  0  0
  176.8950   21.1760   48.0000 C   0  0  0  0  0  0  0  0  0  0  0  0
  176.0230   22.1490   48.8400 C   0  0  0  0  0  0  0  0  0  0  0  0
  175.5580   21.5370   50.1810 C   0  0  0  0  0  0  0  0  0  0  0  0
  174.7110   22.5760   48.1220 C   0  0  0  0  0  0  0  0  0  0  0  0
  176.8190   23.4450   49.1010 C   0  0  0  0  0  0  0  0  0  0  0  0
  174.5161   19.5885   48.1580 H   0  0  0  0  0  0  0  0  0  0  0  0
  174.3945   20.4850   46.6062 H   0  0  0  0  0  0  0  0  0  0  0  0
  174.8476   18.7468   46.6062 H   0  0  0  0  0  0  0  0  0  0  0  0
  176.8716   18.4349   45.9164 H   0  0  0  0  0  0  0  0  0  0  0  0
  178.4371   14.7732   45.6104 H   0  0  0  0  0  0  0  0  0  0  0  0
  179.6767   12.9709   44.4061 H   0  0  0  0  0  0  0  0  0  0  0  0
  181.7649   13.5139   43.1496 H   0  0  0  0  0  0  0  0  0  0  0  0
  183.4230   16.5320   43.2070 H   0  0  0  0  0  0  0  0  0  0  0  0
  181.0490   20.8380   45.8330 H   0  0  0  0  0  0  0  0  0  0  0  0
  180.2467   20.7184   47.2811 H   0  0  0  0  0  0  0  0  0  0  0  0
  178.7307   22.1752   48.5759 H   0  0  0  0  0  0  0  0  0  0  0  0
  175.9920   22.1083   51.0148 H   0  0  0  0  0  0  0  0  0  0  0  0
  174.4604   21.5770   50.2413 H   0  0  0  0  0  0  0  0  0  0  0  0
  175.8907   20.4902   50.2413 H   0  0  0  0  0  0  0  0  0  0  0  0
  173.9465   22.8248   48.8727 H   0  0  0  0  0  0  0  0  0  0  0  0
  174.9073   23.4566   47.4927 H   0  0  0  0  0  0  0  0  0  0  0  0
  174.3514   21.7485   47.4927 H   0  0  0  0  0  0  0  0  0  0  0  0
  176.9163   23.6035   50.1852 H   0  0  0  0  0  0  0  0  0  0  0  0
  177.8194   23.3576   48.6519 H   0  0  0  0  0  0  0  0  0  0  0  0
  176.2887   24.2977   48.6519 H   0  0  0  0  0  0  0  0  0  0  0  0
  1  2  1  0
  2  3  2  0
  3  4  1  0
  4  5  1  0
  5  6  1  0
  6  7  1  0
  7  8  2  0
  8  9  1  0
  9 10  2  0
 10 11  1  0
 11 12  1  0
 11 13  2  0
 13 14  1  0
 14 15  2  0
 14 16  1  0
 16 17  1  0
  4 18  2  0
 18 19  1  0
 19 20  2  0
 20 21  1  0
 21 22  1  0
 21 23  1  0
 21 24  1  0
 20  2  1  0
 16  5  2  0
 13  7  1  0
  1 25  1  0
  1 26  1  0
  1 27  1  0
  3 28  1  0
  8 29  1  0
  9 30  1  0
 10 31  1  0
 12 32  1  0
 17 33  1  0
 18 34  1  0
 19 35  1  0
 22 36  1  0
 22 37  1  0
 22 38  1  0
 23 39  1  0
 23 40  1  0
 23 41  1  0
 24 42  1  0
 24 43  1  0
 24 44  1  0
M  END
>  <meeko>  (2) 
{"is_sidechain": [false], "free_energy": -6.978, "intermolecular_energy": -8.029, "internal_energy": 0.2}

$$$$
cand_043_out
     RDKit          3D

 44 46  0  0  0  0  0  0  0  0999 V2000
  182.6610   17.7730   43.1480 C   0  0  0  0  0  0  0  0  0  0  0  0
  181.4720   17.6130   44.0590 C   0  0  0  0  0  0  0  0  0  0  0  0
  181.1650   18.7460   44.8540 C   0  0  0  0  0  0  0  0  0  0  0  0
  180.0910   18.7690   45.7500 C   0  0  0  0  0  0  0  0  0  0  0  0
  179.8390   19.9670   46.5790 C   0  0  0  0  0  0  0  0  0  0  0  0
  178.5020   20.3500   46.5840 O   0  0  0  0  0  0  0  0  0  0  0  0
  178.1300   21.4490   47.3150 C   0  0  0  0  0  0  0  0  0  0  0  0
  176.7820   21.8050   47.2800 C   0  0  0  0  0  0  0  0  0  0  0  0
  176.3350   22.9140   48.0030 C   0  0  0  0  0  0  0  0  0  0  0  0
  177.2360   23.6640   48.7610 C   0  0  0  0  0  0  0  0  0  0  0  0
  178.5810   23.3060   48.7950 C   0  0  0  0  0  0  0  0  0  0  0  0
  179.4090   24.0850   49.5560 O   0  0  0  0  0  0  0  0  0  0  0  0
  179.0280   22.1980   48.0690 C   0  0  0  0  0  0  0  0  0  0  0  0
  180.4320   21.7870   48.0770 C   0  0  0  0  0  0  0  0  0  0  0  0
  181.2840   22.3930   48.7250 O   0  0  0  0  0  0  0  0  0  0  0  0
  180.8050   20.6030   47.2690 C   0  0  0  0  0  0  0  0  0  0  0  0
  182.1320   20.2170   47.2940 O   0  0  0  0  0  0  0  0  0  0  0  0
  179.3170   17.6210   45.8550 C   0  0  0  0  0  0  0  0  0  0  0  0
  179.5930   16.4970   45.0670 C   0  0  0  0  0  0  0  0  0  0  0  0
  180.6560   16.4550   44.1330 C   0  0  0  0  0  0  0  0  0  0  0  0
  180.8730   15.1620   43.3010 C   0  0  0  0  0  0  0  0  0  0  0  0
  182.3660   14.8110   43.1090 C   0  0  0  0  0  0  0  0  0  0  0  0
  180.2990   15.2550   41.8580 C   0  0  0  0  0  0  0  0  0  0  0  0
  180.1410   13.9890   43.9870 C   0  0  0  0  0  0  0  0  0  0  0  0
  183.5720   17.8956   43.7522 H   0  0  0  0  0  0  0  0  0  0  0  0
  182.7594   16.8800   42.5133 H   0  0  0  0  0  0  0  0  0  0  0  0
  182.5198   18.6602   42.5133 H   0  0  0  0  0  0  0  0  0  0  0  0
  181.7962   19.6423   44.7627 H   0  0  0  0  0  0  0  0  0  0  0  0
  176.0715   21.2134   46.6839 H   0  0  0  0  0  0  0  0  0  0  0  0
  175.2722   23.1963   47.9749 H   0  0  0  0  0  0  0  0  0  0  0  0
  176.8837   24.5366   49.3306 H   0  0  0  0  0  0  0  0  0  0  0  0
  180.2920   23.8140   49.7150 H   0  0  0  0  0  0  0  0  0  0  0  0
  182.7050   20.5540   47.9540 H   0  0  0  0  0  0  0  0  0  0  0  0
  178.4775   17.5943   46.5653 H   0  0  0  0  0  0  0  0  0  0  0  0
  178.9557   15.6074   45.1786 H   0  0  0  0  0  0  0  0  0  0  0  0
  182.8456   14.6983   44.0925 H   0  0  0  0  0  0  0  0  0  0  0  0
  182.4519   13.8682   42.5489 H   0  0  0  0  0  0  0  0  0  0  0  0
  182.8630   15.6168   42.5489 H   0  0  0  0  0  0  0  0  0  0  0  0
  179.2142   15.4308   41.9055 H   0  0  0  0  0  0  0  0  0  0  0  0
  180.7821   16.0866   41.3241 H   0  0  0  0  0  0  0  0  0  0  0  0
  180.4948   14.3134   41.3241 H   0  0  0  0  0  0  0  0  0  0  0  0
  180.2111   14.1014   45.0790 H   0  0  0  0  0  0  0  0  0  0  0  0
  179.0831   13.9903   43.6855 H   0  0  0  0  0  0  0  0  0  0  0  0
  180.6071   13.0393   43.6855 H   0  0  0  0  0  0  0  0  0  0  0  0
  1  2  1  0
  2  3  2  0
  3  4  1  0
  4  5  1  0
  5  6  1  0
  6  7  1  0
  7  8  2  0
  8  9  1  0
  9 10  2  0
 10 11  1  0
 11 12  1  0
 11 13  2  0
 13 14  1  0
 14 15  2  0
 14 16  1  0
 16 17  1  0
  4 18  2  0
 18 19  1  0
 19 20  2  0
 20 21  1  0
 21 22  1  0
 21 23  1  0
 21 24  1  0
 20  2  1  0
 16  5  2  0
 13  7  1  0
  1 25  1  0
  1 26  1  0
  1 27  1  0
  3 28  1  0
  8 29  1  0
  9 30  1  0
 10 31  1  0
 12 32  1  0
 17 33  1  0
 18 34  1  0
 19 35  1  0
 22 36  1  0
 22 37  1  0
 22 38  1  0
 23 39  1  0
 23 40  1  0
 23 41  1  0
 24 42  1  0
 24 43  1  0
 24 44  1  0
M  END
>  <meeko>  (3) 
{"is_sidechain": [false], "free_energy": -6.89, "intermolecular_energy": -7.922, "internal_energy": 0.196}

$$$$
cand_043_out
     RDKit          3D

 44 46  0  0  0  0  0  0  0  0999 V2000
  185.2860   24.3800   47.6270 C   0  0  0  0  0  0  0  0  0  0  0  0
  184.7870   23.4500   46.5510 C   0  0  0  0  0  0  0  0  0  0  0  0
  183.5090   22.8850   46.7860 C   0  0  0  0  0  0  0  0  0  0  0  0
  182.8960   22.0060   45.8870 C   0  0  0  0  0  0  0  0  0  0  0  0
  181.5750   21.4210   46.2020 C   0  0  0  0  0  0  0  0  0  0  0  0
  180.7470   22.2970   46.8960 O   0  0  0  0  0  0  0  0  0  0  0  0
  179.4910   21.8800   47.2530 C   0  0  0  0  0  0  0  0  0  0  0  0
  178.7000   22.7850   47.9610 C   0  0  0  0  0  0  0  0  0  0  0  0
  177.4090   22.4250   48.3530 C   0  0  0  0  0  0  0  0  0  0  0  0
  176.9090   21.1600   48.0380 C   0  0  0  0  0  0  0  0  0  0  0  0
  177.7000   20.2580   47.3320 C   0  0  0  0  0  0  0  0  0  0  0  0
  177.1490   19.0360   47.0560 O   0  0  0  0  0  0  0  0  0  0  0  0
  178.9930   20.6190   46.9400 C   0  0  0  0  0  0  0  0  0  0  0  0
  179.8570   19.7010   46.1970 C   0  0  0  0  0  0  0  0  0  0  0  0
  179.4860   18.5730   45.8770 O   0  0  0  0  0  0  0  0  0  0  0  0
  181.2120   20.1770   45.8350 C   0  0  0  0  0  0  0  0  0  0  0  0
  182.0150   19.3060   45.1230 O   0  0  0  0  0  0  0  0  0  0  0  0
  183.5930   21.6790   44.7310 C   0  0  0  0  0  0  0  0  0  0  0  0
  184.8500   22.2390   44.4720 C   0  0  0  0  0  0  0  0  0  0  0  0
  185.4820   23.1520   45.3500 C   0  0  0  0  0  0  0  0  0  0  0  0
  186.8750   23.7220   44.9660 C   0  0  0  0  0  0  0  0  0  0  0  0
  186.9060   25.2660   44.9310 C   0  0  0  0  0  0  0  0  0  0  0  0
  187.3510   23.2810   43.5520 C   0  0  0  0  0  0  0  0  0  0  0  0
  187.9280   23.1970   45.9640 C   0  0  0  0  0  0  0  0  0  0  0  0
  185.0573   23.9538   48.6150 H   0  0  0  0  0  0  0  0  0  0  0  0
  186.3738   24.5078   47.5257 H   0  0  0  0  0  0  0  0  0  0  0  0
  184.7910   25.3571   47.5257 H   0  0  0  0  0  0  0  0  0  0  0  0
  182.9777   23.1482   47.7125 H   0  0  0  0  0  0  0  0  0  0  0  0
  179.0930   23.7817   48.2104 H   0  0  0  0  0  0  0  0  0  0  0  0
  176.7851   23.1390   48.9107 H   0  0  0  0  0  0  0  0  0  0  0  0
  175.8920   20.8767   48.3471 H   0  0  0  0  0  0  0  0  0  0  0  0
  177.4220   18.5590   46.2970 H   0  0  0  0  0  0  0  0  0  0  0  0
  181.8280   19.1270   44.2230 H   0  0  0  0  0  0  0  0  0  0  0  0
  183.1530   20.9728   44.0115 H   0  0  0  0  0  0  0  0  0  0  0  0
  185.3698   21.9568   43.5445 H   0  0  0  0  0  0  0  0  0  0  0  0
  186.9138   25.6560   45.9595 H   0  0  0  0  0  0  0  0  0  0  0  0
  187.8111   25.6027   44.4043 H   0  0  0  0  0  0  0  0  0  0  0  0
  186.0152   25.6388   44.4043 H   0  0  0  0  0  0  0  0  0  0  0  0
  188.1546   22.5365   43.6513 H   0  0  0  0  0  0  0  0  0  0  0  0
  186.5071   22.8385   43.0025 H   0  0  0  0  0  0  0  0  0  0  0  0
  187.7279   24.1562   43.0025 H   0  0  0  0  0  0  0  0  0  0  0  0
  187.5779   23.3716   46.9921 H   0  0  0  0  0  0  0  0  0  0  0  0
  188.0777   22.1188   45.8057 H   0  0  0  0  0  0  0  0  0  0  0  0
  188.8792   23.7264   45.8057 H   0  0  0  0  0  0  0  0  0  0  0  0
  1  2  1  0
  2  3  2  0
  3  4  1  0
  4  5  1  0
  5  6  1  0
  6  7  1  0
  7  8  2  0
  8  9  1  0
  9 10  2  0
 10 11  1  0
 11 12  1  0
 11 13  2  0
 13 14  1  0
 14 15  2  0
 14 16  1  0
 16 17  1  0
  4 18  2  0
 18 19  1  0
 19 20  2  0
 20 21  1  0
 21 22  1  0
 21 23  1  0
 21 24  1  0
 20  2  1  0
 16  5  2  0
 13  7  1  0
  1 25  1  0
  1 26  1  0
  1 27  1  0
  3 28  1  0
  8 29  1  0
  9 30  1  0
 10 31  1  0
 12 32  1  0
 17 33  1  0
 18 34  1  0
 19 35  1  0
 22 36  1  0
 22 37  1  0
 22 38  1  0
 23 39  1  0
 23 40  1  0
 23 41  1  0
 24 42  1  0
 24 43  1  0
 24 44  1  0
M  END
>  <meeko>  (4) 
{"is_sidechain": [false], "free_energy": -5.764, "intermolecular_energy": -6.586, "internal_energy": 0.184}

$$$$
