cand_031_out
     RDKit          3D

 36 38  0  0  0  0  0  0  0  0999 V2000
  178.8990   14.0560   44.1570 C   0  0  0  0  0  0  0  0  0  0  0  0
  180.0130   14.5150   44.7400 C   0  0  0  0  0  0  0  0  0  0  0  0
  180.4970   15.8960   44.5880 C   0  0  0  0  0  0  0  0  0  0  0  0
  179.9620   16.9100   45.4030 C   0  0  0  0  0  0  0  0  0  0  0  0
  180.3650   18.2480   45.2730 C   0  0  0  0  0  0  0  0  0  0  0  0
  179.7980   19.2770   46.1720 C   0  0  0  0  0  0  0  0  0  0  0  0
  178.4080   19.2590   46.2020 O   0  0  0  0  0  0  0  0  0  0  0  0
  177.7500   20.1640   46.9950 C   0  0  0  0  0  0  0  0  0  0  0  0
  176.3560   20.1020   47.0050 C   0  0  0  0  0  0  0  0  0  0  0  0
  175.6250   20.9960   47.7900 C   0  0  0  0  0  0  0  0  0  0  0  0
  176.2870   21.9510   48.5640 C   0  0  0  0  0  0  0  0  0  0  0  0
  177.6780   22.0110   48.5520 C   0  0  0  0  0  0  0  0  0  0  0  0
  178.2610   22.9710   49.3330 O   0  0  0  0  0  0  0  0  0  0  0  0
  178.4090   21.1160   47.7660 C   0  0  0  0  0  0  0  0  0  0  0  0
  179.8720   21.1440   47.7260 C   0  0  0  0  0  0  0  0  0  0  0  0
  180.5260   21.9600   48.3730 O   0  0  0  0  0  0  0  0  0  0  0  0
  180.5520   20.1480   46.8660 C   0  0  0  0  0  0  0  0  0  0  0  0
  181.9330   20.1930   46.8230 O   0  0  0  0  0  0  0  0  0  0  0  0
  181.3280   18.5610   44.3100 C   0  0  0  0  0  0  0  0  0  0  0  0
  181.8610   17.5680   43.4860 C   0  0  0  0  0  0  0  0  0  0  0  0
  181.4560   16.2310   43.6130 C   0  0  0  0  0  0  0  0  0  0  0  0
  182.0570   15.1950   42.7000 C   0  0  0  0  0  0  0  0  0  0  0  0
  178.5889   13.0116   44.3091 H   0  0  0  0  0  0  0  0  0  0  0  0
  178.2936   14.7231   43.5258 H   0  0  0  0  0  0  0  0  0  0  0  0
  180.5970   13.8237   45.3653 H   0  0  0  0  0  0  0  0  0  0  0  0
  179.2092   16.6477   46.1609 H   0  0  0  0  0  0  0  0  0  0  0  0
  175.8337   19.3499   46.3954 H   0  0  0  0  0  0  0  0  0  0  0  0
  174.5261   20.9478   47.7986 H   0  0  0  0  0  0  0  0  0  0  0  0
  175.7106   22.6549   49.1823 H   0  0  0  0  0  0  0  0  0  0  0  0
  179.1820   23.1320   49.2700 H   0  0  0  0  0  0  0  0  0  0  0  0
  182.3990   20.8060   47.3580 H   0  0  0  0  0  0  0  0  0  0  0  0
  181.6697   19.6008   44.2000 H   0  0  0  0  0  0  0  0  0  0  0  0
  182.6093   17.8379   42.7263 H   0  0  0  0  0  0  0  0  0  0  0  0
  182.5188   14.3989   43.3025 H   0  0  0  0  0  0  0  0  0  0  0  0
  181.2687   14.7640   42.0653 H   0  0  0  0  0  0  0  0  0  0  0  0
  182.8225   15.6654   42.0653 H   0  0  0  0  0  0  0  0  0  0  0  0
  1  2  2  0
  2  3  1  0
  3  4  2  0
  4  5  1  0
  5  6  1  0
  6  7  1  0
  7  8  1  0
  8  9  2  0
  9 10  1  0
 10 11  2  0
 11 12  1  0
 12 13  1  0
 12 14  2  0
 14 15  1  0
 15 16  2  0
 15 17  1  0
 17 18  1  0
  5 19  2  0
 19 20  1  0
 20 21  2  0
 21 22  1  0
 21  3  1  0
 17  6  2  0
 14  8  1  0
  1 23  1  0
  1 24  1  0
  2 25  1  0
  4 26  1  0
  9 27  1  0
 10 28  1  0
 11 29  1  0
 13 30  1  0
 18 31  1  0
 19 32  1  0
 20 33  1  0
 22 34  1  0
 22 35  1  0
 22 36  1  0
M  END
>  <meeko>  (1) 
{"is_sidechain": [false], "free_energy": -7.767, "intermolecular_energy": -9.13, "internal_energy": -0.213}

$$$$
cand_031_out
     RDKit          3D

 36 38  0  0  0  0  0  0  0  0999 V2000
  174.7560   19.9110   47.2630 C   0  0  0  0  0  0  0  0  0  0  0  0
  175.5500   20.9500   46.9750 C   0  0  0  0  0  0  0  0  0  0  0  0
  177.0130   20.9160   47.1190 C   0  0  0  0  0  0  0  0  0  0  0  0
  177.7570   19.9580   46.4050 C   0  0  0  0  0  0  0  0  0  0  0  0
  179.1510   19.8630   46.5350 C   0  0  0  0  0  0  0  0  0  0  0  0
  179.8960   18.8600   45.7420 C   0  0  0  0  0  0  0  0  0  0  0  0
  179.3060   17.6020   45.7740 O   0  0  0  0  0  0  0  0  0  0  0  0
  179.8950   16.5750   45.0820 C   0  0  0  0  0  0  0  0  0  0  0  0
  179.2630   15.3320   45.1300 C   0  0  0  0  0  0  0  0  0  0  0  0
  179.8120   14.2450   44.4480 C   0  0  0  0  0  0  0  0  0  0  0  0
  180.9920   14.3990   43.7180 C   0  0  0  0  0  0  0  0  0  0  0  0
  181.6210   15.6400   43.6710 C   0  0  0  0  0  0  0  0  0  0  0  0
  182.7740   15.7210   42.9380 O   0  0  0  0  0  0  0  0  0  0  0  0
  181.0710   16.7290   44.3540 C   0  0  0  0  0  0  0  0  0  0  0  0
  181.7010   18.0500   44.3300 C   0  0  0  0  0  0  0  0  0  0  0  0
  182.7440   18.2640   43.7170 O   0  0  0  0  0  0  0  0  0  0  0  0
  181.0340   19.1390   45.0810 C   0  0  0  0  0  0  0  0  0  0  0  0
  181.6450   20.3790   45.0650 O   0  0  0  0  0  0  0  0  0  0  0  0
  179.8010   20.7540   47.3940 C   0  0  0  0  0  0  0  0  0  0  0  0
  179.0760   21.7030   48.1170 C   0  0  0  0  0  0  0  0  0  0  0  0
  177.6820   21.7970   47.9910 C   0  0  0  0  0  0  0  0  0  0  0  0
  176.9430   22.8340   48.7930 C   0  0  0  0  0  0  0  0  0  0  0  0
  173.6671   19.9987   47.1342 H   0  0  0  0  0  0  0  0  0  0  0  0
  175.1926   18.9698   47.6284 H   0  0  0  0  0  0  0  0  0  0  0  0
  175.0835   21.8775   46.6117 H   0  0  0  0  0  0  0  0  0  0  0  0
  177.2329   19.2669   45.7285 H   0  0  0  0  0  0  0  0  0  0  0  0
  178.3332   15.2089   45.7047 H   0  0  0  0  0  0  0  0  0  0  0  0
  179.3139   13.2650   44.4858 H   0  0  0  0  0  0  0  0  0  0  0  0
  181.4238   13.5415   43.1811 H   0  0  0  0  0  0  0  0  0  0  0  0
  183.5930   15.4830   43.3250 H   0  0  0  0  0  0  0  0  0  0  0  0
  181.1490   21.1480   45.2680 H   0  0  0  0  0  0  0  0  0  0  0  0
  180.8947   20.7069   47.5013 H   0  0  0  0  0  0  0  0  0  0  0  0
  179.6059   22.3874   48.7958 H   0  0  0  0  0  0  0  0  0  0  0  0
  177.0837   22.6366   49.8660 H   0  0  0  0  0  0  0  0  0  0  0  0
  177.3340   23.8330   48.5496 H   0  0  0  0  0  0  0  0  0  0  0  0
  175.8711   22.7905   48.5496 H   0  0  0  0  0  0  0  0  0  0  0  0
  1  2  2  0
  2  3  1  0
  3  4  2  0
  4  5  1  0
  5  6  1  0
  6  7  1  0
  7  8  1  0
  8  9  2  0
  9 10  1  0
 10 11  2  0
 11 12  1  0
 12 13  1  0
 12 14  2  0
 14 15  1  0
 15 16  2  0
 15 17  1  0
 17 18  1  0
  5 19  2  0
 19 20  1  0
 20 21  2  0
 21 22  1  0
 21  3  1  0
 17  6  2  0
 14  8  1  0
  1 23  1  0
  1 24  1  0
  2 25  1  0
  4 26  1  0
  9 27  1  0
 10 28  1  0
 11 29  1  0
 13 30  1  0
 18 31  1  0
 19 32  1  0
 20 33  1  0
 22 34  1  0
 22 35  1  0
 22 36  1  0
M  END
>  <meeko>  (2) 
{"is_sidechain": [false], "free_energy": -7.356, "intermolecular_energy": -8.691, "internal_energy": -0.168}

$$$$
cand_031_out
     RDKit          3D

 36 38  0  0  0  0  0  0  0  0999 V2000
  181.1700   15.8140   39.9690 C   0  0  0  0  0  0  0  0  0  0  0  0
  181.5420   16.5970   40.9880 C   0  0  0  0  0  0  0  0  0  0  0  0
  181.1150   16.3750   42.3780 C   0  0  0  0  0  0  0  0  0  0  0  0
  180.8720   17.4810   43.2130 C   0  0  0  0  0  0  0  0  0  0  0  0
  180.4970   17.3210   44.5560 C   0  0  0  0  0  0  0  0  0  0  0  0
  180.2220   18.5110   45.3890 C   0  0  0  0  0  0  0  0  0  0  0  0
  178.9220   18.5350   45.8820 O   0  0  0  0  0  0  0  0  0  0  0  0
  178.5310   19.5870   46.6710 C   0  0  0  0  0  0  0  0  0  0  0  0
  177.2230   19.5640   47.1560 C   0  0  0  0  0  0  0  0  0  0  0  0
  176.7600   20.6050   47.9630 C   0  0  0  0  0  0  0  0  0  0  0  0
  177.6050   21.6690   48.2850 C   0  0  0  0  0  0  0  0  0  0  0  0
  178.9100   21.6900   47.8000 C   0  0  0  0  0  0  0  0  0  0  0  0
  179.6830   22.7620   48.1540 O   0  0  0  0  0  0  0  0  0  0  0  0
  179.3720   20.6470   46.9920 C   0  0  0  0  0  0  0  0  0  0  0  0
  180.7370   20.6300   46.4620 C   0  0  0  0  0  0  0  0  0  0  0  0
  181.5370   21.5340   46.6950 O   0  0  0  0  0  0  0  0  0  0  0  0
  181.1300   19.4760   45.6220 C   0  0  0  0  0  0  0  0  0  0  0  0
  182.4160   19.4770   45.1140 O   0  0  0  0  0  0  0  0  0  0  0  0
  180.3600   16.0230   45.0580 C   0  0  0  0  0  0  0  0  0  0  0  0
  180.6090   14.9150   44.2450 C   0  0  0  0  0  0  0  0  0  0  0  0
  180.9870   15.0740   42.9040 C   0  0  0  0  0  0  0  0  0  0  0  0
  181.2470   13.8500   42.0670 C   0  0  0  0  0  0  0  0  0  0  0  0
  181.5231   16.0322   38.9503 H   0  0  0  0  0  0  0  0  0  0  0  0
  180.5110   14.9520   40.1498 H   0  0  0  0  0  0  0  0  0  0  0  0
  182.2015   17.4513   40.7753 H   0  0  0  0  0  0  0  0  0  0  0  0
  180.9785   18.4962   42.8031 H   0  0  0  0  0  0  0  0  0  0  0  0
  176.5569   18.7261   46.9027 H   0  0  0  0  0  0  0  0  0  0  0  0
  175.7288   20.5870   48.3454 H   0  0  0  0  0  0  0  0  0  0  0  0
  177.2403   22.4892   48.9208 H   0  0  0  0  0  0  0  0  0  0  0  0
  180.2080   22.7270   48.9290 H   0  0  0  0  0  0  0  0  0  0  0  0
  183.0680   20.0360   45.4900 H   0  0  0  0  0  0  0  0  0  0  0  0
  180.0531   15.8732   46.1036 H   0  0  0  0  0  0  0  0  0  0  0  0
  180.5071   13.9026   44.6628 H   0  0  0  0  0  0  0  0  0  0  0  0
  181.4301   12.9879   42.7252 H   0  0  0  0  0  0  0  0  0  0  0  0
  180.3719   13.6473   41.4321 H   0  0  0  0  0  0  0  0  0  0  0  0
  182.1290   14.0205   41.4321 H   0  0  0  0  0  0  0  0  0  0  0  0
  1  2  2  0
  2  3  1  0
  3  4  2  0
  4  5  1  0
  5  6  1  0
  6  7  1  0
  7  8  1  0
  8  9  2  0
  9 10  1  0
 10 11  2  0
 11 12  1  0
 12 13  1  0
 12 14  2  0
 14 15  1  0
 15 16  2  0
 15 17  1  0
 17 18  1  0
  5 19  2  0
 19 20  1  0
 20 21  2  0
 21 22  1  0
 21  3  1  0
 17  6  2  0
 14  8  1  0
  1 23  1  0
  1 24  1  0
  2 25  1  0
  4 26  1  0
  9 27  1  0
 10 28  1  0
 11 29  1  0
 13 30  1  0
 18 31  1  0
 19 32  1  0
 20 33  1  0
 22 34  1  0
 22 35  1  0
 22 36  1  0
M  END
>  <meeko>  (3) 
{"is_sidechain": [false], "free_energy": -6.96, "intermolecular_energy": -8.852, "internal_energy": 0.458}

$$$$
cand_031_out
     RDKit          3D

 36 38  0  0  0  0  0  0  0  0999 V2000
  179.5990   14.3220   44.1220 C   0  0  0  0  0  0  0  0  0  0  0  0
  179.8650   15.0970   45.1810 C   0  0  0  0  0  0  0  0  0  0  0  0
  180.0020   16.5590   45.1010 C   0  0  0  0  0  0  0  0  0  0  0  0
  179.0730   17.3780   45.7680 C   0  0  0  0  0  0  0  0  0  0  0  0
  179.1400   18.7780   45.6940 C   0  0  0  0  0  0  0  0  0  0  0  0
  178.1600   19.6010   46.4360 C   0  0  0  0  0  0  0  0  0  0  0  0
  178.7000   20.7960   46.8990 O   0  0  0  0  0  0  0  0  0  0  0  0
  177.9000   21.6560   47.6060 C   0  0  0  0  0  0  0  0  0  0  0  0
  178.4780   22.8490   48.0400 C   0  0  0  0  0  0  0  0  0  0  0  0
  177.7190   23.7680   48.7660 C   0  0  0  0  0  0  0  0  0  0  0  0
  176.3810   23.4940   49.0590 C   0  0  0  0  0  0  0  0  0  0  0  0
  175.8060   22.3030   48.6250 C   0  0  0  0  0  0  0  0  0  0  0  0
  174.4920   22.0990   48.9470 O   0  0  0  0  0  0  0  0  0  0  0  0
  176.5670   21.3840   47.8980 C   0  0  0  0  0  0  0  0  0  0  0  0
  176.0000   20.1200   47.4230 C   0  0  0  0  0  0  0  0  0  0  0  0
  174.8340   19.8040   47.6470 O   0  0  0  0  0  0  0  0  0  0  0  0
  176.8890   19.2180   46.6550 C   0  0  0  0  0  0  0  0  0  0  0  0
  176.3490   18.0210   46.2230 O   0  0  0  0  0  0  0  0  0  0  0  0
  180.1660   19.3550   44.9400 C   0  0  0  0  0  0  0  0  0  0  0  0
  181.0900   18.5560   44.2640 C   0  0  0  0  0  0  0  0  0  0  0  0
  181.0210   17.1570   44.3340 C   0  0  0  0  0  0  0  0  0  0  0  0
  182.0370   16.3360   43.5860 C   0  0  0  0  0  0  0  0  0  0  0  0
  179.5083   13.2328   44.2464 H   0  0  0  0  0  0  0  0  0  0  0  0
  179.4711   14.7745   43.1276 H   0  0  0  0  0  0  0  0  0  0  0  0
  179.9875   14.6149   46.1621 H   0  0  0  0  0  0  0  0  0  0  0  0
  178.2744   16.9098   46.3622 H   0  0  0  0  0  0  0  0  0  0  0  0
  179.5317   23.0654   47.8101 H   0  0  0  0  0  0  0  0  0  0  0  0
  178.1748   24.7090   49.1078 H   0  0  0  0  0  0  0  0  0  0  0  0
  175.7829   24.2181   49.6316 H   0  0  0  0  0  0  0  0  0  0  0  0
  173.8370   22.1120   48.2780 H   0  0  0  0  0  0  0  0  0  0  0  0
  176.7120   17.2090   46.5200 H   0  0  0  0  0  0  0  0  0  0  0  0
  180.2462   20.4504   44.8786 H   0  0  0  0  0  0  0  0  0  0  0  0
  181.8835   19.0305   43.6680 H   0  0  0  0  0  0  0  0  0  0  0  0
  182.6853   15.8121   44.3038 H   0  0  0  0  0  0  0  0  0  0  0  0
  181.5196   15.5994   42.9538 H   0  0  0  0  0  0  0  0  0  0  0  0
  182.6486   16.9965   42.9538 H   0  0  0  0  0  0  0  0  0  0  0  0
  1  2  2  0
  2  3  1  0
  3  4  2  0
  4  5  1  0
  5  6  1  0
  6  7  1  0
  7  8  1  0
  8  9  2  0
  9 10  1  0
 10 11  2  0
 11 12  1  0
 12 13  1  0
 12 14  2  0
 14 15  1  0
 15 16  2  0
 15 17  1  0
 17 18  1  0
  5 19  2  0
 19 20  1  0
 20 21  2  0
 21 22  1  0
 21  3  1  0
 17  6  2  0
 14  8  1  0
  1 23  1  0
  1 24  1  0
  2 25  1  0
  4 26  1  0
  9 27  1  0
 10 28  1  0
 11 29  1  0
 13 30  1  0
 18 31  1  0
 19 32  1  0
 20 33  1  0
 22 34  1  0
 22 35  1  0
 22 36  1  0
M  END
>  <meeko>  (4) 
{"is_sidechain": [false], "free_energy": -6.262, "intermolecular_energy": -7.916, "internal_energy": 0.342}

$$$$
cand_031_out
     RDKit          3D

 36 38  0  0  0  0  0  0  0  0999 V2000
  176.3150   20.6180   46.6150 C   0  0  0  0  0  0  0  0  0  0  0  0
  177.2260   19.8620   47.2380 C   0  0  0  0  0  0  0  0  0  0  0  0
  178.6030   19.6860   46.7510 C   0  0  0  0  0  0  0  0  0  0  0  0
  178.8890   18.6480   45.8450 C   0  0  0  0  0  0  0  0  0  0  0  0
  180.1930   18.4170   45.3780 C   0  0  0  0  0  0  0  0  0  0  0  0
  180.4430   17.3340   44.4040 C   0  0  0  0  0  0  0  0  0  0  0  0
  180.7350   17.8100   43.1310 O   0  0  0  0  0  0  0  0  0  0  0  0
  180.9870   16.9100   42.1270 C   0  0  0  0  0  0  0  0  0  0  0  0
  181.2890   17.4320   40.8690 C   0  0  0  0  0  0  0  0  0  0  0  0
  181.5550   16.5700   39.8030 C   0  0  0  0  0  0  0  0  0  0  0  0
  181.5180   15.1880   39.9950 C   0  0  0  0  0  0  0  0  0  0  0  0
  181.2160   14.6700   41.2510 C   0  0  0  0  0  0  0  0  0  0  0  0
  181.1970   13.3060   41.3680 O   0  0  0  0  0  0  0  0  0  0  0  0
  180.9510   15.5320   42.3180 C   0  0  0  0  0  0  0  0  0  0  0  0
  180.6310   15.0290   43.6540 C   0  0  0  0  0  0  0  0  0  0  0  0
  180.5720   13.8260   43.9010 O   0  0  0  0  0  0  0  0  0  0  0  0
  180.3720   16.0270   44.7180 C   0  0  0  0  0  0  0  0  0  0  0  0
  180.0560   15.5410   45.9730 O   0  0  0  0  0  0  0  0  0  0  0  0
  181.2180   19.2540   45.8300 C   0  0  0  0  0  0  0  0  0  0  0  0
  180.9520   20.2820   46.7360 C   0  0  0  0  0  0  0  0  0  0  0  0
  179.6500   20.5110   47.2060 C   0  0  0  0  0  0  0  0  0  0  0  0
  179.4120   21.6290   48.1850 C   0  0  0  0  0  0  0  0  0  0  0  0
  175.3003   20.7100   47.0295 H   0  0  0  0  0  0  0  0  0  0  0  0
  176.5807   21.1476   45.6882 H   0  0  0  0  0  0  0  0  0  0  0  0
  176.9300   19.3450   48.1627 H   0  0  0  0  0  0  0  0  0  0  0  0
  178.0710   18.0017   45.4940 H   0  0  0  0  0  0  0  0  0  0  0  0
  181.3176   18.5211   40.7170 H   0  0  0  0  0  0  0  0  0  0  0  0
  181.7939   16.9806   38.8109 H   0  0  0  0  0  0  0  0  0  0  0  0
  181.7272   14.5093   39.1550 H   0  0  0  0  0  0  0  0  0  0  0  0
  181.5820   12.8940   42.1160 H   0  0  0  0  0  0  0  0  0  0  0  0
  180.1880   14.6340   46.1710 H   0  0  0  0  0  0  0  0  0  0  0  0
  182.2452   19.1006   45.4676 H   0  0  0  0  0  0  0  0  0  0  0  0
  181.7752   20.9219   47.0866 H   0  0  0  0  0  0  0  0  0  0  0  0
  179.4945   21.2415   49.2112 H   0  0  0  0  0  0  0  0  0  0  0  0
  180.1623   22.4183   48.0297 H   0  0  0  0  0  0  0  0  0  0  0  0
  178.4053   22.0443   48.0297 H   0  0  0  0  0  0  0  0  0  0  0  0
  1  2  2  0
  2  3  1  0
  3  4  2  0
  4  5  1  0
  5  6  1  0
  6  7  1  0
  7  8  1  0
  8  9  2  0
  9 10  1  0
 10 11  2  0
 11 12  1  0
 12 13  1  0
 12 14  2  0
 14 15  1  0
 15 16  2  0
 15 17  1  0
 17 18  1  0
  5 19  2  0
 19 20  1  0
 20 21  2  0
 21 22  1  0
 21  3  1  0
 17  6  2  0
 14  8  1  0
  1 23  1  0
  1 24  1  0
  2 25  1  0
  4 26  1  0
  9 27  1  0
 10 28  1  0
 11 29  1  0
 13 30  1  0
 18 31  1  0
 19 32  1  0
 20 33  1  0
 22 34  1  0
 22 35  1  0
 22 36  1  0
M  END
>  <meeko>  (5) 
{"is_sidechain": [false], "free_energy": -5.533, "intermolecular_energy": -6.344, "internal_energy": -0.372}

$$$$
cand_031_out
     RDKit          3D

 36 38  0  0  0  0  0  0  0  0999 V2000
  183.0100   21.8730   45.9020 C   0  0  0  0  0  0  0  0  0  0  0  0
  182.7880   20.8100   45.1190 C   0  0  0  0  0  0  0  0  0  0  0  0
  181.5960   19.9560   45.2320 C   0  0  0  0  0  0  0  0  0  0  0  0
  180.4560   20.4420   45.8970 C   0  0  0  0  0  0  0  0  0  0  0  0
  179.3070   19.6540   46.0610 C   0  0  0  0  0  0  0  0  0  0  0  0
  178.1210   20.2160   46.7420 C   0  0  0  0  0  0  0  0  0  0  0  0
  178.3640   21.4630   47.3070 O   0  0  0  0  0  0  0  0  0  0  0  0
  177.3480   22.1000   47.9720 C   0  0  0  0  0  0  0  0  0  0  0  0
  177.6320   23.3550   48.5120 C   0  0  0  0  0  0  0  0  0  0  0  0
  176.6420   24.0560   49.2030 C   0  0  0  0  0  0  0  0  0  0  0  0
  175.3690   23.5030   49.3540 C   0  0  0  0  0  0  0  0  0  0  0  0
  175.0880   22.2510   48.8140 C   0  0  0  0  0  0  0  0  0  0  0  0
  173.8210   21.7690   49.0000 O   0  0  0  0  0  0  0  0  0  0  0  0
  176.0790   21.5500   48.1230 C   0  0  0  0  0  0  0  0  0  0  0  0
  175.8250   20.2310   47.5400 C   0  0  0  0  0  0  0  0  0  0  0  0
  174.7320   19.6750   47.6370 O   0  0  0  0  0  0  0  0  0  0  0  0
  176.9400   19.5740   46.8210 C   0  0  0  0  0  0  0  0  0  0  0  0
  176.6950   18.3230   46.2870 O   0  0  0  0  0  0  0  0  0  0  0  0
  179.3100   18.3570   45.5370 C   0  0  0  0  0  0  0  0  0  0  0  0
  180.4380   17.8560   44.8830 C   0  0  0  0  0  0  0  0  0  0  0  0
  181.5880   18.6430   44.7220 C   0  0  0  0  0  0  0  0  0  0  0  0
  182.7800   18.0580   44.0120 C   0  0  0  0  0  0  0  0  0  0  0  0
  183.9219   22.4735   45.7686 H   0  0  0  0  0  0  0  0  0  0  0  0
  182.2805   22.1459   46.6788 H   0  0  0  0  0  0  0  0  0  0  0  0
  183.5359   20.5625   44.3513 H   0  0  0  0  0  0  0  0  0  0  0  0
  180.4655   21.4660   46.2987 H   0  0  0  0  0  0  0  0  0  0  0  0
  178.6347   23.7914   48.3934 H   0  0  0  0  0  0  0  0  0  0  0  0
  176.8652   25.0453   49.6290 H   0  0  0  0  0  0  0  0  0  0  0  0
  174.5893   24.0556   49.8987 H   0  0  0  0  0  0  0  0  0  0  0  0
  173.6110   21.2870   49.7750 H   0  0  0  0  0  0  0  0  0  0  0  0
  175.8470   17.9330   46.3790 H   0  0  0  0  0  0  0  0  0  0  0  0
  178.4154   17.7255   45.6410 H   0  0  0  0  0  0  0  0  0  0  0  0
  180.4243   16.8293   44.4884 H   0  0  0  0  0  0  0  0  0  0  0  0
  183.5093   17.7001   44.7537 H   0  0  0  0  0  0  0  0  0  0  0  0
  182.4551   17.2170   43.3818 H   0  0  0  0  0  0  0  0  0  0  0  0
  183.2465   18.8295   43.3818 H   0  0  0  0  0  0  0  0  0  0  0  0
  1  2  2  0
  2  3  1  0
  3  4  2  0
  4  5  1  0
  5  6  1  0
  6  7  1  0
  7  8  1  0
  8  9  2  0
  9 10  1  0
 10 11  2  0
 11 12  1  0
 12 13  1  0
 12 14  2  0
 14 15  1  0
 15 16  2  0
 15 17  1  0
 17 18  1  0
  5 19  2  0
 19 20  1  0
 20 21  2  0
 21 22  1  0
 21  3  1  0
 17  6  2  0
 14  8  1  0
  1 23  1  0
  1 24  1  0
  2 25  1  0
  4 26  1  0
  9 27  1  0
 10 28  1  0
 11 29  1  0
 13 30  1  0
 18 31  1  0
 19 32  1  0
 20 33  1  0
 22 34  1  0
 22 35  1  0
 22 36  1  0
M  END
>  <meeko>  (6) 
{"is_sidechain": [false], "free_energy": -5.498, "intermolecular_energy": -6.837, "internal_energy": 0.163}

$$$$
cand_031_out
     RDKit          3D

 36 38  0  0  0  0  0  0  0  0999 V2000
  186.9120   21.3470   43.0280 C   0  0  0  0  0  0  0  0  0  0  0  0
  186.1540   22.4280   43.2510 C   0  0  0  0  0  0  0  0  0  0  0  0
  185.4270   22.6630   44.5080 C   0  0  0  0  0  0  0  0  0  0  0  0
  184.1820   22.0410   44.7150 C   0  0  0  0  0  0  0  0  0  0  0  0
  183.4350   22.2610   45.8820 C   0  0  0  0  0  0  0  0  0  0  0  0
  182.1440   21.5630   46.0700 C   0  0  0  0  0  0  0  0  0  0  0  0
  181.2550   22.2790   46.8630 O   0  0  0  0  0  0  0  0  0  0  0  0
  180.0180   21.7460   47.1210 C   0  0  0  0  0  0  0  0  0  0  0  0
  179.1520   22.5040   47.9090 C   0  0  0  0  0  0  0  0  0  0  0  0
  177.8780   22.0190   48.2100 C   0  0  0  0  0  0  0  0  0  0  0  0
  177.4700   20.7750   47.7240 C   0  0  0  0  0  0  0  0  0  0  0  0
  178.3360   20.0200   46.9380 C   0  0  0  0  0  0  0  0  0  0  0  0
  177.8720   18.8110   46.4950 O   0  0  0  0  0  0  0  0  0  0  0  0
  179.6110   20.5070   46.6360 C   0  0  0  0  0  0  0  0  0  0  0  0
  180.5510   19.7450   45.8120 C   0  0  0  0  0  0  0  0  0  0  0  0
  180.2690   18.6400   45.3540 O   0  0  0  0  0  0  0  0  0  0  0  0
  181.8750   20.3530   45.5460 C   0  0  0  0  0  0  0  0  0  0  0  0
  182.7610   19.6190   44.7790 O   0  0  0  0  0  0  0  0  0  0  0  0
  183.9590   23.1160   46.8560 C   0  0  0  0  0  0  0  0  0  0  0  0
  185.1880   23.7490   46.6610 C   0  0  0  0  0  0  0  0  0  0  0  0
  185.9340   23.5320   45.4930 C   0  0  0  0  0  0  0  0  0  0  0  0
  187.2530   24.2390   45.3270 C   0  0  0  0  0  0  0  0  0  0  0  0
  187.4314   21.2285   42.0656 H   0  0  0  0  0  0  0  0  0  0  0  0
  187.0153   20.5774   43.8072 H   0  0  0  0  0  0  0  0  0  0  0  0
  186.0706   23.1798   42.4523 H   0  0  0  0  0  0  0  0  0  0  0  0
  183.7847   21.3657   43.9429 H   0  0  0  0  0  0  0  0  0  0  0  0
  179.4727   23.4836   48.2931 H   0  0  0  0  0  0  0  0  0  0  0  0
  177.1948   22.6174   48.8307 H   0  0  0  0  0  0  0  0  0  0  0  0
  176.4664   20.3925   47.9618 H   0  0  0  0  0  0  0  0  0  0  0  0
  177.9300   18.5910   45.5860 H   0  0  0  0  0  0  0  0  0  0  0  0
  182.5920   18.7140   44.6060 H   0  0  0  0  0  0  0  0  0  0  0  0
  183.3974   23.2918   47.7853 H   0  0  0  0  0  0  0  0  0  0  0  0
  185.5770   24.4277   47.4344 H   0  0  0  0  0  0  0  0  0  0  0  0
  187.6750   24.4652   46.3173 H   0  0  0  0  0  0  0  0  0  0  0  0
  187.9481   23.5926   44.7712 H   0  0  0  0  0  0  0  0  0  0  0  0
  187.0995   25.1758   44.7712 H   0  0  0  0  0  0  0  0  0  0  0  0
  1  2  2  0
  2  3  1  0
  3  4  2  0
  4  5  1  0
  5  6  1  0
  6  7  1  0
  7  8  1  0
  8  9  2  0
  9 10  1  0
 10 11  2  0
 11 12  1  0
 12 13  1  0
 12 14  2  0
 14 15  1  0
 15 16  2  0
 15 17  1  0
 17 18  1  0
  5 19  2  0
 19 20  1  0
 20 21  2  0
 21 22  1  0
 21  3  1  0
 17  6  2  0
 14  8  1  0
  1 23  1  0
  1 24  1  0
  2 25  1  0
  4 26  1  0
  9 27  1  0
 10 28  1  0
 11 29  1  0
 13 30  1  0
 18 31  1  0
 19 32  1  0
 20 33  1  0
 22 34  1  0
 22 35  1  0
 22 36  1  0
M  END
>  <meeko>  (7) 
{"is_sidechain": [false], "free_energy": -5.379, "intermolecular_energy": -6.6, "internal_energy": 0.064}

$$$$
cand_031_out
     RDKit          3D

 36 38  0  0  0  0  0  0  0  0999 V2000
  185.2470   24.5910   48.9670 C   0  0  0  0  0  0  0  0  0  0  0  0
  185.5610   24.7320   47.6740 C   0  0  0  0  0  0  0  0  0  0  0  0
  185.0890   23.8200   46.6210 C   0  0  0  0  0  0  0  0  0  0  0  0
  183.8770   23.1270   46.7980 C   0  0  0  0  0  0  0  0  0  0  0  0
  183.4020   22.2200   45.8380 C   0  0  0  0  0  0  0  0  0  0  0  0
  182.1080   21.5350   46.0520 C   0  0  0  0  0  0  0  0  0  0  0  0
  181.2270   22.2790   46.8280 O   0  0  0  0  0  0  0  0  0  0  0  0
  179.9880   21.7610   47.1060 C   0  0  0  0  0  0  0  0  0  0  0  0
  179.1300   22.5470   47.8770 C   0  0  0  0  0  0  0  0  0  0  0  0
  177.8540   22.0780   48.1970 C   0  0  0  0  0  0  0  0  0  0  0  0
  177.4370   20.8240   47.7470 C   0  0  0  0  0  0  0  0  0  0  0  0
  178.2950   20.0410   46.9780 C   0  0  0  0  0  0  0  0  0  0  0  0
  177.8210   18.8240   46.5720 O   0  0  0  0  0  0  0  0  0  0  0  0
  179.5710   20.5120   46.6580 C   0  0  0  0  0  0  0  0  0  0  0  0
  180.5030   19.7210   45.8520 C   0  0  0  0  0  0  0  0  0  0  0  0
  180.2110   18.6060   45.4250 O   0  0  0  0  0  0  0  0  0  0  0  0
  181.8290   20.3130   45.5620 C   0  0  0  0  0  0  0  0  0  0  0  0
  182.7070   19.5530   44.8130 O   0  0  0  0  0  0  0  0  0  0  0  0
  184.1610   22.0170   44.6810 C   0  0  0  0  0  0  0  0  0  0  0  0
  185.3700   22.6890   44.4960 C   0  0  0  0  0  0  0  0  0  0  0  0
  185.8480   23.5940   45.4560 C   0  0  0  0  0  0  0  0  0  0  0  0
  187.1590   24.2930   45.2140 C   0  0  0  0  0  0  0  0  0  0  0  0
  185.6320   25.3073   49.7078 H   0  0  0  0  0  0  0  0  0  0  0  0
  184.6039   23.7588   49.2892 H   0  0  0  0  0  0  0  0  0  0  0  0
  186.2061   25.5742   47.3833 H   0  0  0  0  0  0  0  0  0  0  0  0
  183.2878   23.3003   47.7106 H   0  0  0  0  0  0  0  0  0  0  0  0
  179.4585   23.5349   48.2322 H   0  0  0  0  0  0  0  0  0  0  0  0
  177.1771   22.6971   48.8040 H   0  0  0  0  0  0  0  0  0  0  0  0
  176.4321   20.4546   47.9994 H   0  0  0  0  0  0  0  0  0  0  0  0
  176.9820   18.5250   46.8630 H   0  0  0  0  0  0  0  0  0  0  0  0
  183.0380   18.7460   45.1560 H   0  0  0  0  0  0  0  0  0  0  0  0
  183.8014   21.3207   43.9091 H   0  0  0  0  0  0  0  0  0  0  0  0
  185.9571   22.5065   43.5839 H   0  0  0  0  0  0  0  0  0  0  0  0
  187.6255   24.5417   46.1787 H   0  0  0  0  0  0  0  0  0  0  0  0
  187.8273   23.6315   44.6433 H   0  0  0  0  0  0  0  0  0  0  0  0
  186.9822   25.2166   44.6433 H   0  0  0  0  0  0  0  0  0  0  0  0
  1  2  2  0
  2  3  1  0
  3  4  2  0
  4  5  1  0
  5  6  1  0
  6  7  1  0
  7  8  1  0
  8  9  2  0
  9 10  1  0
 10 11  2  0
 11 12  1  0
 12 13  1  0
 12 14  2  0
 14 15  1  0
 15 16  2  0
 15 17  1  0
 17 18  1  0
  5 19  2  0
 19 20  1  0
 20 21  2  0
 21 22  1  0
 21  3  1  0
 17  6  2  0
 14  8  1  0
  1 23  1  0
  1 24  1  0
  2 25  1  0
  4 26  1  0
  9 27  1  0
 10 28  1  0
 11 29  1  0
 13 30  1  0
 18 31  1  0
 19 32  1  0
 20 33  1  0
 22 34  1  0
 22 35  1  0
 22 36  1  0
M  END
>  <meeko>  (8) 
{"is_sidechain": [false], "free_energy": -5.259, "intermolecular_energy": -6.368, "internal_energy": -0.027}

$$$$
cand_031_out
     RDKit          3D

 36 38  0  0  0  0  0  0  0  0999 V2000
  178.5980   22.8150   47.6140 C   0  0  0  0  0  0  0  0  0  0  0  0
  179.2840   21.6780   47.7880 C   0  0  0  0  0  0  0  0  0  0  0  0
  180.4560   21.3080   46.9800 C   0  0  0  0  0  0  0  0  0  0  0  0
  181.5670   22.1700   46.9370 C   0  0  0  0  0  0  0  0  0  0  0  0
  182.6940   21.8780   46.1540 C   0  0  0  0  0  0  0  0  0  0  0  0
  183.8520   22.7980   46.1610 C   0  0  0  0  0  0  0  0  0  0  0  0
  184.1110   23.3280   47.4200 O   0  0  0  0  0  0  0  0  0  0  0  0
  185.1590   24.2000   47.5700 C   0  0  0  0  0  0  0  0  0  0  0  0
  185.3920   24.6980   48.8520 C   0  0  0  0  0  0  0  0  0  0  0  0
  186.4420   25.5910   49.0730 C   0  0  0  0  0  0  0  0  0  0  0  0
  187.2590   25.9870   48.0120 C   0  0  0  0  0  0  0  0  0  0  0  0
  187.0240   25.4890   46.7330 C   0  0  0  0  0  0  0  0  0  0  0  0
  187.8620   25.9190   45.7410 O   0  0  0  0  0  0  0  0  0  0  0  0
  185.9740   24.5950   46.5130 C   0  0  0  0  0  0  0  0  0  0  0  0
  185.6940   24.0490   45.1840 C   0  0  0  0  0  0  0  0  0  0  0  0
  186.3630   24.3550   44.1990 O   0  0  0  0  0  0  0  0  0  0  0  0
  184.5610   23.1030   45.0580 C   0  0  0  0  0  0  0  0  0  0  0  0
  184.2950   22.6040   43.7960 O   0  0  0  0  0  0  0  0  0  0  0  0
  182.6990   20.6940   45.4110 C   0  0  0  0  0  0  0  0  0  0  0  0
  181.6000   19.8330   45.4350 C   0  0  0  0  0  0  0  0  0  0  0  0
  180.4710   20.1250   46.2150 C   0  0  0  0  0  0  0  0  0  0  0  0
  179.3090   19.1680   46.2070 C   0  0  0  0  0  0  0  0  0  0  0  0
  177.7288   23.0359   48.2509 H   0  0  0  0  0  0  0  0  0  0  0  0
  178.9038   23.5280   46.8342 H   0  0  0  0  0  0  0  0  0  0  0  0
  178.9539   20.9850   48.5759 H   0  0  0  0  0  0  0  0  0  0  0  0
  181.5517   23.0953   47.5316 H   0  0  0  0  0  0  0  0  0  0  0  0
  184.7487   24.3872   49.6884 H   0  0  0  0  0  0  0  0  0  0  0  0
  186.6260   25.9832   50.0841 H   0  0  0  0  0  0  0  0  0  0  0  0
  188.0863   26.6907   48.1862 H   0  0  0  0  0  0  0  0  0  0  0  0
  188.5660   25.3730   45.4500 H   0  0  0  0  0  0  0  0  0  0  0  0
  184.9570   22.1300   43.3310 H   0  0  0  0  0  0  0  0  0  0  0  0
  183.5779   20.4379   44.8011 H   0  0  0  0  0  0  0  0  0  0  0  0
  181.6197   18.9122   44.8335 H   0  0  0  0  0  0  0  0  0  0  0  0
  179.0217   18.9314   47.2421 H   0  0  0  0  0  0  0  0  0  0  0  0
  178.4571   19.6299   45.6865 H   0  0  0  0  0  0  0  0  0  0  0  0
  179.5991   18.2434   45.6865 H   0  0  0  0  0  0  0  0  0  0  0  0
  1  2  2  0
  2  3  1  0
  3  4  2  0
  4  5  1  0
  5  6  1  0
  6  7  1  0
  7  8  1  0
  8  9  2  0
  9 10  1  0
 10 11  2  0
 11 12  1  0
 12 13  1  0
 12 14  2  0
 14 15  1  0
 15 16  2  0
 15 17  1  0
 17 18  1  0
  5 19  2  0
 19 20  1  0
 20 21  2  0
 21 22  1  0
 21  3  1  0
 17  6  2  0
 14  8  1  0
  1 23  1  0
  1 24  1  0
  2 25  1  0
  4 26  1  0
  9 27  1  0
 10 28  1  0
 11 29  1  0
 13 30  1  0
 18 31  1  0
 19 32  1  0
 20 33  1  0
 22 34  1  0
 22 35  1  0
 22 36  1  0
M  END
>  <meeko>  (9) 
{"is_sidechain": [false], "free_energy": -5.22, "intermolecular_energy": -6.204, "internal_energy": -0.145}

$$$$
