cand_008_out
     RDKit          3D

 35 37  0  0  0  0  0  0  0  0999 V2000
  180.7590   22.0090   48.3000 O   0  0  0  0  0  0  0  0  0  0  0  0
  180.0350   21.2480   47.6610 C   0  0  0  0  0  0  0  0  0  0  0  0
  180.6240   20.1760   46.8250 C   0  0  0  0  0  0  0  0  0  0  0  0
  182.0050   20.0900   46.7930 O   0  0  0  0  0  0  0  0  0  0  0  0
  179.7970   19.3660   46.1400 C   0  0  0  0  0  0  0  0  0  0  0  0
  180.2730   18.2730   45.2670 C   0  0  0  0  0  0  0  0  0  0  0  0
  181.1770   18.5040   44.2250 C   0  0  0  0  0  0  0  0  0  0  0  0
  181.6320   17.4520   43.4250 C   0  0  0  0  0  0  0  0  0  0  0  0
  181.1980   16.1360   43.6490 C   0  0  0  0  0  0  0  0  0  0  0  0
  181.7110   15.0190   42.7690 C   0  0  0  0  0  0  0  0  0  0  0  0
  183.0410   15.1280   42.4840 F   0  0  0  0  0  0  0  0  0  0  0  0
  181.0850   14.9880   41.5590 F   0  0  0  0  0  0  0  0  0  0  0  0
  180.3030   15.8820   44.7120 C   0  0  0  0  0  0  0  0  0  0  0  0
  179.8050   14.4840   45.0020 C   0  0  0  0  0  0  0  0  0  0  0  0
  179.2500   13.8990   43.9020 F   0  0  0  0  0  0  0  0  0  0  0  0
  180.7940   13.6340   45.3990 F   0  0  0  0  0  0  0  0  0  0  0  0
  179.8490   16.9560   45.5020 C   0  0  0  0  0  0  0  0  0  0  0  0
  178.4120   19.4790   46.1570 O   0  0  0  0  0  0  0  0  0  0  0  0
  177.8360   20.4580   46.9280 C   0  0  0  0  0  0  0  0  0  0  0  0
  176.4420   20.5280   46.9240 C   0  0  0  0  0  0  0  0  0  0  0  0
  175.7930   21.5010   47.6860 C   0  0  0  0  0  0  0  0  0  0  0  0
  176.5360   22.4040   48.4500 C   0  0  0  0  0  0  0  0  0  0  0  0
  177.9260   22.3320   48.4510 C   0  0  0  0  0  0  0  0  0  0  0  0
  178.5910   23.2460   49.2200 O   0  0  0  0  0  0  0  0  0  0  0  0
  178.5770   21.3570   47.6890 C   0  0  0  0  0  0  0  0  0  0  0  0
  182.4530   20.0630   45.9710 H   0  0  0  0  0  0  0  0  0  0  0  0
  181.5344   19.5264   44.0327 H   0  0  0  0  0  0  0  0  0  0  0  0
  182.3399   17.6582   42.6087 H   0  0  0  0  0  0  0  0  0  0  0  0
  181.5103   14.1108   43.3562 H   0  0  0  0  0  0  0  0  0  0  0  0
  179.0683   14.6294   45.8059 H   0  0  0  0  0  0  0  0  0  0  0  0
  179.1448   16.7576   46.3234 H   0  0  0  0  0  0  0  0  0  0  0  0
  175.8561   19.8180   46.3217 H   0  0  0  0  0  0  0  0  0  0  0  0
  174.6944   21.5567   47.6848 H   0  0  0  0  0  0  0  0  0  0  0  0
  176.0235   23.1706   49.0498 H   0  0  0  0  0  0  0  0  0  0  0  0
  178.2000   24.0780   49.4020 H   0  0  0  0  0  0  0  0  0  0  0  0
  1  2  2  0
  2  3  1  0
  3  4  1  0
  3  5  2  0
  5  6  1  0
  6  7  2  0
  7  8  1  0
  8  9  2  0
  9 10  1  0
 10 11  1  0
 10 12  1  0
  9 13  1  0
 13 14  1  0
 14 15  1  0
 14 16  1  0
 13 17  2  0
  5 18  1  0
 18 19  1  0
 19 20  2  0
 20 21  1  0
 21 22  2  0
 22 23  1  0
 23 24  1  0
 23 25  2  0
 25  2  1  0
 17  6  1  0
 25 19  1  0
  4 26  1  0
  7 27  1  0
  8 28  1  0
 10 29  1  0
 14 30  1  0
 17 31  1  0
 20 32  1  0
 21 33  1  0
 22 34  1  0
 24 35  1  0
M  END
>  <meeko>  (1) 
{"is_sidechain": [false], "free_energy": -9.023, "intermolecular_energy": -11.133, "internal_energy": -0.29}

$$$$
cand_008_out
     RDKit          3D

 35 37  0  0  0  0  0  0  0  0999 V2000
  182.5370   18.3500   43.7000 O   0  0  0  0  0  0  0  0  0  0  0  0
  181.5290   18.0410   44.3320 C   0  0  0  0  0  0  0  0  0  0  0  0
  180.8090   19.0520   45.1400 C   0  0  0  0  0  0  0  0  0  0  0  0
  181.3320   20.3340   45.1560 O   0  0  0  0  0  0  0  0  0  0  0  0
  179.7120   18.6720   45.8190 C   0  0  0  0  0  0  0  0  0  0  0  0
  178.9230   19.5920   46.6660 C   0  0  0  0  0  0  0  0  0  0  0  0
  179.5350   20.5520   47.4780 C   0  0  0  0  0  0  0  0  0  0  0  0
  178.7710   21.4270   48.2540 C   0  0  0  0  0  0  0  0  0  0  0  0
  177.3680   21.3680   48.2360 C   0  0  0  0  0  0  0  0  0  0  0  0
  176.5680   22.3320   49.0830 C   0  0  0  0  0  0  0  0  0  0  0  0
  175.5920   21.7200   49.8150 F   0  0  0  0  0  0  0  0  0  0  0  0
  175.9220   23.2640   48.3290 F   0  0  0  0  0  0  0  0  0  0  0  0
  176.7330   20.4200   47.4020 C   0  0  0  0  0  0  0  0  0  0  0  0
  175.2260   20.3150   47.3400 C   0  0  0  0  0  0  0  0  0  0  0  0
  174.6810   21.2470   46.5070 F   0  0  0  0  0  0  0  0  0  0  0  0
  174.7910   19.1120   46.8660 F   0  0  0  0  0  0  0  0  0  0  0  0
  177.5210   19.5410   46.6340 C   0  0  0  0  0  0  0  0  0  0  0  0
  179.2110   17.3750   45.8190 O   0  0  0  0  0  0  0  0  0  0  0  0
  179.8520   16.4170   45.0740 C   0  0  0  0  0  0  0  0  0  0  0  0
  179.3080   15.1320   45.0940 C   0  0  0  0  0  0  0  0  0  0  0  0
  179.9120   14.1100   44.3580 C   0  0  0  0  0  0  0  0  0  0  0  0
  181.0580   14.3730   43.6030 C   0  0  0  0  0  0  0  0  0  0  0  0
  181.5980   15.6560   43.5860 C   0  0  0  0  0  0  0  0  0  0  0  0
  182.7200   15.8440   42.8280 O   0  0  0  0  0  0  0  0  0  0  0  0
  180.9930   16.6800   44.3220 C   0  0  0  0  0  0  0  0  0  0  0  0
  180.9610   20.9970   44.6100 H   0  0  0  0  0  0  0  0  0  0  0  0
  180.6326   20.6191   47.5061 H   0  0  0  0  0  0  0  0  0  0  0  0
  179.2749   22.1719   48.8874 H   0  0  0  0  0  0  0  0  0  0  0  0
  177.3210   22.7897   49.7414 H   0  0  0  0  0  0  0  0  0  0  0  0
  174.9096   20.4616   48.3833 H   0  0  0  0  0  0  0  0  0  0  0  0
  177.0255   18.7965   45.9936 H   0  0  0  0  0  0  0  0  0  0  0  0
  178.4057   14.9245   45.6880 H   0  0  0  0  0  0  0  0  0  0  0  0
  179.4848   13.0964   44.3728 H   0  0  0  0  0  0  0  0  0  0  0  0
  181.5326   13.5677   43.0231 H   0  0  0  0  0  0  0  0  0  0  0  0
  182.7060   15.6410   41.9130 H   0  0  0  0  0  0  0  0  0  0  0  0
  1  2  2  0
  2  3  1  0
  3  4  1  0
  3  5  2  0
  5  6  1  0
  6  7  2  0
  7  8  1  0
  8  9  2  0
  9 10  1  0
 10 11  1  0
 10 12  1  0
  9 13  1  0
 13 14  1  0
 14 15  1  0
 14 16  1  0
 13 17  2  0
  5 18  1  0
 18 19  1  0
 19 20  2  0
 20 21  1  0
 21 22  2  0
 22 23  1  0
 23 24  1  0
 23 25  2  0
 25  2  1  0
 17  6  1  0
 25 19  1  0
  4 26  1  0
  7 27  1  0
  8 28  1  0
 10 29  1  0
 14 30  1  0
 17 31  1  0
 20 32  1  0
 21 33  1  0
 22 34  1  0
 24 35  1  0
M  END
>  <meeko>  (2) 
{"is_sidechain": [false], "free_energy": -7.717, "intermolecular_energy": -9.659, "internal_energy": -0.152}

$$$$
cand_008_out
     RDKit          3D

 35 37  0  0  0  0  0  0  0  0999 V2000
  182.4520   18.4430   43.8320 O   0  0  0  0  0  0  0  0  0  0  0  0
  181.4070   18.1320   44.4010 C   0  0  0  0  0  0  0  0  0  0  0  0
  180.5800   19.1620   45.0710 C   0  0  0  0  0  0  0  0  0  0  0  0
  181.0460   20.4640   45.0370 O   0  0  0  0  0  0  0  0  0  0  0  0
  179.4460   18.7770   45.6840 C   0  0  0  0  0  0  0  0  0  0  0  0
  178.5510   19.7160   46.3940 C   0  0  0  0  0  0  0  0  0  0  0  0
  177.2880   19.3250   46.8520 C   0  0  0  0  0  0  0  0  0  0  0  0
  176.4670   20.2220   47.5410 C   0  0  0  0  0  0  0  0  0  0  0  0
  176.8900   21.5360   47.7950 C   0  0  0  0  0  0  0  0  0  0  0  0
  175.9800   22.4820   48.5480 C   0  0  0  0  0  0  0  0  0  0  0  0
  176.1970   22.4770   49.8940 F   0  0  0  0  0  0  0  0  0  0  0  0
  174.6650   22.1620   48.3930 F   0  0  0  0  0  0  0  0  0  0  0  0
  178.1720   21.9400   47.3610 C   0  0  0  0  0  0  0  0  0  0  0  0
  178.6810   23.3420   47.6110 C   0  0  0  0  0  0  0  0  0  0  0  0
  177.8830   24.2860   47.0360 F   0  0  0  0  0  0  0  0  0  0  0  0
  178.7250   23.6680   48.9350 F   0  0  0  0  0  0  0  0  0  0  0  0
  178.9820   21.0240   46.6610 C   0  0  0  0  0  0  0  0  0  0  0  0
  179.0010   17.4620   45.7370 O   0  0  0  0  0  0  0  0  0  0  0  0
  179.7420   16.4860   45.1190 C   0  0  0  0  0  0  0  0  0  0  0  0
  179.2520   15.1810   45.1880 C   0  0  0  0  0  0  0  0  0  0  0  0
  179.9570   14.1400   44.5810 C   0  0  0  0  0  0  0  0  0  0  0  0
  181.1510   14.4040   43.9050 C   0  0  0  0  0  0  0  0  0  0  0  0
  181.6380   15.7070   43.8390 C   0  0  0  0  0  0  0  0  0  0  0  0
  182.8110   15.8950   43.1630 O   0  0  0  0  0  0  0  0  0  0  0  0
  180.9310   16.7490   44.4460 C   0  0  0  0  0  0  0  0  0  0  0  0
  180.9300   21.0230   45.7790 H   0  0  0  0  0  0  0  0  0  0  0  0
  176.9369   18.2990   46.6675 H   0  0  0  0  0  0  0  0  0  0  0  0
  175.4763   19.8939   47.8888 H   0  0  0  0  0  0  0  0  0  0  0  0
  176.2137   23.4676   48.1191 H   0  0  0  0  0  0  0  0  0  0  0  0
  179.6912   23.3370   47.1756 H   0  0  0  0  0  0  0  0  0  0  0  0
  179.9766   21.3423   46.3154 H   0  0  0  0  0  0  0  0  0  0  0  0
  178.3118   14.9730   45.7198 H   0  0  0  0  0  0  0  0  0  0  0  0
  179.5721   13.1110   44.6350 H   0  0  0  0  0  0  0  0  0  0  0  0
  181.7055   13.5838   43.4256 H   0  0  0  0  0  0  0  0  0  0  0  0
  182.9480   16.6810   42.6730 H   0  0  0  0  0  0  0  0  0  0  0  0
  1  2  2  0
  2  3  1  0
  3  4  1  0
  3  5  2  0
  5  6  1  0
  6  7  2  0
  7  8  1  0
  8  9  2  0
  9 10  1  0
 10 11  1  0
 10 12  1  0
  9 13  1  0
 13 14  1  0
 14 15  1  0
 14 16  1  0
 13 17  2  0
  5 18  1  0
 18 19  1  0
 19 20  2  0
 20 21  1  0
 21 22  2  0
 22 23  1  0
 23 24  1  0
 23 25  2  0
 25  2  1  0
 17  6  1  0
 25 19  1  0
  4 26  1  0
  7 27  1  0
  8 28  1  0
 10 29  1  0
 14 30  1  0
 17 31  1  0
 20 32  1  0
 21 33  1  0
 22 34  1  0
 24 35  1  0
M  END
>  <meeko>  (3) 
{"is_sidechain": [false], "free_energy": -7.221, "intermolecular_energy": -9.394, "internal_energy": 0.194}

$$$$
cand_008_out
     RDKit          3D

 35 37  0  0  0  0  0  0  0  0999 V2000
  181.1240   21.8120   48.1760 O   0  0  0  0  0  0  0  0  0  0  0  0
  180.2650   21.1380   47.6120 C   0  0  0  0  0  0  0  0  0  0  0  0
  180.6340   19.8890   46.9050 C   0  0  0  0  0  0  0  0  0  0  0  0
  181.9730   19.5390   46.9030 O   0  0  0  0  0  0  0  0  0  0  0  0
  179.6630   19.1820   46.2980 C   0  0  0  0  0  0  0  0  0  0  0  0
  179.9180   17.9300   45.5550 C   0  0  0  0  0  0  0  0  0  0  0  0
  179.2650   16.7360   45.8780 C   0  0  0  0  0  0  0  0  0  0  0  0
  179.5030   15.5690   45.1480 C   0  0  0  0  0  0  0  0  0  0  0  0
  180.4010   15.5640   44.0690 C   0  0  0  0  0  0  0  0  0  0  0  0
  180.6340   14.2860   43.2950 C   0  0  0  0  0  0  0  0  0  0  0  0
  180.1280   14.3260   42.0290 F   0  0  0  0  0  0  0  0  0  0  0  0
  180.0410   13.2120   43.8870 F   0  0  0  0  0  0  0  0  0  0  0  0
  181.0510   16.7680   43.7140 C   0  0  0  0  0  0  0  0  0  0  0  0
  182.0240   16.8220   42.5580 C   0  0  0  0  0  0  0  0  0  0  0  0
  182.7990   15.7020   42.4870 F   0  0  0  0  0  0  0  0  0  0  0  0
  181.4100   16.9110   41.3430 F   0  0  0  0  0  0  0  0  0  0  0  0
  180.8040   17.9320   44.4670 C   0  0  0  0  0  0  0  0  0  0  0  0
  178.3250   19.5580   46.2820 O   0  0  0  0  0  0  0  0  0  0  0  0
  177.9510   20.7060   46.9340 C   0  0  0  0  0  0  0  0  0  0  0  0
  176.5960   21.0390   46.9020 C   0  0  0  0  0  0  0  0  0  0  0  0
  176.1490   22.1950   47.5440 C   0  0  0  0  0  0  0  0  0  0  0  0
  177.0550   23.0170   48.2180 C   0  0  0  0  0  0  0  0  0  0  0  0
  178.4060   22.6830   48.2480 C   0  0  0  0  0  0  0  0  0  0  0  0
  179.2370   23.5310   48.9240 O   0  0  0  0  0  0  0  0  0  0  0  0
  178.8540   21.5250   47.6050 C   0  0  0  0  0  0  0  0  0  0  0  0
  182.5800   20.0080   47.4400 H   0  0  0  0  0  0  0  0  0  0  0  0
  178.5548   16.7157   46.7178 H   0  0  0  0  0  0  0  0  0  0  0  0
  178.9796   14.6413   45.4224 H   0  0  0  0  0  0  0  0  0  0  0  0
  181.7294   14.1879   43.2742 H   0  0  0  0  0  0  0  0  0  0  0  0
  182.6218   17.7229   42.7606 H   0  0  0  0  0  0  0  0  0  0  0  0
  181.3183   18.8657   44.1956 H   0  0  0  0  0  0  0  0  0  0  0  0
  175.8818   20.3918   46.3719 H   0  0  0  0  0  0  0  0  0  0  0  0
  175.0815   22.4591   47.5191 H   0  0  0  0  0  0  0  0  0  0  0  0
  176.7014   23.9272   48.7245 H   0  0  0  0  0  0  0  0  0  0  0  0
  178.9390   23.9580   49.7030 H   0  0  0  0  0  0  0  0  0  0  0  0
  1  2  2  0
  2  3  1  0
  3  4  1  0
  3  5  2  0
  5  6  1  0
  6  7  2  0
  7  8  1  0
  8  9  2  0
  9 10  1  0
 10 11  1  0
 10 12  1  0
  9 13  1  0
 13 14  1  0
 14 15  1  0
 14 16  1  0
 13 17  2  0
  5 18  1  0
 18 19  1  0
 19 20  2  0
 20 21  1  0
 21 22  2  0
 22 23  1  0
 23 24  1  0
 23 25  2  0
 25  2  1  0
 17  6  1  0
 25 19  1  0
  4 26  1  0
  7 27  1  0
  8 28  1  0
 10 29  1  0
 14 30  1  0
 17 31  1  0
 20 32  1  0
 21 33  1  0
 22 34  1  0
 24 35  1  0
M  END
>  <meeko>  (4) 
{"is_sidechain": [false], "free_energy": -6.98, "intermolecular_energy": -8.747, "internal_energy": -0.155}

$$$$
cand_008_out
     RDKit          3D

 35 37  0  0  0  0  0  0  0  0999 V2000
  175.0790   19.9640   47.5750 O   0  0  0  0  0  0  0  0  0  0  0  0
  176.2620   20.1780   47.3200 C   0  0  0  0  0  0  0  0  0  0  0  0
  177.0630   19.1780   46.5750 C   0  0  0  0  0  0  0  0  0  0  0  0
  176.4220   18.0090   46.2040 O   0  0  0  0  0  0  0  0  0  0  0  0
  178.3550   19.4500   46.3190 C   0  0  0  0  0  0  0  0  0  0  0  0
  179.2500   18.5220   45.5950 C   0  0  0  0  0  0  0  0  0  0  0  0
  180.3060   18.9850   44.8040 C   0  0  0  0  0  0  0  0  0  0  0  0
  181.1540   18.0900   44.1460 C   0  0  0  0  0  0  0  0  0  0  0  0
  180.9710   16.7030   44.2670 C   0  0  0  0  0  0  0  0  0  0  0  0
  181.9080   15.7590   43.5470 C   0  0  0  0  0  0  0  0  0  0  0  0
  183.0700   16.3550   43.1520 F   0  0  0  0  0  0  0  0  0  0  0  0
  181.3550   15.2560   42.4070 F   0  0  0  0  0  0  0  0  0  0  0  0
  179.9240   16.2180   45.0820 C   0  0  0  0  0  0  0  0  0  0  0  0
  179.6830   14.7350   45.2520 C   0  0  0  0  0  0  0  0  0  0  0  0
  179.1540   14.1700   44.1300 F   0  0  0  0  0  0  0  0  0  0  0  0
  180.8240   14.0320   45.5030 F   0  0  0  0  0  0  0  0  0  0  0  0
  179.0740   17.1360   45.7300 C   0  0  0  0  0  0  0  0  0  0  0  0
  178.9960   20.6160   46.7210 O   0  0  0  0  0  0  0  0  0  0  0  0
  178.2800   21.5640   47.4060 C   0  0  0  0  0  0  0  0  0  0  0  0
  178.9610   22.7240   47.7800 C   0  0  0  0  0  0  0  0  0  0  0  0
  178.2900   23.7280   48.4810 C   0  0  0  0  0  0  0  0  0  0  0  0
  176.9410   23.5740   48.8070 C   0  0  0  0  0  0  0  0  0  0  0  0
  176.2640   22.4160   48.4330 C   0  0  0  0  0  0  0  0  0  0  0  0
  174.9460   22.3290   48.7850 O   0  0  0  0  0  0  0  0  0  0  0  0
  176.9350   21.4100   47.7310 C   0  0  0  0  0  0  0  0  0  0  0  0
  176.2960   17.8120   45.2980 H   0  0  0  0  0  0  0  0  0  0  0  0
  180.4714   20.0674   44.6983 H   0  0  0  0  0  0  0  0  0  0  0  0
  181.9755   18.4771   43.5252 H   0  0  0  0  0  0  0  0  0  0  0  0
  182.1058   14.9701   44.2876 H   0  0  0  0  0  0  0  0  0  0  0  0
  178.9920   14.6774   46.1059 H   0  0  0  0  0  0  0  0  0  0  0  0
  178.2530   16.7575   46.3566 H   0  0  0  0  0  0  0  0  0  0  0  0
  180.0235   22.8467   47.5231 H   0  0  0  0  0  0  0  0  0  0  0  0
  178.8252   24.6422   48.7771 H   0  0  0  0  0  0  0  0  0  0  0  0
  176.4138   24.3664   49.3585 H   0  0  0  0  0  0  0  0  0  0  0  0
  174.5140   23.0680   49.1680 H   0  0  0  0  0  0  0  0  0  0  0  0
  1  2  2  0
  2  3  1  0
  3  4  1  0
  3  5  2  0
  5  6  1  0
  6  7  2  0
  7  8  1  0
  8  9  2  0
  9 10  1  0
 10 11  1  0
 10 12  1  0
  9 13  1  0
 13 14  1  0
 14 15  1  0
 14 16  1  0
 13 17  2  0
  5 18  1  0
 18 19  1  0
 19 20  2  0
 20 21  1  0
 21 22  2  0
 22 23  1  0
 23 24  1  0
 23 25  2  0
 25  2  1  0
 17  6  1  0
 25 19  1  0
  4 26  1  0
  7 27  1  0
  8 28  1  0
 10 29  1  0
 14 30  1  0
 17 31  1  0
 20 32  1  0
 21 33  1  0
 22 34  1  0
 24 35  1  0
M  END
>  <meeko>  (5) 
{"is_sidechain": [false], "free_energy": -6.819, "intermolecular_energy": -8.733, "internal_energy": 0.029}

$$$$
