cand_012_out
     RDKit          3D

 40 42  0  0  0  0  0  0  0  0999 V2000
  182.6990   15.0020   42.5430 C   0  0  0  0  0  0  0  0  0  0  0  0
  181.2660   15.3020   42.6110 N   0  0  0  0  0  0  0  0  0  0  0  0
  180.6160   15.4210   41.3010 C   0  0  0  0  0  0  0  0  0  0  0  0
  180.9600   16.3860   43.4550 C   0  0  0  0  0  0  0  0  0  0  0  0
  181.3220   17.7030   43.1270 C   0  0  0  0  0  0  0  0  0  0  0  0
  181.0060   18.7740   43.9680 C   0  0  0  0  0  0  0  0  0  0  0  0
  180.3080   18.5640   45.1600 C   0  0  0  0  0  0  0  0  0  0  0  0
  179.9840   19.6730   46.0820 C   0  0  0  0  0  0  0  0  0  0  0  0
  178.6250   19.9670   46.1150 O   0  0  0  0  0  0  0  0  0  0  0  0
  178.1850   20.9800   46.9280 C   0  0  0  0  0  0  0  0  0  0  0  0
  176.8130   21.2330   46.9390 C   0  0  0  0  0  0  0  0  0  0  0  0
  176.2990   22.2520   47.7450 C   0  0  0  0  0  0  0  0  0  0  0  0
  177.1570   23.0160   48.5380 C   0  0  0  0  0  0  0  0  0  0  0  0
  178.5260   22.7620   48.5250 C   0  0  0  0  0  0  0  0  0  0  0  0
  179.3080   23.5490   49.3250 O   0  0  0  0  0  0  0  0  0  0  0  0
  179.0390   21.7420   47.7200 C   0  0  0  0  0  0  0  0  0  0  0  0
  180.4710   21.4420   47.6750 C   0  0  0  0  0  0  0  0  0  0  0  0
  181.2900   22.0750   48.3390 O   0  0  0  0  0  0  0  0  0  0  0  0
  180.9130   20.3380   46.7930 C   0  0  0  0  0  0  0  0  0  0  0  0
  182.2690   20.0730   46.7460 O   0  0  0  0  0  0  0  0  0  0  0  0
  179.9510   17.2490   45.4950 C   0  0  0  0  0  0  0  0  0  0  0  0
  180.2640   16.1580   44.6550 C   0  0  0  0  0  0  0  0  0  0  0  0
  179.8540   14.7640   45.0600 C   0  0  0  0  0  0  0  0  0  0  0  0
  179.2220   14.0680   44.0710 F   0  0  0  0  0  0  0  0  0  0  0  0
  178.9700   14.7580   46.1070 F   0  0  0  0  0  0  0  0  0  0  0  0
  180.8930   13.9860   45.4800 F   0  0  0  0  0  0  0  0  0  0  0  0
  183.1046   14.9171   43.5620 H   0  0  0  0  0  0  0  0  0  0  0  0
  182.8499   14.0528   42.0080 H   0  0  0  0  0  0  0  0  0  0  0  0
  183.2180   15.8110   42.0080 H   0  0  0  0  0  0  0  0  0  0  0  0
  179.5427   15.6175   41.4407 H   0  0  0  0  0  0  0  0  0  0  0  0
  181.0707   16.2508   40.7401 H   0  0  0  0  0  0  0  0  0  0  0  0
  180.7472   14.4839   40.7401 H   0  0  0  0  0  0  0  0  0  0  0  0
  181.8649   17.8954   42.1898 H   0  0  0  0  0  0  0  0  0  0  0  0
  181.3102   19.7934   43.6882 H   0  0  0  0  0  0  0  0  0  0  0  0
  176.1369   20.6311   46.3140 H   0  0  0  0  0  0  0  0  0  0  0  0
  175.2174   22.4524   47.7547 H   0  0  0  0  0  0  0  0  0  0  0  0
  176.7519   23.8180   49.1726 H   0  0  0  0  0  0  0  0  0  0  0  0
  179.6930   23.1910   50.1020 H   0  0  0  0  0  0  0  0  0  0  0  0
  182.5870   19.3490   46.2430 H   0  0  0  0  0  0  0  0  0  0  0  0
  179.4133   17.0632   46.4365 H   0  0  0  0  0  0  0  0  0  0  0  0
  1  2  1  0
  2  3  1  0
  2  4  1  0
  4  5  2  0
  5  6  1  0
  6  7  2  0
  7  8  1  0
  8  9  1  0
  9 10  1  0
 10 11  2  0
 11 12  1  0
 12 13  2  0
 13 14  1  0
 14 15  1  0
 14 16  2  0
 16 17  1  0
 17 18  2  0
 17 19  1  0
 19 20  1  0
  7 21  1  0
 21 22  2  0
 22 23  1  0
 23 24  1  0
 23 25  1  0
 23 26  1  0
 22  4  1  0
 19  8  2  0
 16 10  1  0
  1 27  1  0
  1 28  1  0
  1 29  1  0
  3 30  1  0
  3 31  1  0
  3 32  1  0
  5 33  1  0
  6 34  1  0
 11 35  1  0
 12 36  1  0
 13 37  1  0
 15 38  1  0
 20 39  1  0
 21 40  1  0
M  END
>  <meeko>  (1) 
{"is_sidechain": [false], "free_energy": -7.92, "intermolecular_energy": -9.772, "internal_energy": -0.507}

$$$$
cand_012_out
     RDKit          3D

 40 42  0  0  0  0  0  0  0  0999 V2000
  176.7950   23.6520   48.5380 C   0  0  0  0  0  0  0  0  0  0  0  0
  176.3920   22.2480   48.6630 N   0  0  0  0  0  0  0  0  0  0  0  0
  176.1890   21.8040   50.0470 C   0  0  0  0  0  0  0  0  0  0  0  0
  177.2130   21.3640   47.9390 C   0  0  0  0  0  0  0  0  0  0  0  0
  178.6120   21.4880   47.9340 C   0  0  0  0  0  0  0  0  0  0  0  0
  179.4180   20.5980   47.2180 C   0  0  0  0  0  0  0  0  0  0  0  0
  178.8520   19.5490   46.4900 C   0  0  0  0  0  0  0  0  0  0  0  0
  179.6770   18.6100   45.7020 C   0  0  0  0  0  0  0  0  0  0  0  0
  179.1870   17.3090   45.7270 O   0  0  0  0  0  0  0  0  0  0  0  0
  179.8610   16.3330   45.0380 C   0  0  0  0  0  0  0  0  0  0  0  0
  179.3270   15.0440   45.0810 C   0  0  0  0  0  0  0  0  0  0  0  0
  179.9650   14.0040   44.4010 C   0  0  0  0  0  0  0  0  0  0  0  0
  181.1340   14.2520   43.6810 C   0  0  0  0  0  0  0  0  0  0  0  0
  181.6650   15.5380   43.6410 C   0  0  0  0  0  0  0  0  0  0  0  0
  182.8130   15.7100   42.9160 O   0  0  0  0  0  0  0  0  0  0  0  0
  181.0260   16.5790   44.3190 C   0  0  0  0  0  0  0  0  0  0  0  0
  181.5510   17.9460   44.3040 C   0  0  0  0  0  0  0  0  0  0  0  0
  182.5780   18.2420   43.6970 O   0  0  0  0  0  0  0  0  0  0  0  0
  180.7960   18.9770   45.0510 C   0  0  0  0  0  0  0  0  0  0  0  0
  181.3080   20.2620   45.0430 O   0  0  0  0  0  0  0  0  0  0  0  0
  177.4550   19.4260   46.4860 C   0  0  0  0  0  0  0  0  0  0  0  0
  176.6280   20.3170   47.2050 C   0  0  0  0  0  0  0  0  0  0  0  0
  175.1300   20.1380   47.1690 C   0  0  0  0  0  0  0  0  0  0  0  0
  174.5670   19.9750   48.4010 F   0  0  0  0  0  0  0  0  0  0  0  0
  174.7490   19.0270   46.4640 F   0  0  0  0  0  0  0  0  0  0  0  0
  174.4670   21.1700   46.5710 F   0  0  0  0  0  0  0  0  0  0  0  0
  176.9202   24.0881   49.5400 H   0  0  0  0  0  0  0  0  0  0  0  0
  177.7469   23.7129   47.9901 H   0  0  0  0  0  0  0  0  0  0  0  0
  176.0203   24.2085   47.9901 H   0  0  0  0  0  0  0  0  0  0  0  0
  176.5450   22.5825   50.7378 H   0  0  0  0  0  0  0  0  0  0  0  0
  175.1181   21.6218   50.2203 H   0  0  0  0  0  0  0  0  0  0  0  0
  176.7518   20.8749   50.2203 H   0  0  0  0  0  0  0  0  0  0  0  0
  179.0830   22.3018   48.5049 H   0  0  0  0  0  0  0  0  0  0  0  0
  180.5106   20.7253   47.2281 H   0  0  0  0  0  0  0  0  0  0  0  0
  178.4058   14.8477   45.6492 H   0  0  0  0  0  0  0  0  0  0  0  0
  179.5451   12.9878   44.4332 H   0  0  0  0  0  0  0  0  0  0  0  0
  181.6354   13.4323   43.1456 H   0  0  0  0  0  0  0  0  0  0  0  0
  183.3060   16.5030   43.0010 H   0  0  0  0  0  0  0  0  0  0  0  0
  181.6540   20.6230   44.2500 H   0  0  0  0  0  0  0  0  0  0  0  0
  176.9909   18.6138   45.9073 H   0  0  0  0  0  0  0  0  0  0  0  0
  1  2  1  0
  2  3  1  0
  2  4  1  0
  4  5  2  0
  5  6  1  0
  6  7  2  0
  7  8  1  0
  8  9  1  0
  9 10  1  0
 10 11  2  0
 11 12  1  0
 12 13  2  0
 13 14  1  0
 14 15  1  0
 14 16  2  0
 16 17  1  0
 17 18  2  0
 17 19  1  0
 19 20  1  0
  7 21  1  0
 21 22  2  0
 22 23  1  0
 23 24  1  0
 23 25  1  0
 23 26  1  0
 22  4  1  0
 19  8  2  0
 16 10  1  0
  1 27  1  0
  1 28  1  0
  1 29  1  0
  3 30  1  0
  3 31  1  0
  3 32  1  0
  5 33  1  0
  6 34  1  0
 11 35  1  0
 12 36  1  0
 13 37  1  0
 15 38  1  0
 20 39  1  0
 21 40  1  0
M  END
>  <meeko>  (2) 
{"is_sidechain": [false], "free_energy": -6.984, "intermolecular_energy": -9.22, "internal_energy": 0.095}

$$$$
cand_012_out
     RDKit          3D

 40 42  0  0  0  0  0  0  0  0999 V2000
  175.7440   21.7460   50.0710 C   0  0  0  0  0  0  0  0  0  0  0  0
  175.7860   22.0290   48.6340 N   0  0  0  0  0  0  0  0  0  0  0  0
  174.4650   22.1300   48.0030 C   0  0  0  0  0  0  0  0  0  0  0  0
  176.6500   21.1760   47.9200 C   0  0  0  0  0  0  0  0  0  0  0  0
  176.3160   19.8380   47.6560 C   0  0  0  0  0  0  0  0  0  0  0  0
  177.1770   19.0020   46.9390 C   0  0  0  0  0  0  0  0  0  0  0  0
  178.3970   19.4810   46.4540 C   0  0  0  0  0  0  0  0  0  0  0  0
  179.3390   18.6130   45.7160 C   0  0  0  0  0  0  0  0  0  0  0  0
  178.9600   17.2760   45.7230 O   0  0  0  0  0  0  0  0  0  0  0  0
  179.7490   16.3590   45.0760 C   0  0  0  0  0  0  0  0  0  0  0  0
  179.3240   15.0300   45.0980 C   0  0  0  0  0  0  0  0  0  0  0  0
  180.0820   14.0460   44.4590 C   0  0  0  0  0  0  0  0  0  0  0  0
  181.2630   14.3910   43.7990 C   0  0  0  0  0  0  0  0  0  0  0  0
  181.6850   15.7180   43.7800 C   0  0  0  0  0  0  0  0  0  0  0  0
  182.8510   15.9860   43.1150 O   0  0  0  0  0  0  0  0  0  0  0  0
  180.9260   16.7020   44.4180 C   0  0  0  0  0  0  0  0  0  0  0  0
  181.3330   18.1080   44.4220 C   0  0  0  0  0  0  0  0  0  0  0  0
  182.3620   18.4900   43.8680 O   0  0  0  0  0  0  0  0  0  0  0  0
  180.4560   19.0740   45.1220 C   0  0  0  0  0  0  0  0  0  0  0  0
  180.8570   20.3970   45.1340 O   0  0  0  0  0  0  0  0  0  0  0  0
  178.7370   20.8150   46.7220 C   0  0  0  0  0  0  0  0  0  0  0  0
  177.8770   21.6700   47.4450 C   0  0  0  0  0  0  0  0  0  0  0  0
  178.2900   23.0980   47.7030 C   0  0  0  0  0  0  0  0  0  0  0  0
  177.3560   24.0170   47.3230 F   0  0  0  0  0  0  0  0  0  0  0  0
  179.4230   23.4510   47.0170 F   0  0  0  0  0  0  0  0  0  0  0  0
  178.5840   23.3580   49.0100 F   0  0  0  0  0  0  0  0  0  0  0  0
  175.8828   22.6813   50.6331 H   0  0  0  0  0  0  0  0  0  0  0  0
  174.7704   21.3039   50.3294 H   0  0  0  0  0  0  0  0  0  0  0  0
  176.5473   21.0403   50.3294 H   0  0  0  0  0  0  0  0  0  0  0  0
  173.6903   22.1892   48.7817 H   0  0  0  0  0  0  0  0  0  0  0  0
  174.4257   23.0338   47.3772 H   0  0  0  0  0  0  0  0  0  0  0  0
  174.2888   21.2427   47.3772 H   0  0  0  0  0  0  0  0  0  0  0  0
  175.3577   19.4396   48.0206 H   0  0  0  0  0  0  0  0  0  0  0  0
  176.8911   17.9559   46.7546 H   0  0  0  0  0  0  0  0  0  0  0  0
  178.3936   14.7577   45.6177 H   0  0  0  0  0  0  0  0  0  0  0  0
  179.7481   12.9980   44.4758 H   0  0  0  0  0  0  0  0  0  0  0  0
  181.8591   13.6160   43.2949 H   0  0  0  0  0  0  0  0  0  0  0  0
  183.6710   15.7170   43.4810 H   0  0  0  0  0  0  0  0  0  0  0  0
  180.2460   21.0700   45.3620 H   0  0  0  0  0  0  0  0  0  0  0  0
  179.6993   21.2055   46.3593 H   0  0  0  0  0  0  0  0  0  0  0  0
  1  2  1  0
  2  3  1  0
  2  4  1  0
  4  5  2  0
  5  6  1  0
  6  7  2  0
  7  8  1  0
  8  9  1  0
  9 10  1  0
 10 11  2  0
 11 12  1  0
 12 13  2  0
 13 14  1  0
 14 15  1  0
 14 16  2  0
 16 17  1  0
 17 18  2  0
 17 19  1  0
 19 20  1  0
  7 21  1  0
 21 22  2  0
 22 23  1  0
 23 24  1  0
 23 25  1  0
 23 26  1  0
 22  4  1  0
 19  8  2  0
 16 10  1  0
  1 27  1  0
  1 28  1  0
  1 29  1  0
  3 30  1  0
  3 31  1  0
  3 32  1  0
  5 33  1  0
  6 34  1  0
 11 35  1  0
 12 36  1  0
 13 37  1  0
 15 38  1  0
 20 39  1  0
 21 40  1  0
M  END
>  <meeko>  (3) 
{"is_sidechain": [false], "free_energy": -5.906, "intermolecular_energy": -7.89, "internal_energy": 0.096}

$$$$
cand_012_out
     RDKit          3D

 40 42  0  0  0  0  0  0  0  0999 V2000
  186.8280   24.8890   44.0320 C   0  0  0  0  0  0  0  0  0  0  0  0
  186.8470   23.9390   45.1480 N   0  0  0  0  0  0  0  0  0  0  0  0
  187.9300   22.9510   45.0750 C   0  0  0  0  0  0  0  0  0  0  0  0
  185.5980   23.3370   45.3920 C   0  0  0  0  0  0  0  0  0  0  0  0
  184.9880   22.4900   44.4540 C   0  0  0  0  0  0  0  0  0  0  0  0
  183.7510   21.8900   44.7110 C   0  0  0  0  0  0  0  0  0  0  0  0
  183.0890   22.1130   45.9210 C   0  0  0  0  0  0  0  0  0  0  0  0
  181.7680   21.5140   46.2100 C   0  0  0  0  0  0  0  0  0  0  0  0
  180.9490   22.3500   46.9600 O   0  0  0  0  0  0  0  0  0  0  0  0
  179.6940   21.9170   47.3030 C   0  0  0  0  0  0  0  0  0  0  0  0
  178.9020   22.7930   48.0460 C   0  0  0  0  0  0  0  0  0  0  0  0
  177.6130   22.4120   48.4280 C   0  0  0  0  0  0  0  0  0  0  0  0
  177.1180   21.1570   48.0680 C   0  0  0  0  0  0  0  0  0  0  0  0
  177.9110   20.2850   47.3260 C   0  0  0  0  0  0  0  0  0  0  0  0
  177.3640   19.0720   47.0080 O   0  0  0  0  0  0  0  0  0  0  0  0
  179.1990   20.6670   46.9430 C   0  0  0  0  0  0  0  0  0  0  0  0
  180.0660   19.7810   46.1650 C   0  0  0  0  0  0  0  0  0  0  0  0
  179.7050   18.6590   45.8140 O   0  0  0  0  0  0  0  0  0  0  0  0
  181.4120   20.2810   45.8050 C   0  0  0  0  0  0  0  0  0  0  0  0
  182.2290   19.4300   45.0830 O   0  0  0  0  0  0  0  0  0  0  0  0
  183.6910   22.9650   46.8580 C   0  0  0  0  0  0  0  0  0  0  0  0
  184.9390   23.5760   46.6120 C   0  0  0  0  0  0  0  0  0  0  0  0
  185.5450   24.4820   47.6550 C   0  0  0  0  0  0  0  0  0  0  0  0
  186.7760   24.0790   48.0850 F   0  0  0  0  0  0  0  0  0  0  0  0
  184.7870   24.5540   48.7940 F   0  0  0  0  0  0  0  0  0  0  0  0
  185.6800   25.7770   47.2480 F   0  0  0  0  0  0  0  0  0  0  0  0
  186.8075   25.9161   44.4251 H   0  0  0  0  0  0  0  0  0  0  0  0
  187.7291   24.7499   43.4167 H   0  0  0  0  0  0  0  0  0  0  0  0
  185.9332   24.7140   43.4167 H   0  0  0  0  0  0  0  0  0  0  0  0
  188.2386   22.6694   46.0926 H   0  0  0  0  0  0  0  0  0  0  0  0
  187.5762   22.0580   44.5389 H   0  0  0  0  0  0  0  0  0  0  0  0
  188.7868   23.3851   44.5389 H   0  0  0  0  0  0  0  0  0  0  0  0
  185.4932   22.2939   43.4968 H   0  0  0  0  0  0  0  0  0  0  0  0
  183.2949   21.2362   43.9531 H   0  0  0  0  0  0  0  0  0  0  0  0
  179.2915   23.7816   48.3305 H   0  0  0  0  0  0  0  0  0  0  0  0
  176.9873   23.1019   49.0133 H   0  0  0  0  0  0  0  0  0  0  0  0
  176.1035   20.8575   48.3699 H   0  0  0  0  0  0  0  0  0  0  0  0
  177.7820   18.5210   46.3760 H   0  0  0  0  0  0  0  0  0  0  0  0
  182.4590   19.6410   44.1990 H   0  0  0  0  0  0  0  0  0  0  0  0
  183.1767   23.1623   47.8101 H   0  0  0  0  0  0  0  0  0  0  0  0
  1  2  1  0
  2  3  1  0
  2  4  1  0
  4  5  2  0
  5  6  1  0
  6  7  2  0
  7  8  1  0
  8  9  1  0
  9 10  1  0
 10 11  2  0
 11 12  1  0
 12 13  2  0
 13 14  1  0
 14 15  1  0
 14 16  2  0
 16 17  1  0
 17 18  2  0
 17 19  1  0
 19 20  1  0
  7 21  1  0
 21 22  2  0
 22 23  1  0
 23 24  1  0
 23 25  1  0
 23 26  1  0
 22  4  1  0
 19  8  2  0
 16 10  1  0
  1 27  1  0
  1 28  1  0
  1 29  1  0
  3 30  1  0
  3 31  1  0
  3 32  1  0
  5 33  1  0
  6 34  1  0
 11 35  1  0
 12 36  1  0
 13 37  1  0
 15 38  1  0
 20 39  1  0
 21 40  1  0
M  END
>  <meeko>  (4) 
{"is_sidechain": [false], "free_energy": -5.505, "intermolecular_energy": -7.064, "internal_energy": -0.236}

$$$$
cand_012_out
     RDKit          3D

 40 42  0  0  0  0  0  0  0  0999 V2000
  187.9300   24.2200   46.6140 C   0  0  0  0  0  0  0  0  0  0  0  0
  187.1700   24.0840   45.3680 N   0  0  0  0  0  0  0  0  0  0  0  0
  187.0680   25.3240   44.5900 C   0  0  0  0  0  0  0  0  0  0  0  0
  185.9190   23.4630   45.5400 C   0  0  0  0  0  0  0  0  0  0  0  0
  185.0570   23.8130   46.5910 C   0  0  0  0  0  0  0  0  0  0  0  0
  183.8120   23.1950   46.7470 C   0  0  0  0  0  0  0  0  0  0  0  0
  183.3860   22.2130   45.8500 C   0  0  0  0  0  0  0  0  0  0  0  0
  182.0870   21.5240   46.0060 C   0  0  0  0  0  0  0  0  0  0  0  0
  181.1640   22.2680   46.7310 O   0  0  0  0  0  0  0  0  0  0  0  0
  179.9160   21.7450   46.9540 C   0  0  0  0  0  0  0  0  0  0  0  0
  179.0180   22.5320   47.6760 C   0  0  0  0  0  0  0  0  0  0  0  0
  177.7310   22.0560   47.9370 C   0  0  0  0  0  0  0  0  0  0  0  0
  177.3430   20.7970   47.4780 C   0  0  0  0  0  0  0  0  0  0  0  0
  178.2410   20.0140   46.7580 C   0  0  0  0  0  0  0  0  0  0  0  0
  177.7950   18.7900   46.3380 O   0  0  0  0  0  0  0  0  0  0  0  0
  179.5280   20.4900   46.4950 C   0  0  0  0  0  0  0  0  0  0  0  0
  180.5040   19.6990   45.7430 C   0  0  0  0  0  0  0  0  0  0  0  0
  180.2400   18.5790   45.3100 O   0  0  0  0  0  0  0  0  0  0  0  0
  181.8390   20.2960   45.5140 C   0  0  0  0  0  0  0  0  0  0  0  0
  182.7590   19.5350   44.8160 O   0  0  0  0  0  0  0  0  0  0  0  0
  184.2460   21.8550   44.8030 C   0  0  0  0  0  0  0  0  0  0  0  0
  185.5060   22.4700   44.6330 C   0  0  0  0  0  0  0  0  0  0  0  0
  186.3930   22.0500   43.4870 C   0  0  0  0  0  0  0  0  0  0  0  0
  186.1520   20.7830   43.0420 F   0  0  0  0  0  0  0  0  0  0  0  0
  187.7220   22.0540   43.8220 F   0  0  0  0  0  0  0  0  0  0  0  0
  186.3090   22.8680   42.3980 F   0  0  0  0  0  0  0  0  0  0  0  0
  187.2523   24.0987   47.4719 H   0  0  0  0  0  0  0  0  0  0  0  0
  188.7122   23.4476   46.6526 H   0  0  0  0  0  0  0  0  0  0  0  0
  188.3958   25.2158   46.6526 H   0  0  0  0  0  0  0  0  0  0  0  0
  186.9974   26.1818   45.2749 H   0  0  0  0  0  0  0  0  0  0  0  0
  187.9602   25.4335   43.9559 H   0  0  0  0  0  0  0  0  0  0  0  0
  186.1699   25.2862   43.9559 H   0  0  0  0  0  0  0  0  0  0  0  0
  185.3669   24.5890   47.3064 H   0  0  0  0  0  0  0  0  0  0  0  0
  183.1615   23.4855   47.5851 H   0  0  0  0  0  0  0  0  0  0  0  0
  179.3228   23.5247   48.0387 H   0  0  0  0  0  0  0  0  0  0  0  0
  177.0218   22.6753   48.5058 H   0  0  0  0  0  0  0  0  0  0  0  0
  176.3292   20.4236   47.6847 H   0  0  0  0  0  0  0  0  0  0  0  0
  177.4610   18.1750   46.9600 H   0  0  0  0  0  0  0  0  0  0  0  0
  182.7290   19.5070   43.8790 H   0  0  0  0  0  0  0  0  0  0  0  0
  183.9313   21.0743   44.0948 H   0  0  0  0  0  0  0  0  0  0  0  0
  1  2  1  0
  2  3  1  0
  2  4  1  0
  4  5  2  0
  5  6  1  0
  6  7  2  0
  7  8  1  0
  8  9  1  0
  9 10  1  0
 10 11  2  0
 11 12  1  0
 12 13  2  0
 13 14  1  0
 14 15  1  0
 14 16  2  0
 16 17  1  0
 17 18  2  0
 17 19  1  0
 19 20  1  0
  7 21  1  0
 21 22  2  0
 22 23  1  0
 23 24  1  0
 23 25  1  0
 23 26  1  0
 22  4  1  0
 19  8  2  0
 16 10  1  0
  1 27  1  0
  1 28  1  0
  1 29  1  0
  3 30  1  0
  3 31  1  0
  3 32  1  0
  5 33  1  0
  6 34  1  0
 11 35  1  0
 12 36  1  0
 13 37  1  0
 15 38  1  0
 20 39  1  0
 21 40  1  0
M  END
>  <meeko>  (5) 
{"is_sidechain": [false], "free_energy": -5.046, "intermolecular_energy": -6.987, "internal_energy": 0.254}

$$$$
