cand_015_out
     RDKit          3D

 36 38  0  0  0  0  0  0  0  0999 V2000
  181.0800   14.4920   41.6130 C   0  0  0  0  0  0  0  0  0  0  0  0
  181.7900   15.1630   42.5260 C   0  0  0  0  0  0  0  0  0  0  0  0
  183.1020   14.8620   42.6520 F   0  0  0  0  0  0  0  0  0  0  0  0
  181.2360   16.1850   43.4300 C   0  0  0  0  0  0  0  0  0  0  0  0
  181.5060   17.5440   43.1910 C   0  0  0  0  0  0  0  0  0  0  0  0
  181.0200   18.5410   44.0440 C   0  0  0  0  0  0  0  0  0  0  0  0
  180.2490   18.2110   45.1610 C   0  0  0  0  0  0  0  0  0  0  0  0
  179.7490   19.2420   46.0950 C   0  0  0  0  0  0  0  0  0  0  0  0
  178.3660   19.2210   46.2330 O   0  0  0  0  0  0  0  0  0  0  0  0
  177.7700   20.1280   47.0710 C   0  0  0  0  0  0  0  0  0  0  0  0
  176.3800   20.0610   47.1910 C   0  0  0  0  0  0  0  0  0  0  0  0
  175.7090   20.9580   48.0270 C   0  0  0  0  0  0  0  0  0  0  0  0
  176.4270   21.9190   48.7420 C   0  0  0  0  0  0  0  0  0  0  0  0
  177.8130   21.9820   48.6210 C   0  0  0  0  0  0  0  0  0  0  0  0
  178.4530   22.9470   49.3490 O   0  0  0  0  0  0  0  0  0  0  0  0
  178.4830   21.0850   47.7850 C   0  0  0  0  0  0  0  0  0  0  0  0
  179.9380   21.1180   47.6290 C   0  0  0  0  0  0  0  0  0  0  0  0
  180.6380   21.9380   48.2180 O   0  0  0  0  0  0  0  0  0  0  0  0
  180.5520   20.1190   46.7240 C   0  0  0  0  0  0  0  0  0  0  0  0
  181.9270   20.1670   46.5740 O   0  0  0  0  0  0  0  0  0  0  0  0
  179.9920   16.8550   45.4130 C   0  0  0  0  0  0  0  0  0  0  0  0
  180.4650   15.8380   44.5590 C   0  0  0  0  0  0  0  0  0  0  0  0
  180.1460   14.4060   44.9000 C   0  0  0  0  0  0  0  0  0  0  0  0
  180.0097   14.7085   41.4808 H   0  0  0  0  0  0  0  0  0  0  0  0
  181.5663   13.7235   40.9942 H   0  0  0  0  0  0  0  0  0  0  0  0
  182.1105   17.8287   42.3172 H   0  0  0  0  0  0  0  0  0  0  0  0
  181.2476   19.5962   43.8326 H   0  0  0  0  0  0  0  0  0  0  0  0
  175.8143   19.3036   46.6285 H   0  0  0  0  0  0  0  0  0  0  0  0
  174.6143   20.9069   48.1218 H   0  0  0  0  0  0  0  0  0  0  0  0
  175.8987   22.6250   49.3996 H   0  0  0  0  0  0  0  0  0  0  0  0
  179.3090   22.7840   49.6920 H   0  0  0  0  0  0  0  0  0  0  0  0
  182.4080   20.9020   46.8990 H   0  0  0  0  0  0  0  0  0  0  0  0
  179.4054   16.5778   46.3013 H   0  0  0  0  0  0  0  0  0  0  0  0
  180.1194   14.2866   45.9932 H   0  0  0  0  0  0  0  0  0  0  0  0
  179.1662   14.1381   44.4779 H   0  0  0  0  0  0  0  0  0  0  0  0
  180.9195   13.7475   44.4779 H   0  0  0  0  0  0  0  0  0  0  0  0
  1  2  2  0
  2  3  1  0
  2  4  1  0
  4  5  2  0
  5  6  1  0
  6  7  2  0
  7  8  1  0
  8  9  1  0
  9 10  1  0
 10 11  2  0
 11 12  1  0
 12 13  2  0
 13 14  1  0
 14 15  1  0
 14 16  2  0
 16 17  1  0
 17 18  2  0
 17 19  1  0
 19 20  1  0
  7 21  1  0
 21 22  2  0
 22 23  1  0
 22  4  1  0
 19  8  2  0
 16 10  1  0
  1 24  1  0
  1 25  1  0
  5 26  1  0
  6 27  1  0
 11 28  1  0
 12 29  1  0
 13 30  1  0
 15 31  1  0
 20 32  1  0
 21 33  1  0
 23 34  1  0
 23 35  1  0
 23 36  1  0
M  END
>  <meeko>  (1) 
{"is_sidechain": [false], "free_energy": -8.643, "intermolecular_energy": -10.158, "internal_energy": -0.247}

$$$$
cand_015_out
     RDKit          3D

 36 38  0  0  0  0  0  0  0  0999 V2000
  176.6540   23.8320   48.7540 C   0  0  0  0  0  0  0  0  0  0  0  0
  176.5160   22.5060   48.8640 C   0  0  0  0  0  0  0  0  0  0  0  0
  175.6270   22.0370   49.7680 F   0  0  0  0  0  0  0  0  0  0  0  0
  177.2890   21.5180   48.0930 C   0  0  0  0  0  0  0  0  0  0  0  0
  178.6830   21.4440   48.2600 C   0  0  0  0  0  0  0  0  0  0  0  0
  179.4550   20.5360   47.5250 C   0  0  0  0  0  0  0  0  0  0  0  0
  178.8560   19.6750   46.6020 C   0  0  0  0  0  0  0  0  0  0  0  0
  179.6510   18.7290   45.7910 C   0  0  0  0  0  0  0  0  0  0  0  0
  179.1430   17.4350   45.8160 O   0  0  0  0  0  0  0  0  0  0  0  0
  179.7870   16.4560   45.1050 C   0  0  0  0  0  0  0  0  0  0  0  0
  179.2330   15.1750   45.1470 C   0  0  0  0  0  0  0  0  0  0  0  0
  179.8410   14.1300   44.4460 C   0  0  0  0  0  0  0  0  0  0  0  0
  181.0000   14.3660   43.7040 C   0  0  0  0  0  0  0  0  0  0  0  0
  181.5490   15.6450   43.6640 C   0  0  0  0  0  0  0  0  0  0  0  0
  182.6850   15.8070   42.9180 O   0  0  0  0  0  0  0  0  0  0  0  0
  180.9410   16.6900   44.3650 C   0  0  0  0  0  0  0  0  0  0  0  0
  181.4860   18.0490   44.3480 C   0  0  0  0  0  0  0  0  0  0  0  0
  182.5060   18.3340   43.7260 O   0  0  0  0  0  0  0  0  0  0  0  0
  180.7610   19.0850   45.1200 C   0  0  0  0  0  0  0  0  0  0  0  0
  181.2920   20.3630   45.1090 O   0  0  0  0  0  0  0  0  0  0  0  0
  177.4680   19.7580   46.4200 C   0  0  0  0  0  0  0  0  0  0  0  0
  176.6740   20.6590   47.1580 C   0  0  0  0  0  0  0  0  0  0  0  0
  175.1900   20.6870   46.9030 C   0  0  0  0  0  0  0  0  0  0  0  0
  177.3672   24.2525   48.0298 H   0  0  0  0  0  0  0  0  0  0  0  0
  176.0543   24.5018   49.3877 H   0  0  0  0  0  0  0  0  0  0  0  0
  179.1764   22.1118   48.9815 H   0  0  0  0  0  0  0  0  0  0  0  0
  180.5440   20.5002   47.6758 H   0  0  0  0  0  0  0  0  0  0  0  0
  178.3196   14.9887   45.7309 H   0  0  0  0  0  0  0  0  0  0  0  0
  179.4059   13.1202   44.4788 H   0  0  0  0  0  0  0  0  0  0  0  0
  181.4783   13.5433   43.1522 H   0  0  0  0  0  0  0  0  0  0  0  0
  183.5090   15.5060   43.2480 H   0  0  0  0  0  0  0  0  0  0  0  0
  182.2090   20.4900   45.2540 H   0  0  0  0  0  0  0  0  0  0  0  0
  176.9855   19.1017   45.6808 H   0  0  0  0  0  0  0  0  0  0  0  0
  174.6531   20.6971   47.8630 H   0  0  0  0  0  0  0  0  0  0  0  0
  174.9334   21.5901   46.3299 H   0  0  0  0  0  0  0  0  0  0  0  0
  174.8995   19.7942   46.3299 H   0  0  0  0  0  0  0  0  0  0  0  0
  1  2  2  0
  2  3  1  0
  2  4  1  0
  4  5  2  0
  5  6  1  0
  6  7  2  0
  7  8  1  0
  8  9  1  0
  9 10  1  0
 10 11  2  0
 11 12  1  0
 12 13  2  0
 13 14  1  0
 14 15  1  0
 14 16  2  0
 16 17  1  0
 17 18  2  0
 17 19  1  0
 19 20  1  0
  7 21  1  0
 21 22  2  0
 22 23  1  0
 22  4  1  0
 19  8  2  0
 16 10  1  0
  1 24  1  0
  1 25  1  0
  5 26  1  0
  6 27  1  0
 11 28  1  0
 12 29  1  0
 13 30  1  0
 15 31  1  0
 20 32  1  0
 21 33  1  0
 23 34  1  0
 23 35  1  0
 23 36  1  0
M  END
>  <meeko>  (2) 
{"is_sidechain": [false], "free_energy": -7.723, "intermolecular_energy": -9.053, "internal_energy": -0.272}

$$$$
cand_015_out
     RDKit          3D

 36 38  0  0  0  0  0  0  0  0999 V2000
  181.1910   14.5390   41.7610 C   0  0  0  0  0  0  0  0  0  0  0  0
  180.7410   14.5280   43.0200 C   0  0  0  0  0  0  0  0  0  0  0  0
  180.4330   13.3320   43.5710 F   0  0  0  0  0  0  0  0  0  0  0  0
  180.5250   15.7320   43.8420 C   0  0  0  0  0  0  0  0  0  0  0  0
  179.7170   15.6530   44.9900 C   0  0  0  0  0  0  0  0  0  0  0  0
  179.4670   16.7800   45.7800 C   0  0  0  0  0  0  0  0  0  0  0  0
  180.0160   18.0210   45.4450 C   0  0  0  0  0  0  0  0  0  0  0  0
  179.7420   19.2340   46.2440 C   0  0  0  0  0  0  0  0  0  0  0  0
  178.3940   19.5710   46.2710 O   0  0  0  0  0  0  0  0  0  0  0  0
  178.0010   20.6790   46.9780 C   0  0  0  0  0  0  0  0  0  0  0  0
  176.6360   20.9720   46.9890 C   0  0  0  0  0  0  0  0  0  0  0  0
  176.1690   22.0870   47.6890 C   0  0  0  0  0  0  0  0  0  0  0  0
  177.0650   22.9080   48.3760 C   0  0  0  0  0  0  0  0  0  0  0  0
  178.4260   22.6130   48.3630 C   0  0  0  0  0  0  0  0  0  0  0  0
  179.2480   23.4590   49.0560 O   0  0  0  0  0  0  0  0  0  0  0  0
  178.8930   21.4970   47.6630 C   0  0  0  0  0  0  0  0  0  0  0  0
  180.3150   21.1520   47.6250 C   0  0  0  0  0  0  0  0  0  0  0  0
  181.1660   21.8290   48.1970 O   0  0  0  0  0  0  0  0  0  0  0  0
  180.7040   19.9440   46.8600 C   0  0  0  0  0  0  0  0  0  0  0  0
  182.0520   19.6340   46.8190 O   0  0  0  0  0  0  0  0  0  0  0  0
  180.8070   18.1080   44.2900 C   0  0  0  0  0  0  0  0  0  0  0  0
  181.0780   16.9800   43.4890 C   0  0  0  0  0  0  0  0  0  0  0  0
  181.9370   17.1570   42.2650 C   0  0  0  0  0  0  0  0  0  0  0  0
  181.4520   15.4925   41.2785 H   0  0  0  0  0  0  0  0  0  0  0  0
  181.3003   13.5946   41.2077 H   0  0  0  0  0  0  0  0  0  0  0  0
  179.2732   14.6869   45.2722 H   0  0  0  0  0  0  0  0  0  0  0  0
  178.8321   16.6887   46.6736 H   0  0  0  0  0  0  0  0  0  0  0  0
  175.9295   20.3259   46.4474 H   0  0  0  0  0  0  0  0  0  0  0  0
  175.0937   22.3184   47.6989 H   0  0  0  0  0  0  0  0  0  0  0  0
  176.6967   23.7862   48.9265 H   0  0  0  0  0  0  0  0  0  0  0  0
  179.2350   24.3780   48.8740 H   0  0  0  0  0  0  0  0  0  0  0  0
  182.3530   18.9240   46.2870 H   0  0  0  0  0  0  0  0  0  0  0  0
  181.2273   19.0827   44.0014 H   0  0  0  0  0  0  0  0  0  0  0  0
  182.9718   17.3702   42.5710 H   0  0  0  0  0  0  0  0  0  0  0  0
  181.9146   16.2354   41.6649 H   0  0  0  0  0  0  0  0  0  0  0  0
  181.5521   17.9947   41.6649 H   0  0  0  0  0  0  0  0  0  0  0  0
  1  2  2  0
  2  3  1  0
  2  4  1  0
  4  5  2  0
  5  6  1  0
  6  7  2  0
  7  8  1  0
  8  9  1  0
  9 10  1  0
 10 11  2  0
 11 12  1  0
 12 13  2  0
 13 14  1  0
 14 15  1  0
 14 16  2  0
 16 17  1  0
 17 18  2  0
 17 19  1  0
 19 20  1  0
  7 21  1  0
 21 22  2  0
 22 23  1  0
 22  4  1  0
 19  8  2  0
 16 10  1  0
  1 24  1  0
  1 25  1  0
  5 26  1  0
  6 27  1  0
 11 28  1  0
 12 29  1  0
 13 30  1  0
 15 31  1  0
 20 32  1  0
 21 33  1  0
 23 34  1  0
 23 35  1  0
 23 36  1  0
M  END
>  <meeko>  (3) 
{"is_sidechain": [false], "free_energy": -6.712, "intermolecular_energy": -8.66, "internal_energy": 0.524}

$$$$
cand_015_out
     RDKit          3D

 36 38  0  0  0  0  0  0  0  0999 V2000
  181.9070   15.6720   42.2630 C   0  0  0  0  0  0  0  0  0  0  0  0
  181.7120   15.7130   43.5850 C   0  0  0  0  0  0  0  0  0  0  0  0
  182.3420   14.7910   44.3460 F   0  0  0  0  0  0  0  0  0  0  0  0
  180.8290   16.6730   44.2700 C   0  0  0  0  0  0  0  0  0  0  0  0
  181.0790   18.0520   44.1530 C   0  0  0  0  0  0  0  0  0  0  0  0
  180.2780   18.9920   44.8110 C   0  0  0  0  0  0  0  0  0  0  0  0
  179.2050   18.5840   45.6070 C   0  0  0  0  0  0  0  0  0  0  0  0
  178.3630   19.5550   46.3370 C   0  0  0  0  0  0  0  0  0  0  0  0
  179.0680   20.6810   46.7460 O   0  0  0  0  0  0  0  0  0  0  0  0
  178.4050   21.6630   47.4360 C   0  0  0  0  0  0  0  0  0  0  0  0
  179.1490   22.7830   47.8140 C   0  0  0  0  0  0  0  0  0  0  0  0
  178.5350   23.8200   48.5220 C   0  0  0  0  0  0  0  0  0  0  0  0
  177.1800   23.7360   48.8510 C   0  0  0  0  0  0  0  0  0  0  0  0
  176.4420   22.6180   48.4730 C   0  0  0  0  0  0  0  0  0  0  0  0
  175.1210   22.6010   48.8270 O   0  0  0  0  0  0  0  0  0  0  0  0
  177.0560   21.5820   47.7640 C   0  0  0  0  0  0  0  0  0  0  0  0
  176.3160   20.3900   47.3470 C   0  0  0  0  0  0  0  0  0  0  0  0
  175.1240   20.2390   47.6050 O   0  0  0  0  0  0  0  0  0  0  0  0
  177.0590   19.3520   46.5950 C   0  0  0  0  0  0  0  0  0  0  0  0
  176.3530   18.2230   46.2170 O   0  0  0  0  0  0  0  0  0  0  0  0
  178.9640   17.2080   45.7410 C   0  0  0  0  0  0  0  0  0  0  0  0
  179.7540   16.2480   45.0770 C   0  0  0  0  0  0  0  0  0  0  0  0
  179.4300   14.7900   45.2730 C   0  0  0  0  0  0  0  0  0  0  0  0
  181.4111   16.4061   41.6109 H   0  0  0  0  0  0  0  0  0  0  0  0
  182.5633   14.9042   41.8274 H   0  0  0  0  0  0  0  0  0  0  0  0
  181.9193   18.3979   43.5331 H   0  0  0  0  0  0  0  0  0  0  0  0
  180.4958   20.0645   44.7002 H   0  0  0  0  0  0  0  0  0  0  0  0
  180.2161   22.8488   47.5550 H   0  0  0  0  0  0  0  0  0  0  0  0
  179.1193   24.7030   48.8204 H   0  0  0  0  0  0  0  0  0  0  0  0
  176.6969   24.5523   49.4080 H   0  0  0  0  0  0  0  0  0  0  0  0
  174.7870   21.9040   49.3570 H   0  0  0  0  0  0  0  0  0  0  0  0
  175.5660   18.3090   45.7160 H   0  0  0  0  0  0  0  0  0  0  0  0
  178.1362   16.8695   46.3815 H   0  0  0  0  0  0  0  0  0  0  0  0
  179.3804   14.5668   46.3490 H   0  0  0  0  0  0  0  0  0  0  0  0
  178.4597   14.5641   44.8066 H   0  0  0  0  0  0  0  0  0  0  0  0
  180.2132   14.1744   44.8066 H   0  0  0  0  0  0  0  0  0  0  0  0
  1  2  2  0
  2  3  1  0
  2  4  1  0
  4  5  2  0
  5  6  1  0
  6  7  2  0
  7  8  1  0
  8  9  1  0
  9 10  1  0
 10 11  2  0
 11 12  1  0
 12 13  2  0
 13 14  1  0
 14 15  1  0
 14 16  2  0
 16 17  1  0
 17 18  2  0
 17 19  1  0
 19 20  1  0
  7 21  1  0
 21 22  2  0
 22 23  1  0
 22  4  1  0
 19  8  2  0
 16 10  1  0
  1 24  1  0
  1 25  1  0
  5 26  1  0
  6 27  1  0
 11 28  1  0
 12 29  1  0
 13 30  1  0
 15 31  1  0
 20 32  1  0
 21 33  1  0
 23 34  1  0
 23 35  1  0
 23 36  1  0
M  END
>  <meeko>  (4) 
{"is_sidechain": [false], "free_energy": -6.469, "intermolecular_energy": -7.869, "internal_energy": 0.019}

$$$$
cand_015_out
     RDKit          3D

 36 38  0  0  0  0  0  0  0  0999 V2000
  181.3400   14.7810   44.3330 C   0  0  0  0  0  0  0  0  0  0  0  0
  181.0770   16.0050   43.8610 C   0  0  0  0  0  0  0  0  0  0  0  0
  181.3380   16.2480   42.5570 F   0  0  0  0  0  0  0  0  0  0  0  0
  180.5560   17.1190   44.6710 C   0  0  0  0  0  0  0  0  0  0  0  0
  179.3330   16.9720   45.3490 C   0  0  0  0  0  0  0  0  0  0  0  0
  178.7930   18.0180   46.1050 C   0  0  0  0  0  0  0  0  0  0  0  0
  179.4580   19.2420   46.2060 C   0  0  0  0  0  0  0  0  0  0  0  0
  178.8940   20.3740   46.9730 C   0  0  0  0  0  0  0  0  0  0  0  0
  177.5110   20.3080   47.0960 O   0  0  0  0  0  0  0  0  0  0  0  0
  176.8590   21.2970   47.7860 C   0  0  0  0  0  0  0  0  0  0  0  0
  175.4720   21.1830   47.8970 C   0  0  0  0  0  0  0  0  0  0  0  0
  174.7460   22.1590   48.5850 C   0  0  0  0  0  0  0  0  0  0  0  0
  175.4050   23.2470   49.1600 C   0  0  0  0  0  0  0  0  0  0  0  0
  176.7890   23.3580   49.0480 C   0  0  0  0  0  0  0  0  0  0  0  0
  177.3710   24.4480   49.6340 O   0  0  0  0  0  0  0  0  0  0  0  0
  177.5150   22.3810   48.3600 C   0  0  0  0  0  0  0  0  0  0  0  0
  178.9700   22.4600   48.2190 C   0  0  0  0  0  0  0  0  0  0  0  0
  179.6210   23.3890   48.6900 O   0  0  0  0  0  0  0  0  0  0  0  0
  179.6450   21.3700   47.4770 C   0  0  0  0  0  0  0  0  0  0  0  0
  181.0180   21.4610   47.3380 O   0  0  0  0  0  0  0  0  0  0  0  0
  180.6690   19.3990   45.5160 C   0  0  0  0  0  0  0  0  0  0  0  0
  181.2330   18.3540   44.7580 C   0  0  0  0  0  0  0  0  0  0  0  0
  182.5370   18.6020   44.0470 C   0  0  0  0  0  0  0  0  0  0  0  0
  181.1413   14.5442   45.3887 H   0  0  0  0  0  0  0  0  0  0  0  0
  181.7549   14.0115   43.6654 H   0  0  0  0  0  0  0  0  0  0  0  0
  178.7909   16.0171   45.2838 H   0  0  0  0  0  0  0  0  0  0  0  0
  177.8345   17.8749   46.6254 H   0  0  0  0  0  0  0  0  0  0  0  0
  174.9515   20.3265   47.4437 H   0  0  0  0  0  0  0  0  0  0  0  0
  173.6532   22.0697   48.6736 H   0  0  0  0  0  0  0  0  0  0  0  0
  174.8325   24.0152   49.7005 H   0  0  0  0  0  0  0  0  0  0  0  0
  178.2860   24.4380   49.8350 H   0  0  0  0  0  0  0  0  0  0  0  0
  181.4300   22.3010   47.2910 H   0  0  0  0  0  0  0  0  0  0  0  0
  181.1929   20.3648   45.5682 H   0  0  0  0  0  0  0  0  0  0  0  0
  183.3356   18.7539   44.7881 H   0  0  0  0  0  0  0  0  0  0  0  0
  182.7818   17.7343   43.4168 H   0  0  0  0  0  0  0  0  0  0  0  0
  182.4462   19.4990   43.4168 H   0  0  0  0  0  0  0  0  0  0  0  0
  1  2  2  0
  2  3  1  0
  2  4  1  0
  4  5  2  0
  5  6  1  0
  6  7  2  0
  7  8  1  0
  8  9  1  0
  9 10  1  0
 10 11  2  0
 11 12  1  0
 12 13  2  0
 13 14  1  0
 14 15  1  0
 14 16  2  0
 16 17  1  0
 17 18  2  0
 17 19  1  0
 19 20  1  0
  7 21  1  0
 21 22  2  0
 22 23  1  0
 22  4  1  0
 19  8  2  0
 16 10  1  0
  1 24  1  0
  1 25  1  0
  5 26  1  0
  6 27  1  0
 11 28  1  0
 12 29  1  0
 13 30  1  0
 15 31  1  0
 20 32  1  0
 21 33  1  0
 23 34  1  0
 23 35  1  0
 23 36  1  0
M  END
>  <meeko>  (5) 
{"is_sidechain": [false], "free_energy": -6.07, "intermolecular_energy": -7.497, "internal_energy": 0.116}

$$$$
