cand_019_out
     RDKit          3D

 35 37  0  0  0  0  0  0  0  0999 V2000
  180.7750   22.1000   48.3400 O   0  0  0  0  0  0  0  0  0  0  0  0
  180.0720   21.3210   47.7000 C   0  0  0  0  0  0  0  0  0  0  0  0
  180.6900   20.2670   46.8610 C   0  0  0  0  0  0  0  0  0  0  0  0
  182.0720   20.2210   46.8270 O   0  0  0  0  0  0  0  0  0  0  0  0
  179.8840   19.4360   46.1770 C   0  0  0  0  0  0  0  0  0  0  0  0
  180.3880   18.3570   45.2990 C   0  0  0  0  0  0  0  0  0  0  0  0
  181.3300   18.6040   44.2950 C   0  0  0  0  0  0  0  0  0  0  0  0
  181.8100   17.5650   43.4930 C   0  0  0  0  0  0  0  0  0  0  0  0
  181.3610   16.2490   43.6770 C   0  0  0  0  0  0  0  0  0  0  0  0
  181.9050   15.1500   42.7990 C   0  0  0  0  0  0  0  0  0  0  0  0
  181.1600   14.9670   41.6730 F   0  0  0  0  0  0  0  0  0  0  0  0
  180.4320   15.9760   44.7030 C   0  0  0  0  0  0  0  0  0  0  0  0
  179.9330   14.5710   44.9600 C   0  0  0  0  0  0  0  0  0  0  0  0
  179.4620   13.9730   43.8300 F   0  0  0  0  0  0  0  0  0  0  0  0
  180.9050   13.7350   45.4290 F   0  0  0  0  0  0  0  0  0  0  0  0
  179.9550   17.0370   45.4970 C   0  0  0  0  0  0  0  0  0  0  0  0
  178.4960   19.5100   46.1970 O   0  0  0  0  0  0  0  0  0  0  0  0
  177.8940   20.4710   46.9700 C   0  0  0  0  0  0  0  0  0  0  0  0
  176.4990   20.5030   46.9690 C   0  0  0  0  0  0  0  0  0  0  0  0
  175.8240   21.4570   47.7330 C   0  0  0  0  0  0  0  0  0  0  0  0
  176.5430   22.3790   48.4970 C   0  0  0  0  0  0  0  0  0  0  0  0
  177.9350   22.3450   48.4950 C   0  0  0  0  0  0  0  0  0  0  0  0
  178.5760   23.2770   49.2650 O   0  0  0  0  0  0  0  0  0  0  0  0
  178.6100   21.3900   47.7310 C   0  0  0  0  0  0  0  0  0  0  0  0
  182.5230   19.4660   47.1500 H   0  0  0  0  0  0  0  0  0  0  0  0
  181.6974   19.6284   44.1347 H   0  0  0  0  0  0  0  0  0  0  0  0
  182.5491   17.7820   42.7077 H   0  0  0  0  0  0  0  0  0  0  0  0
  182.9325   15.4095   42.5043 H   0  0  0  0  0  0  0  0  0  0  0  0
  181.8750   14.2142   43.3763 H   0  0  0  0  0  0  0  0  0  0  0  0
  179.1388   14.7109   45.7081 H   0  0  0  0  0  0  0  0  0  0  0  0
  179.2249   16.8256   46.2921 H   0  0  0  0  0  0  0  0  0  0  0  0
  175.9319   19.7776   46.3671 H   0  0  0  0  0  0  0  0  0  0  0  0
  174.7243   21.4825   47.7332 H   0  0  0  0  0  0  0  0  0  0  0  0
  176.0108   23.1303   49.0989 H   0  0  0  0  0  0  0  0  0  0  0  0
  178.2290   24.1440   49.3370 H   0  0  0  0  0  0  0  0  0  0  0  0
  1  2  2  0
  2  3  1  0
  3  4  1  0
  3  5  2  0
  5  6  1  0
  6  7  2  0
  7  8  1  0
  8  9  2  0
  9 10  1  0
 10 11  1  0
  9 12  1  0
 12 13  1  0
 13 14  1  0
 13 15  1  0
 12 16  2  0
  5 17  1  0
 17 18  1  0
 18 19  2  0
 19 20  1  0
 20 21  2  0
 21 22  1  0
 22 23  1  0
 22 24  2  0
 24  2  1  0
 16  6  1  0
 24 18  1  0
  4 25  1  0
  7 26  1  0
  8 27  1  0
 10 28  1  0
 10 29  1  0
 13 30  1  0
 16 31  1  0
 19 32  1  0
 20 33  1  0
 21 34  1  0
 23 35  1  0
M  END
>  <meeko>  (1) 
{"is_sidechain": [false], "free_energy": -8.631, "intermolecular_energy": -10.649, "internal_energy": -0.168}

$$$$
cand_019_out
     RDKit          3D

 35 37  0  0  0  0  0  0  0  0999 V2000
  182.5360   18.3510   43.6980 O   0  0  0  0  0  0  0  0  0  0  0  0
  181.5280   18.0680   44.3420 C   0  0  0  0  0  0  0  0  0  0  0  0
  180.8290   19.1030   45.1380 C   0  0  0  0  0  0  0  0  0  0  0  0
  181.3710   20.3760   45.1300 O   0  0  0  0  0  0  0  0  0  0  0  0
  179.7300   18.7490   45.8290 C   0  0  0  0  0  0  0  0  0  0  0  0
  178.9600   19.6940   46.6670 C   0  0  0  0  0  0  0  0  0  0  0  0
  179.5880   20.6860   47.4270 C   0  0  0  0  0  0  0  0  0  0  0  0
  178.8390   21.5830   48.1930 C   0  0  0  0  0  0  0  0  0  0  0  0
  177.4390   21.5120   48.2170 C   0  0  0  0  0  0  0  0  0  0  0  0
  176.6600   22.5000   49.0490 C   0  0  0  0  0  0  0  0  0  0  0  0
  176.3730   23.6430   48.3640 F   0  0  0  0  0  0  0  0  0  0  0  0
  176.7860   20.5350   47.4350 C   0  0  0  0  0  0  0  0  0  0  0  0
  175.2770   20.4310   47.4060 C   0  0  0  0  0  0  0  0  0  0  0  0
  174.7100   21.3370   46.5610 F   0  0  0  0  0  0  0  0  0  0  0  0
  174.8320   19.2130   46.9760 F   0  0  0  0  0  0  0  0  0  0  0  0
  177.5580   19.6370   46.6740 C   0  0  0  0  0  0  0  0  0  0  0  0
  179.2100   17.4600   45.8520 O   0  0  0  0  0  0  0  0  0  0  0  0
  179.8320   16.4810   45.1190 C   0  0  0  0  0  0  0  0  0  0  0  0
  179.2710   15.2040   45.1630 C   0  0  0  0  0  0  0  0  0  0  0  0
  179.8550   14.1620   44.4400 C   0  0  0  0  0  0  0  0  0  0  0  0
  181.0000   14.3960   43.6760 C   0  0  0  0  0  0  0  0  0  0  0  0
  181.5580   15.6710   43.6340 C   0  0  0  0  0  0  0  0  0  0  0  0
  182.6790   15.8290   42.8660 O   0  0  0  0  0  0  0  0  0  0  0  0
  180.9730   16.7130   44.3570 C   0  0  0  0  0  0  0  0  0  0  0  0
  182.2980   20.4890   45.0510 H   0  0  0  0  0  0  0  0  0  0  0  0
  180.6854   20.7610   47.4216 H   0  0  0  0  0  0  0  0  0  0  0  0
  179.3541   22.3543   48.7844 H   0  0  0  0  0  0  0  0  0  0  0  0
  175.7165   22.0304   49.3639 H   0  0  0  0  0  0  0  0  0  0  0  0
  177.2817   22.7742   49.9140 H   0  0  0  0  0  0  0  0  0  0  0  0
  174.9853   20.6111   48.4512 H   0  0  0  0  0  0  0  0  0  0  0  0
  177.0494   18.8714   46.0697 H   0  0  0  0  0  0  0  0  0  0  0  0
  178.3701   15.0186   45.7663 H   0  0  0  0  0  0  0  0  0  0  0  0
  179.4125   13.1555   44.4724 H   0  0  0  0  0  0  0  0  0  0  0  0
  181.4606   13.5742   43.1081 H   0  0  0  0  0  0  0  0  0  0  0  0
  182.8040   16.6180   42.3770 H   0  0  0  0  0  0  0  0  0  0  0  0
  1  2  2  0
  2  3  1  0
  3  4  1  0
  3  5  2  0
  5  6  1  0
  6  7  2  0
  7  8  1  0
  8  9  2  0
  9 10  1  0
 10 11  1  0
  9 12  1  0
 12 13  1  0
 13 14  1  0
 13 15  1  0
 12 16  2  0
  5 17  1  0
 17 18  1  0
 18 19  2  0
 19 20  1  0
 20 21  2  0
 21 22  1  0
 22 23  1  0
 22 24  2  0
 24  2  1  0
 16  6  1  0
 24 18  1  0
  4 25  1  0
  7 26  1  0
  8 27  1  0
 10 28  1  0
 10 29  1  0
 13 30  1  0
 16 31  1  0
 19 32  1  0
 20 33  1  0
 21 34  1  0
 23 35  1  0
M  END
>  <meeko>  (2) 
{"is_sidechain": [false], "free_energy": -7.688, "intermolecular_energy": -9.396, "internal_energy": -0.258}

$$$$
cand_019_out
     RDKit          3D

 35 37  0  0  0  0  0  0  0  0999 V2000
  175.2550   19.8920   47.6240 O   0  0  0  0  0  0  0  0  0  0  0  0
  176.4270   20.1230   47.3360 C   0  0  0  0  0  0  0  0  0  0  0  0
  177.2220   19.1350   46.5710 C   0  0  0  0  0  0  0  0  0  0  0  0
  176.5900   17.9560   46.2190 O   0  0  0  0  0  0  0  0  0  0  0  0
  178.5020   19.4280   46.2780 C   0  0  0  0  0  0  0  0  0  0  0  0
  179.3930   18.5130   45.5320 C   0  0  0  0  0  0  0  0  0  0  0  0
  180.4460   18.9900   44.7450 C   0  0  0  0  0  0  0  0  0  0  0  0
  181.2900   18.1060   44.0670 C   0  0  0  0  0  0  0  0  0  0  0  0
  181.1020   16.7190   44.1590 C   0  0  0  0  0  0  0  0  0  0  0  0
  182.0340   15.7930   43.4200 C   0  0  0  0  0  0  0  0  0  0  0  0
  181.5070   15.3550   42.2430 F   0  0  0  0  0  0  0  0  0  0  0  0
  180.0600   16.2190   44.9700 C   0  0  0  0  0  0  0  0  0  0  0  0
  179.8280   14.7320   45.1230 C   0  0  0  0  0  0  0  0  0  0  0  0
  179.4310   14.1450   43.9590 F   0  0  0  0  0  0  0  0  0  0  0  0
  180.9490   14.0510   45.5030 F   0  0  0  0  0  0  0  0  0  0  0  0
  179.2170   17.1250   45.6410 C   0  0  0  0  0  0  0  0  0  0  0  0
  179.1350   20.6050   46.6610 O   0  0  0  0  0  0  0  0  0  0  0  0
  178.4230   21.5420   47.3650 C   0  0  0  0  0  0  0  0  0  0  0  0
  179.0950   22.7130   47.7200 C   0  0  0  0  0  0  0  0  0  0  0  0
  178.4280   23.7080   48.4390 C   0  0  0  0  0  0  0  0  0  0  0  0
  177.0910   23.5320   48.8020 C   0  0  0  0  0  0  0  0  0  0  0  0
  176.4240   22.3620   48.4470 C   0  0  0  0  0  0  0  0  0  0  0  0
  175.1160   22.2560   48.8360 O   0  0  0  0  0  0  0  0  0  0  0  0
  177.0910   21.3680   47.7280 C   0  0  0  0  0  0  0  0  0  0  0  0
  175.8500   17.6570   46.7100 H   0  0  0  0  0  0  0  0  0  0  0  0
  180.6120   20.0740   44.6585 H   0  0  0  0  0  0  0  0  0  0  0  0
  182.1121   18.5030   43.4534 H   0  0  0  0  0  0  0  0  0  0  0  0
  182.9709   16.3294   43.2094 H   0  0  0  0  0  0  0  0  0  0  0  0
  182.2070   14.9133   44.0574 H   0  0  0  0  0  0  0  0  0  0  0  0
  179.0480   14.6708   45.8962 H   0  0  0  0  0  0  0  0  0  0  0  0
  178.4001   16.7353   46.2662 H   0  0  0  0  0  0  0  0  0  0  0  0
  180.1480   22.8521   47.4341 H   0  0  0  0  0  0  0  0  0  0  0  0
  178.9565   24.6310   48.7195 H   0  0  0  0  0  0  0  0  0  0  0  0
  176.5657   24.3159   49.3672 H   0  0  0  0  0  0  0  0  0  0  0  0
  174.8910   21.7430   49.5860 H   0  0  0  0  0  0  0  0  0  0  0  0
  1  2  2  0
  2  3  1  0
  3  4  1  0
  3  5  2  0
  5  6  1  0
  6  7  2  0
  7  8  1  0
  8  9  2  0
  9 10  1  0
 10 11  1  0
  9 12  1  0
 12 13  1  0
 13 14  1  0
 13 15  1  0
 12 16  2  0
  5 17  1  0
 17 18  1  0
 18 19  2  0
 19 20  1  0
 20 21  2  0
 21 22  1  0
 22 23  1  0
 22 24  2  0
 24  2  1  0
 16  6  1  0
 24 18  1  0
  4 25  1  0
  7 26  1  0
  8 27  1  0
 10 28  1  0
 10 29  1  0
 13 30  1  0
 16 31  1  0
 19 32  1  0
 20 33  1  0
 21 34  1  0
 23 35  1  0
M  END
>  <meeko>  (3) 
{"is_sidechain": [false], "free_energy": -7.128, "intermolecular_energy": -9.059, "internal_energy": 0.095}

$$$$
cand_019_out
     RDKit          3D

 35 37  0  0  0  0  0  0  0  0999 V2000
  181.5020   21.6150   46.7940 O   0  0  0  0  0  0  0  0  0  0  0  0
  180.6910   20.7200   46.5680 C   0  0  0  0  0  0  0  0  0  0  0  0
  181.0720   19.5500   45.7430 C   0  0  0  0  0  0  0  0  0  0  0  0
  182.3600   19.5300   45.2390 O   0  0  0  0  0  0  0  0  0  0  0  0
  180.1530   18.5940   45.5200 C   0  0  0  0  0  0  0  0  0  0  0  0
  180.4180   17.3900   44.7020 C   0  0  0  0  0  0  0  0  0  0  0  0
  180.2180   16.1000   45.2040 C   0  0  0  0  0  0  0  0  0  0  0  0
  180.4530   14.9780   44.4050 C   0  0  0  0  0  0  0  0  0  0  0  0
  180.8930   15.1160   43.0810 C   0  0  0  0  0  0  0  0  0  0  0  0
  181.1290   13.8840   42.2450 C   0  0  0  0  0  0  0  0  0  0  0  0
  182.4110   13.8030   41.7910 F   0  0  0  0  0  0  0  0  0  0  0  0
  181.0740   16.4110   42.5490 C   0  0  0  0  0  0  0  0  0  0  0  0
  181.5240   16.6180   41.1200 C   0  0  0  0  0  0  0  0  0  0  0  0
  180.8680   15.8030   40.2460 F   0  0  0  0  0  0  0  0  0  0  0  0
  181.2980   17.8860   40.6650 F   0  0  0  0  0  0  0  0  0  0  0  0
  180.8370   17.5300   43.3700 C   0  0  0  0  0  0  0  0  0  0  0  0
  178.8530   18.6390   46.0090 O   0  0  0  0  0  0  0  0  0  0  0  0
  178.4710   19.7060   46.7820 C   0  0  0  0  0  0  0  0  0  0  0  0
  177.1600   19.7050   47.2610 C   0  0  0  0  0  0  0  0  0  0  0  0
  176.7080   20.7630   48.0530 C   0  0  0  0  0  0  0  0  0  0  0  0
  177.5650   21.8210   48.3650 C   0  0  0  0  0  0  0  0  0  0  0  0
  178.8720   21.8180   47.8850 C   0  0  0  0  0  0  0  0  0  0  0  0
  179.6570   22.8850   48.2290 O   0  0  0  0  0  0  0  0  0  0  0  0
  179.3240   20.7600   47.0940 C   0  0  0  0  0  0  0  0  0  0  0  0
  183.0630   19.1980   45.7620 H   0  0  0  0  0  0  0  0  0  0  0  0
  179.8718   15.9672   46.2396 H   0  0  0  0  0  0  0  0  0  0  0  0
  180.2905   13.9726   44.8206 H   0  0  0  0  0  0  0  0  0  0  0  0
  180.9139   12.9954   42.8566 H   0  0  0  0  0  0  0  0  0  0  0  0
  180.4657   13.9404   41.3693 H   0  0  0  0  0  0  0  0  0  0  0  0
  182.6011   16.3972   41.1535 H   0  0  0  0  0  0  0  0  0  0  0  0
  180.9839   18.5389   42.9571 H   0  0  0  0  0  0  0  0  0  0  0  0
  176.4841   18.8727   47.0153 H   0  0  0  0  0  0  0  0  0  0  0  0
  175.6752   20.7631   48.4317 H   0  0  0  0  0  0  0  0  0  0  0  0
  177.2083   22.6543   48.9882 H   0  0  0  0  0  0  0  0  0  0  0  0
  180.5890   22.7910   48.2590 H   0  0  0  0  0  0  0  0  0  0  0  0
  1  2  2  0
  2  3  1  0
  3  4  1  0
  3  5  2  0
  5  6  1  0
  6  7  2  0
  7  8  1  0
  8  9  2  0
  9 10  1  0
 10 11  1  0
  9 12  1  0
 12 13  1  0
 13 14  1  0
 13 15  1  0
 12 16  2  0
  5 17  1  0
 17 18  1  0
 18 19  2  0
 19 20  1  0
 20 21  2  0
 21 22  1  0
 22 23  1  0
 22 24  2  0
 24  2  1  0
 16  6  1  0
 24 18  1  0
  4 25  1  0
  7 26  1  0
  8 27  1  0
 10 28  1  0
 10 29  1  0
 13 30  1  0
 16 31  1  0
 19 32  1  0
 20 33  1  0
 21 34  1  0
 23 35  1  0
M  END
>  <meeko>  (4) 
{"is_sidechain": [false], "free_energy": -7.027, "intermolecular_energy": -8.863, "internal_energy": 0.024}

$$$$
cand_019_out
     RDKit          3D

 35 37  0  0  0  0  0  0  0  0999 V2000
  182.2880   18.4790   43.8760 O   0  0  0  0  0  0  0  0  0  0  0  0
  181.2590   18.1310   44.4510 C   0  0  0  0  0  0  0  0  0  0  0  0
  180.4000   19.1320   45.1260 C   0  0  0  0  0  0  0  0  0  0  0  0
  180.8200   20.4490   45.0880 O   0  0  0  0  0  0  0  0  0  0  0  0
  179.2830   18.7070   45.7440 C   0  0  0  0  0  0  0  0  0  0  0  0
  178.3580   19.6130   46.4600 C   0  0  0  0  0  0  0  0  0  0  0  0
  177.0560   19.2250   46.7900 C   0  0  0  0  0  0  0  0  0  0  0  0
  176.2080   20.0900   47.4880 C   0  0  0  0  0  0  0  0  0  0  0  0
  176.6410   21.3660   47.8750 C   0  0  0  0  0  0  0  0  0  0  0  0
  175.7030   22.2710   48.6320 C   0  0  0  0  0  0  0  0  0  0  0  0
  174.3930   21.9860   48.3850 F   0  0  0  0  0  0  0  0  0  0  0  0
  177.9610   21.7640   47.5730 C   0  0  0  0  0  0  0  0  0  0  0  0
  178.4880   23.1200   47.9880 C   0  0  0  0  0  0  0  0  0  0  0  0
  179.6130   23.0300   48.7510 F   0  0  0  0  0  0  0  0  0  0  0  0
  178.8360   23.9070   46.9280 F   0  0  0  0  0  0  0  0  0  0  0  0
  178.8000   20.8820   46.8660 C   0  0  0  0  0  0  0  0  0  0  0  0
  178.8850   17.3760   45.7990 O   0  0  0  0  0  0  0  0  0  0  0  0
  179.6570   16.4270   45.1780 C   0  0  0  0  0  0  0  0  0  0  0  0
  179.2150   15.1050   45.2500 C   0  0  0  0  0  0  0  0  0  0  0  0
  179.9550   14.0900   44.6390 C   0  0  0  0  0  0  0  0  0  0  0  0
  181.1350   14.3960   43.9580 C   0  0  0  0  0  0  0  0  0  0  0  0
  181.5730   15.7160   43.8890 C   0  0  0  0  0  0  0  0  0  0  0  0
  182.7370   15.9450   43.2060 O   0  0  0  0  0  0  0  0  0  0  0  0
  180.8330   16.7310   44.4990 C   0  0  0  0  0  0  0  0  0  0  0  0
  180.7040   20.9990   45.8380 H   0  0  0  0  0  0  0  0  0  0  0  0
  176.6948   18.2281   46.4972 H   0  0  0  0  0  0  0  0  0  0  0  0
  175.1870   19.7650   47.7370 H   0  0  0  0  0  0  0  0  0  0  0  0
  175.8927   22.1547   49.7093 H   0  0  0  0  0  0  0  0  0  0  0  0
  175.8903   23.3024   48.2985 H   0  0  0  0  0  0  0  0  0  0  0  0
  177.6509   23.5612   48.5488 H   0  0  0  0  0  0  0  0  0  0  0  0
  179.8269   21.1948   46.6259 H   0  0  0  0  0  0  0  0  0  0  0  0
  178.2859   14.8630   45.7868 H   0  0  0  0  0  0  0  0  0  0  0  0
  179.6076   13.0478   44.6944 H   0  0  0  0  0  0  0  0  0  0  0  0
  181.7172   13.5961   43.4771 H   0  0  0  0  0  0  0  0  0  0  0  0
  183.4770   15.3880   43.3430 H   0  0  0  0  0  0  0  0  0  0  0  0
  1  2  2  0
  2  3  1  0
  3  4  1  0
  3  5  2  0
  5  6  1  0
  6  7  2  0
  7  8  1  0
  8  9  2  0
  9 10  1  0
 10 11  1  0
  9 12  1  0
 12 13  1  0
 13 14  1  0
 13 15  1  0
 12 16  2  0
  5 17  1  0
 17 18  1  0
 18 19  2  0
 19 20  1  0
 20 21  2  0
 21 22  1  0
 22 23  1  0
 22 24  2  0
 24  2  1  0
 16  6  1  0
 24 18  1  0
  4 25  1  0
  7 26  1  0
  8 27  1  0
 10 28  1  0
 10 29  1  0
 13 30  1  0
 16 31  1  0
 19 32  1  0
 20 33  1  0
 21 34  1  0
 23 35  1  0
M  END
>  <meeko>  (5) 
{"is_sidechain": [false], "free_energy": -6.821, "intermolecular_energy": -8.68, "internal_energy": 0.095}

$$$$
cand_019_out
     RDKit          3D

 35 37  0  0  0  0  0  0  0  0999 V2000
  179.2870   23.6430   49.2300 O   0  0  0  0  0  0  0  0  0  0  0  0
  178.7860   22.7340   48.5730 C   0  0  0  0  0  0  0  0  0  0  0  0
  179.6360   21.8490   47.7430 C   0  0  0  0  0  0  0  0  0  0  0  0
  180.9940   22.1090   47.7350 O   0  0  0  0  0  0  0  0  0  0  0  0
  179.0450   20.8670   47.0380 C   0  0  0  0  0  0  0  0  0  0  0  0
  179.7920   19.9330   46.1670 C   0  0  0  0  0  0  0  0  0  0  0  0
  180.9690   20.3150   45.5160 C   0  0  0  0  0  0  0  0  0  0  0  0
  181.6700   19.4090   44.7150 C   0  0  0  0  0  0  0  0  0  0  0  0
  181.2120   18.0940   44.5460 C   0  0  0  0  0  0  0  0  0  0  0  0
  181.9960   17.1400   43.6820 C   0  0  0  0  0  0  0  0  0  0  0  0
  183.2840   17.5460   43.4960 F   0  0  0  0  0  0  0  0  0  0  0  0
  180.0400   17.6830   45.2170 C   0  0  0  0  0  0  0  0  0  0  0  0
  179.5150   16.2700   45.0890 C   0  0  0  0  0  0  0  0  0  0  0  0
  180.4180   15.3400   45.5100 F   0  0  0  0  0  0  0  0  0  0  0  0
  178.3940   16.0450   45.8370 F   0  0  0  0  0  0  0  0  0  0  0  0
  179.3440   18.6120   46.0150 C   0  0  0  0  0  0  0  0  0  0  0  0
  177.6750   20.6330   47.0320 O   0  0  0  0  0  0  0  0  0  0  0  0
  176.8630   21.4310   47.7960 C   0  0  0  0  0  0  0  0  0  0  0  0
  175.4950   21.1540   47.7680 C   0  0  0  0  0  0  0  0  0  0  0  0
  174.6120   21.9300   48.5230 C   0  0  0  0  0  0  0  0  0  0  0  0
  175.0960   22.9810   49.3050 C   0  0  0  0  0  0  0  0  0  0  0  0
  176.4620   23.2550   49.3300 C   0  0  0  0  0  0  0  0  0  0  0  0
  176.8670   24.2980   50.1170 O   0  0  0  0  0  0  0  0  0  0  0  0
  177.3440   22.4790   48.5750 C   0  0  0  0  0  0  0  0  0  0  0  0
  181.4100   22.4500   48.5030 H   0  0  0  0  0  0  0  0  0  0  0  0
  181.3478   21.3408   45.6356 H   0  0  0  0  0  0  0  0  0  0  0  0
  182.5928   19.7315   44.2106 H   0  0  0  0  0  0  0  0  0  0  0  0
  182.0034   16.1513   44.1642 H   0  0  0  0  0  0  0  0  0  0  0  0
  181.5100   17.1039   42.6958 H   0  0  0  0  0  0  0  0  0  0  0  0
  179.2991   16.1707   44.0150 H   0  0  0  0  0  0  0  0  0  0  0  0
  178.4265   18.2940   46.5318 H   0  0  0  0  0  0  0  0  0  0  0  0
  175.1130   20.3262   47.1526 H   0  0  0  0  0  0  0  0  0  0  0  0
  173.5339   21.7128   48.5015 H   0  0  0  0  0  0  0  0  0  0  0  0
  174.4004   23.5912   49.8999 H   0  0  0  0  0  0  0  0  0  0  0  0
  176.3780   25.0980   50.1230 H   0  0  0  0  0  0  0  0  0  0  0  0
  1  2  2  0
  2  3  1  0
  3  4  1  0
  3  5  2  0
  5  6  1  0
  6  7  2  0
  7  8  1  0
  8  9  2  0
  9 10  1  0
 10 11  1  0
  9 12  1  0
 12 13  1  0
 13 14  1  0
 13 15  1  0
 12 16  2  0
  5 17  1  0
 17 18  1  0
 18 19  2  0
 19 20  1  0
 20 21  2  0
 21 22  1  0
 22 23  1  0
 22 24  2  0
 24  2  1  0
 16  6  1  0
 24 18  1  0
  4 25  1  0
  7 26  1  0
  8 27  1  0
 10 28  1  0
 10 29  1  0
 13 30  1  0
 16 31  1  0
 19 32  1  0
 20 33  1  0
 21 34  1  0
 23 35  1  0
M  END
>  <meeko>  (6) 
{"is_sidechain": [false], "free_energy": -6.078, "intermolecular_energy": -7.7, "internal_energy": 0.033}

$$$$
cand_019_out
     RDKit          3D

 35 37  0  0  0  0  0  0  0  0999 V2000
  180.5490   13.8290   44.0020 O   0  0  0  0  0  0  0  0  0  0  0  0
  180.6140   15.0280   43.7380 C   0  0  0  0  0  0  0  0  0  0  0  0
  180.3560   16.0440   44.7840 C   0  0  0  0  0  0  0  0  0  0  0  0
  180.0280   15.5790   46.0450 O   0  0  0  0  0  0  0  0  0  0  0  0
  180.4370   17.3450   44.4510 C   0  0  0  0  0  0  0  0  0  0  0  0
  180.1870   18.4440   45.4080 C   0  0  0  0  0  0  0  0  0  0  0  0
  181.2210   19.2580   45.8810 C   0  0  0  0  0  0  0  0  0  0  0  0
  180.9580   20.3060   46.7680 C   0  0  0  0  0  0  0  0  0  0  0  0
  179.6510   20.5680   47.2040 C   0  0  0  0  0  0  0  0  0  0  0  0
  179.4010   21.7100   48.1560 C   0  0  0  0  0  0  0  0  0  0  0  0
  179.0460   22.8560   47.5090 F   0  0  0  0  0  0  0  0  0  0  0  0
  178.5920   19.7730   46.7160 C   0  0  0  0  0  0  0  0  0  0  0  0
  177.1600   20.0280   47.1360 C   0  0  0  0  0  0  0  0  0  0  0  0
  176.4990   20.8360   46.2610 F   0  0  0  0  0  0  0  0  0  0  0  0
  176.4120   18.8880   47.2070 F   0  0  0  0  0  0  0  0  0  0  0  0
  178.8770   18.7190   45.8280 C   0  0  0  0  0  0  0  0  0  0  0  0
  180.7400   17.8000   43.1730 O   0  0  0  0  0  0  0  0  0  0  0  0
  180.9910   16.8830   42.1840 C   0  0  0  0  0  0  0  0  0  0  0  0
  181.3020   17.3850   40.9190 C   0  0  0  0  0  0  0  0  0  0  0  0
  181.5670   16.5050   39.8670 C   0  0  0  0  0  0  0  0  0  0  0  0
  181.5210   15.1260   40.0800 C   0  0  0  0  0  0  0  0  0  0  0  0
  181.2110   14.6280   41.3430 C   0  0  0  0  0  0  0  0  0  0  0  0
  181.1840   13.2680   41.4810 O   0  0  0  0  0  0  0  0  0  0  0  0
  180.9460   15.5090   42.3950 C   0  0  0  0  0  0  0  0  0  0  0  0
  179.9580   16.1780   46.7610 H   0  0  0  0  0  0  0  0  0  0  0  0
  182.2537   19.0714   45.5512 H   0  0  0  0  0  0  0  0  0  0  0  0
  181.7867   20.9331   47.1286 H   0  0  0  0  0  0  0  0  0  0  0  0
  178.5903   21.4264   48.8432 H   0  0  0  0  0  0  0  0  0  0  0  0
  180.3377   21.9066   48.6982 H   0  0  0  0  0  0  0  0  0  0  0  0
  177.2596   20.4962   48.1264 H   0  0  0  0  0  0  0  0  0  0  0  0
  178.0519   18.0951   45.4539 H   0  0  0  0  0  0  0  0  0  0  0  0
  181.3383   18.4715   40.7510 H   0  0  0  0  0  0  0  0  0  0  0  0
  181.8122   16.8990   38.8697 H   0  0  0  0  0  0  0  0  0  0  0  0
  181.7294   14.4336   39.2511 H   0  0  0  0  0  0  0  0  0  0  0  0
  180.7510   12.7400   40.8390 H   0  0  0  0  0  0  0  0  0  0  0  0
  1  2  2  0
  2  3  1  0
  3  4  1  0
  3  5  2  0
  5  6  1  0
  6  7  2  0
  7  8  1  0
  8  9  2  0
  9 10  1  0
 10 11  1  0
  9 12  1  0
 12 13  1  0
 13 14  1  0
 13 15  1  0
 12 16  2  0
  5 17  1  0
 17 18  1  0
 18 19  2  0
 19 20  1  0
 20 21  2  0
 21 22  1  0
 22 23  1  0
 22 24  2  0
 24  2  1  0
 16  6  1  0
 24 18  1  0
  4 25  1  0
  7 26  1  0
  8 27  1  0
 10 28  1  0
 10 29  1  0
 13 30  1  0
 16 31  1  0
 19 32  1  0
 20 33  1  0
 21 34  1  0
 23 35  1  0
M  END
>  <meeko>  (7) 
{"is_sidechain": [false], "free_energy": -5.936, "intermolecular_energy": -6.91, "internal_energy": -0.583}

$$$$
