cand_053_out
     RDKit          3D

 44 46  0  0  0  0  0  0  0  0999 V2000
  181.2500   15.5180   40.3820 C   0  0  0  0  0  0  0  0  0  0  0  0
  181.1760   14.6470   41.6270 C   0  0  0  0  0  0  0  0  0  0  0  0
  182.1480   15.1320   42.7040 C   0  0  0  0  0  0  0  0  0  0  0  0
  181.5060   16.1510   43.6210 C   0  0  0  0  0  0  0  0  0  0  0  0
  181.8530   17.5030   43.4520 C   0  0  0  0  0  0  0  0  0  0  0  0
  181.2900   18.4980   44.2530 C   0  0  0  0  0  0  0  0  0  0  0  0
  180.3560   18.1750   45.2420 C   0  0  0  0  0  0  0  0  0  0  0  0
  179.7940   19.2390   46.1000 C   0  0  0  0  0  0  0  0  0  0  0  0
  178.4030   19.2670   46.0860 O   0  0  0  0  0  0  0  0  0  0  0  0
  177.7500   20.2080   46.8400 C   0  0  0  0  0  0  0  0  0  0  0  0
  176.3560   20.2090   46.7820 C   0  0  0  0  0  0  0  0  0  0  0  0
  175.6290   21.1400   47.5280 C   0  0  0  0  0  0  0  0  0  0  0  0
  176.2960   22.0680   48.3310 C   0  0  0  0  0  0  0  0  0  0  0  0
  177.6870   22.0640   48.3850 C   0  0  0  0  0  0  0  0  0  0  0  0
  178.2760   23.0000   49.1910 O   0  0  0  0  0  0  0  0  0  0  0  0
  178.4140   21.1330   47.6390 C   0  0  0  0  0  0  0  0  0  0  0  0
  179.8770   21.0940   47.6680 C   0  0  0  0  0  0  0  0  0  0  0  0
  180.5340   21.8730   48.3560 O   0  0  0  0  0  0  0  0  0  0  0  0
  180.5520   20.0740   46.8340 C   0  0  0  0  0  0  0  0  0  0  0  0
  181.9340   20.0390   46.8800 O   0  0  0  0  0  0  0  0  0  0  0  0
  180.0110   16.8270   45.4140 C   0  0  0  0  0  0  0  0  0  0  0  0
  180.5630   15.8080   44.6090 C   0  0  0  0  0  0  0  0  0  0  0  0
  180.1300   14.3840   44.8760 C   0  0  0  0  0  0  0  0  0  0  0  0
  178.7980   14.0610   44.2160 C   0  0  0  0  0  0  0  0  0  0  0  0
  181.3397   16.5737   40.6779 H   0  0  0  0  0  0  0  0  0  0  0  0
  182.1268   15.2290   39.7839 H   0  0  0  0  0  0  0  0  0  0  0  0
  180.3370   15.3811   39.7839 H   0  0  0  0  0  0  0  0  0  0  0  0
  180.1520   14.6806   42.0273 H   0  0  0  0  0  0  0  0  0  0  0  0
  181.4517   13.6192   41.3483 H   0  0  0  0  0  0  0  0  0  0  0  0
  182.4751   14.2695   43.3033 H   0  0  0  0  0  0  0  0  0  0  0  0
  183.0021   15.6116   42.2036 H   0  0  0  0  0  0  0  0  0  0  0  0
  182.5805   17.7814   42.6754 H   0  0  0  0  0  0  0  0  0  0  0  0
  181.5843   19.5474   44.1045 H   0  0  0  0  0  0  0  0  0  0  0  0
  175.8303   19.4781   46.1500 H   0  0  0  0  0  0  0  0  0  0  0  0
  174.5299   21.1422   47.4829 H   0  0  0  0  0  0  0  0  0  0  0  0
  175.7235   22.8002   48.9193 H   0  0  0  0  0  0  0  0  0  0  0  0
  179.1990   22.9670   49.3500 H   0  0  0  0  0  0  0  0  0  0  0  0
  182.4280   20.8200   46.7290 H   0  0  0  0  0  0  0  0  0  0  0  0
  179.2895   16.5560   46.1988 H   0  0  0  0  0  0  0  0  0  0  0  0
  180.8965   13.6999   44.4828 H   0  0  0  0  0  0  0  0  0  0  0  0
  180.0093   14.2633   45.9627 H   0  0  0  0  0  0  0  0  0  0  0  0
  178.0397   13.8771   44.9913 H   0  0  0  0  0  0  0  0  0  0  0  0
  178.4839   14.9090   43.5897 H   0  0  0  0  0  0  0  0  0  0  0  0
  178.9072   13.1633   43.5897 H   0  0  0  0  0  0  0  0  0  0  0  0
  1  2  1  0
  2  3  1  0
  3  4  1  0
  4  5  2  0
  5  6  1  0
  6  7  2  0
  7  8  1  0
  8  9  1  0
  9 10  1  0
 10 11  2  0
 11 12  1  0
 12 13  2  0
 13 14  1  0
 14 15  1  0
 14 16  2  0
 16 17  1  0
 17 18  2  0
 17 19  1  0
 19 20  1  0
  7 21  1  0
 21 22  2  0
 22 23  1  0
 23 24  1  0
 22  4  1  0
 19  8  2  0
 16 10  1  0
  1 25  1  0
  1 26  1  0
  1 27  1  0
  2 28  1  0
  2 29  1  0
  3 30  1  0
  3 31  1  0
  5 32  1  0
  6 33  1  0
 11 34  1  0
 12 35  1  0
 13 36  1  0
 15 37  1  0
 20 38  1  0
 21 39  1  0
 23 40  1  0
 23 41  1  0
 24 42  1  0
 24 43  1  0
 24 44  1  0
M  END
>  <meeko>  (1) 
{"is_sidechain": [false], "free_energy": -8.241, "intermolecular_energy": -10.65, "internal_energy": -0.518}

$$$$
cand_053_out
     RDKit          3D

 44 46  0  0  0  0  0  0  0  0999 V2000
  178.2240   24.0720   47.3740 C   0  0  0  0  0  0  0  0  0  0  0  0
  177.0880   23.8940   48.3680 C   0  0  0  0  0  0  0  0  0  0  0  0
  177.1330   22.5120   49.0240 C   0  0  0  0  0  0  0  0  0  0  0  0
  177.8040   21.4900   48.1320 C   0  0  0  0  0  0  0  0  0  0  0  0
  179.1770   21.2530   48.3150 C   0  0  0  0  0  0  0  0  0  0  0  0
  179.8580   20.3140   47.5370 C   0  0  0  0  0  0  0  0  0  0  0  0
  179.1850   19.5770   46.5580 C   0  0  0  0  0  0  0  0  0  0  0  0
  179.9290   18.6100   45.7230 C   0  0  0  0  0  0  0  0  0  0  0  0
  179.3520   17.3450   45.7180 O   0  0  0  0  0  0  0  0  0  0  0  0
  179.9430   16.3480   44.9830 C   0  0  0  0  0  0  0  0  0  0  0  0
  179.3380   15.0910   45.0200 C   0  0  0  0  0  0  0  0  0  0  0  0
  179.8870   14.0330   44.2920 C   0  0  0  0  0  0  0  0  0  0  0  0
  181.0390   14.2330   43.5270 C   0  0  0  0  0  0  0  0  0  0  0  0
  181.6390   15.4890   43.4930 C   0  0  0  0  0  0  0  0  0  0  0  0
  182.7640   15.6140   42.7240 O   0  0  0  0  0  0  0  0  0  0  0  0
  181.0900   16.5470   44.2220 C   0  0  0  0  0  0  0  0  0  0  0  0
  181.6890   17.8820   44.2130 C   0  0  0  0  0  0  0  0  0  0  0  0
  182.6980   18.1370   43.5580 O   0  0  0  0  0  0  0  0  0  0  0  0
  181.0340   18.9320   45.0260 C   0  0  0  0  0  0  0  0  0  0  0  0
  181.6020   20.1930   44.9990 O   0  0  0  0  0  0  0  0  0  0  0  0
  177.8170   19.8150   46.3710 C   0  0  0  0  0  0  0  0  0  0  0  0
  177.1100   20.7530   47.1530 C   0  0  0  0  0  0  0  0  0  0  0  0
  175.6360   20.9400   46.8710 C   0  0  0  0  0  0  0  0  0  0  0  0
  174.7790   19.9490   47.6450 C   0  0  0  0  0  0  0  0  0  0  0  0
  179.1681   24.2199   47.9188 H   0  0  0  0  0  0  0  0  0  0  0  0
  178.3021   23.1751   46.7419 H   0  0  0  0  0  0  0  0  0  0  0  0
  178.0240   24.9498   46.7419 H   0  0  0  0  0  0  0  0  0  0  0  0
  177.1716   24.6640   49.1491 H   0  0  0  0  0  0  0  0  0  0  0  0
  176.1353   23.9899   47.8265 H   0  0  0  0  0  0  0  0  0  0  0  0
  177.6932   22.5836   49.9680 H   0  0  0  0  0  0  0  0  0  0  0  0
  176.0985   22.1839   49.2032 H   0  0  0  0  0  0  0  0  0  0  0  0
  179.7249   21.8168   49.0843 H   0  0  0  0  0  0  0  0  0  0  0  0
  180.9344   20.1528   47.6961 H   0  0  0  0  0  0  0  0  0  0  0  0
  178.4305   14.9337   45.6214 H   0  0  0  0  0  0  0  0  0  0  0  0
  179.4120   13.0413   44.3209 H   0  0  0  0  0  0  0  0  0  0  0  0
  181.4709   13.4000   42.9529 H   0  0  0  0  0  0  0  0  0  0  0  0
  182.7010   15.5580   41.7910 H   0  0  0  0  0  0  0  0  0  0  0  0
  181.1330   20.9090   44.6200 H   0  0  0  0  0  0  0  0  0  0  0  0
  177.2787   19.2547   45.5924 H   0  0  0  0  0  0  0  0  0  0  0  0
  175.3459   21.9613   47.1586 H   0  0  0  0  0  0  0  0  0  0  0  0
  175.4702   20.7676   45.7973 H   0  0  0  0  0  0  0  0  0  0  0  0
  174.9176   20.1092   48.7244 H   0  0  0  0  0  0  0  0  0  0  0  0
  173.7206   20.0982   47.3850 H   0  0  0  0  0  0  0  0  0  0  0  0
  175.0793   18.9232   47.3850 H   0  0  0  0  0  0  0  0  0  0  0  0
  1  2  1  0
  2  3  1  0
  3  4  1  0
  4  5  2  0
  5  6  1  0
  6  7  2  0
  7  8  1  0
  8  9  1  0
  9 10  1  0
 10 11  2  0
 11 12  1  0
 12 13  2  0
 13 14  1  0
 14 15  1  0
 14 16  2  0
 16 17  1  0
 17 18  2  0
 17 19  1  0
 19 20  1  0
  7 21  1  0
 21 22  2  0
 22 23  1  0
 23 24  1  0
 22  4  1  0
 19  8  2  0
 16 10  1  0
  1 25  1  0
  1 26  1  0
  1 27  1  0
  2 28  1  0
  2 29  1  0
  3 30  1  0
  3 31  1  0
  5 32  1  0
  6 33  1  0
 11 34  1  0
 12 35  1  0
 13 36  1  0
 15 37  1  0
 20 38  1  0
 21 39  1  0
 23 40  1  0
 23 41  1  0
 24 42  1  0
 24 43  1  0
 24 44  1  0
M  END
>  <meeko>  (2) 
{"is_sidechain": [false], "free_energy": -7.201, "intermolecular_energy": -9.568, "internal_energy": -0.257}

$$$$
cand_053_out
     RDKit          3D

 44 46  0  0  0  0  0  0  0  0999 V2000
  181.4590   14.3970   41.6680 C   0  0  0  0  0  0  0  0  0  0  0  0
  181.5040   15.8760   42.0180 C   0  0  0  0  0  0  0  0  0  0  0  0
  181.9870   16.0940   43.4520 C   0  0  0  0  0  0  0  0  0  0  0  0
  181.0240   16.9530   44.2440 C   0  0  0  0  0  0  0  0  0  0  0  0
  181.1310   18.3490   44.1230 C   0  0  0  0  0  0  0  0  0  0  0  0
  180.2670   19.2020   44.8130 C   0  0  0  0  0  0  0  0  0  0  0  0
  179.2640   18.6860   45.6380 C   0  0  0  0  0  0  0  0  0  0  0  0
  178.3790   19.6050   46.3850 C   0  0  0  0  0  0  0  0  0  0  0  0
  179.0250   20.7690   46.7860 O   0  0  0  0  0  0  0  0  0  0  0  0
  178.3190   21.7110   47.4900 C   0  0  0  0  0  0  0  0  0  0  0  0
  179.0110   22.8570   47.8850 C   0  0  0  0  0  0  0  0  0  0  0  0
  178.3510   23.8570   48.6040 C   0  0  0  0  0  0  0  0  0  0  0  0
  176.9990   23.7100   48.9260 C   0  0  0  0  0  0  0  0  0  0  0  0
  176.3120   22.5650   48.5300 C   0  0  0  0  0  0  0  0  0  0  0  0
  174.9920   22.4870   48.8790 O   0  0  0  0  0  0  0  0  0  0  0  0
  176.9730   21.5660   47.8120 C   0  0  0  0  0  0  0  0  0  0  0  0
  176.2890   20.3480   47.3780 C   0  0  0  0  0  0  0  0  0  0  0  0
  175.0980   20.1500   47.6160 O   0  0  0  0  0  0  0  0  0  0  0  0
  177.0810   19.3450   46.6290 C   0  0  0  0  0  0  0  0  0  0  0  0
  176.4200   18.2040   46.2120 O   0  0  0  0  0  0  0  0  0  0  0  0
  179.1590   17.2940   45.7640 C   0  0  0  0  0  0  0  0  0  0  0  0
  180.0160   16.4160   45.0680 C   0  0  0  0  0  0  0  0  0  0  0  0
  179.8240   14.9300   45.2730 C   0  0  0  0  0  0  0  0  0  0  0  0
  178.8880   14.3290   44.2350 C   0  0  0  0  0  0  0  0  0  0  0  0
  181.4409   13.8017   42.5928 H   0  0  0  0  0  0  0  0  0  0  0  0
  180.5540   14.1870   41.0790 H   0  0  0  0  0  0  0  0  0  0  0  0
  182.3495   14.1323   41.0790 H   0  0  0  0  0  0  0  0  0  0  0  0
  182.1909   16.3868   41.3272 H   0  0  0  0  0  0  0  0  0  0  0  0
  180.4866   16.2846   41.9289 H   0  0  0  0  0  0  0  0  0  0  0  0
  182.0834   15.1169   43.9479 H   0  0  0  0  0  0  0  0  0  0  0  0
  182.9557   16.6136   43.4118 H   0  0  0  0  0  0  0  0  0  0  0  0
  181.9087   18.7772   43.4736 H   0  0  0  0  0  0  0  0  0  0  0  0
  180.3771   20.2912   44.7060 H   0  0  0  0  0  0  0  0  0  0  0  0
  180.0749   22.9728   47.6305 H   0  0  0  0  0  0  0  0  0  0  0  0
  178.8957   24.7601   48.9166 H   0  0  0  0  0  0  0  0  0  0  0  0
  176.4784   24.4971   49.4911 H   0  0  0  0  0  0  0  0  0  0  0  0
  174.5690   21.6520   48.9290 H   0  0  0  0  0  0  0  0  0  0  0  0
  175.8000   18.2520   45.5120 H   0  0  0  0  0  0  0  0  0  0  0  0
  178.3861   16.8742   46.4246 H   0  0  0  0  0  0  0  0  0  0  0  0
  180.8021   14.4319   45.2003 H   0  0  0  0  0  0  0  0  0  0  0  0
  179.3740   14.7787   46.2652 H   0  0  0  0  0  0  0  0  0  0  0  0
  178.0670   13.8019   44.7431 H   0  0  0  0  0  0  0  0  0  0  0  0
  178.4748   15.1311   43.6057 H   0  0  0  0  0  0  0  0  0  0  0  0
  179.4454   13.6195   43.6057 H   0  0  0  0  0  0  0  0  0  0  0  0
  1  2  1  0
  2  3  1  0
  3  4  1  0
  4  5  2  0
  5  6  1  0
  6  7  2  0
  7  8  1  0
  8  9  1  0
  9 10  1  0
 10 11  2  0
 11 12  1  0
 12 13  2  0
 13 14  1  0
 14 15  1  0
 14 16  2  0
 16 17  1  0
 17 18  2  0
 17 19  1  0
 19 20  1  0
  7 21  1  0
 21 22  2  0
 22 23  1  0
 23 24  1  0
 22  4  1  0
 19  8  2  0
 16 10  1  0
  1 25  1  0
  1 26  1  0
  1 27  1  0
  2 28  1  0
  2 29  1  0
  3 30  1  0
  3 31  1  0
  5 32  1  0
  6 33  1  0
 11 34  1  0
 12 35  1  0
 13 36  1  0
 15 37  1  0
 20 38  1  0
 21 39  1  0
 23 40  1  0
 23 41  1  0
 24 42  1  0
 24 43  1  0
 24 44  1  0
M  END
>  <meeko>  (3) 
{"is_sidechain": [false], "free_energy": -6.803, "intermolecular_energy": -8.803, "internal_energy": -0.506}

$$$$
cand_053_out
     RDKit          3D

 44 46  0  0  0  0  0  0  0  0999 V2000
  175.8930   20.3910   50.3410 C   0  0  0  0  0  0  0  0  0  0  0  0
  174.9320   21.3280   49.6270 C   0  0  0  0  0  0  0  0  0  0  0  0
  175.6330   22.0970   48.5060 C   0  0  0  0  0  0  0  0  0  0  0  0
  176.6580   21.2400   47.7940 C   0  0  0  0  0  0  0  0  0  0  0  0
  176.2120   20.0690   47.1570 C   0  0  0  0  0  0  0  0  0  0  0  0
  177.0990   19.2390   46.4690 C   0  0  0  0  0  0  0  0  0  0  0  0
  178.4580   19.5570   46.3910 C   0  0  0  0  0  0  0  0  0  0  0  0
  179.3880   18.6490   45.6850 C   0  0  0  0  0  0  0  0  0  0  0  0
  178.9710   17.3230   45.7120 O   0  0  0  0  0  0  0  0  0  0  0  0
  179.7430   16.3720   45.0950 C   0  0  0  0  0  0  0  0  0  0  0  0
  179.2940   15.0520   45.1600 C   0  0  0  0  0  0  0  0  0  0  0  0
  180.0320   14.0340   44.5500 C   0  0  0  0  0  0  0  0  0  0  0  0
  181.2170   14.3370   43.8750 C   0  0  0  0  0  0  0  0  0  0  0  0
  181.6610   15.6550   43.8120 C   0  0  0  0  0  0  0  0  0  0  0  0
  182.8280   15.8810   43.1350 O   0  0  0  0  0  0  0  0  0  0  0  0
  180.9230   16.6730   44.4230 C   0  0  0  0  0  0  0  0  0  0  0  0
  181.3550   18.0700   44.3800 C   0  0  0  0  0  0  0  0  0  0  0  0
  182.3820   18.4160   43.7990 O   0  0  0  0  0  0  0  0  0  0  0  0
  180.5060   19.0710   45.0660 C   0  0  0  0  0  0  0  0  0  0  0  0
  180.9170   20.3910   45.0080 O   0  0  0  0  0  0  0  0  0  0  0  0
  178.9050   20.7220   47.0290 C   0  0  0  0  0  0  0  0  0  0  0  0
  178.0230   21.5780   47.7210 C   0  0  0  0  0  0  0  0  0  0  0  0
  178.6040   22.8090   48.3800 C   0  0  0  0  0  0  0  0  0  0  0  0
  178.5510   24.0230   47.4650 C   0  0  0  0  0  0  0  0  0  0  0  0
  175.7760   20.5050   51.4288 H   0  0  0  0  0  0  0  0  0  0  0  0
  175.6721   19.3519   50.0554 H   0  0  0  0  0  0  0  0  0  0  0  0
  176.9262   20.6381   50.0554 H   0  0  0  0  0  0  0  0  0  0  0  0
  174.1099   20.7375   49.1963 H   0  0  0  0  0  0  0  0  0  0  0  0
  174.5487   22.0546   50.3586 H   0  0  0  0  0  0  0  0  0  0  0  0
  174.8794   22.4305   47.7774 H   0  0  0  0  0  0  0  0  0  0  0  0
  176.1556   22.9550   48.9540 H   0  0  0  0  0  0  0  0  0  0  0  0
  175.1458   19.8020   47.2014 H   0  0  0  0  0  0  0  0  0  0  0  0
  176.7248   18.3257   45.9834 H   0  0  0  0  0  0  0  0  0  0  0  0
  178.3605   14.8133   45.6907 H   0  0  0  0  0  0  0  0  0  0  0  0
  179.6795   12.9933   44.6014 H   0  0  0  0  0  0  0  0  0  0  0  0
  181.7979   13.5360   43.3944 H   0  0  0  0  0  0  0  0  0  0  0  0
  183.1950   15.2080   42.5960 H   0  0  0  0  0  0  0  0  0  0  0  0
  181.2030   20.8260   45.7850 H   0  0  0  0  0  0  0  0  0  0  0  0
  179.9745   20.9762   46.9889 H   0  0  0  0  0  0  0  0  0  0  0  0
  178.0309   23.0271   49.2932 H   0  0  0  0  0  0  0  0  0  0  0  0
  179.6595   22.6042   48.6125 H   0  0  0  0  0  0  0  0  0  0  0  0
  178.5110   24.9389   48.0729 H   0  0  0  0  0  0  0  0  0  0  0  0
  179.4491   24.0432   46.8302 H   0  0  0  0  0  0  0  0  0  0  0  0
  177.6545   23.9648   46.8302 H   0  0  0  0  0  0  0  0  0  0  0  0
  1  2  1  0
  2  3  1  0
  3  4  1  0
  4  5  2  0
  5  6  1  0
  6  7  2  0
  7  8  1  0
  8  9  1  0
  9 10  1  0
 10 11  2  0
 11 12  1  0
 12 13  2  0
 13 14  1  0
 14 15  1  0
 14 16  2  0
 16 17  1  0
 17 18  2  0
 17 19  1  0
 19 20  1  0
  7 21  1  0
 21 22  2  0
 22 23  1  0
 23 24  1  0
 22  4  1  0
 19  8  2  0
 16 10  1  0
  1 25  1  0
  1 26  1  0
  1 27  1  0
  2 28  1  0
  2 29  1  0
  3 30  1  0
  3 31  1  0
  5 32  1  0
  6 33  1  0
 11 34  1  0
 12 35  1  0
 13 36  1  0
 15 37  1  0
 20 38  1  0
 21 39  1  0
 23 40  1  0
 23 41  1  0
 24 42  1  0
 24 43  1  0
 24 44  1  0
M  END
>  <meeko>  (4) 
{"is_sidechain": [false], "free_energy": -6.691, "intermolecular_energy": -9.017, "internal_energy": -0.147}

$$$$
cand_053_out
     RDKit          3D

 44 46  0  0  0  0  0  0  0  0999 V2000
  177.8710   23.5600   47.7720 C   0  0  0  0  0  0  0  0  0  0  0  0
  179.2290   23.0340   47.3320 C   0  0  0  0  0  0  0  0  0  0  0  0
  179.5870   21.7390   48.0640 C   0  0  0  0  0  0  0  0  0  0  0  0
  179.7450   20.5780   47.1050 C   0  0  0  0  0  0  0  0  0  0  0  0
  181.0120   20.3600   46.5350 C   0  0  0  0  0  0  0  0  0  0  0  0
  181.2340   19.3000   45.6530 C   0  0  0  0  0  0  0  0  0  0  0  0
  180.1990   18.4210   45.3210 C   0  0  0  0  0  0  0  0  0  0  0  0
  180.4450   17.3230   44.3610 C   0  0  0  0  0  0  0  0  0  0  0  0
  180.7550   17.7810   43.0850 O   0  0  0  0  0  0  0  0  0  0  0  0
  181.0060   16.8660   42.0940 C   0  0  0  0  0  0  0  0  0  0  0  0
  181.2970   17.3710   40.8260 C   0  0  0  0  0  0  0  0  0  0  0  0
  181.5650   16.4940   39.7720 C   0  0  0  0  0  0  0  0  0  0  0  0
  181.5420   15.1140   39.9880 C   0  0  0  0  0  0  0  0  0  0  0  0
  181.2510   14.6140   41.2540 C   0  0  0  0  0  0  0  0  0  0  0  0
  181.2460   13.2530   41.3950 O   0  0  0  0  0  0  0  0  0  0  0  0
  180.9820   15.4920   42.3080 C   0  0  0  0  0  0  0  0  0  0  0  0
  180.6720   15.0090   43.6540 C   0  0  0  0  0  0  0  0  0  0  0  0
  180.6410   13.8100   43.9230 O   0  0  0  0  0  0  0  0  0  0  0  0
  180.3950   16.0210   44.6980 C   0  0  0  0  0  0  0  0  0  0  0  0
  180.1160   15.5530   45.9700 O   0  0  0  0  0  0  0  0  0  0  0  0
  178.9350   18.6390   45.8850 C   0  0  0  0  0  0  0  0  0  0  0  0
  178.6930   19.6990   46.7840 C   0  0  0  0  0  0  0  0  0  0  0  0
  177.2940   19.8530   47.3360 C   0  0  0  0  0  0  0  0  0  0  0  0
  176.3540   20.5030   46.3310 C   0  0  0  0  0  0  0  0  0  0  0  0
  177.8234   23.5784   48.8708 H   0  0  0  0  0  0  0  0  0  0  0  0
  177.7282   24.5785   47.3817 H   0  0  0  0  0  0  0  0  0  0  0  0
  177.0795   22.9034   47.3817 H   0  0  0  0  0  0  0  0  0  0  0  0
  179.2042   22.8388   46.2497 H   0  0  0  0  0  0  0  0  0  0  0  0
  179.9896   23.7911   47.5734 H   0  0  0  0  0  0  0  0  0  0  0  0
  180.5334   21.8855   48.6051 H   0  0  0  0  0  0  0  0  0  0  0  0
  178.7681   21.5005   48.7586 H   0  0  0  0  0  0  0  0  0  0  0  0
  181.8422   21.0357   46.7881 H   0  0  0  0  0  0  0  0  0  0  0  0
  182.2328   19.1555   45.2154 H   0  0  0  0  0  0  0  0  0  0  0  0
  181.3153   18.4577   40.6567 H   0  0  0  0  0  0  0  0  0  0  0  0
  181.7942   16.8902   38.7718 H   0  0  0  0  0  0  0  0  0  0  0  0
  181.7536   14.4233   39.1585 H   0  0  0  0  0  0  0  0  0  0  0  0
  180.4530   12.8090   41.6240 H   0  0  0  0  0  0  0  0  0  0  0  0
  180.5590   15.9180   46.7100 H   0  0  0  0  0  0  0  0  0  0  0  0
  178.1078   17.9644   45.6192 H   0  0  0  0  0  0  0  0  0  0  0  0
  176.9032   18.8582   47.5962 H   0  0  0  0  0  0  0  0  0  0  0  0
  177.3474   20.5031   48.2217 H   0  0  0  0  0  0  0  0  0  0  0  0
  175.5642   21.0491   46.8677 H   0  0  0  0  0  0  0  0  0  0  0  0
  176.9200   21.2036   45.6995 H   0  0  0  0  0  0  0  0  0  0  0  0
  175.8984   19.7261   45.6995 H   0  0  0  0  0  0  0  0  0  0  0  0
  1  2  1  0
  2  3  1  0
  3  4  1  0
  4  5  2  0
  5  6  1  0
  6  7  2  0
  7  8  1  0
  8  9  1  0
  9 10  1  0
 10 11  2  0
 11 12  1  0
 12 13  2  0
 13 14  1  0
 14 15  1  0
 14 16  2  0
 16 17  1  0
 17 18  2  0
 17 19  1  0
 19 20  1  0
  7 21  1  0
 21 22  2  0
 22 23  1  0
 23 24  1  0
 22  4  1  0
 19  8  2  0
 16 10  1  0
  1 25  1  0
  1 26  1  0
  1 27  1  0
  2 28  1  0
  2 29  1  0
  3 30  1  0
  3 31  1  0
  5 32  1  0
  6 33  1  0
 11 34  1  0
 12 35  1  0
 13 36  1  0
 15 37  1  0
 20 38  1  0
 21 39  1  0
 23 40  1  0
 23 41  1  0
 24 42  1  0
 24 43  1  0
 24 44  1  0
M  END
>  <meeko>  (5) 
{"is_sidechain": [false], "free_energy": -5.897, "intermolecular_energy": -7.268, "internal_energy": -0.871}

$$$$
cand_053_out
     RDKit          3D

 44 46  0  0  0  0  0  0  0  0999 V2000
  181.5650   15.1770   43.4970 C   0  0  0  0  0  0  0  0  0  0  0  0
  181.1780   16.6160   43.1940 C   0  0  0  0  0  0  0  0  0  0  0  0
  182.0920   17.6030   43.9230 C   0  0  0  0  0  0  0  0  0  0  0  0
  181.3020   18.5660   44.7850 C   0  0  0  0  0  0  0  0  0  0  0  0
  180.0440   18.1510   45.2570 C   0  0  0  0  0  0  0  0  0  0  0  0
  179.2680   18.9810   46.0670 C   0  0  0  0  0  0  0  0  0  0  0  0
  179.7280   20.2480   46.4400 C   0  0  0  0  0  0  0  0  0  0  0  0
  178.8780   21.1250   47.2730 C   0  0  0  0  0  0  0  0  0  0  0  0
  177.5270   20.8060   47.1880 O   0  0  0  0  0  0  0  0  0  0  0  0
  176.6250   21.5430   47.9120 C   0  0  0  0  0  0  0  0  0  0  0  0
  175.2780   21.1980   47.7840 C   0  0  0  0  0  0  0  0  0  0  0  0
  174.3070   21.9070   48.4950 C   0  0  0  0  0  0  0  0  0  0  0  0
  174.6830   22.9590   49.3340 C   0  0  0  0  0  0  0  0  0  0  0  0
  176.0270   23.3000   49.4580 C   0  0  0  0  0  0  0  0  0  0  0  0
  176.3250   24.3400   50.2960 O   0  0  0  0  0  0  0  0  0  0  0  0
  176.9980   22.5910   48.7460 C   0  0  0  0  0  0  0  0  0  0  0  0
  178.4210   22.9170   48.8490 C   0  0  0  0  0  0  0  0  0  0  0  0
  178.8300   23.8240   49.5720 O   0  0  0  0  0  0  0  0  0  0  0  0
  179.3680   22.1110   48.0460 C   0  0  0  0  0  0  0  0  0  0  0  0
  180.7120   22.4200   48.1620 O   0  0  0  0  0  0  0  0  0  0  0  0
  180.9800   20.6640   45.9670 C   0  0  0  0  0  0  0  0  0  0  0  0
  181.7830   19.8370   45.1540 C   0  0  0  0  0  0  0  0  0  0  0  0
  183.1170   20.3790   44.6930 C   0  0  0  0  0  0  0  0  0  0  0  0
  183.4100   21.7500   45.2860 C   0  0  0  0  0  0  0  0  0  0  0  0
  181.6046   15.0296   44.5864 H   0  0  0  0  0  0  0  0  0  0  0  0
  180.8178   14.4970   43.0619 H   0  0  0  0  0  0  0  0  0  0  0  0
  182.5525   14.9635   43.0619 H   0  0  0  0  0  0  0  0  0  0  0  0
  181.2571   16.7877   42.1104 H   0  0  0  0  0  0  0  0  0  0  0  0
  180.1463   16.7781   43.5395 H   0  0  0  0  0  0  0  0  0  0  0  0
  182.7869   17.0395   44.5629 H   0  0  0  0  0  0  0  0  0  0  0  0
  182.6377   18.1874   43.1675 H   0  0  0  0  0  0  0  0  0  0  0  0
  179.6653   17.1552   44.9831 H   0  0  0  0  0  0  0  0  0  0  0  0
  178.2839   18.6350   46.4159 H   0  0  0  0  0  0  0  0  0  0  0  0
  174.9820   20.3691   47.1242 H   0  0  0  0  0  0  0  0  0  0  0  0
  173.2455   21.6369   48.3943 H   0  0  0  0  0  0  0  0  0  0  0  0
  173.9188   23.5166   49.8953 H   0  0  0  0  0  0  0  0  0  0  0  0
  176.8320   24.1880   51.0690 H   0  0  0  0  0  0  0  0  0  0  0  0
  180.9790   23.1750   48.6470 H   0  0  0  0  0  0  0  0  0  0  0  0
  181.3473   21.6649   46.2377 H   0  0  0  0  0  0  0  0  0  0  0  0
  183.9097   19.6816   45.0016 H   0  0  0  0  0  0  0  0  0  0  0  0
  183.0824   20.4821   43.5984 H   0  0  0  0  0  0  0  0  0  0  0  0
  183.3961   21.6851   46.3840 H   0  0  0  0  0  0  0  0  0  0  0  0
  184.4011   22.0901   44.9513 H   0  0  0  0  0  0  0  0  0  0  0  0
  182.6445   22.4655   44.9513 H   0  0  0  0  0  0  0  0  0  0  0  0
  1  2  1  0
  2  3  1  0
  3  4  1  0
  4  5  2  0
  5  6  1  0
  6  7  2  0
  7  8  1  0
  8  9  1  0
  9 10  1  0
 10 11  2  0
 11 12  1  0
 12 13  2  0
 13 14  1  0
 14 15  1  0
 14 16  2  0
 16 17  1  0
 17 18  2  0
 17 19  1  0
 19 20  1  0
  7 21  1  0
 21 22  2  0
 22 23  1  0
 23 24  1  0
 22  4  1  0
 19  8  2  0
 16 10  1  0
  1 25  1  0
  1 26  1  0
  1 27  1  0
  2 28  1  0
  2 29  1  0
  3 30  1  0
  3 31  1  0
  5 32  1  0
  6 33  1  0
 11 34  1  0
 12 35  1  0
 13 36  1  0
 15 37  1  0
 20 38  1  0
 21 39  1  0
 23 40  1  0
 23 41  1  0
 24 42  1  0
 24 43  1  0
 24 44  1  0
M  END
>  <meeko>  (6) 
{"is_sidechain": [false], "free_energy": -5.881, "intermolecular_energy": -7.889, "internal_energy": -0.229}

$$$$
cand_053_out
     RDKit          3D

 44 46  0  0  0  0  0  0  0  0999 V2000
  175.8510   19.2690   47.9530 C   0  0  0  0  0  0  0  0  0  0  0  0
  176.4930   19.7820   46.6740 C   0  0  0  0  0  0  0  0  0  0  0  0
  177.6490   18.8820   46.2310 C   0  0  0  0  0  0  0  0  0  0  0  0
  178.9720   19.6170   46.2540 C   0  0  0  0  0  0  0  0  0  0  0  0
  178.9960   20.9180   46.7870 C   0  0  0  0  0  0  0  0  0  0  0  0
  180.1840   21.6490   46.8520 C   0  0  0  0  0  0  0  0  0  0  0  0
  181.3860   21.1000   46.3960 C   0  0  0  0  0  0  0  0  0  0  0  0
  182.6270   21.9010   46.4450 C   0  0  0  0  0  0  0  0  0  0  0  0
  183.3060   21.9190   45.2320 O   0  0  0  0  0  0  0  0  0  0  0  0
  184.4780   22.6260   45.1370 C   0  0  0  0  0  0  0  0  0  0  0  0
  185.1330   22.6030   43.9050 C   0  0  0  0  0  0  0  0  0  0  0  0
  186.3300   23.3040   43.7390 C   0  0  0  0  0  0  0  0  0  0  0  0
  186.8700   24.0280   44.8060 C   0  0  0  0  0  0  0  0  0  0  0  0
  186.2130   24.0480   46.0330 C   0  0  0  0  0  0  0  0  0  0  0  0
  186.7970   24.7760   47.0330 O   0  0  0  0  0  0  0  0  0  0  0  0
  185.0160   23.3460   46.1980 C   0  0  0  0  0  0  0  0  0  0  0  0
  184.2940   23.3410   47.4710 C   0  0  0  0  0  0  0  0  0  0  0  0
  184.7020   23.9610   48.4520 O   0  0  0  0  0  0  0  0  0  0  0  0
  183.0390   22.5590   47.5440 C   0  0  0  0  0  0  0  0  0  0  0  0
  182.3590   22.5730   48.7480 O   0  0  0  0  0  0  0  0  0  0  0  0
  181.3630   19.8050   45.8620 C   0  0  0  0  0  0  0  0  0  0  0  0
  180.1750   19.0460   45.7950 C   0  0  0  0  0  0  0  0  0  0  0  0
  180.2530   17.6600   45.1970 C   0  0  0  0  0  0  0  0  0  0  0  0
  181.1560   17.6180   43.9730 C   0  0  0  0  0  0  0  0  0  0  0  0
  176.3778   19.6899   48.8221 H   0  0  0  0  0  0  0  0  0  0  0  0
  174.7947   19.5746   47.9812 H   0  0  0  0  0  0  0  0  0  0  0  0
  175.9160   18.1713   47.9812 H   0  0  0  0  0  0  0  0  0  0  0  0
  175.7342   19.8083   45.8780 H   0  0  0  0  0  0  0  0  0  0  0  0
  176.8916   20.7891   46.8659 H   0  0  0  0  0  0  0  0  0  0  0  0
  177.7090   18.0188   46.9101 H   0  0  0  0  0  0  0  0  0  0  0  0
  177.4548   18.5583   45.1978 H   0  0  0  0  0  0  0  0  0  0  0  0
  178.0634   21.3674   47.1589 H   0  0  0  0  0  0  0  0  0  0  0  0
  180.1739   22.6679   47.2665 H   0  0  0  0  0  0  0  0  0  0  0  0
  184.7073   22.0336   43.0656 H   0  0  0  0  0  0  0  0  0  0  0  0
  186.8477   23.2863   42.7686 H   0  0  0  0  0  0  0  0  0  0  0  0
  187.8121   24.5807   44.6762 H   0  0  0  0  0  0  0  0  0  0  0  0
  186.6570   25.7020   47.0820 H   0  0  0  0  0  0  0  0  0  0  0  0
  181.9400   23.3580   49.0400 H   0  0  0  0  0  0  0  0  0  0  0  0
  182.2984   19.3669   45.4838 H   0  0  0  0  0  0  0  0  0  0  0  0
  180.6492   16.9680   45.9547 H   0  0  0  0  0  0  0  0  0  0  0  0
  179.2402   17.3678   44.8826 H   0  0  0  0  0  0  0  0  0  0  0  0
  182.2069   17.5691   44.2942 H   0  0  0  0  0  0  0  0  0  0  0  0
  180.9152   16.7301   43.3700 H   0  0  0  0  0  0  0  0  0  0  0  0
  180.9987   18.5244   43.3700 H   0  0  0  0  0  0  0  0  0  0  0  0
  1  2  1  0
  2  3  1  0
  3  4  1  0
  4  5  2  0
  5  6  1  0
  6  7  2  0
  7  8  1  0
  8  9  1  0
  9 10  1  0
 10 11  2  0
 11 12  1  0
 12 13  2  0
 13 14  1  0
 14 15  1  0
 14 16  2  0
 16 17  1  0
 17 18  2  0
 17 19  1  0
 19 20  1  0
  7 21  1  0
 21 22  2  0
 22 23  1  0
 23 24  1  0
 22  4  1  0
 19  8  2  0
 16 10  1  0
  1 25  1  0
  1 26  1  0
  1 27  1  0
  2 28  1  0
  2 29  1  0
  3 30  1  0
  3 31  1  0
  5 32  1  0
  6 33  1  0
 11 34  1  0
 12 35  1  0
 13 36  1  0
 15 37  1  0
 20 38  1  0
 21 39  1  0
 23 40  1  0
 23 41  1  0
 24 42  1  0
 24 43  1  0
 24 44  1  0
M  END
>  <meeko>  (7) 
{"is_sidechain": [false], "free_energy": -5.408, "intermolecular_energy": -7.049, "internal_energy": -0.459}

$$$$
cand_053_out
     RDKit          3D

 44 46  0  0  0  0  0  0  0  0999 V2000
  176.7770   19.5440   46.6540 C   0  0  0  0  0  0  0  0  0  0  0  0
  178.0060   19.8520   45.8130 C   0  0  0  0  0  0  0  0  0  0  0  0
  179.2710   19.2580   46.4370 C   0  0  0  0  0  0  0  0  0  0  0  0
  180.4250   20.2360   46.4030 C   0  0  0  0  0  0  0  0  0  0  0  0
  181.5330   19.9240   45.5940 C   0  0  0  0  0  0  0  0  0  0  0  0
  182.6270   20.7860   45.5040 C   0  0  0  0  0  0  0  0  0  0  0  0
  182.6450   21.9920   46.2120 C   0  0  0  0  0  0  0  0  0  0  0  0
  183.8260   22.8770   46.1280 C   0  0  0  0  0  0  0  0  0  0  0  0
  184.2060   23.3890   47.3640 O   0  0  0  0  0  0  0  0  0  0  0  0
  185.2890   24.2280   47.4310 C   0  0  0  0  0  0  0  0  0  0  0  0
  185.6250   24.7290   48.6900 C   0  0  0  0  0  0  0  0  0  0  0  0
  186.7180   25.5870   48.8290 C   0  0  0  0  0  0  0  0  0  0  0  0
  187.4750   25.9420   47.7100 C   0  0  0  0  0  0  0  0  0  0  0  0
  187.1370   25.4400   46.4560 C   0  0  0  0  0  0  0  0  0  0  0  0
  187.9210   25.8280   45.4040 O   0  0  0  0  0  0  0  0  0  0  0  0
  186.0430   24.5820   46.3180 C   0  0  0  0  0  0  0  0  0  0  0  0
  185.6540   24.0320   45.0180 C   0  0  0  0  0  0  0  0  0  0  0  0
  186.2750   24.2920   43.9900 O   0  0  0  0  0  0  0  0  0  0  0  0
  184.4730   23.1390   44.9780 C   0  0  0  0  0  0  0  0  0  0  0  0
  184.1230   22.6150   43.7470 O   0  0  0  0  0  0  0  0  0  0  0  0
  181.5440   22.3030   47.0210 C   0  0  0  0  0  0  0  0  0  0  0  0
  180.4250   21.4490   47.1190 C   0  0  0  0  0  0  0  0  0  0  0  0
  179.2890   21.8730   48.0220 C   0  0  0  0  0  0  0  0  0  0  0  0
  178.5890   23.1220   47.5080 C   0  0  0  0  0  0  0  0  0  0  0  0
  177.0370   19.6092   47.7208 H   0  0  0  0  0  0  0  0  0  0  0  0
  175.9842   20.2712   46.4247 H   0  0  0  0  0  0  0  0  0  0  0  0
  176.4208   18.5288   46.4247 H   0  0  0  0  0  0  0  0  0  0  0  0
  177.8683   19.4261   44.8082 H   0  0  0  0  0  0  0  0  0  0  0  0
  178.1253   20.9442   45.7602 H   0  0  0  0  0  0  0  0  0  0  0  0
  179.0607   18.9912   47.4832 H   0  0  0  0  0  0  0  0  0  0  0  0
  179.5567   18.3706   45.8532 H   0  0  0  0  0  0  0  0  0  0  0  0
  181.5371   18.9842   45.0224 H   0  0  0  0  0  0  0  0  0  0  0  0
  183.4837   20.5141   44.8698 H   0  0  0  0  0  0  0  0  0  0  0  0
  185.0296   24.4483   49.5713 H   0  0  0  0  0  0  0  0  0  0  0  0
  186.9830   25.9835   49.8202 H   0  0  0  0  0  0  0  0  0  0  0  0
  188.3367   26.6170   47.8193 H   0  0  0  0  0  0  0  0  0  0  0  0
  188.8140   26.0710   45.5500 H   0  0  0  0  0  0  0  0  0  0  0  0
  183.8150   21.7330   43.6840 H   0  0  0  0  0  0  0  0  0  0  0  0
  181.5523   23.2404   47.5966 H   0  0  0  0  0  0  0  0  0  0  0  0
  178.5569   21.0540   48.0804 H   0  0  0  0  0  0  0  0  0  0  0  0
  179.7092   22.1020   49.0124 H   0  0  0  0  0  0  0  0  0  0  0  0
  178.2490   23.7287   48.3602 H   0  0  0  0  0  0  0  0  0  0  0  0
  179.2894   23.7093   46.8961 H   0  0  0  0  0  0  0  0  0  0  0  0
  177.7225   22.8311   46.8961 H   0  0  0  0  0  0  0  0  0  0  0  0
  1  2  1  0
  2  3  1  0
  3  4  1  0
  4  5  2  0
  5  6  1  0
  6  7  2  0
  7  8  1  0
  8  9  1  0
  9 10  1  0
 10 11  2  0
 11 12  1  0
 12 13  2  0
 13 14  1  0
 14 15  1  0
 14 16  2  0
 16 17  1  0
 17 18  2  0
 17 19  1  0
 19 20  1  0
  7 21  1  0
 21 22  2  0
 22 23  1  0
 23 24  1  0
 22  4  1  0
 19  8  2  0
 16 10  1  0
  1 25  1  0
  1 26  1  0
  1 27  1  0
  2 28  1  0
  2 29  1  0
  3 30  1  0
  3 31  1  0
  5 32  1  0
  6 33  1  0
 11 34  1  0
 12 35  1  0
 13 36  1  0
 15 37  1  0
 20 38  1  0
 21 39  1  0
 23 40  1  0
 23 41  1  0
 24 42  1  0
 24 43  1  0
 24 44  1  0
M  END
>  <meeko>  (8) 
{"is_sidechain": [false], "free_energy": -5.26, "intermolecular_energy": -7.034, "internal_energy": -0.282}

$$$$
