harmine_out
     RDKit          3D

 28 30  0  0  0  0  0  0  0  0999 V2000
  182.8590   22.4330   47.3320 C   0  0  0  0  0  0  0  0  0  0  0  0
  182.6200   21.4330   46.3490 O   0  0  0  0  0  0  0  0  0  0  0  0
  181.3870   20.8360   46.3580 C   0  0  0  0  0  0  0  0  0  0  0  0
  181.0660   19.6220   45.7540 C   0  0  0  0  0  0  0  0  0  0  0  0
  179.7640   19.1040   45.8270 C   0  0  0  0  0  0  0  0  0  0  0  0
  178.7650   19.8190   46.5190 C   0  0  0  0  0  0  0  0  0  0  0  0
  179.1120   21.0290   47.1140 C   0  0  0  0  0  0  0  0  0  0  0  0
  180.4060   21.5590   47.0510 C   0  0  0  0  0  0  0  0  0  0  0  0
  177.9800   21.5220   47.7180 N   0  0  0  0  0  0  0  0  0  0  0  0
  176.9130   20.6730   47.5360 C   0  0  0  0  0  0  0  0  0  0  0  0
  175.5860   20.7750   47.9700 C   0  0  0  0  0  0  0  0  0  0  0  0
  175.0480   21.9150   48.7760 C   0  0  0  0  0  0  0  0  0  0  0  0
  174.7310   19.7700   47.6370 N   0  0  0  0  0  0  0  0  0  0  0  0
  175.1770   18.7230   46.9110 C   0  0  0  0  0  0  0  0  0  0  0  0
  176.4760   18.5720   46.4550 C   0  0  0  0  0  0  0  0  0  0  0  0
  177.3780   19.5930   46.7850 C   0  0  0  0  0  0  0  0  0  0  0  0
  182.7540   21.9937   48.3350 H   0  0  0  0  0  0  0  0  0  0  0  0
  183.8774   22.8305   47.2106 H   0  0  0  0  0  0  0  0  0  0  0  0
  182.1304   23.2481   47.2106 H   0  0  0  0  0  0  0  0  0  0  0  0
  181.8433   19.0625   45.2130 H   0  0  0  0  0  0  0  0  0  0  0  0
  179.5237   18.1442   45.3464 H   0  0  0  0  0  0  0  0  0  0  0  0
  180.6470   22.5181   47.5328 H   0  0  0  0  0  0  0  0  0  0  0  0
  177.9390   22.3700   48.2160 H   0  0  0  0  0  0  0  0  0  0  0  0
  175.1546   21.6891   49.8473 H   0  0  0  0  0  0  0  0  0  0  0  0
  175.6092   22.8303   48.5366 H   0  0  0  0  0  0  0  0  0  0  0  0
  173.9847   22.0637   48.5366 H   0  0  0  0  0  0  0  0  0  0  0  0
  174.4551   17.9309   46.6632 H   0  0  0  0  0  0  0  0  0  0  0  0
  176.7839   17.6964   45.8646 H   0  0  0  0  0  0  0  0  0  0  0  0
  1  2  1  0
  2  3  1  0
  3  4  2  0
  4  5  1  0
  5  6  2  0
  6  7  1  0
  7  8  2  0
  7  9  1  0
  9 10  1  0
 10 11  2  0
 11 12  1  0
 11 13  1  0
 13 14  2  0
 14 15  1  0
 15 16  2  0
  8  3  1  0
 16 10  1  0
 16  6  1  0
  1 17  1  0
  1 18  1  0
  1 19  1  0
  4 20  1  0
  5 21  1  0
  8 22  1  0
  9 23  1  0
 12 24  1  0
 12 25  1  0
 12 26  1  0
 14 27  1  0
 15 28  1  0
M  END
>  <meeko>  (1) 
{"is_sidechain": [false], "free_energy": -6.671, "intermolecular_energy": -7.061, "internal_energy": -0.06}

$$$$
harmine_out
     RDKit          3D

 28 30  0  0  0  0  0  0  0  0999 V2000
  181.1730   17.0560   43.4330 C   0  0  0  0  0  0  0  0  0  0  0  0
  180.7980   17.1160   44.8030 O   0  0  0  0  0  0  0  0  0  0  0  0
  180.4610   18.3460   45.3010 C   0  0  0  0  0  0  0  0  0  0  0  0
  181.2770   19.4760   45.3050 C   0  0  0  0  0  0  0  0  0  0  0  0
  180.8240   20.6900   45.8440 C   0  0  0  0  0  0  0  0  0  0  0  0
  179.5280   20.7700   46.3910 C   0  0  0  0  0  0  0  0  0  0  0  0
  178.7320   19.6280   46.3750 C   0  0  0  0  0  0  0  0  0  0  0  0
  179.1690   18.4110   45.8400 C   0  0  0  0  0  0  0  0  0  0  0  0
  177.5320   19.9630   46.9560 N   0  0  0  0  0  0  0  0  0  0  0  0
  177.5240   21.2820   47.3480 C   0  0  0  0  0  0  0  0  0  0  0  0
  176.5250   22.0380   47.9730 C   0  0  0  0  0  0  0  0  0  0  0  0
  175.1810   21.5050   48.3580 C   0  0  0  0  0  0  0  0  0  0  0  0
  176.7960   23.3420   48.2490 N   0  0  0  0  0  0  0  0  0  0  0  0
  177.9980   23.8620   47.9180 C   0  0  0  0  0  0  0  0  0  0  0  0
  179.0190   23.1610   47.3000 C   0  0  0  0  0  0  0  0  0  0  0  0
  178.7660   21.8150   47.0050 C   0  0  0  0  0  0  0  0  0  0  0  0
  182.2566   16.8826   43.3567 H   0  0  0  0  0  0  0  0  0  0  0  0
  180.6344   16.2326   42.9411 H   0  0  0  0  0  0  0  0  0  0  0  0
  180.9182   18.0063   42.9411 H   0  0  0  0  0  0  0  0  0  0  0  0
  182.2897   19.4154   44.8799 H   0  0  0  0  0  0  0  0  0  0  0  0
  181.4776   21.5748   45.8395 H   0  0  0  0  0  0  0  0  0  0  0  0
  178.5144   17.5270   45.8425 H   0  0  0  0  0  0  0  0  0  0  0  0
  176.7790   19.3410   47.0770 H   0  0  0  0  0  0  0  0  0  0  0  0
  175.0997   21.4728   49.4545 H   0  0  0  0  0  0  0  0  0  0  0  0
  174.3965   22.1601   47.9513 H   0  0  0  0  0  0  0  0  0  0  0  0
  175.0587   20.4903   47.9513 H   0  0  0  0  0  0  0  0  0  0  0  0
  178.1787   24.9204   48.1572 H   0  0  0  0  0  0  0  0  0  0  0  0
  179.9798   23.6363   47.0531 H   0  0  0  0  0  0  0  0  0  0  0  0
  1  2  1  0
  2  3  1  0
  3  4  2  0
  4  5  1  0
  5  6  2  0
  6  7  1  0
  7  8  2  0
  7  9  1  0
  9 10  1  0
 10 11  2  0
 11 12  1  0
 11 13  1  0
 13 14  2  0
 14 15  1  0
 15 16  2  0
  8  3  1  0
 16 10  1  0
 16  6  1  0
  1 17  1  0
  1 18  1  0
  1 19  1  0
  4 20  1  0
  5 21  1  0
  8 22  1  0
  9 23  1  0
 12 24  1  0
 12 25  1  0
 12 26  1  0
 14 27  1  0
 15 28  1  0
M  END
>  <meeko>  (2) 
{"is_sidechain": [false], "free_energy": -6.584, "intermolecular_energy": -6.993, "internal_energy": -0.036}

$$$$
harmine_out
     RDKit          3D

 28 30  0  0  0  0  0  0  0  0999 V2000
  183.2920   22.7270   46.8630 C   0  0  0  0  0  0  0  0  0  0  0  0
  182.5430   21.5360   46.6550 O   0  0  0  0  0  0  0  0  0  0  0  0
  181.2130   21.5740   46.9820 C   0  0  0  0  0  0  0  0  0  0  0  0
  180.5710   22.6040   47.6680 C   0  0  0  0  0  0  0  0  0  0  0  0
  179.1980   22.5350   47.9490 C   0  0  0  0  0  0  0  0  0  0  0  0
  178.4560   21.4110   47.5350 C   0  0  0  0  0  0  0  0  0  0  0  0
  179.1190   20.3960   46.8510 C   0  0  0  0  0  0  0  0  0  0  0  0
  180.4880   20.4500   46.5620 C   0  0  0  0  0  0  0  0  0  0  0  0
  178.1880   19.4280   46.5600 N   0  0  0  0  0  0  0  0  0  0  0  0
  176.9450   19.7810   47.0310 C   0  0  0  0  0  0  0  0  0  0  0  0
  175.7210   19.1050   46.9610 C   0  0  0  0  0  0  0  0  0  0  0  0
  175.5310   17.7720   46.3090 C   0  0  0  0  0  0  0  0  0  0  0  0
  174.6350   19.7000   47.5240 N   0  0  0  0  0  0  0  0  0  0  0  0
  174.7640   20.9040   48.1230 C   0  0  0  0  0  0  0  0  0  0  0  0
  175.9480   21.6150   48.2210 C   0  0  0  0  0  0  0  0  0  0  0  0
  177.0830   21.0240   47.6490 C   0  0  0  0  0  0  0  0  0  0  0  0
  183.4044   22.9057   47.9426 H   0  0  0  0  0  0  0  0  0  0  0  0
  184.2858   22.6201   46.4037 H   0  0  0  0  0  0  0  0  0  0  0  0
  182.7652   23.5764   46.4037 H   0  0  0  0  0  0  0  0  0  0  0  0
  181.1483   23.4821   47.9932 H   0  0  0  0  0  0  0  0  0  0  0  0
  178.7030   23.3549   48.4902 H   0  0  0  0  0  0  0  0  0  0  0  0
  180.9823   19.6310   46.0190 H   0  0  0  0  0  0  0  0  0  0  0  0
  178.3850   18.5930   46.0790 H   0  0  0  0  0  0  0  0  0  0  0  0
  175.4207   16.9978   47.0826 H   0  0  0  0  0  0  0  0  0  0  0  0
  174.6272   17.7957   45.6825 H   0  0  0  0  0  0  0  0  0  0  0  0
  176.4055   17.5423   45.6825 H   0  0  0  0  0  0  0  0  0  0  0  0
  173.8622   21.3524   48.5653 H   0  0  0  0  0  0  0  0  0  0  0  0
  175.9955   22.5932   48.7219 H   0  0  0  0  0  0  0  0  0  0  0  0
  1  2  1  0
  2  3  1  0
  3  4  2  0
  4  5  1  0
  5  6  2  0
  6  7  1  0
  7  8  2  0
  7  9  1  0
  9 10  1  0
 10 11  2  0
 11 12  1  0
 11 13  1  0
 13 14  2  0
 14 15  1  0
 15 16  2  0
  8  3  1  0
 16 10  1  0
 16  6  1  0
  1 17  1  0
  1 18  1  0
  1 19  1  0
  4 20  1  0
  5 21  1  0
  8 22  1  0
  9 23  1  0
 12 24  1  0
 12 25  1  0
 12 26  1  0
 14 27  1  0
 15 28  1  0
M  END
>  <meeko>  (3) 
{"is_sidechain": [false], "free_energy": -6.372, "intermolecular_energy": -6.764, "internal_energy": -0.042}

$$$$
harmine_out
     RDKit          3D

 28 30  0  0  0  0  0  0  0  0999 V2000
  172.4050   23.6440   51.3890 C   0  0  0  0  0  0  0  0  0  0  0  0
  173.3210   24.5150   50.7390 O   0  0  0  0  0  0  0  0  0  0  0  0
  174.3140   23.9310   49.9980 C   0  0  0  0  0  0  0  0  0  0  0  0
  175.5480   24.5040   49.6940 C   0  0  0  0  0  0  0  0  0  0  0  0
  176.4930   23.8100   48.9240 C   0  0  0  0  0  0  0  0  0  0  0  0
  176.1940   22.5170   48.4480 C   0  0  0  0  0  0  0  0  0  0  0  0
  174.9550   21.9670   48.7660 C   0  0  0  0  0  0  0  0  0  0  0  0
  174.0020   22.6460   49.5350 C   0  0  0  0  0  0  0  0  0  0  0  0
  174.9080   20.7180   48.1950 N   0  0  0  0  0  0  0  0  0  0  0  0
  176.0740   20.4400   47.5190 C   0  0  0  0  0  0  0  0  0  0  0  0
  176.4570   19.3020   46.7990 C   0  0  0  0  0  0  0  0  0  0  0  0
  175.6010   18.0880   46.6220 C   0  0  0  0  0  0  0  0  0  0  0  0
  177.6900   19.3020   46.2230 N   0  0  0  0  0  0  0  0  0  0  0  0
  178.4940   20.3790   46.3590 C   0  0  0  0  0  0  0  0  0  0  0  0
  178.1650   21.5280   47.0580 C   0  0  0  0  0  0  0  0  0  0  0  0
  176.9010   21.5540   47.6620 C   0  0  0  0  0  0  0  0  0  0  0  0
  172.5124   23.7461   52.4790 H   0  0  0  0  0  0  0  0  0  0  0  0
  171.3779   23.9068   51.0955 H   0  0  0  0  0  0  0  0  0  0  0  0
  172.6157   22.6050   51.0955 H   0  0  0  0  0  0  0  0  0  0  0  0
  175.7836   25.5132   50.0627 H   0  0  0  0  0  0  0  0  0  0  0  0
  177.4637   24.2728   48.6924 H   0  0  0  0  0  0  0  0  0  0  0  0
  173.0326   22.1821   49.7697 H   0  0  0  0  0  0  0  0  0  0  0  0
  174.1420   20.1040   48.2610 H   0  0  0  0  0  0  0  0  0  0  0  0
  175.3205   17.6902   47.6084 H   0  0  0  0  0  0  0  0  0  0  0  0
  174.6925   18.3581   46.0637 H   0  0  0  0  0  0  0  0  0  0  0  0
  176.1606   17.3230   46.0637 H   0  0  0  0  0  0  0  0  0  0  0  0
  179.4830   20.3403   45.8790 H   0  0  0  0  0  0  0  0  0  0  0  0
  178.8603   22.3769   47.1352 H   0  0  0  0  0  0  0  0  0  0  0  0
  1  2  1  0
  2  3  1  0
  3  4  2  0
  4  5  1  0
  5  6  2  0
  6  7  1  0
  7  8  2  0
  7  9  1  0
  9 10  1  0
 10 11  2  0
 11 12  1  0
 11 13  1  0
 13 14  2  0
 14 15  1  0
 15 16  2  0
  8  3  1  0
 16 10  1  0
 16  6  1  0
  1 17  1  0
  1 18  1  0
  1 19  1  0
  4 20  1  0
  5 21  1  0
  8 22  1  0
  9 23  1  0
 12 24  1  0
 12 25  1  0
 12 26  1  0
 14 27  1  0
 15 28  1  0
M  END
>  <meeko>  (4) 
{"is_sidechain": [false], "free_energy": -6.227, "intermolecular_energy": -6.592, "internal_energy": -0.06}

$$$$
harmine_out
     RDKit          3D

 28 30  0  0  0  0  0  0  0  0999 V2000
  174.6340   22.5680   49.4270 C   0  0  0  0  0  0  0  0  0  0  0  0
  174.4580   21.5480   48.4520 O   0  0  0  0  0  0  0  0  0  0  0  0
  175.5890   21.0600   47.8530 C   0  0  0  0  0  0  0  0  0  0  0  0
  175.6550   19.9400   47.0260 C   0  0  0  0  0  0  0  0  0  0  0  0
  176.8740   19.5310   46.4650 C   0  0  0  0  0  0  0  0  0  0  0  0
  178.0500   20.2580   46.7400 C   0  0  0  0  0  0  0  0  0  0  0  0
  177.9580   21.3740   47.5680 C   0  0  0  0  0  0  0  0  0  0  0  0
  176.7490   21.7960   48.1350 C   0  0  0  0  0  0  0  0  0  0  0  0
  179.2210   21.9020   47.6770 N   0  0  0  0  0  0  0  0  0  0  0  0
  180.1290   21.1680   46.9480 C   0  0  0  0  0  0  0  0  0  0  0  0
  181.5070   21.3400   46.7760 C   0  0  0  0  0  0  0  0  0  0  0  0
  182.3040   22.4410   47.4020 C   0  0  0  0  0  0  0  0  0  0  0  0
  182.1630   20.4480   45.9870 N   0  0  0  0  0  0  0  0  0  0  0  0
  181.4800   19.4390   45.4030 C   0  0  0  0  0  0  0  0  0  0  0  0
  180.1200   19.2220   45.5400 C   0  0  0  0  0  0  0  0  0  0  0  0
  179.4190   20.1280   46.3480 C   0  0  0  0  0  0  0  0  0  0  0  0
  174.5585   22.1303   50.4333 H   0  0  0  0  0  0  0  0  0  0  0  0
  175.6249   23.0287   49.3010 H   0  0  0  0  0  0  0  0  0  0  0  0
  173.8548   23.3341   49.3010 H   0  0  0  0  0  0  0  0  0  0  0  0
  174.7395   19.3695   46.8105 H   0  0  0  0  0  0  0  0  0  0  0  0
  176.9120   18.6460   45.8128 H   0  0  0  0  0  0  0  0  0  0  0  0
  176.7102   22.6824   48.7852 H   0  0  0  0  0  0  0  0  0  0  0  0
  179.4480   22.7000   48.2080 H   0  0  0  0  0  0  0  0  0  0  0  0
  182.2449   22.3593   48.4974 H   0  0  0  0  0  0  0  0  0  0  0  0
  183.3540   22.3598   47.0844 H   0  0  0  0  0  0  0  0  0  0  0  0
  181.8990   23.4131   47.0844 H   0  0  0  0  0  0  0  0  0  0  0  0
  182.0467   18.7384   44.7721 H   0  0  0  0  0  0  0  0  0  0  0  0
  179.6152   18.3819   45.0406 H   0  0  0  0  0  0  0  0  0  0  0  0
  1  2  1  0
  2  3  1  0
  3  4  2  0
  4  5  1  0
  5  6  2  0
  6  7  1  0
  7  8  2  0
  7  9  1  0
  9 10  1  0
 10 11  2  0
 11 12  1  0
 11 13  1  0
 13 14  2  0
 14 15  1  0
 15 16  2  0
  8  3  1  0
 16 10  1  0
 16  6  1  0
  1 17  1  0
  1 18  1  0
  1 19  1  0
  4 20  1  0
  5 21  1  0
  8 22  1  0
  9 23  1  0
 12 24  1  0
 12 25  1  0
 12 26  1  0
 14 27  1  0
 15 28  1  0
M  END
>  <meeko>  (5) 
{"is_sidechain": [false], "free_energy": -6.202, "intermolecular_energy": -6.564, "internal_energy": -0.061}

$$$$
harmine_out
     RDKit          3D

 28 30  0  0  0  0  0  0  0  0999 V2000
  175.5570   18.1230   46.5660 C   0  0  0  0  0  0  0  0  0  0  0  0
  176.5060   19.1430   46.2800 O   0  0  0  0  0  0  0  0  0  0  0  0
  176.4120   20.3000   47.0080 C   0  0  0  0  0  0  0  0  0  0  0  0
  177.3320   21.3470   46.9970 C   0  0  0  0  0  0  0  0  0  0  0  0
  177.1320   22.4890   47.7870 C   0  0  0  0  0  0  0  0  0  0  0  0
  175.9860   22.5830   48.6030 C   0  0  0  0  0  0  0  0  0  0  0  0
  175.0810   21.5240   48.5950 C   0  0  0  0  0  0  0  0  0  0  0  0
  175.2670   20.3780   47.8120 C   0  0  0  0  0  0  0  0  0  0  0  0
  174.0650   21.8550   49.4590 N   0  0  0  0  0  0  0  0  0  0  0  0
  174.2800   23.0900   50.0260 C   0  0  0  0  0  0  0  0  0  0  0  0
  173.5150   23.8110   50.9500 C   0  0  0  0  0  0  0  0  0  0  0  0
  172.2230   23.3310   51.5310 C   0  0  0  0  0  0  0  0  0  0  0  0
  173.9770   25.0280   51.3430 N   0  0  0  0  0  0  0  0  0  0  0  0
  175.1400   25.4990   50.8410 C   0  0  0  0  0  0  0  0  0  0  0  0
  175.9350   24.8280   49.9270 C   0  0  0  0  0  0  0  0  0  0  0  0
  175.4810   23.5710   49.5050 C   0  0  0  0  0  0  0  0  0  0  0  0
  175.4544   18.0127   47.6556 H   0  0  0  0  0  0  0  0  0  0  0  0
  174.5838   18.3955   46.1318 H   0  0  0  0  0  0  0  0  0  0  0  0
  175.8989   17.1719   46.1318 H   0  0  0  0  0  0  0  0  0  0  0  0
  178.2265   21.2770   46.3606 H   0  0  0  0  0  0  0  0  0  0  0  0
  177.8663   23.3078   47.7699 H   0  0  0  0  0  0  0  0  0  0  0  0
  174.5325   19.5593   47.8277 H   0  0  0  0  0  0  0  0  0  0  0  0
  173.2870   21.2830   49.6480 H   0  0  0  0  0  0  0  0  0  0  0  0
  172.2839   23.3536   52.6291 H   0  0  0  0  0  0  0  0  0  0  0  0
  171.4047   23.9851   51.1956 H   0  0  0  0  0  0  0  0  0  0  0  0
  172.0303   22.3013   51.1956 H   0  0  0  0  0  0  0  0  0  0  0  0
  175.4799   26.4875   51.1834 H   0  0  0  0  0  0  0  0  0  0  0  0
  176.8746   25.2594   49.5515 H   0  0  0  0  0  0  0  0  0  0  0  0
  1  2  1  0
  2  3  1  0
  3  4  2  0
  4  5  1  0
  5  6  2  0
  6  7  1  0
  7  8  2  0
  7  9  1  0
  9 10  1  0
 10 11  2  0
 11 12  1  0
 11 13  1  0
 13 14  2  0
 14 15  1  0
 15 16  2  0
  8  3  1  0
 16 10  1  0
 16  6  1  0
  1 17  1  0
  1 18  1  0
  1 19  1  0
  4 20  1  0
  5 21  1  0
  8 22  1  0
  9 23  1  0
 12 24  1  0
 12 25  1  0
 12 26  1  0
 14 27  1  0
 15 28  1  0
M  END
>  <meeko>  (6) 
{"is_sidechain": [false], "free_energy": -5.969, "intermolecular_energy": -6.317, "internal_energy": -0.061}

$$$$
harmine_out
     RDKit          3D

 28 30  0  0  0  0  0  0  0  0999 V2000
  175.5570   18.1140   46.2140 C   0  0  0  0  0  0  0  0  0  0  0  0
  175.1980   18.5150   47.5300 O   0  0  0  0  0  0  0  0  0  0  0  0
  175.9180   19.5400   48.0850 C   0  0  0  0  0  0  0  0  0  0  0  0
  177.0890   20.0880   47.5640 C   0  0  0  0  0  0  0  0  0  0  0  0
  177.7450   21.1400   48.2210 C   0  0  0  0  0  0  0  0  0  0  0  0
  177.2150   21.6510   49.4230 C   0  0  0  0  0  0  0  0  0  0  0  0
  176.0440   21.0870   49.9220 C   0  0  0  0  0  0  0  0  0  0  0  0
  175.3780   20.0380   49.2780 C   0  0  0  0  0  0  0  0  0  0  0  0
  175.7380   21.7520   51.0850 N   0  0  0  0  0  0  0  0  0  0  0  0
  176.6690   22.7280   51.3570 C   0  0  0  0  0  0  0  0  0  0  0  0
  176.7530   23.6330   52.4210 C   0  0  0  0  0  0  0  0  0  0  0  0
  175.7660   23.7080   53.5430 C   0  0  0  0  0  0  0  0  0  0  0  0
  177.8010   24.4990   52.4350 N   0  0  0  0  0  0  0  0  0  0  0  0
  178.7150   24.4640   51.4410 C   0  0  0  0  0  0  0  0  0  0  0  0
  178.6810   23.5910   50.3670 C   0  0  0  0  0  0  0  0  0  0  0  0
  177.6100   22.6870   50.3280 C   0  0  0  0  0  0  0  0  0  0  0  0
  176.2899   17.2954   46.2672 H   0  0  0  0  0  0  0  0  0  0  0  0
  174.6603   17.7691   45.6783 H   0  0  0  0  0  0  0  0  0  0  0  0
  175.9986   18.9673   45.6783 H   0  0  0  0  0  0  0  0  0  0  0  0
  177.5040   19.6907   46.6260 H   0  0  0  0  0  0  0  0  0  0  0  0
  178.6686   21.5640   47.8000 H   0  0  0  0  0  0  0  0  0  0  0  0
  174.4535   19.6150   49.6981 H   0  0  0  0  0  0  0  0  0  0  0  0
  174.9550   21.5560   51.6490 H   0  0  0  0  0  0  0  0  0  0  0  0
  176.2996   23.6675   54.5041 H   0  0  0  0  0  0  0  0  0  0  0  0
  175.2044   24.6514   53.4749 H   0  0  0  0  0  0  0  0  0  0  0  0
  175.0683   22.8603   53.4749 H   0  0  0  0  0  0  0  0  0  0  0  0
  179.5473   25.1817   51.4883 H   0  0  0  0  0  0  0  0  0  0  0  0
  179.4542   23.6058   49.5848 H   0  0  0  0  0  0  0  0  0  0  0  0
  1  2  1  0
  2  3  1  0
  3  4  2  0
  4  5  1  0
  5  6  2  0
  6  7  1  0
  7  8  2  0
  7  9  1  0
  9 10  1  0
 10 11  2  0
 11 12  1  0
 11 13  1  0
 13 14  2  0
 14 15  1  0
 15 16  2  0
  8  3  1  0
 16 10  1  0
 16  6  1  0
  1 17  1  0
  1 18  1  0
  1 19  1  0
  4 20  1  0
  5 21  1  0
  8 22  1  0
  9 23  1  0
 12 24  1  0
 12 25  1  0
 12 26  1  0
 14 27  1  0
 15 28  1  0
M  END
>  <meeko>  (7) 
{"is_sidechain": [false], "free_energy": -5.964, "intermolecular_energy": -6.331, "internal_energy": -0.042}

$$$$
harmine_out
     RDKit          3D

 28 30  0  0  0  0  0  0  0  0999 V2000
  174.1450   26.0270   51.1220 C   0  0  0  0  0  0  0  0  0  0  0  0
  175.2450   25.6330   50.3130 O   0  0  0  0  0  0  0  0  0  0  0  0
  175.1690   24.4010   49.7180 C   0  0  0  0  0  0  0  0  0  0  0  0
  174.0580   23.5590   49.7270 C   0  0  0  0  0  0  0  0  0  0  0  0
  174.0940   22.3140   49.0810 C   0  0  0  0  0  0  0  0  0  0  0  0
  175.2680   21.9060   48.4160 C   0  0  0  0  0  0  0  0  0  0  0  0
  176.3630   22.7650   48.4220 C   0  0  0  0  0  0  0  0  0  0  0  0
  176.3430   24.0110   49.0600 C   0  0  0  0  0  0  0  0  0  0  0  0
  177.3660   22.1460   47.7150 N   0  0  0  0  0  0  0  0  0  0  0  0
  176.9580   20.9160   47.2510 C   0  0  0  0  0  0  0  0  0  0  0  0
  177.6440   19.9570   46.4970 C   0  0  0  0  0  0  0  0  0  0  0  0
  179.0540   20.1080   46.0210 C   0  0  0  0  0  0  0  0  0  0  0  0
  176.9830   18.8120   46.1770 N   0  0  0  0  0  0  0  0  0  0  0  0
  175.7080   18.6360   46.5870 C   0  0  0  0  0  0  0  0  0  0  0  0
  174.9840   19.5500   47.3340 C   0  0  0  0  0  0  0  0  0  0  0  0
  175.6420   20.7390   47.6770 C   0  0  0  0  0  0  0  0  0  0  0  0
  174.4170   25.9296   52.1834 H   0  0  0  0  0  0  0  0  0  0  0  0
  173.8862   27.0737   50.9044 H   0  0  0  0  0  0  0  0  0  0  0  0
  173.2804   25.3827   50.9044 H   0  0  0  0  0  0  0  0  0  0  0  0
  173.1416   23.8747   50.2471 H   0  0  0  0  0  0  0  0  0  0  0  0
  173.2101   21.6593   49.0934 H   0  0  0  0  0  0  0  0  0  0  0  0
  177.2260   24.6668   49.0451 H   0  0  0  0  0  0  0  0  0  0  0  0
  178.2590   22.5310   47.5610 H   0  0  0  0  0  0  0  0  0  0  0  0
  179.7278   20.1802   46.8875 H   0  0  0  0  0  0  0  0  0  0  0  0
  179.3312   19.2344   45.4127 H   0  0  0  0  0  0  0  0  0  0  0  0
  179.1399   21.0205   45.4127 H   0  0  0  0  0  0  0  0  0  0  0  0
  175.2079   17.6972   46.3068 H   0  0  0  0  0  0  0  0  0  0  0  0
  173.9465   19.3531   47.6421 H   0  0  0  0  0  0  0  0  0  0  0  0
  1  2  1  0
  2  3  1  0
  3  4  2  0
  4  5  1  0
  5  6  2  0
  6  7  1  0
  7  8  2  0
  7  9  1  0
  9 10  1  0
 10 11  2  0
 11 12  1  0
 11 13  1  0
 13 14  2  0
 14 15  1  0
 15 16  2  0
  8  3  1  0
 16 10  1  0
 16  6  1  0
  1 17  1  0
  1 18  1  0
  1 19  1  0
  4 20  1  0
  5 21  1  0
  8 22  1  0
  9 23  1  0
 12 24  1  0
 12 25  1  0
 12 26  1  0
 14 27  1  0
 15 28  1  0
M  END
>  <meeko>  (8) 
{"is_sidechain": [false], "free_energy": -5.911, "intermolecular_energy": -6.275, "internal_energy": -0.042}

$$$$
harmine_out
     RDKit          3D

 28 30  0  0  0  0  0  0  0  0999 V2000
  174.3700   23.3420   49.5130 C   0  0  0  0  0  0  0  0  0  0  0  0
  174.6800   22.2220   48.6940 O   0  0  0  0  0  0  0  0  0  0  0  0
  175.9800   22.0960   48.2810 C   0  0  0  0  0  0  0  0  0  0  0  0
  176.9720   23.0680   48.4000 C   0  0  0  0  0  0  0  0  0  0  0  0
  178.2750   22.8270   47.9400 C   0  0  0  0  0  0  0  0  0  0  0  0
  178.5890   21.5870   47.3480 C   0  0  0  0  0  0  0  0  0  0  0  0
  177.5810   20.6320   47.2410 C   0  0  0  0  0  0  0  0  0  0  0  0
  176.2760   20.8570   47.6960 C   0  0  0  0  0  0  0  0  0  0  0  0
  178.1330   19.5260   46.6400 N   0  0  0  0  0  0  0  0  0  0  0  0
  179.4640   19.7320   46.3530 C   0  0  0  0  0  0  0  0  0  0  0  0
  180.4030   18.8890   45.7490 C   0  0  0  0  0  0  0  0  0  0  0  0
  180.1080   17.5030   45.2690 C   0  0  0  0  0  0  0  0  0  0  0  0
  181.6690   19.3620   45.5890 N   0  0  0  0  0  0  0  0  0  0  0  0
  181.9770   20.6080   46.0090 C   0  0  0  0  0  0  0  0  0  0  0  0
  181.0880   21.4830   46.6110 C   0  0  0  0  0  0  0  0  0  0  0  0
  179.7770   21.0190   46.7880 C   0  0  0  0  0  0  0  0  0  0  0  0
  174.4494   23.0551   50.5719 H   0  0  0  0  0  0  0  0  0  0  0  0
  175.0760   24.1583   49.3004 H   0  0  0  0  0  0  0  0  0  0  0  0
  173.3448   23.6792   49.3004 H   0  0  0  0  0  0  0  0  0  0  0  0
  176.7298   24.0370   48.8608 H   0  0  0  0  0  0  0  0  0  0  0  0
  179.0486   23.6025   48.0408 H   0  0  0  0  0  0  0  0  0  0  0  0
  175.5026   20.0811   47.5969 H   0  0  0  0  0  0  0  0  0  0  0  0
  177.6420   18.6980   46.4390 H   0  0  0  0  0  0  0  0  0  0  0  0
  179.9664   16.8379   46.1336 H   0  0  0  0  0  0  0  0  0  0  0  0
  179.1919   17.5130   44.6602 H   0  0  0  0  0  0  0  0  0  0  0  0
  180.9488   17.1391   44.6602 H   0  0  0  0  0  0  0  0  0  0  0  0
  183.0109   20.9537   45.8621 H   0  0  0  0  0  0  0  0  0  0  0  0
  181.3945   22.4891   46.9333 H   0  0  0  0  0  0  0  0  0  0  0  0
  1  2  1  0
  2  3  1  0
  3  4  2  0
  4  5  1  0
  5  6  2  0
  6  7  1  0
  7  8  2  0
  7  9  1  0
  9 10  1  0
 10 11  2  0
 11 12  1  0
 11 13  1  0
 13 14  2  0
 14 15  1  0
 15 16  2  0
  8  3  1  0
 16 10  1  0
 16  6  1  0
  1 17  1  0
  1 18  1  0
  1 19  1  0
  4 20  1  0
  5 21  1  0
  8 22  1  0
  9 23  1  0
 12 24  1  0
 12 25  1  0
 12 26  1  0
 14 27  1  0
 15 28  1  0
M  END
>  <meeko>  (9) 
{"is_sidechain": [false], "free_energy": -5.869, "intermolecular_energy": -6.23, "internal_energy": -0.042}

$$$$
