safinamide_out
     RDKit          3D

 42 43  0  0  0  0  0  0  0  0999 V2000
  174.9890   23.1460   49.2380 C   0  0  0  0  0  0  0  0  0  0  0  0
  175.9460   21.9760   49.0210 C   0  0  2  0  0  0  0  0  0  0  0  0
  176.5870   22.1130   47.6890 N   0  0  0  0  0  0  0  0  0  0  0  0
  178.0350   22.3130   47.8190 C   0  0  0  0  0  0  0  0  0  0  0  0
  178.7810   21.1730   47.1660 C   0  0  0  0  0  0  0  0  0  0  0  0
  180.1600   21.2630   46.9390 C   0  0  0  0  0  0  0  0  0  0  0  0
  180.8620   20.2040   46.3510 C   0  0  0  0  0  0  0  0  0  0  0  0
  180.1910   19.0380   45.9860 C   0  0  0  0  0  0  0  0  0  0  0  0
  180.7490   17.9320   45.4070 O   0  0  0  0  0  0  0  0  0  0  0  0
  181.2320   18.0720   44.0740 C   0  0  0  0  0  0  0  0  0  0  0  0
  181.0980   16.7340   43.3900 C   0  0  0  0  0  0  0  0  0  0  0  0
  180.8580   15.5710   44.1400 C   0  0  0  0  0  0  0  0  0  0  0  0
  180.7170   14.3320   43.5090 C   0  0  0  0  0  0  0  0  0  0  0  0
  180.8050   14.2450   42.1210 C   0  0  0  0  0  0  0  0  0  0  0  0
  181.0280   15.3980   41.3770 C   0  0  0  0  0  0  0  0  0  0  0  0
  181.1070   15.3140   40.0420 F   0  0  0  0  0  0  0  0  0  0  0  0
  181.1710   16.6360   41.9940 C   0  0  0  0  0  0  0  0  0  0  0  0
  178.8170   18.9400   46.2180 C   0  0  0  0  0  0  0  0  0  0  0  0
  178.1150   19.9960   46.8060 C   0  0  0  0  0  0  0  0  0  0  0  0
  175.1570   20.6570   49.0950 C   0  0  0  0  0  0  0  0  0  0  0  0
  175.0740   20.1080   50.3460 N   0  0  0  0  0  0  0  0  0  0  0  0
  174.6590   20.1080   48.1190 O   0  0  0  0  0  0  0  0  0  0  0  0
  174.8525   23.3129   50.3167 H   0  0  0  0  0  0  0  0  0  0  0  0
  175.4078   24.0526   48.7768 H   0  0  0  0  0  0  0  0  0  0  0  0
  174.0173   22.9153   48.7768 H   0  0  0  0  0  0  0  0  0  0  0  0
  176.7242   21.9746   49.7985 H   0  0  0  0  0  0  0  0  0  0  0  0
  176.1820   22.9130   47.2040 H   0  0  0  0  0  0  0  0  0  0  0  0
  176.4250   21.2550   47.1610 H   0  0  0  0  0  0  0  0  0  0  0  0
  178.3163   23.2579   47.3311 H   0  0  0  0  0  0  0  0  0  0  0  0
  178.2976   22.3483   48.8866 H   0  0  0  0  0  0  0  0  0  0  0  0
  180.6988   22.1779   47.2265 H   0  0  0  0  0  0  0  0  0  0  0  0
  181.9445   20.2922   46.1768 H   0  0  0  0  0  0  0  0  0  0  0  0
  180.6377   18.8269   43.5384 H   0  0  0  0  0  0  0  0  0  0  0  0
  182.2830   18.3965   44.0791 H   0  0  0  0  0  0  0  0  0  0  0  0
  180.7802   15.6360   45.2353 H   0  0  0  0  0  0  0  0  0  0  0  0
  180.5368   13.4267   44.1072 H   0  0  0  0  0  0  0  0  0  0  0  0
  180.6989   13.2723   41.6183 H   0  0  0  0  0  0  0  0  0  0  0  0
  181.3412   17.5374   41.3869 H   0  0  0  0  0  0  0  0  0  0  0  0
  178.2816   18.0217   45.9348 H   0  0  0  0  0  0  0  0  0  0  0  0
  177.0341   19.9015   46.9866 H   0  0  0  0  0  0  0  0  0  0  0  0
  175.4830   20.5690   51.1140 H   0  0  0  0  0  0  0  0  0  0  0  0
  174.6080   19.2510   50.4770 H   0  0  0  0  0  0  0  0  0  0  0  0
  1  2  1  0
  2  3  1  0
  3  4  1  0
  4  5  1  0
  5  6  2  0
  6  7  1  0
  7  8  2  0
  8  9  1  0
  9 10  1  0
 10 11  1  0
 11 12  2  0
 12 13  1  0
 13 14  2  0
 14 15  1  0
 15 16  1  0
 15 17  2  0
  8 18  1  0
 18 19  2  0
  2 20  1  0
 20 21  1  0
 20 22  2  0
 19  5  1  0
 17 11  1  0
  1 23  1  0
  1 24  1  0
  1 25  1  0
  2 26  1  1
  3 27  1  0
  3 28  1  0
  4 29  1  0
  4 30  1  0
  6 31  1  0
  7 32  1  0
 10 33  1  0
 10 34  1  0
 12 35  1  0
 13 36  1  0
 14 37  1  0
 17 38  1  0
 18 39  1  0
 19 40  1  0
 21 41  1  0
 21 42  1  0
M  CHG  1   3   1
M  END
>  <meeko>  (1) 
{"is_sidechain": [false], "free_energy": -7.872, "intermolecular_energy": -11.093, "internal_energy": -0.653}

$$$$
safinamide_out
     RDKit          3D

 42 43  0  0  0  0  0  0  0  0999 V2000
  175.7670   24.1130   49.2670 C   0  0  0  0  0  0  0  0  0  0  0  0
  176.3310   22.7260   48.9720 C   0  0  2  0  0  0  0  0  0  0  0  0
  176.9780   22.7390   47.6350 N   0  0  0  0  0  0  0  0  0  0  0  0
  178.4400   22.6960   47.7570 C   0  0  0  0  0  0  0  0  0  0  0  0
  178.9780   21.4180   47.1580 C   0  0  0  0  0  0  0  0  0  0  0  0
  178.1060   20.3920   46.7730 C   0  0  0  0  0  0  0  0  0  0  0  0
  178.5960   19.2120   46.2000 C   0  0  0  0  0  0  0  0  0  0  0  0
  179.9660   19.0460   46.0010 C   0  0  0  0  0  0  0  0  0  0  0  0
  180.5760   17.9520   45.4550 O   0  0  0  0  0  0  0  0  0  0  0  0
  181.1660   18.1120   44.1690 C   0  0  0  0  0  0  0  0  0  0  0  0
  181.0760   16.7900   43.4480 C   0  0  0  0  0  0  0  0  0  0  0  0
  180.8410   15.6040   44.1640 C   0  0  0  0  0  0  0  0  0  0  0  0
  180.7390   14.3790   43.4990 C   0  0  0  0  0  0  0  0  0  0  0  0
  180.8630   14.3280   42.1120 C   0  0  0  0  0  0  0  0  0  0  0  0
  181.0810   15.5030   41.4020 C   0  0  0  0  0  0  0  0  0  0  0  0
  181.1930   15.4550   40.0680 F   0  0  0  0  0  0  0  0  0  0  0  0
  181.1840   16.7280   42.0530 C   0  0  0  0  0  0  0  0  0  0  0  0
  180.8380   20.0710   46.3760 C   0  0  0  0  0  0  0  0  0  0  0  0
  180.3510   21.2500   46.9470 C   0  0  0  0  0  0  0  0  0  0  0  0
  175.1860   21.6980   48.9950 C   0  0  0  0  0  0  0  0  0  0  0  0
  174.6920   21.4180   50.2400 N   0  0  0  0  0  0  0  0  0  0  0  0
  174.7560   21.1390   47.9930 O   0  0  0  0  0  0  0  0  0  0  0  0
  175.7070   24.2605   50.3554 H   0  0  0  0  0  0  0  0  0  0  0  0
  176.4257   24.8774   48.8291 H   0  0  0  0  0  0  0  0  0  0  0  0
  174.7617   24.2008   48.8291 H   0  0  0  0  0  0  0  0  0  0  0  0
  177.0766   22.4515   49.7328 H   0  0  0  0  0  0  0  0  0  0  0  0
  176.7100   23.5890   47.1430 H   0  0  0  0  0  0  0  0  0  0  0  0
  176.6730   21.9130   47.1190 H   0  0  0  0  0  0  0  0  0  0  0  0
  178.8740   23.5564   47.2265 H   0  0  0  0  0  0  0  0  0  0  0  0
  178.7117   22.7344   48.8222 H   0  0  0  0  0  0  0  0  0  0  0  0
  177.0231   20.5145   46.9225 H   0  0  0  0  0  0  0  0  0  0  0  0
  177.8983   18.4140   45.9061 H   0  0  0  0  0  0  0  0  0  0  0  0
  180.6240   18.8838   43.6029 H   0  0  0  0  0  0  0  0  0  0  0  0
  182.2164   18.4239   44.2662 H   0  0  0  0  0  0  0  0  0  0  0  0
  180.7363   15.6401   45.2584 H   0  0  0  0  0  0  0  0  0  0  0  0
  180.5610   13.4558   44.0700 H   0  0  0  0  0  0  0  0  0  0  0  0
  180.7890   13.3661   41.5835 H   0  0  0  0  0  0  0  0  0  0  0  0
  181.3502   17.6475   41.4725 H   0  0  0  0  0  0  0  0  0  0  0  0
  181.9200   19.9488   46.2201 H   0  0  0  0  0  0  0  0  0  0  0  0
  181.0504   22.0497   47.2319 H   0  0  0  0  0  0  0  0  0  0  0  0
  175.0560   21.8810   51.0290 H   0  0  0  0  0  0  0  0  0  0  0  0
  173.9740   20.7530   50.3460 H   0  0  0  0  0  0  0  0  0  0  0  0
  1  2  1  0
  2  3  1  0
  3  4  1  0
  4  5  1  0
  5  6  2  0
  6  7  1  0
  7  8  2  0
  8  9  1  0
  9 10  1  0
 10 11  1  0
 11 12  2  0
 12 13  1  0
 13 14  2  0
 14 15  1  0
 15 16  1  0
 15 17  2  0
  8 18  1  0
 18 19  2  0
  2 20  1  0
 20 21  1  0
 20 22  2  0
 19  5  1  0
 17 11  1  0
  1 23  1  0
  1 24  1  0
  1 25  1  0
  2 26  1  1
  3 27  1  0
  3 28  1  0
  4 29  1  0
  4 30  1  0
  6 31  1  0
  7 32  1  0
 10 33  1  0
 10 34  1  0
 12 35  1  0
 13 36  1  0
 14 37  1  0
 17 38  1  0
 18 39  1  0
 19 40  1  0
 21 41  1  0
 21 42  1  0
M  CHG  1   3   1
M  END
>  <meeko>  (2) 
{"is_sidechain": [false], "free_energy": -7.836, "intermolecular_energy": -11.066, "internal_energy": -0.629}

$$$$
safinamide_out
     RDKit          3D

 42 43  0  0  0  0  0  0  0  0999 V2000
  174.8900   23.0970   49.3360 C   0  0  0  0  0  0  0  0  0  0  0  0
  175.8930   21.9960   49.0010 C   0  0  2  0  0  0  0  0  0  0  0  0
  176.3460   22.1610   47.5960 N   0  0  0  0  0  0  0  0  0  0  0  0
  177.7590   22.5540   47.5410 C   0  0  0  0  0  0  0  0  0  0  0  0
  178.5990   21.4120   47.0200 C   0  0  0  0  0  0  0  0  0  0  0  0
  179.9950   21.5170   46.9800 C   0  0  0  0  0  0  0  0  0  0  0  0
  180.7810   20.4560   46.5140 C   0  0  0  0  0  0  0  0  0  0  0  0
  180.1780   19.2730   46.0880 C   0  0  0  0  0  0  0  0  0  0  0  0
  180.8220   18.1640   45.6130 O   0  0  0  0  0  0  0  0  0  0  0  0
  181.1430   18.1440   44.2250 C   0  0  0  0  0  0  0  0  0  0  0  0
  180.9660   16.7310   43.7280 C   0  0  0  0  0  0  0  0  0  0  0  0
  181.3120   16.3910   42.4090 C   0  0  0  0  0  0  0  0  0  0  0  0
  181.1660   15.0800   41.9500 C   0  0  0  0  0  0  0  0  0  0  0  0
  180.6800   14.0930   42.8050 C   0  0  0  0  0  0  0  0  0  0  0  0
  180.3510   14.4250   44.1140 C   0  0  0  0  0  0  0  0  0  0  0  0
  179.8910   13.4740   44.9390 F   0  0  0  0  0  0  0  0  0  0  0  0
  180.4920   15.7270   44.5830 C   0  0  0  0  0  0  0  0  0  0  0  0
  178.7870   19.1610   46.1340 C   0  0  0  0  0  0  0  0  0  0  0  0
  178.0010   20.2180   46.5990 C   0  0  0  0  0  0  0  0  0  0  0  0
  175.2170   20.6250   49.1800 C   0  0  0  0  0  0  0  0  0  0  0  0
  175.1890   20.1640   50.4680 N   0  0  0  0  0  0  0  0  0  0  0  0
  174.7610   19.9660   48.2520 O   0  0  0  0  0  0  0  0  0  0  0  0
  174.8024   23.1932   50.4283 H   0  0  0  0  0  0  0  0  0  0  0  0
  175.2364   24.0504   48.9106 H   0  0  0  0  0  0  0  0  0  0  0  0
  173.9085   22.8407   48.9106 H   0  0  0  0  0  0  0  0  0  0  0  0
  176.7626   22.0603   49.6715 H   0  0  0  0  0  0  0  0  0  0  0  0
  175.7820   22.8820   47.1460 H   0  0  0  0  0  0  0  0  0  0  0  0
  176.2390   21.2690   47.1140 H   0  0  0  0  0  0  0  0  0  0  0  0
  177.8692   23.4205   46.8724 H   0  0  0  0  0  0  0  0  0  0  0  0
  178.0982   22.8154   48.5542 H   0  0  0  0  0  0  0  0  0  0  0  0
  180.4799   22.4444   47.3188 H   0  0  0  0  0  0  0  0  0  0  0  0
  181.8761   20.5559   46.4839 H   0  0  0  0  0  0  0  0  0  0  0  0
  180.4708   18.8201   43.6763 H   0  0  0  0  0  0  0  0  0  0  0  0
  182.1788   18.4787   44.0666 H   0  0  0  0  0  0  0  0  0  0  0  0
  181.7016   17.1650   41.7314 H   0  0  0  0  0  0  0  0  0  0  0  0
  181.4346   14.8268   40.9138 H   0  0  0  0  0  0  0  0  0  0  0  0
  180.5577   13.0600   42.4472 H   0  0  0  0  0  0  0  0  0  0  0  0
  180.2316   15.9683   45.6242 H   0  0  0  0  0  0  0  0  0  0  0  0
  178.3048   18.2303   45.8004 H   0  0  0  0  0  0  0  0  0  0  0  0
  176.9067   20.1118   46.6346 H   0  0  0  0  0  0  0  0  0  0  0  0
  175.5620   20.7120   51.1950 H   0  0  0  0  0  0  0  0  0  0  0  0
  174.7960   19.2830   50.6660 H   0  0  0  0  0  0  0  0  0  0  0  0
  1  2  1  0
  2  3  1  0
  3  4  1  0
  4  5  1  0
  5  6  2  0
  6  7  1  0
  7  8  2  0
  8  9  1  0
  9 10  1  0
 10 11  1  0
 11 12  2  0
 12 13  1  0
 13 14  2  0
 14 15  1  0
 15 16  1  0
 15 17  2  0
  8 18  1  0
 18 19  2  0
  2 20  1  0
 20 21  1  0
 20 22  2  0
 19  5  1  0
 17 11  1  0
  1 23  1  0
  1 24  1  0
  1 25  1  0
  2 26  1  1
  3 27  1  0
  3 28  1  0
  4 29  1  0
  4 30  1  0
  6 31  1  0
  7 32  1  0
 10 33  1  0
 10 34  1  0
 12 35  1  0
 13 36  1  0
 14 37  1  0
 17 38  1  0
 18 39  1  0
 19 40  1  0
 21 41  1  0
 21 42  1  0
M  CHG  1   3   1
M  END
>  <meeko>  (3) 
{"is_sidechain": [false], "free_energy": -7.779, "intermolecular_energy": -10.916, "internal_energy": -0.699}

$$$$
safinamide_out
     RDKit          3D

 42 43  0  0  0  0  0  0  0  0999 V2000
  176.5150   20.8350   50.2390 C   0  0  0  0  0  0  0  0  0  0  0  0
  177.2100   22.1950   50.2270 C   0  0  2  0  0  0  0  0  0  0  0  0
  178.6110   22.0210   49.7660 N   0  0  0  0  0  0  0  0  0  0  0  0
  178.7400   22.3410   48.3400 C   0  0  0  0  0  0  0  0  0  0  0  0
  179.2360   21.1350   47.5770 C   0  0  0  0  0  0  0  0  0  0  0  0
  178.3490   20.3570   46.8210 C   0  0  0  0  0  0  0  0  0  0  0  0
  178.8050   19.2490   46.0970 C   0  0  0  0  0  0  0  0  0  0  0  0
  180.1570   18.9090   46.1160 C   0  0  0  0  0  0  0  0  0  0  0  0
  180.7340   17.8590   45.4580 O   0  0  0  0  0  0  0  0  0  0  0  0
  181.1670   18.0900   44.1200 C   0  0  0  0  0  0  0  0  0  0  0  0
  181.0890   16.7800   43.3750 C   0  0  0  0  0  0  0  0  0  0  0  0
  180.8780   15.5770   44.0690 C   0  0  0  0  0  0  0  0  0  0  0  0
  180.7880   14.3640   43.3800 C   0  0  0  0  0  0  0  0  0  0  0  0
  180.9000   14.3430   41.9920 C   0  0  0  0  0  0  0  0  0  0  0  0
  181.0940   15.5350   41.3030 C   0  0  0  0  0  0  0  0  0  0  0  0
  181.1950   15.5140   39.9670 F   0  0  0  0  0  0  0  0  0  0  0  0
  181.1850   16.7480   41.9770 C   0  0  0  0  0  0  0  0  0  0  0  0
  181.0460   19.6870   46.8600 C   0  0  0  0  0  0  0  0  0  0  0  0
  180.5930   20.7940   47.5830 C   0  0  0  0  0  0  0  0  0  0  0  0
  177.1910   22.7850   51.6480 C   0  0  0  0  0  0  0  0  0  0  0  0
  176.0180   22.6020   52.3290 N   0  0  0  0  0  0  0  0  0  0  0  0
  178.1290   23.4010   52.1400 O   0  0  0  0  0  0  0  0  0  0  0  0
  176.3519   20.5158   51.2789 H   0  0  0  0  0  0  0  0  0  0  0  0
  175.5465   20.9136   49.7233 H   0  0  0  0  0  0  0  0  0  0  0  0
  177.1461   20.0962   49.7233 H   0  0  0  0  0  0  0  0  0  0  0  0
  176.6869   22.8810   49.5446 H   0  0  0  0  0  0  0  0  0  0  0  0
  178.8950   21.0540   49.9170 H   0  0  0  0  0  0  0  0  0  0  0  0
  179.2080   22.6570   50.2950 H   0  0  0  0  0  0  0  0  0  0  0  0
  177.7586   22.6423   47.9451 H   0  0  0  0  0  0  0  0  0  0  0  0
  179.4615   23.1627   48.2206 H   0  0  0  0  0  0  0  0  0  0  0  0
  177.2812   20.6201   46.7961 H   0  0  0  0  0  0  0  0  0  0  0  0
  178.0953   18.6455   45.5120 H   0  0  0  0  0  0  0  0  0  0  0  0
  180.5141   18.8331   43.6388 H   0  0  0  0  0  0  0  0  0  0  0  0
  182.1974   18.4750   44.1116 H   0  0  0  0  0  0  0  0  0  0  0  0
  180.7827   15.5896   45.1648 H   0  0  0  0  0  0  0  0  0  0  0  0
  180.6288   13.4269   43.9337 H   0  0  0  0  0  0  0  0  0  0  0  0
  180.8355   13.3908   41.4450 H   0  0  0  0  0  0  0  0  0  0  0  0
  181.3321   17.6813   41.4137 H   0  0  0  0  0  0  0  0  0  0  0  0
  182.1144   19.4259   46.8774 H   0  0  0  0  0  0  0  0  0  0  0  0
  181.3070   21.4003   48.1597 H   0  0  0  0  0  0  0  0  0  0  0  0
  175.2780   22.1040   51.9110 H   0  0  0  0  0  0  0  0  0  0  0  0
  175.9130   22.9710   53.2360 H   0  0  0  0  0  0  0  0  0  0  0  0
  1  2  1  0
  2  3  1  0
  3  4  1  0
  4  5  1  0
  5  6  2  0
  6  7  1  0
  7  8  2  0
  8  9  1  0
  9 10  1  0
 10 11  1  0
 11 12  2  0
 12 13  1  0
 13 14  2  0
 14 15  1  0
 15 16  1  0
 15 17  2  0
  8 18  1  0
 18 19  2  0
  2 20  1  0
 20 21  1  0
 20 22  2  0
 19  5  1  0
 17 11  1  0
  1 23  1  0
  1 24  1  0
  1 25  1  0
  2 26  1  6
  3 27  1  0
  3 28  1  0
  4 29  1  0
  4 30  1  0
  6 31  1  0
  7 32  1  0
 10 33  1  0
 10 34  1  0
 12 35  1  0
 13 36  1  0
 14 37  1  0
 17 38  1  0
 18 39  1  0
 19 40  1  0
 21 41  1  0
 21 42  1  0
M  CHG  1   3   1
M  END
>  <meeko>  (4) 
{"is_sidechain": [false], "free_energy": -7.553, "intermolecular_energy": -10.628, "internal_energy": -0.668}

$$$$
safinamide_out
     RDKit          3D

 42 43  0  0  0  0  0  0  0  0999 V2000
  178.8520   21.8820   51.0960 C   0  0  0  0  0  0  0  0  0  0  0  0
  179.7410   22.9780   50.5150 C   0  0  2  0  0  0  0  0  0  0  0  0
  180.3020   22.5150   49.2200 N   0  0  0  0  0  0  0  0  0  0  0  0
  179.2380   22.3050   48.2300 C   0  0  0  0  0  0  0  0  0  0  0  0
  179.5040   21.0480   47.4360 C   0  0  0  0  0  0  0  0  0  0  0  0
  178.4420   20.2580   46.9790 C   0  0  0  0  0  0  0  0  0  0  0  0
  178.6790   19.1010   46.2270 C   0  0  0  0  0  0  0  0  0  0  0  0
  179.9860   18.7240   45.9180 C   0  0  0  0  0  0  0  0  0  0  0  0
  180.3590   17.6250   45.1950 O   0  0  0  0  0  0  0  0  0  0  0  0
  181.1490   17.8520   44.0320 C   0  0  0  0  0  0  0  0  0  0  0  0
  181.1290   16.5910   43.2030 C   0  0  0  0  0  0  0  0  0  0  0  0
  180.9950   15.3360   43.8200 C   0  0  0  0  0  0  0  0  0  0  0  0
  180.9580   14.1670   43.0560 C   0  0  0  0  0  0  0  0  0  0  0  0
  181.0460   14.2410   41.6670 C   0  0  0  0  0  0  0  0  0  0  0  0
  181.1640   15.4830   41.0550 C   0  0  0  0  0  0  0  0  0  0  0  0
  181.2420   15.5540   39.7190 F   0  0  0  0  0  0  0  0  0  0  0  0
  181.2020   16.6540   41.8060 C   0  0  0  0  0  0  0  0  0  0  0  0
  181.0470   19.5140   46.3630 C   0  0  0  0  0  0  0  0  0  0  0  0
  180.8120   20.6690   47.1130 C   0  0  0  0  0  0  0  0  0  0  0  0
  180.8800   23.2840   51.5040 C   0  0  0  0  0  0  0  0  0  0  0  0
  181.9820   22.4830   51.3730 N   0  0  0  0  0  0  0  0  0  0  0  0
  180.8150   24.1500   52.3680 O   0  0  0  0  0  0  0  0  0  0  0  0
  178.8871   21.9253   52.1946 H   0  0  0  0  0  0  0  0  0  0  0  0
  177.8165   22.0311   50.7561 H   0  0  0  0  0  0  0  0  0  0  0  0
  179.2116   20.8996   50.7561 H   0  0  0  0  0  0  0  0  0  0  0  0
  179.1523   23.8922   50.3485 H   0  0  0  0  0  0  0  0  0  0  0  0
  180.7980   21.6370   49.3660 H   0  0  0  0  0  0  0  0  0  0  0  0
  180.9360   23.2310   48.8660 H   0  0  0  0  0  0  0  0  0  0  0  0
  178.2728   22.2094   48.7489 H   0  0  0  0  0  0  0  0  0  0  0  0
  179.2123   23.1641   47.5435 H   0  0  0  0  0  0  0  0  0  0  0  0
  177.4079   20.5503   47.2139 H   0  0  0  0  0  0  0  0  0  0  0  0
  177.8338   18.4887   45.8795 H   0  0  0  0  0  0  0  0  0  0  0  0
  180.7288   18.6870   43.4521 H   0  0  0  0  0  0  0  0  0  0  0  0
  182.1809   18.1082   44.3142 H   0  0  0  0  0  0  0  0  0  0  0  0
  180.9184   15.2732   44.9155 H   0  0  0  0  0  0  0  0  0  0  0  0
  180.8595   13.1892   43.5501 H   0  0  0  0  0  0  0  0  0  0  0  0
  181.0223   13.3238   41.0602 H   0  0  0  0  0  0  0  0  0  0  0  0
  181.2893   17.6282   41.3027 H   0  0  0  0  0  0  0  0  0  0  0  0
  182.0800   19.2239   46.1205 H   0  0  0  0  0  0  0  0  0  0  0  0
  181.6592   21.2836   47.4514 H   0  0  0  0  0  0  0  0  0  0  0  0
  182.0090   21.7940   50.6700 H   0  0  0  0  0  0  0  0  0  0  0  0
  182.7470   22.5950   51.9830 H   0  0  0  0  0  0  0  0  0  0  0  0
  1  2  1  0
  2  3  1  0
  3  4  1  0
  4  5  1  0
  5  6  2  0
  6  7  1  0
  7  8  2  0
  8  9  1  0
  9 10  1  0
 10 11  1  0
 11 12  2  0
 12 13  1  0
 13 14  2  0
 14 15  1  0
 15 16  1  0
 15 17  2  0
  8 18  1  0
 18 19  2  0
  2 20  1  0
 20 21  1  0
 20 22  2  0
 19  5  1  0
 17 11  1  0
  1 23  1  0
  1 24  1  0
  1 25  1  0
  2 26  1  6
  3 27  1  0
  3 28  1  0
  4 29  1  0
  4 30  1  0
  6 31  1  0
  7 32  1  0
 10 33  1  0
 10 34  1  0
 12 35  1  0
 13 36  1  0
 14 37  1  0
 17 38  1  0
 18 39  1  0
 19 40  1  0
 21 41  1  0
 21 42  1  0
M  CHG  1   3   1
M  END
>  <meeko>  (5) 
{"is_sidechain": [false], "free_energy": -7.47, "intermolecular_energy": -10.568, "internal_energy": -0.611}

$$$$
safinamide_out
     RDKit          3D

 42 43  0  0  0  0  0  0  0  0999 V2000
  178.9970   23.4600   50.2860 C   0  0  0  0  0  0  0  0  0  0  0  0
  178.1430   22.2180   50.0430 C   0  0  2  0  0  0  0  0  0  0  0  0
  177.2940   22.4390   48.8440 N   0  0  0  0  0  0  0  0  0  0  0  0
  178.1130   22.7730   47.6730 C   0  0  0  0  0  0  0  0  0  0  0  0
  178.7880   21.5330   47.1360 C   0  0  0  0  0  0  0  0  0  0  0  0
  178.0260   20.4390   46.7050 C   0  0  0  0  0  0  0  0  0  0  0  0
  178.6430   19.2930   46.1890 C   0  0  0  0  0  0  0  0  0  0  0  0
  180.0330   19.2300   46.0940 C   0  0  0  0  0  0  0  0  0  0  0  0
  180.7630   18.1790   45.6120 O   0  0  0  0  0  0  0  0  0  0  0  0
  181.0870   18.1960   44.2250 C   0  0  0  0  0  0  0  0  0  0  0  0
  180.9420   16.7900   43.6970 C   0  0  0  0  0  0  0  0  0  0  0  0
  181.2330   16.5000   42.3530 C   0  0  0  0  0  0  0  0  0  0  0  0
  181.1170   15.1960   41.8650 C   0  0  0  0  0  0  0  0  0  0  0  0
  180.7160   14.1680   42.7150 C   0  0  0  0  0  0  0  0  0  0  0  0
  180.4410   14.4510   44.0480 C   0  0  0  0  0  0  0  0  0  0  0  0
  180.0610   13.4610   44.8670 F   0  0  0  0  0  0  0  0  0  0  0  0
  180.5530   15.7450   44.5460 C   0  0  0  0  0  0  0  0  0  0  0  0
  180.7960   20.3220   46.5140 C   0  0  0  0  0  0  0  0  0  0  0  0
  180.1820   21.4670   47.0280 C   0  0  0  0  0  0  0  0  0  0  0  0
  177.2580   21.9630   51.2760 C   0  0  0  0  0  0  0  0  0  0  0  0
  176.2800   21.0230   51.0950 N   0  0  0  0  0  0  0  0  0  0  0  0
  177.3820   22.5650   52.3370 O   0  0  0  0  0  0  0  0  0  0  0  0
  179.1086   23.6223   51.3682 H   0  0  0  0  0  0  0  0  0  0  0  0
  179.9889   23.3174   49.8324 H   0  0  0  0  0  0  0  0  0  0  0  0
  178.5088   24.3352   49.8324 H   0  0  0  0  0  0  0  0  0  0  0  0
  178.7880   21.3430   49.8746 H   0  0  0  0  0  0  0  0  0  0  0  0
  176.6490   23.2050   49.0290 H   0  0  0  0  0  0  0  0  0  0  0  0
  176.7820   21.5790   48.6460 H   0  0  0  0  0  0  0  0  0  0  0  0
  177.4702   23.2039   46.8913 H   0  0  0  0  0  0  0  0  0  0  0  0
  178.8831   23.5001   47.9699 H   0  0  0  0  0  0  0  0  0  0  0  0
  176.9289   20.4810   46.7729 H   0  0  0  0  0  0  0  0  0  0  0  0
  178.0307   18.4412   45.8581 H   0  0  0  0  0  0  0  0  0  0  0  0
  180.4012   18.8689   43.6893 H   0  0  0  0  0  0  0  0  0  0  0  0
  182.1155   18.5567   44.0764 H   0  0  0  0  0  0  0  0  0  0  0  0
  181.5551   17.3073   41.6789 H   0  0  0  0  0  0  0  0  0  0  0  0
  181.3423   14.9813   40.8099 H   0  0  0  0  0  0  0  0  0  0  0  0
  180.6177   13.1406   42.3346 H   0  0  0  0  0  0  0  0  0  0  0  0
  180.3364   15.9479   45.6052 H   0  0  0  0  0  0  0  0  0  0  0  0
  181.8927   20.2801   46.4392 H   0  0  0  0  0  0  0  0  0  0  0  0
  180.7970   22.3206   47.3493 H   0  0  0  0  0  0  0  0  0  0  0  0
  176.2020   20.5540   50.2330 H   0  0  0  0  0  0  0  0  0  0  0  0
  175.6540   20.8170   51.8270 H   0  0  0  0  0  0  0  0  0  0  0  0
  1  2  1  0
  2  3  1  0
  3  4  1  0
  4  5  1  0
  5  6  2  0
  6  7  1  0
  7  8  2  0
  8  9  1  0
  9 10  1  0
 10 11  1  0
 11 12  2  0
 12 13  1  0
 13 14  2  0
 14 15  1  0
 15 16  1  0
 15 17  2  0
  8 18  1  0
 18 19  2  0
  2 20  1  0
 20 21  1  0
 20 22  2  0
 19  5  1  0
 17 11  1  0
  1 23  1  0
  1 24  1  0
  1 25  1  0
  2 26  1  6
  3 27  1  0
  3 28  1  0
  4 29  1  0
  4 30  1  0
  6 31  1  0
  7 32  1  0
 10 33  1  0
 10 34  1  0
 12 35  1  0
 13 36  1  0
 14 37  1  0
 17 38  1  0
 18 39  1  0
 19 40  1  0
 21 41  1  0
 21 42  1  0
M  CHG  1   3   1
M  END
>  <meeko>  (6) 
{"is_sidechain": [false], "free_energy": -7.393, "intermolecular_energy": -10.336, "internal_energy": -0.735}

$$$$
safinamide_out
     RDKit          3D

 42 43  0  0  0  0  0  0  0  0999 V2000
  180.9170   14.4710   44.2800 C   0  0  0  0  0  0  0  0  0  0  0  0
  181.4230   15.7160   43.5540 C   0  0  2  0  0  0  0  0  0  0  0  0
  180.7030   16.9070   44.0720 N   0  0  0  0  0  0  0  0  0  0  0  0
  181.6120   18.0490   44.2210 C   0  0  0  0  0  0  0  0  0  0  0  0
  181.0370   19.0520   45.1930 C   0  0  0  0  0  0  0  0  0  0  0  0
  181.7790   20.1740   45.5790 C   0  0  0  0  0  0  0  0  0  0  0  0
  181.2460   21.1180   46.4660 C   0  0  0  0  0  0  0  0  0  0  0  0
  179.9580   20.9500   46.9740 C   0  0  0  0  0  0  0  0  0  0  0  0
  179.3170   21.7900   47.8420 O   0  0  0  0  0  0  0  0  0  0  0  0
  178.4710   22.7860   47.2760 C   0  0  0  0  0  0  0  0  0  0  0  0
  177.1280   22.6960   47.9570 C   0  0  0  0  0  0  0  0  0  0  0  0
  176.6780   23.7380   48.7850 C   0  0  0  0  0  0  0  0  0  0  0  0
  175.4270   23.6670   49.4040 C   0  0  0  0  0  0  0  0  0  0  0  0
  174.6110   22.5570   49.1960 C   0  0  0  0  0  0  0  0  0  0  0  0
  175.0490   21.5320   48.3660 C   0  0  0  0  0  0  0  0  0  0  0  0
  174.2610   20.4680   48.1610 F   0  0  0  0  0  0  0  0  0  0  0  0
  176.2920   21.5920   47.7440 C   0  0  0  0  0  0  0  0  0  0  0  0
  179.2110   19.8370   46.5840 C   0  0  0  0  0  0  0  0  0  0  0  0
  179.7410   18.8950   45.6980 C   0  0  0  0  0  0  0  0  0  0  0  0
  181.1680   15.5600   42.0440 C   0  0  0  0  0  0  0  0  0  0  0  0
  181.5450   14.3520   41.5220 N   0  0  0  0  0  0  0  0  0  0  0  0
  180.6950   16.4440   41.3400 O   0  0  0  0  0  0  0  0  0  0  0  0
  180.9811   14.6288   45.3667 H   0  0  0  0  0  0  0  0  0  0  0  0
  179.8707   14.2820   43.9980 H   0  0  0  0  0  0  0  0  0  0  0  0
  181.5348   13.6056   43.9980 H   0  0  0  0  0  0  0  0  0  0  0  0
  182.5021   15.8417   43.7264 H   0  0  0  0  0  0  0  0  0  0  0  0
  180.2980   16.6830   44.9800 H   0  0  0  0  0  0  0  0  0  0  0  0
  179.9730   17.1590   43.4050 H   0  0  0  0  0  0  0  0  0  0  0  0
  182.5826   17.6938   44.5975 H   0  0  0  0  0  0  0  0  0  0  0  0
  181.7425   18.5331   43.2419 H   0  0  0  0  0  0  0  0  0  0  0  0
  182.7943   20.3165   45.1805 H   0  0  0  0  0  0  0  0  0  0  0  0
  181.8438   21.9926   46.7622 H   0  0  0  0  0  0  0  0  0  0  0  0
  178.9065   23.7829   47.4390 H   0  0  0  0  0  0  0  0  0  0  0  0
  178.3627   22.6261   46.1931 H   0  0  0  0  0  0  0  0  0  0  0  0
  177.3168   24.6186   48.9477 H   0  0  0  0  0  0  0  0  0  0  0  0
  175.0871   24.4863   50.0545 H   0  0  0  0  0  0  0  0  0  0  0  0
  173.6277   22.4925   49.6849 H   0  0  0  0  0  0  0  0  0  0  0  0
  176.6182   20.7734   47.0856 H   0  0  0  0  0  0  0  0  0  0  0  0
  178.1934   19.6998   46.9786 H   0  0  0  0  0  0  0  0  0  0  0  0
  179.1371   18.0265   45.3962 H   0  0  0  0  0  0  0  0  0  0  0  0
  181.9230   13.6580   42.1090 H   0  0  0  0  0  0  0  0  0  0  0  0
  181.4400   14.1790   40.5580 H   0  0  0  0  0  0  0  0  0  0  0  0
  1  2  1  0
  2  3  1  0
  3  4  1  0
  4  5  1  0
  5  6  2  0
  6  7  1  0
  7  8  2  0
  8  9  1  0
  9 10  1  0
 10 11  1  0
 11 12  2  0
 12 13  1  0
 13 14  2  0
 14 15  1  0
 15 16  1  0
 15 17  2  0
  8 18  1  0
 18 19  2  0
  2 20  1  0
 20 21  1  0
 20 22  2  0
 19  5  1  0
 17 11  1  0
  1 23  1  0
  1 24  1  0
  1 25  1  0
  2 26  1  6
  3 27  1  0
  3 28  1  0
  4 29  1  0
  4 30  1  0
  6 31  1  0
  7 32  1  0
 10 33  1  0
 10 34  1  0
 12 35  1  0
 13 36  1  0
 14 37  1  0
 17 38  1  0
 18 39  1  0
 19 40  1  0
 21 41  1  0
 21 42  1  0
M  CHG  1   3   1
M  END
>  <meeko>  (7) 
{"is_sidechain": [false], "free_energy": -7.156, "intermolecular_energy": -10.134, "internal_energy": -0.602}

$$$$
safinamide_out
     RDKit          3D

 42 43  0  0  0  0  0  0  0  0999 V2000
  180.8450   23.8600   50.6730 C   0  0  0  0  0  0  0  0  0  0  0  0
  182.2050   23.7640   49.9860 C   0  0  2  0  0  0  0  0  0  0  0  0
  182.0080   23.3490   48.5740 N   0  0  0  0  0  0  0  0  0  0  0  0
  180.5940   23.0680   48.2990 C   0  0  0  0  0  0  0  0  0  0  0  0
  180.4570   21.7690   47.5400 C   0  0  0  0  0  0  0  0  0  0  0  0
  179.2200   21.3830   47.0090 C   0  0  0  0  0  0  0  0  0  0  0  0
  179.0890   20.1890   46.2890 C   0  0  0  0  0  0  0  0  0  0  0  0
  180.1980   19.3700   46.0860 C   0  0  0  0  0  0  0  0  0  0  0  0
  180.2130   18.1840   45.4050 O   0  0  0  0  0  0  0  0  0  0  0  0
  181.0580   18.1030   44.2620 C   0  0  0  0  0  0  0  0  0  0  0  0
  180.9270   16.7150   43.6850 C   0  0  0  0  0  0  0  0  0  0  0  0
  181.2470   16.4700   42.3390 C   0  0  0  0  0  0  0  0  0  0  0  0
  181.1430   15.1830   41.8050 C   0  0  0  0  0  0  0  0  0  0  0  0
  180.7260   14.1270   42.6130 C   0  0  0  0  0  0  0  0  0  0  0  0
  180.4230   14.3650   43.9480 C   0  0  0  0  0  0  0  0  0  0  0  0
  180.0280   13.3480   44.7250 F   0  0  0  0  0  0  0  0  0  0  0  0
  180.5220   15.6420   44.4910 C   0  0  0  0  0  0  0  0  0  0  0  0
  181.4360   19.7560   46.6060 C   0  0  0  0  0  0  0  0  0  0  0  0
  181.5680   20.9470   47.3240 C   0  0  0  0  0  0  0  0  0  0  0  0
  183.0720   22.7300   50.7240 C   0  0  0  0  0  0  0  0  0  0  0  0
  182.5800   21.4530   50.7070 N   0  0  0  0  0  0  0  0  0  0  0  0
  184.1100   23.0100   51.3130 O   0  0  0  0  0  0  0  0  0  0  0  0
  180.9839   23.8502   51.7642 H   0  0  0  0  0  0  0  0  0  0  0  0
  180.3488   24.7954   50.3749 H   0  0  0  0  0  0  0  0  0  0  0  0
  180.2224   23.0036   50.3749 H   0  0  0  0  0  0  0  0  0  0  0  0
  182.7103   24.7408   50.0092 H   0  0  0  0  0  0  0  0  0  0  0  0
  182.5550   22.5090   48.3930 H   0  0  0  0  0  0  0  0  0  0  0  0
  182.3100   24.1110   47.9670 H   0  0  0  0  0  0  0  0  0  0  0  0
  180.0471   22.9921   49.2504 H   0  0  0  0  0  0  0  0  0  0  0  0
  180.1781   23.8844   47.6902 H   0  0  0  0  0  0  0  0  0  0  0  0
  178.3401   22.0258   47.1593 H   0  0  0  0  0  0  0  0  0  0  0  0
  178.1092   19.8972   45.8831 H   0  0  0  0  0  0  0  0  0  0  0  0
  180.7486   18.8489   43.5150 H   0  0  0  0  0  0  0  0  0  0  0  0
  182.1024   18.3039   44.5429 H   0  0  0  0  0  0  0  0  0  0  0  0
  181.5827   17.2995   41.6993 H   0  0  0  0  0  0  0  0  0  0  0  0
  181.3900   15.0036   40.7482 H   0  0  0  0  0  0  0  0  0  0  0  0
  180.6374   13.1125   42.1970 H   0  0  0  0  0  0  0  0  0  0  0  0
  180.2828   15.8095   45.5515 H   0  0  0  0  0  0  0  0  0  0  0  0
  182.3161   19.1153   46.4483 H   0  0  0  0  0  0  0  0  0  0  0  0
  182.5509   21.2400   47.7217 H   0  0  0  0  0  0  0  0  0  0  0  0
  181.7440   21.2540   50.2270 H   0  0  0  0  0  0  0  0  0  0  0  0
  183.0620   20.7340   51.1770 H   0  0  0  0  0  0  0  0  0  0  0  0
  1  2  1  0
  2  3  1  0
  3  4  1  0
  4  5  1  0
  5  6  2  0
  6  7  1  0
  7  8  2  0
  8  9  1  0
  9 10  1  0
 10 11  1  0
 11 12  2  0
 12 13  1  0
 13 14  2  0
 14 15  1  0
 15 16  1  0
 15 17  2  0
  8 18  1  0
 18 19  2  0
  2 20  1  0
 20 21  1  0
 20 22  2  0
 19  5  1  0
 17 11  1  0
  1 23  1  0
  1 24  1  0
  1 25  1  0
  2 26  1  6
  3 27  1  0
  3 28  1  0
  4 29  1  0
  4 30  1  0
  6 31  1  0
  7 32  1  0
 10 33  1  0
 10 34  1  0
 12 35  1  0
 13 36  1  0
 14 37  1  0
 17 38  1  0
 18 39  1  0
 19 40  1  0
 21 41  1  0
 21 42  1  0
M  CHG  1   3   1
M  END
>  <meeko>  (8) 
{"is_sidechain": [false], "free_energy": -7.051, "intermolecular_energy": -9.873, "internal_energy": -0.716}

$$$$
safinamide_out
     RDKit          3D

 42 43  0  0  0  0  0  0  0  0999 V2000
  183.0580   23.2000   47.9110 C   0  0  0  0  0  0  0  0  0  0  0  0
  183.2350   21.9150   48.7160 C   0  0  2  0  0  0  0  0  0  0  0  0
  182.6780   20.7760   47.9420 N   0  0  0  0  0  0  0  0  0  0  0  0
  182.0560   21.2390   46.6960 C   0  0  0  0  0  0  0  0  0  0  0  0
  180.5880   20.8860   46.6820 C   0  0  0  0  0  0  0  0  0  0  0  0
  179.6180   21.8630   46.9410 C   0  0  0  0  0  0  0  0  0  0  0  0
  178.2550   21.5470   46.9120 C   0  0  0  0  0  0  0  0  0  0  0  0
  177.8440   20.2470   46.6190 C   0  0  0  0  0  0  0  0  0  0  0  0
  176.5520   19.8030   46.5560 O   0  0  0  0  0  0  0  0  0  0  0  0
  175.9930   19.2660   47.7510 C   0  0  0  0  0  0  0  0  0  0  0  0
  175.7120   20.4140   48.6890 C   0  0  0  0  0  0  0  0  0  0  0  0
  174.7370   21.3740   48.3670 C   0  0  0  0  0  0  0  0  0  0  0  0
  174.4620   22.4300   49.2410 C   0  0  0  0  0  0  0  0  0  0  0  0
  175.1510   22.5310   50.4470 C   0  0  0  0  0  0  0  0  0  0  0  0
  176.1050   21.5740   50.7730 C   0  0  0  0  0  0  0  0  0  0  0  0
  176.7630   21.6690   51.9360 F   0  0  0  0  0  0  0  0  0  0  0  0
  176.3880   20.5190   49.9110 C   0  0  0  0  0  0  0  0  0  0  0  0
  178.8070   19.2720   46.3510 C   0  0  0  0  0  0  0  0  0  0  0  0
  180.1680   19.5850   46.3780 C   0  0  0  0  0  0  0  0  0  0  0  0
  182.4960   22.0530   50.0580 C   0  0  0  0  0  0  0  0  0  0  0  0
  183.2900   21.9260   51.1650 N   0  0  0  0  0  0  0  0  0  0  0  0
  181.2870   22.2320   50.1530 O   0  0  0  0  0  0  0  0  0  0  0  0
  182.9409   24.0504   48.5988 H   0  0  0  0  0  0  0  0  0  0  0  0
  183.9425   23.3603   47.2771 H   0  0  0  0  0  0  0  0  0  0  0  0
  182.1631   23.1152   47.2771 H   0  0  0  0  0  0  0  0  0  0  0  0
  184.3026   21.7340   48.9094 H   0  0  0  0  0  0  0  0  0  0  0  0
  181.9760   20.3000   48.5070 H   0  0  0  0  0  0  0  0  0  0  0  0
  183.4400   20.1410   47.7060 H   0  0  0  0  0  0  0  0  0  0  0  0
  182.1678   22.3305   46.6181 H   0  0  0  0  0  0  0  0  0  0  0  0
  182.5507   20.7485   45.8447 H   0  0  0  0  0  0  0  0  0  0  0  0
  179.9318   22.8921   47.1702 H   0  0  0  0  0  0  0  0  0  0  0  0
  177.5064   22.3255   47.1207 H   0  0  0  0  0  0  0  0  0  0  0  0
  175.0579   18.7347   47.5202 H   0  0  0  0  0  0  0  0  0  0  0  0
  176.6923   18.5548   48.2149 H   0  0  0  0  0  0  0  0  0  0  0  0
  174.1854   21.2937   47.4187 H   0  0  0  0  0  0  0  0  0  0  0  0
  173.7023   23.1802   48.9764 H   0  0  0  0  0  0  0  0  0  0  0  0
  174.9418   23.3621   51.1366 H   0  0  0  0  0  0  0  0  0  0  0  0
  177.1421   19.7680   50.1892 H   0  0  0  0  0  0  0  0  0  0  0  0
  178.4900   18.2452   46.1158 H   0  0  0  0  0  0  0  0  0  0  0  0
  180.9133   18.8061   46.1595 H   0  0  0  0  0  0  0  0  0  0  0  0
  184.2590   21.7820   51.0620 H   0  0  0  0  0  0  0  0  0  0  0  0
  182.8930   21.9760   52.0650 H   0  0  0  0  0  0  0  0  0  0  0  0
  1  2  1  0
  2  3  1  0
  3  4  1  0
  4  5  1  0
  5  6  2  0
  6  7  1  0
  7  8  2  0
  8  9  1  0
  9 10  1  0
 10 11  1  0
 11 12  2  0
 12 13  1  0
 13 14  2  0
 14 15  1  0
 15 16  1  0
 15 17  2  0
  8 18  1  0
 18 19  2  0
  2 20  1  0
 20 21  1  0
 20 22  2  0
 19  5  1  0
 17 11  1  0
  1 23  1  0
  1 24  1  0
  1 25  1  0
  2 26  1  1
  3 27  1  0
  3 28  1  0
  4 29  1  0
  4 30  1  0
  6 31  1  0
  7 32  1  0
 10 33  1  0
 10 34  1  0
 12 35  1  0
 13 36  1  0
 14 37  1  0
 17 38  1  0
 18 39  1  0
 19 40  1  0
 21 41  1  0
 21 42  1  0
M  CHG  1   3   1
M  END
>  <meeko>  (9) 
{"is_sidechain": [false], "free_energy": -6.944, "intermolecular_energy": -9.433, "internal_energy": -1.004}

$$$$
