SAG_pdb_out
     RDKit          3D

 39 40  0  0  0  0  0  0  0  0999 V2000
  176.6630   23.8440   48.7720 C   0  0  0  0  0  0  0  0  0  0  0  0
  176.5120   22.6820   49.7440 C   0  0  2  0  0  0  0  0  0  0  0  0
  177.2820   21.5310   49.2070 N   0  0  0  0  0  0  0  0  0  0  0  0
  177.8750   21.7880   48.0880 C   0  0  0  0  0  0  0  0  0  0  0  0
  178.6860   20.7740   47.3880 C   0  0  0  0  0  0  0  0  0  0  0  0
  180.0820   20.8090   47.4410 C   0  0  0  0  0  0  0  0  0  0  0  0
  180.8350   19.8370   46.7690 C   0  0  0  0  0  0  0  0  0  0  0  0
  180.1920   18.8310   46.0460 C   0  0  0  0  0  0  0  0  0  0  0  0
  180.8010   17.8270   45.3480 O   0  0  0  0  0  0  0  0  0  0  0  0
  181.1540   18.0940   43.9930 C   0  0  0  0  0  0  0  0  0  0  0  0
  181.1190   16.7890   43.2390 C   0  0  0  0  0  0  0  0  0  0  0  0
  180.9400   15.5750   43.9220 C   0  0  0  0  0  0  0  0  0  0  0  0
  180.8880   14.3650   43.2240 C   0  0  0  0  0  0  0  0  0  0  0  0
  181.0090   14.3590   41.8350 C   0  0  0  0  0  0  0  0  0  0  0  0
  181.1720   15.5600   41.1570 C   0  0  0  0  0  0  0  0  0  0  0  0
  181.2780   15.5540   39.8210 F   0  0  0  0  0  0  0  0  0  0  0  0
  181.2240   16.7710   41.8410 C   0  0  0  0  0  0  0  0  0  0  0  0
  178.7950   18.8050   45.9980 C   0  0  0  0  0  0  0  0  0  0  0  0
  178.0380   19.7710   46.6670 C   0  0  0  0  0  0  0  0  0  0  0  0
  175.0370   22.2790   49.8600 C   0  0  0  0  0  0  0  0  0  0  0  0
  174.8220   21.0120   50.3270 N   0  0  0  0  0  0  0  0  0  0  0  0
  174.1050   23.0100   49.5400 O   0  0  0  0  0  0  0  0  0  0  0  0
  176.7847   24.7805   49.3361 H   0  0  0  0  0  0  0  0  0  0  0  0
  177.5474   23.6798   48.1388 H   0  0  0  0  0  0  0  0  0  0  0  0
  175.7660   23.9113   48.1388 H   0  0  0  0  0  0  0  0  0  0  0  0
  176.8819   22.9769   50.7371 H   0  0  0  0  0  0  0  0  0  0  0  0
  177.7723   22.7898   47.6456 H   0  0  0  0  0  0  0  0  0  0  0  0
  180.5904   21.6006   48.0110 H   0  0  0  0  0  0  0  0  0  0  0  0
  181.9338   19.8668   46.8113 H   0  0  0  0  0  0  0  0  0  0  0  0
  180.4351   18.8000   43.5517 H   0  0  0  0  0  0  0  0  0  0  0  0
  182.1579   18.5405   43.9395 H   0  0  0  0  0  0  0  0  0  0  0  0
  180.8397   15.5763   45.0174 H   0  0  0  0  0  0  0  0  0  0  0  0
  180.7519   13.4195   43.7694 H   0  0  0  0  0  0  0  0  0  0  0  0
  180.9756   13.4098   41.2802 H   0  0  0  0  0  0  0  0  0  0  0  0
  181.3473   17.7125   41.2857 H   0  0  0  0  0  0  0  0  0  0  0  0
  178.2855   18.0149   45.4269 H   0  0  0  0  0  0  0  0  0  0  0  0
  176.9392   19.7405   46.6252 H   0  0  0  0  0  0  0  0  0  0  0  0
  175.5860   20.4440   50.5790 H   0  0  0  0  0  0  0  0  0  0  0  0
  173.9030   20.6690   50.4140 H   0  0  0  0  0  0  0  0  0  0  0  0
  1  2  1  0
  2  3  1  0
  3  4  2  0
  4  5  1  0
  5  6  2  0
  6  7  1  0
  7  8  2  0
  8  9  1  0
  9 10  1  0
 10 11  1  0
 11 12  2  0
 12 13  1  0
 13 14  2  0
 14 15  1  0
 15 16  1  0
 15 17  2  0
  8 18  1  0
 18 19  2  0
  2 20  1  0
 20 21  1  0
 20 22  2  0
 19  5  1  0
 17 11  1  0
  1 23  1  0
  1 24  1  0
  1 25  1  0
  2 26  1  1
  4 27  1  0
  6 28  1  0
  7 29  1  0
 10 30  1  0
 10 31  1  0
 12 32  1  0
 13 33  1  0
 14 34  1  0
 17 35  1  0
 18 36  1  0
 19 37  1  0
 21 38  1  0
 21 39  1  0
M  END
>  <meeko>  (1) 
{"is_sidechain": [false], "free_energy": -7.853, "intermolecular_energy": -10.607, "internal_energy": -0.628}

$$$$
SAG_pdb_out
     RDKit          3D

 39 40  0  0  0  0  0  0  0  0999 V2000
  176.6620   23.8550   49.0510 C   0  0  0  0  0  0  0  0  0  0  0  0
  177.6140   23.1850   50.0320 C   0  0  2  0  0  0  0  0  0  0  0  0
  178.1070   21.9300   49.4090 N   0  0  0  0  0  0  0  0  0  0  0  0
  178.5590   22.0960   48.2110 C   0  0  0  0  0  0  0  0  0  0  0  0
  179.0890   20.9700   47.4180 C   0  0  0  0  0  0  0  0  0  0  0  0
  180.4490   20.8880   47.1060 C   0  0  0  0  0  0  0  0  0  0  0  0
  180.9330   19.8110   46.3520 C   0  0  0  0  0  0  0  0  0  0  0  0
  180.0580   18.8180   45.9100 C   0  0  0  0  0  0  0  0  0  0  0  0
  180.3950   17.7190   45.1710 O   0  0  0  0  0  0  0  0  0  0  0  0
  181.1680   17.9360   43.9930 C   0  0  0  0  0  0  0  0  0  0  0  0
  181.1350   16.6690   43.1770 C   0  0  0  0  0  0  0  0  0  0  0  0
  181.0300   15.4180   43.8050 C   0  0  0  0  0  0  0  0  0  0  0  0
  180.9810   14.2430   43.0500 C   0  0  0  0  0  0  0  0  0  0  0  0
  181.0300   14.3090   41.6590 C   0  0  0  0  0  0  0  0  0  0  0  0
  181.1190   15.5470   41.0350 C   0  0  0  0  0  0  0  0  0  0  0  0
  181.1560   15.6100   39.6970 F   0  0  0  0  0  0  0  0  0  0  0  0
  181.1690   16.7240   41.7760 C   0  0  0  0  0  0  0  0  0  0  0  0
  178.6990   18.9080   46.2270 C   0  0  0  0  0  0  0  0  0  0  0  0
  178.2090   19.9790   46.9790 C   0  0  0  0  0  0  0  0  0  0  0  0
  176.8760   22.8360   51.3300 C   0  0  0  0  0  0  0  0  0  0  0  0
  175.6820   22.1900   51.1580 N   0  0  0  0  0  0  0  0  0  0  0  0
  177.2900   23.1270   52.4470 O   0  0  0  0  0  0  0  0  0  0  0  0
  175.8862   24.4010   49.6078 H   0  0  0  0  0  0  0  0  0  0  0  0
  177.2229   24.5585   48.4182 H   0  0  0  0  0  0  0  0  0  0  0  0
  176.1891   23.0896   48.4182 H   0  0  0  0  0  0  0  0  0  0  0  0
  178.4467   23.8647   50.2656 H   0  0  0  0  0  0  0  0  0  0  0  0
  178.5488   23.1036   47.7697 H   0  0  0  0  0  0  0  0  0  0  0  0
  181.1402   21.6702   47.4530 H   0  0  0  0  0  0  0  0  0  0  0  0
  182.0038   19.7481   46.1082 H   0  0  0  0  0  0  0  0  0  0  0  0
  180.7391   18.7659   43.4122 H   0  0  0  0  0  0  0  0  0  0  0  0
  182.2040   18.1948   44.2569 H   0  0  0  0  0  0  0  0  0  0  0  0
  180.9858   15.3620   44.9027 H   0  0  0  0  0  0  0  0  0  0  0  0
  180.9039   13.2678   43.5529 H   0  0  0  0  0  0  0  0  0  0  0  0
  180.9984   13.3874   41.0593 H   0  0  0  0  0  0  0  0  0  0  0  0
  181.2351   17.6953   41.2640 H   0  0  0  0  0  0  0  0  0  0  0  0
  178.0073   18.1262   45.8802 H   0  0  0  0  0  0  0  0  0  0  0  0
  177.1382   20.0408   47.2232 H   0  0  0  0  0  0  0  0  0  0  0  0
  175.3710   21.9670   50.2520 H   0  0  0  0  0  0  0  0  0  0  0  0
  175.1370   21.9480   51.9410 H   0  0  0  0  0  0  0  0  0  0  0  0
  1  2  1  0
  2  3  1  0
  3  4  2  0
  4  5  1  0
  5  6  2  0
  6  7  1  0
  7  8  2  0
  8  9  1  0
  9 10  1  0
 10 11  1  0
 11 12  2  0
 12 13  1  0
 13 14  2  0
 14 15  1  0
 15 16  1  0
 15 17  2  0
  8 18  1  0
 18 19  2  0
  2 20  1  0
 20 21  1  0
 20 22  2  0
 19  5  1  0
 17 11  1  0
  1 23  1  0
  1 24  1  0
  1 25  1  0
  2 26  1  1
  4 27  1  0
  6 28  1  0
  7 29  1  0
 10 30  1  0
 10 31  1  0
 12 32  1  0
 13 33  1  0
 14 34  1  0
 17 35  1  0
 18 36  1  0
 19 37  1  0
 21 38  1  0
 21 39  1  0
M  END
>  <meeko>  (2) 
{"is_sidechain": [false], "free_energy": -7.703, "intermolecular_energy": -10.491, "internal_energy": -0.541}

$$$$
SAG_pdb_out
     RDKit          3D

 39 40  0  0  0  0  0  0  0  0999 V2000
  176.4380   23.7920   48.8640 C   0  0  0  0  0  0  0  0  0  0  0  0
  176.4430   22.6330   49.8520 C   0  0  2  0  0  0  0  0  0  0  0  0
  177.4260   21.6270   49.3730 N   0  0  0  0  0  0  0  0  0  0  0  0
  177.6910   21.7290   48.1130 C   0  0  0  0  0  0  0  0  0  0  0  0
  178.6390   20.8180   47.4430 C   0  0  0  0  0  0  0  0  0  0  0  0
  180.0180   21.0160   47.5420 C   0  0  0  0  0  0  0  0  0  0  0  0
  180.9020   20.1410   46.8980 C   0  0  0  0  0  0  0  0  0  0  0  0
  180.4060   19.0680   46.1560 C   0  0  0  0  0  0  0  0  0  0  0  0
  181.1520   18.1430   45.4810 O   0  0  0  0  0  0  0  0  0  0  0  0
  181.1060   18.1800   44.0570 C   0  0  0  0  0  0  0  0  0  0  0  0
  180.9620   16.7640   43.5610 C   0  0  0  0  0  0  0  0  0  0  0  0
  181.2810   16.4360   42.2340 C   0  0  0  0  0  0  0  0  0  0  0  0
  181.1650   15.1200   41.7770 C   0  0  0  0  0  0  0  0  0  0  0  0
  180.7360   14.1180   42.6460 C   0  0  0  0  0  0  0  0  0  0  0  0
  180.4330   14.4380   43.9630 C   0  0  0  0  0  0  0  0  0  0  0  0
  180.0290   13.4730   44.8000 F   0  0  0  0  0  0  0  0  0  0  0  0
  180.5450   15.7450   44.4300 C   0  0  0  0  0  0  0  0  0  0  0  0
  179.0240   18.8770   46.0620 C   0  0  0  0  0  0  0  0  0  0  0  0
  178.1370   19.7470   46.7020 C   0  0  0  0  0  0  0  0  0  0  0  0
  175.0560   21.9810   49.9090 C   0  0  0  0  0  0  0  0  0  0  0  0
  175.0580   20.6520   50.2290 N   0  0  0  0  0  0  0  0  0  0  0  0
  174.0130   22.5790   49.6650 O   0  0  0  0  0  0  0  0  0  0  0  0
  176.4339   24.7438   49.4154 H   0  0  0  0  0  0  0  0  0  0  0  0
  177.3364   23.7385   48.2315 H   0  0  0  0  0  0  0  0  0  0  0  0
  175.5401   23.7308   48.2315 H   0  0  0  0  0  0  0  0  0  0  0  0
  176.7073   22.9994   50.8550 H   0  0  0  0  0  0  0  0  0  0  0  0
  177.1970   22.5157   47.5238 H   0  0  0  0  0  0  0  0  0  0  0  0
  180.4106   21.8608   48.1269 H   0  0  0  0  0  0  0  0  0  0  0  0
  181.9876   20.2996   46.9771 H   0  0  0  0  0  0  0  0  0  0  0  0
  180.2461   18.7811   43.7264 H   0  0  0  0  0  0  0  0  0  0  0  0
  182.0236   18.6350   43.6558 H   0  0  0  0  0  0  0  0  0  0  0  0
  181.6258   17.2226   41.5467 H   0  0  0  0  0  0  0  0  0  0  0  0
  181.4118   14.8755   40.7333 H   0  0  0  0  0  0  0  0  0  0  0  0
  180.6382   13.0814   42.2912 H   0  0  0  0  0  0  0  0  0  0  0  0
  180.3069   15.9779   45.4784 H   0  0  0  0  0  0  0  0  0  0  0  0
  178.6304   18.0323   45.4776 H   0  0  0  0  0  0  0  0  0  0  0  0
  177.0513   19.5889   46.6223 H   0  0  0  0  0  0  0  0  0  0  0  0
  175.9080   20.1940   50.4220 H   0  0  0  0  0  0  0  0  0  0  0  0
  174.2090   20.1540   50.2680 H   0  0  0  0  0  0  0  0  0  0  0  0
  1  2  1  0
  2  3  1  0
  3  4  2  0
  4  5  1  0
  5  6  2  0
  6  7  1  0
  7  8  2  0
  8  9  1  0
  9 10  1  0
 10 11  1  0
 11 12  2  0
 12 13  1  0
 13 14  2  0
 14 15  1  0
 15 16  1  0
 15 17  2  0
  8 18  1  0
 18 19  2  0
  2 20  1  0
 20 21  1  0
 20 22  2  0
 19  5  1  0
 17 11  1  0
  1 23  1  0
  1 24  1  0
  1 25  1  0
  2 26  1  1
  4 27  1  0
  6 28  1  0
  7 29  1  0
 10 30  1  0
 10 31  1  0
 12 32  1  0
 13 33  1  0
 14 34  1  0
 17 35  1  0
 18 36  1  0
 19 37  1  0
 21 38  1  0
 21 39  1  0
M  END
>  <meeko>  (3) 
{"is_sidechain": [false], "free_energy": -7.632, "intermolecular_energy": -10.251, "internal_energy": -0.686}

$$$$
SAG_pdb_out
     RDKit          3D

 39 40  0  0  0  0  0  0  0  0999 V2000
  180.4980   14.7470   44.3600 C   0  0  0  0  0  0  0  0  0  0  0  0
  181.5320   15.5870   43.6220 C   0  0  2  0  0  0  0  0  0  0  0  0
  181.3140   17.0100   43.9910 N   0  0  0  0  0  0  0  0  0  0  0  0
  180.5080   17.1640   44.9880 C   0  0  0  0  0  0  0  0  0  0  0  0
  180.1570   18.5010   45.5040 C   0  0  0  0  0  0  0  0  0  0  0  0
  181.1240   19.5030   45.6190 C   0  0  0  0  0  0  0  0  0  0  0  0
  180.7710   20.7660   46.1110 C   0  0  0  0  0  0  0  0  0  0  0  0
  179.4520   21.0270   46.4870 C   0  0  0  0  0  0  0  0  0  0  0  0
  178.9740   22.2080   46.9800 O   0  0  0  0  0  0  0  0  0  0  0  0
  178.9910   22.3800   48.3950 C   0  0  0  0  0  0  0  0  0  0  0  0
  177.5670   22.3180   48.8860 C   0  0  0  0  0  0  0  0  0  0  0  0
  176.7300   23.4420   48.7910 C   0  0  0  0  0  0  0  0  0  0  0  0
  175.4040   23.3820   49.2290 C   0  0  0  0  0  0  0  0  0  0  0  0
  174.9000   22.1950   49.7590 C   0  0  0  0  0  0  0  0  0  0  0  0
  175.7230   21.0780   49.8400 C   0  0  0  0  0  0  0  0  0  0  0  0
  175.2350   19.9350   50.3410 F   0  0  0  0  0  0  0  0  0  0  0  0
  177.0450   21.1260   49.4070 C   0  0  0  0  0  0  0  0  0  0  0  0
  178.4920   20.0180   46.3680 C   0  0  0  0  0  0  0  0  0  0  0  0
  178.8360   18.7560   45.8770 C   0  0  0  0  0  0  0  0  0  0  0  0
  181.3510   15.4360   42.1070 C   0  0  0  0  0  0  0  0  0  0  0  0
  181.2460   16.6130   41.4190 N   0  0  0  0  0  0  0  0  0  0  0  0
  181.2770   14.3530   41.5360 O   0  0  0  0  0  0  0  0  0  0  0  0
  180.6391   14.8616   45.4449 H   0  0  0  0  0  0  0  0  0  0  0  0
  179.4877   15.0834   44.0841 H   0  0  0  0  0  0  0  0  0  0  0  0
  180.6203   13.6892   44.0841 H   0  0  0  0  0  0  0  0  0  0  0  0
  182.5449   15.2570   43.8960 H   0  0  0  0  0  0  0  0  0  0  0  0
  180.0713   16.2745   45.4655 H   0  0  0  0  0  0  0  0  0  0  0  0
  182.1637   19.2997   45.3228 H   0  0  0  0  0  0  0  0  0  0  0  0
  181.5339   21.5533   46.2013 H   0  0  0  0  0  0  0  0  0  0  0  0
  179.5826   21.5788   48.8619 H   0  0  0  0  0  0  0  0  0  0  0  0
  179.4455   23.3465   48.6583 H   0  0  0  0  0  0  0  0  0  0  0  0
  177.1219   24.3786   48.3678 H   0  0  0  0  0  0  0  0  0  0  0  0
  174.7590   24.2700   49.1557 H   0  0  0  0  0  0  0  0  0  0  0  0
  173.8589   22.1430   50.1104 H   0  0  0  0  0  0  0  0  0  0  0  0
  177.6792   20.2297   49.4736 H   0  0  0  0  0  0  0  0  0  0  0  0
  177.4523   20.2202   46.6648 H   0  0  0  0  0  0  0  0  0  0  0  0
  178.0722   17.9697   45.7851 H   0  0  0  0  0  0  0  0  0  0  0  0
  181.3090   17.4700   41.8990 H   0  0  0  0  0  0  0  0  0  0  0  0
  181.1090   16.6030   40.4440 H   0  0  0  0  0  0  0  0  0  0  0  0
  1  2  1  0
  2  3  1  0
  3  4  2  0
  4  5  1  0
  5  6  2  0
  6  7  1  0
  7  8  2  0
  8  9  1  0
  9 10  1  0
 10 11  1  0
 11 12  2  0
 12 13  1  0
 13 14  2  0
 14 15  1  0
 15 16  1  0
 15 17  2  0
  8 18  1  0
 18 19  2  0
  2 20  1  0
 20 21  1  0
 20 22  2  0
 19  5  1  0
 17 11  1  0
  1 23  1  0
  1 24  1  0
  1 25  1  0
  2 26  1  1
  4 27  1  0
  6 28  1  0
  7 29  1  0
 10 30  1  0
 10 31  1  0
 12 32  1  0
 13 33  1  0
 14 34  1  0
 17 35  1  0
 18 36  1  0
 19 37  1  0
 21 38  1  0
 21 39  1  0
M  END
>  <meeko>  (4) 
{"is_sidechain": [false], "free_energy": -7.423, "intermolecular_energy": -9.996, "internal_energy": -0.658}

$$$$
SAG_pdb_out
     RDKit          3D

 39 40  0  0  0  0  0  0  0  0999 V2000
  180.7400   14.7210   44.2730 C   0  0  0  0  0  0  0  0  0  0  0  0
  181.6220   15.6160   43.4140 C   0  0  2  0  0  0  0  0  0  0  0  0
  181.4530   17.0150   43.8840 N   0  0  0  0  0  0  0  0  0  0  0  0
  180.5630   17.1400   44.8110 C   0  0  0  0  0  0  0  0  0  0  0  0
  180.2410   18.4510   45.4070 C   0  0  0  0  0  0  0  0  0  0  0  0
  179.0290   18.6610   46.0700 C   0  0  0  0  0  0  0  0  0  0  0  0
  178.7410   19.9120   46.6290 C   0  0  0  0  0  0  0  0  0  0  0  0
  179.6650   20.9540   46.5250 C   0  0  0  0  0  0  0  0  0  0  0  0
  179.5140   22.2170   47.0220 O   0  0  0  0  0  0  0  0  0  0  0  0
  179.9500   22.4500   48.3590 C   0  0  0  0  0  0  0  0  0  0  0  0
  178.7550   22.3110   49.2680 C   0  0  0  0  0  0  0  0  0  0  0  0
  178.8940   21.7560   50.5500 C   0  0  0  0  0  0  0  0  0  0  0  0
  177.7910   21.6430   51.4010 C   0  0  0  0  0  0  0  0  0  0  0  0
  176.5400   22.0900   50.9800 C   0  0  0  0  0  0  0  0  0  0  0  0
  176.4040   22.6530   49.7170 C   0  0  0  0  0  0  0  0  0  0  0  0
  175.2030   23.0910   49.3160 F   0  0  0  0  0  0  0  0  0  0  0  0
  177.4950   22.7710   48.8610 C   0  0  0  0  0  0  0  0  0  0  0  0
  180.8750   20.7350   45.8600 C   0  0  0  0  0  0  0  0  0  0  0  0
  181.1690   19.4880   45.3000 C   0  0  0  0  0  0  0  0  0  0  0  0
  181.1890   15.5320   41.9450 C   0  0  0  0  0  0  0  0  0  0  0  0
  181.4700   14.3440   41.3290 N   0  0  0  0  0  0  0  0  0  0  0  0
  180.6540   16.4550   41.3400 O   0  0  0  0  0  0  0  0  0  0  0  0
  180.9384   14.9223   45.3361 H   0  0  0  0  0  0  0  0  0  0  0  0
  179.6824   14.9274   44.0518 H   0  0  0  0  0  0  0  0  0  0  0  0
  180.9618   13.6665   44.0518 H   0  0  0  0  0  0  0  0  0  0  0  0
  182.6707   15.2945   43.4968 H   0  0  0  0  0  0  0  0  0  0  0  0
  180.0305   16.2453   45.1660 H   0  0  0  0  0  0  0  0  0  0  0  0
  178.2996   17.8418   46.1529 H   0  0  0  0  0  0  0  0  0  0  0  0
  177.7862   20.0742   47.1505 H   0  0  0  0  0  0  0  0  0  0  0  0
  180.7176   21.7122   48.6356 H   0  0  0  0  0  0  0  0  0  0  0  0
  180.3851   23.4562   48.4499 H   0  0  0  0  0  0  0  0  0  0  0  0
  179.8807   21.4066   50.8881 H   0  0  0  0  0  0  0  0  0  0  0  0
  177.9102   21.2019   52.4016 H   0  0  0  0  0  0  0  0  0  0  0  0
  175.6668   21.9978   51.6426 H   0  0  0  0  0  0  0  0  0  0  0  0
  177.3687   23.2244   47.8668 H   0  0  0  0  0  0  0  0  0  0  0  0
  181.6048   21.5538   45.7763 H   0  0  0  0  0  0  0  0  0  0  0  0
  182.1242   19.3255   44.7792 H   0  0  0  0  0  0  0  0  0  0  0  0
  181.9000   13.6170   41.8350 H   0  0  0  0  0  0  0  0  0  0  0  0
  181.2420   14.2160   40.3800 H   0  0  0  0  0  0  0  0  0  0  0  0
  1  2  1  0
  2  3  1  0
  3  4  2  0
  4  5  1  0
  5  6  2  0
  6  7  1  0
  7  8  2  0
  8  9  1  0
  9 10  1  0
 10 11  1  0
 11 12  2  0
 12 13  1  0
 13 14  2  0
 14 15  1  0
 15 16  1  0
 15 17  2  0
  8 18  1  0
 18 19  2  0
  2 20  1  0
 20 21  1  0
 20 22  2  0
 19  5  1  0
 17 11  1  0
  1 23  1  0
  1 24  1  0
  1 25  1  0
  2 26  1  6
  4 27  1  0
  6 28  1  0
  7 29  1  0
 10 30  1  0
 10 31  1  0
 12 32  1  0
 13 33  1  0
 14 34  1  0
 17 35  1  0
 18 36  1  0
 19 37  1  0
 21 38  1  0
 21 39  1  0
M  END
>  <meeko>  (5) 
{"is_sidechain": [false], "free_energy": -7.273, "intermolecular_energy": -9.709, "internal_energy": -0.743}

$$$$
SAG_pdb_out
     RDKit          3D

 39 40  0  0  0  0  0  0  0  0999 V2000
  181.3840   24.1560   50.3900 C   0  0  0  0  0  0  0  0  0  0  0  0
  182.7790   23.7500   49.9360 C   0  0  2  0  0  0  0  0  0  0  0  0
  182.6420   22.5980   49.0070 N   0  0  0  0  0  0  0  0  0  0  0  0
  181.4780   22.5220   48.4530 C   0  0  0  0  0  0  0  0  0  0  0  0
  181.1380   21.4450   47.5030 C   0  0  0  0  0  0  0  0  0  0  0  0
  179.9220   20.7620   47.5960 C   0  0  0  0  0  0  0  0  0  0  0  0
  179.6180   19.7420   46.6860 C   0  0  0  0  0  0  0  0  0  0  0  0
  180.5290   19.4060   45.6830 C   0  0  0  0  0  0  0  0  0  0  0  0
  180.3600   18.4370   44.7340 O   0  0  0  0  0  0  0  0  0  0  0  0
  181.5090   18.0510   43.9830 C   0  0  0  0  0  0  0  0  0  0  0  0
  181.2190   16.7150   43.3480 C   0  0  0  0  0  0  0  0  0  0  0  0
  180.9710   15.5850   44.1430 C   0  0  0  0  0  0  0  0  0  0  0  0
  180.6850   14.3490   43.5570 C   0  0  0  0  0  0  0  0  0  0  0  0
  180.6370   14.2340   42.1680 C   0  0  0  0  0  0  0  0  0  0  0  0
  180.8680   15.3540   41.3800 C   0  0  0  0  0  0  0  0  0  0  0  0
  180.8120   15.2440   40.0460 F   0  0  0  0  0  0  0  0  0  0  0  0
  181.1540   16.5900   41.9530 C   0  0  0  0  0  0  0  0  0  0  0  0
  181.7430   20.0940   45.5980 C   0  0  0  0  0  0  0  0  0  0  0  0
  182.0520   21.1130   46.5030 C   0  0  0  0  0  0  0  0  0  0  0  0
  183.6220   23.3160   51.1410 C   0  0  0  0  0  0  0  0  0  0  0  0
  184.0960   22.0340   51.0800 N   0  0  0  0  0  0  0  0  0  0  0  0
  183.8450   24.0350   52.1090 O   0  0  0  0  0  0  0  0  0  0  0  0
  181.3450   24.1674   51.4892 H   0  0  0  0  0  0  0  0  0  0  0  0
  181.1504   25.1594   50.0044 H   0  0  0  0  0  0  0  0  0  0  0  0
  180.6485   23.4347   50.0044 H   0  0  0  0  0  0  0  0  0  0  0  0
  183.2721   24.6005   49.4426 H   0  0  0  0  0  0  0  0  0  0  0  0
  180.7193   23.2806   48.6958 H   0  0  0  0  0  0  0  0  0  0  0  0
  179.2027   21.0262   48.3852 H   0  0  0  0  0  0  0  0  0  0  0  0
  178.6608   19.2052   46.7615 H   0  0  0  0  0  0  0  0  0  0  0  0
  181.7145   18.7990   43.2031 H   0  0  0  0  0  0  0  0  0  0  0  0
  182.3898   17.9811   44.6382 H   0  0  0  0  0  0  0  0  0  0  0  0
  181.0021   15.6734   45.2390 H   0  0  0  0  0  0  0  0  0  0  0  0
  180.4982   13.4689   44.1898 H   0  0  0  0  0  0  0  0  0  0  0  0
  180.4177   13.2630   41.6999 H   0  0  0  0  0  0  0  0  0  0  0  0
  181.3287   17.4671   41.3125 H   0  0  0  0  0  0  0  0  0  0  0  0
  182.4633   19.8302   44.8096 H   0  0  0  0  0  0  0  0  0  0  0  0
  183.0093   21.6495   46.4273 H   0  0  0  0  0  0  0  0  0  0  0  0
  183.9050   21.4760   50.2930 H   0  0  0  0  0  0  0  0  0  0  0  0
  184.6310   21.6720   51.8240 H   0  0  0  0  0  0  0  0  0  0  0  0
  1  2  1  0
  2  3  1  0
  3  4  2  0
  4  5  1  0
  5  6  2  0
  6  7  1  0
  7  8  2  0
  8  9  1  0
  9 10  1  0
 10 11  1  0
 11 12  2  0
 12 13  1  0
 13 14  2  0
 14 15  1  0
 15 16  1  0
 15 17  2  0
  8 18  1  0
 18 19  2  0
  2 20  1  0
 20 21  1  0
 20 22  2  0
 19  5  1  0
 17 11  1  0
  1 23  1  0
  1 24  1  0
  1 25  1  0
  2 26  1  6
  4 27  1  0
  6 28  1  0
  7 29  1  0
 10 30  1  0
 10 31  1  0
 12 32  1  0
 13 33  1  0
 14 34  1  0
 17 35  1  0
 18 36  1  0
 19 37  1  0
 21 38  1  0
 21 39  1  0
M  END
>  <meeko>  (6) 
{"is_sidechain": [false], "free_energy": -7.062, "intermolecular_energy": -9.564, "internal_energy": -0.603}

$$$$
SAG_pdb_out
     RDKit          3D

 39 40  0  0  0  0  0  0  0  0999 V2000
  181.4480   25.2990   49.0770 C   0  0  0  0  0  0  0  0  0  0  0  0
  181.0660   24.2990   50.1600 C   0  0  2  0  0  0  0  0  0  0  0  0
  181.0440   22.9460   49.5480 N   0  0  0  0  0  0  0  0  0  0  0  0
  181.0640   22.9670   48.2560 C   0  0  0  0  0  0  0  0  0  0  0  0
  181.0400   21.7260   47.4590 C   0  0  0  0  0  0  0  0  0  0  0  0
  182.0850   21.4140   46.5850 C   0  0  0  0  0  0  0  0  0  0  0  0
  182.0450   20.2310   45.8350 C   0  0  0  0  0  0  0  0  0  0  0  0
  180.9610   19.3610   45.9610 C   0  0  0  0  0  0  0  0  0  0  0  0
  180.7950   18.1800   45.2930 O   0  0  0  0  0  0  0  0  0  0  0  0
  181.2960   18.1070   43.9610 C   0  0  0  0  0  0  0  0  0  0  0  0
  181.0960   16.6970   43.4680 C   0  0  0  0  0  0  0  0  0  0  0  0
  180.7520   15.6700   44.3610 C   0  0  0  0  0  0  0  0  0  0  0  0
  180.5480   14.3650   43.9030 C   0  0  0  0  0  0  0  0  0  0  0  0
  180.6800   14.0760   42.5460 C   0  0  0  0  0  0  0  0  0  0  0  0
  181.0060   15.0940   41.6580 C   0  0  0  0  0  0  0  0  0  0  0  0
  181.1230   14.8180   40.3530 F   0  0  0  0  0  0  0  0  0  0  0  0
  181.2110   16.3970   42.1030 C   0  0  0  0  0  0  0  0  0  0  0  0
  179.9200   19.6810   46.8380 C   0  0  0  0  0  0  0  0  0  0  0  0
  179.9540   20.8590   47.5880 C   0  0  0  0  0  0  0  0  0  0  0  0
  179.6680   24.6180   50.7050 C   0  0  0  0  0  0  0  0  0  0  0  0
  178.8540   25.2960   49.8400 N   0  0  0  0  0  0  0  0  0  0  0  0
  179.2960   24.3230   51.8360 O   0  0  0  0  0  0  0  0  0  0  0  0
  181.8032   26.2288   49.5453 H   0  0  0  0  0  0  0  0  0  0  0  0
  182.2474   24.8748   48.4517 H   0  0  0  0  0  0  0  0  0  0  0  0
  180.5694   25.5158   48.4517 H   0  0  0  0  0  0  0  0  0  0  0  0
  181.7916   24.3488   50.9852 H   0  0  0  0  0  0  0  0  0  0  0  0
  181.0999   23.9361   47.7368 H   0  0  0  0  0  0  0  0  0  0  0  0
  182.9405   22.0983   46.4857 H   0  0  0  0  0  0  0  0  0  0  0  0
  182.8681   19.9880   45.1469 H   0  0  0  0  0  0  0  0  0  0  0  0
  180.7477   18.8097   43.3163 H   0  0  0  0  0  0  0  0  0  0  0  0
  182.3630   18.3736   43.9376 H   0  0  0  0  0  0  0  0  0  0  0  0
  180.6418   15.8944   45.4322 H   0  0  0  0  0  0  0  0  0  0  0  0
  180.2837   13.5673   44.6128 H   0  0  0  0  0  0  0  0  0  0  0  0
  180.5273   13.0498   42.1806 H   0  0  0  0  0  0  0  0  0  0  0  0
  181.4630   17.1908   41.3844 H   0  0  0  0  0  0  0  0  0  0  0  0
  179.0643   18.9971   46.9385 H   0  0  0  0  0  0  0  0  0  0  0  0
  179.1304   21.1016   48.2756 H   0  0  0  0  0  0  0  0  0  0  0  0
  179.1750   25.5220   48.9370 H   0  0  0  0  0  0  0  0  0  0  0  0
  177.9470   25.5560   50.1200 H   0  0  0  0  0  0  0  0  0  0  0  0
  1  2  1  0
  2  3  1  0
  3  4  2  0
  4  5  1  0
  5  6  2  0
  6  7  1  0
  7  8  2  0
  8  9  1  0
  9 10  1  0
 10 11  1  0
 11 12  2  0
 12 13  1  0
 13 14  2  0
 14 15  1  0
 15 16  1  0
 15 17  2  0
  8 18  1  0
 18 19  2  0
  2 20  1  0
 20 21  1  0
 20 22  2  0
 19  5  1  0
 17 11  1  0
  1 23  1  0
  1 24  1  0
  1 25  1  0
  2 26  1  1
  4 27  1  0
  6 28  1  0
  7 29  1  0
 10 30  1  0
 10 31  1  0
 12 32  1  0
 13 33  1  0
 14 34  1  0
 17 35  1  0
 18 36  1  0
 19 37  1  0
 21 38  1  0
 21 39  1  0
M  END
>  <meeko>  (7) 
{"is_sidechain": [false], "free_energy": -6.991, "intermolecular_energy": -9.489, "internal_energy": -0.582}

$$$$
SAG_pdb_out
     RDKit          3D

 39 40  0  0  0  0  0  0  0  0999 V2000
  184.0780   23.4020   47.9470 C   0  0  0  0  0  0  0  0  0  0  0  0
  183.7360   22.1960   48.8090 C   0  0  2  0  0  0  0  0  0  0  0  0
  182.3060   21.8610   48.5830 N   0  0  0  0  0  0  0  0  0  0  0  0
  182.0790   21.3400   47.4240 C   0  0  0  0  0  0  0  0  0  0  0  0
  180.7210   20.9430   47.0030 C   0  0  0  0  0  0  0  0  0  0  0  0
  180.4550   19.6420   46.5690 C   0  0  0  0  0  0  0  0  0  0  0  0
  179.1600   19.2840   46.1730 C   0  0  0  0  0  0  0  0  0  0  0  0
  178.1310   20.2270   46.2120 C   0  0  0  0  0  0  0  0  0  0  0  0
  176.8290   20.0140   45.8570 O   0  0  0  0  0  0  0  0  0  0  0  0
  176.0420   19.2000   46.7220 C   0  0  0  0  0  0  0  0  0  0  0  0
  175.6860   20.0220   47.9340 C   0  0  0  0  0  0  0  0  0  0  0  0
  176.1870   19.6800   49.2000 C   0  0  0  0  0  0  0  0  0  0  0  0
  175.8740   20.4510   50.3240 C   0  0  0  0  0  0  0  0  0  0  0  0
  175.0610   21.5760   50.1890 C   0  0  0  0  0  0  0  0  0  0  0  0
  174.5750   21.9230   48.9340 C   0  0  0  0  0  0  0  0  0  0  0  0
  173.8020   23.0090   48.8050 F   0  0  0  0  0  0  0  0  0  0  0  0
  174.8810   21.1630   47.8090 C   0  0  0  0  0  0  0  0  0  0  0  0
  178.4070   21.5270   46.6480 C   0  0  0  0  0  0  0  0  0  0  0  0
  179.6970   21.8900   47.0440 C   0  0  0  0  0  0  0  0  0  0  0  0
  183.9370   22.5320   50.2920 C   0  0  0  0  0  0  0  0  0  0  0  0
  183.2190   21.7570   51.1600 N   0  0  0  0  0  0  0  0  0  0  0  0
  184.6590   23.4390   50.6910 O   0  0  0  0  0  0  0  0  0  0  0  0
  184.3208   24.2580   48.5938 H   0  0  0  0  0  0  0  0  0  0  0  0
  184.9443   23.1650   47.3120 H   0  0  0  0  0  0  0  0  0  0  0  0
  183.2162   23.6550   47.3120 H   0  0  0  0  0  0  0  0  0  0  0  0
  184.3877   21.3509   48.5423 H   0  0  0  0  0  0  0  0  0  0  0  0
  182.9200   21.1878   46.7315 H   0  0  0  0  0  0  0  0  0  0  0  0
  181.2641   18.8974   46.5382 H   0  0  0  0  0  0  0  0  0  0  0  0
  178.9535   18.2591   45.8310 H   0  0  0  0  0  0  0  0  0  0  0  0
  175.1254   18.8814   46.2040 H   0  0  0  0  0  0  0  0  0  0  0  0
  176.6035   18.3020   47.0193 H   0  0  0  0  0  0  0  0  0  0  0  0
  176.8327   18.7961   49.3091 H   0  0  0  0  0  0  0  0  0  0  0  0
  176.2680   20.1708   51.3120 H   0  0  0  0  0  0  0  0  0  0  0  0
  174.8063   22.1843   51.0694 H   0  0  0  0  0  0  0  0  0  0  0  0
  174.4918   21.4571   46.8231 H   0  0  0  0  0  0  0  0  0  0  0  0
  177.5989   22.2726   46.6795 H   0  0  0  0  0  0  0  0  0  0  0  0
  179.9038   22.9150   47.3856 H   0  0  0  0  0  0  0  0  0  0  0  0
  182.6460   21.0340   50.8160 H   0  0  0  0  0  0  0  0  0  0  0  0
  183.2760   21.9200   52.1300 H   0  0  0  0  0  0  0  0  0  0  0  0
  1  2  1  0
  2  3  1  0
  3  4  2  0
  4  5  1  0
  5  6  2  0
  6  7  1  0
  7  8  2  0
  8  9  1  0
  9 10  1  0
 10 11  1  0
 11 12  2  0
 12 13  1  0
 13 14  2  0
 14 15  1  0
 15 16  1  0
 15 17  2  0
  8 18  1  0
 18 19  2  0
  2 20  1  0
 20 21  1  0
 20 22  2  0
 19  5  1  0
 17 11  1  0
  1 23  1  0
  1 24  1  0
  1 25  1  0
  2 26  1  6
  4 27  1  0
  6 28  1  0
  7 29  1  0
 10 30  1  0
 10 31  1  0
 12 32  1  0
 13 33  1  0
 14 34  1  0
 17 35  1  0
 18 36  1  0
 19 37  1  0
 21 38  1  0
 21 39  1  0
M  END
>  <meeko>  (8) 
{"is_sidechain": [false], "free_energy": -6.865, "intermolecular_energy": -9.092, "internal_energy": -0.81}

$$$$
SAG_pdb_out
     RDKit          3D

 39 40  0  0  0  0  0  0  0  0999 V2000
  180.4240   14.6700   44.2860 C   0  0  0  0  0  0  0  0  0  0  0  0
  181.5090   15.4880   43.5990 C   0  0  2  0  0  0  0  0  0  0  0  0
  181.3370   16.9080   44.0020 N   0  0  0  0  0  0  0  0  0  0  0  0
  180.4760   17.0710   44.9510 C   0  0  0  0  0  0  0  0  0  0  0  0
  180.1570   18.4070   45.4890 C   0  0  0  0  0  0  0  0  0  0  0  0
  178.9130   18.6700   46.0690 C   0  0  0  0  0  0  0  0  0  0  0  0
  178.6290   19.9450   46.5740 C   0  0  0  0  0  0  0  0  0  0  0  0
  179.5880   20.9560   46.5000 C   0  0  0  0  0  0  0  0  0  0  0  0
  179.4430   22.2380   46.9510 O   0  0  0  0  0  0  0  0  0  0  0  0
  179.3810   22.4300   48.3630 C   0  0  0  0  0  0  0  0  0  0  0  0
  180.7860   22.6480   48.8630 C   0  0  0  0  0  0  0  0  0  0  0  0
  181.2910   21.8840   49.9270 C   0  0  0  0  0  0  0  0  0  0  0  0
  182.6000   22.0710   50.3810 C   0  0  0  0  0  0  0  0  0  0  0  0
  183.4180   23.0200   49.7690 C   0  0  0  0  0  0  0  0  0  0  0  0
  182.9240   23.7660   48.7070 C   0  0  0  0  0  0  0  0  0  0  0  0
  183.7140   24.6710   48.1140 F   0  0  0  0  0  0  0  0  0  0  0  0
  181.6230   23.5880   48.2460 C   0  0  0  0  0  0  0  0  0  0  0  0
  180.8300   20.6840   45.9180 C   0  0  0  0  0  0  0  0  0  0  0  0
  181.1200   19.4140   45.4120 C   0  0  0  0  0  0  0  0  0  0  0  0
  181.3640   15.3850   42.0760 C   0  0  0  0  0  0  0  0  0  0  0  0
  181.2360   16.5830   41.4270 N   0  0  0  0  0  0  0  0  0  0  0  0
  181.3340   14.3210   41.4660 O   0  0  0  0  0  0  0  0  0  0  0  0
  180.5364   14.7547   45.3770 H   0  0  0  0  0  0  0  0  0  0  0  0
  179.4352   15.0493   43.9887 H   0  0  0  0  0  0  0  0  0  0  0  0
  180.5166   13.6150   43.9887 H   0  0  0  0  0  0  0  0  0  0  0  0
  182.5005   15.1108   43.8900 H   0  0  0  0  0  0  0  0  0  0  0  0
  179.9670   16.1900   45.3692 H   0  0  0  0  0  0  0  0  0  0  0  0
  178.1558   17.8744   46.1290 H   0  0  0  0  0  0  0  0  0  0  0  0
  177.6489   20.1497   47.0295 H   0  0  0  0  0  0  0  0  0  0  0  0
  178.7615   23.3092   48.5938 H   0  0  0  0  0  0  0  0  0  0  0  0
  178.9330   21.5512   48.8499 H   0  0  0  0  0  0  0  0  0  0  0  0
  180.6502   21.1306   50.4084 H   0  0  0  0  0  0  0  0  0  0  0  0
  182.9838   21.4708   51.2191 H   0  0  0  0  0  0  0  0  0  0  0  0
  184.4470   23.1766   50.1248 H   0  0  0  0  0  0  0  0  0  0  0  0
  181.2522   24.1839   47.3990 H   0  0  0  0  0  0  0  0  0  0  0  0
  181.5878   21.4791   45.8577 H   0  0  0  0  0  0  0  0  0  0  0  0
  182.1001   19.2097   44.9564 H   0  0  0  0  0  0  0  0  0  0  0  0
  181.2640   17.4240   41.9380 H   0  0  0  0  0  0  0  0  0  0  0  0
  181.1190   16.6030   40.4500 H   0  0  0  0  0  0  0  0  0  0  0  0
  1  2  1  0
  2  3  1  0
  3  4  2  0
  4  5  1  0
  5  6  2  0
  6  7  1  0
  7  8  2  0
  8  9  1  0
  9 10  1  0
 10 11  1  0
 11 12  2  0
 12 13  1  0
 13 14  2  0
 14 15  1  0
 15 16  1  0
 15 17  2  0
  8 18  1  0
 18 19  2  0
  2 20  1  0
 20 21  1  0
 20 22  2  0
 19  5  1  0
 17 11  1  0
  1 23  1  0
  1 24  1  0
  1 25  1  0
  2 26  1  6
  4 27  1  0
  6 28  1  0
  7 29  1  0
 10 30  1  0
 10 31  1  0
 12 32  1  0
 13 33  1  0
 14 34  1  0
 17 35  1  0
 18 36  1  0
 19 37  1  0
 21 38  1  0
 21 39  1  0
M  END
>  <meeko>  (9) 
{"is_sidechain": [false], "free_energy": -6.777, "intermolecular_energy": -8.953, "internal_energy": -0.829}

$$$$
