VP7_out
     RDKit          3D

 45 48  0  0  0  0  0  0  0  0999 V2000
  180.4940   14.4260   43.4890 C   0  0  0  0  0  0  0  0  0  0  0  0
  181.2980   15.5630   42.8620 C   0  0  0  0  0  0  0  0  0  0  0  0
  180.8410   15.8200   41.4280 C   0  0  0  0  0  0  0  0  0  0  0  0
  182.6690   15.1680   42.8150 O   0  0  0  0  0  0  0  0  0  0  0  0
  181.1800   16.7870   43.6710 C   0  0  0  0  0  0  0  0  0  0  0  0
  181.0850   17.7810   44.3380 C   0  0  0  0  0  0  0  0  0  0  0  0
  180.9670   18.9620   45.1380 C   0  0  0  0  0  0  0  0  0  0  0  0
  182.0350   19.8530   45.2200 C   0  0  0  0  0  0  0  0  0  0  0  0
  181.9450   21.0100   45.9980 C   0  0  0  0  0  0  0  0  0  0  0  0
  180.7470   21.2370   46.6880 C   0  0  0  0  0  0  0  0  0  0  0  0
  180.3950   22.2700   47.5160 N   0  0  0  0  0  0  0  0  0  0  0  0
  179.1200   22.1070   48.0100 C   0  0  0  0  0  0  0  0  0  0  0  0
  178.6070   20.9350   47.4600 C   0  0  0  0  0  0  0  0  0  0  0  0
  179.6540   20.3780   46.6290 C   0  0  0  0  0  0  0  0  0  0  0  0
  179.7800   19.2120   45.8350 C   0  0  0  0  0  0  0  0  0  0  0  0
  177.2630   20.3790   47.6830 C   0  0  0  0  0  0  0  0  0  0  0  0
  176.8570   19.5300   46.7110 N   0  0  0  0  0  0  0  0  0  0  0  0
  175.6710   18.9410   46.8440 C   0  0  0  0  0  0  0  0  0  0  0  0
  175.2630   18.0930   45.8350 N   0  0  0  0  0  0  0  0  0  0  0  0
  174.8310   19.1490   47.8520 N   0  0  0  0  0  0  0  0  0  0  0  0
  175.2510   20.0040   48.8000 C   0  0  0  0  0  0  0  0  0  0  0  0
  176.4640   20.6700   48.7760 C   0  0  0  0  0  0  0  0  0  0  0  0
  176.8090   21.6180   49.8810 C   0  0  0  0  0  0  0  0  0  0  0  0
  177.1460   23.0040   49.3460 C   0  0  0  0  0  0  0  0  0  0  0  0
  178.6100   23.1330   48.9660 C   0  0  0  0  0  0  0  0  0  0  0  0
  180.5468   14.5007   44.5852 H   0  0  0  0  0  0  0  0  0  0  0  0
  179.4447   14.4977   43.1667 H   0  0  0  0  0  0  0  0  0  0  0  0
  180.9114   13.4606   43.1667 H   0  0  0  0  0  0  0  0  0  0  0  0
  179.8823   16.3592   41.4398 H   0  0  0  0  0  0  0  0  0  0  0  0
  181.5960   16.4258   40.9056 H   0  0  0  0  0  0  0  0  0  0  0  0
  180.7155   14.8602   40.9056 H   0  0  0  0  0  0  0  0  0  0  0  0
  183.2290   15.9080   43.0980 H   0  0  0  0  0  0  0  0  0  0  0  0
  182.9611   19.6428   44.6650 H   0  0  0  0  0  0  0  0  0  0  0  0
  182.7847   21.7173   46.0663 H   0  0  0  0  0  0  0  0  0  0  0  0
  180.9800   23.0320   47.7320 H   0  0  0  0  0  0  0  0  0  0  0  0
  178.9430   18.5016   45.7662 H   0  0  0  0  0  0  0  0  0  0  0  0
  175.1880   17.1260   46.0060 H   0  0  0  0  0  0  0  0  0  0  0  0
  175.0480   18.4540   44.9450 H   0  0  0  0  0  0  0  0  0  0  0  0
  174.5838   20.1874   49.6551 H   0  0  0  0  0  0  0  0  0  0  0  0
  175.9503   21.6980   50.5639 H   0  0  0  0  0  0  0  0  0  0  0  0
  177.6933   21.2274   50.4059 H   0  0  0  0  0  0  0  0  0  0  0  0
  176.5306   23.1990   48.4554 H   0  0  0  0  0  0  0  0  0  0  0  0
  176.9392   23.7327   50.1436 H   0  0  0  0  0  0  0  0  0  0  0  0
  178.7553   24.1231   48.5094 H   0  0  0  0  0  0  0  0  0  0  0  0
  179.1770   22.9855   49.8970 H   0  0  0  0  0  0  0  0  0  0  0  0
  1  2  1  0
  2  3  1  0
  2  4  1  0
  2  5  1  0
  5  6  3  0
  6  7  1  0
  7  8  2  0
  8  9  1  0
  9 10  2  0
 10 11  1  0
 11 12  1  0
 12 13  2  0
 13 14  1  0
 14 15  2  0
 13 16  1  0
 16 17  2  0
 17 18  1  0
 18 19  1  0
 18 20  2  0
 20 21  1  0
 21 22  2  0
 22 23  1  0
 23 24  1  0
 24 25  1  0
 15  7  1  0
 22 16  1  0
 14 10  1  0
 25 12  1  0
  1 26  1  0
  1 27  1  0
  1 28  1  0
  3 29  1  0
  3 30  1  0
  3 31  1  0
  4 32  1  0
  8 33  1  0
  9 34  1  0
 11 35  1  0
 15 36  1  0
 19 37  1  0
 19 38  1  0
 21 39  1  0
 23 40  1  0
 23 41  1  0
 24 42  1  0
 24 43  1  0
 25 44  1  0
 25 45  1  0
M  END
>  <meeko>  (1) 
{"is_sidechain": [false], "free_energy": -8.544, "intermolecular_energy": -11.54, "internal_energy": 0.703}

$$$$
VP7_out
     RDKit          3D

 45 48  0  0  0  0  0  0  0  0999 V2000
  180.5820   14.7550   43.5180 C   0  0  0  0  0  0  0  0  0  0  0  0
  181.3020   16.0400   43.1120 C   0  0  0  0  0  0  0  0  0  0  0  0
  180.9910   16.3990   41.6610 C   0  0  0  0  0  0  0  0  0  0  0  0
  182.7080   15.8130   43.2090 O   0  0  0  0  0  0  0  0  0  0  0  0
  180.9330   17.1460   44.0100 C   0  0  0  0  0  0  0  0  0  0  0  0
  180.6310   18.0430   44.7500 C   0  0  0  0  0  0  0  0  0  0  0  0
  180.2760   19.1160   45.6270 C   0  0  0  0  0  0  0  0  0  0  0  0
  179.0110   19.1460   46.2100 C   0  0  0  0  0  0  0  0  0  0  0  0
  178.6400   20.1870   47.0660 C   0  0  0  0  0  0  0  0  0  0  0  0
  179.5850   21.1910   47.3140 C   0  0  0  0  0  0  0  0  0  0  0  0
  179.4860   22.3130   48.0930 N   0  0  0  0  0  0  0  0  0  0  0  0
  180.6450   23.0560   48.0550 C   0  0  0  0  0  0  0  0  0  0  0  0
  181.5480   22.3780   47.2400 C   0  0  0  0  0  0  0  0  0  0  0  0
  180.8610   21.1970   46.7590 C   0  0  0  0  0  0  0  0  0  0  0  0
  181.2030   20.1310   45.8920 C   0  0  0  0  0  0  0  0  0  0  0  0
  182.9280   22.7870   46.9330 C   0  0  0  0  0  0  0  0  0  0  0  0
  183.4410   22.1890   45.8330 N   0  0  0  0  0  0  0  0  0  0  0  0
  184.6690   22.5260   45.4480 C   0  0  0  0  0  0  0  0  0  0  0  0
  185.1840   21.8930   44.3350 N   0  0  0  0  0  0  0  0  0  0  0  0
  185.4510   23.3900   46.0850 N   0  0  0  0  0  0  0  0  0  0  0  0
  184.9250   23.9640   47.1800 C   0  0  0  0  0  0  0  0  0  0  0  0
  183.6590   23.6990   47.6730 C   0  0  0  0  0  0  0  0  0  0  0  0
  183.1930   24.3860   48.9190 C   0  0  0  0  0  0  0  0  0  0  0  0
  181.9260   25.1760   48.6460 C   0  0  0  0  0  0  0  0  0  0  0  0
  180.6740   24.3360   48.8220 C   0  0  0  0  0  0  0  0  0  0  0  0
  180.5439   14.6870   44.6152 H   0  0  0  0  0  0  0  0  0  0  0  0
  179.5583   14.7654   43.1155 H   0  0  0  0  0  0  0  0  0  0  0  0
  181.1254   13.8874   43.1155 H   0  0  0  0  0  0  0  0  0  0  0  0
  180.2709   17.2302   41.6352 H   0  0  0  0  0  0  0  0  0  0  0  0
  181.9178   16.7008   41.1512 H   0  0  0  0  0  0  0  0  0  0  0  0
  180.5602   15.5247   41.1512 H   0  0  0  0  0  0  0  0  0  0  0  0
  182.9240   14.9490   42.8240 H   0  0  0  0  0  0  0  0  0  0  0  0
  178.2946   18.3398   45.9938 H   0  0  0  0  0  0  0  0  0  0  0  0
  177.6422   20.2167   47.5281 H   0  0  0  0  0  0  0  0  0  0  0  0
  178.6870   22.5580   48.6140 H   0  0  0  0  0  0  0  0  0  0  0  0
  182.1989   20.1004   45.4259 H   0  0  0  0  0  0  0  0  0  0  0  0
  185.6210   21.0150   44.4270 H   0  0  0  0  0  0  0  0  0  0  0  0
  185.1160   22.3200   43.4510 H   0  0  0  0  0  0  0  0  0  0  0  0
  185.5430   24.6949   47.7221 H   0  0  0  0  0  0  0  0  0  0  0  0
  182.9901   23.6323   49.6941 H   0  0  0  0  0  0  0  0  0  0  0  0
  183.9778   25.0773   49.2598 H   0  0  0  0  0  0  0  0  0  0  0  0
  181.8823   26.0262   49.3426 H   0  0  0  0  0  0  0  0  0  0  0  0
  181.9596   25.5148   47.6000 H   0  0  0  0  0  0  0  0  0  0  0  0
  180.5766   24.0930   49.8904 H   0  0  0  0  0  0  0  0  0  0  0  0
  179.8457   24.9429   48.4275 H   0  0  0  0  0  0  0  0  0  0  0  0
  1  2  1  0
  2  3  1  0
  2  4  1  0
  2  5  1  0
  5  6  3  0
  6  7  1  0
  7  8  2  0
  8  9  1  0
  9 10  2  0
 10 11  1  0
 11 12  1  0
 12 13  2  0
 13 14  1  0
 14 15  2  0
 13 16  1  0
 16 17  2  0
 17 18  1  0
 18 19  1  0
 18 20  2  0
 20 21  1  0
 21 22  2  0
 22 23  1  0
 23 24  1  0
 24 25  1  0
 15  7  1  0
 22 16  1  0
 14 10  1  0
 25 12  1  0
  1 26  1  0
  1 27  1  0
  1 28  1  0
  3 29  1  0
  3 30  1  0
  3 31  1  0
  4 32  1  0
  8 33  1  0
  9 34  1  0
 11 35  1  0
 15 36  1  0
 19 37  1  0
 19 38  1  0
 21 39  1  0
 23 40  1  0
 23 41  1  0
 24 42  1  0
 24 43  1  0
 25 44  1  0
 25 45  1  0
M  END
>  <meeko>  (2) 
{"is_sidechain": [false], "free_energy": -7.107, "intermolecular_energy": -9.674, "internal_energy": 0.777}

$$$$
VP7_out
     RDKit          3D

 45 48  0  0  0  0  0  0  0  0999 V2000
  173.5670   24.5650   51.5020 C   0  0  0  0  0  0  0  0  0  0  0  0
  172.7910   23.7960   50.4340 C   0  0  0  0  0  0  0  0  0  0  0  0
  172.0330   24.7570   49.5200 C   0  0  0  0  0  0  0  0  0  0  0  0
  171.8260   22.9730   51.0900 O   0  0  0  0  0  0  0  0  0  0  0  0
  173.6970   22.9420   49.6510 C   0  0  0  0  0  0  0  0  0  0  0  0
  174.4410   22.2410   49.0190 C   0  0  0  0  0  0  0  0  0  0  0  0
  175.3310   21.4080   48.2700 C   0  0  0  0  0  0  0  0  0  0  0  0
  174.8370   20.2960   47.5930 C   0  0  0  0  0  0  0  0  0  0  0  0
  175.6890   19.4650   46.8600 C   0  0  0  0  0  0  0  0  0  0  0  0
  177.0510   19.7940   46.8330 C   0  0  0  0  0  0  0  0  0  0  0  0
  178.0920   19.1600   46.2090 N   0  0  0  0  0  0  0  0  0  0  0  0
  179.2870   19.8020   46.4460 C   0  0  0  0  0  0  0  0  0  0  0  0
  179.0110   20.9180   47.2330 C   0  0  0  0  0  0  0  0  0  0  0  0
  177.5850   20.8990   47.4880 C   0  0  0  0  0  0  0  0  0  0  0  0
  176.6960   21.7170   48.2260 C   0  0  0  0  0  0  0  0  0  0  0  0
  179.9830   21.9150   47.7080 C   0  0  0  0  0  0  0  0  0  0  0  0
  179.4260   23.1020   48.0410 N   0  0  0  0  0  0  0  0  0  0  0  0
  180.2180   24.0570   48.5220 C   0  0  0  0  0  0  0  0  0  0  0  0
  179.6370   25.2680   48.8390 N   0  0  0  0  0  0  0  0  0  0  0  0
  181.5330   23.9450   48.6730 N   0  0  0  0  0  0  0  0  0  0  0  0
  182.0660   22.7610   48.3270 C   0  0  0  0  0  0  0  0  0  0  0  0
  181.3440   21.6920   47.8210 C   0  0  0  0  0  0  0  0  0  0  0  0
  182.0570   20.4300   47.4480 C   0  0  0  0  0  0  0  0  0  0  0  0
  181.7840   20.0380   46.0030 C   0  0  0  0  0  0  0  0  0  0  0  0
  180.5240   19.2000   45.8680 C   0  0  0  0  0  0  0  0  0  0  0  0
  173.2383   24.2392   52.4999 H   0  0  0  0  0  0  0  0  0  0  0  0
  174.6429   24.3668   51.3875 H   0  0  0  0  0  0  0  0  0  0  0  0
  173.3785   25.6427   51.3875 H   0  0  0  0  0  0  0  0  0  0  0  0
  171.4668   25.4749   50.1316 H   0  0  0  0  0  0  0  0  0  0  0  0
  172.7484   25.3003   48.8851 H   0  0  0  0  0  0  0  0  0  0  0  0
  171.3380   24.1878   48.8851 H   0  0  0  0  0  0  0  0  0  0  0  0
  171.7230   22.1420   50.5990 H   0  0  0  0  0  0  0  0  0  0  0  0
  173.7616   20.0684   47.6356 H   0  0  0  0  0  0  0  0  0  0  0  0
  175.3044   18.5848   46.3239 H   0  0  0  0  0  0  0  0  0  0  0  0
  177.9980   18.3470   45.6620 H   0  0  0  0  0  0  0  0  0  0  0  0
  177.0779   22.5963   48.7654 H   0  0  0  0  0  0  0  0  0  0  0  0
  180.2000   26.0240   49.1240 H   0  0  0  0  0  0  0  0  0  0  0  0
  178.6610   25.3750   48.7810 H   0  0  0  0  0  0  0  0  0  0  0  0
  183.1509   22.6314   48.4543 H   0  0  0  0  0  0  0  0  0  0  0  0
  183.1389   20.5793   47.5790 H   0  0  0  0  0  0  0  0  0  0  0  0
  181.6900   19.6225   48.0986 H   0  0  0  0  0  0  0  0  0  0  0  0
  181.6680   20.9526   45.4029 H   0  0  0  0  0  0  0  0  0  0  0  0
  182.6326   19.4343   45.6490 H   0  0  0  0  0  0  0  0  0  0  0  0
  180.3468   19.0246   44.7966 H   0  0  0  0  0  0  0  0  0  0  0  0
  180.7096   18.2809   46.4431 H   0  0  0  0  0  0  0  0  0  0  0  0
  1  2  1  0
  2  3  1  0
  2  4  1  0
  2  5  1  0
  5  6  3  0
  6  7  1  0
  7  8  2  0
  8  9  1  0
  9 10  2  0
 10 11  1  0
 11 12  1  0
 12 13  2  0
 13 14  1  0
 14 15  2  0
 13 16  1  0
 16 17  2  0
 17 18  1  0
 18 19  1  0
 18 20  2  0
 20 21  1  0
 21 22  2  0
 22 23  1  0
 23 24  1  0
 24 25  1  0
 15  7  1  0
 22 16  1  0
 14 10  1  0
 25 12  1  0
  1 26  1  0
  1 27  1  0
  1 28  1  0
  3 29  1  0
  3 30  1  0
  3 31  1  0
  4 32  1  0
  8 33  1  0
  9 34  1  0
 11 35  1  0
 15 36  1  0
 19 37  1  0
 19 38  1  0
 21 39  1  0
 23 40  1  0
 23 41  1  0
 24 42  1  0
 24 43  1  0
 25 44  1  0
 25 45  1  0
M  END
>  <meeko>  (3) 
{"is_sidechain": [false], "free_energy": -6.938, "intermolecular_energy": -9.376, "internal_energy": 0.708}

$$$$
VP7_out
     RDKit          3D

 45 48  0  0  0  0  0  0  0  0999 V2000
  175.5570   18.2460   46.9620 C   0  0  0  0  0  0  0  0  0  0  0  0
  175.8350   19.6120   47.5860 C   0  0  0  0  0  0  0  0  0  0  0  0
  175.5440   19.5900   49.0850 C   0  0  0  0  0  0  0  0  0  0  0  0
  174.9540   20.5630   46.9890 O   0  0  0  0  0  0  0  0  0  0  0  0
  177.2250   20.0220   47.3350 C   0  0  0  0  0  0  0  0  0  0  0  0
  178.3600   20.3550   47.1210 C   0  0  0  0  0  0  0  0  0  0  0  0
  179.7120   20.7520   46.8730 C   0  0  0  0  0  0  0  0  0  0  0  0
  180.4800   20.0570   45.9420 C   0  0  0  0  0  0  0  0  0  0  0  0
  181.8040   20.4240   45.6870 C   0  0  0  0  0  0  0  0  0  0  0  0
  182.3250   21.5120   46.4000 C   0  0  0  0  0  0  0  0  0  0  0  0
  183.5740   22.0710   46.3540 N   0  0  0  0  0  0  0  0  0  0  0  0
  183.6860   23.1250   47.2340 C   0  0  0  0  0  0  0  0  0  0  0  0
  182.4510   23.2790   47.8590 C   0  0  0  0  0  0  0  0  0  0  0  0
  181.5920   22.2380   47.3340 C   0  0  0  0  0  0  0  0  0  0  0  0
  180.2550   21.8370   47.5720 C   0  0  0  0  0  0  0  0  0  0  0  0
  182.0970   24.3010   48.8560 C   0  0  0  0  0  0  0  0  0  0  0  0
  180.7660   24.5260   48.9550 N   0  0  0  0  0  0  0  0  0  0  0  0
  180.3410   25.4030   49.8610 C   0  0  0  0  0  0  0  0  0  0  0  0
  178.9830   25.6350   49.9370 N   0  0  0  0  0  0  0  0  0  0  0  0
  181.1330   26.1070   50.6630 N   0  0  0  0  0  0  0  0  0  0  0  0
  182.4510   25.8750   50.5400 C   0  0  0  0  0  0  0  0  0  0  0  0
  183.0110   24.9830   49.6400 C   0  0  0  0  0  0  0  0  0  0  0  0
  184.4980   24.8290   49.5810 C   0  0  0  0  0  0  0  0  0  0  0  0
  185.0310   25.0730   48.1730 C   0  0  0  0  0  0  0  0  0  0  0  0
  185.0090   23.8100   47.3310 C   0  0  0  0  0  0  0  0  0  0  0  0
  175.4058   17.5029   47.7588 H   0  0  0  0  0  0  0  0  0  0  0  0
  174.6524   18.3048   46.3389 H   0  0  0  0  0  0  0  0  0  0  0  0
  176.4126   17.9465   46.3389 H   0  0  0  0  0  0  0  0  0  0  0  0
  176.4892   19.6615   49.6431 H   0  0  0  0  0  0  0  0  0  0  0  0
  174.8989   20.4419   49.3458 H   0  0  0  0  0  0  0  0  0  0  0  0
  175.0343   18.6508   49.3458 H   0  0  0  0  0  0  0  0  0  0  0  0
  175.2960   20.8170   46.1170 H   0  0  0  0  0  0  0  0  0  0  0  0
  180.0384   19.2077   45.4001 H   0  0  0  0  0  0  0  0  0  0  0  0
  182.4152   19.8785   44.9530 H   0  0  0  0  0  0  0  0  0  0  0  0
  184.3010   21.7590   45.7680 H   0  0  0  0  0  0  0  0  0  0  0  0
  179.6419   22.3788   48.3073 H   0  0  0  0  0  0  0  0  0  0  0  0
  178.6330   26.5500   49.8280 H   0  0  0  0  0  0  0  0  0  0  0  0
  178.3650   24.8870   50.1000 H   0  0  0  0  0  0  0  0  0  0  0  0
  183.1325   26.4320   51.1998 H   0  0  0  0  0  0  0  0  0  0  0  0
  184.9597   25.5533   50.2682 H   0  0  0  0  0  0  0  0  0  0  0  0
  184.7494   23.7981   49.8708 H   0  0  0  0  0  0  0  0  0  0  0  0
  184.4079   25.8366   47.6845 H   0  0  0  0  0  0  0  0  0  0  0  0
  186.0756   25.4073   48.2578 H   0  0  0  0  0  0  0  0  0  0  0  0
  185.3283   24.0761   46.3126 H   0  0  0  0  0  0  0  0  0  0  0  0
  185.6807   23.0994   47.8349 H   0  0  0  0  0  0  0  0  0  0  0  0
  1  2  1  0
  2  3  1  0
  2  4  1  0
  2  5  1  0
  5  6  3  0
  6  7  1  0
  7  8  2  0
  8  9  1  0
  9 10  2  0
 10 11  1  0
 11 12  1  0
 12 13  2  0
 13 14  1  0
 14 15  2  0
 13 16  1  0
 16 17  2  0
 17 18  1  0
 18 19  1  0
 18 20  2  0
 20 21  1  0
 21 22  2  0
 22 23  1  0
 23 24  1  0
 24 25  1  0
 15  7  1  0
 22 16  1  0
 14 10  1  0
 25 12  1  0
  1 26  1  0
  1 27  1  0
  1 28  1  0
  3 29  1  0
  3 30  1  0
  3 31  1  0
  4 32  1  0
  8 33  1  0
  9 34  1  0
 11 35  1  0
 15 36  1  0
 19 37  1  0
 19 38  1  0
 21 39  1  0
 23 40  1  0
 23 41  1  0
 24 42  1  0
 24 43  1  0
 25 44  1  0
 25 45  1  0
M  END
>  <meeko>  (4) 
{"is_sidechain": [false], "free_energy": -6.561, "intermolecular_energy": -8.867, "internal_energy": 0.708}

$$$$
VP7_out
     RDKit          3D

 45 48  0  0  0  0  0  0  0  0999 V2000
  185.7660   22.7770   44.4210 C   0  0  0  0  0  0  0  0  0  0  0  0
  184.9540   23.2030   45.6430 C   0  0  0  0  0  0  0  0  0  0  0  0
  184.5950   24.6850   45.5610 C   0  0  0  0  0  0  0  0  0  0  0  0
  185.7650   23.0180   46.8040 O   0  0  0  0  0  0  0  0  0  0  0  0
  183.7400   22.3830   45.7700 C   0  0  0  0  0  0  0  0  0  0  0  0
  182.7530   21.7050   45.8720 C   0  0  0  0  0  0  0  0  0  0  0  0
  181.5740   20.9030   45.9930 C   0  0  0  0  0  0  0  0  0  0  0  0
  181.5210   19.6510   45.3850 C   0  0  0  0  0  0  0  0  0  0  0  0
  180.3780   18.8530   45.4860 C   0  0  0  0  0  0  0  0  0  0  0  0
  179.2960   19.3580   46.2180 C   0  0  0  0  0  0  0  0  0  0  0  0
  178.0710   18.8000   46.4670 N   0  0  0  0  0  0  0  0  0  0  0  0
  177.2800   19.6370   47.2220 C   0  0  0  0  0  0  0  0  0  0  0  0
  178.0300   20.7780   47.5020 C   0  0  0  0  0  0  0  0  0  0  0  0
  179.3090   20.5990   46.8470 C   0  0  0  0  0  0  0  0  0  0  0  0
  180.4800   21.3850   46.7210 C   0  0  0  0  0  0  0  0  0  0  0  0
  177.5990   21.9320   48.3060 C   0  0  0  0  0  0  0  0  0  0  0  0
  178.6250   22.6620   48.8020 N   0  0  0  0  0  0  0  0  0  0  0  0
  178.3370   23.7520   49.5080 C   0  0  0  0  0  0  0  0  0  0  0  0
  179.3940   24.4760   50.0220 N   0  0  0  0  0  0  0  0  0  0  0  0
  177.1080   24.1670   49.7950 N   0  0  0  0  0  0  0  0  0  0  0  0
  176.1060   23.4210   49.3010 C   0  0  0  0  0  0  0  0  0  0  0  0
  176.2790   22.2710   48.5480 C   0  0  0  0  0  0  0  0  0  0  0  0
  175.0810   21.5110   48.0740 C   0  0  0  0  0  0  0  0  0  0  0  0
  175.1280   20.0550   48.5180 C   0  0  0  0  0  0  0  0  0  0  0  0
  175.8930   19.1840   47.5380 C   0  0  0  0  0  0  0  0  0  0  0  0
  186.6955   22.2894   44.7502 H   0  0  0  0  0  0  0  0  0  0  0  0
  185.1764   22.0721   43.8165 H   0  0  0  0  0  0  0  0  0  0  0  0
  186.0109   23.6628   43.8165 H   0  0  0  0  0  0  0  0  0  0  0  0
  184.4957   25.0950   46.5769 H   0  0  0  0  0  0  0  0  0  0  0  0
  185.3883   25.2252   45.0235 H   0  0  0  0  0  0  0  0  0  0  0  0
  183.6425   24.8023   45.0235 H   0  0  0  0  0  0  0  0  0  0  0  0
  186.6520   22.7300   46.5360 H   0  0  0  0  0  0  0  0  0  0  0  0
  182.3899   19.2856   44.8180 H   0  0  0  0  0  0  0  0  0  0  0  0
  180.3300   17.8636   45.0076 H   0  0  0  0  0  0  0  0  0  0  0  0
  177.7900   17.9120   46.1460 H   0  0  0  0  0  0  0  0  0  0  0  0
  180.5300   22.3759   47.1960 H   0  0  0  0  0  0  0  0  0  0  0  0
  179.8380   25.1590   49.4690 H   0  0  0  0  0  0  0  0  0  0  0  0
  179.7030   24.3090   50.9420 H   0  0  0  0  0  0  0  0  0  0  0  0
  175.0759   23.7460   49.5089 H   0  0  0  0  0  0  0  0  0  0  0  0
  174.1751   21.9803   48.4851 H   0  0  0  0  0  0  0  0  0  0  0  0
  175.0718   21.5349   46.9743 H   0  0  0  0  0  0  0  0  0  0  0  0
  175.6195   19.9994   49.5005 H   0  0  0  0  0  0  0  0  0  0  0  0
  174.0943   19.6822   48.5674 H   0  0  0  0  0  0  0  0  0  0  0  0
  175.9558   18.1711   47.9624 H   0  0  0  0  0  0  0  0  0  0  0  0
  175.3359   19.2343   46.5908 H   0  0  0  0  0  0  0  0  0  0  0  0
  1  2  1  0
  2  3  1  0
  2  4  1  0
  2  5  1  0
  5  6  3  0
  6  7  1  0
  7  8  2  0
  8  9  1  0
  9 10  2  0
 10 11  1  0
 11 12  1  0
 12 13  2  0
 13 14  1  0
 14 15  2  0
 13 16  1  0
 16 17  2  0
 17 18  1  0
 18 19  1  0
 18 20  2  0
 20 21  1  0
 21 22  2  0
 22 23  1  0
 23 24  1  0
 24 25  1  0
 15  7  1  0
 22 16  1  0
 14 10  1  0
 25 12  1  0
  1 26  1  0
  1 27  1  0
  1 28  1  0
  3 29  1  0
  3 30  1  0
  3 31  1  0
  4 32  1  0
  8 33  1  0
  9 34  1  0
 11 35  1  0
 15 36  1  0
 19 37  1  0
 19 38  1  0
 21 39  1  0
 23 40  1  0
 23 41  1  0
 24 42  1  0
 24 43  1  0
 25 44  1  0
 25 45  1  0
M  END
>  <meeko>  (5) 
{"is_sidechain": [false], "free_energy": -6.549, "intermolecular_energy": -8.852, "internal_energy": 0.709}

$$$$
VP7_out
     RDKit          3D

 45 48  0  0  0  0  0  0  0  0999 V2000
  185.6540   23.7150   48.1530 C   0  0  0  0  0  0  0  0  0  0  0  0
  184.9270   23.9460   46.8290 C   0  0  0  0  0  0  0  0  0  0  0  0
  185.8910   23.8110   45.6530 C   0  0  0  0  0  0  0  0  0  0  0  0
  184.4230   25.2820   46.8240 O   0  0  0  0  0  0  0  0  0  0  0  0
  183.8020   23.0090   46.6870 C   0  0  0  0  0  0  0  0  0  0  0  0
  182.8810   22.2440   46.5790 C   0  0  0  0  0  0  0  0  0  0  0  0
  181.7800   21.3390   46.4500 C   0  0  0  0  0  0  0  0  0  0  0  0
  181.9260   20.1710   45.7070 C   0  0  0  0  0  0  0  0  0  0  0  0
  180.8630   19.2750   45.5630 C   0  0  0  0  0  0  0  0  0  0  0  0
  179.6530   19.5960   46.1920 C   0  0  0  0  0  0  0  0  0  0  0  0
  178.4670   18.9130   46.2100 N   0  0  0  0  0  0  0  0  0  0  0  0
  177.5100   19.5840   46.9380 C   0  0  0  0  0  0  0  0  0  0  0  0
  178.1040   20.7400   47.4400 C   0  0  0  0  0  0  0  0  0  0  0  0
  179.4660   20.7480   46.9490 C   0  0  0  0  0  0  0  0  0  0  0  0
  180.5610   21.6380   47.0710 C   0  0  0  0  0  0  0  0  0  0  0  0
  177.4650   21.7480   48.3000 C   0  0  0  0  0  0  0  0  0  0  0  0
  178.3440   22.4960   49.0070 N   0  0  0  0  0  0  0  0  0  0  0  0
  177.8650   23.4650   49.7830 C   0  0  0  0  0  0  0  0  0  0  0  0
  178.7730   24.2060   50.5110 N   0  0  0  0  0  0  0  0  0  0  0  0
  176.5750   23.7380   49.9440 N   0  0  0  0  0  0  0  0  0  0  0  0
  175.7210   22.9760   49.2410 C   0  0  0  0  0  0  0  0  0  0  0  0
  176.0980   21.9450   48.3970 C   0  0  0  0  0  0  0  0  0  0  0  0
  175.0490   21.1500   47.6850 C   0  0  0  0  0  0  0  0  0  0  0  0
  175.1840   19.6580   47.9730 C   0  0  0  0  0  0  0  0  0  0  0  0
  176.1460   18.9830   47.0100 C   0  0  0  0  0  0  0  0  0  0  0  0
  184.9720   23.9317   48.9884 H   0  0  0  0  0  0  0  0  0  0  0  0
  185.9847   22.6675   48.2118 H   0  0  0  0  0  0  0  0  0  0  0  0
  186.5286   24.3795   48.2118 H   0  0  0  0  0  0  0  0  0  0  0  0
  186.9137   23.6678   46.0318 H   0  0  0  0  0  0  0  0  0  0  0  0
  185.6024   22.9445   45.0399 H   0  0  0  0  0  0  0  0  0  0  0  0
  185.8515   24.7234   45.0399 H   0  0  0  0  0  0  0  0  0  0  0  0
  184.3060   25.5870   47.7380 H   0  0  0  0  0  0  0  0  0  0  0  0
  182.8907   19.9502   45.2268 H   0  0  0  0  0  0  0  0  0  0  0  0
  180.9725   18.3507   44.9767 H   0  0  0  0  0  0  0  0  0  0  0  0
  178.3170   18.0500   45.7580 H   0  0  0  0  0  0  0  0  0  0  0  0
  180.4538   22.5647   47.6539 H   0  0  0  0  0  0  0  0  0  0  0  0
  179.3770   24.8340   50.0510 H   0  0  0  0  0  0  0  0  0  0  0  0
  178.8170   24.1070   51.4890 H   0  0  0  0  0  0  0  0  0  0  0  0
  174.6460   23.1858   49.3430 H   0  0  0  0  0  0  0  0  0  0  0  0
  174.0568   21.4895   48.0172 H   0  0  0  0  0  0  0  0  0  0  0  0
  175.1749   21.3046   46.6032 H   0  0  0  0  0  0  0  0  0  0  0  0
  175.5563   19.5257   48.9996 H   0  0  0  0  0  0  0  0  0  0  0  0
  174.1941   19.1946   47.8490 H   0  0  0  0  0  0  0  0  0  0  0  0
  176.2542   17.9330   47.3194 H   0  0  0  0  0  0  0  0  0  0  0  0
  175.7079   19.1073   46.0087 H   0  0  0  0  0  0  0  0  0  0  0  0
  1  2  1  0
  2  3  1  0
  2  4  1  0
  2  5  1  0
  5  6  3  0
  6  7  1  0
  7  8  2  0
  8  9  1  0
  9 10  2  0
 10 11  1  0
 11 12  1  0
 12 13  2  0
 13 14  1  0
 14 15  2  0
 13 16  1  0
 16 17  2  0
 17 18  1  0
 18 19  1  0
 18 20  2  0
 20 21  1  0
 21 22  2  0
 22 23  1  0
 23 24  1  0
 24 25  1  0
 15  7  1  0
 22 16  1  0
 14 10  1  0
 25 12  1  0
  1 26  1  0
  1 27  1  0
  1 28  1  0
  3 29  1  0
  3 30  1  0
  3 31  1  0
  4 32  1  0
  8 33  1  0
  9 34  1  0
 11 35  1  0
 15 36  1  0
 19 37  1  0
 19 38  1  0
 21 39  1  0
 23 40  1  0
 23 41  1  0
 24 42  1  0
 24 43  1  0
 25 44  1  0
 25 45  1  0
M  END
>  <meeko>  (6) 
{"is_sidechain": [false], "free_energy": -6.316, "intermolecular_energy": -8.532, "internal_energy": 0.703}

$$$$
VP7_out
     RDKit          3D

 45 48  0  0  0  0  0  0  0  0999 V2000
  181.0650   18.8920   45.0870 C   0  0  0  0  0  0  0  0  0  0  0  0
  181.1460   19.8830   46.2470 C   0  0  0  0  0  0  0  0  0  0  0  0
  181.9140   21.1360   45.8340 C   0  0  0  0  0  0  0  0  0  0  0  0
  181.8680   19.2650   47.3120 O   0  0  0  0  0  0  0  0  0  0  0  0
  179.7990   20.2340   46.7220 C   0  0  0  0  0  0  0  0  0  0  0  0
  178.6960   20.5130   47.1100 C   0  0  0  0  0  0  0  0  0  0  0  0
  177.3840   20.8510   47.5730 C   0  0  0  0  0  0  0  0  0  0  0  0
  176.2660   20.3060   46.9460 C   0  0  0  0  0  0  0  0  0  0  0  0
  174.9760   20.6260   47.3780 C   0  0  0  0  0  0  0  0  0  0  0  0
  174.8520   21.5090   48.4580 C   0  0  0  0  0  0  0  0  0  0  0  0
  173.7270   21.9910   49.0710 N   0  0  0  0  0  0  0  0  0  0  0  0
  174.0430   22.8570   50.0940 C   0  0  0  0  0  0  0  0  0  0  0  0
  175.4320   22.9220   50.1710 C   0  0  0  0  0  0  0  0  0  0  0  0
  175.9420   22.0700   49.1170 C   0  0  0  0  0  0  0  0  0  0  0  0
  177.2350   21.7300   48.6520 C   0  0  0  0  0  0  0  0  0  0  0  0
  176.2190   23.7030   51.1390 C   0  0  0  0  0  0  0  0  0  0  0  0
  177.5060   23.8910   50.7670 N   0  0  0  0  0  0  0  0  0  0  0  0
  178.2890   24.6230   51.5560 C   0  0  0  0  0  0  0  0  0  0  0  0
  179.6030   24.7910   51.1720 N   0  0  0  0  0  0  0  0  0  0  0  0
  177.9090   25.1620   52.7090 N   0  0  0  0  0  0  0  0  0  0  0  0
  176.6300   24.9530   53.0630 C   0  0  0  0  0  0  0  0  0  0  0  0
  175.7200   24.2160   52.3230 C   0  0  0  0  0  0  0  0  0  0  0  0
  174.3260   24.0330   52.8360 C   0  0  0  0  0  0  0  0  0  0  0  0
  173.3150   24.5620   51.8410 C   0  0  0  0  0  0  0  0  0  0  0  0
  172.9150   23.5030   50.8290 C   0  0  0  0  0  0  0  0  0  0  0  0
  180.9814   17.8694   45.4835 H   0  0  0  0  0  0  0  0  0  0  0  0
  180.1825   19.1197   44.4711 H   0  0  0  0  0  0  0  0  0  0  0  0
  181.9728   18.9734   44.4711 H   0  0  0  0  0  0  0  0  0  0  0  0
  182.2451   21.6762   46.7332 H   0  0  0  0  0  0  0  0  0  0  0  0
  182.7909   20.8480   45.2356 H   0  0  0  0  0  0  0  0  0  0  0  0
  181.2594   21.7867   45.2356 H   0  0  0  0  0  0  0  0  0  0  0  0
  181.3740   18.4930   47.6330 H   0  0  0  0  0  0  0  0  0  0  0  0
  176.4001   19.6153   46.1005 H   0  0  0  0  0  0  0  0  0  0  0  0
  174.0890   20.1993   46.8869 H   0  0  0  0  0  0  0  0  0  0  0  0
  172.8080   21.7500   48.8120 H   0  0  0  0  0  0  0  0  0  0  0  0
  178.1239   22.1572   49.1393 H   0  0  0  0  0  0  0  0  0  0  0  0
  180.2310   25.2720   51.7600 H   0  0  0  0  0  0  0  0  0  0  0  0
  179.9140   24.4300   50.3100 H   0  0  0  0  0  0  0  0  0  0  0  0
  176.2810   25.3982   54.0064 H   0  0  0  0  0  0  0  0  0  0  0  0
  174.1409   22.9618   53.0038 H   0  0  0  0  0  0  0  0  0  0  0  0
  174.2201   24.5911   53.7779 H   0  0  0  0  0  0  0  0  0  0  0  0
  172.4178   24.8915   52.3855 H   0  0  0  0  0  0  0  0  0  0  0  0
  173.7758   25.3994   51.2966 H   0  0  0  0  0  0  0  0  0  0  0  0
  172.3633   22.7153   51.3630 H   0  0  0  0  0  0  0  0  0  0  0  0
  172.3174   24.0244   50.0668 H   0  0  0  0  0  0  0  0  0  0  0  0
  1  2  1  0
  2  3  1  0
  2  4  1  0
  2  5  1  0
  5  6  3  0
  6  7  1  0
  7  8  2  0
  8  9  1  0
  9 10  2  0
 10 11  1  0
 11 12  1  0
 12 13  2  0
 13 14  1  0
 14 15  2  0
 13 16  1  0
 16 17  2  0
 17 18  1  0
 18 19  1  0
 18 20  2  0
 20 21  1  0
 21 22  2  0
 22 23  1  0
 23 24  1  0
 24 25  1  0
 15  7  1  0
 22 16  1  0
 14 10  1  0
 25 12  1  0
  1 26  1  0
  1 27  1  0
  1 28  1  0
  3 29  1  0
  3 30  1  0
  3 31  1  0
  4 32  1  0
  8 33  1  0
  9 34  1  0
 11 35  1  0
 15 36  1  0
 19 37  1  0
 19 38  1  0
 21 39  1  0
 23 40  1  0
 23 41  1  0
 24 42  1  0
 24 43  1  0
 25 44  1  0
 25 45  1  0
M  END
>  <meeko>  (7) 
{"is_sidechain": [false], "free_energy": -6.294, "intermolecular_energy": -8.58, "internal_energy": 0.781}

$$$$
VP7_out
     RDKit          3D

 45 48  0  0  0  0  0  0  0  0999 V2000
  181.1380   15.4380   44.3370 C   0  0  0  0  0  0  0  0  0  0  0  0
  181.2450   16.8830   43.8560 C   0  0  0  0  0  0  0  0  0  0  0  0
  180.8120   16.9990   42.3960 C   0  0  0  0  0  0  0  0  0  0  0  0
  182.6140   17.2790   43.9330 O   0  0  0  0  0  0  0  0  0  0  0  0
  180.4400   17.7730   44.7070 C   0  0  0  0  0  0  0  0  0  0  0  0
  179.7850   18.4960   45.4090 C   0  0  0  0  0  0  0  0  0  0  0  0
  179.0100   19.3610   46.2440 C   0  0  0  0  0  0  0  0  0  0  0  0
  177.6250   19.2240   46.2890 C   0  0  0  0  0  0  0  0  0  0  0  0
  176.8470   20.0610   47.0940 C   0  0  0  0  0  0  0  0  0  0  0  0
  177.5110   21.0370   47.8480 C   0  0  0  0  0  0  0  0  0  0  0  0
  177.0030   21.9790   48.7020 N   0  0  0  0  0  0  0  0  0  0  0  0
  178.0000   22.7640   49.2370 C   0  0  0  0  0  0  0  0  0  0  0  0
  179.2120   22.2960   48.7340 C   0  0  0  0  0  0  0  0  0  0  0  0
  178.8920   21.2040   47.8390 C   0  0  0  0  0  0  0  0  0  0  0  0
  179.6500   20.3430   47.0100 C   0  0  0  0  0  0  0  0  0  0  0  0
  180.5510   22.8150   49.0560 C   0  0  0  0  0  0  0  0  0  0  0  0
  181.5470   21.9270   48.8320 N   0  0  0  0  0  0  0  0  0  0  0  0
  182.8000   22.3170   49.0530 C   0  0  0  0  0  0  0  0  0  0  0  0
  183.8020   21.3940   48.8370 N   0  0  0  0  0  0  0  0  0  0  0  0
  183.1510   23.5130   49.5110 N   0  0  0  0  0  0  0  0  0  0  0  0
  182.1450   24.3750   49.7350 C   0  0  0  0  0  0  0  0  0  0  0  0
  180.8050   24.0880   49.5380 C   0  0  0  0  0  0  0  0  0  0  0  0
  179.7720   25.1260   49.8480 C   0  0  0  0  0  0  0  0  0  0  0  0
  178.7370   24.5980   50.8430 C   0  0  0  0  0  0  0  0  0  0  0  0
  177.5960   23.8700   50.1530 C   0  0  0  0  0  0  0  0  0  0  0  0
  181.1364   15.4168   45.4368 H   0  0  0  0  0  0  0  0  0  0  0  0
  180.2045   14.9943   43.9604 H   0  0  0  0  0  0  0  0  0  0  0  0
  181.9959   14.8617   43.9604 H   0  0  0  0  0  0  0  0  0  0  0  0
  179.7504   17.2834   42.3499 H   0  0  0  0  0  0  0  0  0  0  0  0
  181.4193   17.7661   41.8933 H   0  0  0  0  0  0  0  0  0  0  0  0
  180.9544   16.0310   41.8933 H   0  0  0  0  0  0  0  0  0  0  0  0
  183.1830   16.5140   43.7520 H   0  0  0  0  0  0  0  0  0  0  0  0
  177.1366   18.4467   45.6830 H   0  0  0  0  0  0  0  0  0  0  0  0
  175.7527   19.9569   47.1339 H   0  0  0  0  0  0  0  0  0  0  0  0
  176.0450   22.0840   48.9060 H   0  0  0  0  0  0  0  0  0  0  0  0
  180.7444   20.4455   46.9673 H   0  0  0  0  0  0  0  0  0  0  0  0
  183.6400   20.4390   49.0190 H   0  0  0  0  0  0  0  0  0  0  0  0
  184.6800   21.6890   48.5030 H   0  0  0  0  0  0  0  0  0  0  0  0
  182.4043   25.3795   50.1007 H   0  0  0  0  0  0  0  0  0  0  0  0
  180.2679   26.0076   50.2803 H   0  0  0  0  0  0  0  0  0  0  0  0
  179.2538   25.3907   48.9145 H   0  0  0  0  0  0  0  0  0  0  0  0
  179.2339   23.9022   51.5351 H   0  0  0  0  0  0  0  0  0  0  0  0
  178.3126   25.4604   51.3779 H   0  0  0  0  0  0  0  0  0  0  0  0
  176.9455   23.4447   50.9314 H   0  0  0  0  0  0  0  0  0  0  0  0
  177.0986   24.6196   49.5200 H   0  0  0  0  0  0  0  0  0  0  0  0
  1  2  1  0
  2  3  1  0
  2  4  1  0
  2  5  1  0
  5  6  3  0
  6  7  1  0
  7  8  2  0
  8  9  1  0
  9 10  2  0
 10 11  1  0
 11 12  1  0
 12 13  2  0
 13 14  1  0
 14 15  2  0
 13 16  1  0
 16 17  2  0
 17 18  1  0
 18 19  1  0
 18 20  2  0
 20 21  1  0
 21 22  2  0
 22 23  1  0
 23 24  1  0
 24 25  1  0
 15  7  1  0
 22 16  1  0
 14 10  1  0
 25 12  1  0
  1 26  1  0
  1 27  1  0
  1 28  1  0
  3 29  1  0
  3 30  1  0
  3 31  1  0
  4 32  1  0
  8 33  1  0
  9 34  1  0
 11 35  1  0
 15 36  1  0
 19 37  1  0
 19 38  1  0
 21 39  1  0
 23 40  1  0
 23 41  1  0
 24 42  1  0
 24 43  1  0
 25 44  1  0
 25 45  1  0
M  END
>  <meeko>  (8) 
{"is_sidechain": [false], "free_energy": -6.205, "intermolecular_energy": -8.384, "internal_energy": 0.704}

$$$$
VP7_out
     RDKit          3D

 45 48  0  0  0  0  0  0  0  0999 V2000
  181.6380   20.0120   46.1910 C   0  0  0  0  0  0  0  0  0  0  0  0
  180.3250   19.5200   45.5850 C   0  0  0  0  0  0  0  0  0  0  0  0
  180.3430   18.0020   45.4190 C   0  0  0  0  0  0  0  0  0  0  0  0
  180.1890   20.0950   44.2860 O   0  0  0  0  0  0  0  0  0  0  0  0
  179.1840   19.9360   46.4150 C   0  0  0  0  0  0  0  0  0  0  0  0
  178.2560   20.2850   47.0940 C   0  0  0  0  0  0  0  0  0  0  0  0
  177.1520   20.7060   47.9020 C   0  0  0  0  0  0  0  0  0  0  0  0
  175.8950   20.1400   47.7080 C   0  0  0  0  0  0  0  0  0  0  0  0
  174.8020   20.5400   48.4820 C   0  0  0  0  0  0  0  0  0  0  0  0
  175.0200   21.5240   49.4550 C   0  0  0  0  0  0  0  0  0  0  0  0
  174.1400   22.0980   50.3330 N   0  0  0  0  0  0  0  0  0  0  0  0
  174.7580   23.0460   51.1190 C   0  0  0  0  0  0  0  0  0  0  0  0
  176.1030   23.0730   50.7570 C   0  0  0  0  0  0  0  0  0  0  0  0
  176.2610   22.1100   49.6870 C   0  0  0  0  0  0  0  0  0  0  0  0
  177.3460   21.6870   48.8820 C   0  0  0  0  0  0  0  0  0  0  0  0
  177.1510   23.9160   51.3530 C   0  0  0  0  0  0  0  0  0  0  0  0
  178.4040   23.4370   51.1700 N   0  0  0  0  0  0  0  0  0  0  0  0
  179.4250   24.1510   51.6350 C   0  0  0  0  0  0  0  0  0  0  0  0
  180.6950   23.6400   51.4560 N   0  0  0  0  0  0  0  0  0  0  0  0
  179.3090   25.2940   52.3010 N   0  0  0  0  0  0  0  0  0  0  0  0
  178.0560   25.7450   52.4800 C   0  0  0  0  0  0  0  0  0  0  0  0
  176.9160   25.0950   52.0370 C   0  0  0  0  0  0  0  0  0  0  0  0
  175.5710   25.6870   52.3200 C   0  0  0  0  0  0  0  0  0  0  0  0
  174.6690   24.6990   53.0540 C   0  0  0  0  0  0  0  0  0  0  0  0
  173.9140   23.7920   52.0970 C   0  0  0  0  0  0  0  0  0  0  0  0
  181.5679   19.9857   47.2885 H   0  0  0  0  0  0  0  0  0  0  0  0
  182.4610   19.3612   45.8605 H   0  0  0  0  0  0  0  0  0  0  0  0
  181.8307   21.0433   45.8605 H   0  0  0  0  0  0  0  0  0  0  0  0
  180.3487   17.5248   46.4101 H   0  0  0  0  0  0  0  0  0  0  0  0
  179.4486   17.6832   44.8637 H   0  0  0  0  0  0  0  0  0  0  0  0
  181.2447   17.7045   44.8637 H   0  0  0  0  0  0  0  0  0  0  0  0
  179.2760   19.9870   43.9780 H   0  0  0  0  0  0  0  0  0  0  0  0
  175.7602   19.3682   46.9358 H   0  0  0  0  0  0  0  0  0  0  0  0
  173.8060   20.0978   48.3324 H   0  0  0  0  0  0  0  0  0  0  0  0
  173.1860   21.8630   50.3950 H   0  0  0  0  0  0  0  0  0  0  0  0
  178.3426   22.1295   49.0266 H   0  0  0  0  0  0  0  0  0  0  0  0
  181.0280   23.4560   50.5480 H   0  0  0  0  0  0  0  0  0  0  0  0
  181.2670   23.4600   52.2370 H   0  0  0  0  0  0  0  0  0  0  0  0
  177.9266   26.6969   53.0158 H   0  0  0  0  0  0  0  0  0  0  0  0
  175.6993   26.5847   52.9427 H   0  0  0  0  0  0  0  0  0  0  0  0
  175.0966   25.9408   51.3606 H   0  0  0  0  0  0  0  0  0  0  0  0
  175.2894   24.0774   53.7164 H   0  0  0  0  0  0  0  0  0  0  0  0
  173.9289   25.2777   53.6261 H   0  0  0  0  0  0  0  0  0  0  0  0
  173.3577   23.0556   52.6956 H   0  0  0  0  0  0  0  0  0  0  0  0
  173.2706   24.4534   51.4981 H   0  0  0  0  0  0  0  0  0  0  0  0
  1  2  1  0
  2  3  1  0
  2  4  1  0
  2  5  1  0
  5  6  3  0
  6  7  1  0
  7  8  2  0
  8  9  1  0
  9 10  2  0
 10 11  1  0
 11 12  1  0
 12 13  2  0
 13 14  1  0
 14 15  2  0
 13 16  1  0
 16 17  2  0
 17 18  1  0
 18 19  1  0
 18 20  2  0
 20 21  1  0
 21 22  2  0
 22 23  1  0
 23 24  1  0
 24 25  1  0
 15  7  1  0
 22 16  1  0
 14 10  1  0
 25 12  1  0
  1 26  1  0
  1 27  1  0
  1 28  1  0
  3 29  1  0
  3 30  1  0
  3 31  1  0
  4 32  1  0
  8 33  1  0
  9 34  1  0
 11 35  1  0
 15 36  1  0
 19 37  1  0
 19 38  1  0
 21 39  1  0
 23 40  1  0
 23 41  1  0
 24 42  1  0
 24 43  1  0
 25 44  1  0
 25 45  1  0
M  END
>  <meeko>  (9) 
{"is_sidechain": [false], "free_energy": -6.06, "intermolecular_energy": -8.191, "internal_energy": 0.708}

$$$$
