9IV_ttbk1_out
     RDKit          3D

 37 40  0  0  0  0  0  0  0  0999 V2000
  178.5880   21.2410   51.1200 Cl  0  0  0  0  0  0  0  0  0  0  0  0
  178.2600   22.1720   49.7050 C   0  0  0  0  0  0  0  0  0  0  0  0
  177.1430   23.0110   49.7010 C   0  0  0  0  0  0  0  0  0  0  0  0
  176.8490   23.7790   48.5720 C   0  0  0  0  0  0  0  0  0  0  0  0
  177.6730   23.7130   47.4490 C   0  0  0  0  0  0  0  0  0  0  0  0
  178.7910   22.8760   47.4490 C   0  0  0  0  0  0  0  0  0  0  0  0
  179.0750   22.0890   48.5720 C   0  0  0  0  0  0  0  0  0  0  0  0
  180.1950   21.2880   48.6040 O   0  0  0  0  0  0  0  0  0  0  0  0
  180.4530   20.5290   47.4860 C   0  0  0  0  0  0  0  0  0  0  0  0
  181.6530   20.6000   46.7770 C   0  0  0  0  0  0  0  0  0  0  0  0
  181.8280   19.8190   45.6310 C   0  0  0  0  0  0  0  0  0  0  0  0
  180.8150   18.9630   45.1780 C   0  0  0  0  0  0  0  0  0  0  0  0
  181.0440   18.2240   43.9980 N   0  0  0  0  0  0  0  0  0  0  0  0
  180.9070   16.8410   43.8040 C   0  0  0  0  0  0  0  0  0  0  0  0
  180.5740   16.1030   44.8940 N   0  0  0  0  0  0  0  0  0  0  0  0
  180.4230   14.7710   44.7500 C   0  0  0  0  0  0  0  0  0  0  0  0
  180.5460   14.0370   43.6330 N   0  0  0  0  0  0  0  0  0  0  0  0
  180.8440   14.8070   42.5760 C   0  0  0  0  0  0  0  0  0  0  0  0
  181.0050   14.3430   41.3000 N   0  0  0  0  0  0  0  0  0  0  0  0
  181.2760   15.3900   40.4570 C   0  0  0  0  0  0  0  0  0  0  0  0
  181.2910   16.5430   41.2140 C   0  0  0  0  0  0  0  0  0  0  0  0
  181.0320   16.1810   42.5680 C   0  0  0  0  0  0  0  0  0  0  0  0
  179.6020   18.9380   45.8760 C   0  0  0  0  0  0  0  0  0  0  0  0
  179.4200   19.7160   47.0230 C   0  0  0  0  0  0  0  0  0  0  0  0
  176.4945   23.0668   50.5877 H   0  0  0  0  0  0  0  0  0  0  0  0
  175.9670   24.4363   48.5687 H   0  0  0  0  0  0  0  0  0  0  0  0
  177.4421   24.3210   46.5619 H   0  0  0  0  0  0  0  0  0  0  0  0
  179.4479   22.8350   46.5677 H   0  0  0  0  0  0  0  0  0  0  0  0
  182.4577   21.2677   47.1186 H   0  0  0  0  0  0  0  0  0  0  0  0
  182.7759   19.8772   45.0759 H   0  0  0  0  0  0  0  0  0  0  0  0
  181.3360   18.7440   43.2150 H   0  0  0  0  0  0  0  0  0  0  0  0
  180.1664   14.2152   45.6639 H   0  0  0  0  0  0  0  0  0  0  0  0
  180.9370   13.4000   41.0270 H   0  0  0  0  0  0  0  0  0  0  0  0
  181.4500   15.3226   39.3729 H   0  0  0  0  0  0  0  0  0  0  0  0
  181.4710   17.5614   40.8391 H   0  0  0  0  0  0  0  0  0  0  0  0
  178.7820   18.2984   45.5176 H   0  0  0  0  0  0  0  0  0  0  0  0
  178.4608   19.6865   47.5606 H   0  0  0  0  0  0  0  0  0  0  0  0
  1  2  1  0
  2  3  2  0
  3  4  1  0
  4  5  2  0
  5  6  1  0
  6  7  2  0
  7  8  1  0
  8  9  1  0
  9 10  2  0
 10 11  1  0
 11 12  2  0
 12 13  1  0
 13 14  1  0
 14 15  2  0
 15 16  1  0
 16 17  2  0
 17 18  1  0
 18 19  1  0
 19 20  1  0
 20 21  2  0
 21 22  1  0
 12 23  1  0
 23 24  2  0
  7  2  1  0
 24  9  1  0
 22 14  1  0
 22 18  2  0
  3 25  1  0
  4 26  1  0
  5 27  1  0
  6 28  1  0
 10 29  1  0
 11 30  1  0
 13 31  1  0
 16 32  1  0
 19 33  1  0
 20 34  1  0
 21 35  1  0
 23 36  1  0
 24 37  1  0
M  END
>  <meeko>  (1) 
{"is_sidechain": [false], "free_energy": -8.631, "intermolecular_energy": -10.65, "internal_energy": -0.31}

$$$$
9IV_ttbk1_out
     RDKit          3D

 37 40  0  0  0  0  0  0  0  0999 V2000
  178.8530   22.3360   50.6300 Cl  0  0  0  0  0  0  0  0  0  0  0  0
  177.6170   21.4420   49.8250 C   0  0  0  0  0  0  0  0  0  0  0  0
  176.5580   20.9350   50.5830 C   0  0  0  0  0  0  0  0  0  0  0  0
  175.5400   20.2080   49.9620 C   0  0  0  0  0  0  0  0  0  0  0  0
  175.5750   19.9920   48.5840 C   0  0  0  0  0  0  0  0  0  0  0  0
  176.6310   20.4980   47.8230 C   0  0  0  0  0  0  0  0  0  0  0  0
  177.6640   21.2090   48.4470 C   0  0  0  0  0  0  0  0  0  0  0  0
  178.6930   21.7490   47.7060 O   0  0  0  0  0  0  0  0  0  0  0  0
  179.3280   20.9150   46.8160 C   0  0  0  0  0  0  0  0  0  0  0  0
  178.8970   20.7330   45.5010 C   0  0  0  0  0  0  0  0  0  0  0  0
  179.5770   19.8430   44.6660 C   0  0  0  0  0  0  0  0  0  0  0  0
  180.6890   19.1250   45.1280 C   0  0  0  0  0  0  0  0  0  0  0  0
  181.3130   18.2200   44.2430 N   0  0  0  0  0  0  0  0  0  0  0  0
  180.9820   16.8770   44.0050 C   0  0  0  0  0  0  0  0  0  0  0  0
  180.5090   16.1690   45.0620 N   0  0  0  0  0  0  0  0  0  0  0  0
  180.1690   14.8780   44.8760 C   0  0  0  0  0  0  0  0  0  0  0  0
  180.2220   14.1610   43.7420 N   0  0  0  0  0  0  0  0  0  0  0  0
  180.6640   14.9040   42.7180 C   0  0  0  0  0  0  0  0  0  0  0  0
  180.7980   14.4530   41.4340 N   0  0  0  0  0  0  0  0  0  0  0  0
  181.2480   15.4690   40.6300 C   0  0  0  0  0  0  0  0  0  0  0  0
  181.4060   16.5880   41.4200 C   0  0  0  0  0  0  0  0  0  0  0  0
  181.0510   16.2360   42.7550 C   0  0  0  0  0  0  0  0  0  0  0  0
  181.0800   19.2860   46.4620 C   0  0  0  0  0  0  0  0  0  0  0  0
  180.4040   20.1750   47.3030 C   0  0  0  0  0  0  0  0  0  0  0  0
  176.5263   21.1085   51.6688 H   0  0  0  0  0  0  0  0  0  0  0  0
  174.7094   19.8051   50.5601 H   0  0  0  0  0  0  0  0  0  0  0  0
  174.7700   19.4225   48.0965 H   0  0  0  0  0  0  0  0  0  0  0  0
  176.6515   20.3384   46.7348 H   0  0  0  0  0  0  0  0  0  0  0  0
  178.0255   21.2881   45.1236 H   0  0  0  0  0  0  0  0  0  0  0  0
  179.2346   19.7034   43.6300 H   0  0  0  0  0  0  0  0  0  0  0  0
  182.0750   18.5750   43.7300 H   0  0  0  0  0  0  0  0  0  0  0  0
  179.8019   14.3447   45.7652 H   0  0  0  0  0  0  0  0  0  0  0  0
  180.6030   13.5370   41.1310 H   0  0  0  0  0  0  0  0  0  0  0  0
  181.4469   15.4031   39.5501 H   0  0  0  0  0  0  0  0  0  0  0  0
  181.7459   17.5774   41.0802 H   0  0  0  0  0  0  0  0  0  0  0  0
  181.9290   18.7064   46.8534 H   0  0  0  0  0  0  0  0  0  0  0  0
  180.7216   20.2905   48.3498 H   0  0  0  0  0  0  0  0  0  0  0  0
  1  2  1  0
  2  3  2  0
  3  4  1  0
  4  5  2  0
  5  6  1  0
  6  7  2  0
  7  8  1  0
  8  9  1  0
  9 10  2  0
 10 11  1  0
 11 12  2  0
 12 13  1  0
 13 14  1  0
 14 15  2  0
 15 16  1  0
 16 17  2  0
 17 18  1  0
 18 19  1  0
 19 20  1  0
 20 21  2  0
 21 22  1  0
 12 23  1  0
 23 24  2  0
  7  2  1  0
 24  9  1  0
 22 14  1  0
 22 18  2  0
  3 25  1  0
  4 26  1  0
  5 27  1  0
  6 28  1  0
 10 29  1  0
 11 30  1  0
 13 31  1  0
 16 32  1  0
 19 33  1  0
 20 34  1  0
 21 35  1  0
 23 36  1  0
 24 37  1  0
M  END
>  <meeko>  (2) 
{"is_sidechain": [false], "free_energy": -8.408, "intermolecular_energy": -10.11, "internal_energy": -0.575}

$$$$
9IV_ttbk1_out
     RDKit          3D

 37 40  0  0  0  0  0  0  0  0999 V2000
  175.1320   20.2890   48.4150 Cl  0  0  0  0  0  0  0  0  0  0  0  0
  176.4810   20.8840   49.3100 C   0  0  0  0  0  0  0  0  0  0  0  0
  176.4570   20.7820   50.7030 C   0  0  0  0  0  0  0  0  0  0  0  0
  177.5340   21.2530   51.4580 C   0  0  0  0  0  0  0  0  0  0  0  0
  178.6380   21.8200   50.8210 C   0  0  0  0  0  0  0  0  0  0  0  0
  178.6670   21.9220   49.4290 C   0  0  0  0  0  0  0  0  0  0  0  0
  177.5790   21.4710   48.6720 C   0  0  0  0  0  0  0  0  0  0  0  0
  177.6070   21.5280   47.2960 O   0  0  0  0  0  0  0  0  0  0  0  0
  178.4970   20.6980   46.6530 C   0  0  0  0  0  0  0  0  0  0  0  0
  179.7060   21.1460   46.1180 C   0  0  0  0  0  0  0  0  0  0  0  0
  180.5430   20.2470   45.4520 C   0  0  0  0  0  0  0  0  0  0  0  0
  180.1890   18.8980   45.3090 C   0  0  0  0  0  0  0  0  0  0  0  0
  181.0640   18.0500   44.6000 N   0  0  0  0  0  0  0  0  0  0  0  0
  180.8410   16.7270   44.1880 C   0  0  0  0  0  0  0  0  0  0  0  0
  180.4300   15.8530   45.1420 N   0  0  0  0  0  0  0  0  0  0  0  0
  180.1940   14.5740   44.7880 C   0  0  0  0  0  0  0  0  0  0  0  0
  180.2980   14.0160   43.5710 N   0  0  0  0  0  0  0  0  0  0  0  0
  180.6750   14.9190   42.6540 C   0  0  0  0  0  0  0  0  0  0  0  0
  180.8400   14.6490   41.3230 N   0  0  0  0  0  0  0  0  0  0  0  0
  181.2030   15.7940   40.6600 C   0  0  0  0  0  0  0  0  0  0  0  0
  181.2740   16.8100   41.5900 C   0  0  0  0  0  0  0  0  0  0  0  0
  180.9540   16.2600   42.8650 C   0  0  0  0  0  0  0  0  0  0  0  0
  178.9520   18.4770   45.8140 C   0  0  0  0  0  0  0  0  0  0  0  0
  178.1100   19.3710   46.4810 C   0  0  0  0  0  0  0  0  0  0  0  0
  175.5892   20.3304   51.2060 H   0  0  0  0  0  0  0  0  0  0  0  0
  177.5115   21.1767   52.5551 H   0  0  0  0  0  0  0  0  0  0  0  0
  179.4869   22.1872   51.4164 H   0  0  0  0  0  0  0  0  0  0  0  0
  179.5442   22.3565   48.9272 H   0  0  0  0  0  0  0  0  0  0  0  0
  179.9983   22.2015   46.2202 H   0  0  0  0  0  0  0  0  0  0  0  0
  181.4955   20.6036   45.0329 H   0  0  0  0  0  0  0  0  0  0  0  0
  181.9400   18.4330   44.3650 H   0  0  0  0  0  0  0  0  0  0  0  0
  179.8759   13.9021   45.5988 H   0  0  0  0  0  0  0  0  0  0  0  0
  180.7160   13.7680   40.9040 H   0  0  0  0  0  0  0  0  0  0  0  0
  181.4015   15.8852   39.5819 H   0  0  0  0  0  0  0  0  0  0  0  0
  181.5320   17.8593   41.3840 H   0  0  0  0  0  0  0  0  0  0  0  0
  178.6397   17.4303   45.6840 H   0  0  0  0  0  0  0  0  0  0  0  0
  177.1407   19.0264   46.8705 H   0  0  0  0  0  0  0  0  0  0  0  0
  1  2  1  0
  2  3  2  0
  3  4  1  0
  4  5  2  0
  5  6  1  0
  6  7  2  0
  7  8  1  0
  8  9  1  0
  9 10  2  0
 10 11  1  0
 11 12  2  0
 12 13  1  0
 13 14  1  0
 14 15  2  0
 15 16  1  0
 16 17  2  0
 17 18  1  0
 18 19  1  0
 19 20  1  0
 20 21  2  0
 21 22  1  0
 12 23  1  0
 23 24  2  0
  7  2  1  0
 24  9  1  0
 22 14  1  0
 22 18  2  0
  3 25  1  0
  4 26  1  0
  5 27  1  0
  6 28  1  0
 10 29  1  0
 11 30  1  0
 13 31  1  0
 16 32  1  0
 19 33  1  0
 20 34  1  0
 21 35  1  0
 23 36  1  0
 24 37  1  0
M  END
>  <meeko>  (3) 
{"is_sidechain": [false], "free_energy": -8.357, "intermolecular_energy": -10.151, "internal_energy": -0.471}

$$$$
9IV_ttbk1_out
     RDKit          3D

 37 40  0  0  0  0  0  0  0  0999 V2000
  180.8950   14.2500   44.9920 Cl  0  0  0  0  0  0  0  0  0  0  0  0
  180.8430   15.1800   43.5400 C   0  0  0  0  0  0  0  0  0  0  0  0
  180.4550   14.5490   42.3560 C   0  0  0  0  0  0  0  0  0  0  0  0
  180.4000   15.2740   41.1630 C   0  0  0  0  0  0  0  0  0  0  0  0
  180.7270   16.6300   41.1540 C   0  0  0  0  0  0  0  0  0  0  0  0
  181.1150   17.2640   42.3350 C   0  0  0  0  0  0  0  0  0  0  0  0
  181.1910   16.5350   43.5280 C   0  0  0  0  0  0  0  0  0  0  0  0
  181.5330   17.1530   44.7110 O   0  0  0  0  0  0  0  0  0  0  0  0
  180.7420   18.2010   45.1210 C   0  0  0  0  0  0  0  0  0  0  0  0
  181.1510   19.5340   45.0610 C   0  0  0  0  0  0  0  0  0  0  0  0
  180.3010   20.5410   45.5260 C   0  0  0  0  0  0  0  0  0  0  0  0
  179.0390   20.2350   46.0550 C   0  0  0  0  0  0  0  0  0  0  0  0
  178.2420   21.2950   46.5350 N   0  0  0  0  0  0  0  0  0  0  0  0
  177.9990   21.6590   47.8690 C   0  0  0  0  0  0  0  0  0  0  0  0
  178.6990   22.7200   48.3470 N   0  0  0  0  0  0  0  0  0  0  0  0
  178.4900   23.1120   49.6200 C   0  0  0  0  0  0  0  0  0  0  0  0
  177.6420   22.5890   50.5210 N   0  0  0  0  0  0  0  0  0  0  0  0
  176.9500   21.5660   49.9990 C   0  0  0  0  0  0  0  0  0  0  0  0
  175.9950   20.8540   50.6710 N   0  0  0  0  0  0  0  0  0  0  0  0
  175.4630   19.8970   49.8450 C   0  0  0  0  0  0  0  0  0  0  0  0
  176.0960   20.0000   48.6240 C   0  0  0  0  0  0  0  0  0  0  0  0
  177.0560   21.0510   48.7160 C   0  0  0  0  0  0  0  0  0  0  0  0
  178.6640   18.8890   46.1480 C   0  0  0  0  0  0  0  0  0  0  0  0
  179.5090   17.8770   45.6850 C   0  0  0  0  0  0  0  0  0  0  0  0
  180.1926   13.4808   42.3628 H   0  0  0  0  0  0  0  0  0  0  0  0
  180.0986   14.7751   40.2301 H   0  0  0  0  0  0  0  0  0  0  0  0
  180.6790   17.2003   40.2146 H   0  0  0  0  0  0  0  0  0  0  0  0
  181.3611   18.3361   42.3287 H   0  0  0  0  0  0  0  0  0  0  0  0
  182.1382   19.7909   44.6494 H   0  0  0  0  0  0  0  0  0  0  0  0
  180.6271   21.5904   45.4762 H   0  0  0  0  0  0  0  0  0  0  0  0
  177.8010   21.8470   45.8500 H   0  0  0  0  0  0  0  0  0  0  0  0
  179.0893   23.9678   49.9641 H   0  0  0  0  0  0  0  0  0  0  0  0
  175.7290   21.0050   51.6070 H   0  0  0  0  0  0  0  0  0  0  0  0
  174.6740   19.1773   50.1087 H   0  0  0  0  0  0  0  0  0  0  0  0
  175.8960   19.3814   47.7367 H   0  0  0  0  0  0  0  0  0  0  0  0
  177.6923   18.6251   46.5910 H   0  0  0  0  0  0  0  0  0  0  0  0
  179.2011   16.8241   45.7656 H   0  0  0  0  0  0  0  0  0  0  0  0
  1  2  1  0
  2  3  2  0
  3  4  1  0
  4  5  2  0
  5  6  1  0
  6  7  2  0
  7  8  1  0
  8  9  1  0
  9 10  2  0
 10 11  1  0
 11 12  2  0
 12 13  1  0
 13 14  1  0
 14 15  2  0
 15 16  1  0
 16 17  2  0
 17 18  1  0
 18 19  1  0
 19 20  1  0
 20 21  2  0
 21 22  1  0
 12 23  1  0
 23 24  2  0
  7  2  1  0
 24  9  1  0
 22 14  1  0
 22 18  2  0
  3 25  1  0
  4 26  1  0
  5 27  1  0
  6 28  1  0
 10 29  1  0
 11 30  1  0
 13 31  1  0
 16 32  1  0
 19 33  1  0
 20 34  1  0
 21 35  1  0
 23 36  1  0
 24 37  1  0
M  END
>  <meeko>  (4) 
{"is_sidechain": [false], "free_energy": -8.262, "intermolecular_energy": -9.596, "internal_energy": -0.909}

$$$$
9IV_ttbk1_out
     RDKit          3D

 37 40  0  0  0  0  0  0  0  0999 V2000
  180.8510   14.3600   45.0680 Cl  0  0  0  0  0  0  0  0  0  0  0  0
  180.8310   15.2390   43.5840 C   0  0  0  0  0  0  0  0  0  0  0  0
  180.4360   14.5750   42.4200 C   0  0  0  0  0  0  0  0  0  0  0  0
  180.4070   15.2570   41.2010 C   0  0  0  0  0  0  0  0  0  0  0  0
  180.7670   16.6040   41.1460 C   0  0  0  0  0  0  0  0  0  0  0  0
  181.1620   17.2710   42.3070 C   0  0  0  0  0  0  0  0  0  0  0  0
  181.2120   16.5830   43.5260 C   0  0  0  0  0  0  0  0  0  0  0  0
  181.5620   17.2350   44.6880 O   0  0  0  0  0  0  0  0  0  0  0  0
  180.7230   18.2370   45.1190 C   0  0  0  0  0  0  0  0  0  0  0  0
  181.0550   19.5910   45.0490 C   0  0  0  0  0  0  0  0  0  0  0  0
  180.1620   20.5490   45.5370 C   0  0  0  0  0  0  0  0  0  0  0  0
  178.9340   20.1730   46.1000 C   0  0  0  0  0  0  0  0  0  0  0  0
  178.0910   21.1870   46.6010 N   0  0  0  0  0  0  0  0  0  0  0  0
  177.0760   21.0700   47.5630 C   0  0  0  0  0  0  0  0  0  0  0  0
  175.8540   20.6870   47.1150 N   0  0  0  0  0  0  0  0  0  0  0  0
  174.8520   20.5520   48.0070 C   0  0  0  0  0  0  0  0  0  0  0  0
  174.8920   20.7390   49.3360 N   0  0  0  0  0  0  0  0  0  0  0  0
  176.1230   21.0850   49.7400 C   0  0  0  0  0  0  0  0  0  0  0  0
  176.4750   21.3150   51.0420 N   0  0  0  0  0  0  0  0  0  0  0  0
  177.8100   21.6220   51.1130 C   0  0  0  0  0  0  0  0  0  0  0  0
  178.3150   21.5900   49.8300 C   0  0  0  0  0  0  0  0  0  0  0  0
  177.2460   21.2630   48.9460 C   0  0  0  0  0  0  0  0  0  0  0  0
  178.6380   18.8080   46.2010 C   0  0  0  0  0  0  0  0  0  0  0  0
  179.5260   17.8450   45.7160 C   0  0  0  0  0  0  0  0  0  0  0  0
  180.1476   13.5144   42.4633 H   0  0  0  0  0  0  0  0  0  0  0  0
  180.1003   14.7320   40.2844 H   0  0  0  0  0  0  0  0  0  0  0  0
  180.7395   17.1411   40.1864 H   0  0  0  0  0  0  0  0  0  0  0  0
  181.4338   18.3361   42.2645 H   0  0  0  0  0  0  0  0  0  0  0  0
  182.0151   19.9026   44.6118 H   0  0  0  0  0  0  0  0  0  0  0  0
  180.4267   21.6151   45.4785 H   0  0  0  0  0  0  0  0  0  0  0  0
  178.2320   22.0870   46.2290 H   0  0  0  0  0  0  0  0  0  0  0  0
  173.8783   20.2504   47.5935 H   0  0  0  0  0  0  0  0  0  0  0  0
  175.8630   21.2680   51.8110 H   0  0  0  0  0  0  0  0  0  0  0  0
  178.3756   21.8521   52.0279 H   0  0  0  0  0  0  0  0  0  0  0  0
  179.3585   21.7828   49.5402 H   0  0  0  0  0  0  0  0  0  0  0  0
  177.6942   18.4901   46.6682 H   0  0  0  0  0  0  0  0  0  0  0  0
  179.2805   16.7765   45.8053 H   0  0  0  0  0  0  0  0  0  0  0  0
  1  2  1  0
  2  3  2  0
  3  4  1  0
  4  5  2  0
  5  6  1  0
  6  7  2  0
  7  8  1  0
  8  9  1  0
  9 10  2  0
 10 11  1  0
 11 12  2  0
 12 13  1  0
 13 14  1  0
 14 15  2  0
 15 16  1  0
 16 17  2  0
 17 18  1  0
 18 19  1  0
 19 20  1  0
 20 21  2  0
 21 22  1  0
 12 23  1  0
 23 24  2  0
  7  2  1  0
 24  9  1  0
 22 14  1  0
 22 18  2  0
  3 25  1  0
  4 26  1  0
  5 27  1  0
  6 28  1  0
 10 29  1  0
 11 30  1  0
 13 31  1  0
 16 32  1  0
 19 33  1  0
 20 34  1  0
 21 35  1  0
 23 36  1  0
 24 37  1  0
M  END
>  <meeko>  (5) 
{"is_sidechain": [false], "free_energy": -8.213, "intermolecular_energy": -9.594, "internal_energy": -0.849}

$$$$
9IV_ttbk1_out
     RDKit          3D

 37 40  0  0  0  0  0  0  0  0999 V2000
  178.5010   23.8810   47.2950 Cl  0  0  0  0  0  0  0  0  0  0  0  0
  179.6790   23.5790   48.5190 C   0  0  0  0  0  0  0  0  0  0  0  0
  180.4380   24.6500   48.9950 C   0  0  0  0  0  0  0  0  0  0  0  0
  181.4000   24.4390   49.9860 C   0  0  0  0  0  0  0  0  0  0  0  0
  181.5980   23.1600   50.5070 C   0  0  0  0  0  0  0  0  0  0  0  0
  180.8400   22.0870   50.0340 C   0  0  0  0  0  0  0  0  0  0  0  0
  179.8910   22.2920   49.0250 C   0  0  0  0  0  0  0  0  0  0  0  0
  179.1070   21.2520   48.5750 O   0  0  0  0  0  0  0  0  0  0  0  0
  179.6110   20.4880   47.5480 C   0  0  0  0  0  0  0  0  0  0  0  0
  180.9780   20.3090   47.3320 C   0  0  0  0  0  0  0  0  0  0  0  0
  181.4130   19.5420   46.2480 C   0  0  0  0  0  0  0  0  0  0  0  0
  180.4970   18.9480   45.3680 C   0  0  0  0  0  0  0  0  0  0  0  0
  181.0020   18.2120   44.2760 N   0  0  0  0  0  0  0  0  0  0  0  0
  180.8370   16.8450   44.0050 C   0  0  0  0  0  0  0  0  0  0  0  0
  180.4640   16.0580   45.0470 N   0  0  0  0  0  0  0  0  0  0  0  0
  180.2850   14.7400   44.8300 C   0  0  0  0  0  0  0  0  0  0  0  0
  180.4150   14.0630   43.6780 N   0  0  0  0  0  0  0  0  0  0  0  0
  180.7530   14.8800   42.6700 C   0  0  0  0  0  0  0  0  0  0  0  0
  180.9310   14.4810   41.3740 N   0  0  0  0  0  0  0  0  0  0  0  0
  181.2450   15.5650   40.5940 C   0  0  0  0  0  0  0  0  0  0  0  0
  181.2700   16.6750   41.4120 C   0  0  0  0  0  0  0  0  0  0  0  0
  180.9730   16.2480   42.7390 C   0  0  0  0  0  0  0  0  0  0  0  0
  179.1310   19.1760   45.5750 C   0  0  0  0  0  0  0  0  0  0  0  0
  178.6890   19.9420   46.6580 C   0  0  0  0  0  0  0  0  0  0  0  0
  180.2785   25.6601   48.5897 H   0  0  0  0  0  0  0  0  0  0  0  0
  182.0019   25.2822   50.3558 H   0  0  0  0  0  0  0  0  0  0  0  0
  182.3520   22.9967   51.2911 H   0  0  0  0  0  0  0  0  0  0  0  0
  180.9883   21.0811   50.4538 H   0  0  0  0  0  0  0  0  0  0  0  0
  181.7098   20.7696   48.0120 H   0  0  0  0  0  0  0  0  0  0  0  0
  182.4914   19.4019   46.0823 H   0  0  0  0  0  0  0  0  0  0  0  0
  181.5360   18.7200   43.6240 H   0  0  0  0  0  0  0  0  0  0  0  0
  179.9958   14.1435   45.7078 H   0  0  0  0  0  0  0  0  0  0  0  0
  180.8470   13.5550   41.0490 H   0  0  0  0  0  0  0  0  0  0  0  0
  181.4413   15.5513   39.5118 H   0  0  0  0  0  0  0  0  0  0  0  0
  181.4817   17.7072   41.0962 H   0  0  0  0  0  0  0  0  0  0  0  0
  178.3967   18.7473   44.8771 H   0  0  0  0  0  0  0  0  0  0  0  0
  177.6127   20.1135   46.8072 H   0  0  0  0  0  0  0  0  0  0  0  0
  1  2  1  0
  2  3  2  0
  3  4  1  0
  4  5  2  0
  5  6  1  0
  6  7  2  0
  7  8  1  0
  8  9  1  0
  9 10  2  0
 10 11  1  0
 11 12  2  0
 12 13  1  0
 13 14  1  0
 14 15  2  0
 15 16  1  0
 16 17  2  0
 17 18  1  0
 18 19  1  0
 19 20  1  0
 20 21  2  0
 21 22  1  0
 12 23  1  0
 23 24  2  0
  7  2  1  0
 24  9  1  0
 22 14  1  0
 22 18  2  0
  3 25  1  0
  4 26  1  0
  5 27  1  0
  6 28  1  0
 10 29  1  0
 11 30  1  0
 13 31  1  0
 16 32  1  0
 19 33  1  0
 20 34  1  0
 21 35  1  0
 23 36  1  0
 24 37  1  0
M  END
>  <meeko>  (6) 
{"is_sidechain": [false], "free_energy": -8.039, "intermolecular_energy": -9.707, "internal_energy": -0.522}

$$$$
9IV_ttbk1_out
     RDKit          3D

 37 40  0  0  0  0  0  0  0  0999 V2000
  180.0200   17.4300   45.3790 Cl  0  0  0  0  0  0  0  0  0  0  0  0
  180.2290   19.0240   46.0030 C   0  0  0  0  0  0  0  0  0  0  0  0
  181.5030   19.5970   45.9620 C   0  0  0  0  0  0  0  0  0  0  0  0
  181.7060   20.8860   46.4580 C   0  0  0  0  0  0  0  0  0  0  0  0
  180.6370   21.6070   46.9900 C   0  0  0  0  0  0  0  0  0  0  0  0
  179.3620   21.0390   47.0330 C   0  0  0  0  0  0  0  0  0  0  0  0
  179.1600   19.7380   46.5550 C   0  0  0  0  0  0  0  0  0  0  0  0
  177.9020   19.1770   46.5530 O   0  0  0  0  0  0  0  0  0  0  0  0
  176.9190   19.8440   47.2470 C   0  0  0  0  0  0  0  0  0  0  0  0
  176.5680   19.5310   48.5610 C   0  0  0  0  0  0  0  0  0  0  0  0
  175.5360   20.2340   49.1870 C   0  0  0  0  0  0  0  0  0  0  0  0
  174.8420   21.2520   48.5170 C   0  0  0  0  0  0  0  0  0  0  0  0
  173.7910   21.9020   49.1960 N   0  0  0  0  0  0  0  0  0  0  0  0
  173.6440   23.2750   49.4490 C   0  0  0  0  0  0  0  0  0  0  0  0
  172.4000   23.7940   49.2880 N   0  0  0  0  0  0  0  0  0  0  0  0
  172.2110   25.1070   49.5310 C   0  0  0  0  0  0  0  0  0  0  0  0
  173.1120   26.0140   49.9400 N   0  0  0  0  0  0  0  0  0  0  0  0
  174.3180   25.4540   50.1170 C   0  0  0  0  0  0  0  0  0  0  0  0
  175.4270   26.1240   50.5550 N   0  0  0  0  0  0  0  0  0  0  0  0
  176.4850   25.2560   50.6510 C   0  0  0  0  0  0  0  0  0  0  0  0
  176.0390   24.0100   50.2640 C   0  0  0  0  0  0  0  0  0  0  0  0
  174.6640   24.1280   49.9080 C   0  0  0  0  0  0  0  0  0  0  0  0
  175.1780   21.5210   47.1850 C   0  0  0  0  0  0  0  0  0  0  0  0
  176.2090   20.8220   46.5520 C   0  0  0  0  0  0  0  0  0  0  0  0
  182.3464   19.0319   45.5386 H   0  0  0  0  0  0  0  0  0  0  0  0
  182.7103   21.3337   46.4293 H   0  0  0  0  0  0  0  0  0  0  0  0
  180.7985   22.6243   47.3761 H   0  0  0  0  0  0  0  0  0  0  0  0
  178.5172   21.6127   47.4418 H   0  0  0  0  0  0  0  0  0  0  0  0
  177.1013   18.7347   49.1009 H   0  0  0  0  0  0  0  0  0  0  0  0
  175.2630   19.9849   50.2231 H   0  0  0  0  0  0  0  0  0  0  0  0
  173.0710   21.3210   49.5340 H   0  0  0  0  0  0  0  0  0  0  0  0
  171.1889   25.4822   49.3741 H   0  0  0  0  0  0  0  0  0  0  0  0
  175.4620   27.0850   50.7670 H   0  0  0  0  0  0  0  0  0  0  0  0
  177.5046   25.5084   50.9776 H   0  0  0  0  0  0  0  0  0  0  0  0
  176.6383   23.0881   50.2351 H   0  0  0  0  0  0  0  0  0  0  0  0
  174.6236   22.2921   46.6299 H   0  0  0  0  0  0  0  0  0  0  0  0
  176.4607   21.0436   45.5044 H   0  0  0  0  0  0  0  0  0  0  0  0
  1  2  1  0
  2  3  2  0
  3  4  1  0
  4  5  2  0
  5  6  1  0
  6  7  2  0
  7  8  1  0
  8  9  1  0
  9 10  2  0
 10 11  1  0
 11 12  2  0
 12 13  1  0
 13 14  1  0
 14 15  2  0
 15 16  1  0
 16 17  2  0
 17 18  1  0
 18 19  1  0
 19 20  1  0
 20 21  2  0
 21 22  1  0
 12 23  1  0
 23 24  2  0
  7  2  1  0
 24  9  1  0
 22 14  1  0
 22 18  2  0
  3 25  1  0
  4 26  1  0
  5 27  1  0
  6 28  1  0
 10 29  1  0
 11 30  1  0
 13 31  1  0
 16 32  1  0
 19 33  1  0
 20 34  1  0
 21 35  1  0
 23 36  1  0
 24 37  1  0
M  END
>  <meeko>  (7) 
{"is_sidechain": [false], "free_energy": -7.777, "intermolecular_energy": -9.297, "internal_energy": -0.609}

$$$$
9IV_ttbk1_out
     RDKit          3D

 37 40  0  0  0  0  0  0  0  0999 V2000
  182.9760   22.9650   51.1120 Cl  0  0  0  0  0  0  0  0  0  0  0  0
  183.6720   23.5900   49.6630 C   0  0  0  0  0  0  0  0  0  0  0  0
  184.2610   24.8570   49.6970 C   0  0  0  0  0  0  0  0  0  0  0  0
  184.8350   25.3910   48.5410 C   0  0  0  0  0  0  0  0  0  0  0  0
  184.8270   24.6600   47.3530 C   0  0  0  0  0  0  0  0  0  0  0  0
  184.2400   23.3930   47.3160 C   0  0  0  0  0  0  0  0  0  0  0  0
  183.6450   22.8640   48.4680 C   0  0  0  0  0  0  0  0  0  0  0  0
  183.0960   21.6000   48.4590 O   0  0  0  0  0  0  0  0  0  0  0  0
  181.8990   21.4430   47.7990 C   0  0  0  0  0  0  0  0  0  0  0  0
  180.8620   22.3740   47.8690 C   0  0  0  0  0  0  0  0  0  0  0  0
  179.6630   22.1270   47.1950 C   0  0  0  0  0  0  0  0  0  0  0  0
  179.4820   20.9550   46.4470 C   0  0  0  0  0  0  0  0  0  0  0  0
  178.2380   20.7520   45.8150 N   0  0  0  0  0  0  0  0  0  0  0  0
  177.0800   20.1690   46.3520 C   0  0  0  0  0  0  0  0  0  0  0  0
  176.8040   18.8960   45.9680 N   0  0  0  0  0  0  0  0  0  0  0  0
  175.7070   18.2940   46.4680 C   0  0  0  0  0  0  0  0  0  0  0  0
  174.8130   18.7870   47.3400 N   0  0  0  0  0  0  0  0  0  0  0  0
  175.1390   20.0320   47.7170 C   0  0  0  0  0  0  0  0  0  0  0  0
  174.4300   20.7800   48.6160 N   0  0  0  0  0  0  0  0  0  0  0  0
  175.0450   21.9930   48.7970 C   0  0  0  0  0  0  0  0  0  0  0  0
  176.1660   22.0160   47.9940 C   0  0  0  0  0  0  0  0  0  0  0  0
  176.2270   20.7780   47.2910 C   0  0  0  0  0  0  0  0  0  0  0  0
  180.5170   20.0120   46.4240 C   0  0  0  0  0  0  0  0  0  0  0  0
  181.7190   20.2530   47.0970 C   0  0  0  0  0  0  0  0  0  0  0  0
  184.2725   25.4334   50.6338 H   0  0  0  0  0  0  0  0  0  0  0  0
  185.2944   26.3901   48.5675 H   0  0  0  0  0  0  0  0  0  0  0  0
  185.2831   25.0814   46.4450 H   0  0  0  0  0  0  0  0  0  0  0  0
  184.2451   22.8111   46.3825 H   0  0  0  0  0  0  0  0  0  0  0  0
  180.9877   23.2982   48.4521 H   0  0  0  0  0  0  0  0  0  0  0  0
  178.8482   22.8638   47.2522 H   0  0  0  0  0  0  0  0  0  0  0  0
  178.1740   21.0570   44.8810 H   0  0  0  0  0  0  0  0  0  0  0  0
  175.5202   17.2683   46.1171 H   0  0  0  0  0  0  0  0  0  0  0  0
  173.6020   20.4930   49.0650 H   0  0  0  0  0  0  0  0  0  0  0  0
  174.7055   22.8008   49.4620 H   0  0  0  0  0  0  0  0  0  0  0  0
  176.8858   22.8437   47.9109 H   0  0  0  0  0  0  0  0  0  0  0  0
  180.3830   19.0710   45.8703 H   0  0  0  0  0  0  0  0  0  0  0  0
  182.5229   19.5026   47.0721 H   0  0  0  0  0  0  0  0  0  0  0  0
  1  2  1  0
  2  3  2  0
  3  4  1  0
  4  5  2  0
  5  6  1  0
  6  7  2  0
  7  8  1  0
  8  9  1  0
  9 10  2  0
 10 11  1  0
 11 12  2  0
 12 13  1  0
 13 14  1  0
 14 15  2  0
 15 16  1  0
 16 17  2  0
 17 18  1  0
 18 19  1  0
 19 20  1  0
 20 21  2  0
 21 22  1  0
 12 23  1  0
 23 24  2  0
  7  2  1  0
 24  9  1  0
 22 14  1  0
 22 18  2  0
  3 25  1  0
  4 26  1  0
  5 27  1  0
  6 28  1  0
 10 29  1  0
 11 30  1  0
 13 31  1  0
 16 32  1  0
 19 33  1  0
 20 34  1  0
 21 35  1  0
 23 36  1  0
 24 37  1  0
M  END
>  <meeko>  (8) 
{"is_sidechain": [false], "free_energy": -7.553, "intermolecular_energy": -8.752, "internal_energy": -0.877}

$$$$
9IV_ttbk1_out
     RDKit          3D

 37 40  0  0  0  0  0  0  0  0999 V2000
  174.3140   24.1250   52.7950 Cl  0  0  0  0  0  0  0  0  0  0  0  0
  173.3440   24.3990   51.3950 C   0  0  0  0  0  0  0  0  0  0  0  0
  172.5760   25.5650   51.3310 C   0  0  0  0  0  0  0  0  0  0  0  0
  171.7810   25.8170   50.2110 C   0  0  0  0  0  0  0  0  0  0  0  0
  171.7570   24.9090   49.1520 C   0  0  0  0  0  0  0  0  0  0  0  0
  172.5230   23.7440   49.2120 C   0  0  0  0  0  0  0  0  0  0  0  0
  173.3040   23.4780   50.3430 C   0  0  0  0  0  0  0  0  0  0  0  0
  174.0970   22.3520   50.4020 O   0  0  0  0  0  0  0  0  0  0  0  0
  175.1230   22.2620   49.4910 C   0  0  0  0  0  0  0  0  0  0  0  0
  176.0620   23.2760   49.2970 C   0  0  0  0  0  0  0  0  0  0  0  0
  177.0580   23.1220   48.3290 C   0  0  0  0  0  0  0  0  0  0  0  0
  177.1300   21.9620   47.5440 C   0  0  0  0  0  0  0  0  0  0  0  0
  178.1420   21.8820   46.5640 N   0  0  0  0  0  0  0  0  0  0  0  0
  179.2720   21.0490   46.5530 C   0  0  0  0  0  0  0  0  0  0  0  0
  179.4970   20.3430   45.4160 N   0  0  0  0  0  0  0  0  0  0  0  0
  180.5760   19.5390   45.3580 C   0  0  0  0  0  0  0  0  0  0  0  0
  181.5110   19.3340   46.3000 N   0  0  0  0  0  0  0  0  0  0  0  0
  181.2690   20.0730   47.3920 C   0  0  0  0  0  0  0  0  0  0  0  0
  182.0640   20.0930   48.5050 N   0  0  0  0  0  0  0  0  0  0  0  0
  181.5480   20.9700   49.4260 C   0  0  0  0  0  0  0  0  0  0  0  0
  180.4010   21.5150   48.8880 C   0  0  0  0  0  0  0  0  0  0  0  0
  180.2060   20.9390   47.5990 C   0  0  0  0  0  0  0  0  0  0  0  0
  176.1540   20.9750   47.7220 C   0  0  0  0  0  0  0  0  0  0  0  0
  175.1550   21.1230   48.6880 C   0  0  0  0  0  0  0  0  0  0  0  0
  172.5978   26.2842   52.1630 H   0  0  0  0  0  0  0  0  0  0  0  0
  171.1730   26.7325   50.1636 H   0  0  0  0  0  0  0  0  0  0  0  0
  171.1336   25.1116   48.2687 H   0  0  0  0  0  0  0  0  0  0  0  0
  172.5131   23.0350   48.3710 H   0  0  0  0  0  0  0  0  0  0  0  0
  176.0183   24.1926   49.9035 H   0  0  0  0  0  0  0  0  0  0  0  0
  177.7971   23.9231   48.1804 H   0  0  0  0  0  0  0  0  0  0  0  0
  178.0430   22.4860   45.7920 H   0  0  0  0  0  0  0  0  0  0  0  0
  180.7082   18.9794   44.4203 H   0  0  0  0  0  0  0  0  0  0  0  0
  182.8820   19.5600   48.6280 H   0  0  0  0  0  0  0  0  0  0  0  0
  181.9727   21.1972   50.4149 H   0  0  0  0  0  0  0  0  0  0  0  0
  179.7518   22.2618   49.3685 H   0  0  0  0  0  0  0  0  0  0  0  0
  176.1734   20.0720   47.0941 H   0  0  0  0  0  0  0  0  0  0  0  0
  174.3931   20.3398   48.8148 H   0  0  0  0  0  0  0  0  0  0  0  0
  1  2  1  0
  2  3  2  0
  3  4  1  0
  4  5  2  0
  5  6  1  0
  6  7  2  0
  7  8  1  0
  8  9  1  0
  9 10  2  0
 10 11  1  0
 11 12  2  0
 12 13  1  0
 13 14  1  0
 14 15  2  0
 15 16  1  0
 16 17  2  0
 17 18  1  0
 18 19  1  0
 19 20  1  0
 20 21  2  0
 21 22  1  0
 12 23  1  0
 23 24  2  0
  7  2  1  0
 24  9  1  0
 22 14  1  0
 22 18  2  0
  3 25  1  0
  4 26  1  0
  5 27  1  0
  6 28  1  0
 10 29  1  0
 11 30  1  0
 13 31  1  0
 16 32  1  0
 19 33  1  0
 20 34  1  0
 21 35  1  0
 23 36  1  0
 24 37  1  0
M  END
>  <meeko>  (9) 
{"is_sidechain": [false], "free_energy": -7.419, "intermolecular_energy": -8.516, "internal_energy": -0.948}

$$$$
