DTQ_out
     RDKit          3D

 37 39  0  0  0  0  0  0  0  0999 V2000
  177.6720   23.6860   47.6920 C   0  0  0  0  0  0  0  0  0  0  0  0
  176.9120   22.5120   47.4270 O   0  0  0  0  0  0  0  0  0  0  0  0
  177.6200   21.4240   46.9830 C   0  0  0  0  0  0  0  0  0  0  0  0
  178.9690   21.7020   46.7220 C   0  0  0  0  0  0  0  0  0  0  0  0
  179.8560   20.7350   46.2750 C   0  0  0  0  0  0  0  0  0  0  0  0
  181.1200   21.0910   46.0210 N   0  0  0  0  0  0  0  0  0  0  0  0
  181.9380   20.1360   45.5660 C   0  0  0  0  0  0  0  0  0  0  0  0
  181.6180   18.8560   45.3610 N   0  0  0  0  0  0  0  0  0  0  0  0
  180.3530   18.5080   45.6540 C   0  0  0  0  0  0  0  0  0  0  0  0
  180.0650   17.1390   45.4520 N   0  0  0  0  0  0  0  0  0  0  0  0
  180.4140   16.3710   44.3090 C   0  0  0  0  0  0  0  0  0  0  0  0
  180.4450   14.9690   44.3140 C   0  0  0  0  0  0  0  0  0  0  0  0
  180.8390   14.2630   43.1750 C   0  0  0  0  0  0  0  0  0  0  0  0
  181.2250   14.9500   42.0270 C   0  0  0  0  0  0  0  0  0  0  0  0
  181.2260   16.3390   42.0280 C   0  0  0  0  0  0  0  0  0  0  0  0
  181.6230   16.9740   40.8890 O   0  0  0  0  0  0  0  0  0  0  0  0
  180.8370   17.0530   43.1600 C   0  0  0  0  0  0  0  0  0  0  0  0
  179.3880   19.4310   46.1010 C   0  0  0  0  0  0  0  0  0  0  0  0
  178.0210   19.1410   46.3640 C   0  0  0  0  0  0  0  0  0  0  0  0
  177.1390   20.1200   46.8310 C   0  0  0  0  0  0  0  0  0  0  0  0
  175.8330   19.8690   47.1540 O   0  0  0  0  0  0  0  0  0  0  0  0
  175.5400   19.5490   48.5100 C   0  0  0  0  0  0  0  0  0  0  0  0
  177.7628   23.8263   48.7792 H   0  0  0  0  0  0  0  0  0  0  0  0
  178.6742   23.5814   47.2508 H   0  0  0  0  0  0  0  0  0  0  0  0
  177.1663   24.5575   47.2508 H   0  0  0  0  0  0  0  0  0  0  0  0
  179.3377   22.7266   46.8778 H   0  0  0  0  0  0  0  0  0  0  0  0
  182.9725   20.4331   45.3391 H   0  0  0  0  0  0  0  0  0  0  0  0
  179.5780   16.6740   46.1690 H   0  0  0  0  0  0  0  0  0  0  0  0
  180.1565   14.4205   45.2228 H   0  0  0  0  0  0  0  0  0  0  0  0
  180.8444   13.1631   43.1849 H   0  0  0  0  0  0  0  0  0  0  0  0
  181.5270   14.3966   41.1256 H   0  0  0  0  0  0  0  0  0  0  0  0
  181.1000   16.9140   40.1130 H   0  0  0  0  0  0  0  0  0  0  0  0
  180.8620   18.1527   43.1516 H   0  0  0  0  0  0  0  0  0  0  0  0
  177.6479   18.1200   46.1957 H   0  0  0  0  0  0  0  0  0  0  0  0
  176.1316   20.1951   49.1753 H   0  0  0  0  0  0  0  0  0  0  0  0
  174.4686   19.7089   48.7012 H   0  0  0  0  0  0  0  0  0  0  0  0
  175.7934   18.4958   48.7012 H   0  0  0  0  0  0  0  0  0  0  0  0
  1  2  1  0
  2  3  1  0
  3  4  2  0
  4  5  1  0
  5  6  2  0
  6  7  1  0
  7  8  2  0
  8  9  1  0
  9 10  1  0
 10 11  1  0
 11 12  2  0
 12 13  1  0
 13 14  2  0
 14 15  1  0
 15 16  1  0
 15 17  2  0
  9 18  2  0
 18 19  1  0
 19 20  2  0
 20 21  1  0
 21 22  1  0
 20  3  1  0
 18  5  1  0
 17 11  1  0
  1 23  1  0
  1 24  1  0
  1 25  1  0
  4 26  1  0
  7 27  1  0
 10 28  1  0
 12 29  1  0
 13 30  1  0
 14 31  1  0
 16 32  1  0
 17 33  1  0
 19 34  1  0
 22 35  1  0
 22 36  1  0
 22 37  1  0
M  END
>  <meeko>  (1) 
{"is_sidechain": [false], "free_energy": -7.583, "intermolecular_energy": -9.577, "internal_energy": -0.095}

$$$$
DTQ_out
     RDKit          3D

 37 39  0  0  0  0  0  0  0  0999 V2000
  177.0560   21.3250   50.2490 C   0  0  0  0  0  0  0  0  0  0  0  0
  176.5980   21.3160   48.9010 O   0  0  0  0  0  0  0  0  0  0  0  0
  177.4800   20.8350   47.9670 C   0  0  0  0  0  0  0  0  0  0  0  0
  178.8170   21.1560   48.2430 C   0  0  0  0  0  0  0  0  0  0  0  0
  179.8630   20.7540   47.4280 C   0  0  0  0  0  0  0  0  0  0  0  0
  181.1070   21.1280   47.7470 N   0  0  0  0  0  0  0  0  0  0  0  0
  182.0850   20.7440   46.9200 C   0  0  0  0  0  0  0  0  0  0  0  0
  181.9410   20.0040   45.8170 N   0  0  0  0  0  0  0  0  0  0  0  0
  180.6890   19.6070   45.5310 C   0  0  0  0  0  0  0  0  0  0  0  0
  180.5840   18.8020   44.3740 N   0  0  0  0  0  0  0  0  0  0  0  0
  180.7600   17.3940   44.3170 C   0  0  0  0  0  0  0  0  0  0  0  0
  181.6470   16.7740   43.4250 C   0  0  0  0  0  0  0  0  0  0  0  0
  181.7490   15.3800   43.3790 C   0  0  0  0  0  0  0  0  0  0  0  0
  180.9540   14.5950   44.2090 C   0  0  0  0  0  0  0  0  0  0  0  0
  180.0510   15.2060   45.0710 C   0  0  0  0  0  0  0  0  0  0  0  0
  179.2820   14.4000   45.8570 O   0  0  0  0  0  0  0  0  0  0  0  0
  179.9400   16.5930   45.1230 C   0  0  0  0  0  0  0  0  0  0  0  0
  179.5710   19.9820   46.3010 C   0  0  0  0  0  0  0  0  0  0  0  0
  178.2180   19.6530   46.0150 C   0  0  0  0  0  0  0  0  0  0  0  0
  177.1720   20.0490   46.8540 C   0  0  0  0  0  0  0  0  0  0  0  0
  175.8650   19.7010   46.6470 O   0  0  0  0  0  0  0  0  0  0  0  0
  175.5000   18.3440   46.8750 C   0  0  0  0  0  0  0  0  0  0  0  0
  176.1922   21.3080   50.9299 H   0  0  0  0  0  0  0  0  0  0  0  0
  177.6825   20.4390   50.4293 H   0  0  0  0  0  0  0  0  0  0  0  0
  177.6472   22.2349   50.4293 H   0  0  0  0  0  0  0  0  0  0  0  0
  179.0440   21.7496   49.1408 H   0  0  0  0  0  0  0  0  0  0  0  0
  183.1055   21.0683   47.1718 H   0  0  0  0  0  0  0  0  0  0  0  0
  180.3690   19.2590   43.5290 H   0  0  0  0  0  0  0  0  0  0  0  0
  182.2673   17.3889   42.7564 H   0  0  0  0  0  0  0  0  0  0  0  0
  182.4582   14.9035   42.6862 H   0  0  0  0  0  0  0  0  0  0  0  0
  181.0397   13.4987   44.1829 H   0  0  0  0  0  0  0  0  0  0  0  0
  179.2190   13.4840   45.6690 H   0  0  0  0  0  0  0  0  0  0  0  0
  179.2077   17.0605   45.7976 H   0  0  0  0  0  0  0  0  0  0  0  0
  177.9879   19.0717   45.1099 H   0  0  0  0  0  0  0  0  0  0  0  0
  175.4491   18.1549   47.9574 H   0  0  0  0  0  0  0  0  0  0  0  0
  174.5171   18.1476   46.4219 H   0  0  0  0  0  0  0  0  0  0  0  0
  176.2517   17.6810   46.4219 H   0  0  0  0  0  0  0  0  0  0  0  0
  1  2  1  0
  2  3  1  0
  3  4  2  0
  4  5  1  0
  5  6  2  0
  6  7  1  0
  7  8  2  0
  8  9  1  0
  9 10  1  0
 10 11  1  0
 11 12  2  0
 12 13  1  0
 13 14  2  0
 14 15  1  0
 15 16  1  0
 15 17  2  0
  9 18  2  0
 18 19  1  0
 19 20  2  0
 20 21  1  0
 21 22  1  0
 20  3  1  0
 18  5  1  0
 17 11  1  0
  1 23  1  0
  1 24  1  0
  1 25  1  0
  4 26  1  0
  7 27  1  0
 10 28  1  0
 12 29  1  0
 13 30  1  0
 14 31  1  0
 16 32  1  0
 17 33  1  0
 19 34  1  0
 22 35  1  0
 22 36  1  0
 22 37  1  0
M  END
>  <meeko>  (2) 
{"is_sidechain": [false], "free_energy": -7.392, "intermolecular_energy": -8.792, "internal_energy": -0.64}

$$$$
DTQ_out
     RDKit          3D

 37 39  0  0  0  0  0  0  0  0999 V2000
  181.0870   19.5160   45.5070 C   0  0  0  0  0  0  0  0  0  0  0  0
  180.6270   20.8220   45.8400 O   0  0  0  0  0  0  0  0  0  0  0  0
  179.4730   20.8840   46.5800 C   0  0  0  0  0  0  0  0  0  0  0  0
  178.4970   19.9640   46.1720 C   0  0  0  0  0  0  0  0  0  0  0  0
  177.2640   19.8590   46.7980 C   0  0  0  0  0  0  0  0  0  0  0  0
  176.3770   18.9760   46.3270 N   0  0  0  0  0  0  0  0  0  0  0  0
  175.1900   18.9250   46.9400 C   0  0  0  0  0  0  0  0  0  0  0  0
  174.8140   19.6570   47.9920 N   0  0  0  0  0  0  0  0  0  0  0  0
  175.7300   20.5150   48.4740 C   0  0  0  0  0  0  0  0  0  0  0  0
  175.3020   21.2470   49.6050 N   0  0  0  0  0  0  0  0  0  0  0  0
  174.7080   22.5370   49.5890 C   0  0  0  0  0  0  0  0  0  0  0  0
  175.3910   23.6940   49.9900 C   0  0  0  0  0  0  0  0  0  0  0  0
  174.7450   24.9340   49.9980 C   0  0  0  0  0  0  0  0  0  0  0  0
  173.4070   25.0250   49.6240 C   0  0  0  0  0  0  0  0  0  0  0  0
  172.7190   23.8760   49.2570 C   0  0  0  0  0  0  0  0  0  0  0  0
  171.4060   24.0070   48.9100 O   0  0  0  0  0  0  0  0  0  0  0  0
  173.3520   22.6360   49.2480 C   0  0  0  0  0  0  0  0  0  0  0  0
  176.9990   20.6890   47.8900 C   0  0  0  0  0  0  0  0  0  0  0  0
  177.9850   21.6240   48.3090 C   0  0  0  0  0  0  0  0  0  0  0  0
  179.2310   21.7090   47.6820 C   0  0  0  0  0  0  0  0  0  0  0  0
  180.2280   22.5510   48.0930 O   0  0  0  0  0  0  0  0  0  0  0  0
  179.9550   23.9480   48.0860 C   0  0  0  0  0  0  0  0  0  0  0  0
  181.2860   18.9510   46.4296 H   0  0  0  0  0  0  0  0  0  0  0  0
  180.3180   18.9957   44.9171 H   0  0  0  0  0  0  0  0  0  0  0  0
  182.0123   19.5925   44.9171 H   0  0  0  0  0  0  0  0  0  0  0  0
  178.7176   19.3002   45.3231 H   0  0  0  0  0  0  0  0  0  0  0  0
  174.4533   18.2127   46.5401 H   0  0  0  0  0  0  0  0  0  0  0  0
  175.4260   20.8240   50.4850 H   0  0  0  0  0  0  0  0  0  0  0  0
  176.4439   23.6256   50.3009 H   0  0  0  0  0  0  0  0  0  0  0  0
  175.2941   25.8380   50.2999 H   0  0  0  0  0  0  0  0  0  0  0  0
  172.8984   26.0003   49.6193 H   0  0  0  0  0  0  0  0  0  0  0  0
  171.0100   24.8560   48.8900 H   0  0  0  0  0  0  0  0  0  0  0  0
  172.7874   21.7329   48.9730 H   0  0  0  0  0  0  0  0  0  0  0  0
  177.7611   22.2982   49.1488 H   0  0  0  0  0  0  0  0  0  0  0  0
  179.8837   24.3129   49.1213 H   0  0  0  0  0  0  0  0  0  0  0  0
  180.7666   24.4776   47.5657 H   0  0  0  0  0  0  0  0  0  0  0  0
  179.0037   24.1331   47.5657 H   0  0  0  0  0  0  0  0  0  0  0  0
  1  2  1  0
  2  3  1  0
  3  4  2  0
  4  5  1  0
  5  6  2  0
  6  7  1  0
  7  8  2  0
  8  9  1  0
  9 10  1  0
 10 11  1  0
 11 12  2  0
 12 13  1  0
 13 14  2  0
 14 15  1  0
 15 16  1  0
 15 17  2  0
  9 18  2  0
 18 19  1  0
 19 20  2  0
 20 21  1  0
 21 22  1  0
 20  3  1  0
 18  5  1  0
 17 11  1  0
  1 23  1  0
  1 24  1  0
  1 25  1  0
  4 26  1  0
  7 27  1  0
 10 28  1  0
 12 29  1  0
 13 30  1  0
 14 31  1  0
 16 32  1  0
 17 33  1  0
 19 34  1  0
 22 35  1  0
 22 36  1  0
 22 37  1  0
M  END
>  <meeko>  (3) 
{"is_sidechain": [false], "free_energy": -7.252, "intermolecular_energy": -8.594, "internal_energy": -0.66}

$$$$
DTQ_out
     RDKit          3D

 37 39  0  0  0  0  0  0  0  0999 V2000
  175.6560   23.7120   53.5910 C   0  0  0  0  0  0  0  0  0  0  0  0
  176.6590   22.7270   53.3640 O   0  0  0  0  0  0  0  0  0  0  0  0
  176.9680   22.4740   52.0520 C   0  0  0  0  0  0  0  0  0  0  0  0
  176.2300   21.4200   51.4960 C   0  0  0  0  0  0  0  0  0  0  0  0
  176.3860   21.0140   50.1800 C   0  0  0  0  0  0  0  0  0  0  0  0
  175.6630   19.9790   49.7360 N   0  0  0  0  0  0  0  0  0  0  0  0
  175.8620   19.6010   48.4690 C   0  0  0  0  0  0  0  0  0  0  0  0
  176.6980   20.1720   47.5980 N   0  0  0  0  0  0  0  0  0  0  0  0
  177.3900   21.2320   48.0490 C   0  0  0  0  0  0  0  0  0  0  0  0
  178.2400   21.8240   47.0870 N   0  0  0  0  0  0  0  0  0  0  0  0
  179.4630   21.2850   46.6080 C   0  0  0  0  0  0  0  0  0  0  0  0
  179.5270   20.3640   45.5530 C   0  0  0  0  0  0  0  0  0  0  0  0
  180.7530   19.8300   45.1490 C   0  0  0  0  0  0  0  0  0  0  0  0
  181.9240   20.1960   45.8070 C   0  0  0  0  0  0  0  0  0  0  0  0
  181.8610   21.0850   46.8740 C   0  0  0  0  0  0  0  0  0  0  0  0
  183.0280   21.4080   47.4990 O   0  0  0  0  0  0  0  0  0  0  0  0
  180.6430   21.6210   47.2850 C   0  0  0  0  0  0  0  0  0  0  0  0
  177.2990   21.6990   49.3740 C   0  0  0  0  0  0  0  0  0  0  0  0
  178.0500   22.7700   49.9310 C   0  0  0  0  0  0  0  0  0  0  0  0
  177.8730   23.1820   51.2550 C   0  0  0  0  0  0  0  0  0  0  0  0
  178.5310   24.2450   51.8100 O   0  0  0  0  0  0  0  0  0  0  0  0
  178.4050   25.5090   51.1650 C   0  0  0  0  0  0  0  0  0  0  0  0
  175.5157   23.8498   54.6733 H   0  0  0  0  0  0  0  0  0  0  0  0
  175.9681   24.6644   53.1375 H   0  0  0  0  0  0  0  0  0  0  0  0
  174.7095   23.3827   53.1375 H   0  0  0  0  0  0  0  0  0  0  0  0
  175.4990   20.8949   52.1284 H   0  0  0  0  0  0  0  0  0  0  0  0
  175.2822   18.7379   48.1100 H   0  0  0  0  0  0  0  0  0  0  0  0
  177.9570   22.6900   46.7140 H   0  0  0  0  0  0  0  0  0  0  0  0
  178.6036   20.0591   45.0388 H   0  0  0  0  0  0  0  0  0  0  0  0
  180.7932   19.1196   44.3101 H   0  0  0  0  0  0  0  0  0  0  0  0
  182.8921   19.7848   45.4850 H   0  0  0  0  0  0  0  0  0  0  0  0
  183.6380   20.7350   47.7300 H   0  0  0  0  0  0  0  0  0  0  0  0
  180.6073   22.3092   48.1424 H   0  0  0  0  0  0  0  0  0  0  0  0
  178.7900   23.2882   49.3034 H   0  0  0  0  0  0  0  0  0  0  0  0
  178.3260   26.3015   51.9237 H   0  0  0  0  0  0  0  0  0  0  0  0
  179.2896   25.6898   50.5366 H   0  0  0  0  0  0  0  0  0  0  0  0
  177.5021   25.5116   50.5366 H   0  0  0  0  0  0  0  0  0  0  0  0
  1  2  1  0
  2  3  1  0
  3  4  2  0
  4  5  1  0
  5  6  2  0
  6  7  1  0
  7  8  2  0
  8  9  1  0
  9 10  1  0
 10 11  1  0
 11 12  2  0
 12 13  1  0
 13 14  2  0
 14 15  1  0
 15 16  1  0
 15 17  2  0
  9 18  2  0
 18 19  1  0
 19 20  2  0
 20 21  1  0
 21 22  1  0
 20  3  1  0
 18  5  1  0
 17 11  1  0
  1 23  1  0
  1 24  1  0
  1 25  1  0
  4 26  1  0
  7 27  1  0
 10 28  1  0
 12 29  1  0
 13 30  1  0
 14 31  1  0
 16 32  1  0
 17 33  1  0
 19 34  1  0
 22 35  1  0
 22 36  1  0
 22 37  1  0
M  END
>  <meeko>  (4) 
{"is_sidechain": [false], "free_energy": -7.166, "intermolecular_energy": -8.502, "internal_energy": -0.644}

$$$$
DTQ_out
     RDKit          3D

 37 39  0  0  0  0  0  0  0  0999 V2000
  181.9640   24.4370   52.3270 C   0  0  0  0  0  0  0  0  0  0  0  0
  181.2510   23.2060   52.2760 O   0  0  0  0  0  0  0  0  0  0  0  0
  180.7370   22.8570   51.0530 C   0  0  0  0  0  0  0  0  0  0  0  0
  181.6800   22.2730   50.1960 C   0  0  0  0  0  0  0  0  0  0  0  0
  181.3580   21.8400   48.9180 C   0  0  0  0  0  0  0  0  0  0  0  0
  182.3250   21.3210   48.1530 N   0  0  0  0  0  0  0  0  0  0  0  0
  181.9800   20.9410   46.9180 C   0  0  0  0  0  0  0  0  0  0  0  0
  180.7580   21.0110   46.3830 N   0  0  0  0  0  0  0  0  0  0  0  0
  179.7920   21.5030   47.1780 C   0  0  0  0  0  0  0  0  0  0  0  0
  178.5090   21.5320   46.5850 N   0  0  0  0  0  0  0  0  0  0  0  0
  177.4820   20.5680   46.7670 C   0  0  0  0  0  0  0  0  0  0  0  0
  177.5200   19.2960   46.1770 C   0  0  0  0  0  0  0  0  0  0  0  0
  176.4610   18.4010   46.3520 C   0  0  0  0  0  0  0  0  0  0  0  0
  175.3480   18.7740   47.1000 C   0  0  0  0  0  0  0  0  0  0  0  0
  175.2940   20.0450   47.6600 C   0  0  0  0  0  0  0  0  0  0  0  0
  174.1810   20.3750   48.3750 O   0  0  0  0  0  0  0  0  0  0  0  0
  176.3430   20.9450   47.4900 C   0  0  0  0  0  0  0  0  0  0  0  0
  180.0380   21.9740   48.4820 C   0  0  0  0  0  0  0  0  0  0  0  0
  179.0760   22.5660   49.3470 C   0  0  0  0  0  0  0  0  0  0  0  0
  179.4070   22.9820   50.6390 C   0  0  0  0  0  0  0  0  0  0  0  0
  178.5000   23.4990   51.5230 O   0  0  0  0  0  0  0  0  0  0  0  0
  177.3250   22.7370   51.7820 C   0  0  0  0  0  0  0  0  0  0  0  0
  182.1290   24.7219   53.3766 H   0  0  0  0  0  0  0  0  0  0  0  0
  182.9342   24.3200   51.8219 H   0  0  0  0  0  0  0  0  0  0  0  0
  181.3798   25.2203   51.8219 H   0  0  0  0  0  0  0  0  0  0  0  0
  182.7145   22.1535   50.5502 H   0  0  0  0  0  0  0  0  0  0  0  0
  182.7788   20.5317   46.2821 H   0  0  0  0  0  0  0  0  0  0  0  0
  178.3090   22.2910   45.9910 H   0  0  0  0  0  0  0  0  0  0  0  0
  178.3899   19.0007   45.5720 H   0  0  0  0  0  0  0  0  0  0  0  0
  176.5071   17.4002   45.8979 H   0  0  0  0  0  0  0  0  0  0  0  0
  174.5173   18.0681   47.2469 H   0  0  0  0  0  0  0  0  0  0  0  0
  173.4980   20.8750   47.9740 H   0  0  0  0  0  0  0  0  0  0  0  0
  176.2771   21.9535   47.9242 H   0  0  0  0  0  0  0  0  0  0  0  0
  178.0445   22.6997   48.9891 H   0  0  0  0  0  0  0  0  0  0  0  0
  177.1807   22.6434   52.8685 H   0  0  0  0  0  0  0  0  0  0  0  0
  176.4547   23.2431   51.3388 H   0  0  0  0  0  0  0  0  0  0  0  0
  177.4321   21.7360   51.3388 H   0  0  0  0  0  0  0  0  0  0  0  0
  1  2  1  0
  2  3  1  0
  3  4  2  0
  4  5  1  0
  5  6  2  0
  6  7  1  0
  7  8  2  0
  8  9  1  0
  9 10  1  0
 10 11  1  0
 11 12  2  0
 12 13  1  0
 13 14  2  0
 14 15  1  0
 15 16  1  0
 15 17  2  0
  9 18  2  0
 18 19  1  0
 19 20  2  0
 20 21  1  0
 21 22  1  0
 20  3  1  0
 18  5  1  0
 17 11  1  0
  1 23  1  0
  1 24  1  0
  1 25  1  0
  4 26  1  0
  7 27  1  0
 10 28  1  0
 12 29  1  0
 13 30  1  0
 14 31  1  0
 16 32  1  0
 17 33  1  0
 19 34  1  0
 22 35  1  0
 22 36  1  0
 22 37  1  0
M  END
>  <meeko>  (5) 
{"is_sidechain": [false], "free_energy": -7.11, "intermolecular_energy": -8.393, "internal_energy": -0.682}

$$$$
DTQ_out
     RDKit          3D

 37 39  0  0  0  0  0  0  0  0999 V2000
  180.8150   18.1380   44.5950 C   0  0  0  0  0  0  0  0  0  0  0  0
  181.1510   18.8920   45.7550 O   0  0  0  0  0  0  0  0  0  0  0  0
  180.1740   19.7280   46.2340 C   0  0  0  0  0  0  0  0  0  0  0  0
  178.8900   19.1660   46.2000 C   0  0  0  0  0  0  0  0  0  0  0  0
  177.7680   19.8440   46.6500 C   0  0  0  0  0  0  0  0  0  0  0  0
  176.5740   19.2480   46.5530 N   0  0  0  0  0  0  0  0  0  0  0  0
  175.5140   19.9450   46.9730 C   0  0  0  0  0  0  0  0  0  0  0  0
  175.5350   21.1730   47.4980 N   0  0  0  0  0  0  0  0  0  0  0  0
  176.7460   21.7440   47.6200 C   0  0  0  0  0  0  0  0  0  0  0  0
  176.7260   23.0290   48.2080 N   0  0  0  0  0  0  0  0  0  0  0  0
  176.1390   23.3690   49.4560 C   0  0  0  0  0  0  0  0  0  0  0  0
  175.1910   24.3930   49.5970 C   0  0  0  0  0  0  0  0  0  0  0  0
  174.6770   24.7160   50.8550 C   0  0  0  0  0  0  0  0  0  0  0  0
  175.1190   24.0340   51.9860 C   0  0  0  0  0  0  0  0  0  0  0  0
  176.0810   23.0410   51.8530 C   0  0  0  0  0  0  0  0  0  0  0  0
  176.4950   22.4050   52.9860 O   0  0  0  0  0  0  0  0  0  0  0  0
  176.6010   22.7120   50.6040 C   0  0  0  0  0  0  0  0  0  0  0  0
  177.9320   21.1280   47.1770 C   0  0  0  0  0  0  0  0  0  0  0  0
  179.2310   21.7030   47.2160 C   0  0  0  0  0  0  0  0  0  0  0  0
  180.3590   21.0040   46.7750 C   0  0  0  0  0  0  0  0  0  0  0  0
  181.6320   21.4970   46.8520 O   0  0  0  0  0  0  0  0  0  0  0  0
  182.3390   21.3120   48.0740 C   0  0  0  0  0  0  0  0  0  0  0  0
  180.3845   17.1720   44.8976 H   0  0  0  0  0  0  0  0  0  0  0  0
  180.0801   18.6953   43.9956 H   0  0  0  0  0  0  0  0  0  0  0  0
  181.7208   17.9641   43.9956 H   0  0  0  0  0  0  0  0  0  0  0  0
  178.7684   18.1482   45.8010 H   0  0  0  0  0  0  0  0  0  0  0  0
  174.5307   19.4614   46.8772 H   0  0  0  0  0  0  0  0  0  0  0  0
  177.1610   23.7570   47.7070 H   0  0  0  0  0  0  0  0  0  0  0  0
  174.8495   24.9462   48.7097 H   0  0  0  0  0  0  0  0  0  0  0  0
  173.9221   25.5101   50.9525 H   0  0  0  0  0  0  0  0  0  0  0  0
  174.7094   24.2798   52.9769 H   0  0  0  0  0  0  0  0  0  0  0  0
  177.4110   22.3160   53.1650 H   0  0  0  0  0  0  0  0  0  0  0  0
  177.3754   21.9354   50.5185 H   0  0  0  0  0  0  0  0  0  0  0  0
  179.3524   22.7253   47.6035 H   0  0  0  0  0  0  0  0  0  0  0  0
  181.6600   21.4897   48.9210 H   0  0  0  0  0  0  0  0  0  0  0  0
  182.7242   20.2828   48.1225 H   0  0  0  0  0  0  0  0  0  0  0  0
  183.1790   22.0206   48.1225 H   0  0  0  0  0  0  0  0  0  0  0  0
  1  2  1  0
  2  3  1  0
  3  4  2  0
  4  5  1  0
  5  6  2  0
  6  7  1  0
  7  8  2  0
  8  9  1  0
  9 10  1  0
 10 11  1  0
 11 12  2  0
 12 13  1  0
 13 14  2  0
 14 15  1  0
 15 16  1  0
 15 17  2  0
  9 18  2  0
 18 19  1  0
 19 20  2  0
 20 21  1  0
 21 22  1  0
 20  3  1  0
 18  5  1  0
 17 11  1  0
  1 23  1  0
  1 24  1  0
  1 25  1  0
  4 26  1  0
  7 27  1  0
 10 28  1  0
 12 29  1  0
 13 30  1  0
 14 31  1  0
 16 32  1  0
 17 33  1  0
 19 34  1  0
 22 35  1  0
 22 36  1  0
 22 37  1  0
M  END
>  <meeko>  (6) 
{"is_sidechain": [false], "free_energy": -7.09, "intermolecular_energy": -8.413, "internal_energy": -0.637}

$$$$
DTQ_out
     RDKit          3D

 37 39  0  0  0  0  0  0  0  0999 V2000
  180.6540   18.4900   45.1280 C   0  0  0  0  0  0  0  0  0  0  0  0
  179.4570   18.4480   45.8980 O   0  0  0  0  0  0  0  0  0  0  0  0
  179.0250   19.6470   46.4060 C   0  0  0  0  0  0  0  0  0  0  0  0
  180.0670   20.5270   46.7280 C   0  0  0  0  0  0  0  0  0  0  0  0
  179.8400   21.7940   47.2440 C   0  0  0  0  0  0  0  0  0  0  0  0
  180.8920   22.5600   47.5530 N   0  0  0  0  0  0  0  0  0  0  0  0
  180.6320   23.7640   48.0730 C   0  0  0  0  0  0  0  0  0  0  0  0
  179.4210   24.2820   48.2940 N   0  0  0  0  0  0  0  0  0  0  0  0
  178.3750   23.5130   47.9460 C   0  0  0  0  0  0  0  0  0  0  0  0
  177.1140   24.1110   48.1680 N   0  0  0  0  0  0  0  0  0  0  0  0
  176.3600   24.0490   49.3700 C   0  0  0  0  0  0  0  0  0  0  0  0
  176.7160   24.7550   50.5280 C   0  0  0  0  0  0  0  0  0  0  0  0
  175.9650   24.6250   51.6990 C   0  0  0  0  0  0  0  0  0  0  0  0
  174.8630   23.7740   51.7290 C   0  0  0  0  0  0  0  0  0  0  0  0
  174.5250   23.0500   50.5930 C   0  0  0  0  0  0  0  0  0  0  0  0
  173.4470   22.2190   50.6680 O   0  0  0  0  0  0  0  0  0  0  0  0
  175.2690   23.1710   49.4220 C   0  0  0  0  0  0  0  0  0  0  0  0
  178.5200   22.2120   47.4270 C   0  0  0  0  0  0  0  0  0  0  0  0
  177.4580   21.3240   47.1020 C   0  0  0  0  0  0  0  0  0  0  0  0
  177.6970   20.0560   46.5660 C   0  0  0  0  0  0  0  0  0  0  0  0
  176.7040   19.1970   46.1830 O   0  0  0  0  0  0  0  0  0  0  0  0
  175.6340   18.9780   47.0970 C   0  0  0  0  0  0  0  0  0  0  0  0
  181.5227   18.5205   45.8021 H   0  0  0  0  0  0  0  0  0  0  0  0
  180.7135   17.5934   44.4935 H   0  0  0  0  0  0  0  0  0  0  0  0
  180.6505   19.3886   44.4935 H   0  0  0  0  0  0  0  0  0  0  0  0
  181.1047   20.2002   46.5652 H   0  0  0  0  0  0  0  0  0  0  0  0
  181.4972   24.3867   48.3444 H   0  0  0  0  0  0  0  0  0  0  0  0
  176.7220   24.6180   47.4210 H   0  0  0  0  0  0  0  0  0  0  0  0
  177.5943   25.4171   50.5144 H   0  0  0  0  0  0  0  0  0  0  0  0
  176.2442   25.1950   52.5974 H   0  0  0  0  0  0  0  0  0  0  0  0
  174.2642   23.6759   52.6465 H   0  0  0  0  0  0  0  0  0  0  0  0
  173.5420   21.3090   50.4670 H   0  0  0  0  0  0  0  0  0  0  0  0
  174.9999   22.5765   48.5365 H   0  0  0  0  0  0  0  0  0  0  0  0
  176.4203   21.6440   47.2773 H   0  0  0  0  0  0  0  0  0  0  0  0
  176.0106   19.0551   48.1277 H   0  0  0  0  0  0  0  0  0  0  0  0
  174.8524   19.7348   46.9347 H   0  0  0  0  0  0  0  0  0  0  0  0
  175.2126   17.9750   46.9347 H   0  0  0  0  0  0  0  0  0  0  0  0
  1  2  1  0
  2  3  1  0
  3  4  2  0
  4  5  1  0
  5  6  2  0
  6  7  1  0
  7  8  2  0
  8  9  1  0
  9 10  1  0
 10 11  1  0
 11 12  2  0
 12 13  1  0
 13 14  2  0
 14 15  1  0
 15 16  1  0
 15 17  2  0
  9 18  2  0
 18 19  1  0
 19 20  2  0
 20 21  1  0
 21 22  1  0
 20  3  1  0
 18  5  1  0
 17 11  1  0
  1 23  1  0
  1 24  1  0
  1 25  1  0
  4 26  1  0
  7 27  1  0
 10 28  1  0
 12 29  1  0
 13 30  1  0
 14 31  1  0
 16 32  1  0
 17 33  1  0
 19 34  1  0
 22 35  1  0
 22 36  1  0
 22 37  1  0
M  END
>  <meeko>  (7) 
{"is_sidechain": [false], "free_energy": -7.032, "intermolecular_energy": -8.315, "internal_energy": -0.662}

$$$$
DTQ_out
     RDKit          3D

 37 39  0  0  0  0  0  0  0  0999 V2000
  172.4080   23.7930   49.9990 C   0  0  0  0  0  0  0  0  0  0  0  0
  173.5940   23.2900   50.6060 O   0  0  0  0  0  0  0  0  0  0  0  0
  174.5720   22.8550   49.7490 C   0  0  0  0  0  0  0  0  0  0  0  0
  174.2970   21.6070   49.1720 C   0  0  0  0  0  0  0  0  0  0  0  0
  175.1560   20.9980   48.2690 C   0  0  0  0  0  0  0  0  0  0  0  0
  174.8330   19.7920   47.7880 N   0  0  0  0  0  0  0  0  0  0  0  0
  175.7000   19.2270   46.9420 C   0  0  0  0  0  0  0  0  0  0  0  0
  176.8470   19.7600   46.5140 N   0  0  0  0  0  0  0  0  0  0  0  0
  177.1390   20.9870   46.9810 C   0  0  0  0  0  0  0  0  0  0  0  0
  178.3460   21.5270   46.4800 N   0  0  0  0  0  0  0  0  0  0  0  0
  179.6570   21.1610   46.8860 C   0  0  0  0  0  0  0  0  0  0  0  0
  180.6440   20.7440   45.9810 C   0  0  0  0  0  0  0  0  0  0  0  0
  181.9050   20.3510   46.4370 C   0  0  0  0  0  0  0  0  0  0  0  0
  182.1850   20.3520   47.8010 C   0  0  0  0  0  0  0  0  0  0  0  0
  181.1990   20.7340   48.7020 C   0  0  0  0  0  0  0  0  0  0  0  0
  181.5100   20.7090   50.0300 O   0  0  0  0  0  0  0  0  0  0  0  0
  179.9380   21.1250   48.2580 C   0  0  0  0  0  0  0  0  0  0  0  0
  176.3270   21.6680   47.9080 C   0  0  0  0  0  0  0  0  0  0  0  0
  176.6120   22.9340   48.4880 C   0  0  0  0  0  0  0  0  0  0  0  0
  175.7310   23.5470   49.3840 C   0  0  0  0  0  0  0  0  0  0  0  0
  175.9390   24.7900   49.9170 O   0  0  0  0  0  0  0  0  0  0  0  0
  177.0380   24.9500   50.8080 C   0  0  0  0  0  0  0  0  0  0  0  0
  171.6957   24.0951   50.7809 H   0  0  0  0  0  0  0  0  0  0  0  0
  172.6568   24.6631   49.3736 H   0  0  0  0  0  0  0  0  0  0  0  0
  171.9554   23.0094   49.3736 H   0  0  0  0  0  0  0  0  0  0  0  0
  173.3647   21.0913   49.4458 H   0  0  0  0  0  0  0  0  0  0  0  0
  175.4440   18.2270   46.5619 H   0  0  0  0  0  0  0  0  0  0  0  0
  178.2710   22.2210   45.7860 H   0  0  0  0  0  0  0  0  0  0  0  0
  180.4236   20.7262   44.9034 H   0  0  0  0  0  0  0  0  0  0  0  0
  182.6772   20.0405   45.7178 H   0  0  0  0  0  0  0  0  0  0  0  0
  183.1798   20.0525   48.1625 H   0  0  0  0  0  0  0  0  0  0  0  0
  182.3660   20.9600   50.3150 H   0  0  0  0  0  0  0  0  0  0  0  0
  179.1620   21.4058   48.9853 H   0  0  0  0  0  0  0  0  0  0  0  0
  177.5501   23.4447   48.2251 H   0  0  0  0  0  0  0  0  0  0  0  0
  176.6788   24.8977   51.8464 H   0  0  0  0  0  0  0  0  0  0  0  0
  177.7715   24.1492   50.6330 H   0  0  0  0  0  0  0  0  0  0  0  0
  177.5127   25.9267   50.6330 H   0  0  0  0  0  0  0  0  0  0  0  0
  1  2  1  0
  2  3  1  0
  3  4  2  0
  4  5  1  0
  5  6  2  0
  6  7  1  0
  7  8  2  0
  8  9  1  0
  9 10  1  0
 10 11  1  0
 11 12  2  0
 12 13  1  0
 13 14  2  0
 14 15  1  0
 15 16  1  0
 15 17  2  0
  9 18  2  0
 18 19  1  0
 19 20  2  0
 20 21  1  0
 21 22  1  0
 20  3  1  0
 18  5  1  0
 17 11  1  0
  1 23  1  0
  1 24  1  0
  1 25  1  0
  4 26  1  0
  7 27  1  0
 10 28  1  0
 12 29  1  0
 13 30  1  0
 14 31  1  0
 16 32  1  0
 17 33  1  0
 19 34  1  0
 22 35  1  0
 22 36  1  0
 22 37  1  0
M  END
>  <meeko>  (8) 
{"is_sidechain": [false], "free_energy": -6.988, "intermolecular_energy": -8.226, "internal_energy": -0.696}

$$$$
DTQ_out
     RDKit          3D

 37 39  0  0  0  0  0  0  0  0999 V2000
  180.0910   18.7670   45.7450 C   0  0  0  0  0  0  0  0  0  0  0  0
  179.4730   20.0480   45.6740 O   0  0  0  0  0  0  0  0  0  0  0  0
  178.8860   20.4990   46.8280 C   0  0  0  0  0  0  0  0  0  0  0  0
  179.7960   21.0610   47.7360 C   0  0  0  0  0  0  0  0  0  0  0  0
  179.4010   21.5840   48.9580 C   0  0  0  0  0  0  0  0  0  0  0  0
  180.3370   22.0740   49.7790 N   0  0  0  0  0  0  0  0  0  0  0  0
  179.9200   22.5450   50.9580 C   0  0  0  0  0  0  0  0  0  0  0  0
  178.6550   22.5920   51.3870 N   0  0  0  0  0  0  0  0  0  0  0  0
  177.7250   22.1280   50.5350 C   0  0  0  0  0  0  0  0  0  0  0  0
  176.3980   22.2240   51.0140 N   0  0  0  0  0  0  0  0  0  0  0  0
  175.4000   23.1140   50.5380 C   0  0  0  0  0  0  0  0  0  0  0  0
  175.6030   24.4980   50.4320 C   0  0  0  0  0  0  0  0  0  0  0  0
  174.5720   25.3360   49.9990 C   0  0  0  0  0  0  0  0  0  0  0  0
  173.3240   24.8030   49.6880 C   0  0  0  0  0  0  0  0  0  0  0  0
  173.1100   23.4370   49.8230 C   0  0  0  0  0  0  0  0  0  0  0  0
  171.8700   22.9570   49.5200 O   0  0  0  0  0  0  0  0  0  0  0  0
  174.1300   22.5930   50.2550 C   0  0  0  0  0  0  0  0  0  0  0  0
  178.0430   21.5690   49.2820 C   0  0  0  0  0  0  0  0  0  0  0  0
  177.1150   21.0020   48.3660 C   0  0  0  0  0  0  0  0  0  0  0  0
  177.5210   20.4920   47.1290 C   0  0  0  0  0  0  0  0  0  0  0  0
  176.6540   19.9940   46.1960 O   0  0  0  0  0  0  0  0  0  0  0  0
  175.9950   18.7680   46.4960 C   0  0  0  0  0  0  0  0  0  0  0  0
  180.2277   18.4837   46.7991 H   0  0  0  0  0  0  0  0  0  0  0  0
  179.4524   18.0236   45.2454 H   0  0  0  0  0  0  0  0  0  0  0  0
  181.0703   18.8041   45.2454 H   0  0  0  0  0  0  0  0  0  0  0  0
  180.8627   21.0877   47.4685 H   0  0  0  0  0  0  0  0  0  0  0  0
  180.6915   22.9309   51.6406 H   0  0  0  0  0  0  0  0  0  0  0  0
  176.1420   21.6160   51.7450 H   0  0  0  0  0  0  0  0  0  0  0  0
  176.5819   24.9272   50.6919 H   0  0  0  0  0  0  0  0  0  0  0  0
  174.7466   26.4179   49.9038 H   0  0  0  0  0  0  0  0  0  0  0  0
  172.5132   25.4588   49.3379 H   0  0  0  0  0  0  0  0  0  0  0  0
  171.7070   22.5780   48.6790 H   0  0  0  0  0  0  0  0  0  0  0  0
  173.9388   21.5163   50.3742 H   0  0  0  0  0  0  0  0  0  0  0  0
  176.0498   20.9636   48.6376 H   0  0  0  0  0  0  0  0  0  0  0  0
  175.9287   18.6448   47.5871 H   0  0  0  0  0  0  0  0  0  0  0  0
  174.9825   18.7813   46.0663 H   0  0  0  0  0  0  0  0  0  0  0  0
  176.5647   17.9308   46.0663 H   0  0  0  0  0  0  0  0  0  0  0  0
  1  2  1  0
  2  3  1  0
  3  4  2  0
  4  5  1  0
  5  6  2  0
  6  7  1  0
  7  8  2  0
  8  9  1  0
  9 10  1  0
 10 11  1  0
 11 12  2  0
 12 13  1  0
 13 14  2  0
 14 15  1  0
 15 16  1  0
 15 17  2  0
  9 18  2  0
 18 19  1  0
 19 20  2  0
 20 21  1  0
 21 22  1  0
 20  3  1  0
 18  5  1  0
 17 11  1  0
  1 23  1  0
  1 24  1  0
  1 25  1  0
  4 26  1  0
  7 27  1  0
 10 28  1  0
 12 29  1  0
 13 30  1  0
 14 31  1  0
 16 32  1  0
 17 33  1  0
 19 34  1  0
 22 35  1  0
 22 36  1  0
 22 37  1  0
M  END
>  <meeko>  (9) 
{"is_sidechain": [false], "free_energy": -6.976, "intermolecular_energy": -8.207, "internal_energy": -0.7}

$$$$
