isatin_out
     RDKit          3D

 16 17  0  0  0  0  0  0  0  0999 V2000
  174.7950   18.5160   46.9610 O   0  0  0  0  0  0  0  0  0  0  0  0
  175.1520   19.6110   47.3350 C   0  0  0  0  0  0  0  0  0  0  0  0
  174.5760   20.4110   48.3030 N   0  0  0  0  0  0  0  0  0  0  0  0
  175.2810   21.6020   48.4470 C   0  0  0  0  0  0  0  0  0  0  0  0
  175.0010   22.6380   49.3120 C   0  0  0  0  0  0  0  0  0  0  0  0
  175.8540   23.7480   49.2850 C   0  0  0  0  0  0  0  0  0  0  0  0
  176.9550   23.8010   48.4040 C   0  0  0  0  0  0  0  0  0  0  0  0
  177.2260   22.7430   47.5330 C   0  0  0  0  0  0  0  0  0  0  0  0
  176.3700   21.6610   47.5810 C   0  0  0  0  0  0  0  0  0  0  0  0
  176.3770   20.4140   46.8120 C   0  0  0  0  0  0  0  0  0  0  0  0
  177.1650   20.0850   45.9580 O   0  0  0  0  0  0  0  0  0  0  0  0
  173.7730   20.1710   48.8200 H   0  0  0  0  0  0  0  0  0  0  0  0
  174.1412   22.5944   49.9967 H   0  0  0  0  0  0  0  0  0  0  0  0
  175.6626   24.5934   49.9623 H   0  0  0  0  0  0  0  0  0  0  0  0
  177.6079   24.6863   48.4031 H   0  0  0  0  0  0  0  0  0  0  0  0
  178.0811   22.7707   46.8416 H   0  0  0  0  0  0  0  0  0  0  0  0
  1  2  2  0
  2  3  1  0
  3  4  1  0
  4  5  2  0
  5  6  1  0
  6  7  2  0
  7  8  1  0
  8  9  2  0
  9 10  1  0
 10 11  2  0
 10  2  1  0
  9  4  1  0
  3 12  1  0
  5 13  1  0
  6 14  1  0
  7 15  1  0
  8 16  1  0
M  END
>  <meeko>  (1) 
{"is_sidechain": [false], "free_energy": -5.33, "intermolecular_energy": -5.33, "internal_energy": 0.0}

$$$$
isatin_out
     RDKit          3D

 16 17  0  0  0  0  0  0  0  0999 V2000
  174.7350   18.2790   46.9570 O   0  0  0  0  0  0  0  0  0  0  0  0
  175.6300   19.0940   46.9750 C   0  0  0  0  0  0  0  0  0  0  0  0
  176.9130   18.9630   46.4820 N   0  0  0  0  0  0  0  0  0  0  0  0
  177.6490   20.1250   46.6930 C   0  0  0  0  0  0  0  0  0  0  0  0
  178.9600   20.3600   46.3370 C   0  0  0  0  0  0  0  0  0  0  0  0
  179.4970   21.6130   46.6510 C   0  0  0  0  0  0  0  0  0  0  0  0
  178.7250   22.5950   47.3080 C   0  0  0  0  0  0  0  0  0  0  0  0
  177.3980   22.3420   47.6620 C   0  0  0  0  0  0  0  0  0  0  0  0
  176.8920   21.0990   47.3400 C   0  0  0  0  0  0  0  0  0  0  0  0
  175.5630   20.5290   47.5700 C   0  0  0  0  0  0  0  0  0  0  0  0
  174.6200   21.0630   48.1050 O   0  0  0  0  0  0  0  0  0  0  0  0
  177.2610   18.1540   46.0400 H   0  0  0  0  0  0  0  0  0  0  0  0
  179.5601   19.5925   45.8262 H   0  0  0  0  0  0  0  0  0  0  0  0
  180.5396   21.8369   46.3810 H   0  0  0  0  0  0  0  0  0  0  0  0
  179.1739   23.5711   47.5440 H   0  0  0  0  0  0  0  0  0  0  0  0
  176.7846   23.0982   48.1737 H   0  0  0  0  0  0  0  0  0  0  0  0
  1  2  2  0
  2  3  1  0
  3  4  1  0
  4  5  2  0
  5  6  1  0
  6  7  2  0
  7  8  1  0
  8  9  2  0
  9 10  1  0
 10 11  2  0
 10  2  1  0
  9  4  1  0
  3 12  1  0
  5 13  1  0
  6 14  1  0
  7 15  1  0
  8 16  1  0
M  END
>  <meeko>  (2) 
{"is_sidechain": [false], "free_energy": -5.206, "intermolecular_energy": -5.206, "internal_energy": 0.0}

$$$$
isatin_out
     RDKit          3D

 16 17  0  0  0  0  0  0  0  0999 V2000
  174.0640   22.2680   49.1410 O   0  0  0  0  0  0  0  0  0  0  0  0
  175.0560   21.8880   48.5590 C   0  0  0  0  0  0  0  0  0  0  0  0
  176.2600   22.5470   48.4030 N   0  0  0  0  0  0  0  0  0  0  0  0
  177.1570   21.7780   47.6680 C   0  0  0  0  0  0  0  0  0  0  0  0
  178.4470   22.1100   47.3160 C   0  0  0  0  0  0  0  0  0  0  0  0
  179.1710   21.1730   46.5690 C   0  0  0  0  0  0  0  0  0  0  0  0
  178.6000   19.9390   46.1930 C   0  0  0  0  0  0  0  0  0  0  0  0
  177.2900   19.6180   46.5570 C   0  0  0  0  0  0  0  0  0  0  0  0
  176.5980   20.5580   47.2940 C   0  0  0  0  0  0  0  0  0  0  0  0
  175.2330   20.5290   47.8230 C   0  0  0  0  0  0  0  0  0  0  0  0
  174.4230   19.6390   47.7110 O   0  0  0  0  0  0  0  0  0  0  0  0
  176.4560   23.4420   48.7630 H   0  0  0  0  0  0  0  0  0  0  0  0
  178.8904   23.0728   47.6101 H   0  0  0  0  0  0  0  0  0  0  0  0
  180.2042   21.4033   46.2697 H   0  0  0  0  0  0  0  0  0  0  0  0
  179.1929   19.2216   45.6067 H   0  0  0  0  0  0  0  0  0  0  0  0
  176.8311   18.6605   46.2696 H   0  0  0  0  0  0  0  0  0  0  0  0
  1  2  2  0
  2  3  1  0
  3  4  1  0
  4  5  2  0
  5  6  1  0
  6  7  2  0
  7  8  1  0
  8  9  2  0
  9 10  1  0
 10 11  2  0
 10  2  1  0
  9  4  1  0
  3 12  1  0
  5 13  1  0
  6 14  1  0
  7 15  1  0
  8 16  1  0
M  END
>  <meeko>  (3) 
{"is_sidechain": [false], "free_energy": -5.195, "intermolecular_energy": -5.195, "internal_energy": 0.0}

$$$$
isatin_out
     RDKit          3D

 16 17  0  0  0  0  0  0  0  0999 V2000
  174.6080   23.0490   51.1630 O   0  0  0  0  0  0  0  0  0  0  0  0
  175.0350   22.3720   50.2540 C   0  0  0  0  0  0  0  0  0  0  0  0
  174.8710   21.0160   50.0500 N   0  0  0  0  0  0  0  0  0  0  0  0
  175.5150   20.6070   48.8870 C   0  0  0  0  0  0  0  0  0  0  0  0
  175.5680   19.3310   48.3660 C   0  0  0  0  0  0  0  0  0  0  0  0
  176.2800   19.1520   47.1750 C   0  0  0  0  0  0  0  0  0  0  0  0
  176.9170   20.2360   46.5330 C   0  0  0  0  0  0  0  0  0  0  0  0
  176.8540   21.5230   47.0730 C   0  0  0  0  0  0  0  0  0  0  0  0
  176.1460   21.6730   48.2490 C   0  0  0  0  0  0  0  0  0  0  0  0
  175.8950   22.8680   49.0570 C   0  0  0  0  0  0  0  0  0  0  0  0
  176.2750   23.9930   48.8360 O   0  0  0  0  0  0  0  0  0  0  0  0
  174.3660   20.4190   50.6480 H   0  0  0  0  0  0  0  0  0  0  0  0
  175.0702   18.4876   48.8670 H   0  0  0  0  0  0  0  0  0  0  0  0
  176.3447   18.1479   46.7305 H   0  0  0  0  0  0  0  0  0  0  0  0
  177.4692   20.0654   45.5971 H   0  0  0  0  0  0  0  0  0  0  0  0
  177.3455   22.3770   46.5841 H   0  0  0  0  0  0  0  0  0  0  0  0
  1  2  2  0
  2  3  1  0
  3  4  1  0
  4  5  2  0
  5  6  1  0
  6  7  2  0
  7  8  1  0
  8  9  2  0
  9 10  1  0
 10 11  2  0
 10  2  1  0
  9  4  1  0
  3 12  1  0
  5 13  1  0
  6 14  1  0
  7 15  1  0
  8 16  1  0
M  END
>  <meeko>  (4) 
{"is_sidechain": [false], "free_energy": -5.113, "intermolecular_energy": -5.113, "internal_energy": 0.0}

$$$$
isatin_out
     RDKit          3D

 16 17  0  0  0  0  0  0  0  0999 V2000
  174.4420   19.2670   47.1280 O   0  0  0  0  0  0  0  0  0  0  0  0
  175.5890   19.6400   47.0200 C   0  0  0  0  0  0  0  0  0  0  0  0
  176.6640   18.9530   46.4920 N   0  0  0  0  0  0  0  0  0  0  0  0
  177.8220   19.7230   46.5450 C   0  0  0  0  0  0  0  0  0  0  0  0
  179.0810   19.3670   46.1110 C   0  0  0  0  0  0  0  0  0  0  0  0
  180.1040   20.3100   46.2650 C   0  0  0  0  0  0  0  0  0  0  0  0
  179.8530   21.5740   46.8420 C   0  0  0  0  0  0  0  0  0  0  0  0
  178.5710   21.9190   47.2760 C   0  0  0  0  0  0  0  0  0  0  0  0
  177.5800   20.9720   47.1130 C   0  0  0  0  0  0  0  0  0  0  0  0
  176.1580   21.0200   47.4570 C   0  0  0  0  0  0  0  0  0  0  0  0
  175.5590   21.9360   47.9700 O   0  0  0  0  0  0  0  0  0  0  0  0
  176.6170   18.0390   46.1270 H   0  0  0  0  0  0  0  0  0  0  0  0
  179.2740   18.3816   45.6618 H   0  0  0  0  0  0  0  0  0  0  0  0
  181.1220   20.0618   45.9304 H   0  0  0  0  0  0  0  0  0  0  0  0
  180.6764   22.2952   46.9510 H   0  0  0  0  0  0  0  0  0  0  0  0
  178.3608   22.9001   47.7269 H   0  0  0  0  0  0  0  0  0  0  0  0
  1  2  2  0
  2  3  1  0
  3  4  1  0
  4  5  2  0
  5  6  1  0
  6  7  2  0
  7  8  1  0
  8  9  2  0
  9 10  1  0
 10 11  2  0
 10  2  1  0
  9  4  1  0
  3 12  1  0
  5 13  1  0
  6 14  1  0
  7 15  1  0
  8 16  1  0
M  END
>  <meeko>  (5) 
{"is_sidechain": [false], "free_energy": -5.063, "intermolecular_energy": -5.063, "internal_energy": 0.0}

$$$$
isatin_out
     RDKit          3D

 16 17  0  0  0  0  0  0  0  0999 V2000
  177.4910   22.7850   52.3020 O   0  0  0  0  0  0  0  0  0  0  0  0
  177.2580   22.1290   51.3110 C   0  0  0  0  0  0  0  0  0  0  0  0
  176.2500   21.2040   51.1170 N   0  0  0  0  0  0  0  0  0  0  0  0
  176.3150   20.6590   49.8390 C   0  0  0  0  0  0  0  0  0  0  0  0
  175.4770   19.7100   49.2930 C   0  0  0  0  0  0  0  0  0  0  0  0
  175.7330   19.3070   47.9770 C   0  0  0  0  0  0  0  0  0  0  0  0
  176.8070   19.8520   47.2410 C   0  0  0  0  0  0  0  0  0  0  0  0
  177.6470   20.8130   47.8080 C   0  0  0  0  0  0  0  0  0  0  0  0
  177.3730   21.1940   49.1070 C   0  0  0  0  0  0  0  0  0  0  0  0
  178.0510   22.1600   49.9730 C   0  0  0  0  0  0  0  0  0  0  0  0
  179.0160   22.8350   49.7030 O   0  0  0  0  0  0  0  0  0  0  0  0
  175.5770   20.9630   51.7940 H   0  0  0  0  0  0  0  0  0  0  0  0
  174.6407   19.2864   49.8685 H   0  0  0  0  0  0  0  0  0  0  0  0
  175.0853   18.5517   47.5079 H   0  0  0  0  0  0  0  0  0  0  0  0
  176.9845   19.5159   46.2088 H   0  0  0  0  0  0  0  0  0  0  0  0
  178.4876   21.2463   47.2462 H   0  0  0  0  0  0  0  0  0  0  0  0
  1  2  2  0
  2  3  1  0
  3  4  1  0
  4  5  2  0
  5  6  1  0
  6  7  2  0
  7  8  1  0
  8  9  2  0
  9 10  1  0
 10 11  2  0
 10  2  1  0
  9  4  1  0
  3 12  1  0
  5 13  1  0
  6 14  1  0
  7 15  1  0
  8 16  1  0
M  END
>  <meeko>  (6) 
{"is_sidechain": [false], "free_energy": -4.981, "intermolecular_energy": -4.981, "internal_energy": 0.0}

$$$$
isatin_out
     RDKit          3D

 16 17  0  0  0  0  0  0  0  0999 V2000
  180.9240   21.1160   46.3270 O   0  0  0  0  0  0  0  0  0  0  0  0
  179.7470   20.8840   46.4910 C   0  0  0  0  0  0  0  0  0  0  0  0
  178.7550   21.7520   46.9010 N   0  0  0  0  0  0  0  0  0  0  0  0
  177.5250   21.1050   46.9690 C   0  0  0  0  0  0  0  0  0  0  0  0
  176.3140   21.6510   47.3390 C   0  0  0  0  0  0  0  0  0  0  0  0
  175.1990   20.8050   47.3340 C   0  0  0  0  0  0  0  0  0  0  0  0
  175.3120   19.4480   46.9640 C   0  0  0  0  0  0  0  0  0  0  0  0
  176.5460   18.9100   46.5920 C   0  0  0  0  0  0  0  0  0  0  0  0
  177.6300   19.7650   46.6050 C   0  0  0  0  0  0  0  0  0  0  0  0
  179.0350   19.5180   46.2750 C   0  0  0  0  0  0  0  0  0  0  0  0
  179.5300   18.4760   45.9140 O   0  0  0  0  0  0  0  0  0  0  0  0
  178.8990   22.7020   47.1180 H   0  0  0  0  0  0  0  0  0  0  0  0
  176.2277   22.7092   47.6266 H   0  0  0  0  0  0  0  0  0  0  0  0
  174.2163   21.2054   47.6239 H   0  0  0  0  0  0  0  0  0  0  0  0
  174.4182   18.8068   46.9686 H   0  0  0  0  0  0  0  0  0  0  0  0
  176.6495   17.8540   46.3021 H   0  0  0  0  0  0  0  0  0  0  0  0
  1  2  2  0
  2  3  1  0
  3  4  1  0
  4  5  2  0
  5  6  1  0
  6  7  2  0
  7  8  1  0
  8  9  2  0
  9 10  1  0
 10 11  2  0
 10  2  1  0
  9  4  1  0
  3 12  1  0
  5 13  1  0
  6 14  1  0
  7 15  1  0
  8 16  1  0
M  END
>  <meeko>  (7) 
{"is_sidechain": [false], "free_energy": -4.925, "intermolecular_energy": -4.925, "internal_energy": 0.0}

$$$$
isatin_out
     RDKit          3D

 16 17  0  0  0  0  0  0  0  0999 V2000
  179.1500   23.8210   47.3980 O   0  0  0  0  0  0  0  0  0  0  0  0
  178.4160   22.8650   47.2820 C   0  0  0  0  0  0  0  0  0  0  0  0
  177.0820   22.7650   47.6250 N   0  0  0  0  0  0  0  0  0  0  0  0
  176.5870   21.4970   47.3360 C   0  0  0  0  0  0  0  0  0  0  0  0
  175.3050   21.0350   47.5420 C   0  0  0  0  0  0  0  0  0  0  0  0
  175.0300   19.7140   47.1720 C   0  0  0  0  0  0  0  0  0  0  0  0
  176.0290   18.8890   46.6110 C   0  0  0  0  0  0  0  0  0  0  0  0
  177.3240   19.3720   46.4080 C   0  0  0  0  0  0  0  0  0  0  0  0
  177.5680   20.6790   46.7810 C   0  0  0  0  0  0  0  0  0  0  0  0
  178.7970   21.4720   46.7030 C   0  0  0  0  0  0  0  0  0  0  0  0
  179.8710   21.1170   46.2780 O   0  0  0  0  0  0  0  0  0  0  0  0
  176.5530   23.4950   48.0210 H   0  0  0  0  0  0  0  0  0  0  0  0
  174.5286   21.6794   47.9800 H   0  0  0  0  0  0  0  0  0  0  0  0
  174.0174   19.3110   47.3208 H   0  0  0  0  0  0  0  0  0  0  0  0
  175.7848   17.8538   46.3305 H   0  0  0  0  0  0  0  0  0  0  0  0
  178.1122   18.7409   45.9716 H   0  0  0  0  0  0  0  0  0  0  0  0
  1  2  2  0
  2  3  1  0
  3  4  1  0
  4  5  2  0
  5  6  1  0
  6  7  2  0
  7  8  1  0
  8  9  2  0
  9 10  1  0
 10 11  2  0
 10  2  1  0
  9  4  1  0
  3 12  1  0
  5 13  1  0
  6 14  1  0
  7 15  1  0
  8 16  1  0
M  END
>  <meeko>  (8) 
{"is_sidechain": [false], "free_energy": -4.892, "intermolecular_energy": -4.892, "internal_energy": 0.0}

$$$$
isatin_out
     RDKit          3D

 16 17  0  0  0  0  0  0  0  0999 V2000
  181.1960   18.8900   46.0130 O   0  0  0  0  0  0  0  0  0  0  0  0
  180.1320   19.4090   46.2700 C   0  0  0  0  0  0  0  0  0  0  0  0
  178.8710   18.8510   46.1980 N   0  0  0  0  0  0  0  0  0  0  0  0
  177.8980   19.7710   46.5760 C   0  0  0  0  0  0  0  0  0  0  0  0
  176.5350   19.5710   46.6260 C   0  0  0  0  0  0  0  0  0  0  0  0
  175.7420   20.6480   47.0400 C   0  0  0  0  0  0  0  0  0  0  0  0
  176.3180   21.8880   47.3900 C   0  0  0  0  0  0  0  0  0  0  0  0
  177.7010   22.0750   47.3340 C   0  0  0  0  0  0  0  0  0  0  0  0
  178.4600   20.9970   46.9230 C   0  0  0  0  0  0  0  0  0  0  0  0
  179.9100   20.8680   46.7590 C   0  0  0  0  0  0  0  0  0  0  0  0
  180.7470   21.7150   46.9610 O   0  0  0  0  0  0  0  0  0  0  0  0
  178.6850   17.9260   45.9160 H   0  0  0  0  0  0  0  0  0  0  0  0
  176.0883   18.6040   46.3516 H   0  0  0  0  0  0  0  0  0  0  0  0
  174.6502   20.5255   47.0935 H   0  0  0  0  0  0  0  0  0  0  0  0
  175.6700   22.7170   47.7107 H   0  0  0  0  0  0  0  0  0  0  0  0
  178.1638   23.0356   47.6045 H   0  0  0  0  0  0  0  0  0  0  0  0
  1  2  2  0
  2  3  1  0
  3  4  1  0
  4  5  2  0
  5  6  1  0
  6  7  2  0
  7  8  1  0
  8  9  2  0
  9 10  1  0
 10 11  2  0
 10  2  1  0
  9  4  1  0
  3 12  1  0
  5 13  1  0
  6 14  1  0
  7 15  1  0
  8 16  1  0
M  END
>  <meeko>  (9) 
{"is_sidechain": [false], "free_energy": -4.864, "intermolecular_energy": -4.864, "internal_energy": 0.0}

$$$$
