kaempferol_out
     RDKit          3D

 31 33  0  0  0  0  0  0  0  0999 V2000
  174.3170   20.2650   48.1330 O   0  0  0  0  0  0  0  0  0  0  0  0
  175.3600   20.9140   48.1020 C   0  0  0  0  0  0  0  0  0  0  0  0
  176.5770   20.3550   47.4700 C   0  0  0  0  0  0  0  0  0  0  0  0
  176.4730   19.0930   46.9140 O   0  0  0  0  0  0  0  0  0  0  0  0
  177.6960   21.1020   47.4560 C   0  0  0  0  0  0  0  0  0  0  0  0
  178.9640   20.6550   46.8420 C   0  0  0  0  0  0  0  0  0  0  0  0
  180.1270   20.4580   47.6040 C   0  0  0  0  0  0  0  0  0  0  0  0
  181.3220   20.0570   47.0000 C   0  0  0  0  0  0  0  0  0  0  0  0
  181.3610   19.8590   45.6250 C   0  0  0  0  0  0  0  0  0  0  0  0
  182.5040   19.4680   44.9950 O   0  0  0  0  0  0  0  0  0  0  0  0
  180.2280   20.0560   44.8480 C   0  0  0  0  0  0  0  0  0  0  0  0
  179.0340   20.4560   45.4530 C   0  0  0  0  0  0  0  0  0  0  0  0
  177.7800   22.3810   47.9960 O   0  0  0  0  0  0  0  0  0  0  0  0
  176.6720   22.9240   48.5950 C   0  0  0  0  0  0  0  0  0  0  0  0
  176.8020   24.2040   49.1330 C   0  0  0  0  0  0  0  0  0  0  0  0
  175.7090   24.8030   49.7510 C   0  0  0  0  0  0  0  0  0  0  0  0
  175.8790   26.0540   50.2630 O   0  0  0  0  0  0  0  0  0  0  0  0
  174.4850   24.1440   49.8430 C   0  0  0  0  0  0  0  0  0  0  0  0
  174.3600   22.8660   49.3040 C   0  0  0  0  0  0  0  0  0  0  0  0
  173.1360   22.2650   49.4220 O   0  0  0  0  0  0  0  0  0  0  0  0
  175.4530   22.2560   48.6800 C   0  0  0  0  0  0  0  0  0  0  0  0
  176.9180   18.3700   47.3090 H   0  0  0  0  0  0  0  0  0  0  0  0
  180.0971   20.6215   48.6914 H   0  0  0  0  0  0  0  0  0  0  0  0
  182.2248   19.8993   47.6084 H   0  0  0  0  0  0  0  0  0  0  0  0
  183.3370   19.7640   45.3070 H   0  0  0  0  0  0  0  0  0  0  0  0
  180.2700   19.8978   43.7602 H   0  0  0  0  0  0  0  0  0  0  0  0
  178.1385   20.6170   44.8348 H   0  0  0  0  0  0  0  0  0  0  0  0
  177.7624   24.7365   49.0691 H   0  0  0  0  0  0  0  0  0  0  0  0
  175.4660   26.2900   51.0710 H   0  0  0  0  0  0  0  0  0  0  0  0
  173.6280   24.6271   50.3352 H   0  0  0  0  0  0  0  0  0  0  0  0
  173.0460   21.3470   49.2580 H   0  0  0  0  0  0  0  0  0  0  0  0
  1  2  2  0
  2  3  1  0
  3  4  1  0
  3  5  2  0
  5  6  1  0
  6  7  2  0
  7  8  1  0
  8  9  2  0
  9 10  1  0
  9 11  1  0
 11 12  2  0
  5 13  1  0
 13 14  1  0
 14 15  2  0
 15 16  1  0
 16 17  1  0
 16 18  2  0
 18 19  1  0
 19 20  1  0
 19 21  2  0
 21  2  1  0
 12  6  1  0
 21 14  1  0
  4 22  1  0
  7 23  1  0
  8 24  1  0
 10 25  1  0
 11 26  1  0
 12 27  1  0
 15 28  1  0
 17 29  1  0
 18 30  1  0
 20 31  1  0
M  END
>  <meeko>  (1) 
{"is_sidechain": [false], "free_energy": -6.896, "intermolecular_energy": -8.106, "internal_energy": -0.177}

$$$$
kaempferol_out
     RDKit          3D

 31 33  0  0  0  0  0  0  0  0999 V2000
  178.8670   22.2220   51.8660 O   0  0  0  0  0  0  0  0  0  0  0  0
  178.8570   21.9380   50.6700 C   0  0  0  0  0  0  0  0  0  0  0  0
  180.0800   22.0890   49.8490 C   0  0  0  0  0  0  0  0  0  0  0  0
  181.2160   22.5450   50.4920 O   0  0  0  0  0  0  0  0  0  0  0  0
  180.0230   21.7640   48.5440 C   0  0  0  0  0  0  0  0  0  0  0  0
  181.1830   21.8610   47.6320 C   0  0  0  0  0  0  0  0  0  0  0  0
  182.1040   22.9170   47.7160 C   0  0  0  0  0  0  0  0  0  0  0  0
  183.1810   23.0020   46.8280 C   0  0  0  0  0  0  0  0  0  0  0  0
  183.3360   22.0320   45.8450 C   0  0  0  0  0  0  0  0  0  0  0  0
  184.3710   22.0760   44.9600 O   0  0  0  0  0  0  0  0  0  0  0  0
  182.4330   20.9840   45.7350 C   0  0  0  0  0  0  0  0  0  0  0  0
  181.3580   20.8990   46.6230 C   0  0  0  0  0  0  0  0  0  0  0  0
  178.8810   21.2810   47.9160 O   0  0  0  0  0  0  0  0  0  0  0  0
  177.7300   21.1370   48.6480 C   0  0  0  0  0  0  0  0  0  0  0  0
  176.6050   20.6610   47.9760 C   0  0  0  0  0  0  0  0  0  0  0  0
  175.4100   20.4940   48.6710 C   0  0  0  0  0  0  0  0  0  0  0  0
  174.3350   20.0260   47.9760 O   0  0  0  0  0  0  0  0  0  0  0  0
  175.3200   20.7950   50.0280 C   0  0  0  0  0  0  0  0  0  0  0  0
  176.4460   21.2710   50.6930 C   0  0  0  0  0  0  0  0  0  0  0  0
  176.3020   21.5510   52.0250 O   0  0  0  0  0  0  0  0  0  0  0  0
  177.6520   21.4420   50.0040 C   0  0  0  0  0  0  0  0  0  0  0  0
  181.7900   23.1450   50.0580 H   0  0  0  0  0  0  0  0  0  0  0  0
  181.9769   23.6878   48.4905 H   0  0  0  0  0  0  0  0  0  0  0  0
  183.9002   23.8306   46.9070 H   0  0  0  0  0  0  0  0  0  0  0  0
  185.1960   22.4380   45.2200 H   0  0  0  0  0  0  0  0  0  0  0  0
  182.5633   20.2230   44.9514 H   0  0  0  0  0  0  0  0  0  0  0  0
  180.6408   20.0700   46.5313 H   0  0  0  0  0  0  0  0  0  0  0  0
  176.6610   20.4191   46.9044 H   0  0  0  0  0  0  0  0  0  0  0  0
  173.4830   20.0400   48.3670 H   0  0  0  0  0  0  0  0  0  0  0  0
  174.3710   20.6582   50.5671 H   0  0  0  0  0  0  0  0  0  0  0  0
  175.4780   21.4070   52.4480 H   0  0  0  0  0  0  0  0  0  0  0  0
  1  2  2  0
  2  3  1  0
  3  4  1  0
  3  5  2  0
  5  6  1  0
  6  7  2  0
  7  8  1  0
  8  9  2  0
  9 10  1  0
  9 11  1  0
 11 12  2  0
  5 13  1  0
 13 14  1  0
 14 15  2  0
 15 16  1  0
 16 17  1  0
 16 18  2  0
 18 19  1  0
 19 20  1  0
 19 21  2  0
 21  2  1  0
 12  6  1  0
 21 14  1  0
  4 22  1  0
  7 23  1  0
  8 24  1  0
 10 25  1  0
 11 26  1  0
 12 27  1  0
 15 28  1  0
 17 29  1  0
 18 30  1  0
 20 31  1  0
M  END
>  <meeko>  (2) 
{"is_sidechain": [false], "free_energy": -6.881, "intermolecular_energy": -8.344, "internal_energy": 0.079}

$$$$
kaempferol_out
     RDKit          3D

 31 33  0  0  0  0  0  0  0  0999 V2000
  178.0340   23.3630   47.8660 O   0  0  0  0  0  0  0  0  0  0  0  0
  176.9540   22.8180   48.0850 C   0  0  0  0  0  0  0  0  0  0  0  0
  175.9180   23.4990   48.8930 C   0  0  0  0  0  0  0  0  0  0  0  0
  176.2200   24.7620   49.3690 O   0  0  0  0  0  0  0  0  0  0  0  0
  174.7490   22.8670   49.1050 C   0  0  0  0  0  0  0  0  0  0  0  0
  173.6370   23.4530   49.8840 C   0  0  0  0  0  0  0  0  0  0  0  0
  173.5830   23.3580   51.2840 C   0  0  0  0  0  0  0  0  0  0  0  0
  172.5110   23.8990   52.0000 C   0  0  0  0  0  0  0  0  0  0  0  0
  171.4810   24.5330   51.3140 C   0  0  0  0  0  0  0  0  0  0  0  0
  170.4180   25.0750   51.9720 O   0  0  0  0  0  0  0  0  0  0  0  0
  171.5050   24.6310   49.9300 C   0  0  0  0  0  0  0  0  0  0  0  0
  172.5780   24.0900   49.2160 C   0  0  0  0  0  0  0  0  0  0  0  0
  174.4470   21.6070   48.5990 O   0  0  0  0  0  0  0  0  0  0  0  0
  175.3890   20.9470   47.8520 C   0  0  0  0  0  0  0  0  0  0  0  0
  175.0510   19.6820   47.3740 C   0  0  0  0  0  0  0  0  0  0  0  0
  175.9690   18.9690   46.6090 C   0  0  0  0  0  0  0  0  0  0  0  0
  175.5980   17.7370   46.1610 O   0  0  0  0  0  0  0  0  0  0  0  0
  177.2230   19.4990   46.3130 C   0  0  0  0  0  0  0  0  0  0  0  0
  177.5560   20.7630   46.7940 C   0  0  0  0  0  0  0  0  0  0  0  0
  178.8010   21.2340   46.4730 O   0  0  0  0  0  0  0  0  0  0  0  0
  176.6400   21.4870   47.5630 C   0  0  0  0  0  0  0  0  0  0  0  0
  175.6010   25.2220   49.9020 H   0  0  0  0  0  0  0  0  0  0  0  0
  174.3955   22.8508   51.8249 H   0  0  0  0  0  0  0  0  0  0  0  0
  172.4826   23.8237   53.0971 H   0  0  0  0  0  0  0  0  0  0  0  0
  170.5570   25.7180   52.6400 H   0  0  0  0  0  0  0  0  0  0  0  0
  170.6834   25.1321   49.3972 H   0  0  0  0  0  0  0  0  0  0  0  0
  172.5934   24.1639   48.1186 H   0  0  0  0  0  0  0  0  0  0  0  0
  174.0649   19.2501   47.6001 H   0  0  0  0  0  0  0  0  0  0  0  0
  174.9110   17.2690   46.5940 H   0  0  0  0  0  0  0  0  0  0  0  0
  177.9409   18.9266   45.7072 H   0  0  0  0  0  0  0  0  0  0  0  0
  179.3820   21.5220   47.1490 H   0  0  0  0  0  0  0  0  0  0  0  0
  1  2  2  0
  2  3  1  0
  3  4  1  0
  3  5  2  0
  5  6  1  0
  6  7  2  0
  7  8  1  0
  8  9  2  0
  9 10  1  0
  9 11  1  0
 11 12  2  0
  5 13  1  0
 13 14  1  0
 14 15  2  0
 15 16  1  0
 16 17  1  0
 16 18  2  0
 18 19  1  0
 19 20  1  0
 19 21  2  0
 21  2  1  0
 12  6  1  0
 21 14  1  0
  4 22  1  0
  7 23  1  0
  8 24  1  0
 10 25  1  0
 11 26  1  0
 12 27  1  0
 15 28  1  0
 17 29  1  0
 18 30  1  0
 20 31  1  0
M  END
>  <meeko>  (3) 
{"is_sidechain": [false], "free_energy": -6.875, "intermolecular_energy": -7.959, "internal_energy": -0.299}

$$$$
kaempferol_out
     RDKit          3D

 31 33  0  0  0  0  0  0  0  0999 V2000
  181.6040   23.1210   47.8430 O   0  0  0  0  0  0  0  0  0  0  0  0
  180.6500   22.3560   47.7180 C   0  0  0  0  0  0  0  0  0  0  0  0
  179.3670   22.6340   48.4030 C   0  0  0  0  0  0  0  0  0  0  0  0
  179.2970   23.7860   49.1640 O   0  0  0  0  0  0  0  0  0  0  0  0
  178.3480   21.7700   48.2350 C   0  0  0  0  0  0  0  0  0  0  0  0
  177.0190   21.9520   48.8570 C   0  0  0  0  0  0  0  0  0  0  0  0
  176.3400   23.1800   48.8060 C   0  0  0  0  0  0  0  0  0  0  0  0
  175.0940   23.3370   49.4210 C   0  0  0  0  0  0  0  0  0  0  0  0
  174.5250   22.2650   50.0980 C   0  0  0  0  0  0  0  0  0  0  0  0
  173.3120   22.3740   50.7100 O   0  0  0  0  0  0  0  0  0  0  0  0
  175.1800   21.0440   50.1710 C   0  0  0  0  0  0  0  0  0  0  0  0
  176.4250   20.8880   49.5550 C   0  0  0  0  0  0  0  0  0  0  0  0
  178.4230   20.6280   47.4450 O   0  0  0  0  0  0  0  0  0  0  0  0
  179.6010   20.3400   46.8030 C   0  0  0  0  0  0  0  0  0  0  0  0
  179.6360   19.1800   46.0310 C   0  0  0  0  0  0  0  0  0  0  0  0
  180.8050   18.8400   45.3570 C   0  0  0  0  0  0  0  0  0  0  0  0
  180.7970   17.6990   44.6120 O   0  0  0  0  0  0  0  0  0  0  0  0
  181.9430   19.6400   45.4420 C   0  0  0  0  0  0  0  0  0  0  0  0
  181.9020   20.7970   46.2160 C   0  0  0  0  0  0  0  0  0  0  0  0
  183.0470   21.5460   46.2640 O   0  0  0  0  0  0  0  0  0  0  0  0
  180.7310   21.1480   46.8970 C   0  0  0  0  0  0  0  0  0  0  0  0
  179.2490   23.7270   50.0980 H   0  0  0  0  0  0  0  0  0  0  0  0
  176.7942   24.0297   48.2753 H   0  0  0  0  0  0  0  0  0  0  0  0
  174.5682   24.3018   49.3693 H   0  0  0  0  0  0  0  0  0  0  0  0
  172.5260   22.3760   50.1980 H   0  0  0  0  0  0  0  0  0  0  0  0
  174.7216   20.2026   50.7112 H   0  0  0  0  0  0  0  0  0  0  0  0
  176.9454   19.9209   49.6177 H   0  0  0  0  0  0  0  0  0  0  0  0
  178.7460   18.5380   45.9551 H   0  0  0  0  0  0  0  0  0  0  0  0
  180.9830   17.7370   43.6940 H   0  0  0  0  0  0  0  0  0  0  0  0
  182.8615   19.3612   44.9048 H   0  0  0  0  0  0  0  0  0  0  0  0
  183.8600   21.1450   46.5010 H   0  0  0  0  0  0  0  0  0  0  0  0
  1  2  2  0
  2  3  1  0
  3  4  1  0
  3  5  2  0
  5  6  1  0
  6  7  2  0
  7  8  1  0
  8  9  2  0
  9 10  1  0
  9 11  1  0
 11 12  2  0
  5 13  1  0
 13 14  1  0
 14 15  2  0
 15 16  1  0
 16 17  1  0
 16 18  2  0
 18 19  1  0
 19 20  1  0
 19 21  2  0
 21  2  1  0
 12  6  1  0
 21 14  1  0
  4 22  1  0
  7 23  1  0
  8 24  1  0
 10 25  1  0
 11 26  1  0
 12 27  1  0
 15 28  1  0
 17 29  1  0
 18 30  1  0
 20 31  1  0
M  END
>  <meeko>  (4) 
{"is_sidechain": [false], "free_energy": -6.807, "intermolecular_energy": -8.16, "internal_energy": -0.017}

$$$$
kaempferol_out
     RDKit          3D

 31 33  0  0  0  0  0  0  0  0999 V2000
  179.3370   25.1280   49.0780 O   0  0  0  0  0  0  0  0  0  0  0  0
  179.5250   23.9330   48.8570 C   0  0  0  0  0  0  0  0  0  0  0  0
  178.3930   23.0450   48.5080 C   0  0  0  0  0  0  0  0  0  0  0  0
  177.1390   23.6240   48.4330 O   0  0  0  0  0  0  0  0  0  0  0  0
  178.6450   21.7440   48.2720 C   0  0  0  0  0  0  0  0  0  0  0  0
  177.5980   20.7670   47.9020 C   0  0  0  0  0  0  0  0  0  0  0  0
  176.5940   20.3830   48.8050 C   0  0  0  0  0  0  0  0  0  0  0  0
  175.6260   19.4400   48.4430 C   0  0  0  0  0  0  0  0  0  0  0  0
  175.6650   18.8710   47.1760 C   0  0  0  0  0  0  0  0  0  0  0  0
  174.7420   17.9490   46.7820 O   0  0  0  0  0  0  0  0  0  0  0  0
  176.6530   19.2270   46.2690 C   0  0  0  0  0  0  0  0  0  0  0  0
  177.6190   20.1700   46.6310 C   0  0  0  0  0  0  0  0  0  0  0  0
  179.9150   21.1790   48.3250 O   0  0  0  0  0  0  0  0  0  0  0  0
  180.9830   21.9750   48.6520 C   0  0  0  0  0  0  0  0  0  0  0  0
  182.2360   21.3660   48.7060 C   0  0  0  0  0  0  0  0  0  0  0  0
  183.3550   22.1270   49.0310 C   0  0  0  0  0  0  0  0  0  0  0  0
  184.5610   21.4940   49.0720 O   0  0  0  0  0  0  0  0  0  0  0  0
  183.2440   23.4890   49.3060 C   0  0  0  0  0  0  0  0  0  0  0  0
  181.9890   24.0910   49.2510 C   0  0  0  0  0  0  0  0  0  0  0  0
  181.9370   25.4300   49.5300 O   0  0  0  0  0  0  0  0  0  0  0  0
  180.8590   23.3350   48.9240 C   0  0  0  0  0  0  0  0  0  0  0  0
  176.9080   24.1440   47.6880 H   0  0  0  0  0  0  0  0  0  0  0  0
  176.5681   20.8293   49.8101 H   0  0  0  0  0  0  0  0  0  0  0  0
  174.8399   19.1512   49.1561 H   0  0  0  0  0  0  0  0  0  0  0  0
  173.9380   17.8580   47.2550 H   0  0  0  0  0  0  0  0  0  0  0  0
  176.6758   18.7689   45.2692 H   0  0  0  0  0  0  0  0  0  0  0  0
  178.4043   20.4476   45.9125 H   0  0  0  0  0  0  0  0  0  0  0  0
  182.3394   20.2917   48.4933 H   0  0  0  0  0  0  0  0  0  0  0  0
  185.1970   21.7390   49.7150 H   0  0  0  0  0  0  0  0  0  0  0  0
  184.1352   24.0803   49.5629 H   0  0  0  0  0  0  0  0  0  0  0  0
  181.9350   25.7250   50.4190 H   0  0  0  0  0  0  0  0  0  0  0  0
  1  2  2  0
  2  3  1  0
  3  4  1  0
  3  5  2  0
  5  6  1  0
  6  7  2  0
  7  8  1  0
  8  9  2  0
  9 10  1  0
  9 11  1  0
 11 12  2  0
  5 13  1  0
 13 14  1  0
 14 15  2  0
 15 16  1  0
 16 17  1  0
 16 18  2  0
 18 19  1  0
 19 20  1  0
 19 21  2  0
 21  2  1  0
 12  6  1  0
 21 14  1  0
  4 22  1  0
  7 23  1  0
  8 24  1  0
 10 25  1  0
 11 26  1  0
 12 27  1  0
 15 28  1  0
 17 29  1  0
 18 30  1  0
 20 31  1  0
M  END
>  <meeko>  (5) 
{"is_sidechain": [false], "free_energy": -6.756, "intermolecular_energy": -7.9, "internal_energy": -0.218}

$$$$
kaempferol_out
     RDKit          3D

 31 33  0  0  0  0  0  0  0  0999 V2000
  178.3010   20.3210   45.8300 O   0  0  0  0  0  0  0  0  0  0  0  0
  178.2400   20.9220   46.9010 C   0  0  0  0  0  0  0  0  0  0  0  0
  176.9940   21.6110   47.3080 C   0  0  0  0  0  0  0  0  0  0  0  0
  175.9200   21.5330   46.4410 O   0  0  0  0  0  0  0  0  0  0  0  0
  176.9720   22.2530   48.4910 C   0  0  0  0  0  0  0  0  0  0  0  0
  175.7810   22.9630   49.0070 C   0  0  0  0  0  0  0  0  0  0  0  0
  174.5320   22.3310   49.1140 C   0  0  0  0  0  0  0  0  0  0  0  0
  173.4140   23.0280   49.5830 C   0  0  0  0  0  0  0  0  0  0  0  0
  173.5400   24.3650   49.9390 C   0  0  0  0  0  0  0  0  0  0  0  0
  172.4770   25.0810   50.4010 O   0  0  0  0  0  0  0  0  0  0  0  0
  174.7620   25.0150   49.8330 C   0  0  0  0  0  0  0  0  0  0  0  0
  175.8790   24.3180   49.3650 C   0  0  0  0  0  0  0  0  0  0  0  0
  178.0510   22.3020   49.3660 O   0  0  0  0  0  0  0  0  0  0  0  0
  179.2210   21.6790   49.0150 C   0  0  0  0  0  0  0  0  0  0  0  0
  180.2820   21.7620   49.9160 C   0  0  0  0  0  0  0  0  0  0  0  0
  181.4920   21.1470   49.6100 C   0  0  0  0  0  0  0  0  0  0  0  0
  182.5030   21.2520   50.5180 O   0  0  0  0  0  0  0  0  0  0  0  0
  181.6620   20.4480   48.4160 C   0  0  0  0  0  0  0  0  0  0  0  0
  180.6000   20.3690   47.5200 C   0  0  0  0  0  0  0  0  0  0  0  0
  180.8210   19.6710   46.3630 O   0  0  0  0  0  0  0  0  0  0  0  0
  179.3790   20.9840   47.8180 C   0  0  0  0  0  0  0  0  0  0  0  0
  175.1390   21.0870   46.7030 H   0  0  0  0  0  0  0  0  0  0  0  0
  174.4315   21.2743   48.8253 H   0  0  0  0  0  0  0  0  0  0  0  0
  172.4416   22.5212   49.6694 H   0  0  0  0  0  0  0  0  0  0  0  0
  172.2360   25.0330   51.3060 H   0  0  0  0  0  0  0  0  0  0  0  0
  174.8506   26.0742   50.1162 H   0  0  0  0  0  0  0  0  0  0  0  0
  176.8454   24.8358   49.2759 H   0  0  0  0  0  0  0  0  0  0  0  0
  180.1632   22.3100   50.8623 H   0  0  0  0  0  0  0  0  0  0  0  0
  182.3130   21.4940   51.4030 H   0  0  0  0  0  0  0  0  0  0  0  0
  182.6230   19.9652   48.1850 H   0  0  0  0  0  0  0  0  0  0  0  0
  181.2310   18.8300   46.3940 H   0  0  0  0  0  0  0  0  0  0  0  0
  1  2  2  0
  2  3  1  0
  3  4  1  0
  3  5  2  0
  5  6  1  0
  6  7  2  0
  7  8  1  0
  8  9  2  0
  9 10  1  0
  9 11  1  0
 11 12  2  0
  5 13  1  0
 13 14  1  0
 14 15  2  0
 15 16  1  0
 16 17  1  0
 16 18  2  0
 18 19  1  0
 19 20  1  0
 19 21  2  0
 21  2  1  0
 12  6  1  0
 21 14  1  0
  4 22  1  0
  7 23  1  0
  8 24  1  0
 10 25  1  0
 11 26  1  0
 12 27  1  0
 15 28  1  0
 17 29  1  0
 18 30  1  0
 20 31  1  0
M  END
>  <meeko>  (6) 
{"is_sidechain": [false], "free_energy": -6.684, "intermolecular_energy": -7.949, "internal_energy": -0.083}

$$$$
kaempferol_out
     RDKit          3D

 31 33  0  0  0  0  0  0  0  0999 V2000
  179.6840   21.9190   51.8180 O   0  0  0  0  0  0  0  0  0  0  0  0
  179.0130   22.0960   50.8040 C   0  0  0  0  0  0  0  0  0  0  0  0
  177.6610   22.6930   50.8900 C   0  0  0  0  0  0  0  0  0  0  0  0
  177.2080   23.0460   52.1480 O   0  0  0  0  0  0  0  0  0  0  0  0
  176.9620   22.8710   49.7530 C   0  0  0  0  0  0  0  0  0  0  0  0
  175.6100   23.4690   49.7150 C   0  0  0  0  0  0  0  0  0  0  0  0
  174.4680   22.6980   49.4480 C   0  0  0  0  0  0  0  0  0  0  0  0
  173.2010   23.2870   49.3940 C   0  0  0  0  0  0  0  0  0  0  0  0
  173.0740   24.6560   49.5980 C   0  0  0  0  0  0  0  0  0  0  0  0
  171.8590   25.2720   49.5540 O   0  0  0  0  0  0  0  0  0  0  0  0
  174.1890   25.4420   49.8530 C   0  0  0  0  0  0  0  0  0  0  0  0
  175.4550   24.8510   49.9080 C   0  0  0  0  0  0  0  0  0  0  0  0
  177.4400   22.5350   48.4910 O   0  0  0  0  0  0  0  0  0  0  0  0
  178.6860   21.9740   48.3790 C   0  0  0  0  0  0  0  0  0  0  0  0
  179.1210   21.6430   47.0960 C   0  0  0  0  0  0  0  0  0  0  0  0
  180.3790   21.0710   46.9250 C   0  0  0  0  0  0  0  0  0  0  0  0
  180.7660   20.7630   45.6550 O   0  0  0  0  0  0  0  0  0  0  0  0
  181.2110   20.8250   48.0150 C   0  0  0  0  0  0  0  0  0  0  0  0
  180.7710   21.1580   49.2930 C   0  0  0  0  0  0  0  0  0  0  0  0
  181.6290   20.8940   50.3270 O   0  0  0  0  0  0  0  0  0  0  0  0
  179.5090   21.7330   49.4760 C   0  0  0  0  0  0  0  0  0  0  0  0
  176.8330   23.8930   52.2890 H   0  0  0  0  0  0  0  0  0  0  0  0
  174.5711   21.6160   49.2790 H   0  0  0  0  0  0  0  0  0  0  0  0
  172.3118   22.6718   49.1917 H   0  0  0  0  0  0  0  0  0  0  0  0
  171.5000   25.6580   50.3300 H   0  0  0  0  0  0  0  0  0  0  0  0
  174.0773   26.5248   50.0111 H   0  0  0  0  0  0  0  0  0  0  0  0
  176.3390   25.4755   50.1046 H   0  0  0  0  0  0  0  0  0  0  0  0
  178.4753   21.8323   46.2258 H   0  0  0  0  0  0  0  0  0  0  0  0
  180.8010   21.4330   45.0010 H   0  0  0  0  0  0  0  0  0  0  0  0
  182.2031   20.3733   47.8676 H   0  0  0  0  0  0  0  0  0  0  0  0
  182.2910   21.5150   50.5570 H   0  0  0  0  0  0  0  0  0  0  0  0
  1  2  2  0
  2  3  1  0
  3  4  1  0
  3  5  2  0
  5  6  1  0
  6  7  2  0
  7  8  1  0
  8  9  2  0
  9 10  1  0
  9 11  1  0
 11 12  2  0
  5 13  1  0
 13 14  1  0
 14 15  2  0
 15 16  1  0
 16 17  1  0
 16 18  2  0
 18 19  1  0
 19 20  1  0
 19 21  2  0
 21  2  1  0
 12  6  1  0
 21 14  1  0
  4 22  1  0
  7 23  1  0
  8 24  1  0
 10 25  1  0
 11 26  1  0
 12 27  1  0
 15 28  1  0
 17 29  1  0
 18 30  1  0
 20 31  1  0
M  END
>  <meeko>  (7) 
{"is_sidechain": [false], "free_energy": -6.614, "intermolecular_energy": -7.705, "internal_energy": -0.246}

$$$$
kaempferol_out
     RDKit          3D

 31 33  0  0  0  0  0  0  0  0999 V2000
  174.7830   19.7710   48.2470 O   0  0  0  0  0  0  0  0  0  0  0  0
  175.6650   20.5570   48.5860 C   0  0  0  0  0  0  0  0  0  0  0  0
  175.4400   21.5070   49.6980 C   0  0  0  0  0  0  0  0  0  0  0  0
  174.2120   21.4560   50.3310 O   0  0  0  0  0  0  0  0  0  0  0  0
  176.4360   22.3470   50.0380 C   0  0  0  0  0  0  0  0  0  0  0  0
  176.3300   23.3290   51.1390 C   0  0  0  0  0  0  0  0  0  0  0  0
  176.3410   22.9330   52.4860 C   0  0  0  0  0  0  0  0  0  0  0  0
  176.2170   23.8750   53.5120 C   0  0  0  0  0  0  0  0  0  0  0  0
  176.0730   25.2200   53.1920 C   0  0  0  0  0  0  0  0  0  0  0  0
  175.9490   26.1710   54.1600 O   0  0  0  0  0  0  0  0  0  0  0  0
  176.0490   25.6350   51.8680 C   0  0  0  0  0  0  0  0  0  0  0  0
  176.1740   24.6930   50.8440 C   0  0  0  0  0  0  0  0  0  0  0  0
  177.6770   22.3710   49.4100 O   0  0  0  0  0  0  0  0  0  0  0  0
  177.9130   21.5070   48.3720 C   0  0  0  0  0  0  0  0  0  0  0  0
  179.1660   21.5720   47.7640 C   0  0  0  0  0  0  0  0  0  0  0  0
  179.4600   20.7170   46.7060 C   0  0  0  0  0  0  0  0  0  0  0  0
  180.6970   20.8120   46.1400 O   0  0  0  0  0  0  0  0  0  0  0  0
  178.5230   19.7960   46.2430 C   0  0  0  0  0  0  0  0  0  0  0  0
  177.2730   19.7360   46.8540 C   0  0  0  0  0  0  0  0  0  0  0  0
  176.3900   18.8140   46.3610 O   0  0  0  0  0  0  0  0  0  0  0  0
  176.9680   20.5910   47.9190 C   0  0  0  0  0  0  0  0  0  0  0  0
  173.4250   21.4230   49.8230 H   0  0  0  0  0  0  0  0  0  0  0  0
  176.4486   21.8676   52.7376 H   0  0  0  0  0  0  0  0  0  0  0  0
  176.2333   23.5542   54.5640 H   0  0  0  0  0  0  0  0  0  0  0  0
  176.0150   25.9330   55.0640 H   0  0  0  0  0  0  0  0  0  0  0  0
  175.9320   26.7016   51.6258 H   0  0  0  0  0  0  0  0  0  0  0  0
  176.1500   25.0234   49.7951 H   0  0  0  0  0  0  0  0  0  0  0  0
  179.9168   22.2938   48.1180 H   0  0  0  0  0  0  0  0  0  0  0  0
  181.4310   20.3940   46.5460 H   0  0  0  0  0  0  0  0  0  0  0  0
  178.7671   19.1252   45.4061 H   0  0  0  0  0  0  0  0  0  0  0  0
  175.4900   19.0440   46.2390 H   0  0  0  0  0  0  0  0  0  0  0  0
  1  2  2  0
  2  3  1  0
  3  4  1  0
  3  5  2  0
  5  6  1  0
  6  7  2  0
  7  8  1  0
  8  9  2  0
  9 10  1  0
  9 11  1  0
 11 12  2  0
  5 13  1  0
 13 14  1  0
 14 15  2  0
 15 16  1  0
 16 17  1  0
 16 18  2  0
 18 19  1  0
 19 20  1  0
 19 21  2  0
 21  2  1  0
 12  6  1  0
 21 14  1  0
  4 22  1  0
  7 23  1  0
  8 24  1  0
 10 25  1  0
 11 26  1  0
 12 27  1  0
 15 28  1  0
 17 29  1  0
 18 30  1  0
 20 31  1  0
M  END
>  <meeko>  (8) 
{"is_sidechain": [false], "free_energy": -6.6, "intermolecular_energy": -7.686, "internal_energy": -0.248}

$$$$
kaempferol_out
     RDKit          3D

 31 33  0  0  0  0  0  0  0  0999 V2000
  176.0540   22.8270   49.7310 O   0  0  0  0  0  0  0  0  0  0  0  0
  176.8720   22.1610   49.1000 C   0  0  0  0  0  0  0  0  0  0  0  0
  178.3160   22.4800   49.1680 C   0  0  0  0  0  0  0  0  0  0  0  0
  178.6890   23.5400   49.9740 O   0  0  0  0  0  0  0  0  0  0  0  0
  179.1760   21.7220   48.4630 C   0  0  0  0  0  0  0  0  0  0  0  0
  180.6390   21.9380   48.4640 C   0  0  0  0  0  0  0  0  0  0  0  0
  181.3190   22.4000   47.3260 C   0  0  0  0  0  0  0  0  0  0  0  0
  182.7070   22.5750   47.3410 C   0  0  0  0  0  0  0  0  0  0  0  0
  183.4210   22.2790   48.4960 C   0  0  0  0  0  0  0  0  0  0  0  0
  184.7740   22.4350   48.5550 O   0  0  0  0  0  0  0  0  0  0  0  0
  182.7730   21.8110   49.6310 C   0  0  0  0  0  0  0  0  0  0  0  0
  181.3870   21.6370   49.6140 C   0  0  0  0  0  0  0  0  0  0  0  0
  178.7910   20.6410   47.6760 O   0  0  0  0  0  0  0  0  0  0  0  0
  177.4590   20.3250   47.5880 C   0  0  0  0  0  0  0  0  0  0  0  0
  177.1150   19.2420   46.7800 C   0  0  0  0  0  0  0  0  0  0  0  0
  175.7780   18.8760   46.6560 C   0  0  0  0  0  0  0  0  0  0  0  0
  175.4850   17.8110   45.8570 O   0  0  0  0  0  0  0  0  0  0  0  0
  174.7760   19.5740   47.3260 C   0  0  0  0  0  0  0  0  0  0  0  0
  175.1260   20.6550   48.1310 C   0  0  0  0  0  0  0  0  0  0  0  0
  174.1020   21.3060   48.7660 O   0  0  0  0  0  0  0  0  0  0  0  0
  176.4670   21.0310   48.2630 C   0  0  0  0  0  0  0  0  0  0  0  0
  179.0530   23.3780   50.8220 H   0  0  0  0  0  0  0  0  0  0  0  0
  180.7531   22.6274   46.4105 H   0  0  0  0  0  0  0  0  0  0  0  0
  183.2290   22.9439   46.4458 H   0  0  0  0  0  0  0  0  0  0  0  0
  185.1510   23.2920   48.4880 H   0  0  0  0  0  0  0  0  0  0  0  0
  183.3481   21.5783   50.5394 H   0  0  0  0  0  0  0  0  0  0  0  0
  180.8755   21.2598   50.5118 H   0  0  0  0  0  0  0  0  0  0  0  0
  177.8949   18.6808   46.2443 H   0  0  0  0  0  0  0  0  0  0  0  0
  174.7670   17.2490   46.0710 H   0  0  0  0  0  0  0  0  0  0  0  0
  173.7226   19.2754   47.2207 H   0  0  0  0  0  0  0  0  0  0  0  0
  174.2870   21.8980   49.4680 H   0  0  0  0  0  0  0  0  0  0  0  0
  1  2  2  0
  2  3  1  0
  3  4  1  0
  3  5  2  0
  5  6  1  0
  6  7  2  0
  7  8  1  0
  8  9  2  0
  9 10  1  0
  9 11  1  0
 11 12  2  0
  5 13  1  0
 13 14  1  0
 14 15  2  0
 15 16  1  0
 16 17  1  0
 16 18  2  0
 18 19  1  0
 19 20  1  0
 19 21  2  0
 21  2  1  0
 12  6  1  0
 21 14  1  0
  4 22  1  0
  7 23  1  0
  8 24  1  0
 10 25  1  0
 11 26  1  0
 12 27  1  0
 15 28  1  0
 17 29  1  0
 18 30  1  0
 20 31  1  0
M  END
>  <meeko>  (9) 
{"is_sidechain": [false], "free_energy": -6.535, "intermolecular_energy": -7.637, "internal_energy": -0.221}

$$$$
