lazabemide_out
     RDKit          3D

 24 24  0  0  0  0  0  0  0  0999 V2000
  181.1290   14.7690   40.3420 N   0  0  0  0  0  0  0  0  0  0  0  0
  180.6520   15.6870   41.3840 C   0  0  0  0  0  0  0  0  0  0  0  0
  181.6680   15.8300   42.5280 C   0  0  0  0  0  0  0  0  0  0  0  0
  181.4200   17.0020   43.3440 N   0  0  0  0  0  0  0  0  0  0  0  0
  180.7270   16.9510   44.5330 C   0  0  0  0  0  0  0  0  0  0  0  0
  180.3240   15.9150   45.0490 O   0  0  0  0  0  0  0  0  0  0  0  0
  180.4770   18.2890   45.1600 C   0  0  0  0  0  0  0  0  0  0  0  0
  181.4380   19.2900   45.0640 C   0  0  0  0  0  0  0  0  0  0  0  0
  181.1730   20.5210   45.6650 C   0  0  0  0  0  0  0  0  0  0  0  0
  179.9670   20.7060   46.3330 C   0  0  0  0  0  0  0  0  0  0  0  0
  179.6050   22.2060   47.0820 Cl  0  0  0  0  0  0  0  0  0  0  0  0
  179.0660   19.6500   46.3800 C   0  0  0  0  0  0  0  0  0  0  0  0
  179.2870   18.4400   45.8110 N   0  0  0  0  0  0  0  0  0  0  0  0
  181.8010   14.1160   40.7450 H   0  0  0  0  0  0  0  0  0  0  0  0
  181.5760   15.3030   39.5980 H   0  0  0  0  0  0  0  0  0  0  0  0
  180.3380   14.2490   39.9600 H   0  0  0  0  0  0  0  0  0  0  0  0
  180.4798   16.6764   40.9351 H   0  0  0  0  0  0  0  0  0  0  0  0
  179.7219   15.2751   41.8026 H   0  0  0  0  0  0  0  0  0  0  0  0
  181.6092   14.9362   43.1664 H   0  0  0  0  0  0  0  0  0  0  0  0
  182.6660   15.9394   42.0785 H   0  0  0  0  0  0  0  0  0  0  0  0
  181.7630   17.8720   43.0350 H   0  0  0  0  0  0  0  0  0  0  0  0
  182.3826   19.1156   44.5280 H   0  0  0  0  0  0  0  0  0  0  0  0
  181.9096   21.3362   45.6112 H   0  0  0  0  0  0  0  0  0  0  0  0
  178.1154   19.8052   46.9113 H   0  0  0  0  0  0  0  0  0  0  0  0
  1  2  1  0
  2  3  1  0
  3  4  1  0
  4  5  1  0
  5  6  2  0
  5  7  1  0
  7  8  2  0
  8  9  1  0
  9 10  2  0
 10 11  1  0
 10 12  1  0
 12 13  2  0
 13  7  1  0
  1 14  1  0
  1 15  1  0
  1 16  1  0
  2 17  1  0
  2 18  1  0
  3 19  1  0
  3 20  1  0
  4 21  1  0
  8 22  1  0
  9 23  1  0
 12 24  1  0
M  CHG  1   1   1
M  END
>  <meeko>  (1) 
{"is_sidechain": [false], "free_energy": -4.856, "intermolecular_energy": -5.85, "internal_energy": -0.159}

$$$$
lazabemide_out
     RDKit          3D

 24 24  0  0  0  0  0  0  0  0999 V2000
  173.6360   23.5520   52.5130 N   0  0  0  0  0  0  0  0  0  0  0  0
  174.6760   24.0700   53.4110 C   0  0  0  0  0  0  0  0  0  0  0  0
  176.0170   23.3480   53.2090 C   0  0  0  0  0  0  0  0  0  0  0  0
  176.0120   22.4890   52.0410 N   0  0  0  0  0  0  0  0  0  0  0  0
  177.1650   22.0460   51.4340 C   0  0  0  0  0  0  0  0  0  0  0  0
  178.2930   22.2680   51.8590 O   0  0  0  0  0  0  0  0  0  0  0  0
  176.9400   21.2680   50.1740 C   0  0  0  0  0  0  0  0  0  0  0  0
  175.9230   20.3200   50.1160 C   0  0  0  0  0  0  0  0  0  0  0  0
  175.7470   19.6110   48.9270 C   0  0  0  0  0  0  0  0  0  0  0  0
  176.5850   19.8720   47.8490 C   0  0  0  0  0  0  0  0  0  0  0  0
  176.3980   19.0220   46.3710 Cl  0  0  0  0  0  0  0  0  0  0  0  0
  177.5760   20.8350   47.9960 C   0  0  0  0  0  0  0  0  0  0  0  0
  177.7800   21.5430   49.1340 N   0  0  0  0  0  0  0  0  0  0  0  0
  172.7360   23.9600   52.7650 H   0  0  0  0  0  0  0  0  0  0  0  0
  173.5870   22.5370   52.6000 H   0  0  0  0  0  0  0  0  0  0  0  0
  173.8640   23.8000   51.5500 H   0  0  0  0  0  0  0  0  0  0  0  0
  174.8159   25.1428   53.2121 H   0  0  0  0  0  0  0  0  0  0  0  0
  174.3487   23.8989   54.4472 H   0  0  0  0  0  0  0  0  0  0  0  0
  176.8094   24.1016   53.0899 H   0  0  0  0  0  0  0  0  0  0  0  0
  176.1927   22.7141   54.0907 H   0  0  0  0  0  0  0  0  0  0  0  0
  175.1450   22.2090   51.6670 H   0  0  0  0  0  0  0  0  0  0  0  0
  175.2746   20.1343   50.9849 H   0  0  0  0  0  0  0  0  0  0  0  0
  174.9536   18.8537   48.8437 H   0  0  0  0  0  0  0  0  0  0  0  0
  178.2343   21.0348   47.1377 H   0  0  0  0  0  0  0  0  0  0  0  0
  1  2  1  0
  2  3  1  0
  3  4  1  0
  4  5  1  0
  5  6  2  0
  5  7  1  0
  7  8  2  0
  8  9  1  0
  9 10  2  0
 10 11  1  0
 10 12  1  0
 12 13  2  0
 13  7  1  0
  1 14  1  0
  1 15  1  0
  1 16  1  0
  2 17  1  0
  2 18  1  0
  3 19  1  0
  3 20  1  0
  4 21  1  0
  8 22  1  0
  9 23  1  0
 12 24  1  0
M  CHG  1   1   1
M  END
>  <meeko>  (2) 
{"is_sidechain": [false], "free_energy": -4.713, "intermolecular_energy": -5.682, "internal_energy": -0.155}

$$$$
lazabemide_out
     RDKit          3D

 24 24  0  0  0  0  0  0  0  0999 V2000
  172.8970   22.6820   51.0660 N   0  0  0  0  0  0  0  0  0  0  0  0
  174.1650   22.8300   50.3420 C   0  0  0  0  0  0  0  0  0  0  0  0
  174.0810   22.2600   48.9180 C   0  0  0  0  0  0  0  0  0  0  0  0
  175.3800   21.8850   48.3950 N   0  0  0  0  0  0  0  0  0  0  0  0
  175.6570   20.6240   47.9190 C   0  0  0  0  0  0  0  0  0  0  0  0
  174.8260   19.7290   47.8200 O   0  0  0  0  0  0  0  0  0  0  0  0
  177.0900   20.4090   47.5360 C   0  0  0  0  0  0  0  0  0  0  0  0
  177.4190   19.4330   46.6000 C   0  0  0  0  0  0  0  0  0  0  0  0
  178.7630   19.2580   46.2720 C   0  0  0  0  0  0  0  0  0  0  0  0
  179.7220   20.0560   46.8850 C   0  0  0  0  0  0  0  0  0  0  0  0
  181.3860   19.8710   46.5060 Cl  0  0  0  0  0  0  0  0  0  0  0  0
  179.3040   21.0050   47.8090 C   0  0  0  0  0  0  0  0  0  0  0  0
  178.0090   21.2050   48.1560 N   0  0  0  0  0  0  0  0  0  0  0  0
  172.7710   23.4730   51.6980 H   0  0  0  0  0  0  0  0  0  0  0  0
  172.9120   21.8150   51.6040 H   0  0  0  0  0  0  0  0  0  0  0  0
  172.1260   22.6550   50.3990 H   0  0  0  0  0  0  0  0  0  0  0  0
  174.4182   23.8988   50.2829 H   0  0  0  0  0  0  0  0  0  0  0  0
  174.9374   22.2693   50.8888 H   0  0  0  0  0  0  0  0  0  0  0  0
  173.4352   21.3696   48.9315 H   0  0  0  0  0  0  0  0  0  0  0  0
  173.6712   23.0455   48.2661 H   0  0  0  0  0  0  0  0  0  0  0  0
  176.0940   22.5630   48.3790 H   0  0  0  0  0  0  0  0  0  0  0  0
  176.6389   18.8155   46.1310 H   0  0  0  0  0  0  0  0  0  0  0  0
  179.0611   18.4967   45.5361 H   0  0  0  0  0  0  0  0  0  0  0  0
  180.0702   21.6322   48.2882 H   0  0  0  0  0  0  0  0  0  0  0  0
  1  2  1  0
  2  3  1  0
  3  4  1  0
  4  5  1  0
  5  6  2  0
  5  7  1  0
  7  8  2  0
  8  9  1  0
  9 10  2  0
 10 11  1  0
 10 12  1  0
 12 13  2  0
 13  7  1  0
  1 14  1  0
  1 15  1  0
  1 16  1  0
  2 17  1  0
  2 18  1  0
  3 19  1  0
  3 20  1  0
  4 21  1  0
  8 22  1  0
  9 23  1  0
 12 24  1  0
M  CHG  1   1   1
M  END
>  <meeko>  (3) 
{"is_sidechain": [false], "free_energy": -4.634, "intermolecular_energy": -5.594, "internal_energy": -0.148}

$$$$
lazabemide_out
     RDKit          3D

 24 24  0  0  0  0  0  0  0  0999 V2000
  173.7230   25.5550   50.3060 N   0  0  0  0  0  0  0  0  0  0  0  0
  172.6060   24.7250   50.7770 C   0  0  0  0  0  0  0  0  0  0  0  0
  173.0960   23.5020   51.5660 C   0  0  0  0  0  0  0  0  0  0  0  0
  173.5590   22.4350   50.7010 N   0  0  0  0  0  0  0  0  0  0  0  0
  174.8630   22.3340   50.2710 C   0  0  0  0  0  0  0  0  0  0  0  0
  175.7650   23.0810   50.6330 O   0  0  0  0  0  0  0  0  0  0  0  0
  175.1060   21.2290   49.2890 C   0  0  0  0  0  0  0  0  0  0  0  0
  175.6350   20.0180   49.7250 C   0  0  0  0  0  0  0  0  0  0  0  0
  175.8530   19.0140   48.7820 C   0  0  0  0  0  0  0  0  0  0  0  0
  175.5380   19.2540   47.4490 C   0  0  0  0  0  0  0  0  0  0  0  0
  175.7910   18.0420   46.2600 Cl  0  0  0  0  0  0  0  0  0  0  0  0
  175.0160   20.4930   47.1020 C   0  0  0  0  0  0  0  0  0  0  0  0
  174.7920   21.4940   47.9880 N   0  0  0  0  0  0  0  0  0  0  0  0
  174.4240   24.9620   49.8640 H   0  0  0  0  0  0  0  0  0  0  0  0
  174.1390   26.0440   51.0980 H   0  0  0  0  0  0  0  0  0  0  0  0
  173.3780   26.2360   49.6290 H   0  0  0  0  0  0  0  0  0  0  0  0
  171.9605   25.3331   51.4278 H   0  0  0  0  0  0  0  0  0  0  0  0
  172.0535   24.3645   49.8967 H   0  0  0  0  0  0  0  0  0  0  0  0
  173.9250   23.8120   52.2191 H   0  0  0  0  0  0  0  0  0  0  0  0
  172.2462   23.1164   52.1484 H   0  0  0  0  0  0  0  0  0  0  0  0
  172.9130   21.7520   50.4090 H   0  0  0  0  0  0  0  0  0  0  0  0
  175.8751   19.8568   50.7863 H   0  0  0  0  0  0  0  0  0  0  0  0
  176.2694   18.0433   49.0891 H   0  0  0  0  0  0  0  0  0  0  0  0
  174.7696   20.6729   46.0452 H   0  0  0  0  0  0  0  0  0  0  0  0
  1  2  1  0
  2  3  1  0
  3  4  1  0
  4  5  1  0
  5  6  2  0
  5  7  1  0
  7  8  2  0
  8  9  1  0
  9 10  2  0
 10 11  1  0
 10 12  1  0
 12 13  2  0
 13  7  1  0
  1 14  1  0
  1 15  1  0
  1 16  1  0
  2 17  1  0
  2 18  1  0
  3 19  1  0
  3 20  1  0
  4 21  1  0
  8 22  1  0
  9 23  1  0
 12 24  1  0
M  CHG  1   1   1
M  END
>  <meeko>  (4) 
{"is_sidechain": [false], "free_energy": -4.618, "intermolecular_energy": -5.428, "internal_energy": -0.294}

$$$$
lazabemide_out
     RDKit          3D

 24 24  0  0  0  0  0  0  0  0999 V2000
  173.7920   22.3070   50.7210 N   0  0  0  0  0  0  0  0  0  0  0  0
  175.0130   23.1190   50.8000 C   0  0  0  0  0  0  0  0  0  0  0  0
  175.3330   23.8020   49.4620 C   0  0  0  0  0  0  0  0  0  0  0  0
  176.3450   23.0910   48.7050 N   0  0  0  0  0  0  0  0  0  0  0  0
  176.0800   21.9350   48.0070 C   0  0  0  0  0  0  0  0  0  0  0  0
  174.9640   21.4420   47.8930 O   0  0  0  0  0  0  0  0  0  0  0  0
  177.2870   21.2930   47.3930 C   0  0  0  0  0  0  0  0  0  0  0  0
  178.4690   22.0170   47.2680 C   0  0  0  0  0  0  0  0  0  0  0  0
  179.5710   21.3890   46.6880 C   0  0  0  0  0  0  0  0  0  0  0  0
  179.4530   20.0720   46.2560 C   0  0  0  0  0  0  0  0  0  0  0  0
  180.7870   19.2660   45.5390 Cl  0  0  0  0  0  0  0  0  0  0  0  0
  178.2350   19.4260   46.4190 C   0  0  0  0  0  0  0  0  0  0  0  0
  177.1410   20.0020   46.9760 N   0  0  0  0  0  0  0  0  0  0  0  0
  173.0770   22.8190   50.2040 H   0  0  0  0  0  0  0  0  0  0  0  0
  173.4560   22.1080   51.6620 H   0  0  0  0  0  0  0  0  0  0  0  0
  173.9970   21.4310   50.2400 H   0  0  0  0  0  0  0  0  0  0  0  0
  174.8769   23.8921   51.5706 H   0  0  0  0  0  0  0  0  0  0  0  0
  175.8508   22.4521   51.0517 H   0  0  0  0  0  0  0  0  0  0  0  0
  174.4126   23.8510   48.8617 H   0  0  0  0  0  0  0  0  0  0  0  0
  175.7244   24.8058   49.6837 H   0  0  0  0  0  0  0  0  0  0  0  0
  177.2610   23.4510   48.6900 H   0  0  0  0  0  0  0  0  0  0  0  0
  178.5325   23.0580   47.6177 H   0  0  0  0  0  0  0  0  0  0  0  0
  180.5225   21.9289   46.5735 H   0  0  0  0  0  0  0  0  0  0  0  0
  178.1524   18.3842   46.0757 H   0  0  0  0  0  0  0  0  0  0  0  0
  1  2  1  0
  2  3  1  0
  3  4  1  0
  4  5  1  0
  5  6  2  0
  5  7  1  0
  7  8  2  0
  8  9  1  0
  9 10  2  0
 10 11  1  0
 10 12  1  0
 12 13  2  0
 13  7  1  0
  1 14  1  0
  1 15  1  0
  1 16  1  0
  2 17  1  0
  2 18  1  0
  3 19  1  0
  3 20  1  0
  4 21  1  0
  8 22  1  0
  9 23  1  0
 12 24  1  0
M  CHG  1   1   1
M  END
>  <meeko>  (5) 
{"is_sidechain": [false], "free_energy": -4.614, "intermolecular_energy": -5.377, "internal_energy": -0.341}

$$$$
lazabemide_out
     RDKit          3D

 24 24  0  0  0  0  0  0  0  0999 V2000
  183.4130   21.8350   51.1710 N   0  0  0  0  0  0  0  0  0  0  0  0
  182.5820   22.9290   50.6520 C   0  0  0  0  0  0  0  0  0  0  0  0
  181.2220   23.0000   51.3630 C   0  0  0  0  0  0  0  0  0  0  0  0
  180.1630   22.3760   50.5940 N   0  0  0  0  0  0  0  0  0  0  0  0
  178.8310   22.5050   50.9160 C   0  0  0  0  0  0  0  0  0  0  0  0
  178.4100   23.2110   51.8250 O   0  0  0  0  0  0  0  0  0  0  0  0
  177.9080   21.6850   50.0670 C   0  0  0  0  0  0  0  0  0  0  0  0
  176.7520   21.1450   50.6220 C   0  0  0  0  0  0  0  0  0  0  0  0
  175.9190   20.3830   49.8030 C   0  0  0  0  0  0  0  0  0  0  0  0
  176.2680   20.1890   48.4710 C   0  0  0  0  0  0  0  0  0  0  0  0
  175.2670   19.2590   47.4330 Cl  0  0  0  0  0  0  0  0  0  0  0  0
  177.4420   20.7630   48.0020 C   0  0  0  0  0  0  0  0  0  0  0  0
  178.2780   21.5080   48.7660 N   0  0  0  0  0  0  0  0  0  0  0  0
  183.6220   22.0030   52.1540 H   0  0  0  0  0  0  0  0  0  0  0  0
  184.2830   21.7880   50.6400 H   0  0  0  0  0  0  0  0  0  0  0  0
  182.9100   20.9520   51.0770 H   0  0  0  0  0  0  0  0  0  0  0  0
  183.1123   23.8809   50.8023 H   0  0  0  0  0  0  0  0  0  0  0  0
  182.3995   22.7421   49.5835 H   0  0  0  0  0  0  0  0  0  0  0  0
  181.3033   22.4875   52.3329 H   0  0  0  0  0  0  0  0  0  0  0  0
  180.9642   24.0620   51.4886 H   0  0  0  0  0  0  0  0  0  0  0  0
  180.4080   21.8380   49.8070 H   0  0  0  0  0  0  0  0  0  0  0  0
  176.5015   21.3147   51.6796 H   0  0  0  0  0  0  0  0  0  0  0  0
  174.9962   19.9404   50.2063 H   0  0  0  0  0  0  0  0  0  0  0  0
  177.7098   20.6037   46.9471 H   0  0  0  0  0  0  0  0  0  0  0  0
  1  2  1  0
  2  3  1  0
  3  4  1  0
  4  5  1  0
  5  6  2  0
  5  7  1  0
  7  8  2  0
  8  9  1  0
  9 10  2  0
 10 11  1  0
 10 12  1  0
 12 13  2  0
 13  7  1  0
  1 14  1  0
  1 15  1  0
  1 16  1  0
  2 17  1  0
  2 18  1  0
  3 19  1  0
  3 20  1  0
  4 21  1  0
  8 22  1  0
  9 23  1  0
 12 24  1  0
M  CHG  1   1   1
M  END
>  <meeko>  (6) 
{"is_sidechain": [false], "free_energy": -4.588, "intermolecular_energy": -5.547, "internal_energy": -0.139}

$$$$
lazabemide_out
     RDKit          3D

 24 24  0  0  0  0  0  0  0  0999 V2000
  175.1340   20.3840   50.3750 N   0  0  0  0  0  0  0  0  0  0  0  0
  174.8750   21.6670   49.7100 C   0  0  0  0  0  0  0  0  0  0  0  0
  174.9190   21.5360   48.1800 C   0  0  0  0  0  0  0  0  0  0  0  0
  176.2740   21.5380   47.6640 N   0  0  0  0  0  0  0  0  0  0  0  0
  177.0040   20.3860   47.4780 C   0  0  0  0  0  0  0  0  0  0  0  0
  176.5620   19.2570   47.6560 O   0  0  0  0  0  0  0  0  0  0  0  0
  178.4220   20.6150   47.0510 C   0  0  0  0  0  0  0  0  0  0  0  0
  178.8990   20.0190   45.8870 C   0  0  0  0  0  0  0  0  0  0  0  0
  180.2260   20.2500   45.5230 C   0  0  0  0  0  0  0  0  0  0  0  0
  181.0210   21.0610   46.3270 C   0  0  0  0  0  0  0  0  0  0  0  0
  182.6560   21.3690   45.9100 Cl  0  0  0  0  0  0  0  0  0  0  0  0
  180.4610   21.6130   47.4720 C   0  0  0  0  0  0  0  0  0  0  0  0
  179.1780   21.4110   47.8610 N   0  0  0  0  0  0  0  0  0  0  0  0
  174.2710   19.8420   50.4140 H   0  0  0  0  0  0  0  0  0  0  0  0
  175.4730   20.5550   51.3210 H   0  0  0  0  0  0  0  0  0  0  0  0
  175.8380   19.8650   49.8500 H   0  0  0  0  0  0  0  0  0  0  0  0
  173.8795   22.0278   50.0079 H   0  0  0  0  0  0  0  0  0  0  0  0
  175.6599   22.3747   50.0152 H   0  0  0  0  0  0  0  0  0  0  0  0
  174.4327   20.5923   47.8921 H   0  0  0  0  0  0  0  0  0  0  0  0
  174.3964   22.4050   47.7537 H   0  0  0  0  0  0  0  0  0  0  0  0
  176.6890   22.4010   47.4350 H   0  0  0  0  0  0  0  0  0  0  0  0
  178.2470   19.3827   45.2705 H   0  0  0  0  0  0  0  0  0  0  0  0
  180.6392   19.7959   44.6103 H   0  0  0  0  0  0  0  0  0  0  0  0
  181.0970   22.2528   48.1013 H   0  0  0  0  0  0  0  0  0  0  0  0
  1  2  1  0
  2  3  1  0
  3  4  1  0
  4  5  1  0
  5  6  2  0
  5  7  1  0
  7  8  2  0
  8  9  1  0
  9 10  2  0
 10 11  1  0
 10 12  1  0
 12 13  2  0
 13  7  1  0
  1 14  1  0
  1 15  1  0
  1 16  1  0
  2 17  1  0
  2 18  1  0
  3 19  1  0
  3 20  1  0
  4 21  1  0
  8 22  1  0
  9 23  1  0
 12 24  1  0
M  CHG  1   1   1
M  END
>  <meeko>  (7) 
{"is_sidechain": [false], "free_energy": -4.579, "intermolecular_energy": -5.37, "internal_energy": -0.305}

$$$$
lazabemide_out
     RDKit          3D

 24 24  0  0  0  0  0  0  0  0999 V2000
  183.2020   21.2120   48.4050 N   0  0  0  0  0  0  0  0  0  0  0  0
  183.0280   22.4720   47.6730 C   0  0  0  0  0  0  0  0  0  0  0  0
  181.6480   23.0970   47.9300 C   0  0  0  0  0  0  0  0  0  0  0  0
  180.5630   22.1970   47.5940 N   0  0  0  0  0  0  0  0  0  0  0  0
  179.2850   22.6350   47.3270 C   0  0  0  0  0  0  0  0  0  0  0  0
  178.9610   23.8160   47.2730 O   0  0  0  0  0  0  0  0  0  0  0  0
  178.2860   21.5370   47.1200 C   0  0  0  0  0  0  0  0  0  0  0  0
  178.7190   20.2660   46.7550 C   0  0  0  0  0  0  0  0  0  0  0  0
  177.7610   19.2700   46.5660 C   0  0  0  0  0  0  0  0  0  0  0  0
  176.4160   19.5770   46.7460 C   0  0  0  0  0  0  0  0  0  0  0  0
  175.2090   18.3780   46.5240 Cl  0  0  0  0  0  0  0  0  0  0  0  0
  176.0740   20.8740   47.1090 C   0  0  0  0  0  0  0  0  0  0  0  0
  176.9750   21.8690   47.3000 N   0  0  0  0  0  0  0  0  0  0  0  0
  183.2290   21.4020   49.4070 H   0  0  0  0  0  0  0  0  0  0  0  0
  184.0760   20.7700   48.1180 H   0  0  0  0  0  0  0  0  0  0  0  0
  182.4220   20.5880   48.1990 H   0  0  0  0  0  0  0  0  0  0  0  0
  183.8051   23.1808   47.9950 H   0  0  0  0  0  0  0  0  0  0  0  0
  183.1099   22.2560   46.5975 H   0  0  0  0  0  0  0  0  0  0  0  0
  181.5720   23.3597   48.9955 H   0  0  0  0  0  0  0  0  0  0  0  0
  181.5575   23.9859   47.2884 H   0  0  0  0  0  0  0  0  0  0  0  0
  180.7480   21.2310   47.5530 H   0  0  0  0  0  0  0  0  0  0  0  0
  179.7894   20.0522   46.6190 H   0  0  0  0  0  0  0  0  0  0  0  0
  178.0655   18.2530   46.2778 H   0  0  0  0  0  0  0  0  0  0  0  0
  175.0083   21.1075   47.2499 H   0  0  0  0  0  0  0  0  0  0  0  0
  1  2  1  0
  2  3  1  0
  3  4  1  0
  4  5  1  0
  5  6  2  0
  5  7  1  0
  7  8  2  0
  8  9  1  0
  9 10  2  0
 10 11  1  0
 10 12  1  0
 12 13  2  0
 13  7  1  0
  1 14  1  0
  1 15  1  0
  1 16  1  0
  2 17  1  0
  2 18  1  0
  3 19  1  0
  3 20  1  0
  4 21  1  0
  8 22  1  0
  9 23  1  0
 12 24  1  0
M  CHG  1   1   1
M  END
>  <meeko>  (8) 
{"is_sidechain": [false], "free_energy": -4.577, "intermolecular_energy": -5.524, "internal_energy": -0.149}

$$$$
lazabemide_out
     RDKit          3D

 24 24  0  0  0  0  0  0  0  0999 V2000
  183.7750   21.4910   48.7250 N   0  0  0  0  0  0  0  0  0  0  0  0
  183.1430   22.7960   48.9570 C   0  0  0  0  0  0  0  0  0  0  0  0
  182.3370   23.2650   47.7360 C   0  0  0  0  0  0  0  0  0  0  0  0
  181.0040   22.6970   47.7020 N   0  0  0  0  0  0  0  0  0  0  0  0
  180.6930   21.5650   46.9840 C   0  0  0  0  0  0  0  0  0  0  0  0
  181.5150   20.8910   46.3740 O   0  0  0  0  0  0  0  0  0  0  0  0
  179.2360   21.2130   46.9850 C   0  0  0  0  0  0  0  0  0  0  0  0
  178.8320   19.9350   46.6110 C   0  0  0  0  0  0  0  0  0  0  0  0
  177.4680   19.6450   46.6190 C   0  0  0  0  0  0  0  0  0  0  0  0
  176.5640   20.6330   46.9960 C   0  0  0  0  0  0  0  0  0  0  0  0
  174.8790   20.3120   47.0190 Cl  0  0  0  0  0  0  0  0  0  0  0  0
  177.0570   21.8810   47.3520 C   0  0  0  0  0  0  0  0  0  0  0  0
  178.3740   22.2030   47.3560 N   0  0  0  0  0  0  0  0  0  0  0  0
  183.3130   20.7830   49.2950 H   0  0  0  0  0  0  0  0  0  0  0  0
  184.7620   21.5420   48.9780 H   0  0  0  0  0  0  0  0  0  0  0  0
  183.6900   21.2420   47.7390 H   0  0  0  0  0  0  0  0  0  0  0  0
  182.4665   22.7154   49.8206 H   0  0  0  0  0  0  0  0  0  0  0  0
  183.9383   23.5323   49.1450 H   0  0  0  0  0  0  0  0  0  0  0  0
  182.2530   24.3613   47.7681 H   0  0  0  0  0  0  0  0  0  0  0  0
  182.8683   22.9275   46.8339 H   0  0  0  0  0  0  0  0  0  0  0  0
  180.2900   23.1400   48.2160 H   0  0  0  0  0  0  0  0  0  0  0  0
  179.5692   19.1735   46.3168 H   0  0  0  0  0  0  0  0  0  0  0  0
  177.1106   18.6456   46.3303 H   0  0  0  0  0  0  0  0  0  0  0  0
  176.3350   22.6559   47.6490 H   0  0  0  0  0  0  0  0  0  0  0  0
  1  2  1  0
  2  3  1  0
  3  4  1  0
  4  5  1  0
  5  6  2  0
  5  7  1  0
  7  8  2  0
  8  9  1  0
  9 10  2  0
 10 11  1  0
 10 12  1  0
 12 13  2  0
 13  7  1  0
  1 14  1  0
  1 15  1  0
  1 16  1  0
  2 17  1  0
  2 18  1  0
  3 19  1  0
  3 20  1  0
  4 21  1  0
  8 22  1  0
  9 23  1  0
 12 24  1  0
M  CHG  1   1   1
M  END
>  <meeko>  (9) 
{"is_sidechain": [false], "free_energy": -4.462, "intermolecular_energy": -5.194, "internal_energy": -0.341}

$$$$
