cand_052_out
     RDKit          3D

 44 46  0  0  0  0  0  0  0  0999 V2000
  181.1420   15.1620   39.4680 C   0  0  0  0  0  0  0  0  0  0  0  0
  180.5860   15.3990   40.8630 C   0  0  0  0  0  0  0  0  0  0  0  0
  181.1980   14.4350   41.8810 C   0  0  0  0  0  0  0  0  0  0  0  0
  182.1380   15.1680   42.8420 C   0  0  0  0  0  0  0  0  0  0  0  0
  181.3870   16.1360   43.7310 C   0  0  0  0  0  0  0  0  0  0  0  0
  181.6650   17.5060   43.6100 C   0  0  0  0  0  0  0  0  0  0  0  0
  181.0110   18.4470   44.4090 C   0  0  0  0  0  0  0  0  0  0  0  0
  180.0580   18.0460   45.3490 C   0  0  0  0  0  0  0  0  0  0  0  0
  179.3680   19.0180   46.2230 C   0  0  0  0  0  0  0  0  0  0  0  0
  177.9870   18.8540   46.2270 O   0  0  0  0  0  0  0  0  0  0  0  0
  177.2210   19.6900   46.9990 C   0  0  0  0  0  0  0  0  0  0  0  0
  175.8430   19.4810   46.9830 C   0  0  0  0  0  0  0  0  0  0  0  0
  175.0050   20.3000   47.7450 C   0  0  0  0  0  0  0  0  0  0  0  0
  175.5470   21.3270   48.5200 C   0  0  0  0  0  0  0  0  0  0  0  0
  176.9240   21.5330   48.5330 C   0  0  0  0  0  0  0  0  0  0  0  0
  177.3880   22.5570   49.3140 O   0  0  0  0  0  0  0  0  0  0  0  0
  177.7610   20.7140   47.7710 C   0  0  0  0  0  0  0  0  0  0  0  0
  179.2130   20.8970   47.7570 C   0  0  0  0  0  0  0  0  0  0  0  0
  179.7650   21.7830   48.4070 O   0  0  0  0  0  0  0  0  0  0  0  0
  180.0120   19.9690   46.9220 C   0  0  0  0  0  0  0  0  0  0  0  0
  181.3820   20.1600   46.9050 O   0  0  0  0  0  0  0  0  0  0  0  0
  179.7910   16.6740   45.4800 C   0  0  0  0  0  0  0  0  0  0  0  0
  180.4450   15.7120   44.6880 C   0  0  0  0  0  0  0  0  0  0  0  0
  180.0950   14.2600   44.8720 C   0  0  0  0  0  0  0  0  0  0  0  0
  182.1515   14.7317   39.5439 H   0  0  0  0  0  0  0  0  0  0  0  0
  180.4862   14.4652   38.9254 H   0  0  0  0  0  0  0  0  0  0  0  0
  181.1906   16.1176   38.9254 H   0  0  0  0  0  0  0  0  0  0  0  0
  180.8123   16.4315   41.1674 H   0  0  0  0  0  0  0  0  0  0  0  0
  179.4997   15.2283   40.8354 H   0  0  0  0  0  0  0  0  0  0  0  0
  180.3899   13.9634   42.4594 H   0  0  0  0  0  0  0  0  0  0  0  0
  181.7790   13.6761   41.3365 H   0  0  0  0  0  0  0  0  0  0  0  0
  182.6499   14.4274   43.4740 H   0  0  0  0  0  0  0  0  0  0  0  0
  182.8604   15.7423   42.2434 H   0  0  0  0  0  0  0  0  0  0  0  0
  182.4096   17.8444   42.8744 H   0  0  0  0  0  0  0  0  0  0  0  0
  181.2488   19.5151   44.2970 H   0  0  0  0  0  0  0  0  0  0  0  0
  175.4156   18.6726   46.3715 H   0  0  0  0  0  0  0  0  0  0  0  0
  173.9175   20.1352   47.7340 H   0  0  0  0  0  0  0  0  0  0  0  0
  174.8875   21.9721   49.1191 H   0  0  0  0  0  0  0  0  0  0  0  0
  178.0210   23.1560   48.9730 H   0  0  0  0  0  0  0  0  0  0  0  0
  181.8810   19.9030   46.1550 H   0  0  0  0  0  0  0  0  0  0  0  0
  179.0502   16.3418   46.2222 H   0  0  0  0  0  0  0  0  0  0  0  0
  180.0394   14.0295   45.9461 H   0  0  0  0  0  0  0  0  0  0  0  0
  179.1217   14.0550   44.4022 H   0  0  0  0  0  0  0  0  0  0  0  0
  180.8680   13.6341   44.4022 H   0  0  0  0  0  0  0  0  0  0  0  0
  1  2  1  0
  2  3  1  0
  3  4  1  0
  4  5  1  0
  5  6  2  0
  6  7  1  0
  7  8  2  0
  8  9  1  0
  9 10  1  0
 10 11  1  0
 11 12  2  0
 12 13  1  0
 13 14  2  0
 14 15  1  0
 15 16  1  0
 15 17  2  0
 17 18  1  0
 18 19  2  0
 18 20  1  0
 20 21  1  0
  8 22  1  0
 22 23  2  0
 23 24  1  0
 23  5  1  0
 20  9  2  0
 17 11  1  0
  1 25  1  0
  1 26  1  0
  1 27  1  0
  2 28  1  0
  2 29  1  0
  3 30  1  0
  3 31  1  0
  4 32  1  0
  4 33  1  0
  6 34  1  0
  7 35  1  0
 12 36  1  0
 13 37  1  0
 14 38  1  0
 16 39  1  0
 21 40  1  0
 22 41  1  0
 24 42  1  0
 24 43  1  0
 24 44  1  0
M  END
>  <meeko>  (1) 
{"is_sidechain": [false], "free_energy": -8.906, "intermolecular_energy": -11.509, "internal_energy": -0.193}

$$$$
cand_052_out
     RDKit          3D

 44 46  0  0  0  0  0  0  0  0999 V2000
  181.1520   14.3620   42.3150 C   0  0  0  0  0  0  0  0  0  0  0  0
  181.0370   15.5050   41.3190 C   0  0  0  0  0  0  0  0  0  0  0  0
  181.0810   16.8640   42.0180 C   0  0  0  0  0  0  0  0  0  0  0  0
  181.5240   16.7230   43.4770 C   0  0  0  0  0  0  0  0  0  0  0  0
  180.8360   17.7300   44.3720 C   0  0  0  0  0  0  0  0  0  0  0  0
  181.2360   19.0740   44.2970 C   0  0  0  0  0  0  0  0  0  0  0  0
  180.6440   20.0480   45.1030 C   0  0  0  0  0  0  0  0  0  0  0  0
  179.6320   19.7090   46.0060 C   0  0  0  0  0  0  0  0  0  0  0  0
  179.0050   20.7160   46.8880 C   0  0  0  0  0  0  0  0  0  0  0  0
  177.6230   20.5860   46.9580 O   0  0  0  0  0  0  0  0  0  0  0  0
  176.9120   21.4570   47.7430 C   0  0  0  0  0  0  0  0  0  0  0  0
  175.5300   21.2800   47.7940 C   0  0  0  0  0  0  0  0  0  0  0  0
  174.7460   22.1350   48.5750 C   0  0  0  0  0  0  0  0  0  0  0  0
  175.3470   23.1650   49.3010 C   0  0  0  0  0  0  0  0  0  0  0  0
  176.7270   23.3390   49.2480 C   0  0  0  0  0  0  0  0  0  0  0  0
  177.2490   24.3680   49.9840 O   0  0  0  0  0  0  0  0  0  0  0  0
  177.5100   22.4830   48.4680 C   0  0  0  0  0  0  0  0  0  0  0  0
  178.9640   22.6310   48.3850 C   0  0  0  0  0  0  0  0  0  0  0  0
  179.5640   23.5170   48.9900 O   0  0  0  0  0  0  0  0  0  0  0  0
  179.7020   21.6670   47.5360 C   0  0  0  0  0  0  0  0  0  0  0  0
  181.0740   21.8240   47.4530 O   0  0  0  0  0  0  0  0  0  0  0  0
  179.2420   18.3640   46.0920 C   0  0  0  0  0  0  0  0  0  0  0  0
  179.8330   17.3680   45.2920 C   0  0  0  0  0  0  0  0  0  0  0  0
  179.3510   15.9480   45.4260 C   0  0  0  0  0  0  0  0  0  0  0  0
  181.1117   14.7623   43.3388 H   0  0  0  0  0  0  0  0  0  0  0  0
  180.3201   13.6585   42.1634 H   0  0  0  0  0  0  0  0  0  0  0  0
  182.1074   13.8383   42.1634 H   0  0  0  0  0  0  0  0  0  0  0  0
  181.8720   15.4428   40.6056 H   0  0  0  0  0  0  0  0  0  0  0  0
  180.0712   15.4149   40.8003 H   0  0  0  0  0  0  0  0  0  0  0  0
  181.7911   17.5166   41.4890 H   0  0  0  0  0  0  0  0  0  0  0  0
  180.0698   17.2967   42.0016 H   0  0  0  0  0  0  0  0  0  0  0  0
  181.2792   15.7094   43.8272 H   0  0  0  0  0  0  0  0  0  0  0  0
  182.6075   16.9065   43.5250 H   0  0  0  0  0  0  0  0  0  0  0  0
  182.0287   19.3640   43.5917 H   0  0  0  0  0  0  0  0  0  0  0  0
  180.9774   21.0935   45.0268 H   0  0  0  0  0  0  0  0  0  0  0  0
  175.0570   20.4690   47.2208 H   0  0  0  0  0  0  0  0  0  0  0  0
  173.6556   21.9960   48.6173 H   0  0  0  0  0  0  0  0  0  0  0  0
  174.7304   23.8385   49.9144 H   0  0  0  0  0  0  0  0  0  0  0  0
  176.7090   24.8290   50.5930 H   0  0  0  0  0  0  0  0  0  0  0  0
  181.5090   21.7140   46.6310 H   0  0  0  0  0  0  0  0  0  0  0  0
  178.4530   18.0802   46.8039 H   0  0  0  0  0  0  0  0  0  0  0  0
  179.2633   15.6896   46.4916 H   0  0  0  0  0  0  0  0  0  0  0  0
  178.3683   15.8471   44.9421 H   0  0  0  0  0  0  0  0  0  0  0  0
  180.0693   15.2698   44.9421 H   0  0  0  0  0  0  0  0  0  0  0  0
  1  2  1  0
  2  3  1  0
  3  4  1  0
  4  5  1  0
  5  6  2  0
  6  7  1  0
  7  8  2  0
  8  9  1  0
  9 10  1  0
 10 11  1  0
 11 12  2  0
 12 13  1  0
 13 14  2  0
 14 15  1  0
 15 16  1  0
 15 17  2  0
 17 18  1  0
 18 19  2  0
 18 20  1  0
 20 21  1  0
  8 22  1  0
 22 23  2  0
 23 24  1  0
 23  5  1  0
 20  9  2  0
 17 11  1  0
  1 25  1  0
  1 26  1  0
  1 27  1  0
  2 28  1  0
  2 29  1  0
  3 30  1  0
  3 31  1  0
  4 32  1  0
  4 33  1  0
  6 34  1  0
  7 35  1  0
 12 36  1  0
 13 37  1  0
 14 38  1  0
 16 39  1  0
 21 40  1  0
 22 41  1  0
 24 42  1  0
 24 43  1  0
 24 44  1  0
M  END
>  <meeko>  (2) 
{"is_sidechain": [false], "free_energy": -8.042, "intermolecular_energy": -10.135, "internal_energy": -0.45}

$$$$
cand_052_out
     RDKit          3D

 44 46  0  0  0  0  0  0  0  0999 V2000
  181.0310   15.0220   39.9790 C   0  0  0  0  0  0  0  0  0  0  0  0
  180.8770   15.8290   41.2580 C   0  0  0  0  0  0  0  0  0  0  0  0
  181.2240   14.9960   42.4920 C   0  0  0  0  0  0  0  0  0  0  0  0
  181.9530   15.8390   43.5430 C   0  0  0  0  0  0  0  0  0  0  0  0
  181.0060   16.7670   44.2720 C   0  0  0  0  0  0  0  0  0  0  0  0
  181.1960   18.1520   44.1430 C   0  0  0  0  0  0  0  0  0  0  0  0
  180.3610   19.0580   44.7980 C   0  0  0  0  0  0  0  0  0  0  0  0
  179.3070   18.6070   45.5980 C   0  0  0  0  0  0  0  0  0  0  0  0
  178.4220   19.5440   46.3220 C   0  0  0  0  0  0  0  0  0  0  0  0
  179.0820   20.6930   46.7440 O   0  0  0  0  0  0  0  0  0  0  0  0
  178.3770   21.6500   47.4280 C   0  0  0  0  0  0  0  0  0  0  0  0
  179.0760   22.7910   47.8200 C   0  0  0  0  0  0  0  0  0  0  0  0
  178.4180   23.8050   48.5230 C   0  0  0  0  0  0  0  0  0  0  0  0
  177.0630   23.6740   48.8340 C   0  0  0  0  0  0  0  0  0  0  0  0
  176.3690   22.5320   48.4420 C   0  0  0  0  0  0  0  0  0  0  0  0
  175.0440   22.4690   48.7800 O   0  0  0  0  0  0  0  0  0  0  0  0
  177.0270   21.5200   47.7380 C   0  0  0  0  0  0  0  0  0  0  0  0
  176.3340   20.3050   47.3080 C   0  0  0  0  0  0  0  0  0  0  0  0
  175.1440   20.1130   47.5500 O   0  0  0  0  0  0  0  0  0  0  0  0
  177.1210   19.2960   46.5610 C   0  0  0  0  0  0  0  0  0  0  0  0
  176.4600   18.1460   46.1710 O   0  0  0  0  0  0  0  0  0  0  0  0
  179.1250   17.2230   45.7390 C   0  0  0  0  0  0  0  0  0  0  0  0
  179.9620   16.2950   45.0910 C   0  0  0  0  0  0  0  0  0  0  0  0
  179.6960   14.8250   45.2750 C   0  0  0  0  0  0  0  0  0  0  0  0
  181.2317   13.9702   40.2310 H   0  0  0  0  0  0  0  0  0  0  0  0
  180.1041   15.0875   39.3902 H   0  0  0  0  0  0  0  0  0  0  0  0
  181.8686   15.4243   39.3902 H   0  0  0  0  0  0  0  0  0  0  0  0
  181.5481   16.6995   41.2142 H   0  0  0  0  0  0  0  0  0  0  0  0
  179.8273   16.1472   41.3407 H   0  0  0  0  0  0  0  0  0  0  0  0
  180.2959   14.6003   42.9303 H   0  0  0  0  0  0  0  0  0  0  0  0
  181.8878   14.1752   42.1825 H   0  0  0  0  0  0  0  0  0  0  0  0
  182.4260   15.1665   44.2738 H   0  0  0  0  0  0  0  0  0  0  0  0
  182.7058   16.4535   43.0275 H   0  0  0  0  0  0  0  0  0  0  0  0
  182.0167   18.5292   43.5152 H   0  0  0  0  0  0  0  0  0  0  0  0
  180.5339   20.1383   44.6837 H   0  0  0  0  0  0  0  0  0  0  0  0
  180.1438   22.8934   47.5765 H   0  0  0  0  0  0  0  0  0  0  0  0
  178.9681   24.7063   48.8312 H   0  0  0  0  0  0  0  0  0  0  0  0
  176.5449   24.4711   49.3874 H   0  0  0  0  0  0  0  0  0  0  0  0
  174.6520   21.6440   48.9850 H   0  0  0  0  0  0  0  0  0  0  0  0
  175.7540   17.8130   46.6900 H   0  0  0  0  0  0  0  0  0  0  0  0
  178.3059   16.8530   46.3732 H   0  0  0  0  0  0  0  0  0  0  0  0
  179.6538   14.5917   46.3491 H   0  0  0  0  0  0  0  0  0  0  0  0
  178.7361   14.5644   44.8052 H   0  0  0  0  0  0  0  0  0  0  0  0
  180.5037   14.2446   44.8052 H   0  0  0  0  0  0  0  0  0  0  0  0
  1  2  1  0
  2  3  1  0
  3  4  1  0
  4  5  1  0
  5  6  2  0
  6  7  1  0
  7  8  2  0
  8  9  1  0
  9 10  1  0
 10 11  1  0
 11 12  2  0
 12 13  1  0
 13 14  2  0
 14 15  1  0
 15 16  1  0
 15 17  2  0
 17 18  1  0
 18 19  2  0
 18 20  1  0
 20 21  1  0
  8 22  1  0
 22 23  2  0
 23 24  1  0
 23  5  1  0
 20  9  2  0
 17 11  1  0
  1 25  1  0
  1 26  1  0
  1 27  1  0
  2 28  1  0
  2 29  1  0
  3 30  1  0
  3 31  1  0
  4 32  1  0
  4 33  1  0
  6 34  1  0
  7 35  1  0
 12 36  1  0
 13 37  1  0
 14 38  1  0
 16 39  1  0
 21 40  1  0
 22 41  1  0
 24 42  1  0
 24 43  1  0
 24 44  1  0
M  END
>  <meeko>  (3) 
{"is_sidechain": [false], "free_energy": -7.547, "intermolecular_energy": -10.011, "internal_energy": 0.065}

$$$$
cand_052_out
     RDKit          3D

 44 46  0  0  0  0  0  0  0  0999 V2000
  175.5400   19.5740   49.7670 C   0  0  0  0  0  0  0  0  0  0  0  0
  176.3250   20.7860   50.2420 C   0  0  0  0  0  0  0  0  0  0  0  0
  175.8530   22.0660   49.5510 C   0  0  0  0  0  0  0  0  0  0  0  0
  176.9690   22.6800   48.7020 C   0  0  0  0  0  0  0  0  0  0  0  0
  177.7010   21.6310   47.8930 C   0  0  0  0  0  0  0  0  0  0  0  0
  179.0480   21.3740   48.1950 C   0  0  0  0  0  0  0  0  0  0  0  0
  179.7780   20.4240   47.4790 C   0  0  0  0  0  0  0  0  0  0  0  0
  179.1830   19.6990   46.4420 C   0  0  0  0  0  0  0  0  0  0  0  0
  179.9390   18.7040   45.6530 C   0  0  0  0  0  0  0  0  0  0  0  0
  179.3620   17.4390   45.6840 O   0  0  0  0  0  0  0  0  0  0  0  0
  179.9610   16.4190   44.9910 C   0  0  0  0  0  0  0  0  0  0  0  0
  179.3400   15.1710   45.0390 C   0  0  0  0  0  0  0  0  0  0  0  0
  179.9000   14.0870   44.3570 C   0  0  0  0  0  0  0  0  0  0  0  0
  181.0800   14.2530   43.6290 C   0  0  0  0  0  0  0  0  0  0  0  0
  181.6970   15.5000   43.5830 C   0  0  0  0  0  0  0  0  0  0  0  0
  182.8500   15.5920   42.8520 O   0  0  0  0  0  0  0  0  0  0  0  0
  181.1360   16.5830   44.2650 C   0  0  0  0  0  0  0  0  0  0  0  0
  181.7530   17.9110   44.2430 C   0  0  0  0  0  0  0  0  0  0  0  0
  182.7950   18.1340   43.6300 O   0  0  0  0  0  0  0  0  0  0  0  0
  181.0740   18.9940   44.9920 C   0  0  0  0  0  0  0  0  0  0  0  0
  181.6730   20.2400   44.9760 O   0  0  0  0  0  0  0  0  0  0  0  0
  177.8410   19.9660   46.1310 C   0  0  0  0  0  0  0  0  0  0  0  0
  177.0920   20.9250   46.8380 C   0  0  0  0  0  0  0  0  0  0  0  0
  175.6520   21.1450   46.4590 C   0  0  0  0  0  0  0  0  0  0  0  0
  175.1745   19.0097   50.6376 H   0  0  0  0  0  0  0  0  0  0  0  0
  174.6849   19.9059   49.1598 H   0  0  0  0  0  0  0  0  0  0  0  0
  176.1926   18.9294   49.1598 H   0  0  0  0  0  0  0  0  0  0  0  0
  176.1903   20.8958   51.3282 H   0  0  0  0  0  0  0  0  0  0  0  0
  177.3849   20.6300   49.9924 H   0  0  0  0  0  0  0  0  0  0  0  0
  174.9973   21.8288   48.9017 H   0  0  0  0  0  0  0  0  0  0  0  0
  175.5632   22.7929   50.3241 H   0  0  0  0  0  0  0  0  0  0  0  0
  176.5288   23.4171   48.0143 H   0  0  0  0  0  0  0  0  0  0  0  0
  177.6927   23.1555   49.3803 H   0  0  0  0  0  0  0  0  0  0  0  0
  179.5358   21.9303   49.0090 H   0  0  0  0  0  0  0  0  0  0  0  0
  180.8329   20.2437   47.7333 H   0  0  0  0  0  0  0  0  0  0  0  0
  178.4107   15.0400   45.6128 H   0  0  0  0  0  0  0  0  0  0  0  0
  179.4108   13.1025   44.3938 H   0  0  0  0  0  0  0  0  0  0  0  0
  181.5212   13.3999   43.0928 H   0  0  0  0  0  0  0  0  0  0  0  0
  182.8080   15.7270   41.9260 H   0  0  0  0  0  0  0  0  0  0  0  0
  181.8500   20.6640   44.1590 H   0  0  0  0  0  0  0  0  0  0  0  0
  177.3611   19.4103   45.3119 H   0  0  0  0  0  0  0  0  0  0  0  0
  175.0431   21.2380   47.3704 H   0  0  0  0  0  0  0  0  0  0  0  0
  175.5659   22.0667   45.8648 H   0  0  0  0  0  0  0  0  0  0  0  0
  175.2946   20.2910   45.8648 H   0  0  0  0  0  0  0  0  0  0  0  0
  1  2  1  0
  2  3  1  0
  3  4  1  0
  4  5  1  0
  5  6  2  0
  6  7  1  0
  7  8  2  0
  8  9  1  0
  9 10  1  0
 10 11  1  0
 11 12  2  0
 12 13  1  0
 13 14  2  0
 14 15  1  0
 15 16  1  0
 15 17  2  0
 17 18  1  0
 18 19  2  0
 18 20  1  0
 20 21  1  0
  8 22  1  0
 22 23  2  0
 23 24  1  0
 23  5  1  0
 20  9  2  0
 17 11  1  0
  1 25  1  0
  1 26  1  0
  1 27  1  0
  2 28  1  0
  2 29  1  0
  3 30  1  0
  3 31  1  0
  4 32  1  0
  4 33  1  0
  6 34  1  0
  7 35  1  0
 12 36  1  0
 13 37  1  0
 14 38  1  0
 16 39  1  0
 21 40  1  0
 22 41  1  0
 24 42  1  0
 24 43  1  0
 24 44  1  0
M  END
>  <meeko>  (4) 
{"is_sidechain": [false], "free_energy": -7.162, "intermolecular_energy": -9.095, "internal_energy": -0.354}

$$$$
cand_052_out
     RDKit          3D

 44 46  0  0  0  0  0  0  0  0999 V2000
  178.4620   24.1620   47.2630 C   0  0  0  0  0  0  0  0  0  0  0  0
  177.8280   24.1560   48.6450 C   0  0  0  0  0  0  0  0  0  0  0  0
  176.4110   23.5840   48.6100 C   0  0  0  0  0  0  0  0  0  0  0  0
  176.3790   22.1500   49.1450 C   0  0  0  0  0  0  0  0  0  0  0  0
  177.1770   21.2070   48.2720 C   0  0  0  0  0  0  0  0  0  0  0  0
  178.5640   21.1260   48.4700 C   0  0  0  0  0  0  0  0  0  0  0  0
  179.3560   20.2800   47.6900 C   0  0  0  0  0  0  0  0  0  0  0  0
  178.7830   19.4880   46.6910 C   0  0  0  0  0  0  0  0  0  0  0  0
  179.6000   18.6020   45.8350 C   0  0  0  0  0  0  0  0  0  0  0  0
  179.1470   17.2880   45.8310 O   0  0  0  0  0  0  0  0  0  0  0  0
  179.8140   16.3570   45.0760 C   0  0  0  0  0  0  0  0  0  0  0  0
  179.3160   15.0550   45.0920 C   0  0  0  0  0  0  0  0  0  0  0  0
  179.9500   14.0570   44.3450 C   0  0  0  0  0  0  0  0  0  0  0  0
  181.0810   14.3640   43.5860 C   0  0  0  0  0  0  0  0  0  0  0  0
  181.5760   15.6660   43.5730 C   0  0  0  0  0  0  0  0  0  0  0  0
  182.6870   15.8970   42.8090 O   0  0  0  0  0  0  0  0  0  0  0  0
  180.9410   16.6630   44.3190 C   0  0  0  0  0  0  0  0  0  0  0  0
  181.4280   18.0430   44.3330 C   0  0  0  0  0  0  0  0  0  0  0  0
  182.4210   18.3890   43.6960 O   0  0  0  0  0  0  0  0  0  0  0  0
  180.6780   19.0260   45.1500 C   0  0  0  0  0  0  0  0  0  0  0  0
  181.1560   20.3230   45.1670 O   0  0  0  0  0  0  0  0  0  0  0  0
  177.3980   19.5800   46.4830 C   0  0  0  0  0  0  0  0  0  0  0  0
  176.5870   20.4320   47.2550 C   0  0  0  0  0  0  0  0  0  0  0  0
  175.1070   20.4650   46.9860 C   0  0  0  0  0  0  0  0  0  0  0  0
  179.5575   24.1724   47.3622 H   0  0  0  0  0  0  0  0  0  0  0  0
  178.1521   23.2609   46.7135 H   0  0  0  0  0  0  0  0  0  0  0  0
  178.1351   25.0571   46.7135 H   0  0  0  0  0  0  0  0  0  0  0  0
  178.4445   23.5422   49.3182 H   0  0  0  0  0  0  0  0  0  0  0  0
  177.7717   25.1946   49.0028 H   0  0  0  0  0  0  0  0  0  0  0  0
  175.7549   24.2128   49.2298 H   0  0  0  0  0  0  0  0  0  0  0  0
  176.0654   23.5738   47.5658 H   0  0  0  0  0  0  0  0  0  0  0  0
  176.8020   22.1392   50.1603 H   0  0  0  0  0  0  0  0  0  0  0  0
  175.3330   21.8097   49.1490 H   0  0  0  0  0  0  0  0  0  0  0  0
  179.0353   21.7389   49.2524 H   0  0  0  0  0  0  0  0  0  0  0  0
  180.4413   20.2367   47.8637 H   0  0  0  0  0  0  0  0  0  0  0  0
  178.4258   14.8130   45.6912 H   0  0  0  0  0  0  0  0  0  0  0  0
  179.5574   13.0295   44.3554 H   0  0  0  0  0  0  0  0  0  0  0  0
  181.5804   13.5789   42.9992 H   0  0  0  0  0  0  0  0  0  0  0  0
  183.5370   15.6910   43.1440 H   0  0  0  0  0  0  0  0  0  0  0  0
  181.1930   20.7980   45.9740 H   0  0  0  0  0  0  0  0  0  0  0  0
  176.9338   18.9692   45.6947 H   0  0  0  0  0  0  0  0  0  0  0  0
  174.5610   20.4772   47.9408 H   0  0  0  0  0  0  0  0  0  0  0  0
  174.8590   21.3689   46.4103 H   0  0  0  0  0  0  0  0  0  0  0  0
  174.8190   19.5731   46.4103 H   0  0  0  0  0  0  0  0  0  0  0  0
  1  2  1  0
  2  3  1  0
  3  4  1  0
  4  5  1  0
  5  6  2  0
  6  7  1  0
  7  8  2  0
  8  9  1  0
  9 10  1  0
 10 11  1  0
 11 12  2  0
 12 13  1  0
 13 14  2  0
 14 15  1  0
 15 16  1  0
 15 17  2  0
 17 18  1  0
 18 19  2  0
 18 20  1  0
 20 21  1  0
  8 22  1  0
 22 23  2  0
 23 24  1  0
 23  5  1  0
 20  9  2  0
 17 11  1  0
  1 25  1  0
  1 26  1  0
  1 27  1  0
  2 28  1  0
  2 29  1  0
  3 30  1  0
  3 31  1  0
  4 32  1  0
  4 33  1  0
  6 34  1  0
  7 35  1  0
 12 36  1  0
 13 37  1  0
 14 38  1  0
 16 39  1  0
 21 40  1  0
 22 41  1  0
 24 42  1  0
 24 43  1  0
 24 44  1  0
M  END
>  <meeko>  (5) 
{"is_sidechain": [false], "free_energy": -6.825, "intermolecular_energy": -9.026, "internal_energy": 0.013}

$$$$
cand_052_out
     RDKit          3D

 44 46  0  0  0  0  0  0  0  0999 V2000
  181.1580   16.0090   40.9790 C   0  0  0  0  0  0  0  0  0  0  0  0
  181.3690   14.5930   41.4920 C   0  0  0  0  0  0  0  0  0  0  0  0
  180.7790   14.4100   42.8900 C   0  0  0  0  0  0  0  0  0  0  0  0
  181.5440   15.2370   43.9270 C   0  0  0  0  0  0  0  0  0  0  0  0
  180.6580   16.2760   44.5800 C   0  0  0  0  0  0  0  0  0  0  0  0
  179.4840   15.8460   45.2180 C   0  0  0  0  0  0  0  0  0  0  0  0
  178.6220   16.7580   45.8310 C   0  0  0  0  0  0  0  0  0  0  0  0
  178.9110   18.1260   45.8280 C   0  0  0  0  0  0  0  0  0  0  0  0
  178.0050   19.1150   46.4490 C   0  0  0  0  0  0  0  0  0  0  0  0
  178.6720   20.2470   46.9030 O   0  0  0  0  0  0  0  0  0  0  0  0
  177.9500   21.2480   47.5010 C   0  0  0  0  0  0  0  0  0  0  0  0
  178.6580   22.3710   47.9280 C   0  0  0  0  0  0  0  0  0  0  0  0
  177.9830   23.4270   48.5470 C   0  0  0  0  0  0  0  0  0  0  0  0
  176.6020   23.3580   48.7380 C   0  0  0  0  0  0  0  0  0  0  0  0
  175.8980   22.2350   48.3110 C   0  0  0  0  0  0  0  0  0  0  0  0
  174.5470   22.2320   48.5300 O   0  0  0  0  0  0  0  0  0  0  0  0
  176.5740   21.1800   47.6910 C   0  0  0  0  0  0  0  0  0  0  0  0
  175.8720   19.9820   47.2270 C   0  0  0  0  0  0  0  0  0  0  0  0
  174.6570   19.8440   47.3650 O   0  0  0  0  0  0  0  0  0  0  0  0
  176.6790   18.9240   46.5760 C   0  0  0  0  0  0  0  0  0  0  0  0
  176.0070   17.7910   46.1540 O   0  0  0  0  0  0  0  0  0  0  0  0
  180.0770   18.5570   45.1780 C   0  0  0  0  0  0  0  0  0  0  0  0
  180.9540   17.6530   44.5490 C   0  0  0  0  0  0  0  0  0  0  0  0
  182.1950   18.1860   43.8860 C   0  0  0  0  0  0  0  0  0  0  0  0
  181.0556   16.6964   41.8316 H   0  0  0  0  0  0  0  0  0  0  0  0
  182.0212   16.3098   40.3672 H   0  0  0  0  0  0  0  0  0  0  0  0
  180.2446   16.0450   40.3672 H   0  0  0  0  0  0  0  0  0  0  0  0
  180.8819   13.8870   40.8033 H   0  0  0  0  0  0  0  0  0  0  0  0
  182.4512   14.4033   41.5466 H   0  0  0  0  0  0  0  0  0  0  0  0
  179.7270   14.7312   42.8802 H   0  0  0  0  0  0  0  0  0  0  0  0
  180.8579   13.3478   43.1648 H   0  0  0  0  0  0  0  0  0  0  0  0
  181.9339   14.5624   44.7035 H   0  0  0  0  0  0  0  0  0  0  0  0
  182.3627   15.7603   43.4114 H   0  0  0  0  0  0  0  0  0  0  0  0
  179.2390   14.7738   45.2354 H   0  0  0  0  0  0  0  0  0  0  0  0
  177.7061   16.3963   46.3213 H   0  0  0  0  0  0  0  0  0  0  0  0
  179.7463   22.4257   47.7779 H   0  0  0  0  0  0  0  0  0  0  0  0
  178.5407   24.3133   48.8839 H   0  0  0  0  0  0  0  0  0  0  0  0
  176.0708   24.1891   49.2249 H   0  0  0  0  0  0  0  0  0  0  0  0
  174.0860   23.0420   48.6250 H   0  0  0  0  0  0  0  0  0  0  0  0
  175.5140   17.2840   46.7680 H   0  0  0  0  0  0  0  0  0  0  0  0
  180.3127   19.6313   45.1592 H   0  0  0  0  0  0  0  0  0  0  0  0
  182.9173   18.4962   44.6554 H   0  0  0  0  0  0  0  0  0  0  0  0
  182.6419   17.4005   43.2589 H   0  0  0  0  0  0  0  0  0  0  0  0
  181.9331   19.0510   43.2589 H   0  0  0  0  0  0  0  0  0  0  0  0
  1  2  1  0
  2  3  1  0
  3  4  1  0
  4  5  1  0
  5  6  2  0
  6  7  1  0
  7  8  2  0
  8  9  1  0
  9 10  1  0
 10 11  1  0
 11 12  2  0
 12 13  1  0
 13 14  2  0
 14 15  1  0
 15 16  1  0
 15 17  2  0
 17 18  1  0
 18 19  2  0
 18 20  1  0
 20 21  1  0
  8 22  1  0
 22 23  2  0
 23 24  1  0
 23  5  1  0
 20  9  2  0
 17 11  1  0
  1 25  1  0
  1 26  1  0
  1 27  1  0
  2 28  1  0
  2 29  1  0
  3 30  1  0
  3 31  1  0
  4 32  1  0
  4 33  1  0
  6 34  1  0
  7 35  1  0
 12 36  1  0
 13 37  1  0
 14 38  1  0
 16 39  1  0
 21 40  1  0
 22 41  1  0
 24 42  1  0
 24 43  1  0
 24 44  1  0
M  END
>  <meeko>  (6) 
{"is_sidechain": [false], "free_energy": -6.647, "intermolecular_energy": -8.404, "internal_energy": -0.379}

$$$$
cand_052_out
     RDKit          3D

 44 46  0  0  0  0  0  0  0  0999 V2000
  175.5760   18.7590   46.9170 C   0  0  0  0  0  0  0  0  0  0  0  0
  176.5610   19.8460   47.3150 C   0  0  0  0  0  0  0  0  0  0  0  0
  177.6490   20.0310   46.2560 C   0  0  0  0  0  0  0  0  0  0  0  0
  178.8850   19.1860   46.5770 C   0  0  0  0  0  0  0  0  0  0  0  0
  180.1670   19.9500   46.3280 C   0  0  0  0  0  0  0  0  0  0  0  0
  180.3860   21.1390   47.0420 C   0  0  0  0  0  0  0  0  0  0  0  0
  181.5460   21.8920   46.8490 C   0  0  0  0  0  0  0  0  0  0  0  0
  182.5230   21.4760   45.9400 C   0  0  0  0  0  0  0  0  0  0  0  0
  183.7490   22.2660   45.6990 C   0  0  0  0  0  0  0  0  0  0  0  0
  184.3370   21.9880   44.4690 O   0  0  0  0  0  0  0  0  0  0  0  0
  185.4830   22.6530   44.1160 C   0  0  0  0  0  0  0  0  0  0  0  0
  186.0300   22.3520   42.8690 C   0  0  0  0  0  0  0  0  0  0  0  0
  187.1990   22.9930   42.4480 C   0  0  0  0  0  0  0  0  0  0  0  0
  187.8190   23.9310   43.2750 C   0  0  0  0  0  0  0  0  0  0  0  0
  187.2710   24.2280   44.5200 C   0  0  0  0  0  0  0  0  0  0  0  0
  187.9300   25.1550   45.2800 O   0  0  0  0  0  0  0  0  0  0  0  0
  186.1020   23.5870   44.9400 C   0  0  0  0  0  0  0  0  0  0  0  0
  185.4920   23.8710   46.2400 C   0  0  0  0  0  0  0  0  0  0  0  0
  185.9830   24.6790   47.0270 O   0  0  0  0  0  0  0  0  0  0  0  0
  184.2490   23.1440   46.5870 C   0  0  0  0  0  0  0  0  0  0  0  0
  183.6900   23.4100   47.8240 O   0  0  0  0  0  0  0  0  0  0  0  0
  182.2980   20.2950   45.2160 C   0  0  0  0  0  0  0  0  0  0  0  0
  181.1320   19.5280   45.3920 C   0  0  0  0  0  0  0  0  0  0  0  0
  180.9660   18.2630   44.5940 C   0  0  0  0  0  0  0  0  0  0  0  0
  175.1560   18.2955   47.8219 H   0  0  0  0  0  0  0  0  0  0  0  0
  174.7640   19.2005   46.3205 H   0  0  0  0  0  0  0  0  0  0  0  0
  176.0951   17.9943   46.3205 H   0  0  0  0  0  0  0  0  0  0  0  0
  176.0168   20.7940   47.4379 H   0  0  0  0  0  0  0  0  0  0  0  0
  177.0435   19.5467   48.2572 H   0  0  0  0  0  0  0  0  0  0  0  0
  177.2514   19.7271   45.2764 H   0  0  0  0  0  0  0  0  0  0  0  0
  177.9455   21.0902   46.2432 H   0  0  0  0  0  0  0  0  0  0  0  0
  178.8477   18.8880   47.6352 H   0  0  0  0  0  0  0  0  0  0  0  0
  178.8780   18.3052   45.9181 H   0  0  0  0  0  0  0  0  0  0  0  0
  179.6317   21.4828   47.7650 H   0  0  0  0  0  0  0  0  0  0  0  0
  181.6924   22.8219   47.4180 H   0  0  0  0  0  0  0  0  0  0  0  0
  185.5426   21.6115   42.2178 H   0  0  0  0  0  0  0  0  0  0  0  0
  187.6306   22.7578   41.4639 H   0  0  0  0  0  0  0  0  0  0  0  0
  188.7390   24.4348   42.9437 H   0  0  0  0  0  0  0  0  0  0  0  0
  187.7710   26.0680   45.1470 H   0  0  0  0  0  0  0  0  0  0  0  0
  184.1490   23.1730   48.6060 H   0  0  0  0  0  0  0  0  0  0  0  0
  183.0543   19.9599   44.4909 H   0  0  0  0  0  0  0  0  0  0  0  0
  180.8540   17.4095   45.2788 H   0  0  0  0  0  0  0  0  0  0  0  0
  180.0708   18.3443   43.9599 H   0  0  0  0  0  0  0  0  0  0  0  0
  181.8518   18.1106   43.9599 H   0  0  0  0  0  0  0  0  0  0  0  0
  1  2  1  0
  2  3  1  0
  3  4  1  0
  4  5  1  0
  5  6  2  0
  6  7  1  0
  7  8  2  0
  8  9  1  0
  9 10  1  0
 10 11  1  0
 11 12  2  0
 12 13  1  0
 13 14  2  0
 14 15  1  0
 15 16  1  0
 15 17  2  0
 17 18  1  0
 18 19  2  0
 18 20  1  0
 20 21  1  0
  8 22  1  0
 22 23  2  0
 23 24  1  0
 23  5  1  0
 20  9  2  0
 17 11  1  0
  1 25  1  0
  1 26  1  0
  1 27  1  0
  2 28  1  0
  2 29  1  0
  3 30  1  0
  3 31  1  0
  4 32  1  0
  4 33  1  0
  6 34  1  0
  7 35  1  0
 12 36  1  0
 13 37  1  0
 14 38  1  0
 16 39  1  0
 21 40  1  0
 22 41  1  0
 24 42  1  0
 24 43  1  0
 24 44  1  0
M  END
>  <meeko>  (7) 
{"is_sidechain": [false], "free_energy": -5.926, "intermolecular_energy": -7.76, "internal_energy": -0.091}

$$$$
