cand_033_out
     RDKit          3D

 44 46  0  0  0  0  0  0  0  0999 V2000
  175.5360   19.6180   49.1780 C   0  0  0  0  0  0  0  0  0  0  0  0
  175.0230   19.7800   47.7560 C   0  0  0  0  0  0  0  0  0  0  0  0
  175.6920   20.9630   47.0530 C   0  0  0  0  0  0  0  0  0  0  0  0
  177.1990   20.9090   47.1780 C   0  0  0  0  0  0  0  0  0  0  0  0
  177.8860   19.9240   46.4390 C   0  0  0  0  0  0  0  0  0  0  0  0
  179.2790   19.7840   46.5070 C   0  0  0  0  0  0  0  0  0  0  0  0
  180.0010   18.7680   45.7120 C   0  0  0  0  0  0  0  0  0  0  0  0
  179.3850   17.5210   45.7430 O   0  0  0  0  0  0  0  0  0  0  0  0
  179.9510   16.4840   45.0470 C   0  0  0  0  0  0  0  0  0  0  0  0
  179.3070   15.2480   45.1180 C   0  0  0  0  0  0  0  0  0  0  0  0
  179.8310   14.1500   44.4310 C   0  0  0  0  0  0  0  0  0  0  0  0
  180.9960   14.2880   43.6730 C   0  0  0  0  0  0  0  0  0  0  0  0
  181.6350   15.5240   43.6040 C   0  0  0  0  0  0  0  0  0  0  0  0
  182.7700   15.5900   42.8440 O   0  0  0  0  0  0  0  0  0  0  0  0
  181.1110   16.6210   44.2920 C   0  0  0  0  0  0  0  0  0  0  0  0
  181.7520   17.9370   44.2460 C   0  0  0  0  0  0  0  0  0  0  0  0
  182.7760   18.1390   43.5960 O   0  0  0  0  0  0  0  0  0  0  0  0
  181.1220   19.0330   45.0170 C   0  0  0  0  0  0  0  0  0  0  0  0
  181.7290   20.2740   44.9570 O   0  0  0  0  0  0  0  0  0  0  0  0
  179.9930   20.6640   47.3260 C   0  0  0  0  0  0  0  0  0  0  0  0
  179.3290   21.6420   48.0700 C   0  0  0  0  0  0  0  0  0  0  0  0
  177.9310   21.7720   48.0150 C   0  0  0  0  0  0  0  0  0  0  0  0
  177.2870   22.8610   48.8440 C   0  0  0  0  0  0  0  0  0  0  0  0
  178.0990   24.1480   48.8220 C   0  0  0  0  0  0  0  0  0  0  0  0
  174.7347   19.8710   49.8879 H   0  0  0  0  0  0  0  0  0  0  0  0
  175.8517   18.5764   49.3375 H   0  0  0  0  0  0  0  0  0  0  0  0
  176.3927   20.2893   49.3375 H   0  0  0  0  0  0  0  0  0  0  0  0
  175.2368   18.8605   47.1914 H   0  0  0  0  0  0  0  0  0  0  0  0
  173.9402   19.9692   47.7978 H   0  0  0  0  0  0  0  0  0  0  0  0
  175.4218   20.9433   45.9869 H   0  0  0  0  0  0  0  0  0  0  0  0
  175.3412   21.8892   47.5316 H   0  0  0  0  0  0  0  0  0  0  0  0
  177.3121   19.2458   45.7904 H   0  0  0  0  0  0  0  0  0  0  0  0
  178.3887   15.1384   45.7136 H   0  0  0  0  0  0  0  0  0  0  0  0
  179.3250   13.1749   44.4872 H   0  0  0  0  0  0  0  0  0  0  0  0
  181.4078   13.4232   43.1321 H   0  0  0  0  0  0  0  0  0  0  0  0
  182.7230   15.4580   41.9170 H   0  0  0  0  0  0  0  0  0  0  0  0
  182.5920   20.3910   45.3020 H   0  0  0  0  0  0  0  0  0  0  0  0
  181.0886   20.5853   47.3850 H   0  0  0  0  0  0  0  0  0  0  0  0
  179.9104   22.3220   48.7099 H   0  0  0  0  0  0  0  0  0  0  0  0
  176.2838   23.0669   48.4426 H   0  0  0  0  0  0  0  0  0  0  0  0
  177.2340   22.5098   49.8851 H   0  0  0  0  0  0  0  0  0  0  0  0
  178.3026   24.4708   49.8537 H   0  0  0  0  0  0  0  0  0  0  0  0
  179.0502   23.9725   48.2982 H   0  0  0  0  0  0  0  0  0  0  0  0
  177.5310   24.9310   48.2982 H   0  0  0  0  0  0  0  0  0  0  0  0
  1  2  1  0
  2  3  1  0
  3  4  1  0
  4  5  2  0
  5  6  1  0
  6  7  1  0
  7  8  1  0
  8  9  1  0
  9 10  2  0
 10 11  1  0
 11 12  2  0
 12 13  1  0
 13 14  1  0
 13 15  2  0
 15 16  1  0
 16 17  2  0
 16 18  1  0
 18 19  1  0
  6 20  2  0
 20 21  1  0
 21 22  2  0
 22 23  1  0
 23 24  1  0
 22  4  1  0
 18  7  2  0
 15  9  1  0
  1 25  1  0
  1 26  1  0
  1 27  1  0
  2 28  1  0
  2 29  1  0
  3 30  1  0
  3 31  1  0
  5 32  1  0
 10 33  1  0
 11 34  1  0
 12 35  1  0
 14 36  1  0
 19 37  1  0
 20 38  1  0
 21 39  1  0
 23 40  1  0
 23 41  1  0
 24 42  1  0
 24 43  1  0
 24 44  1  0
M  END
>  <meeko>  (1) 
{"is_sidechain": [false], "free_energy": -7.378, "intermolecular_energy": -9.535, "internal_energy": -0.444}

$$$$
cand_033_out
     RDKit          3D

 44 46  0  0  0  0  0  0  0  0999 V2000
  178.2050   14.2420   43.8230 C   0  0  0  0  0  0  0  0  0  0  0  0
  179.5970   13.6410   43.9340 C   0  0  0  0  0  0  0  0  0  0  0  0
  180.4250   14.3470   45.0090 C   0  0  0  0  0  0  0  0  0  0  0  0
  180.6940   15.7920   44.6510 C   0  0  0  0  0  0  0  0  0  0  0  0
  180.1460   16.7900   45.4830 C   0  0  0  0  0  0  0  0  0  0  0  0
  180.3240   18.1550   45.2190 C   0  0  0  0  0  0  0  0  0  0  0  0
  179.7710   19.2000   46.1060 C   0  0  0  0  0  0  0  0  0  0  0  0
  178.3810   19.2050   46.1340 O   0  0  0  0  0  0  0  0  0  0  0  0
  177.7350   20.1260   46.9180 C   0  0  0  0  0  0  0  0  0  0  0  0
  176.3400   20.1040   46.9040 C   0  0  0  0  0  0  0  0  0  0  0  0
  175.6210   21.0150   47.6810 C   0  0  0  0  0  0  0  0  0  0  0  0
  176.2970   21.9460   48.4730 C   0  0  0  0  0  0  0  0  0  0  0  0
  177.6890   21.9640   48.4860 C   0  0  0  0  0  0  0  0  0  0  0  0
  178.2870   22.9010   49.2840 O   0  0  0  0  0  0  0  0  0  0  0  0
  178.4080   21.0540   47.7080 C   0  0  0  0  0  0  0  0  0  0  0  0
  179.8720   21.0400   47.6910 C   0  0  0  0  0  0  0  0  0  0  0  0
  180.5370   21.8230   48.3660 O   0  0  0  0  0  0  0  0  0  0  0  0
  180.5380   20.0400   46.8260 C   0  0  0  0  0  0  0  0  0  0  0  0
  181.9210   20.0270   46.8280 O   0  0  0  0  0  0  0  0  0  0  0  0
  181.0800   18.5200   44.1010 C   0  0  0  0  0  0  0  0  0  0  0  0
  181.6260   17.5450   43.2610 C   0  0  0  0  0  0  0  0  0  0  0  0
  181.4340   16.1770   43.5160 C   0  0  0  0  0  0  0  0  0  0  0  0
  182.0630   15.1830   42.5660 C   0  0  0  0  0  0  0  0  0  0  0  0
  181.3700   15.1750   41.2110 C   0  0  0  0  0  0  0  0  0  0  0  0
  177.7998   14.4170   44.8306 H   0  0  0  0  0  0  0  0  0  0  0  0
  178.2600   15.1965   43.2791 H   0  0  0  0  0  0  0  0  0  0  0  0
  177.5480   13.5474   43.2791 H   0  0  0  0  0  0  0  0  0  0  0  0
  179.5074   12.5757   44.1932 H   0  0  0  0  0  0  0  0  0  0  0  0
  180.1063   13.7656   42.9670 H   0  0  0  0  0  0  0  0  0  0  0  0
  179.8760   14.3123   45.9615 H   0  0  0  0  0  0  0  0  0  0  0  0
  181.3919   13.8291   45.0914 H   0  0  0  0  0  0  0  0  0  0  0  0
  179.5618   16.4885   46.3649 H   0  0  0  0  0  0  0  0  0  0  0  0
  175.8071   19.3700   46.2817 H   0  0  0  0  0  0  0  0  0  0  0  0
  174.5212   20.9993   47.6692 H   0  0  0  0  0  0  0  0  0  0  0  0
  175.7307   22.6634   49.0851 H   0  0  0  0  0  0  0  0  0  0  0  0
  179.0450   23.3610   48.9800 H   0  0  0  0  0  0  0  0  0  0  0  0
  182.3950   20.7760   47.1320 H   0  0  0  0  0  0  0  0  0  0  0  0
  181.2468   19.5846   43.8802 H   0  0  0  0  0  0  0  0  0  0  0  0
  182.2159   17.8543   42.3856 H   0  0  0  0  0  0  0  0  0  0  0  0
  183.1208   15.4486   42.4227 H   0  0  0  0  0  0  0  0  0  0  0  0
  181.9617   14.1801   43.0063 H   0  0  0  0  0  0  0  0  0  0  0  0
  180.2798   15.1624   41.3568 H   0  0  0  0  0  0  0  0  0  0  0  0
  181.6543   16.0765   40.6484 H   0  0  0  0  0  0  0  0  0  0  0  0
  181.6750   14.2803   40.6484 H   0  0  0  0  0  0  0  0  0  0  0  0
  1  2  1  0
  2  3  1  0
  3  4  1  0
  4  5  2  0
  5  6  1  0
  6  7  1  0
  7  8  1  0
  8  9  1  0
  9 10  2  0
 10 11  1  0
 11 12  2  0
 12 13  1  0
 13 14  1  0
 13 15  2  0
 15 16  1  0
 16 17  2  0
 16 18  1  0
 18 19  1  0
  6 20  2  0
 20 21  1  0
 21 22  2  0
 22 23  1  0
 23 24  1  0
 22  4  1  0
 18  7  2  0
 15  9  1  0
  1 25  1  0
  1 26  1  0
  1 27  1  0
  2 28  1  0
  2 29  1  0
  3 30  1  0
  3 31  1  0
  5 32  1  0
 10 33  1  0
 11 34  1  0
 12 35  1  0
 14 36  1  0
 19 37  1  0
 20 38  1  0
 21 39  1  0
 23 40  1  0
 23 41  1  0
 24 42  1  0
 24 43  1  0
 24 44  1  0
M  END
>  <meeko>  (2) 
{"is_sidechain": [false], "free_energy": -6.828, "intermolecular_energy": -8.733, "internal_energy": -0.535}

$$$$
cand_033_out
     RDKit          3D

 44 46  0  0  0  0  0  0  0  0999 V2000
  177.8490   24.1280   47.2920 C   0  0  0  0  0  0  0  0  0  0  0  0
  179.0390   23.4380   47.9390 C   0  0  0  0  0  0  0  0  0  0  0  0
  178.5930   22.2820   48.8360 C   0  0  0  0  0  0  0  0  0  0  0  0
  178.0280   21.1330   48.0290 C   0  0  0  0  0  0  0  0  0  0  0  0
  178.9260   20.3570   47.2670 C   0  0  0  0  0  0  0  0  0  0  0  0
  178.4920   19.2880   46.4720 C   0  0  0  0  0  0  0  0  0  0  0  0
  179.4380   18.4600   45.6950 C   0  0  0  0  0  0  0  0  0  0  0  0
  179.0590   17.1230   45.6320 O   0  0  0  0  0  0  0  0  0  0  0  0
  179.8490   16.2410   44.9410 C   0  0  0  0  0  0  0  0  0  0  0  0
  179.4390   14.9080   44.9160 C   0  0  0  0  0  0  0  0  0  0  0  0
  180.1990   13.9570   44.2290 C   0  0  0  0  0  0  0  0  0  0  0  0
  181.3660   14.3410   43.5660 C   0  0  0  0  0  0  0  0  0  0  0  0
  181.7720   15.6730   43.5930 C   0  0  0  0  0  0  0  0  0  0  0  0
  182.9250   15.9800   42.9220 O   0  0  0  0  0  0  0  0  0  0  0  0
  181.0130   16.6230   44.2800 C   0  0  0  0  0  0  0  0  0  0  0  0
  181.4050   18.0330   44.3330 C   0  0  0  0  0  0  0  0  0  0  0  0
  182.4150   18.4480   43.7700 O   0  0  0  0  0  0  0  0  0  0  0  0
  180.5350   18.9570   45.0970 C   0  0  0  0  0  0  0  0  0  0  0  0
  180.9080   20.2880   45.1290 O   0  0  0  0  0  0  0  0  0  0  0  0
  177.1270   18.9860   46.4580 C   0  0  0  0  0  0  0  0  0  0  0  0
  176.2210   19.7470   47.2010 C   0  0  0  0  0  0  0  0  0  0  0  0
  176.6530   20.8300   47.9840 C   0  0  0  0  0  0  0  0  0  0  0  0
  175.6130   21.6000   48.7670 C   0  0  0  0  0  0  0  0  0  0  0  0
  175.1180   20.8190   49.9760 C   0  0  0  0  0  0  0  0  0  0  0  0
  177.1801   24.5158   48.0744 H   0  0  0  0  0  0  0  0  0  0  0  0
  178.2034   24.9607   46.6667 H   0  0  0  0  0  0  0  0  0  0  0  0
  177.3024   23.4067   46.6667 H   0  0  0  0  0  0  0  0  0  0  0  0
  179.6977   23.0456   47.1502 H   0  0  0  0  0  0  0  0  0  0  0  0
  179.5704   24.1738   48.5605 H   0  0  0  0  0  0  0  0  0  0  0  0
  179.4591   21.9220   49.4107 H   0  0  0  0  0  0  0  0  0  0  0  0
  177.8024   22.6525   49.5051 H   0  0  0  0  0  0  0  0  0  0  0  0
  179.9988   20.5982   47.2977 H   0  0  0  0  0  0  0  0  0  0  0  0
  178.5184   14.6054   45.4365 H   0  0  0  0  0  0  0  0  0  0  0  0
  179.8773   12.9053   44.2108 H   0  0  0  0  0  0  0  0  0  0  0  0
  181.9634   13.5934   43.0236 H   0  0  0  0  0  0  0  0  0  0  0  0
  183.7440   15.6320   43.2150 H   0  0  0  0  0  0  0  0  0  0  0  0
  181.7030   20.5420   45.5550 H   0  0  0  0  0  0  0  0  0  0  0  0
  176.7626   18.1406   45.8559 H   0  0  0  0  0  0  0  0  0  0  0  0
  175.1510   19.4936   47.1722 H   0  0  0  0  0  0  0  0  0  0  0  0
  176.0561   22.5458   49.1120 H   0  0  0  0  0  0  0  0  0  0  0  0
  174.7540   21.7823   48.1045 H   0  0  0  0  0  0  0  0  0  0  0  0
  175.4398   21.3267   50.8973 H   0  0  0  0  0  0  0  0  0  0  0  0
  174.0196   20.7638   49.9522 H   0  0  0  0  0  0  0  0  0  0  0  0
  175.5368   19.8021   49.9522 H   0  0  0  0  0  0  0  0  0  0  0  0
  1  2  1  0
  2  3  1  0
  3  4  1  0
  4  5  2  0
  5  6  1  0
  6  7  1  0
  7  8  1  0
  8  9  1  0
  9 10  2  0
 10 11  1  0
 11 12  2  0
 12 13  1  0
 13 14  1  0
 13 15  2  0
 15 16  1  0
 16 17  2  0
 16 18  1  0
 18 19  1  0
  6 20  2  0
 20 21  1  0
 21 22  2  0
 22 23  1  0
 23 24  1  0
 22  4  1  0
 18  7  2  0
 15  9  1  0
  1 25  1  0
  1 26  1  0
  1 27  1  0
  2 28  1  0
  2 29  1  0
  3 30  1  0
  3 31  1  0
  5 32  1  0
 10 33  1  0
 11 34  1  0
 12 35  1  0
 14 36  1  0
 19 37  1  0
 20 38  1  0
 21 39  1  0
 23 40  1  0
 23 41  1  0
 24 42  1  0
 24 43  1  0
 24 44  1  0
M  END
>  <meeko>  (3) 
{"is_sidechain": [false], "free_energy": -6.272, "intermolecular_energy": -8.063, "internal_energy": -0.486}

$$$$
cand_033_out
     RDKit          3D

 44 46  0  0  0  0  0  0  0  0999 V2000
  181.4440   15.7860   40.1920 C   0  0  0  0  0  0  0  0  0  0  0  0
  181.0310   16.9760   41.0440 C   0  0  0  0  0  0  0  0  0  0  0  0
  181.8720   17.0690   42.3190 C   0  0  0  0  0  0  0  0  0  0  0  0
  181.0180   16.9510   43.5620 C   0  0  0  0  0  0  0  0  0  0  0  0
  180.7910   18.1190   44.3190 C   0  0  0  0  0  0  0  0  0  0  0  0
  180.0310   18.1030   45.4970 C   0  0  0  0  0  0  0  0  0  0  0  0
  179.7740   19.3340   46.2750 C   0  0  0  0  0  0  0  0  0  0  0  0
  178.4290   19.6890   46.2920 O   0  0  0  0  0  0  0  0  0  0  0  0
  178.0490   20.8140   46.9790 C   0  0  0  0  0  0  0  0  0  0  0  0
  176.6930   21.1410   46.9570 C   0  0  0  0  0  0  0  0  0  0  0  0
  176.2380   22.2740   47.6370 C   0  0  0  0  0  0  0  0  0  0  0  0
  177.1400   23.0770   48.3400 C   0  0  0  0  0  0  0  0  0  0  0  0
  178.4920   22.7470   48.3590 C   0  0  0  0  0  0  0  0  0  0  0  0
  179.3200   23.5760   49.0660 O   0  0  0  0  0  0  0  0  0  0  0  0
  178.9460   21.6150   47.6790 C   0  0  0  0  0  0  0  0  0  0  0  0
  180.3600   21.2320   47.6740 C   0  0  0  0  0  0  0  0  0  0  0  0
  181.2120   21.8850   48.2730 O   0  0  0  0  0  0  0  0  0  0  0  0
  180.7390   20.0190   46.9140 C   0  0  0  0  0  0  0  0  0  0  0  0
  182.0750   19.6610   46.9270 O   0  0  0  0  0  0  0  0  0  0  0  0
  179.4770   16.8890   45.9100 C   0  0  0  0  0  0  0  0  0  0  0  0
  179.6950   15.7190   45.1770 C   0  0  0  0  0  0  0  0  0  0  0  0
  180.4710   15.7310   44.0060 C   0  0  0  0  0  0  0  0  0  0  0  0
  180.6540   14.4270   43.2620 C   0  0  0  0  0  0  0  0  0  0  0  0
  180.0400   13.2540   44.0130 C   0  0  0  0  0  0  0  0  0  0  0  0
  181.7341   14.9502   40.8456 H   0  0  0  0  0  0  0  0  0  0  0  0
  180.5998   15.4791   39.5571 H   0  0  0  0  0  0  0  0  0  0  0  0
  182.2968   16.0680   39.5571 H   0  0  0  0  0  0  0  0  0  0  0  0
  181.1644   17.8982   40.4593 H   0  0  0  0  0  0  0  0  0  0  0  0
  179.9777   16.8457   41.3330 H   0  0  0  0  0  0  0  0  0  0  0  0
  182.6133   16.2563   42.3172 H   0  0  0  0  0  0  0  0  0  0  0  0
  182.3652   18.0521   42.3337 H   0  0  0  0  0  0  0  0  0  0  0  0
  181.2229   19.0704   43.9751 H   0  0  0  0  0  0  0  0  0  0  0  0
  175.9827   20.5078   46.4051 H   0  0  0  0  0  0  0  0  0  0  0  0
  175.1693   22.5338   47.6188 H   0  0  0  0  0  0  0  0  0  0  0  0
  176.7824   23.9678   48.8771 H   0  0  0  0  0  0  0  0  0  0  0  0
  180.1690   23.2790   49.3290 H   0  0  0  0  0  0  0  0  0  0  0  0
  182.6280   19.9430   47.6290 H   0  0  0  0  0  0  0  0  0  0  0  0
  178.8627   16.8534   46.8218 H   0  0  0  0  0  0  0  0  0  0  0  0
  179.2518   14.7735   45.5227 H   0  0  0  0  0  0  0  0  0  0  0  0
  180.1727   14.5094   42.2763 H   0  0  0  0  0  0  0  0  0  0  0  0
  181.7334   14.2402   43.1619 H   0  0  0  0  0  0  0  0  0  0  0  0
  180.1294   13.4248   45.0960 H   0  0  0  0  0  0  0  0  0  0  0  0
  178.9777   13.1613   43.7429 H   0  0  0  0  0  0  0  0  0  0  0  0
  180.5692   12.3282   43.7429 H   0  0  0  0  0  0  0  0  0  0  0  0
  1  2  1  0
  2  3  1  0
  3  4  1  0
  4  5  2  0
  5  6  1  0
  6  7  1  0
  7  8  1  0
  8  9  1  0
  9 10  2  0
 10 11  1  0
 11 12  2  0
 12 13  1  0
 13 14  1  0
 13 15  2  0
 15 16  1  0
 16 17  2  0
 16 18  1  0
 18 19  1  0
  6 20  2  0
 20 21  1  0
 21 22  2  0
 22 23  1  0
 23 24  1  0
 22  4  1  0
 18  7  2  0
 15  9  1  0
  1 25  1  0
  1 26  1  0
  1 27  1  0
  2 28  1  0
  2 29  1  0
  3 30  1  0
  3 31  1  0
  5 32  1  0
 10 33  1  0
 11 34  1  0
 12 35  1  0
 14 36  1  0
 19 37  1  0
 20 38  1  0
 21 39  1  0
 23 40  1  0
 23 41  1  0
 24 42  1  0
 24 43  1  0
 24 44  1  0
M  END
>  <meeko>  (4) 
{"is_sidechain": [false], "free_energy": -6.072, "intermolecular_energy": -7.803, "internal_energy": -0.489}

$$$$
cand_033_out
     RDKit          3D

 44 46  0  0  0  0  0  0  0  0999 V2000
  184.5670   22.5860   44.7570 C   0  0  0  0  0  0  0  0  0  0  0  0
  183.4370   21.8430   45.4520 C   0  0  0  0  0  0  0  0  0  0  0  0
  183.1140   20.5270   44.7430 C   0  0  0  0  0  0  0  0  0  0  0  0
  181.7770   19.9700   45.1790 C   0  0  0  0  0  0  0  0  0  0  0  0
  180.9630   20.7760   46.0020 C   0  0  0  0  0  0  0  0  0  0  0  0
  179.7190   20.3360   46.4720 C   0  0  0  0  0  0  0  0  0  0  0  0
  178.8560   21.1920   47.3130 C   0  0  0  0  0  0  0  0  0  0  0  0
  177.5080   20.8700   47.2070 O   0  0  0  0  0  0  0  0  0  0  0  0
  176.5940   21.5880   47.9350 C   0  0  0  0  0  0  0  0  0  0  0  0
  175.2510   21.2400   47.7870 C   0  0  0  0  0  0  0  0  0  0  0  0
  174.2690   21.9310   48.5010 C   0  0  0  0  0  0  0  0  0  0  0  0
  174.6300   22.9680   49.3630 C   0  0  0  0  0  0  0  0  0  0  0  0
  175.9720   23.3120   49.5100 C   0  0  0  0  0  0  0  0  0  0  0  0
  176.2560   24.3370   50.3710 O   0  0  0  0  0  0  0  0  0  0  0  0
  176.9530   22.6210   48.7950 C   0  0  0  0  0  0  0  0  0  0  0  0
  178.3740   22.9520   48.9190 C   0  0  0  0  0  0  0  0  0  0  0  0
  178.7710   23.8470   49.6630 O   0  0  0  0  0  0  0  0  0  0  0  0
  179.3340   22.1650   48.1110 C   0  0  0  0  0  0  0  0  0  0  0  0
  180.6740   22.4770   48.2470 O   0  0  0  0  0  0  0  0  0  0  0  0
  179.2790   19.0640   46.0920 C   0  0  0  0  0  0  0  0  0  0  0  0
  180.0740   18.2490   45.2820 C   0  0  0  0  0  0  0  0  0  0  0  0
  181.3290   18.6820   44.8250 C   0  0  0  0  0  0  0  0  0  0  0  0
  182.1260   17.7450   43.9450 C   0  0  0  0  0  0  0  0  0  0  0  0
  181.2270   16.8180   43.1390 C   0  0  0  0  0  0  0  0  0  0  0  0
  185.2356   23.0256   45.5118 H   0  0  0  0  0  0  0  0  0  0  0  0
  185.1349   21.8845   44.1282 H   0  0  0  0  0  0  0  0  0  0  0  0
  184.1480   23.3854   44.1282 H   0  0  0  0  0  0  0  0  0  0  0  0
  183.7352   21.6271   46.4886 H   0  0  0  0  0  0  0  0  0  0  0  0
  182.5392   22.4782   45.4278 H   0  0  0  0  0  0  0  0  0  0  0  0
  183.0898   20.7035   43.6575 H   0  0  0  0  0  0  0  0  0  0  0  0
  183.8924   19.7957   45.0062 H   0  0  0  0  0  0  0  0  0  0  0  0
  181.3154   21.7794   46.2829 H   0  0  0  0  0  0  0  0  0  0  0  0
  174.9657   20.4223   47.1088 H   0  0  0  0  0  0  0  0  0  0  0  0
  173.2100   21.6576   48.3838 H   0  0  0  0  0  0  0  0  0  0  0  0
  173.8567   23.5123   49.9249 H   0  0  0  0  0  0  0  0  0  0  0  0
  176.0240   25.2170   50.1460 H   0  0  0  0  0  0  0  0  0  0  0  0
  181.0230   22.6870   49.0910 H   0  0  0  0  0  0  0  0  0  0  0  0
  178.2982   18.7019   46.4339 H   0  0  0  0  0  0  0  0  0  0  0  0
  179.7103   17.2507   44.9974 H   0  0  0  0  0  0  0  0  0  0  0  0
  182.7349   18.3420   43.2502 H   0  0  0  0  0  0  0  0  0  0  0  0
  182.7592   17.1238   44.5955 H   0  0  0  0  0  0  0  0  0  0  0  0
  180.6282   16.2005   43.8246 H   0  0  0  0  0  0  0  0  0  0  0  0
  180.5569   17.4171   42.5050 H   0  0  0  0  0  0  0  0  0  0  0  0
  181.8463   16.1665   42.5050 H   0  0  0  0  0  0  0  0  0  0  0  0
  1  2  1  0
  2  3  1  0
  3  4  1  0
  4  5  2  0
  5  6  1  0
  6  7  1  0
  7  8  1  0
  8  9  1  0
  9 10  2  0
 10 11  1  0
 11 12  2  0
 12 13  1  0
 13 14  1  0
 13 15  2  0
 15 16  1  0
 16 17  2  0
 16 18  1  0
 18 19  1  0
  6 20  2  0
 20 21  1  0
 21 22  2  0
 22 23  1  0
 23 24  1  0
 22  4  1  0
 18  7  2  0
 15  9  1  0
  1 25  1  0
  1 26  1  0
  1 27  1  0
  2 28  1  0
  2 29  1  0
  3 30  1  0
  3 31  1  0
  5 32  1  0
 10 33  1  0
 11 34  1  0
 12 35  1  0
 14 36  1  0
 19 37  1  0
 20 38  1  0
 21 39  1  0
 23 40  1  0
 23 41  1  0
 24 42  1  0
 24 43  1  0
 24 44  1  0
M  END
>  <meeko>  (5) 
{"is_sidechain": [false], "free_energy": -5.637, "intermolecular_energy": -7.49, "internal_energy": -0.238}

$$$$
cand_033_out
     RDKit          3D

 44 46  0  0  0  0  0  0  0  0999 V2000
  178.3820   23.8020   47.5780 C   0  0  0  0  0  0  0  0  0  0  0  0
  178.2940   22.3290   47.2150 C   0  0  0  0  0  0  0  0  0  0  0  0
  179.3690   21.5120   47.9360 C   0  0  0  0  0  0  0  0  0  0  0  0
  180.5370   21.1980   47.0260 C   0  0  0  0  0  0  0  0  0  0  0  0
  181.6130   22.1090   46.9980 C   0  0  0  0  0  0  0  0  0  0  0  0
  182.7280   21.9130   46.1720 C   0  0  0  0  0  0  0  0  0  0  0  0
  183.8670   22.8550   46.1630 C   0  0  0  0  0  0  0  0  0  0  0  0
  184.1470   23.3740   47.4220 O   0  0  0  0  0  0  0  0  0  0  0  0
  185.1820   24.2650   47.5570 C   0  0  0  0  0  0  0  0  0  0  0  0
  185.4190   24.7710   48.8360 C   0  0  0  0  0  0  0  0  0  0  0  0
  186.4580   25.6810   49.0430 C   0  0  0  0  0  0  0  0  0  0  0  0
  187.2610   26.0820   47.9730 C   0  0  0  0  0  0  0  0  0  0  0  0
  187.0220   25.5740   46.6980 C   0  0  0  0  0  0  0  0  0  0  0  0
  187.8460   26.0090   45.6960 O   0  0  0  0  0  0  0  0  0  0  0  0
  185.9820   24.6650   46.4920 C   0  0  0  0  0  0  0  0  0  0  0  0
  185.6970   24.1070   45.1680 C   0  0  0  0  0  0  0  0  0  0  0  0
  186.3630   24.4070   44.1790 O   0  0  0  0  0  0  0  0  0  0  0  0
  184.5670   23.1580   45.0540 C   0  0  0  0  0  0  0  0  0  0  0  0
  184.3150   22.6270   43.8020 O   0  0  0  0  0  0  0  0  0  0  0  0
  182.7640   20.7690   45.3690 C   0  0  0  0  0  0  0  0  0  0  0  0
  181.7040   19.8580   45.3790 C   0  0  0  0  0  0  0  0  0  0  0  0
  180.5780   20.0620   46.1940 C   0  0  0  0  0  0  0  0  0  0  0  0
  179.4770   19.0270   46.1550 C   0  0  0  0  0  0  0  0  0  0  0  0
  179.9160   17.7560   45.4440 C   0  0  0  0  0  0  0  0  0  0  0  0
  178.3885   23.9101   48.6727 H   0  0  0  0  0  0  0  0  0  0  0  0
  179.3072   24.2275   47.1621 H   0  0  0  0  0  0  0  0  0  0  0  0
  177.5141   24.3346   47.1621 H   0  0  0  0  0  0  0  0  0  0  0  0
  177.3026   21.9482   47.5015 H   0  0  0  0  0  0  0  0  0  0  0  0
  178.4516   22.2291   46.1309 H   0  0  0  0  0  0  0  0  0  0  0  0
  179.7344   22.0869   48.7997 H   0  0  0  0  0  0  0  0  0  0  0  0
  178.9192   20.5611   48.2576 H   0  0  0  0  0  0  0  0  0  0  0  0
  181.5761   22.9992   47.6431 H   0  0  0  0  0  0  0  0  0  0  0  0
  184.7885   24.4536   49.6796 H   0  0  0  0  0  0  0  0  0  0  0  0
  186.6441   26.0824   50.0501 H   0  0  0  0  0  0  0  0  0  0  0  0
  188.0804   26.7974   48.1366 H   0  0  0  0  0  0  0  0  0  0  0  0
  187.5030   26.5410   45.0050 H   0  0  0  0  0  0  0  0  0  0  0  0
  183.4490   22.3500   43.5760 H   0  0  0  0  0  0  0  0  0  0  0  0
  183.6350   20.5841   44.7231 H   0  0  0  0  0  0  0  0  0  0  0  0
  181.7523   18.9657   44.7375 H   0  0  0  0  0  0  0  0  0  0  0  0
  179.1889   18.7757   47.1864 H   0  0  0  0  0  0  0  0  0  0  0  0
  178.6293   19.4529   45.5981 H   0  0  0  0  0  0  0  0  0  0  0  0
  180.1801   16.9914   46.1894 H   0  0  0  0  0  0  0  0  0  0  0  0
  179.0938   17.3855   44.8142 H   0  0  0  0  0  0  0  0  0  0  0  0
  180.7916   17.9719   44.8142 H   0  0  0  0  0  0  0  0  0  0  0  0
  1  2  1  0
  2  3  1  0
  3  4  1  0
  4  5  2  0
  5  6  1  0
  6  7  1  0
  7  8  1  0
  8  9  1  0
  9 10  2  0
 10 11  1  0
 11 12  2  0
 12 13  1  0
 13 14  1  0
 13 15  2  0
 15 16  1  0
 16 17  2  0
 16 18  1  0
 18 19  1  0
  6 20  2  0
 20 21  1  0
 21 22  2  0
 22 23  1  0
 23 24  1  0
 22  4  1  0
 18  7  2  0
 15  9  1  0
  1 25  1  0
  1 26  1  0
  1 27  1  0
  2 28  1  0
  2 29  1  0
  3 30  1  0
  3 31  1  0
  5 32  1  0
 10 33  1  0
 11 34  1  0
 12 35  1  0
 14 36  1  0
 19 37  1  0
 20 38  1  0
 21 39  1  0
 23 40  1  0
 23 41  1  0
 24 42  1  0
 24 43  1  0
 24 44  1  0
M  END
>  <meeko>  (6) 
{"is_sidechain": [false], "free_energy": -5.632, "intermolecular_energy": -7.379, "internal_energy": -0.343}

$$$$
cand_033_out
     RDKit          3D

 44 46  0  0  0  0  0  0  0  0999 V2000
  177.1540   22.9930   47.7340 C   0  0  0  0  0  0  0  0  0  0  0  0
  178.6470   22.9930   47.4490 C   0  0  0  0  0  0  0  0  0  0  0  0
  179.3220   21.7390   48.0080 C   0  0  0  0  0  0  0  0  0  0  0  0
  180.3360   21.1700   47.0390 C   0  0  0  0  0  0  0  0  0  0  0  0
  181.5070   21.9170   46.7960 C   0  0  0  0  0  0  0  0  0  0  0  0
  182.4910   21.4810   45.8990 C   0  0  0  0  0  0  0  0  0  0  0  0
  183.7300   22.2530   45.6650 C   0  0  0  0  0  0  0  0  0  0  0  0
  184.2950   22.0020   44.4190 O   0  0  0  0  0  0  0  0  0  0  0  0
  185.4510   22.6530   44.0710 C   0  0  0  0  0  0  0  0  0  0  0  0
  185.9910   22.3590   42.8180 C   0  0  0  0  0  0  0  0  0  0  0  0
  187.1670   22.9880   42.4020 C   0  0  0  0  0  0  0  0  0  0  0  0
  187.8010   23.9110   43.2370 C   0  0  0  0  0  0  0  0  0  0  0  0
  187.2590   24.2020   44.4860 C   0  0  0  0  0  0  0  0  0  0  0  0
  187.9300   25.1150   45.2530 O   0  0  0  0  0  0  0  0  0  0  0  0
  186.0830   23.5720   44.9030 C   0  0  0  0  0  0  0  0  0  0  0  0
  185.4810   23.8490   46.2080 C   0  0  0  0  0  0  0  0  0  0  0  0
  185.9760   24.6530   46.9950 O   0  0  0  0  0  0  0  0  0  0  0  0
  184.2390   23.1220   46.5570 C   0  0  0  0  0  0  0  0  0  0  0  0
  183.6720   23.4010   47.7880 O   0  0  0  0  0  0  0  0  0  0  0  0
  182.2980   20.2600   45.2460 C   0  0  0  0  0  0  0  0  0  0  0  0
  181.1420   19.5080   45.4700 C   0  0  0  0  0  0  0  0  0  0  0  0
  180.1460   19.9530   46.3550 C   0  0  0  0  0  0  0  0  0  0  0  0
  178.9270   19.0790   46.5500 C   0  0  0  0  0  0  0  0  0  0  0  0
  177.6710   19.7180   45.9760 C   0  0  0  0  0  0  0  0  0  0  0  0
  176.7938   21.9559   47.8028 H   0  0  0  0  0  0  0  0  0  0  0  0
  176.9622   23.5115   48.6850 H   0  0  0  0  0  0  0  0  0  0  0  0
  176.6254   23.5115   46.9205 H   0  0  0  0  0  0  0  0  0  0  0  0
  178.8036   23.0289   46.3608 H   0  0  0  0  0  0  0  0  0  0  0  0
  179.0925   23.8726   47.9367 H   0  0  0  0  0  0  0  0  0  0  0  0
  179.8327   21.9977   48.9473 H   0  0  0  0  0  0  0  0  0  0  0  0
  178.5457   20.9784   48.1779 H   0  0  0  0  0  0  0  0  0  0  0  0
  181.6522   22.8698   47.3261 H   0  0  0  0  0  0  0  0  0  0  0  0
  185.4915   21.6334   42.1592 H   0  0  0  0  0  0  0  0  0  0  0  0
  187.5944   22.7560   41.4153 H   0  0  0  0  0  0  0  0  0  0  0  0
  188.7263   24.4068   42.9085 H   0  0  0  0  0  0  0  0  0  0  0  0
  188.3180   25.8680   44.8530 H   0  0  0  0  0  0  0  0  0  0  0  0
  183.3260   24.2540   47.9610 H   0  0  0  0  0  0  0  0  0  0  0  0
  183.0635   19.8878   44.5493 H   0  0  0  0  0  0  0  0  0  0  0  0
  181.0095   18.5509   44.9442 H   0  0  0  0  0  0  0  0  0  0  0  0
  179.0967   18.1152   46.0476 H   0  0  0  0  0  0  0  0  0  0  0  0
  178.7757   18.9424   47.6310 H   0  0  0  0  0  0  0  0  0  0  0  0
  177.0197   20.0494   46.7982 H   0  0  0  0  0  0  0  0  0  0  0  0
  177.9500   20.5838   45.3574 H   0  0  0  0  0  0  0  0  0  0  0  0
  177.1354   18.9828   45.3574 H   0  0  0  0  0  0  0  0  0  0  0  0
  1  2  1  0
  2  3  1  0
  3  4  1  0
  4  5  2  0
  5  6  1  0
  6  7  1  0
  7  8  1  0
  8  9  1  0
  9 10  2  0
 10 11  1  0
 11 12  2  0
 12 13  1  0
 13 14  1  0
 13 15  2  0
 15 16  1  0
 16 17  2  0
 16 18  1  0
 18 19  1  0
  6 20  2  0
 20 21  1  0
 21 22  2  0
 22 23  1  0
 23 24  1  0
 22  4  1  0
 18  7  2  0
 15  9  1  0
  1 25  1  0
  1 26  1  0
  1 27  1  0
  2 28  1  0
  2 29  1  0
  3 30  1  0
  3 31  1  0
  5 32  1  0
 10 33  1  0
 11 34  1  0
 12 35  1  0
 14 36  1  0
 19 37  1  0
 20 38  1  0
 21 39  1  0
 23 40  1  0
 23 41  1  0
 24 42  1  0
 24 43  1  0
 24 44  1  0
M  END
>  <meeko>  (7) 
{"is_sidechain": [false], "free_energy": -5.393, "intermolecular_energy": -7.262, "internal_energy": -0.151}

$$$$
cand_033_out
     RDKit          3D

 44 46  0  0  0  0  0  0  0  0999 V2000
  181.5790   16.1580   43.3780 C   0  0  0  0  0  0  0  0  0  0  0  0
  181.2020   17.5660   43.8090 C   0  0  0  0  0  0  0  0  0  0  0  0
  180.4060   17.5560   45.1150 C   0  0  0  0  0  0  0  0  0  0  0  0
  180.2820   18.9430   45.7060 C   0  0  0  0  0  0  0  0  0  0  0  0
  181.4450   19.7390   45.7690 C   0  0  0  0  0  0  0  0  0  0  0  0
  181.4320   21.0280   46.3190 C   0  0  0  0  0  0  0  0  0  0  0  0
  182.6460   21.8710   46.3610 C   0  0  0  0  0  0  0  0  0  0  0  0
  183.3230   21.9010   45.1470 O   0  0  0  0  0  0  0  0  0  0  0  0
  184.4700   22.6460   45.0450 C   0  0  0  0  0  0  0  0  0  0  0  0
  185.1250   22.6350   43.8130 C   0  0  0  0  0  0  0  0  0  0  0  0
  186.2980   23.3740   43.6410 C   0  0  0  0  0  0  0  0  0  0  0  0
  186.8150   24.1230   44.7010 C   0  0  0  0  0  0  0  0  0  0  0  0
  186.1590   24.1310   45.9290 C   0  0  0  0  0  0  0  0  0  0  0  0
  186.7190   24.8860   46.9230 O   0  0  0  0  0  0  0  0  0  0  0  0
  184.9860   23.3920   46.1000 C   0  0  0  0  0  0  0  0  0  0  0  0
  184.2650   23.3730   47.3740 C   0  0  0  0  0  0  0  0  0  0  0  0
  184.6540   24.0110   48.3500 O   0  0  0  0  0  0  0  0  0  0  0  0
  183.0360   22.5510   47.4540 C   0  0  0  0  0  0  0  0  0  0  0  0
  182.3570   22.5510   48.6590 O   0  0  0  0  0  0  0  0  0  0  0  0
  180.2190   21.5290   46.8020 C   0  0  0  0  0  0  0  0  0  0  0  0
  179.0580   20.7540   46.7540 C   0  0  0  0  0  0  0  0  0  0  0  0
  179.0730   19.4550   46.2190 C   0  0  0  0  0  0  0  0  0  0  0  0
  177.7740   18.6820   46.1940 C   0  0  0  0  0  0  0  0  0  0  0  0
  176.5850   19.5570   46.5620 C   0  0  0  0  0  0  0  0  0  0  0  0
  181.7460   15.5343   44.2686 H   0  0  0  0  0  0  0  0  0  0  0  0
  180.7643   15.7281   42.7768 H   0  0  0  0  0  0  0  0  0  0  0  0
  182.4995   16.1927   42.7768 H   0  0  0  0  0  0  0  0  0  0  0  0
  182.1204   18.1537   43.9542 H   0  0  0  0  0  0  0  0  0  0  0  0
  180.5733   18.0115   43.0240 H   0  0  0  0  0  0  0  0  0  0  0  0
  179.3985   17.1624   44.9153 H   0  0  0  0  0  0  0  0  0  0  0  0
  180.9411   16.9223   45.8375 H   0  0  0  0  0  0  0  0  0  0  0  0
  182.3897   19.3362   45.3749 H   0  0  0  0  0  0  0  0  0  0  0  0
  184.7183   22.0452   42.9783 H   0  0  0  0  0  0  0  0  0  0  0  0
  186.8150   23.3662   42.6701 H   0  0  0  0  0  0  0  0  0  0  0  0
  187.7384   24.7052   44.5656 H   0  0  0  0  0  0  0  0  0  0  0  0
  187.6380   25.0670   46.9120 H   0  0  0  0  0  0  0  0  0  0  0  0
  181.4900   22.9040   48.7080 H   0  0  0  0  0  0  0  0  0  0  0  0
  180.1788   22.5440   47.2241 H   0  0  0  0  0  0  0  0  0  0  0  0
  178.1155   21.1679   47.1418 H   0  0  0  0  0  0  0  0  0  0  0  0
  177.6194   18.2794   45.1821 H   0  0  0  0  0  0  0  0  0  0  0  0
  177.8445   17.8734   46.9365 H   0  0  0  0  0  0  0  0  0  0  0  0
  176.5005   19.6192   47.6570 H   0  0  0  0  0  0  0  0  0  0  0  0
  176.7298   20.5656   46.1475 H   0  0  0  0  0  0  0  0  0  0  0  0
  175.6651   19.1188   46.1475 H   0  0  0  0  0  0  0  0  0  0  0  0
  1  2  1  0
  2  3  1  0
  3  4  1  0
  4  5  2  0
  5  6  1  0
  6  7  1  0
  7  8  1  0
  8  9  1  0
  9 10  2  0
 10 11  1  0
 11 12  2  0
 12 13  1  0
 13 14  1  0
 13 15  2  0
 15 16  1  0
 16 17  2  0
 16 18  1  0
 18 19  1  0
  6 20  2  0
 20 21  1  0
 21 22  2  0
 22 23  1  0
 23 24  1  0
 22  4  1  0
 18  7  2  0
 15  9  1  0
  1 25  1  0
  1 26  1  0
  1 27  1  0
  2 28  1  0
  2 29  1  0
  3 30  1  0
  3 31  1  0
  5 32  1  0
 10 33  1  0
 11 34  1  0
 12 35  1  0
 14 36  1  0
 19 37  1  0
 20 38  1  0
 21 39  1  0
 23 40  1  0
 23 41  1  0
 24 42  1  0
 24 43  1  0
 24 44  1  0
M  END
>  <meeko>  (8) 
{"is_sidechain": [false], "free_energy": -5.357, "intermolecular_energy": -6.946, "internal_energy": -0.421}

$$$$
cand_033_out
     RDKit          3D

 44 46  0  0  0  0  0  0  0  0999 V2000
  187.9300   21.2380   44.1050 C   0  0  0  0  0  0  0  0  0  0  0  0
  186.7820   21.4320   43.1280 C   0  0  0  0  0  0  0  0  0  0  0  0
  186.1500   22.8170   43.2780 C   0  0  0  0  0  0  0  0  0  0  0  0
  185.4130   22.9570   44.5920 C   0  0  0  0  0  0  0  0  0  0  0  0
  184.1960   22.2610   44.7430 C   0  0  0  0  0  0  0  0  0  0  0  0
  183.4330   22.3470   45.9160 C   0  0  0  0  0  0  0  0  0  0  0  0
  182.1710   21.5970   46.0820 C   0  0  0  0  0  0  0  0  0  0  0  0
  181.2200   22.2960   46.8160 O   0  0  0  0  0  0  0  0  0  0  0  0
  180.0000   21.7140   47.0480 C   0  0  0  0  0  0  0  0  0  0  0  0
  179.0810   22.4450   47.8020 C   0  0  0  0  0  0  0  0  0  0  0  0
  177.8190   21.9110   48.0730 C   0  0  0  0  0  0  0  0  0  0  0  0
  177.4760   20.6470   47.5880 C   0  0  0  0  0  0  0  0  0  0  0  0
  178.3950   19.9200   46.8350 C   0  0  0  0  0  0  0  0  0  0  0  0
  177.9940   18.6900   46.3920 O   0  0  0  0  0  0  0  0  0  0  0  0
  179.6570   20.4550   46.5650 C   0  0  0  0  0  0  0  0  0  0  0  0
  180.6520   19.7240   45.7780 C   0  0  0  0  0  0  0  0  0  0  0  0
  180.4220   18.6090   45.3130 O   0  0  0  0  0  0  0  0  0  0  0  0
  181.9630   20.3750   45.5560 C   0  0  0  0  0  0  0  0  0  0  0  0
  182.8900   19.6810   44.8010 O   0  0  0  0  0  0  0  0  0  0  0  0
  183.9160   23.1390   46.9620 C   0  0  0  0  0  0  0  0  0  0  0  0
  185.1170   23.8410   46.8290 C   0  0  0  0  0  0  0  0  0  0  0  0
  185.8730   23.7690   45.6470 C   0  0  0  0  0  0  0  0  0  0  0  0
  187.1660   24.5510   45.5830 C   0  0  0  0  0  0  0  0  0  0  0  0
  187.9300   24.4950   46.8980 C   0  0  0  0  0  0  0  0  0  0  0  0
  187.5496   21.3023   45.1351 H   0  0  0  0  0  0  0  0  0  0  0  0
  188.3860   20.2501   43.9435 H   0  0  0  0  0  0  0  0  0  0  0  0
  188.6853   22.0212   43.9435 H   0  0  0  0  0  0  0  0  0  0  0  0
  187.1626   21.3214   42.1019 H   0  0  0  0  0  0  0  0  0  0  0  0
  186.0130   20.6753   43.3425 H   0  0  0  0  0  0  0  0  0  0  0  0
  186.9432   23.5777   43.2315 H   0  0  0  0  0  0  0  0  0  0  0  0
  185.4248   22.9530   42.4621 H   0  0  0  0  0  0  0  0  0  0  0  0
  183.8346   21.6320   43.9161 H   0  0  0  0  0  0  0  0  0  0  0  0
  179.3503   23.4413   48.1827 H   0  0  0  0  0  0  0  0  0  0  0  0
  177.0950   22.4863   48.6687 H   0  0  0  0  0  0  0  0  0  0  0  0
  176.4820   20.2264   47.8003 H   0  0  0  0  0  0  0  0  0  0  0  0
  178.5010   17.9290   46.5970 H   0  0  0  0  0  0  0  0  0  0  0  0
  183.1490   20.0070   43.9610 H   0  0  0  0  0  0  0  0  0  0  0  0
  183.3448   23.2103   47.8993 H   0  0  0  0  0  0  0  0  0  0  0  0
  185.4765   24.4604   47.6639 H   0  0  0  0  0  0  0  0  0  0  0  0
  187.7973   24.1294   44.7869 H   0  0  0  0  0  0  0  0  0  0  0  0
  186.9179   25.6029   45.3779 H   0  0  0  0  0  0  0  0  0  0  0  0
  187.2203   24.5470   47.7369 H   0  0  0  0  0  0  0  0  0  0  0  0
  188.4953   23.5530   46.9538 H   0  0  0  0  0  0  0  0  0  0  0  0
  188.6266   25.3445   46.9538 H   0  0  0  0  0  0  0  0  0  0  0  0
  1  2  1  0
  2  3  1  0
  3  4  1  0
  4  5  2  0
  5  6  1  0
  6  7  1  0
  7  8  1  0
  8  9  1  0
  9 10  2  0
 10 11  1  0
 11 12  2  0
 12 13  1  0
 13 14  1  0
 13 15  2  0
 15 16  1  0
 16 17  2  0
 16 18  1  0
 18 19  1  0
  6 20  2  0
 20 21  1  0
 21 22  2  0
 22 23  1  0
 23 24  1  0
 22  4  1  0
 18  7  2  0
 15  9  1  0
  1 25  1  0
  1 26  1  0
  1 27  1  0
  2 28  1  0
  2 29  1  0
  3 30  1  0
  3 31  1  0
  5 32  1  0
 10 33  1  0
 11 34  1  0
 12 35  1  0
 14 36  1  0
 19 37  1  0
 20 38  1  0
 21 39  1  0
 23 40  1  0
 23 41  1  0
 24 42  1  0
 24 43  1  0
 24 44  1  0
M  END
>  <meeko>  (9) 
{"is_sidechain": [false], "free_energy": -5.338, "intermolecular_energy": -6.85, "internal_energy": -0.493}

$$$$
