cand_010_out
     RDKit          3D

 35 37  0  0  0  0  0  0  0  0999 V2000
  180.7590   22.1980   48.3740 O   0  0  0  0  0  0  0  0  0  0  0  0
  180.0840   21.4100   47.7140 C   0  0  0  0  0  0  0  0  0  0  0  0
  180.7380   20.3730   46.8840 C   0  0  0  0  0  0  0  0  0  0  0  0
  182.1210   20.3300   46.9020 O   0  0  0  0  0  0  0  0  0  0  0  0
  179.9620   19.5290   46.1790 C   0  0  0  0  0  0  0  0  0  0  0  0
  180.5060   18.4500   45.3270 C   0  0  0  0  0  0  0  0  0  0  0  0
  181.4730   18.7020   44.3490 C   0  0  0  0  0  0  0  0  0  0  0  0
  181.9540   17.6720   43.5360 C   0  0  0  0  0  0  0  0  0  0  0  0
  181.4740   16.3610   43.6740 C   0  0  0  0  0  0  0  0  0  0  0  0
  182.0250   15.2730   42.7810 C   0  0  0  0  0  0  0  0  0  0  0  0
  181.3710   15.1720   41.5870 F   0  0  0  0  0  0  0  0  0  0  0  0
  180.4960   16.0880   44.6550 C   0  0  0  0  0  0  0  0  0  0  0  0
  179.9410   14.6950   44.8450 C   0  0  0  0  0  0  0  0  0  0  0  0
  179.5500   14.0930   43.6870 F   0  0  0  0  0  0  0  0  0  0  0  0
  180.8460   13.8520   45.4150 F   0  0  0  0  0  0  0  0  0  0  0  0
  178.8510   14.6760   45.6600 F   0  0  0  0  0  0  0  0  0  0  0  0
  180.0200   17.1420   45.4630 C   0  0  0  0  0  0  0  0  0  0  0  0
  178.5720   19.5610   46.1900 O   0  0  0  0  0  0  0  0  0  0  0  0
  177.9380   20.5160   46.9420 C   0  0  0  0  0  0  0  0  0  0  0  0
  176.5430   20.5210   46.9130 C   0  0  0  0  0  0  0  0  0  0  0  0
  175.8340   21.4660   47.6580 C   0  0  0  0  0  0  0  0  0  0  0  0
  176.5200   22.4050   48.4310 C   0  0  0  0  0  0  0  0  0  0  0  0
  177.9120   22.3990   48.4580 C   0  0  0  0  0  0  0  0  0  0  0  0
  178.5190   23.3450   49.2370 O   0  0  0  0  0  0  0  0  0  0  0  0
  178.6210   21.4530   47.7130 C   0  0  0  0  0  0  0  0  0  0  0  0
  182.6130   21.1230   46.9940 H   0  0  0  0  0  0  0  0  0  0  0  0
  181.8599   19.7233   44.2179 H   0  0  0  0  0  0  0  0  0  0  0  0
  182.7195   17.8923   42.7774 H   0  0  0  0  0  0  0  0  0  0  0  0
  183.0850   15.4885   42.5814 H   0  0  0  0  0  0  0  0  0  0  0  0
  181.8887   14.3177   43.3091 H   0  0  0  0  0  0  0  0  0  0  0  0
  179.2484   16.9323   46.2184 H   0  0  0  0  0  0  0  0  0  0  0  0
  176.0023   19.7815   46.3041 H   0  0  0  0  0  0  0  0  0  0  0  0
  174.7342   21.4706   47.6358 H   0  0  0  0  0  0  0  0  0  0  0  0
  175.9612   23.1487   49.0180 H   0  0  0  0  0  0  0  0  0  0  0  0
  178.5790   23.2210   50.1640 H   0  0  0  0  0  0  0  0  0  0  0  0
  1  2  2  0
  2  3  1  0
  3  4  1  0
  3  5  2  0
  5  6  1  0
  6  7  2  0
  7  8  1  0
  8  9  2  0
  9 10  1  0
 10 11  1  0
  9 12  1  0
 12 13  1  0
 13 14  1  0
 13 15  1  0
 13 16  1  0
 12 17  2  0
  5 18  1  0
 18 19  1  0
 19 20  2  0
 20 21  1  0
 21 22  2  0
 22 23  1  0
 23 24  1  0
 23 25  2  0
 25  2  1  0
 17  6  1  0
 25 19  1  0
  4 26  1  0
  7 27  1  0
  8 28  1  0
 10 29  1  0
 10 30  1  0
 17 31  1  0
 20 32  1  0
 21 33  1  0
 22 34  1  0
 24 35  1  0
M  END
>  <meeko>  (1) 
{"is_sidechain": [false], "free_energy": -8.849, "intermolecular_energy": -10.918, "internal_energy": -0.269}

$$$$
cand_010_out
     RDKit          3D

 35 37  0  0  0  0  0  0  0  0999 V2000
  182.5280   18.3030   43.6670 O   0  0  0  0  0  0  0  0  0  0  0  0
  181.5210   18.0170   44.3130 C   0  0  0  0  0  0  0  0  0  0  0  0
  180.8220   19.0500   45.1100 C   0  0  0  0  0  0  0  0  0  0  0  0
  181.3410   20.3310   45.0780 O   0  0  0  0  0  0  0  0  0  0  0  0
  179.7220   18.6940   45.8000 C   0  0  0  0  0  0  0  0  0  0  0  0
  178.9390   19.6430   46.6190 C   0  0  0  0  0  0  0  0  0  0  0  0
  179.5530   20.6660   47.3490 C   0  0  0  0  0  0  0  0  0  0  0  0
  178.7950   21.5360   48.1380 C   0  0  0  0  0  0  0  0  0  0  0  0
  177.4020   21.4010   48.2270 C   0  0  0  0  0  0  0  0  0  0  0  0
  176.6180   22.3660   49.0860 C   0  0  0  0  0  0  0  0  0  0  0  0
  176.2840   23.5180   48.4350 F   0  0  0  0  0  0  0  0  0  0  0  0
  176.7650   20.3720   47.4990 C   0  0  0  0  0  0  0  0  0  0  0  0
  175.2670   20.1780   47.5600 C   0  0  0  0  0  0  0  0  0  0  0  0
  174.7810   20.0190   48.8230 F   0  0  0  0  0  0  0  0  0  0  0  0
  174.5880   21.2330   47.0310 F   0  0  0  0  0  0  0  0  0  0  0  0
  174.8550   19.0840   46.8630 F   0  0  0  0  0  0  0  0  0  0  0  0
  177.5460   19.5020   46.7110 C   0  0  0  0  0  0  0  0  0  0  0  0
  179.1890   17.4100   45.8020 O   0  0  0  0  0  0  0  0  0  0  0  0
  179.8210   16.4300   45.0800 C   0  0  0  0  0  0  0  0  0  0  0  0
  179.2600   15.1530   45.1220 C   0  0  0  0  0  0  0  0  0  0  0  0
  179.8530   14.1090   44.4070 C   0  0  0  0  0  0  0  0  0  0  0  0
  181.0040   14.3420   43.6530 C   0  0  0  0  0  0  0  0  0  0  0  0
  181.5620   15.6170   43.6130 C   0  0  0  0  0  0  0  0  0  0  0  0
  182.6880   15.7760   42.8530 O   0  0  0  0  0  0  0  0  0  0  0  0
  180.9690   16.6620   44.3280 C   0  0  0  0  0  0  0  0  0  0  0  0
  182.1990   20.4800   44.7300 H   0  0  0  0  0  0  0  0  0  0  0  0
  180.6453   20.7873   47.3017 H   0  0  0  0  0  0  0  0  0  0  0  0
  179.2986   22.3383   48.6973 H   0  0  0  0  0  0  0  0  0  0  0  0
  175.6930   21.8694   49.4142 H   0  0  0  0  0  0  0  0  0  0  0  0
  177.2612   22.6450   49.9336 H   0  0  0  0  0  0  0  0  0  0  0  0
  177.0510   18.6925   46.1545 H   0  0  0  0  0  0  0  0  0  0  0  0
  178.3531   14.9686   45.7166 H   0  0  0  0  0  0  0  0  0  0  0  0
  179.4118   13.1018   44.4385 H   0  0  0  0  0  0  0  0  0  0  0  0
  181.4699   13.5192   43.0909 H   0  0  0  0  0  0  0  0  0  0  0  0
  182.7810   16.5310   42.3060 H   0  0  0  0  0  0  0  0  0  0  0  0
  1  2  2  0
  2  3  1  0
  3  4  1  0
  3  5  2  0
  5  6  1  0
  6  7  2  0
  7  8  1  0
  8  9  2  0
  9 10  1  0
 10 11  1  0
  9 12  1  0
 12 13  1  0
 13 14  1  0
 13 15  1  0
 13 16  1  0
 12 17  2  0
  5 18  1  0
 18 19  1  0
 19 20  2  0
 20 21  1  0
 21 22  2  0
 22 23  1  0
 23 24  1  0
 23 25  2  0
 25  2  1  0
 17  6  1  0
 25 19  1  0
  4 26  1  0
  7 27  1  0
  8 28  1  0
 10 29  1  0
 10 30  1  0
 17 31  1  0
 20 32  1  0
 21 33  1  0
 22 34  1  0
 24 35  1  0
M  END
>  <meeko>  (2) 
{"is_sidechain": [false], "free_energy": -7.951, "intermolecular_energy": -9.95, "internal_energy": -0.13}

$$$$
cand_010_out
     RDKit          3D

 35 37  0  0  0  0  0  0  0  0999 V2000
  175.5260   19.8070   47.5860 O   0  0  0  0  0  0  0  0  0  0  0  0
  176.6860   20.0630   47.2650 C   0  0  0  0  0  0  0  0  0  0  0  0
  177.5020   19.0640   46.5380 C   0  0  0  0  0  0  0  0  0  0  0  0
  176.8970   17.8580   46.2320 O   0  0  0  0  0  0  0  0  0  0  0  0
  178.7650   19.3860   46.2030 C   0  0  0  0  0  0  0  0  0  0  0  0
  179.6650   18.4720   45.4680 C   0  0  0  0  0  0  0  0  0  0  0  0
  180.7070   18.9510   44.6690 C   0  0  0  0  0  0  0  0  0  0  0  0
  181.5300   18.0700   43.9610 C   0  0  0  0  0  0  0  0  0  0  0  0
  181.3260   16.6840   44.0260 C   0  0  0  0  0  0  0  0  0  0  0  0
  182.2410   15.7640   43.2520 C   0  0  0  0  0  0  0  0  0  0  0  0
  181.7460   15.4130   42.0290 F   0  0  0  0  0  0  0  0  0  0  0  0
  180.2760   16.1820   44.8260 C   0  0  0  0  0  0  0  0  0  0  0  0
  180.0090   14.6970   44.9300 C   0  0  0  0  0  0  0  0  0  0  0  0
  181.0440   13.9860   45.4580 F   0  0  0  0  0  0  0  0  0  0  0  0
  178.9300   14.4210   45.7130 F   0  0  0  0  0  0  0  0  0  0  0  0
  179.7460   14.1300   43.7210 F   0  0  0  0  0  0  0  0  0  0  0  0
  179.4540   17.0860   45.5300 C   0  0  0  0  0  0  0  0  0  0  0  0
  179.3540   20.6120   46.4890 O   0  0  0  0  0  0  0  0  0  0  0  0
  178.6270   21.5540   47.1690 C   0  0  0  0  0  0  0  0  0  0  0  0
  179.2620   22.7650   47.4470 C   0  0  0  0  0  0  0  0  0  0  0  0
  178.5770   23.7690   48.1360 C   0  0  0  0  0  0  0  0  0  0  0  0
  177.2580   23.5610   48.5460 C   0  0  0  0  0  0  0  0  0  0  0  0
  176.6270   22.3520   48.2680 C   0  0  0  0  0  0  0  0  0  0  0  0
  175.3350   22.2160   48.6970 O   0  0  0  0  0  0  0  0  0  0  0  0
  177.3120   21.3480   47.5790 C   0  0  0  0  0  0  0  0  0  0  0  0
  176.0640   17.6440   46.6040 H   0  0  0  0  0  0  0  0  0  0  0  0
  180.8817   20.0346   44.5963 H   0  0  0  0  0  0  0  0  0  0  0  0
  182.3488   18.4695   43.3445 H   0  0  0  0  0  0  0  0  0  0  0  0
  183.2051   16.2730   43.1054 H   0  0  0  0  0  0  0  0  0  0  0  0
  182.3451   14.8393   43.8387 H   0  0  0  0  0  0  0  0  0  0  0  0
  178.6278   16.6955   46.1423 H   0  0  0  0  0  0  0  0  0  0  0  0
  180.3007   22.9290   47.1241 H   0  0  0  0  0  0  0  0  0  0  0  0
  179.0767   24.7240   48.3558 H   0  0  0  0  0  0  0  0  0  0  0  0
  176.7186   24.3518   49.0880 H   0  0  0  0  0  0  0  0  0  0  0  0
  175.0230   22.7330   49.4140 H   0  0  0  0  0  0  0  0  0  0  0  0
  1  2  2  0
  2  3  1  0
  3  4  1  0
  3  5  2  0
  5  6  1  0
  6  7  2  0
  7  8  1  0
  8  9  2  0
  9 10  1  0
 10 11  1  0
  9 12  1  0
 12 13  1  0
 13 14  1  0
 13 15  1  0
 13 16  1  0
 12 17  2  0
  5 18  1  0
 18 19  1  0
 19 20  2  0
 20 21  1  0
 21 22  2  0
 22 23  1  0
 23 24  1  0
 23 25  2  0
 25  2  1  0
 17  6  1  0
 25 19  1  0
  4 26  1  0
  7 27  1  0
  8 28  1  0
 10 29  1  0
 10 30  1  0
 17 31  1  0
 20 32  1  0
 21 33  1  0
 22 34  1  0
 24 35  1  0
M  END
>  <meeko>  (3) 
{"is_sidechain": [false], "free_energy": -7.203, "intermolecular_energy": -9.216, "internal_energy": 0.059}

$$$$
cand_010_out
     RDKit          3D

 35 37  0  0  0  0  0  0  0  0999 V2000
  182.3860   18.4810   43.8780 O   0  0  0  0  0  0  0  0  0  0  0  0
  181.3580   18.1320   44.4550 C   0  0  0  0  0  0  0  0  0  0  0  0
  180.5170   19.1270   45.1580 C   0  0  0  0  0  0  0  0  0  0  0  0
  180.9330   20.4460   45.1190 O   0  0  0  0  0  0  0  0  0  0  0  0
  179.3980   18.7030   45.7750 C   0  0  0  0  0  0  0  0  0  0  0  0
  178.4790   19.6090   46.4960 C   0  0  0  0  0  0  0  0  0  0  0  0
  177.2140   19.1900   46.9190 C   0  0  0  0  0  0  0  0  0  0  0  0
  176.3500   20.0710   47.5760 C   0  0  0  0  0  0  0  0  0  0  0  0
  176.7260   21.4000   47.8210 C   0  0  0  0  0  0  0  0  0  0  0  0
  175.7670   22.3190   48.5410 C   0  0  0  0  0  0  0  0  0  0  0  0
  174.4560   22.0000   48.3350 F   0  0  0  0  0  0  0  0  0  0  0  0
  177.9990   21.8420   47.3990 C   0  0  0  0  0  0  0  0  0  0  0  0
  178.4550   23.2640   47.6340 C   0  0  0  0  0  0  0  0  0  0  0  0
  178.7190   23.5510   48.9390 F   0  0  0  0  0  0  0  0  0  0  0  0
  179.5930   23.5610   46.9490 F   0  0  0  0  0  0  0  0  0  0  0  0
  177.5300   24.1790   47.2320 F   0  0  0  0  0  0  0  0  0  0  0  0
  178.8550   20.9390   46.7340 C   0  0  0  0  0  0  0  0  0  0  0  0
  178.9710   17.3800   45.7840 O   0  0  0  0  0  0  0  0  0  0  0  0
  179.7340   16.4340   45.1490 C   0  0  0  0  0  0  0  0  0  0  0  0
  179.2770   15.1160   45.1950 C   0  0  0  0  0  0  0  0  0  0  0  0
  180.0050   14.1040   44.5670 C   0  0  0  0  0  0  0  0  0  0  0  0
  181.1900   14.4080   43.8950 C   0  0  0  0  0  0  0  0  0  0  0  0
  181.6450   15.7230   43.8500 C   0  0  0  0  0  0  0  0  0  0  0  0
  182.8120   15.9510   43.1730 O   0  0  0  0  0  0  0  0  0  0  0  0
  180.9160   16.7370   44.4780 C   0  0  0  0  0  0  0  0  0  0  0  0
  180.4890   21.0920   45.6320 H   0  0  0  0  0  0  0  0  0  0  0  0
  176.8946   18.1541   46.7325 H   0  0  0  0  0  0  0  0  0  0  0  0
  175.3619   19.7172   47.9053 H   0  0  0  0  0  0  0  0  0  0  0  0
  175.9743   22.2640   49.6199 H   0  0  0  0  0  0  0  0  0  0  0  0
  175.9228   23.3314   48.1400 H   0  0  0  0  0  0  0  0  0  0  0  0
  179.8416   21.2867   46.3938 H   0  0  0  0  0  0  0  0  0  0  0  0
  178.3441   14.8750   45.7256 H   0  0  0  0  0  0  0  0  0  0  0  0
  179.6443   13.0654   44.6018 H   0  0  0  0  0  0  0  0  0  0  0  0
  181.7637   13.6096   43.4016 H   0  0  0  0  0  0  0  0  0  0  0  0
  182.8140   16.5090   42.4200 H   0  0  0  0  0  0  0  0  0  0  0  0
  1  2  2  0
  2  3  1  0
  3  4  1  0
  3  5  2  0
  5  6  1  0
  6  7  2  0
  7  8  1  0
  8  9  2  0
  9 10  1  0
 10 11  1  0
  9 12  1  0
 12 13  1  0
 13 14  1  0
 13 15  1  0
 13 16  1  0
 12 17  2  0
  5 18  1  0
 18 19  1  0
 19 20  2  0
 20 21  1  0
 21 22  2  0
 22 23  1  0
 23 24  1  0
 23 25  2  0
 25  2  1  0
 17  6  1  0
 25 19  1  0
  4 26  1  0
  7 27  1  0
  8 28  1  0
 10 29  1  0
 10 30  1  0
 17 31  1  0
 20 32  1  0
 21 33  1  0
 22 34  1  0
 24 35  1  0
M  END
>  <meeko>  (4) 
{"is_sidechain": [false], "free_energy": -7.044, "intermolecular_energy": -9.271, "internal_energy": 0.312}

$$$$
cand_010_out
     RDKit          3D

 35 37  0  0  0  0  0  0  0  0999 V2000
  181.5780   21.5820   46.6920 O   0  0  0  0  0  0  0  0  0  0  0  0
  180.7310   20.7110   46.5000 C   0  0  0  0  0  0  0  0  0  0  0  0
  181.0480   19.5250   45.6710 C   0  0  0  0  0  0  0  0  0  0  0  0
  182.3260   19.4440   45.1480 O   0  0  0  0  0  0  0  0  0  0  0  0
  180.0930   18.5950   45.4900 C   0  0  0  0  0  0  0  0  0  0  0  0
  180.3010   17.3670   44.6920 C   0  0  0  0  0  0  0  0  0  0  0  0
  180.2540   16.0960   45.2720 C   0  0  0  0  0  0  0  0  0  0  0  0
  180.4800   14.9500   44.5040 C   0  0  0  0  0  0  0  0  0  0  0  0
  180.7700   15.0450   43.1350 C   0  0  0  0  0  0  0  0  0  0  0  0
  181.0010   13.7820   42.3380 C   0  0  0  0  0  0  0  0  0  0  0  0
  182.2680   13.6820   41.8400 F   0  0  0  0  0  0  0  0  0  0  0  0
  180.8250   16.3220   42.5320 C   0  0  0  0  0  0  0  0  0  0  0  0
  181.1350   16.4830   41.0620 C   0  0  0  0  0  0  0  0  0  0  0  0
  181.2340   17.7800   40.6580 F   0  0  0  0  0  0  0  0  0  0  0  0
  182.3130   15.8950   40.7150 F   0  0  0  0  0  0  0  0  0  0  0  0
  180.1880   15.9170   40.2650 F   0  0  0  0  0  0  0  0  0  0  0  0
  180.5970   17.4660   43.3240 C   0  0  0  0  0  0  0  0  0  0  0  0
  178.8210   18.6700   46.0450 O   0  0  0  0  0  0  0  0  0  0  0  0
  178.4950   19.7600   46.8100 C   0  0  0  0  0  0  0  0  0  0  0  0
  177.2030   19.8020   47.3350 C   0  0  0  0  0  0  0  0  0  0  0  0
  176.8070   20.8840   48.1240 C   0  0  0  0  0  0  0  0  0  0  0  0
  177.7020   21.9230   48.3870 C   0  0  0  0  0  0  0  0  0  0  0  0
  178.9900   21.8800   47.8610 C   0  0  0  0  0  0  0  0  0  0  0  0
  179.8160   22.9290   48.1600 O   0  0  0  0  0  0  0  0  0  0  0  0
  179.3870   20.7970   47.0720 C   0  0  0  0  0  0  0  0  0  0  0  0
  183.0640   19.6770   45.6770 H   0  0  0  0  0  0  0  0  0  0  0  0
  180.0366   15.9964   46.3457 H   0  0  0  0  0  0  0  0  0  0  0  0
  180.4297   13.9596   44.9801 H   0  0  0  0  0  0  0  0  0  0  0  0
  180.8136   12.9174   42.9917 H   0  0  0  0  0  0  0  0  0  0  0  0
  180.3144   13.8086   41.4790 H   0  0  0  0  0  0  0  0  0  0  0  0
  180.6526   18.4608   42.8579 H   0  0  0  0  0  0  0  0  0  0  0  0
  176.4974   18.9840   47.1277 H   0  0  0  0  0  0  0  0  0  0  0  0
  175.7888   20.9178   48.5388 H   0  0  0  0  0  0  0  0  0  0  0  0
  177.3895   22.7746   49.0092 H   0  0  0  0  0  0  0  0  0  0  0  0
  180.6510   22.7710   48.5540 H   0  0  0  0  0  0  0  0  0  0  0  0
  1  2  2  0
  2  3  1  0
  3  4  1  0
  3  5  2  0
  5  6  1  0
  6  7  2  0
  7  8  1  0
  8  9  2  0
  9 10  1  0
 10 11  1  0
  9 12  1  0
 12 13  1  0
 13 14  1  0
 13 15  1  0
 13 16  1  0
 12 17  2  0
  5 18  1  0
 18 19  1  0
 19 20  2  0
 20 21  1  0
 21 22  2  0
 22 23  1  0
 23 24  1  0
 23 25  2  0
 25  2  1  0
 17  6  1  0
 25 19  1  0
  4 26  1  0
  7 27  1  0
  8 28  1  0
 10 29  1  0
 10 30  1  0
 17 31  1  0
 20 32  1  0
 21 33  1  0
 22 34  1  0
 24 35  1  0
M  END
>  <meeko>  (5) 
{"is_sidechain": [false], "free_energy": -6.128, "intermolecular_energy": -7.764, "internal_energy": -0.066}

$$$$
cand_010_out
     RDKit          3D

 35 37  0  0  0  0  0  0  0  0999 V2000
  182.8610   20.7600   45.1680 O   0  0  0  0  0  0  0  0  0  0  0  0
  181.7640   20.2880   45.4640 C   0  0  0  0  0  0  0  0  0  0  0  0
  180.8030   21.0730   46.2720 C   0  0  0  0  0  0  0  0  0  0  0  0
  181.1910   22.3440   46.6550 O   0  0  0  0  0  0  0  0  0  0  0  0
  179.6130   20.5200   46.5710 C   0  0  0  0  0  0  0  0  0  0  0  0
  178.5740   21.2150   47.3600 C   0  0  0  0  0  0  0  0  0  0  0  0
  178.7070   22.5560   47.7330 C   0  0  0  0  0  0  0  0  0  0  0  0
  177.7250   23.1860   48.5030 C   0  0  0  0  0  0  0  0  0  0  0  0
  176.5850   22.4880   48.9290 C   0  0  0  0  0  0  0  0  0  0  0  0
  175.5420   23.2070   49.7530 C   0  0  0  0  0  0  0  0  0  0  0  0
  174.9350   24.2280   49.0830 F   0  0  0  0  0  0  0  0  0  0  0  0
  176.4340   21.1320   48.5640 C   0  0  0  0  0  0  0  0  0  0  0  0
  175.2280   20.3300   48.9970 C   0  0  0  0  0  0  0  0  0  0  0  0
  175.0900   20.2270   50.3490 F   0  0  0  0  0  0  0  0  0  0  0  0
  174.0610   20.8680   48.5450 F   0  0  0  0  0  0  0  0  0  0  0  0
  175.2550   19.0530   48.5270 F   0  0  0  0  0  0  0  0  0  0  0  0
  177.4380   20.5120   47.7900 C   0  0  0  0  0  0  0  0  0  0  0  0
  179.2200   19.2530   46.1550 O   0  0  0  0  0  0  0  0  0  0  0  0
  180.0920   18.4990   45.4130 C   0  0  0  0  0  0  0  0  0  0  0  0
  179.6630   17.2280   45.0300 C   0  0  0  0  0  0  0  0  0  0  0  0
  180.5020   16.4090   44.2710 C   0  0  0  0  0  0  0  0  0  0  0  0
  181.7690   16.8600   43.8970 C   0  0  0  0  0  0  0  0  0  0  0  0
  182.1950   18.1290   44.2810 C   0  0  0  0  0  0  0  0  0  0  0  0
  183.4470   18.5080   43.8790 O   0  0  0  0  0  0  0  0  0  0  0  0
  181.3560   18.9480   45.0400 C   0  0  0  0  0  0  0  0  0  0  0  0
  180.5640   23.0410   46.6650 H   0  0  0  0  0  0  0  0  0  0  0  0
  179.5954   23.1223   47.4166 H   0  0  0  0  0  0  0  0  0  0  0  0
  177.8478   24.2438   48.7787 H   0  0  0  0  0  0  0  0  0  0  0  0
  174.7727   22.4805   50.0535 H   0  0  0  0  0  0  0  0  0  0  0  0
  176.0576   23.6469   50.6194 H   0  0  0  0  0  0  0  0  0  0  0  0
  177.3275   19.4521   47.5171 H   0  0  0  0  0  0  0  0  0  0  0  0
  178.6652   16.8713   45.3254 H   0  0  0  0  0  0  0  0  0  0  0  0
  180.1639   15.4072   43.9675 H   0  0  0  0  0  0  0  0  0  0  0  0
  182.4297   16.2142   43.3000 H   0  0  0  0  0  0  0  0  0  0  0  0
  184.1860   18.3440   44.4320 H   0  0  0  0  0  0  0  0  0  0  0  0
  1  2  2  0
  2  3  1  0
  3  4  1  0
  3  5  2  0
  5  6  1  0
  6  7  2  0
  7  8  1  0
  8  9  2  0
  9 10  1  0
 10 11  1  0
  9 12  1  0
 12 13  1  0
 13 14  1  0
 13 15  1  0
 13 16  1  0
 12 17  2  0
  5 18  1  0
 18 19  1  0
 19 20  2  0
 20 21  1  0
 21 22  2  0
 22 23  1  0
 23 24  1  0
 23 25  2  0
 25  2  1  0
 17  6  1  0
 25 19  1  0
  4 26  1  0
  7 27  1  0
  8 28  1  0
 10 29  1  0
 10 30  1  0
 17 31  1  0
 20 32  1  0
 21 33  1  0
 22 34  1  0
 24 35  1  0
M  END
>  <meeko>  (6) 
{"is_sidechain": [false], "free_energy": -5.886, "intermolecular_energy": -7.689, "internal_energy": 0.159}

$$$$
cand_010_out
     RDKit          3D

 35 37  0  0  0  0  0  0  0  0999 V2000
  180.5660   13.8810   44.0160 O   0  0  0  0  0  0  0  0  0  0  0  0
  180.6240   15.0770   43.7360 C   0  0  0  0  0  0  0  0  0  0  0  0
  180.3560   16.1040   44.7690 C   0  0  0  0  0  0  0  0  0  0  0  0
  180.0580   15.6540   46.0430 O   0  0  0  0  0  0  0  0  0  0  0  0
  180.4330   17.4010   44.4210 C   0  0  0  0  0  0  0  0  0  0  0  0
  180.1960   18.5090   45.3720 C   0  0  0  0  0  0  0  0  0  0  0  0
  181.2490   19.2560   45.9080 C   0  0  0  0  0  0  0  0  0  0  0  0
  181.0050   20.2820   46.8250 C   0  0  0  0  0  0  0  0  0  0  0  0
  179.6990   20.5830   47.2400 C   0  0  0  0  0  0  0  0  0  0  0  0
  179.4760   21.7040   48.2280 C   0  0  0  0  0  0  0  0  0  0  0  0
  179.1670   22.8930   47.6340 F   0  0  0  0  0  0  0  0  0  0  0  0
  178.6230   19.8370   46.7110 C   0  0  0  0  0  0  0  0  0  0  0  0
  177.1950   20.1160   47.1240 C   0  0  0  0  0  0  0  0  0  0  0  0
  176.9890   20.0610   48.4690 F   0  0  0  0  0  0  0  0  0  0  0  0
  176.7770   21.3510   46.7340 F   0  0  0  0  0  0  0  0  0  0  0  0
  176.3130   19.2350   46.5760 F   0  0  0  0  0  0  0  0  0  0  0  0
  178.8890   18.8040   45.7880 C   0  0  0  0  0  0  0  0  0  0  0  0
  180.7620   17.8450   43.1450 O   0  0  0  0  0  0  0  0  0  0  0  0
  181.0070   16.9170   42.1650 C   0  0  0  0  0  0  0  0  0  0  0  0
  181.3200   17.4060   40.8960 C   0  0  0  0  0  0  0  0  0  0  0  0
  181.5820   16.5150   39.8530 C   0  0  0  0  0  0  0  0  0  0  0  0
  181.5310   15.1380   40.0780 C   0  0  0  0  0  0  0  0  0  0  0  0
  181.2180   14.6530   41.3450 C   0  0  0  0  0  0  0  0  0  0  0  0
  181.1870   13.2940   41.4970 O   0  0  0  0  0  0  0  0  0  0  0  0
  180.9560   15.5440   42.3890 C   0  0  0  0  0  0  0  0  0  0  0  0
  179.2700   15.1700   46.1960 H   0  0  0  0  0  0  0  0  0  0  0  0
  182.2825   19.0335   45.6042 H   0  0  0  0  0  0  0  0  0  0  0  0
  181.8489   20.8618   47.2271 H   0  0  0  0  0  0  0  0  0  0  0  0
  178.6486   21.4217   48.8956 H   0  0  0  0  0  0  0  0  0  0  0  0
  180.4191   21.8485   48.7754 H   0  0  0  0  0  0  0  0  0  0  0  0
  178.0516   18.2156   45.3847 H   0  0  0  0  0  0  0  0  0  0  0  0
  181.3603   18.4907   40.7177 H   0  0  0  0  0  0  0  0  0  0  0  0
  181.8290   16.8989   38.8522 H   0  0  0  0  0  0  0  0  0  0  0  0
  181.7378   14.4374   39.2556 H   0  0  0  0  0  0  0  0  0  0  0  0
  180.7790   12.7600   40.8440 H   0  0  0  0  0  0  0  0  0  0  0  0
  1  2  2  0
  2  3  1  0
  3  4  1  0
  3  5  2  0
  5  6  1  0
  6  7  2  0
  7  8  1  0
  8  9  2  0
  9 10  1  0
 10 11  1  0
  9 12  1  0
 12 13  1  0
 13 14  1  0
 13 15  1  0
 13 16  1  0
 12 17  2  0
  5 18  1  0
 18 19  1  0
 19 20  2  0
 20 21  1  0
 21 22  2  0
 22 23  1  0
 23 24  1  0
 23 25  2  0
 25  2  1  0
 17  6  1  0
 25 19  1  0
  4 26  1  0
  7 27  1  0
  8 28  1  0
 10 29  1  0
 10 30  1  0
 17 31  1  0
 20 32  1  0
 21 33  1  0
 22 34  1  0
 24 35  1  0
M  END
>  <meeko>  (7) 
{"is_sidechain": [false], "free_energy": -5.869, "intermolecular_energy": -7.007, "internal_energy": -0.503}

$$$$
