cand_019_out
     RDKit          3D

 35 37  0  0  0  0  0  0  0  0999 V2000
  180.7590   22.1080   48.3430 O   0  0  0  0  0  0  0  0  0  0  0  0
  180.0590   21.3360   47.6920 C   0  0  0  0  0  0  0  0  0  0  0  0
  180.6780   20.2750   46.8640 C   0  0  0  0  0  0  0  0  0  0  0  0
  182.0600   20.2140   46.8520 O   0  0  0  0  0  0  0  0  0  0  0  0
  179.8740   19.4530   46.1660 C   0  0  0  0  0  0  0  0  0  0  0  0
  180.3820   18.3690   45.2970 C   0  0  0  0  0  0  0  0  0  0  0  0
  181.3630   18.5990   44.3280 C   0  0  0  0  0  0  0  0  0  0  0  0
  181.8440   17.5550   43.5340 C   0  0  0  0  0  0  0  0  0  0  0  0
  181.3560   16.2490   43.6900 C   0  0  0  0  0  0  0  0  0  0  0  0
  181.9020   15.1440   42.8220 C   0  0  0  0  0  0  0  0  0  0  0  0
  181.1860   14.9820   41.6740 F   0  0  0  0  0  0  0  0  0  0  0  0
  180.3850   15.9930   44.6810 C   0  0  0  0  0  0  0  0  0  0  0  0
  179.8420   14.5990   44.9080 C   0  0  0  0  0  0  0  0  0  0  0  0
  179.3970   14.0210   43.7570 F   0  0  0  0  0  0  0  0  0  0  0  0
  180.7760   13.7340   45.4040 F   0  0  0  0  0  0  0  0  0  0  0  0
  179.9080   17.0590   45.4680 C   0  0  0  0  0  0  0  0  0  0  0  0
  178.4870   19.5420   46.1630 O   0  0  0  0  0  0  0  0  0  0  0  0
  177.8840   20.5100   46.9260 C   0  0  0  0  0  0  0  0  0  0  0  0
  176.4890   20.5570   46.9020 C   0  0  0  0  0  0  0  0  0  0  0  0
  175.8120   21.5190   47.6550 C   0  0  0  0  0  0  0  0  0  0  0  0
  176.5290   22.4330   48.4310 C   0  0  0  0  0  0  0  0  0  0  0  0
  177.9210   22.3840   48.4520 C   0  0  0  0  0  0  0  0  0  0  0  0
  178.5590   23.3080   49.2320 O   0  0  0  0  0  0  0  0  0  0  0  0
  178.5970   21.4210   47.6990 C   0  0  0  0  0  0  0  0  0  0  0  0
  182.5230   20.2330   46.0370 H   0  0  0  0  0  0  0  0  0  0  0  0
  181.7613   19.6149   44.1889 H   0  0  0  0  0  0  0  0  0  0  0  0
  182.6152   17.7596   42.7768 H   0  0  0  0  0  0  0  0  0  0  0  0
  182.9426   15.3838   42.5582 H   0  0  0  0  0  0  0  0  0  0  0  0
  181.8362   14.2061   43.3929 H   0  0  0  0  0  0  0  0  0  0  0  0
  179.0254   14.7542   45.6285 H   0  0  0  0  0  0  0  0  0  0  0  0
  179.1454   16.8601   46.2354 H   0  0  0  0  0  0  0  0  0  0  0  0
  175.9239   19.8376   46.2911 H   0  0  0  0  0  0  0  0  0  0  0  0
  174.7128   21.5570   47.6370 H   0  0  0  0  0  0  0  0  0  0  0  0
  175.9953   23.1900   49.0244 H   0  0  0  0  0  0  0  0  0  0  0  0
  178.2850   24.2040   49.2160 H   0  0  0  0  0  0  0  0  0  0  0  0
  1  2  2  0
  2  3  1  0
  3  4  1  0
  3  5  2  0
  5  6  1  0
  6  7  2  0
  7  8  1  0
  8  9  2  0
  9 10  1  0
 10 11  1  0
  9 12  1  0
 12 13  1  0
 13 14  1  0
 13 15  1  0
 12 16  2  0
  5 17  1  0
 17 18  1  0
 18 19  2  0
 19 20  1  0
 20 21  2  0
 21 22  1  0
 22 23  1  0
 22 24  2  0
 24  2  1  0
 16  6  1  0
 24 18  1  0
  4 25  1  0
  7 26  1  0
  8 27  1  0
 10 28  1  0
 10 29  1  0
 13 30  1  0
 16 31  1  0
 19 32  1  0
 20 33  1  0
 21 34  1  0
 23 35  1  0
M  END
>  <meeko>  (1) 
{"is_sidechain": [false], "free_energy": -8.605, "intermolecular_energy": -10.618, "internal_energy": -0.149}

$$$$
cand_019_out
     RDKit          3D

 35 37  0  0  0  0  0  0  0  0999 V2000
  182.5310   18.3510   43.6990 O   0  0  0  0  0  0  0  0  0  0  0  0
  181.5250   18.0600   44.3420 C   0  0  0  0  0  0  0  0  0  0  0  0
  180.8210   19.0880   45.1440 C   0  0  0  0  0  0  0  0  0  0  0  0
  181.3570   20.3630   45.1410 O   0  0  0  0  0  0  0  0  0  0  0  0
  179.7240   18.7250   45.8330 C   0  0  0  0  0  0  0  0  0  0  0  0
  178.9500   19.6620   46.6760 C   0  0  0  0  0  0  0  0  0  0  0  0
  179.5740   20.6590   47.4340 C   0  0  0  0  0  0  0  0  0  0  0  0
  178.8200   21.5480   48.2050 C   0  0  0  0  0  0  0  0  0  0  0  0
  177.4210   21.4650   48.2370 C   0  0  0  0  0  0  0  0  0  0  0  0
  176.6380   22.4450   49.0730 C   0  0  0  0  0  0  0  0  0  0  0  0
  176.3450   23.5900   48.3950 F   0  0  0  0  0  0  0  0  0  0  0  0
  176.7730   20.4830   47.4570 C   0  0  0  0  0  0  0  0  0  0  0  0
  175.2640   20.3640   47.4360 C   0  0  0  0  0  0  0  0  0  0  0  0
  174.6850   21.2630   46.5920 F   0  0  0  0  0  0  0  0  0  0  0  0
  174.8290   19.1420   47.0120 F   0  0  0  0  0  0  0  0  0  0  0  0
  177.5490   19.5920   46.6910 C   0  0  0  0  0  0  0  0  0  0  0  0
  179.2110   17.4330   45.8510 O   0  0  0  0  0  0  0  0  0  0  0  0
  179.8370   16.4610   45.1130 C   0  0  0  0  0  0  0  0  0  0  0  0
  179.2820   15.1810   45.1510 C   0  0  0  0  0  0  0  0  0  0  0  0
  179.8710   14.1450   44.4230 C   0  0  0  0  0  0  0  0  0  0  0  0
  181.0140   14.3880   43.6590 C   0  0  0  0  0  0  0  0  0  0  0  0
  181.5660   15.6660   43.6230 C   0  0  0  0  0  0  0  0  0  0  0  0
  182.6850   15.8340   42.8550 O   0  0  0  0  0  0  0  0  0  0  0  0
  180.9760   16.7020   44.3510 C   0  0  0  0  0  0  0  0  0  0  0  0
  181.9400   20.6270   45.8250 H   0  0  0  0  0  0  0  0  0  0  0  0
  180.6707   20.7440   47.4229 H   0  0  0  0  0  0  0  0  0  0  0  0
  179.3312   22.3232   48.7946 H   0  0  0  0  0  0  0  0  0  0  0  0
  175.6968   21.9692   49.3857 H   0  0  0  0  0  0  0  0  0  0  0  0
  177.2594   22.7181   49.9386 H   0  0  0  0  0  0  0  0  0  0  0  0
  174.9752   20.5432   48.4822 H   0  0  0  0  0  0  0  0  0  0  0  0
  177.0440   18.8219   46.0894 H   0  0  0  0  0  0  0  0  0  0  0  0
  178.3820   14.9885   45.7535 H   0  0  0  0  0  0  0  0  0  0  0  0
  179.4338   13.1360   44.4516 H   0  0  0  0  0  0  0  0  0  0  0  0
  181.4778   13.5713   43.0864 H   0  0  0  0  0  0  0  0  0  0  0  0
  182.6560   16.3860   42.0990 H   0  0  0  0  0  0  0  0  0  0  0  0
  1  2  2  0
  2  3  1  0
  3  4  1  0
  3  5  2  0
  5  6  1  0
  6  7  2  0
  7  8  1  0
  8  9  2  0
  9 10  1  0
 10 11  1  0
  9 12  1  0
 12 13  1  0
 13 14  1  0
 13 15  1  0
 12 16  2  0
  5 17  1  0
 17 18  1  0
 18 19  2  0
 19 20  1  0
 20 21  2  0
 21 22  1  0
 22 23  1  0
 22 24  2  0
 24  2  1  0
 16  6  1  0
 24 18  1  0
  4 25  1  0
  7 26  1  0
  8 27  1  0
 10 28  1  0
 10 29  1  0
 13 30  1  0
 16 31  1  0
 19 32  1  0
 20 33  1  0
 21 34  1  0
 23 35  1  0
M  END
>  <meeko>  (2) 
{"is_sidechain": [false], "free_energy": -7.72, "intermolecular_energy": -9.424, "internal_energy": -0.251}

$$$$
cand_019_out
     RDKit          3D

 35 37  0  0  0  0  0  0  0  0999 V2000
  175.2540   19.8980   47.6240 O   0  0  0  0  0  0  0  0  0  0  0  0
  176.4270   20.1290   47.3390 C   0  0  0  0  0  0  0  0  0  0  0  0
  177.2240   19.1410   46.5760 C   0  0  0  0  0  0  0  0  0  0  0  0
  176.5930   17.9620   46.2230 O   0  0  0  0  0  0  0  0  0  0  0  0
  178.5050   19.4340   46.2870 C   0  0  0  0  0  0  0  0  0  0  0  0
  179.3970   18.5190   45.5420 C   0  0  0  0  0  0  0  0  0  0  0  0
  180.4550   18.9960   44.7610 C   0  0  0  0  0  0  0  0  0  0  0  0
  181.3000   18.1110   44.0850 C   0  0  0  0  0  0  0  0  0  0  0  0
  181.1100   16.7250   44.1740 C   0  0  0  0  0  0  0  0  0  0  0  0
  182.0440   15.7980   43.4380 C   0  0  0  0  0  0  0  0  0  0  0  0
  181.5220   15.3650   42.2560 F   0  0  0  0  0  0  0  0  0  0  0  0
  180.0640   16.2250   44.9800 C   0  0  0  0  0  0  0  0  0  0  0  0
  179.8300   14.7380   45.1310 C   0  0  0  0  0  0  0  0  0  0  0  0
  179.4350   14.1540   43.9640 F   0  0  0  0  0  0  0  0  0  0  0  0
  180.9490   14.0550   45.5120 F   0  0  0  0  0  0  0  0  0  0  0  0
  179.2200   17.1310   45.6490 C   0  0  0  0  0  0  0  0  0  0  0  0
  179.1370   20.6110   46.6700 O   0  0  0  0  0  0  0  0  0  0  0  0
  178.4230   21.5490   47.3730 C   0  0  0  0  0  0  0  0  0  0  0  0
  179.0930   22.7200   47.7290 C   0  0  0  0  0  0  0  0  0  0  0  0
  178.4250   23.7150   48.4460 C   0  0  0  0  0  0  0  0  0  0  0  0
  177.0870   23.5390   48.8060 C   0  0  0  0  0  0  0  0  0  0  0  0
  176.4210   22.3690   48.4490 C   0  0  0  0  0  0  0  0  0  0  0  0
  175.1120   22.2620   48.8350 O   0  0  0  0  0  0  0  0  0  0  0  0
  177.0900   21.3740   47.7330 C   0  0  0  0  0  0  0  0  0  0  0  0
  176.9420   17.1400   46.5090 H   0  0  0  0  0  0  0  0  0  0  0  0
  180.6240   20.0798   44.6779 H   0  0  0  0  0  0  0  0  0  0  0  0
  182.1251   18.5075   43.4751 H   0  0  0  0  0  0  0  0  0  0  0  0
  182.9839   16.3321   43.2345 H   0  0  0  0  0  0  0  0  0  0  0  0
  182.2109   14.9161   44.0739 H   0  0  0  0  0  0  0  0  0  0  0  0
  179.0489   14.6760   45.9030 H   0  0  0  0  0  0  0  0  0  0  0  0
  178.4010   16.7413   46.2714 H   0  0  0  0  0  0  0  0  0  0  0  0
  180.1466   22.8593   47.4451 H   0  0  0  0  0  0  0  0  0  0  0  0
  178.9530   24.6380   48.7274 H   0  0  0  0  0  0  0  0  0  0  0  0
  176.5604   24.3227   49.3703 H   0  0  0  0  0  0  0  0  0  0  0  0
  174.4270   22.4660   48.2290 H   0  0  0  0  0  0  0  0  0  0  0  0
  1  2  2  0
  2  3  1  0
  3  4  1  0
  3  5  2  0
  5  6  1  0
  6  7  2  0
  7  8  1  0
  8  9  2  0
  9 10  1  0
 10 11  1  0
  9 12  1  0
 12 13  1  0
 13 14  1  0
 13 15  1  0
 12 16  2  0
  5 17  1  0
 17 18  1  0
 18 19  2  0
 19 20  1  0
 20 21  2  0
 21 22  1  0
 22 23  1  0
 22 24  2  0
 24  2  1  0
 16  6  1  0
 24 18  1  0
  4 25  1  0
  7 26  1  0
  8 27  1  0
 10 28  1  0
 10 29  1  0
 13 30  1  0
 16 31  1  0
 19 32  1  0
 20 33  1  0
 21 34  1  0
 23 35  1  0
M  END
>  <meeko>  (3) 
{"is_sidechain": [false], "free_energy": -7.137, "intermolecular_energy": -9.05, "internal_energy": 0.095}

$$$$
cand_019_out
     RDKit          3D

 35 37  0  0  0  0  0  0  0  0999 V2000
  182.3090   18.4740   43.8840 O   0  0  0  0  0  0  0  0  0  0  0  0
  181.2820   18.1170   44.4550 C   0  0  0  0  0  0  0  0  0  0  0  0
  180.4200   19.1060   45.1420 C   0  0  0  0  0  0  0  0  0  0  0  0
  180.8360   20.4250   45.1210 O   0  0  0  0  0  0  0  0  0  0  0  0
  179.3050   18.6700   45.7560 C   0  0  0  0  0  0  0  0  0  0  0  0
  178.3780   19.5640   46.4840 C   0  0  0  0  0  0  0  0  0  0  0  0
  177.0470   19.2090   46.7220 C   0  0  0  0  0  0  0  0  0  0  0  0
  176.1950   20.0600   47.4320 C   0  0  0  0  0  0  0  0  0  0  0  0
  176.6550   21.2900   47.9250 C   0  0  0  0  0  0  0  0  0  0  0  0
  175.7120   22.1810   48.6930 C   0  0  0  0  0  0  0  0  0  0  0  0
  174.4040   21.9120   48.4200 F   0  0  0  0  0  0  0  0  0  0  0  0
  178.0030   21.6530   47.7170 C   0  0  0  0  0  0  0  0  0  0  0  0
  178.5560   22.9570   48.2470 C   0  0  0  0  0  0  0  0  0  0  0  0
  179.8940   22.8900   48.4990 F   0  0  0  0  0  0  0  0  0  0  0  0
  178.4080   23.9970   47.3740 F   0  0  0  0  0  0  0  0  0  0  0  0
  178.8440   20.7850   46.9940 C   0  0  0  0  0  0  0  0  0  0  0  0
  178.9110   17.3380   45.7950 O   0  0  0  0  0  0  0  0  0  0  0  0
  179.6850   16.3990   45.1610 C   0  0  0  0  0  0  0  0  0  0  0  0
  179.2470   15.0750   45.2160 C   0  0  0  0  0  0  0  0  0  0  0  0
  179.9890   14.0690   44.5920 C   0  0  0  0  0  0  0  0  0  0  0  0
  181.1680   14.3870   43.9150 C   0  0  0  0  0  0  0  0  0  0  0  0
  181.6020   15.7100   43.8620 C   0  0  0  0  0  0  0  0  0  0  0  0
  182.7650   15.9500   43.1820 O   0  0  0  0  0  0  0  0  0  0  0  0
  180.8600   16.7140   44.4850 C   0  0  0  0  0  0  0  0  0  0  0  0
  180.6110   20.9980   45.8270 H   0  0  0  0  0  0  0  0  0  0  0  0
  176.6654   18.2483   46.3460 H   0  0  0  0  0  0  0  0  0  0  0  0
  175.1508   19.7613   47.6063 H   0  0  0  0  0  0  0  0  0  0  0  0
  175.8855   22.0345   49.7693 H   0  0  0  0  0  0  0  0  0  0  0  0
  175.9109   23.2196   48.3901 H   0  0  0  0  0  0  0  0  0  0  0  0
  177.9764   23.1283   49.1661 H   0  0  0  0  0  0  0  0  0  0  0  0
  179.8925   21.0716   46.8250 H   0  0  0  0  0  0  0  0  0  0  0  0
  178.3187   14.8238   45.7500 H   0  0  0  0  0  0  0  0  0  0  0  0
  179.6440   13.0254   44.6341 H   0  0  0  0  0  0  0  0  0  0  0  0
  181.7529   13.5949   43.4246 H   0  0  0  0  0  0  0  0  0  0  0  0
  183.3630   16.6010   43.4910 H   0  0  0  0  0  0  0  0  0  0  0  0
  1  2  2  0
  2  3  1  0
  3  4  1  0
  3  5  2  0
  5  6  1  0
  6  7  2  0
  7  8  1  0
  8  9  2  0
  9 10  1  0
 10 11  1  0
  9 12  1  0
 12 13  1  0
 13 14  1  0
 13 15  1  0
 12 16  2  0
  5 17  1  0
 17 18  1  0
 18 19  2  0
 19 20  1  0
 20 21  2  0
 21 22  1  0
 22 23  1  0
 22 24  2  0
 24  2  1  0
 16  6  1  0
 24 18  1  0
  4 25  1  0
  7 26  1  0
  8 27  1  0
 10 28  1  0
 10 29  1  0
 13 30  1  0
 16 31  1  0
 19 32  1  0
 20 33  1  0
 21 34  1  0
 23 35  1  0
M  END
>  <meeko>  (4) 
{"is_sidechain": [false], "free_energy": -6.879, "intermolecular_energy": -8.676, "internal_energy": 0.039}

$$$$
cand_019_out
     RDKit          3D

 35 37  0  0  0  0  0  0  0  0999 V2000
  181.2060   22.1940   46.8180 O   0  0  0  0  0  0  0  0  0  0  0  0
  180.3570   21.3260   46.6310 C   0  0  0  0  0  0  0  0  0  0  0  0
  180.7320   20.0230   46.0330 C   0  0  0  0  0  0  0  0  0  0  0  0
  182.0610   19.8490   45.6910 O   0  0  0  0  0  0  0  0  0  0  0  0
  179.7710   19.1020   45.8450 C   0  0  0  0  0  0  0  0  0  0  0  0
  180.0270   17.7740   45.2460 C   0  0  0  0  0  0  0  0  0  0  0  0
  179.4490   16.6090   45.7610 C   0  0  0  0  0  0  0  0  0  0  0  0
  179.6870   15.3680   45.1640 C   0  0  0  0  0  0  0  0  0  0  0  0
  180.5100   15.2590   44.0340 C   0  0  0  0  0  0  0  0  0  0  0  0
  180.7400   13.9060   43.4110 C   0  0  0  0  0  0  0  0  0  0  0  0
  179.7280   13.0330   43.6760 F   0  0  0  0  0  0  0  0  0  0  0  0
  181.0800   16.4270   43.4840 C   0  0  0  0  0  0  0  0  0  0  0  0
  181.9560   16.3700   42.2520 C   0  0  0  0  0  0  0  0  0  0  0  0
  182.6920   15.2240   42.1910 F   0  0  0  0  0  0  0  0  0  0  0  0
  181.2440   16.4010   41.0870 F   0  0  0  0  0  0  0  0  0  0  0  0
  180.8330   17.6680   44.1020 C   0  0  0  0  0  0  0  0  0  0  0  0
  178.4330   19.2990   46.1680 O   0  0  0  0  0  0  0  0  0  0  0  0
  178.0560   20.4920   46.7280 C   0  0  0  0  0  0  0  0  0  0  0  0
  176.7050   20.6440   47.0460 C   0  0  0  0  0  0  0  0  0  0  0  0
  176.2540   21.8350   47.6190 C   0  0  0  0  0  0  0  0  0  0  0  0
  177.1520   22.8740   47.8730 C   0  0  0  0  0  0  0  0  0  0  0  0
  178.4990   22.7200   47.5540 C   0  0  0  0  0  0  0  0  0  0  0  0
  179.3230   23.7770   47.8300 O   0  0  0  0  0  0  0  0  0  0  0  0
  178.9490   21.5280   46.9820 C   0  0  0  0  0  0  0  0  0  0  0  0
  182.3510   19.0270   45.3460 H   0  0  0  0  0  0  0  0  0  0  0  0
  178.7993   16.6704   46.6465 H   0  0  0  0  0  0  0  0  0  0  0  0
  179.2225   14.4647   45.5862 H   0  0  0  0  0  0  0  0  0  0  0  0
  180.8243   14.0287   42.3211 H   0  0  0  0  0  0  0  0  0  0  0  0
  181.6626   13.4907   43.8426 H   0  0  0  0  0  0  0  0  0  0  0  0
  182.5954   17.2600   42.3471 H   0  0  0  0  0  0  0  0  0  0  0  0
  181.2832   18.5774   43.6773 H   0  0  0  0  0  0  0  0  0  0  0  0
  175.9967   19.8266   46.8454 H   0  0  0  0  0  0  0  0  0  0  0  0
  175.1899   21.9549   47.8706 H   0  0  0  0  0  0  0  0  0  0  0  0
  176.7962   23.8121   48.3241 H   0  0  0  0  0  0  0  0  0  0  0  0
  179.2440   24.5720   47.3410 H   0  0  0  0  0  0  0  0  0  0  0  0
  1  2  2  0
  2  3  1  0
  3  4  1  0
  3  5  2  0
  5  6  1  0
  6  7  2  0
  7  8  1  0
  8  9  2  0
  9 10  1  0
 10 11  1  0
  9 12  1  0
 12 13  1  0
 13 14  1  0
 13 15  1  0
 12 16  2  0
  5 17  1  0
 17 18  1  0
 18 19  2  0
 19 20  1  0
 20 21  2  0
 21 22  1  0
 22 23  1  0
 22 24  2  0
 24  2  1  0
 16  6  1  0
 24 18  1  0
  4 25  1  0
  7 26  1  0
  8 27  1  0
 10 28  1  0
 10 29  1  0
 13 30  1  0
 16 31  1  0
 19 32  1  0
 20 33  1  0
 21 34  1  0
 23 35  1  0
M  END
>  <meeko>  (5) 
{"is_sidechain": [false], "free_energy": -6.378, "intermolecular_energy": -8.273, "internal_energy": 0.255}

$$$$
cand_019_out
     RDKit          3D

 35 37  0  0  0  0  0  0  0  0999 V2000
  182.8410   20.7850   45.1630 O   0  0  0  0  0  0  0  0  0  0  0  0
  181.7390   20.3470   45.4860 C   0  0  0  0  0  0  0  0  0  0  0  0
  180.8100   21.1690   46.2960 C   0  0  0  0  0  0  0  0  0  0  0  0
  181.2500   22.4250   46.6740 O   0  0  0  0  0  0  0  0  0  0  0  0
  179.6150   20.6500   46.6290 C   0  0  0  0  0  0  0  0  0  0  0  0
  178.6150   21.3740   47.4430 C   0  0  0  0  0  0  0  0  0  0  0  0
  178.6790   22.7590   47.6280 C   0  0  0  0  0  0  0  0  0  0  0  0
  177.7090   23.4260   48.3830 C   0  0  0  0  0  0  0  0  0  0  0  0
  176.6480   22.7230   48.9720 C   0  0  0  0  0  0  0  0  0  0  0  0
  175.6160   23.4740   49.7740 C   0  0  0  0  0  0  0  0  0  0  0  0
  174.7980   24.2310   48.9890 F   0  0  0  0  0  0  0  0  0  0  0  0
  176.5530   21.3290   48.7740 C   0  0  0  0  0  0  0  0  0  0  0  0
  175.4160   20.5270   49.3670 C   0  0  0  0  0  0  0  0  0  0  0  0
  174.4030   20.3250   48.4780 F   0  0  0  0  0  0  0  0  0  0  0  0
  175.7940   19.2770   49.7680 F   0  0  0  0  0  0  0  0  0  0  0  0
  177.5420   20.6740   48.0150 C   0  0  0  0  0  0  0  0  0  0  0  0
  179.1950   19.3750   46.2670 O   0  0  0  0  0  0  0  0  0  0  0  0
  180.0300   18.5920   45.5110 C   0  0  0  0  0  0  0  0  0  0  0  0
  179.5650   17.3230   45.1610 C   0  0  0  0  0  0  0  0  0  0  0  0
  180.3660   16.4750   44.3940 C   0  0  0  0  0  0  0  0  0  0  0  0
  181.6310   16.8940   43.9770 C   0  0  0  0  0  0  0  0  0  0  0  0
  182.0930   18.1600   44.3280 C   0  0  0  0  0  0  0  0  0  0  0  0
  183.3400   18.5060   43.8860 O   0  0  0  0  0  0  0  0  0  0  0  0
  181.2910   19.0080   45.0950 C   0  0  0  0  0  0  0  0  0  0  0  0
  181.6720   22.9820   46.0480 H   0  0  0  0  0  0  0  0  0  0  0  0
  179.5021   23.3304   47.1742 H   0  0  0  0  0  0  0  0  0  0  0  0
  177.7791   24.5156   48.5165 H   0  0  0  0  0  0  0  0  0  0  0  0
  175.0020   22.7483   50.3275 H   0  0  0  0  0  0  0  0  0  0  0  0
  176.1496   24.1530   50.4553 H   0  0  0  0  0  0  0  0  0  0  0  0
  175.0906   21.1352   50.2238 H   0  0  0  0  0  0  0  0  0  0  0  0
  177.4715   19.5863   47.8669 H   0  0  0  0  0  0  0  0  0  0  0  0
  178.5687   16.9917   45.4892 H   0  0  0  0  0  0  0  0  0  0  0  0
  180.0000   15.4751   44.1177 H   0  0  0  0  0  0  0  0  0  0  0  0
  182.2614   16.2254   43.3724 H   0  0  0  0  0  0  0  0  0  0  0  0
  183.5810   19.4090   43.8200 H   0  0  0  0  0  0  0  0  0  0  0  0
  1  2  2  0
  2  3  1  0
  3  4  1  0
  3  5  2  0
  5  6  1  0
  6  7  2  0
  7  8  1  0
  8  9  2  0
  9 10  1  0
 10 11  1  0
  9 12  1  0
 12 13  1  0
 13 14  1  0
 13 15  1  0
 12 16  2  0
  5 17  1  0
 17 18  1  0
 18 19  2  0
 19 20  1  0
 20 21  2  0
 21 22  1  0
 22 23  1  0
 22 24  2  0
 24  2  1  0
 16  6  1  0
 24 18  1  0
  4 25  1  0
  7 26  1  0
  8 27  1  0
 10 28  1  0
 10 29  1  0
 13 30  1  0
 16 31  1  0
 19 32  1  0
 20 33  1  0
 21 34  1  0
 23 35  1  0
M  END
>  <meeko>  (6) 
{"is_sidechain": [false], "free_energy": -6.027, "intermolecular_energy": -7.565, "internal_energy": -0.02}

$$$$
cand_019_out
     RDKit          3D

 35 37  0  0  0  0  0  0  0  0999 V2000
  180.5500   13.8500   43.9960 O   0  0  0  0  0  0  0  0  0  0  0  0
  180.6120   15.0470   43.7270 C   0  0  0  0  0  0  0  0  0  0  0  0
  180.3540   16.0670   44.7690 C   0  0  0  0  0  0  0  0  0  0  0  0
  180.0300   15.6070   46.0330 O   0  0  0  0  0  0  0  0  0  0  0  0
  180.4310   17.3670   44.4300 C   0  0  0  0  0  0  0  0  0  0  0  0
  180.1810   18.4690   45.3840 C   0  0  0  0  0  0  0  0  0  0  0  0
  181.2120   19.3000   45.8360 C   0  0  0  0  0  0  0  0  0  0  0  0
  180.9480   20.3510   46.7190 C   0  0  0  0  0  0  0  0  0  0  0  0
  179.6450   20.5990   47.1730 C   0  0  0  0  0  0  0  0  0  0  0  0
  179.3940   21.7450   48.1200 C   0  0  0  0  0  0  0  0  0  0  0  0
  179.0540   22.8920   47.4680 F   0  0  0  0  0  0  0  0  0  0  0  0
  178.5880   19.7870   46.7070 C   0  0  0  0  0  0  0  0  0  0  0  0
  177.1600   20.0260   47.1460 C   0  0  0  0  0  0  0  0  0  0  0  0
  176.4770   20.8240   46.2780 F   0  0  0  0  0  0  0  0  0  0  0  0
  176.4270   18.8780   47.2310 F   0  0  0  0  0  0  0  0  0  0  0  0
  178.8740   18.7300   45.8210 C   0  0  0  0  0  0  0  0  0  0  0  0
  180.7310   17.8180   43.1500 O   0  0  0  0  0  0  0  0  0  0  0  0
  180.9810   16.8970   42.1640 C   0  0  0  0  0  0  0  0  0  0  0  0
  181.2880   17.3940   40.8970 C   0  0  0  0  0  0  0  0  0  0  0  0
  181.5520   16.5100   39.8480 C   0  0  0  0  0  0  0  0  0  0  0  0
  181.5100   15.1310   40.0660 C   0  0  0  0  0  0  0  0  0  0  0  0
  181.2030   14.6390   41.3330 C   0  0  0  0  0  0  0  0  0  0  0  0
  181.1790   13.2790   41.4760 O   0  0  0  0  0  0  0  0  0  0  0  0
  180.9390   15.5230   42.3810 C   0  0  0  0  0  0  0  0  0  0  0  0
  179.5920   14.7840   46.1330 H   0  0  0  0  0  0  0  0  0  0  0  0
  182.2421   19.1242   45.4925 H   0  0  0  0  0  0  0  0  0  0  0  0
  181.7735   20.9919   47.0622 H   0  0  0  0  0  0  0  0  0  0  0  0
  178.5744   21.4687   48.7997 H   0  0  0  0  0  0  0  0  0  0  0  0
  180.3269   21.9359   48.6706 H   0  0  0  0  0  0  0  0  0  0  0  0
  177.2679   20.4982   48.1336 H   0  0  0  0  0  0  0  0  0  0  0  0
  178.0517   18.0932   45.4628 H   0  0  0  0  0  0  0  0  0  0  0  0
  181.3221   18.4798   40.7244 H   0  0  0  0  0  0  0  0  0  0  0  0
  181.7934   16.9007   38.8485 H   0  0  0  0  0  0  0  0  0  0  0  0
  181.7187   14.4354   39.2398 H   0  0  0  0  0  0  0  0  0  0  0  0
  180.9520   12.7350   40.7480 H   0  0  0  0  0  0  0  0  0  0  0  0
  1  2  2  0
  2  3  1  0
  3  4  1  0
  3  5  2  0
  5  6  1  0
  6  7  2  0
  7  8  1  0
  8  9  2  0
  9 10  1  0
 10 11  1  0
  9 12  1  0
 12 13  1  0
 13 14  1  0
 13 15  1  0
 12 16  2  0
  5 17  1  0
 17 18  1  0
 18 19  2  0
 19 20  1  0
 20 21  2  0
 21 22  1  0
 22 23  1  0
 22 24  2  0
 24  2  1  0
 16  6  1  0
 24 18  1  0
  4 25  1  0
  7 26  1  0
  8 27  1  0
 10 28  1  0
 10 29  1  0
 13 30  1  0
 16 31  1  0
 19 32  1  0
 20 33  1  0
 21 34  1  0
 23 35  1  0
M  END
>  <meeko>  (7) 
{"is_sidechain": [false], "free_energy": -5.949, "intermolecular_energy": -6.916, "internal_energy": -0.573}

$$$$
