cand_025_out
     RDKit          3D

 53 56  0  0  0  0  0  0  0  0999 V2000
  175.0230   19.0970   46.9280 C   0  0  0  0  0  0  0  0  0  0  0  0
  175.6460   20.4840   46.9790 C   0  0  0  0  0  0  0  0  0  0  0  0
  177.1510   20.4240   47.1150 C   0  0  0  0  0  0  0  0  0  0  0  0
  177.8680   19.5210   46.3040 C   0  0  0  0  0  0  0  0  0  0  0  0
  179.2610   19.4090   46.3850 C   0  0  0  0  0  0  0  0  0  0  0  0
  180.0160   18.4470   45.5550 C   0  0  0  0  0  0  0  0  0  0  0  0
  179.4330   17.1850   45.5260 O   0  0  0  0  0  0  0  0  0  0  0  0
  180.0310   16.1940   44.7910 C   0  0  0  0  0  0  0  0  0  0  0  0
  179.4040   14.9490   44.7760 C   0  0  0  0  0  0  0  0  0  0  0  0
  179.9630   13.8950   44.0480 C   0  0  0  0  0  0  0  0  0  0  0  0
  181.1480   14.0880   43.3360 C   0  0  0  0  0  0  0  0  0  0  0  0
  181.7720   15.3330   43.3510 C   0  0  0  0  0  0  0  0  0  0  0  0
  182.9290   15.4530   42.6320 O   0  0  0  0  0  0  0  0  0  0  0  0
  181.2130   16.3860   44.0790 C   0  0  0  0  0  0  0  0  0  0  0  0
  181.8360   17.7100   44.1220 C   0  0  0  0  0  0  0  0  0  0  0  0
  182.8830   17.9550   43.5270 O   0  0  0  0  0  0  0  0  0  0  0  0
  181.1590   18.7610   44.9170 C   0  0  0  0  0  0  0  0  0  0  0  0
  181.7630   20.0030   44.9610 O   0  0  0  0  0  0  0  0  0  0  0  0
  179.9360   20.2090   47.3130 C   0  0  0  0  0  0  0  0  0  0  0  0
  179.2370   21.1030   48.1300 C   0  0  0  0  0  0  0  0  0  0  0  0
  177.8410   21.2220   48.0510 C   0  0  0  0  0  0  0  0  0  0  0  0
  177.1180   22.1190   48.8600 N   0  0  0  0  0  0  0  0  0  0  0  0
  176.8610   23.4330   48.2310 C   0  0  0  0  0  0  0  0  0  0  0  0
  176.1860   24.3780   49.2540 C   0  0  0  0  0  0  0  0  0  0  0  0
  174.9260   23.8180   49.7960 N   0  0  0  0  0  0  0  0  0  0  0  0
  174.3520   24.7150   50.7950 C   0  0  0  0  0  0  0  0  0  0  0  0
  175.2010   22.4860   50.3870 C   0  0  0  0  0  0  0  0  0  0  0  0
  175.8740   21.5160   49.3870 C   0  0  0  0  0  0  0  0  0  0  0  0
  174.8586   18.7310   47.9522 H   0  0  0  0  0  0  0  0  0  0  0  0
  174.0607   19.1466   46.3975 H   0  0  0  0  0  0  0  0  0  0  0  0
  175.6993   18.4106   46.3975 H   0  0  0  0  0  0  0  0  0  0  0  0
  175.3942   21.0208   46.0525 H   0  0  0  0  0  0  0  0  0  0  0  0
  175.2454   21.0043   47.8615 H   0  0  0  0  0  0  0  0  0  0  0  0
  177.3195   18.8890   45.5901 H   0  0  0  0  0  0  0  0  0  0  0  0
  178.4700   14.7963   45.3367 H   0  0  0  0  0  0  0  0  0  0  0  0
  179.4686   12.9124   44.0361 H   0  0  0  0  0  0  0  0  0  0  0  0
  181.5883   13.2580   42.7639 H   0  0  0  0  0  0  0  0  0  0  0  0
  183.7540   15.2630   43.0360 H   0  0  0  0  0  0  0  0  0  0  0  0
  182.5140   20.1780   44.4290 H   0  0  0  0  0  0  0  0  0  0  0  0
  181.0299   20.1339   47.4011 H   0  0  0  0  0  0  0  0  0  0  0  0
  179.7918   21.7247   48.8481 H   0  0  0  0  0  0  0  0  0  0  0  0
  177.8135   23.8726   47.9003 H   0  0  0  0  0  0  0  0  0  0  0  0
  176.1958   23.2986   47.3653 H   0  0  0  0  0  0  0  0  0  0  0  0
  176.8826   24.5514   50.0875 H   0  0  0  0  0  0  0  0  0  0  0  0
  175.9392   25.3146   48.7326 H   0  0  0  0  0  0  0  0  0  0  0  0
  174.2480   23.7180   49.0390 H   0  0  0  0  0  0  0  0  0  0  0  0
  174.5903   24.3426   51.8022 H   0  0  0  0  0  0  0  0  0  0  0  0
  174.7732   25.7232   50.6677 H   0  0  0  0  0  0  0  0  0  0  0  0
  173.2601   24.7550   50.6677 H   0  0  0  0  0  0  0  0  0  0  0  0
  175.8665   22.6160   51.2531 H   0  0  0  0  0  0  0  0  0  0  0  0
  174.2357   22.0461   50.6778 H   0  0  0  0  0  0  0  0  0  0  0  0
  176.1145   20.5728   49.8995 H   0  0  0  0  0  0  0  0  0  0  0  0
  175.1846   21.3205   48.5524 H   0  0  0  0  0  0  0  0  0  0  0  0
  1  2  1  0
  2  3  1  0
  3  4  2  0
  4  5  1  0
  5  6  1  0
  6  7  1  0
  7  8  1  0
  8  9  2  0
  9 10  1  0
 10 11  2  0
 11 12  1  0
 12 13  1  0
 12 14  2  0
 14 15  1  0
 15 16  2  0
 15 17  1  0
 17 18  1  0
  5 19  2  0
 19 20  1  0
 20 21  2  0
 21 22  1  0
 22 23  1  0
 23 24  1  0
 24 25  1  0
 25 26  1  0
 25 27  1  0
 27 28  1  0
 21  3  1  0
 28 22  1  0
 17  6  2  0
 14  8  1  0
  1 29  1  0
  1 30  1  0
  1 31  1  0
  2 32  1  0
  2 33  1  0
  4 34  1  0
  9 35  1  0
 10 36  1  0
 11 37  1  0
 13 38  1  0
 18 39  1  0
 19 40  1  0
 20 41  1  0
 23 42  1  0
 23 43  1  0
 24 44  1  0
 24 45  1  0
 25 46  1  0
 26 47  1  0
 26 48  1  0
 26 49  1  0
 27 50  1  0
 27 51  1  0
 28 52  1  0
 28 53  1  0
M  CHG  1  25   1
M  END
>  <meeko>  (1) 
{"is_sidechain": [false], "free_energy": -5.934, "intermolecular_energy": -7.322, "internal_energy": 0.902}

$$$$
cand_025_out
     RDKit          3D

 53 56  0  0  0  0  0  0  0  0999 V2000
  174.8310   19.6390   47.3340 C   0  0  0  0  0  0  0  0  0  0  0  0
  175.5970   19.9350   48.6150 C   0  0  0  0  0  0  0  0  0  0  0  0
  175.8940   21.4100   48.7700 C   0  0  0  0  0  0  0  0  0  0  0  0
  174.9360   22.2300   49.3990 C   0  0  0  0  0  0  0  0  0  0  0  0
  175.1430   23.6040   49.5670 C   0  0  0  0  0  0  0  0  0  0  0  0
  174.1320   24.4740   50.2030 C   0  0  0  0  0  0  0  0  0  0  0  0
  174.4300   24.7710   51.5280 O   0  0  0  0  0  0  0  0  0  0  0  0
  173.5730   25.5710   52.2380 C   0  0  0  0  0  0  0  0  0  0  0  0
  173.9190   25.8560   53.5590 C   0  0  0  0  0  0  0  0  0  0  0  0
  173.0880   26.6650   54.3390 C   0  0  0  0  0  0  0  0  0  0  0  0
  171.9120   27.1870   53.7970 C   0  0  0  0  0  0  0  0  0  0  0  0
  171.5690   26.9020   52.4780 C   0  0  0  0  0  0  0  0  0  0  0  0
  170.4040   27.4460   52.0110 O   0  0  0  0  0  0  0  0  0  0  0  0
  172.4000   26.0940   51.6980 C   0  0  0  0  0  0  0  0  0  0  0  0
  172.0770   25.7690   50.3080 C   0  0  0  0  0  0  0  0  0  0  0  0
  171.0560   26.1860   49.7640 O   0  0  0  0  0  0  0  0  0  0  0  0
  173.0280   24.9100   49.5660 C   0  0  0  0  0  0  0  0  0  0  0  0
  172.7060   24.6000   48.2580 O   0  0  0  0  0  0  0  0  0  0  0  0
  176.3290   24.1590   49.0740 C   0  0  0  0  0  0  0  0  0  0  0  0
  177.2850   23.3590   48.4420 C   0  0  0  0  0  0  0  0  0  0  0  0
  177.0840   21.9800   48.2730 C   0  0  0  0  0  0  0  0  0  0  0  0
  178.0350   21.1560   47.6430 N   0  0  0  0  0  0  0  0  0  0  0  0
  177.9160   21.1070   46.1690 C   0  0  0  0  0  0  0  0  0  0  0  0
  178.9160   20.0720   45.6000 C   0  0  0  0  0  0  0  0  0  0  0  0
  180.3160   20.3650   45.9880 N   0  0  0  0  0  0  0  0  0  0  0  0
  181.2180   19.3360   45.4760 C   0  0  0  0  0  0  0  0  0  0  0  0
  180.4030   20.4460   47.4660 C   0  0  0  0  0  0  0  0  0  0  0  0
  179.4170   21.4760   48.0670 C   0  0  0  0  0  0  0  0  0  0  0  0
  173.8320   19.2530   47.5850 H   0  0  0  0  0  0  0  0  0  0  0  0
  174.7299   20.5628   46.7455 H   0  0  0  0  0  0  0  0  0  0  0  0
  175.3773   18.8873   46.7455 H   0  0  0  0  0  0  0  0  0  0  0  0
  174.9954   19.6018   49.4735 H   0  0  0  0  0  0  0  0  0  0  0  0
  176.5562   19.3984   48.5689 H   0  0  0  0  0  0  0  0  0  0  0  0
  174.0026   21.7791   49.7670 H   0  0  0  0  0  0  0  0  0  0  0  0
  174.8452   25.4443   53.9865 H   0  0  0  0  0  0  0  0  0  0  0  0
  173.3607   26.8906   55.3805 H   0  0  0  0  0  0  0  0  0  0  0  0
  171.2573   27.8226   54.4112 H   0  0  0  0  0  0  0  0  0  0  0  0
  169.6320   27.4280   52.5440 H   0  0  0  0  0  0  0  0  0  0  0  0
  171.8180   24.4150   48.0250 H   0  0  0  0  0  0  0  0  0  0  0  0
  176.5112   25.2381   49.1852 H   0  0  0  0  0  0  0  0  0  0  0  0
  178.2125   23.8187   48.0700 H   0  0  0  0  0  0  0  0  0  0  0  0
  176.8916   20.8153   45.8942 H   0  0  0  0  0  0  0  0  0  0  0  0
  178.1415   22.0995   45.7518 H   0  0  0  0  0  0  0  0  0  0  0  0
  178.6460   19.0751   45.9785 H   0  0  0  0  0  0  0  0  0  0  0  0
  178.8562   20.1168   44.5025 H   0  0  0  0  0  0  0  0  0  0  0  0
  180.5980   21.2580   45.5830 H   0  0  0  0  0  0  0  0  0  0  0  0
  181.6839   18.8045   46.3188 H   0  0  0  0  0  0  0  0  0  0  0  0
  180.6492   18.6224   44.8618 H   0  0  0  0  0  0  0  0  0  0  0  0
  182.0000   19.8064   44.8618 H   0  0  0  0  0  0  0  0  0  0  0  0
  180.1765   19.4552   47.8866 H   0  0  0  0  0  0  0  0  0  0  0  0
  181.4217   20.7733   47.7213 H   0  0  0  0  0  0  0  0  0  0  0  0
  179.4788   21.4428   49.1648 H   0  0  0  0  0  0  0  0  0  0  0  0
  179.6819   22.4823   47.7104 H   0  0  0  0  0  0  0  0  0  0  0  0
  1  2  1  0
  2  3  1  0
  3  4  2  0
  4  5  1  0
  5  6  1  0
  6  7  1  0
  7  8  1  0
  8  9  2  0
  9 10  1  0
 10 11  2  0
 11 12  1  0
 12 13  1  0
 12 14  2  0
 14 15  1  0
 15 16  2  0
 15 17  1  0
 17 18  1  0
  5 19  2  0
 19 20  1  0
 20 21  2  0
 21 22  1  0
 22 23  1  0
 23 24  1  0
 24 25  1  0
 25 26  1  0
 25 27  1  0
 27 28  1  0
 21  3  1  0
 28 22  1  0
 17  6  2  0
 14  8  1  0
  1 29  1  0
  1 30  1  0
  1 31  1  0
  2 32  1  0
  2 33  1  0
  4 34  1  0
  9 35  1  0
 10 36  1  0
 11 37  1  0
 13 38  1  0
 18 39  1  0
 19 40  1  0
 20 41  1  0
 23 42  1  0
 23 43  1  0
 24 44  1  0
 24 45  1  0
 25 46  1  0
 26 47  1  0
 26 48  1  0
 26 49  1  0
 27 50  1  0
 27 51  1  0
 28 52  1  0
 28 53  1  0
M  CHG  1  25   1
M  END
>  <meeko>  (2) 
{"is_sidechain": [false], "free_energy": -5.592, "intermolecular_energy": -5.357, "internal_energy": -0.64}

$$$$
cand_025_out
     RDKit          3D

 53 56  0  0  0  0  0  0  0  0999 V2000
  182.9860   20.8840   45.0870 C   0  0  0  0  0  0  0  0  0  0  0  0
  182.4140   19.5250   44.7090 C   0  0  0  0  0  0  0  0  0  0  0  0
  181.0280   19.3170   45.2760 C   0  0  0  0  0  0  0  0  0  0  0  0
  180.4490   20.3490   46.0430 C   0  0  0  0  0  0  0  0  0  0  0  0
  179.1730   20.2180   46.6040 C   0  0  0  0  0  0  0  0  0  0  0  0
  178.5710   21.2860   47.4300 C   0  0  0  0  0  0  0  0  0  0  0  0
  177.1820   21.2390   47.4460 O   0  0  0  0  0  0  0  0  0  0  0  0
  176.4940   22.1740   48.1770 C   0  0  0  0  0  0  0  0  0  0  0  0
  175.1030   22.0800   48.1770 C   0  0  0  0  0  0  0  0  0  0  0  0
  174.3420   23.0020   48.9000 C   0  0  0  0  0  0  0  0  0  0  0  0
  174.9740   24.0170   49.6210 C   0  0  0  0  0  0  0  0  0  0  0  0
  176.3630   24.1090   49.6190 C   0  0  0  0  0  0  0  0  0  0  0  0
  176.9160   25.1270   50.3460 O   0  0  0  0  0  0  0  0  0  0  0  0
  177.1230   23.1860   48.8970 C   0  0  0  0  0  0  0  0  0  0  0  0
  178.5860   23.2460   48.8680 C   0  0  0  0  0  0  0  0  0  0  0  0
  179.2120   24.1140   49.4720 O   0  0  0  0  0  0  0  0  0  0  0  0
  179.2990   22.2160   48.0780 C   0  0  0  0  0  0  0  0  0  0  0  0
  180.6780   22.2900   48.0480 O   0  0  0  0  0  0  0  0  0  0  0  0
  178.4810   19.0200   46.4020 C   0  0  0  0  0  0  0  0  0  0  0  0
  179.0460   17.9860   45.6490 C   0  0  0  0  0  0  0  0  0  0  0  0
  180.3230   18.1120   45.0820 C   0  0  0  0  0  0  0  0  0  0  0  0
  180.9080   17.0840   44.3180 N   0  0  0  0  0  0  0  0  0  0  0  0
  180.4560   15.7230   44.6820 C   0  0  0  0  0  0  0  0  0  0  0  0
  181.2610   14.6750   43.8770 C   0  0  0  0  0  0  0  0  0  0  0  0
  181.1460   14.8740   42.4130 N   0  0  0  0  0  0  0  0  0  0  0  0
  181.9620   13.8990   41.6950 C   0  0  0  0  0  0  0  0  0  0  0  0
  181.5670   16.2560   42.0770 C   0  0  0  0  0  0  0  0  0  0  0  0
  180.7790   17.3300   42.8640 C   0  0  0  0  0  0  0  0  0  0  0  0
  183.0239   20.9740   46.1827 H   0  0  0  0  0  0  0  0  0  0  0  0
  184.0015   20.9816   44.6758 H   0  0  0  0  0  0  0  0  0  0  0  0
  182.3459   21.6785   44.6758 H   0  0  0  0  0  0  0  0  0  0  0  0
  182.3637   19.4533   43.6125 H   0  0  0  0  0  0  0  0  0  0  0  0
  183.0727   18.7502   45.1283 H   0  0  0  0  0  0  0  0  0  0  0  0
  181.0134   21.2792   46.2044 H   0  0  0  0  0  0  0  0  0  0  0  0
  174.6052   21.2807   47.6083 H   0  0  0  0  0  0  0  0  0  0  0  0
  173.2445   22.9282   48.9012 H   0  0  0  0  0  0  0  0  0  0  0  0
  174.3749   24.7432   50.1900 H   0  0  0  0  0  0  0  0  0  0  0  0
  177.2820   24.9540   51.1920 H   0  0  0  0  0  0  0  0  0  0  0  0
  181.1000   23.0090   47.6210 H   0  0  0  0  0  0  0  0  0  0  0  0
  177.4807   18.8894   46.8404 H   0  0  0  0  0  0  0  0  0  0  0  0
  178.4783   17.0560   45.4983 H   0  0  0  0  0  0  0  0  0  0  0  0
  180.6161   15.5598   45.7580 H   0  0  0  0  0  0  0  0  0  0  0  0
  179.3861   15.6192   44.4486 H   0  0  0  0  0  0  0  0  0  0  0  0
  182.3210   14.7500   44.1611 H   0  0  0  0  0  0  0  0  0  0  0  0
  180.8485   13.6830   44.1131 H   0  0  0  0  0  0  0  0  0  0  0  0
  180.1750   14.7390   42.1300 H   0  0  0  0  0  0  0  0  0  0  0  0
  182.4942   13.2631   42.4177 H   0  0  0  0  0  0  0  0  0  0  0  0
  181.3145   13.2733   41.0632 H   0  0  0  0  0  0  0  0  0  0  0  0
  182.6920   14.4261   41.0632 H   0  0  0  0  0  0  0  0  0  0  0  0
  182.6367   16.3640   42.3095 H   0  0  0  0  0  0  0  0  0  0  0  0
  181.3643   16.4135   41.0074 H   0  0  0  0  0  0  0  0  0  0  0  0
  181.1812   18.3256   42.6253 H   0  0  0  0  0  0  0  0  0  0  0  0
  179.7172   17.2806   42.5808 H   0  0  0  0  0  0  0  0  0  0  0  0
  1  2  1  0
  2  3  1  0
  3  4  2  0
  4  5  1  0
  5  6  1  0
  6  7  1  0
  7  8  1  0
  8  9  2  0
  9 10  1  0
 10 11  2  0
 11 12  1  0
 12 13  1  0
 12 14  2  0
 14 15  1  0
 15 16  2  0
 15 17  1  0
 17 18  1  0
  5 19  2  0
 19 20  1  0
 20 21  2  0
 21 22  1  0
 22 23  1  0
 23 24  1  0
 24 25  1  0
 25 26  1  0
 25 27  1  0
 27 28  1  0
 21  3  1  0
 28 22  1  0
 17  6  2  0
 14  8  1  0
  1 29  1  0
  1 30  1  0
  1 31  1  0
  2 32  1  0
  2 33  1  0
  4 34  1  0
  9 35  1  0
 10 36  1  0
 11 37  1  0
 13 38  1  0
 18 39  1  0
 19 40  1  0
 20 41  1  0
 23 42  1  0
 23 43  1  0
 24 44  1  0
 24 45  1  0
 25 46  1  0
 26 47  1  0
 26 48  1  0
 26 49  1  0
 27 50  1  0
 27 51  1  0
 28 52  1  0
 28 53  1  0
M  CHG  1  25   1
M  END
>  <meeko>  (3) 
{"is_sidechain": [false], "free_energy": -5.578, "intermolecular_energy": -6.019, "internal_energy": 0.04}

$$$$
cand_025_out
     RDKit          3D

 53 56  0  0  0  0  0  0  0  0999 V2000
  187.9300   21.8920   48.8180 C   0  0  0  0  0  0  0  0  0  0  0  0
  187.9300   22.6580   47.5030 C   0  0  0  0  0  0  0  0  0  0  0  0
  186.7910   23.6500   47.4260 C   0  0  0  0  0  0  0  0  0  0  0  0
  186.3240   24.2380   48.6190 C   0  0  0  0  0  0  0  0  0  0  0  0
  185.2680   25.1570   48.6190 C   0  0  0  0  0  0  0  0  0  0  0  0
  184.7570   25.7580   49.8700 C   0  0  0  0  0  0  0  0  0  0  0  0
  185.2150   25.1060   51.0090 O   0  0  0  0  0  0  0  0  0  0  0  0
  184.8180   25.5620   52.2400 C   0  0  0  0  0  0  0  0  0  0  0  0
  185.3140   24.8890   53.3560 C   0  0  0  0  0  0  0  0  0  0  0  0
  184.9470   25.3010   54.6390 C   0  0  0  0  0  0  0  0  0  0  0  0
  184.0850   26.3870   54.8050 C   0  0  0  0  0  0  0  0  0  0  0  0
  183.5920   27.0580   53.6890 C   0  0  0  0  0  0  0  0  0  0  0  0
  182.7520   28.1120   53.9240 O   0  0  0  0  0  0  0  0  0  0  0  0
  183.9590   26.6450   52.4060 C   0  0  0  0  0  0  0  0  0  0  0  0
  183.4640   27.3230   51.2060 C   0  0  0  0  0  0  0  0  0  0  0  0
  182.6970   28.2810   51.2720 O   0  0  0  0  0  0  0  0  0  0  0  0
  183.9200   26.8120   49.8930 C   0  0  0  0  0  0  0  0  0  0  0  0
  183.4350   27.4510   48.7680 O   0  0  0  0  0  0  0  0  0  0  0  0
  184.6630   25.4700   47.3980 C   0  0  0  0  0  0  0  0  0  0  0  0
  185.1110   24.8890   46.2080 C   0  0  0  0  0  0  0  0  0  0  0  0
  186.1710   23.9690   46.2010 C   0  0  0  0  0  0  0  0  0  0  0  0
  186.6400   23.3760   45.0130 N   0  0  0  0  0  0  0  0  0  0  0  0
  185.7010   22.4070   44.4060 C   0  0  0  0  0  0  0  0  0  0  0  0
  186.3730   21.7210   43.1930 C   0  0  0  0  0  0  0  0  0  0  0  0
  186.8290   22.6950   42.1730 N   0  0  0  0  0  0  0  0  0  0  0  0
  187.5030   22.0110   41.0720 C   0  0  0  0  0  0  0  0  0  0  0  0
  187.7370   23.6770   42.8120 C   0  0  0  0  0  0  0  0  0  0  0  0
  187.0940   24.3830   44.0290 C   0  0  0  0  0  0  0  0  0  0  0  0
  188.9671   21.7074   49.1348 H   0  0  0  0  0  0  0  0  0  0  0  0
  187.4114   22.4835   49.5869 H   0  0  0  0  0  0  0  0  0  0  0  0
  187.4114   20.9314   48.6828 H   0  0  0  0  0  0  0  0  0  0  0  0
  188.8816   23.2016   47.4085 H   0  0  0  0  0  0  0  0  0  0  0  0
  187.8043   21.9318   46.6864 H   0  0  0  0  0  0  0  0  0  0  0  0
  186.8008   23.9682   49.5729 H   0  0  0  0  0  0  0  0  0  0  0  0
  185.9939   24.0341   53.2259 H   0  0  0  0  0  0  0  0  0  0  0  0
  185.3373   24.7696   55.5195 H   0  0  0  0  0  0  0  0  0  0  0  0
  183.7960   26.7117   55.8155 H   0  0  0  0  0  0  0  0  0  0  0  0
  183.0620   28.8640   54.3900 H   0  0  0  0  0  0  0  0  0  0  0  0
  183.8040   27.2640   47.9270 H   0  0  0  0  0  0  0  0  0  0  0  0
  183.8247   26.1818   47.3734 H   0  0  0  0  0  0  0  0  0  0  0  0
  184.6236   25.1579   45.2593 H   0  0  0  0  0  0  0  0  0  0  0  0
  185.4279   21.6459   45.1517 H   0  0  0  0  0  0  0  0  0  0  0  0
  184.7968   22.9363   44.0709 H   0  0  0  0  0  0  0  0  0  0  0  0
  187.2425   21.1485   43.5482 H   0  0  0  0  0  0  0  0  0  0  0  0
  185.6248   21.0672   42.7210 H   0  0  0  0  0  0  0  0  0  0  0  0
  186.0200   23.1840   41.7880 H   0  0  0  0  0  0  0  0  0  0  0  0
  188.2207   21.2826   41.4774 H   0  0  0  0  0  0  0  0  0  0  0  0
  186.7581   21.4873   40.4548 H   0  0  0  0  0  0  0  0  0  0  0  0
  188.0376   22.7481   40.4548 H   0  0  0  0  0  0  0  0  0  0  0  0
  188.6427   23.1513   43.1486 H   0  0  0  0  0  0  0  0  0  0  0  0
  187.9685   24.4500   42.0644 H   0  0  0  0  0  0  0  0  0  0  0  0
  187.8353   25.0451   44.5002 H   0  0  0  0  0  0  0  0  0  0  0  0
  186.2301   24.9737   43.6903 H   0  0  0  0  0  0  0  0  0  0  0  0
  1  2  1  0
  2  3  1  0
  3  4  2  0
  4  5  1  0
  5  6  1  0
  6  7  1  0
  7  8  1  0
  8  9  2  0
  9 10  1  0
 10 11  2  0
 11 12  1  0
 12 13  1  0
 12 14  2  0
 14 15  1  0
 15 16  2  0
 15 17  1  0
 17 18  1  0
  5 19  2  0
 19 20  1  0
 20 21  2  0
 21 22  1  0
 22 23  1  0
 23 24  1  0
 24 25  1  0
 25 26  1  0
 25 27  1  0
 27 28  1  0
 21  3  1  0
 28 22  1  0
 17  6  2  0
 14  8  1  0
  1 29  1  0
  1 30  1  0
  1 31  1  0
  2 32  1  0
  2 33  1  0
  4 34  1  0
  9 35  1  0
 10 36  1  0
 11 37  1  0
 13 38  1  0
 18 39  1  0
 19 40  1  0
 20 41  1  0
 23 42  1  0
 23 43  1  0
 24 44  1  0
 24 45  1  0
 25 46  1  0
 26 47  1  0
 26 48  1  0
 26 49  1  0
 27 50  1  0
 27 51  1  0
 28 52  1  0
 28 53  1  0
M  CHG  1  25   1
M  END
>  <meeko>  (4) 
{"is_sidechain": [false], "free_energy": -5.264, "intermolecular_energy": -5.542, "internal_energy": -0.05}

$$$$
cand_025_out
     RDKit          3D

 53 56  0  0  0  0  0  0  0  0999 V2000
  181.3330   22.1900   48.2630 C   0  0  0  0  0  0  0  0  0  0  0  0
  179.8330   22.2640   48.5030 C   0  0  0  0  0  0  0  0  0  0  0  0
  179.0900   21.1570   47.7880 C   0  0  0  0  0  0  0  0  0  0  0  0
  179.8260   20.2470   47.0020 C   0  0  0  0  0  0  0  0  0  0  0  0
  179.2000   19.2050   46.3080 C   0  0  0  0  0  0  0  0  0  0  0  0
  179.9630   18.2630   45.4610 C   0  0  0  0  0  0  0  0  0  0  0  0
  179.3980   16.9930   45.4210 O   0  0  0  0  0  0  0  0  0  0  0  0
  180.0050   16.0200   44.6700 C   0  0  0  0  0  0  0  0  0  0  0  0
  179.3960   14.7660   44.6440 C   0  0  0  0  0  0  0  0  0  0  0  0
  179.9630   13.7290   43.9000 C   0  0  0  0  0  0  0  0  0  0  0  0
  181.1410   13.9480   43.1820 C   0  0  0  0  0  0  0  0  0  0  0  0
  181.7470   15.2010   43.2080 C   0  0  0  0  0  0  0  0  0  0  0  0
  182.8980   15.3460   42.4820 O   0  0  0  0  0  0  0  0  0  0  0  0
  181.1780   16.2370   43.9520 C   0  0  0  0  0  0  0  0  0  0  0  0
  181.7830   17.5700   44.0070 C   0  0  0  0  0  0  0  0  0  0  0  0
  182.8230   17.8360   43.4080 O   0  0  0  0  0  0  0  0  0  0  0  0
  181.0970   18.6010   44.8190 C   0  0  0  0  0  0  0  0  0  0  0  0
  181.6840   19.8510   44.8740 O   0  0  0  0  0  0  0  0  0  0  0  0
  177.8090   19.0930   46.3960 C   0  0  0  0  0  0  0  0  0  0  0  0
  177.0660   19.9920   47.1660 C   0  0  0  0  0  0  0  0  0  0  0  0
  177.6870   21.0380   47.8660 C   0  0  0  0  0  0  0  0  0  0  0  0
  176.9580   21.9510   48.6510 N   0  0  0  0  0  0  0  0  0  0  0  0
  176.9870   23.3420   48.1480 C   0  0  0  0  0  0  0  0  0  0  0  0
  176.2740   24.2750   49.1560 C   0  0  0  0  0  0  0  0  0  0  0  0
  174.8760   23.8590   49.4210 N   0  0  0  0  0  0  0  0  0  0  0  0
  174.2590   24.7330   50.4160 C   0  0  0  0  0  0  0  0  0  0  0  0
  174.8700   22.4520   49.8870 C   0  0  0  0  0  0  0  0  0  0  0  0
  175.5740   21.4910   48.8990 C   0  0  0  0  0  0  0  0  0  0  0  0
  181.8581   22.1641   49.2292 H   0  0  0  0  0  0  0  0  0  0  0  0
  181.5686   21.2791   47.6931 H   0  0  0  0  0  0  0  0  0  0  0  0
  181.6572   23.0732   47.6931 H   0  0  0  0  0  0  0  0  0  0  0  0
  179.6415   22.1805   49.5830 H   0  0  0  0  0  0  0  0  0  0  0  0
  179.4725   23.2255   48.1085 H   0  0  0  0  0  0  0  0  0  0  0  0
  180.9181   20.3585   46.9325 H   0  0  0  0  0  0  0  0  0  0  0  0
  178.4686   14.5934   45.2097 H   0  0  0  0  0  0  0  0  0  0  0  0
  179.4820   12.7399   43.8794 H   0  0  0  0  0  0  0  0  0  0  0  0
  181.5892   13.1315   42.5968 H   0  0  0  0  0  0  0  0  0  0  0  0
  182.9370   15.9730   41.7860 H   0  0  0  0  0  0  0  0  0  0  0  0
  181.7670   20.2940   45.6950 H   0  0  0  0  0  0  0  0  0  0  0  0
  177.2933   18.2875   45.8526 H   0  0  0  0  0  0  0  0  0  0  0  0
  175.9735   19.8776   47.2245 H   0  0  0  0  0  0  0  0  0  0  0  0
  178.0313   23.6652   48.0259 H   0  0  0  0  0  0  0  0  0  0  0  0
  176.4702   23.3900   47.1781 H   0  0  0  0  0  0  0  0  0  0  0  0
  176.8318   24.2627   50.1040 H   0  0  0  0  0  0  0  0  0  0  0  0
  176.2461   25.2833   48.7173 H   0  0  0  0  0  0  0  0  0  0  0  0
  174.3330   23.9330   48.5600 H   0  0  0  0  0  0  0  0  0  0  0  0
  174.5115   24.3753   51.4251 H   0  0  0  0  0  0  0  0  0  0  0  0
  174.6342   25.7588   50.2860 H   0  0  0  0  0  0  0  0  0  0  0  0
  173.1668   24.7229   50.2860 H   0  0  0  0  0  0  0  0  0  0  0  0
  175.3872   22.4005   50.8565 H   0  0  0  0  0  0  0  0  0  0  0  0
  173.8201   22.1339   49.9677 H   0  0  0  0  0  0  0  0  0  0  0  0
  175.5974   20.4786   49.3286 H   0  0  0  0  0  0  0  0  0  0  0  0
  175.0202   21.4783   47.9486 H   0  0  0  0  0  0  0  0  0  0  0  0
  1  2  1  0
  2  3  1  0
  3  4  2  0
  4  5  1  0
  5  6  1  0
  6  7  1  0
  7  8  1  0
  8  9  2  0
  9 10  1  0
 10 11  2  0
 11 12  1  0
 12 13  1  0
 12 14  2  0
 14 15  1  0
 15 16  2  0
 15 17  1  0
 17 18  1  0
  5 19  2  0
 19 20  1  0
 20 21  2  0
 21 22  1  0
 22 23  1  0
 23 24  1  0
 24 25  1  0
 25 26  1  0
 25 27  1  0
 27 28  1  0
 21  3  1  0
 28 22  1  0
 17  6  2  0
 14  8  1  0
  1 29  1  0
  1 30  1  0
  1 31  1  0
  2 32  1  0
  2 33  1  0
  4 34  1  0
  9 35  1  0
 10 36  1  0
 11 37  1  0
 13 38  1  0
 18 39  1  0
 19 40  1  0
 20 41  1  0
 23 42  1  0
 23 43  1  0
 24 44  1  0
 24 45  1  0
 25 46  1  0
 26 47  1  0
 26 48  1  0
 26 49  1  0
 27 50  1  0
 27 51  1  0
 28 52  1  0
 28 53  1  0
M  CHG  1  25   1
M  END
>  <meeko>  (5) 
{"is_sidechain": [false], "free_energy": -5.141, "intermolecular_energy": -5.654, "internal_energy": 0.213}

$$$$
cand_025_out
     RDKit          3D

 53 56  0  0  0  0  0  0  0  0999 V2000
  182.2520   21.4060   46.5990 C   0  0  0  0  0  0  0  0  0  0  0  0
  181.1740   21.0110   47.5970 C   0  0  0  0  0  0  0  0  0  0  0  0
  180.1290   20.1110   46.9740 C   0  0  0  0  0  0  0  0  0  0  0  0
  180.5520   19.0840   46.1070 C   0  0  0  0  0  0  0  0  0  0  0  0
  179.6370   18.2220   45.4910 C   0  0  0  0  0  0  0  0  0  0  0  0
  180.0710   17.1590   44.5610 C   0  0  0  0  0  0  0  0  0  0  0  0
  180.3930   17.6440   43.2980 O   0  0  0  0  0  0  0  0  0  0  0  0
  180.8140   16.7620   42.3360 C   0  0  0  0  0  0  0  0  0  0  0  0
  181.1420   17.2940   41.0890 C   0  0  0  0  0  0  0  0  0  0  0  0
  181.5760   16.4500   40.0630 C   0  0  0  0  0  0  0  0  0  0  0  0
  181.6800   15.0760   40.2860 C   0  0  0  0  0  0  0  0  0  0  0  0
  181.3530   14.5470   41.5310 C   0  0  0  0  0  0  0  0  0  0  0  0
  181.4780   13.1930   41.6800 O   0  0  0  0  0  0  0  0  0  0  0  0
  180.9200   15.3910   42.5570 C   0  0  0  0  0  0  0  0  0  0  0  0
  180.5650   14.8780   43.8810 C   0  0  0  0  0  0  0  0  0  0  0  0
  180.6250   13.6800   44.1500 O   0  0  0  0  0  0  0  0  0  0  0  0
  180.1250   15.8570   44.9010 C   0  0  0  0  0  0  0  0  0  0  0  0
  179.7810   15.3590   46.1430 O   0  0  0  0  0  0  0  0  0  0  0  0
  178.2740   18.4140   45.7420 C   0  0  0  0  0  0  0  0  0  0  0  0
  177.8410   19.4340   46.5950 C   0  0  0  0  0  0  0  0  0  0  0  0
  178.7530   20.2990   47.2170 C   0  0  0  0  0  0  0  0  0  0  0  0
  178.3380   21.3290   48.0820 N   0  0  0  0  0  0  0  0  0  0  0  0
  178.5430   22.6930   47.5460 C   0  0  0  0  0  0  0  0  0  0  0  0
  178.1820   23.7380   48.6290 C   0  0  0  0  0  0  0  0  0  0  0  0
  176.7910   23.5880   49.1190 N   0  0  0  0  0  0  0  0  0  0  0  0
  176.5100   24.5570   50.1750 C   0  0  0  0  0  0  0  0  0  0  0  0
  176.5980   22.2040   49.6150 C   0  0  0  0  0  0  0  0  0  0  0  0
  176.9490   21.1340   48.5540 C   0  0  0  0  0  0  0  0  0  0  0  0
  183.1507   21.7353   47.1412 H   0  0  0  0  0  0  0  0  0  0  0  0
  182.5014   20.5409   45.9671 H   0  0  0  0  0  0  0  0  0  0  0  0
  181.8834   22.2275   45.9671 H   0  0  0  0  0  0  0  0  0  0  0  0
  181.6450   20.4800   48.4373 H   0  0  0  0  0  0  0  0  0  0  0  0
  180.6730   21.9290   47.9380 H   0  0  0  0  0  0  0  0  0  0  0  0
  181.6266   18.9566   45.9095 H   0  0  0  0  0  0  0  0  0  0  0  0
  181.0592   18.3767   40.9133 H   0  0  0  0  0  0  0  0  0  0  0  0
  181.8357   16.8686   39.0795 H   0  0  0  0  0  0  0  0  0  0  0  0
  182.0203   14.4116   39.4780 H   0  0  0  0  0  0  0  0  0  0  0  0
  182.3160   12.7860   41.5730 H   0  0  0  0  0  0  0  0  0  0  0  0
  180.2820   15.5950   46.8980 H   0  0  0  0  0  0  0  0  0  0  0  0
  177.5347   17.7552   45.2630 H   0  0  0  0  0  0  0  0  0  0  0  0
  176.7644   19.5603   46.7817 H   0  0  0  0  0  0  0  0  0  0  0  0
  179.5965   22.8170   47.2548 H   0  0  0  0  0  0  0  0  0  0  0  0
  177.8974   22.8404   46.6676 H   0  0  0  0  0  0  0  0  0  0  0  0
  178.8704   23.6183   49.4785 H   0  0  0  0  0  0  0  0  0  0  0  0
  178.2713   24.7358   48.1747 H   0  0  0  0  0  0  0  0  0  0  0  0
  176.1420   23.7650   48.3510 H   0  0  0  0  0  0  0  0  0  0  0  0
  176.6483   24.0801   51.1565 H   0  0  0  0  0  0  0  0  0  0  0  0
  177.1976   25.4105   50.0819 H   0  0  0  0  0  0  0  0  0  0  0  0
  175.4724   24.9102   50.0819 H   0  0  0  0  0  0  0  0  0  0  0  0
  177.2419   22.0523   50.4939 H   0  0  0  0  0  0  0  0  0  0  0  0
  175.5333   22.0866   49.8650 H   0  0  0  0  0  0  0  0  0  0  0  0
  176.8524   20.1330   48.9997 H   0  0  0  0  0  0  0  0  0  0  0  0
  176.2602   21.2297   47.7017 H   0  0  0  0  0  0  0  0  0  0  0  0
  1  2  1  0
  2  3  1  0
  3  4  2  0
  4  5  1  0
  5  6  1  0
  6  7  1  0
  7  8  1  0
  8  9  2  0
  9 10  1  0
 10 11  2  0
 11 12  1  0
 12 13  1  0
 12 14  2  0
 14 15  1  0
 15 16  2  0
 15 17  1  0
 17 18  1  0
  5 19  2  0
 19 20  1  0
 20 21  2  0
 21 22  1  0
 22 23  1  0
 23 24  1  0
 24 25  1  0
 25 26  1  0
 25 27  1  0
 27 28  1  0
 21  3  1  0
 28 22  1  0
 17  6  2  0
 14  8  1  0
  1 29  1  0
  1 30  1  0
  1 31  1  0
  2 32  1  0
  2 33  1  0
  4 34  1  0
  9 35  1  0
 10 36  1  0
 11 37  1  0
 13 38  1  0
 18 39  1  0
 19 40  1  0
 20 41  1  0
 23 42  1  0
 23 43  1  0
 24 44  1  0
 24 45  1  0
 25 46  1  0
 26 47  1  0
 26 48  1  0
 26 49  1  0
 27 50  1  0
 27 51  1  0
 28 52  1  0
 28 53  1  0
M  CHG  1  25   1
M  END
>  <meeko>  (6) 
{"is_sidechain": [false], "free_energy": -5.036, "intermolecular_energy": -4.985, "internal_energy": -0.326}

$$$$
cand_025_out
     RDKit          3D

 53 56  0  0  0  0  0  0  0  0999 V2000
  187.7500   28.2370   48.0490 C   0  0  0  0  0  0  0  0  0  0  0  0
  187.6290   27.2250   49.1780 C   0  0  0  0  0  0  0  0  0  0  0  0
  186.6890   26.0930   48.8250 C   0  0  0  0  0  0  0  0  0  0  0  0
  186.6800   25.6100   47.5010 C   0  0  0  0  0  0  0  0  0  0  0  0
  185.8300   24.5700   47.1050 C   0  0  0  0  0  0  0  0  0  0  0  0
  185.7980   24.0760   45.7120 C   0  0  0  0  0  0  0  0  0  0  0  0
  186.7540   23.0980   45.4640 O   0  0  0  0  0  0  0  0  0  0  0  0
  186.8330   22.5510   44.2090 C   0  0  0  0  0  0  0  0  0  0  0  0
  187.7950   21.5610   44.0080 C   0  0  0  0  0  0  0  0  0  0  0  0
  187.9300   20.9640   42.7520 C   0  0  0  0  0  0  0  0  0  0  0  0
  187.1030   21.3570   41.6990 C   0  0  0  0  0  0  0  0  0  0  0  0
  186.1420   22.3450   41.9020 C   0  0  0  0  0  0  0  0  0  0  0  0
  185.3660   22.6820   40.8270 O   0  0  0  0  0  0  0  0  0  0  0  0
  186.0080   22.9420   43.1580 C   0  0  0  0  0  0  0  0  0  0  0  0
  185.0120   23.9830   43.4140 C   0  0  0  0  0  0  0  0  0  0  0  0
  184.2530   24.3870   42.5350 O   0  0  0  0  0  0  0  0  0  0  0  0
  184.9450   24.5460   44.7820 C   0  0  0  0  0  0  0  0  0  0  0  0
  184.0100   25.5380   45.0090 O   0  0  0  0  0  0  0  0  0  0  0  0
  184.9630   24.0250   48.0580 C   0  0  0  0  0  0  0  0  0  0  0  0
  184.9560   24.5000   49.3730 C   0  0  0  0  0  0  0  0  0  0  0  0
  185.8080   25.5400   49.7760 C   0  0  0  0  0  0  0  0  0  0  0  0
  185.8200   26.0290   51.0970 N   0  0  0  0  0  0  0  0  0  0  0  0
  184.9020   27.1650   51.3320 C   0  0  0  0  0  0  0  0  0  0  0  0
  185.0980   27.7050   52.7680 C   0  0  0  0  0  0  0  0  0  0  0  0
  184.8900   26.6600   53.7990 N   0  0  0  0  0  0  0  0  0  0  0  0
  185.1370   27.1980   55.1350 C   0  0  0  0  0  0  0  0  0  0  0  0
  185.7920   25.5170   53.5210 C   0  0  0  0  0  0  0  0  0  0  0  0
  185.6180   24.9520   52.0920 C   0  0  0  0  0  0  0  0  0  0  0  0
  187.8706   29.2453   48.4718 H   0  0  0  0  0  0  0  0  0  0  0  0
  188.6253   27.9922   47.4294 H   0  0  0  0  0  0  0  0  0  0  0  0
  186.8417   28.2054   47.4294 H   0  0  0  0  0  0  0  0  0  0  0  0
  188.6245   26.8074   49.3891 H   0  0  0  0  0  0  0  0  0  0  0  0
  187.2210   27.7441   50.0578 H   0  0  0  0  0  0  0  0  0  0  0  0
  187.3572   26.0610   46.7607 H   0  0  0  0  0  0  0  0  0  0  0  0
  188.4469   21.2505   44.8378 H   0  0  0  0  0  0  0  0  0  0  0  0
  188.6888   20.1836   42.5931 H   0  0  0  0  0  0  0  0  0  0  0  0
  187.2097   20.8874   40.7100 H   0  0  0  0  0  0  0  0  0  0  0  0
  185.7090   22.6020   39.9580 H   0  0  0  0  0  0  0  0  0  0  0  0
  183.2340   25.3480   45.4980 H   0  0  0  0  0  0  0  0  0  0  0  0
  184.2789   23.2134   47.7695 H   0  0  0  0  0  0  0  0  0  0  0  0
  184.2698   24.0501   50.1056 H   0  0  0  0  0  0  0  0  0  0  0  0
  185.1171   27.9648   50.6080 H   0  0  0  0  0  0  0  0  0  0  0  0
  183.8630   26.8253   51.2092 H   0  0  0  0  0  0  0  0  0  0  0  0
  186.1224   28.0947   52.8619 H   0  0  0  0  0  0  0  0  0  0  0  0
  184.3494   28.4936   52.9345 H   0  0  0  0  0  0  0  0  0  0  0  0
  183.9210   26.3420   53.7650 H   0  0  0  0  0  0  0  0  0  0  0  0
  184.8034   26.4713   55.8904 H   0  0  0  0  0  0  0  0  0  0  0  0
  186.2130   27.3891   55.2602 H   0  0  0  0  0  0  0  0  0  0  0  0
  184.5805   28.1386   55.2602 H   0  0  0  0  0  0  0  0  0  0  0  0
  186.8326   25.8525   53.6423 H   0  0  0  0  0  0  0  0  0  0  0  0
  185.5379   24.7140   54.2285 H   0  0  0  0  0  0  0  0  0  0  0  0
  186.3571   24.1551   51.9222 H   0  0  0  0  0  0  0  0  0  0  0  0
  184.6017   24.5452   51.9844 H   0  0  0  0  0  0  0  0  0  0  0  0
  1  2  1  0
  2  3  1  0
  3  4  2  0
  4  5  1  0
  5  6  1  0
  6  7  1  0
  7  8  1  0
  8  9  2  0
  9 10  1  0
 10 11  2  0
 11 12  1  0
 12 13  1  0
 12 14  2  0
 14 15  1  0
 15 16  2  0
 15 17  1  0
 17 18  1  0
  5 19  2  0
 19 20  1  0
 20 21  2  0
 21 22  1  0
 22 23  1  0
 23 24  1  0
 24 25  1  0
 25 26  1  0
 25 27  1  0
 27 28  1  0
 21  3  1  0
 28 22  1  0
 17  6  2  0
 14  8  1  0
  1 29  1  0
  1 30  1  0
  1 31  1  0
  2 32  1  0
  2 33  1  0
  4 34  1  0
  9 35  1  0
 10 36  1  0
 11 37  1  0
 13 38  1  0
 18 39  1  0
 19 40  1  0
 20 41  1  0
 23 42  1  0
 23 43  1  0
 24 44  1  0
 24 45  1  0
 25 46  1  0
 26 47  1  0
 26 48  1  0
 26 49  1  0
 27 50  1  0
 27 51  1  0
 28 52  1  0
 28 53  1  0
M  CHG  1  25   1
M  END
>  <meeko>  (7) 
{"is_sidechain": [false], "free_energy": -4.939, "intermolecular_energy": -4.561, "internal_energy": -0.63}

$$$$
cand_025_out
     RDKit          3D

 53 56  0  0  0  0  0  0  0  0999 V2000
  178.5510   23.7250   47.5910 C   0  0  0  0  0  0  0  0  0  0  0  0
  178.9850   22.3610   48.1060 C   0  0  0  0  0  0  0  0  0  0  0  0
  180.0240   21.7220   47.2110 C   0  0  0  0  0  0  0  0  0  0  0  0
  181.2520   22.3860   47.0210 C   0  0  0  0  0  0  0  0  0  0  0  0
  182.2540   21.8540   46.1990 C   0  0  0  0  0  0  0  0  0  0  0  0
  183.5340   22.5580   45.9750 C   0  0  0  0  0  0  0  0  0  0  0  0
  184.0570   22.3380   44.7060 O   0  0  0  0  0  0  0  0  0  0  0  0
  185.2440   22.9340   44.3640 C   0  0  0  0  0  0  0  0  0  0  0  0
  185.7240   22.7000   43.0760 C   0  0  0  0  0  0  0  0  0  0  0  0
  186.9280   23.2750   42.6640 C   0  0  0  0  0  0  0  0  0  0  0  0
  187.6520   24.0840   43.5430 C   0  0  0  0  0  0  0  0  0  0  0  0
  187.1710   24.3170   44.8280 C   0  0  0  0  0  0  0  0  0  0  0  0
  187.9300   25.1190   45.6360 O   0  0  0  0  0  0  0  0  0  0  0  0
  185.9660   23.7420   45.2390 C   0  0  0  0  0  0  0  0  0  0  0  0
  185.4240   23.9610   46.5810 C   0  0  0  0  0  0  0  0  0  0  0  0
  186.0070   24.6550   47.4120 O   0  0  0  0  0  0  0  0  0  0  0  0
  184.1360   23.3120   46.9150 C   0  0  0  0  0  0  0  0  0  0  0  0
  183.6410   23.5150   48.1890 O   0  0  0  0  0  0  0  0  0  0  0  0
  182.0000   20.6440   45.5450 C   0  0  0  0  0  0  0  0  0  0  0  0
  180.7830   19.9790   45.7190 C   0  0  0  0  0  0  0  0  0  0  0  0
  179.7770   20.5050   46.5440 C   0  0  0  0  0  0  0  0  0  0  0  0
  178.5460   19.8480   46.7360 N   0  0  0  0  0  0  0  0  0  0  0  0
  177.3680   20.6200   46.2830 C   0  0  0  0  0  0  0  0  0  0  0  0
  176.0720   19.8670   46.6660 C   0  0  0  0  0  0  0  0  0  0  0  0
  176.0280   18.4950   46.1060 N   0  0  0  0  0  0  0  0  0  0  0  0
  174.8160   17.8020   46.5360 C   0  0  0  0  0  0  0  0  0  0  0  0
  177.2360   17.7540   46.5430 C   0  0  0  0  0  0  0  0  0  0  0  0
  178.5500   18.4800   46.1710 C   0  0  0  0  0  0  0  0  0  0  0  0
  178.3399   24.3883   48.4427 H   0  0  0  0  0  0  0  0  0  0  0  0
  179.3555   24.1588   46.9789 H   0  0  0  0  0  0  0  0  0  0  0  0
  177.6437   23.6142   46.9789 H   0  0  0  0  0  0  0  0  0  0  0  0
  179.4093   22.4804   49.1138 H   0  0  0  0  0  0  0  0  0  0  0  0
  178.1010   21.7065   48.1216 H   0  0  0  0  0  0  0  0  0  0  0  0
  181.4282   23.3450   47.5302 H   0  0  0  0  0  0  0  0  0  0  0  0
  185.1541   22.0623   42.3842 H   0  0  0  0  0  0  0  0  0  0  0  0
  187.3062   23.0909   41.6476 H   0  0  0  0  0  0  0  0  0  0  0  0
  188.6012   24.5364   43.2199 H   0  0  0  0  0  0  0  0  0  0  0  0
  188.1340   24.8460   46.5090 H   0  0  0  0  0  0  0  0  0  0  0  0
  183.9770   24.2120   48.7170 H   0  0  0  0  0  0  0  0  0  0  0  0
  182.7669   20.2107   44.8861 H   0  0  0  0  0  0  0  0  0  0  0  0
  180.6105   19.0250   45.1993 H   0  0  0  0  0  0  0  0  0  0  0  0
  177.3720   21.6091   46.7643 H   0  0  0  0  0  0  0  0  0  0  0  0
  177.4098   20.7405   45.1904 H   0  0  0  0  0  0  0  0  0  0  0  0
  176.0118   19.8029   47.7625 H   0  0  0  0  0  0  0  0  0  0  0  0
  175.2229   20.4271   46.2473 H   0  0  0  0  0  0  0  0  0  0  0  0
  176.0140   18.5470   45.0870 H   0  0  0  0  0  0  0  0  0  0  0  0
  174.7768   17.7796   47.6351 H   0  0  0  0  0  0  0  0  0  0  0  0
  173.9335   18.3320   46.1484 H   0  0  0  0  0  0  0  0  0  0  0  0
  174.8251   16.7726   46.1484 H   0  0  0  0  0  0  0  0  0  0  0  0
  177.1982   17.6330   47.6357 H   0  0  0  0  0  0  0  0  0  0  0  0
  177.2352   16.7834   46.0254 H   0  0  0  0  0  0  0  0  0  0  0  0
  179.4044   17.9195   46.5782 H   0  0  0  0  0  0  0  0  0  0  0  0
  178.6334   18.5403   45.0758 H   0  0  0  0  0  0  0  0  0  0  0  0
  1  2  1  0
  2  3  1  0
  3  4  2  0
  4  5  1  0
  5  6  1  0
  6  7  1  0
  7  8  1  0
  8  9  2  0
  9 10  1  0
 10 11  2  0
 11 12  1  0
 12 13  1  0
 12 14  2  0
 14 15  1  0
 15 16  2  0
 15 17  1  0
 17 18  1  0
  5 19  2  0
 19 20  1  0
 20 21  2  0
 21 22  1  0
 22 23  1  0
 23 24  1  0
 24 25  1  0
 25 26  1  0
 25 27  1  0
 27 28  1  0
 21  3  1  0
 28 22  1  0
 17  6  2  0
 14  8  1  0
  1 29  1  0
  1 30  1  0
  1 31  1  0
  2 32  1  0
  2 33  1  0
  4 34  1  0
  9 35  1  0
 10 36  1  0
 11 37  1  0
 13 38  1  0
 18 39  1  0
 19 40  1  0
 20 41  1  0
 23 42  1  0
 23 43  1  0
 24 44  1  0
 24 45  1  0
 25 46  1  0
 26 47  1  0
 26 48  1  0
 26 49  1  0
 27 50  1  0
 27 51  1  0
 28 52  1  0
 28 53  1  0
M  CHG  1  25   1
M  END
>  <meeko>  (8) 
{"is_sidechain": [false], "free_energy": -4.749, "intermolecular_energy": -5.234, "internal_energy": 0.277}

$$$$
cand_025_out
     RDKit          3D

 53 56  0  0  0  0  0  0  0  0999 V2000
  178.5350   23.7310   47.6790 C   0  0  0  0  0  0  0  0  0  0  0  0
  178.9170   22.3420   48.1680 C   0  0  0  0  0  0  0  0  0  0  0  0
  180.0100   21.7250   47.3240 C   0  0  0  0  0  0  0  0  0  0  0  0
  181.2270   22.4210   47.1810 C   0  0  0  0  0  0  0  0  0  0  0  0
  182.2770   21.9110   46.4080 C   0  0  0  0  0  0  0  0  0  0  0  0
  183.5460   22.6480   46.2320 C   0  0  0  0  0  0  0  0  0  0  0  0
  183.9050   23.3810   47.3570 O   0  0  0  0  0  0  0  0  0  0  0  0
  185.0650   24.1130   47.3310 C   0  0  0  0  0  0  0  0  0  0  0  0
  185.3940   24.8210   48.4870 C   0  0  0  0  0  0  0  0  0  0  0  0
  186.5620   25.5880   48.5260 C   0  0  0  0  0  0  0  0  0  0  0  0
  187.3970   25.6460   47.4090 C   0  0  0  0  0  0  0  0  0  0  0  0
  187.0670   24.9380   46.2570 C   0  0  0  0  0  0  0  0  0  0  0  0
  187.9300   25.0390   45.2000 O   0  0  0  0  0  0  0  0  0  0  0  0
  185.9000   24.1710   46.2180 C   0  0  0  0  0  0  0  0  0  0  0  0
  185.5150   23.4110   45.0280 C   0  0  0  0  0  0  0  0  0  0  0  0
  186.1960   23.4190   44.0040 O   0  0  0  0  0  0  0  0  0  0  0  0
  184.2620   22.6240   45.0920 C   0  0  0  0  0  0  0  0  0  0  0  0
  183.9020   21.9210   43.9580 O   0  0  0  0  0  0  0  0  0  0  0  0
  182.0850   20.6890   45.7550 C   0  0  0  0  0  0  0  0  0  0  0  0
  180.8800   19.9910   45.8830 C   0  0  0  0  0  0  0  0  0  0  0  0
  179.8250   20.4960   46.6590 C   0  0  0  0  0  0  0  0  0  0  0  0
  178.6060   19.8080   46.8040 N   0  0  0  0  0  0  0  0  0  0  0  0
  177.4130   20.5980   46.4280 C   0  0  0  0  0  0  0  0  0  0  0  0
  176.1320   19.7950   46.7560 C   0  0  0  0  0  0  0  0  0  0  0  0
  176.1020   18.4760   46.0800 N   0  0  0  0  0  0  0  0  0  0  0  0
  174.9040   17.7310   46.4590 C   0  0  0  0  0  0  0  0  0  0  0  0
  177.3230   17.7180   46.4420 C   0  0  0  0  0  0  0  0  0  0  0  0
  178.6240   18.4930   46.1240 C   0  0  0  0  0  0  0  0  0  0  0  0
  178.3545   24.3872   48.5432 H   0  0  0  0  0  0  0  0  0  0  0  0
  179.3531   24.1432   47.0701 H   0  0  0  0  0  0  0  0  0  0  0  0
  177.6211   23.6669   47.0701 H   0  0  0  0  0  0  0  0  0  0  0  0
  179.2698   22.4159   49.2073 H   0  0  0  0  0  0  0  0  0  0  0  0
  178.0273   21.6993   48.0946 H   0  0  0  0  0  0  0  0  0  0  0  0
  181.3551   23.3883   47.6889 H   0  0  0  0  0  0  0  0  0  0  0  0
  184.7352   24.7758   49.3667 H   0  0  0  0  0  0  0  0  0  0  0  0
  186.8231   26.1460   49.4373 H   0  0  0  0  0  0  0  0  0  0  0  0
  188.3153   26.2509   47.4391 H   0  0  0  0  0  0  0  0  0  0  0  0
  188.5520   24.3570   45.0360 H   0  0  0  0  0  0  0  0  0  0  0  0
  184.0330   22.2990   43.1110 H   0  0  0  0  0  0  0  0  0  0  0  0
  182.8913   20.2722   45.1335 H   0  0  0  0  0  0  0  0  0  0  0  0
  180.7566   19.0280   45.3658 H   0  0  0  0  0  0  0  0  0  0  0  0
  177.4071   21.5424   46.9919 H   0  0  0  0  0  0  0  0  0  0  0  0
  177.4428   20.8123   45.3495 H   0  0  0  0  0  0  0  0  0  0  0  0
  176.0839   19.6356   47.8433 H   0  0  0  0  0  0  0  0  0  0  0  0
  175.2707   20.3761   46.3948 H   0  0  0  0  0  0  0  0  0  0  0  0
  176.0770   18.6150   45.0700 H   0  0  0  0  0  0  0  0  0  0  0  0
  174.8318   17.6861   47.5557 H   0  0  0  0  0  0  0  0  0  0  0  0
  174.0148   18.2356   46.0533 H   0  0  0  0  0  0  0  0  0  0  0  0
  174.9633   16.7103   46.0533 H   0  0  0  0  0  0  0  0  0  0  0  0
  177.2965   17.5025   47.5204 H   0  0  0  0  0  0  0  0  0  0  0  0
  177.3311   16.7957   45.8426 H   0  0  0  0  0  0  0  0  0  0  0  0
  179.4896   17.9124   46.4755 H   0  0  0  0  0  0  0  0  0  0  0  0
  178.6968   18.6481   45.0374 H   0  0  0  0  0  0  0  0  0  0  0  0
  1  2  1  0
  2  3  1  0
  3  4  2  0
  4  5  1  0
  5  6  1  0
  6  7  1  0
  7  8  1  0
  8  9  2  0
  9 10  1  0
 10 11  2  0
 11 12  1  0
 12 13  1  0
 12 14  2  0
 14 15  1  0
 15 16  2  0
 15 17  1  0
 17 18  1  0
  5 19  2  0
 19 20  1  0
 20 21  2  0
 21 22  1  0
 22 23  1  0
 23 24  1  0
 24 25  1  0
 25 26  1  0
 25 27  1  0
 27 28  1  0
 21  3  1  0
 28 22  1  0
 17  6  2  0
 14  8  1  0
  1 29  1  0
  1 30  1  0
  1 31  1  0
  2 32  1  0
  2 33  1  0
  4 34  1  0
  9 35  1  0
 10 36  1  0
 11 37  1  0
 13 38  1  0
 18 39  1  0
 19 40  1  0
 20 41  1  0
 23 42  1  0
 23 43  1  0
 24 44  1  0
 24 45  1  0
 25 46  1  0
 26 47  1  0
 26 48  1  0
 26 49  1  0
 27 50  1  0
 27 51  1  0
 28 52  1  0
 28 53  1  0
M  CHG  1  25   1
M  END
>  <meeko>  (9) 
{"is_sidechain": [false], "free_energy": -4.687, "intermolecular_energy": -5.372, "internal_energy": 0.491}

$$$$
