cand_040_out
     RDKit          3D

 36 38  0  0  0  0  0  0  0  0999 V2000
  181.4090   14.8650   41.4550 C   0  0  0  0  0  0  0  0  0  0  0  0
  181.8760   15.0800   42.6910 C   0  0  0  0  0  0  0  0  0  0  0  0
  181.3360   16.1060   43.5950 C   0  0  0  0  0  0  0  0  0  0  0  0
  181.7360   17.4410   43.4450 C   0  0  0  0  0  0  0  0  0  0  0  0
  181.2150   18.4450   44.2660 C   0  0  0  0  0  0  0  0  0  0  0  0
  180.2680   18.1430   45.2500 C   0  0  0  0  0  0  0  0  0  0  0  0
  179.7460   19.2150   46.1240 C   0  0  0  0  0  0  0  0  0  0  0  0
  178.3570   19.2350   46.1830 O   0  0  0  0  0  0  0  0  0  0  0  0
  177.7400   20.1820   46.9600 C   0  0  0  0  0  0  0  0  0  0  0  0
  176.3440   20.1750   46.9770 C   0  0  0  0  0  0  0  0  0  0  0  0
  175.6530   21.1110   47.7490 C   0  0  0  0  0  0  0  0  0  0  0  0
  176.3570   22.0540   48.5020 C   0  0  0  0  0  0  0  0  0  0  0  0
  177.7490   22.0590   48.4820 C   0  0  0  0  0  0  0  0  0  0  0  0
  178.3740   23.0080   49.2430 O   0  0  0  0  0  0  0  0  0  0  0  0
  178.4400   21.1210   47.7090 C   0  0  0  0  0  0  0  0  0  0  0  0
  179.9030   21.0920   47.6600 C   0  0  0  0  0  0  0  0  0  0  0  0
  180.5920   21.8830   48.3010 O   0  0  0  0  0  0  0  0  0  0  0  0
  180.5390   20.0640   46.8040 C   0  0  0  0  0  0  0  0  0  0  0  0
  181.9200   20.0360   46.7750 O   0  0  0  0  0  0  0  0  0  0  0  0
  179.8670   16.8070   45.4010 C   0  0  0  0  0  0  0  0  0  0  0  0
  180.3870   15.7830   44.5840 C   0  0  0  0  0  0  0  0  0  0  0  0
  179.9040   14.3730   44.7920 C   0  0  0  0  0  0  0  0  0  0  0  0
  181.8565   14.0808   40.8267 H   0  0  0  0  0  0  0  0  0  0  0  0
  180.5778   15.4725   41.0677 H   0  0  0  0  0  0  0  0  0  0  0  0
  182.7079   14.4559   43.0493 H   0  0  0  0  0  0  0  0  0  0  0  0
  182.4710   17.7024   42.6695 H   0  0  0  0  0  0  0  0  0  0  0  0
  181.5533   19.4837   44.1369 H   0  0  0  0  0  0  0  0  0  0  0  0
  175.7895   19.4334   46.3833 H   0  0  0  0  0  0  0  0  0  0  0  0
  174.5531   21.1059   47.7643 H   0  0  0  0  0  0  0  0  0  0  0  0
  175.8122   22.7914   49.1098 H   0  0  0  0  0  0  0  0  0  0  0  0
  177.9010   23.4550   49.9170 H   0  0  0  0  0  0  0  0  0  0  0  0
  182.3920   19.5210   47.4000 H   0  0  0  0  0  0  0  0  0  0  0  0
  179.1288   16.5526   46.1759 H   0  0  0  0  0  0  0  0  0  0  0  0
  179.8328   14.1651   45.8698 H   0  0  0  0  0  0  0  0  0  0  0  0
  178.9134   14.2527   44.3291 H   0  0  0  0  0  0  0  0  0  0  0  0
  180.6128   13.6706   44.3291 H   0  0  0  0  0  0  0  0  0  0  0  0
  1  2  2  0
  2  3  1  0
  3  4  2  0
  4  5  1  0
  5  6  2  0
  6  7  1  0
  7  8  1  0
  8  9  1  0
  9 10  2  0
 10 11  1  0
 11 12  2  0
 12 13  1  0
 13 14  1  0
 13 15  2  0
 15 16  1  0
 16 17  2  0
 16 18  1  0
 18 19  1  0
  6 20  1  0
 20 21  2  0
 21 22  1  0
 21  3  1  0
 18  7  2  0
 15  9  1  0
  1 23  1  0
  1 24  1  0
  2 25  1  0
  4 26  1  0
  5 27  1  0
 10 28  1  0
 11 29  1  0
 12 30  1  0
 14 31  1  0
 19 32  1  0
 20 33  1  0
 22 34  1  0
 22 35  1  0
 22 36  1  0
M  END
>  <meeko>  (1) 
{"is_sidechain": [false], "free_energy": -8.714, "intermolecular_energy": -10.242, "internal_energy": -0.198}

$$$$
cand_040_out
     RDKit          3D

 36 38  0  0  0  0  0  0  0  0999 V2000
  176.5900   23.7530   48.7830 C   0  0  0  0  0  0  0  0  0  0  0  0
  176.5450   22.4240   48.9400 C   0  0  0  0  0  0  0  0  0  0  0  0
  177.3140   21.4830   48.1130 C   0  0  0  0  0  0  0  0  0  0  0  0
  178.7140   21.4880   48.1790 C   0  0  0  0  0  0  0  0  0  0  0  0
  179.4730   20.5830   47.4310 C   0  0  0  0  0  0  0  0  0  0  0  0
  178.8510   19.6380   46.6080 C   0  0  0  0  0  0  0  0  0  0  0  0
  179.6710   18.7050   45.8070 C   0  0  0  0  0  0  0  0  0  0  0  0
  179.1650   17.4100   45.8010 O   0  0  0  0  0  0  0  0  0  0  0  0
  179.8300   16.4420   45.0940 C   0  0  0  0  0  0  0  0  0  0  0  0
  179.2960   15.1520   45.1290 C   0  0  0  0  0  0  0  0  0  0  0  0
  179.9240   14.1200   44.4290 C   0  0  0  0  0  0  0  0  0  0  0  0
  181.0850   14.3750   43.6960 C   0  0  0  0  0  0  0  0  0  0  0  0
  181.6160   15.6620   43.6640 C   0  0  0  0  0  0  0  0  0  0  0  0
  182.7540   15.8420   42.9260 O   0  0  0  0  0  0  0  0  0  0  0  0
  180.9880   16.6960   44.3640 C   0  0  0  0  0  0  0  0  0  0  0  0
  181.5120   18.0620   44.3580 C   0  0  0  0  0  0  0  0  0  0  0  0
  182.5250   18.3660   43.7300 O   0  0  0  0  0  0  0  0  0  0  0  0
  180.7770   19.0830   45.1390 C   0  0  0  0  0  0  0  0  0  0  0  0
  181.2740   20.3720   45.1140 O   0  0  0  0  0  0  0  0  0  0  0  0
  177.4490   19.6330   46.5410 C   0  0  0  0  0  0  0  0  0  0  0  0
  176.6710   20.5420   47.2860 C   0  0  0  0  0  0  0  0  0  0  0  0
  175.1720   20.4730   47.1760 C   0  0  0  0  0  0  0  0  0  0  0  0
  175.9897   24.4045   49.4351 H   0  0  0  0  0  0  0  0  0  0  0  0
  177.2272   24.1933   48.0019 H   0  0  0  0  0  0  0  0  0  0  0  0
  175.8981   22.0146   49.7299 H   0  0  0  0  0  0  0  0  0  0  0  0
  179.2232   22.2148   48.8290 H   0  0  0  0  0  0  0  0  0  0  0  0
  180.5710   20.6143   47.4902 H   0  0  0  0  0  0  0  0  0  0  0  0
  178.3823   14.9494   45.7070 H   0  0  0  0  0  0  0  0  0  0  0  0
  179.5034   13.1039   44.4549 H   0  0  0  0  0  0  0  0  0  0  0  0
  181.5790   13.5611   43.1451 H   0  0  0  0  0  0  0  0  0  0  0  0
  182.8070   16.5460   42.3100 H   0  0  0  0  0  0  0  0  0  0  0  0
  181.2530   20.8970   45.8900 H   0  0  0  0  0  0  0  0  0  0  0  0
  176.9453   18.9020   45.8914 H   0  0  0  0  0  0  0  0  0  0  0  0
  174.7310   20.4527   48.1835 H   0  0  0  0  0  0  0  0  0  0  0  0
  174.8033   21.3551   46.6320 H   0  0  0  0  0  0  0  0  0  0  0  0
  174.8859   19.5607   46.6320 H   0  0  0  0  0  0  0  0  0  0  0  0
  1  2  2  0
  2  3  1  0
  3  4  2  0
  4  5  1  0
  5  6  2  0
  6  7  1  0
  7  8  1  0
  8  9  1  0
  9 10  2  0
 10 11  1  0
 11 12  2  0
 12 13  1  0
 13 14  1  0
 13 15  2  0
 15 16  1  0
 16 17  2  0
 16 18  1  0
 18 19  1  0
  6 20  1  0
 20 21  2  0
 21 22  1  0
 21  3  1  0
 18  7  2  0
 15  9  1  0
  1 23  1  0
  1 24  1  0
  2 25  1  0
  4 26  1  0
  5 27  1  0
 10 28  1  0
 11 29  1  0
 12 30  1  0
 14 31  1  0
 19 32  1  0
 20 33  1  0
 22 34  1  0
 22 35  1  0
 22 36  1  0
M  END
>  <meeko>  (2) 
{"is_sidechain": [false], "free_energy": -7.41, "intermolecular_energy": -8.809, "internal_energy": -0.098}

$$$$
cand_040_out
     RDKit          3D

 36 38  0  0  0  0  0  0  0  0999 V2000
  181.1000   16.5520   42.3220 C   0  0  0  0  0  0  0  0  0  0  0  0
  181.5130   16.8160   43.5680 C   0  0  0  0  0  0  0  0  0  0  0  0
  180.8630   17.7980   44.4460 C   0  0  0  0  0  0  0  0  0  0  0  0
  181.2330   19.1490   44.3670 C   0  0  0  0  0  0  0  0  0  0  0  0
  180.6090   20.1130   45.1650 C   0  0  0  0  0  0  0  0  0  0  0  0
  179.5890   19.7550   46.0520 C   0  0  0  0  0  0  0  0  0  0  0  0
  178.9580   20.7860   46.9040 C   0  0  0  0  0  0  0  0  0  0  0  0
  177.5740   20.6680   46.9590 O   0  0  0  0  0  0  0  0  0  0  0  0
  176.8620   21.5620   47.7160 C   0  0  0  0  0  0  0  0  0  0  0  0
  175.4730   21.4150   47.7290 C   0  0  0  0  0  0  0  0  0  0  0  0
  174.6890   22.2920   48.4810 C   0  0  0  0  0  0  0  0  0  0  0  0
  175.2910   23.3150   49.2190 C   0  0  0  0  0  0  0  0  0  0  0  0
  176.6760   23.4580   49.2020 C   0  0  0  0  0  0  0  0  0  0  0  0
  177.1990   24.4790   49.9470 O   0  0  0  0  0  0  0  0  0  0  0  0
  177.4610   22.5810   48.4490 C   0  0  0  0  0  0  0  0  0  0  0  0
  178.9190   22.6960   48.4040 C   0  0  0  0  0  0  0  0  0  0  0  0
  179.5220   23.5650   49.0320 O   0  0  0  0  0  0  0  0  0  0  0  0
  179.6590   21.7220   47.5700 C   0  0  0  0  0  0  0  0  0  0  0  0
  181.0360   21.8320   47.5460 O   0  0  0  0  0  0  0  0  0  0  0  0
  179.2190   18.4040   46.1320 C   0  0  0  0  0  0  0  0  0  0  0  0
  179.8410   17.4200   45.3380 C   0  0  0  0  0  0  0  0  0  0  0  0
  179.3870   15.9910   45.4650 C   0  0  0  0  0  0  0  0  0  0  0  0
  181.6300   15.8043   41.7137 H   0  0  0  0  0  0  0  0  0  0  0  0
  180.2307   17.0828   41.9066 H   0  0  0  0  0  0  0  0  0  0  0  0
  182.3852   16.2685   43.9546 H   0  0  0  0  0  0  0  0  0  0  0  0
  182.0251   19.4543   43.6675 H   0  0  0  0  0  0  0  0  0  0  0  0
  180.9240   21.1646   45.0942 H   0  0  0  0  0  0  0  0  0  0  0  0
  174.9981   20.6104   47.1483 H   0  0  0  0  0  0  0  0  0  0  0  0
  173.5950   22.1776   48.4927 H   0  0  0  0  0  0  0  0  0  0  0  0
  174.6725   24.0052   49.8115 H   0  0  0  0  0  0  0  0  0  0  0  0
  178.1250   24.5360   50.0800 H   0  0  0  0  0  0  0  0  0  0  0  0
  181.4870   22.2330   48.2630 H   0  0  0  0  0  0  0  0  0  0  0  0
  178.4241   18.1057   46.8314 H   0  0  0  0  0  0  0  0  0  0  0  0
  179.3029   15.7262   46.5293 H   0  0  0  0  0  0  0  0  0  0  0  0
  178.4071   15.8730   44.9793 H   0  0  0  0  0  0  0  0  0  0  0  0
  180.1191   15.3291   44.9793 H   0  0  0  0  0  0  0  0  0  0  0  0
  1  2  2  0
  2  3  1  0
  3  4  2  0
  4  5  1  0
  5  6  2  0
  6  7  1  0
  7  8  1  0
  8  9  1  0
  9 10  2  0
 10 11  1  0
 11 12  2  0
 12 13  1  0
 13 14  1  0
 13 15  2  0
 15 16  1  0
 16 17  2  0
 16 18  1  0
 18 19  1  0
  6 20  1  0
 20 21  2  0
 21 22  1  0
 21  3  1  0
 18  7  2  0
 15  9  1  0
  1 23  1  0
  1 24  1  0
  2 25  1  0
  4 26  1  0
  5 27  1  0
 10 28  1  0
 11 29  1  0
 12 30  1  0
 14 31  1  0
 19 32  1  0
 20 33  1  0
 22 34  1  0
 22 35  1  0
 22 36  1  0
M  END
>  <meeko>  (3) 
{"is_sidechain": [false], "free_energy": -7.276, "intermolecular_energy": -8.657, "internal_energy": -0.093}

$$$$
cand_040_out
     RDKit          3D

 36 38  0  0  0  0  0  0  0  0999 V2000
  181.5800   15.4160   42.2910 C   0  0  0  0  0  0  0  0  0  0  0  0
  181.8770   15.9010   43.5030 C   0  0  0  0  0  0  0  0  0  0  0  0
  180.9810   16.7850   44.2640 C   0  0  0  0  0  0  0  0  0  0  0  0
  181.1370   18.1750   44.1700 C   0  0  0  0  0  0  0  0  0  0  0  0
  180.2800   19.0430   44.8530 C   0  0  0  0  0  0  0  0  0  0  0  0
  179.2350   18.5430   45.6380 C   0  0  0  0  0  0  0  0  0  0  0  0
  178.3540   19.4770   46.3710 C   0  0  0  0  0  0  0  0  0  0  0  0
  179.0060   20.6430   46.7580 O   0  0  0  0  0  0  0  0  0  0  0  0
  178.3040   21.5970   47.4480 C   0  0  0  0  0  0  0  0  0  0  0  0
  179.0020   22.7440   47.8300 C   0  0  0  0  0  0  0  0  0  0  0  0
  178.3460   23.7560   48.5330 C   0  0  0  0  0  0  0  0  0  0  0  0
  176.9930   23.6220   48.8550 C   0  0  0  0  0  0  0  0  0  0  0  0
  176.3000   22.4770   48.4730 C   0  0  0  0  0  0  0  0  0  0  0  0
  174.9780   22.4110   48.8190 O   0  0  0  0  0  0  0  0  0  0  0  0
  176.9570   21.4640   47.7690 C   0  0  0  0  0  0  0  0  0  0  0  0
  176.2650   20.2440   47.3480 C   0  0  0  0  0  0  0  0  0  0  0  0
  175.0740   20.0570   47.5870 O   0  0  0  0  0  0  0  0  0  0  0  0
  177.0530   19.2280   46.6150 C   0  0  0  0  0  0  0  0  0  0  0  0
  176.3880   18.0860   46.2110 O   0  0  0  0  0  0  0  0  0  0  0  0
  179.0780   17.1520   45.7320 C   0  0  0  0  0  0  0  0  0  0  0  0
  179.9370   16.2650   45.0530 C   0  0  0  0  0  0  0  0  0  0  0  0
  179.7050   14.7840   45.1880 C   0  0  0  0  0  0  0  0  0  0  0  0
  182.2929   14.7585   41.7719 H   0  0  0  0  0  0  0  0  0  0  0  0
  180.6231   15.6750   41.8143 H   0  0  0  0  0  0  0  0  0  0  0  0
  182.8416   15.6239   43.9533 H   0  0  0  0  0  0  0  0  0  0  0  0
  181.9457   18.5888   43.5497 H   0  0  0  0  0  0  0  0  0  0  0  0
  180.4286   20.1299   44.7725 H   0  0  0  0  0  0  0  0  0  0  0  0
  180.0673   22.8502   47.5774 H   0  0  0  0  0  0  0  0  0  0  0  0
  178.8951   24.6604   48.8339 H   0  0  0  0  0  0  0  0  0  0  0  0
  176.4766   24.4197   49.4092 H   0  0  0  0  0  0  0  0  0  0  0  0
  174.4520   23.1870   48.8100 H   0  0  0  0  0  0  0  0  0  0  0  0
  176.3410   17.8680   45.3000 H   0  0  0  0  0  0  0  0  0  0  0  0
  178.2650   16.7441   46.3505 H   0  0  0  0  0  0  0  0  0  0  0  0
  179.6629   14.5151   46.2538 H   0  0  0  0  0  0  0  0  0  0  0  0
  178.7540   14.5163   44.7044 H   0  0  0  0  0  0  0  0  0  0  0  0
  180.5286   14.2383   44.7044 H   0  0  0  0  0  0  0  0  0  0  0  0
  1  2  2  0
  2  3  1  0
  3  4  2  0
  4  5  1  0
  5  6  2  0
  6  7  1  0
  7  8  1  0
  8  9  1  0
  9 10  2  0
 10 11  1  0
 11 12  2  0
 12 13  1  0
 13 14  1  0
 13 15  2  0
 15 16  1  0
 16 17  2  0
 16 18  1  0
 18 19  1  0
  6 20  1  0
 20 21  2  0
 21 22  1  0
 21  3  1  0
 18  7  2  0
 15  9  1  0
  1 23  1  0
  1 24  1  0
  2 25  1  0
  4 26  1  0
  5 27  1  0
 10 28  1  0
 11 29  1  0
 12 30  1  0
 14 31  1  0
 19 32  1  0
 20 33  1  0
 22 34  1  0
 22 35  1  0
 22 36  1  0
M  END
>  <meeko>  (4) 
{"is_sidechain": [false], "free_energy": -6.796, "intermolecular_energy": -8.232, "internal_energy": 0.045}

$$$$
