cand_029_out
     RDKit          3D

 50 53  0  0  0  0  0  0  0  0999 V2000
  183.0340   20.6410   44.9750 C   0  0  0  0  0  0  0  0  0  0  0  0
  182.4770   19.2820   44.5750 C   0  0  0  0  0  0  0  0  0  0  0  0
  181.1010   19.0400   45.1540 C   0  0  0  0  0  0  0  0  0  0  0  0
  180.5120   20.0450   45.9470 C   0  0  0  0  0  0  0  0  0  0  0  0
  179.2490   19.8740   46.5330 C   0  0  0  0  0  0  0  0  0  0  0  0
  178.6560   20.9660   47.3330 C   0  0  0  0  0  0  0  0  0  0  0  0
  177.2670   20.9220   47.3620 O   0  0  0  0  0  0  0  0  0  0  0  0
  176.5850   21.8800   48.0690 C   0  0  0  0  0  0  0  0  0  0  0  0
  175.1930   21.7890   48.0800 C   0  0  0  0  0  0  0  0  0  0  0  0
  174.4390   22.7330   48.7790 C   0  0  0  0  0  0  0  0  0  0  0  0
  175.0770   23.7690   49.4660 C   0  0  0  0  0  0  0  0  0  0  0  0
  176.4670   23.8560   49.4530 C   0  0  0  0  0  0  0  0  0  0  0  0
  177.0260   24.8950   50.1460 O   0  0  0  0  0  0  0  0  0  0  0  0
  177.2200   22.9110   48.7540 C   0  0  0  0  0  0  0  0  0  0  0  0
  178.6830   22.9670   48.7140 C   0  0  0  0  0  0  0  0  0  0  0  0
  179.3160   23.8510   49.2880 O   0  0  0  0  0  0  0  0  0  0  0  0
  179.3890   21.9130   47.9490 C   0  0  0  0  0  0  0  0  0  0  0  0
  180.7690   21.9840   47.9080 O   0  0  0  0  0  0  0  0  0  0  0  0
  178.5690   18.6760   46.2980 C   0  0  0  0  0  0  0  0  0  0  0  0
  179.1450   17.6670   45.5210 C   0  0  0  0  0  0  0  0  0  0  0  0
  180.4150   17.8270   44.9460 C   0  0  0  0  0  0  0  0  0  0  0  0
  181.0100   16.8190   44.1570 N   0  0  0  0  0  0  0  0  0  0  0  0
  180.6020   15.4580   44.5410 C   0  0  0  0  0  0  0  0  0  0  0  0
  181.4830   14.4500   43.8010 C   0  0  0  0  0  0  0  0  0  0  0  0
  181.4210   14.6680   42.2900 C   0  0  0  0  0  0  0  0  0  0  0  0
  181.7470   16.1180   41.9350 C   0  0  0  0  0  0  0  0  0  0  0  0
  180.8690   17.0950   42.7190 C   0  0  0  0  0  0  0  0  0  0  0  0
  183.0648   20.7162   46.0720 H   0  0  0  0  0  0  0  0  0  0  0  0
  184.0509   20.7538   44.5710 H   0  0  0  0  0  0  0  0  0  0  0  0
  182.3888   21.4350   44.5710 H   0  0  0  0  0  0  0  0  0  0  0  0
  182.4141   19.2331   43.4779 H   0  0  0  0  0  0  0  0  0  0  0  0
  183.1523   18.5088   44.9701 H   0  0  0  0  0  0  0  0  0  0  0  0
  181.0561   20.9869   46.1105 H   0  0  0  0  0  0  0  0  0  0  0  0
  174.6902   20.9742   47.5384 H   0  0  0  0  0  0  0  0  0  0  0  0
  173.3414   22.6613   48.7890 H   0  0  0  0  0  0  0  0  0  0  0  0
  174.4830   24.5140   50.0157 H   0  0  0  0  0  0  0  0  0  0  0  0
  176.6220   25.7410   50.1300 H   0  0  0  0  0  0  0  0  0  0  0  0
  181.2040   22.1720   47.0990 H   0  0  0  0  0  0  0  0  0  0  0  0
  177.5685   18.5253   46.7297 H   0  0  0  0  0  0  0  0  0  0  0  0
  178.5925   16.7300   45.3572 H   0  0  0  0  0  0  0  0  0  0  0  0
  180.7240   15.3283   45.6265 H   0  0  0  0  0  0  0  0  0  0  0  0
  179.5467   15.2962   44.2760 H   0  0  0  0  0  0  0  0  0  0  0  0
  182.5235   14.5671   44.1382 H   0  0  0  0  0  0  0  0  0  0  0  0
  181.1156   13.4371   44.0225 H   0  0  0  0  0  0  0  0  0  0  0  0
  182.1491   14.0048   41.8002 H   0  0  0  0  0  0  0  0  0  0  0  0
  180.4018   14.4417   41.9436 H   0  0  0  0  0  0  0  0  0  0  0  0
  182.8027   16.3159   42.1721 H   0  0  0  0  0  0  0  0  0  0  0  0
  181.5543   16.2636   40.8618 H   0  0  0  0  0  0  0  0  0  0  0  0
  181.1871   18.1268   42.5087 H   0  0  0  0  0  0  0  0  0  0  0  0
  179.8179   16.9726   42.4188 H   0  0  0  0  0  0  0  0  0  0  0  0
  1  2  1  0
  2  3  1  0
  3  4  2  0
  4  5  1  0
  5  6  1  0
  6  7  1  0
  7  8  1  0
  8  9  2  0
  9 10  1  0
 10 11  2  0
 11 12  1  0
 12 13  1  0
 12 14  2  0
 14 15  1  0
 15 16  2  0
 15 17  1  0
 17 18  1  0
  5 19  2  0
 19 20  1  0
 20 21  2  0
 21 22  1  0
 22 23  1  0
 23 24  1  0
 24 25  1  0
 25 26  1  0
 26 27  1  0
 21  3  1  0
 27 22  1  0
 17  6  2  0
 14  8  1  0
  1 28  1  0
  1 29  1  0
  1 30  1  0
  2 31  1  0
  2 32  1  0
  4 33  1  0
  9 34  1  0
 10 35  1  0
 11 36  1  0
 13 37  1  0
 18 38  1  0
 19 39  1  0
 20 40  1  0
 23 41  1  0
 23 42  1  0
 24 43  1  0
 24 44  1  0
 25 45  1  0
 25 46  1  0
 26 47  1  0
 26 48  1  0
 27 49  1  0
 27 50  1  0
M  END
>  <meeko>  (1) 
{"is_sidechain": [false], "free_energy": -6.191, "intermolecular_energy": -7.638, "internal_energy": -0.067}

$$$$
cand_029_out
     RDKit          3D

 50 53  0  0  0  0  0  0  0  0999 V2000
  180.9410   18.1270   44.4830 C   0  0  0  0  0  0  0  0  0  0  0  0
  180.1450   18.4460   45.7390 C   0  0  0  0  0  0  0  0  0  0  0  0
  180.4340   19.8390   46.2550 C   0  0  0  0  0  0  0  0  0  0  0  0
  181.6930   20.4120   45.9910 C   0  0  0  0  0  0  0  0  0  0  0  0
  182.0330   21.6890   46.4610 C   0  0  0  0  0  0  0  0  0  0  0  0
  183.3550   22.2650   46.1360 C   0  0  0  0  0  0  0  0  0  0  0  0
  183.7000   23.3270   46.9640 O   0  0  0  0  0  0  0  0  0  0  0  0
  184.9030   23.9570   46.7720 C   0  0  0  0  0  0  0  0  0  0  0  0
  185.2130   25.0090   47.6340 C   0  0  0  0  0  0  0  0  0  0  0  0
  186.4210   25.6940   47.4910 C   0  0  0  0  0  0  0  0  0  0  0  0
  187.3190   25.3270   46.4850 C   0  0  0  0  0  0  0  0  0  0  0  0
  187.0060   24.2760   45.6260 C   0  0  0  0  0  0  0  0  0  0  0  0
  187.9300   23.9710   44.6640 O   0  0  0  0  0  0  0  0  0  0  0  0
  185.7970   23.5910   45.7710 C   0  0  0  0  0  0  0  0  0  0  0  0
  185.4300   22.4820   44.8880 C   0  0  0  0  0  0  0  0  0  0  0  0
  186.1640   22.1050   43.9770 O   0  0  0  0  0  0  0  0  0  0  0  0
  184.1280   21.8170   45.1290 C   0  0  0  0  0  0  0  0  0  0  0  0
  183.7860   20.7800   44.2820 O   0  0  0  0  0  0  0  0  0  0  0  0
  181.0780   22.3990   47.1940 C   0  0  0  0  0  0  0  0  0  0  0  0
  179.8270   21.8390   47.4700 C   0  0  0  0  0  0  0  0  0  0  0  0
  179.4890   20.5550   47.0170 C   0  0  0  0  0  0  0  0  0  0  0  0
  178.2300   19.9750   47.2860 N   0  0  0  0  0  0  0  0  0  0  0  0
  177.4980   20.6430   48.3730 C   0  0  0  0  0  0  0  0  0  0  0  0
  176.2800   19.7950   48.7450 C   0  0  0  0  0  0  0  0  0  0  0  0
  175.3970   19.5360   47.5260 C   0  0  0  0  0  0  0  0  0  0  0  0
  176.2110   18.9390   46.3790 C   0  0  0  0  0  0  0  0  0  0  0  0
  177.4360   19.7970   46.0600 C   0  0  0  0  0  0  0  0  0  0  0  0
  181.9279   17.7315   44.7650 H   0  0  0  0  0  0  0  0  0  0  0  0
  180.4013   17.3757   43.8878 H   0  0  0  0  0  0  0  0  0  0  0  0
  181.0695   19.0431   43.8878 H   0  0  0  0  0  0  0  0  0  0  0  0
  179.0722   18.3680   45.5089 H   0  0  0  0  0  0  0  0  0  0  0  0
  180.4381   17.7274   46.5186 H   0  0  0  0  0  0  0  0  0  0  0  0
  182.4279   19.8441   45.4016 H   0  0  0  0  0  0  0  0  0  0  0  0
  184.5063   25.2986   48.4257 H   0  0  0  0  0  0  0  0  0  0  0  0
  186.6662   26.5233   48.1707 H   0  0  0  0  0  0  0  0  0  0  0  0
  188.2707   25.8668   46.3718 H   0  0  0  0  0  0  0  0  0  0  0  0
  187.8630   24.3530   43.8110 H   0  0  0  0  0  0  0  0  0  0  0  0
  182.9910   20.3040   44.4210 H   0  0  0  0  0  0  0  0  0  0  0  0
  181.3133   23.4100   47.5579 H   0  0  0  0  0  0  0  0  0  0  0  0
  179.0942   22.4159   48.0532 H   0  0  0  0  0  0  0  0  0  0  0  0
  178.1547   20.7502   49.2489 H   0  0  0  0  0  0  0  0  0  0  0  0
  177.1711   21.6404   48.0440 H   0  0  0  0  0  0  0  0  0  0  0  0
  176.6232   18.8320   49.1511 H   0  0  0  0  0  0  0  0  0  0  0  0
  175.6892   20.3422   49.4943 H   0  0  0  0  0  0  0  0  0  0  0  0
  174.5972   18.8336   47.8035 H   0  0  0  0  0  0  0  0  0  0  0  0
  174.9697   20.4931   47.1923 H   0  0  0  0  0  0  0  0  0  0  0  0
  176.5447   17.9303   46.6638 H   0  0  0  0  0  0  0  0  0  0  0  0
  175.5724   18.9002   45.4842 H   0  0  0  0  0  0  0  0  0  0  0  0
  178.0472   19.2967   45.2944 H   0  0  0  0  0  0  0  0  0  0  0  0
  177.1135   20.7780   45.6809 H   0  0  0  0  0  0  0  0  0  0  0  0
  1  2  1  0
  2  3  1  0
  3  4  2  0
  4  5  1  0
  5  6  1  0
  6  7  1  0
  7  8  1  0
  8  9  2  0
  9 10  1  0
 10 11  2  0
 11 12  1  0
 12 13  1  0
 12 14  2  0
 14 15  1  0
 15 16  2  0
 15 17  1  0
 17 18  1  0
  5 19  2  0
 19 20  1  0
 20 21  2  0
 21 22  1  0
 22 23  1  0
 23 24  1  0
 24 25  1  0
 25 26  1  0
 26 27  1  0
 21  3  1  0
 27 22  1  0
 17  6  2  0
 14  8  1  0
  1 28  1  0
  1 29  1  0
  1 30  1  0
  2 31  1  0
  2 32  1  0
  4 33  1  0
  9 34  1  0
 10 35  1  0
 11 36  1  0
 13 37  1  0
 18 38  1  0
 19 39  1  0
 20 40  1  0
 23 41  1  0
 23 42  1  0
 24 43  1  0
 24 44  1  0
 25 45  1  0
 25 46  1  0
 26 47  1  0
 26 48  1  0
 27 49  1  0
 27 50  1  0
M  END
>  <meeko>  (2) 
{"is_sidechain": [false], "free_energy": -5.822, "intermolecular_energy": -7.466, "internal_energy": 0.216}

$$$$
cand_029_out
     RDKit          3D

 50 53  0  0  0  0  0  0  0  0999 V2000
  175.1220   18.8190   46.9090 C   0  0  0  0  0  0  0  0  0  0  0  0
  175.6810   20.2330   46.9660 C   0  0  0  0  0  0  0  0  0  0  0  0
  177.1900   20.2440   47.0720 C   0  0  0  0  0  0  0  0  0  0  0  0
  177.9290   19.3310   46.2940 C   0  0  0  0  0  0  0  0  0  0  0  0
  179.3290   19.2730   46.3620 C   0  0  0  0  0  0  0  0  0  0  0  0
  180.0680   18.3200   45.5070 C   0  0  0  0  0  0  0  0  0  0  0  0
  179.4760   17.0630   45.4610 O   0  0  0  0  0  0  0  0  0  0  0  0
  180.0600   16.0800   44.7040 C   0  0  0  0  0  0  0  0  0  0  0  0
  179.4250   14.8390   44.6770 C   0  0  0  0  0  0  0  0  0  0  0  0
  179.9680   13.7940   43.9270 C   0  0  0  0  0  0  0  0  0  0  0  0
  181.1480   13.9900   43.2050 C   0  0  0  0  0  0  0  0  0  0  0  0
  181.7800   15.2310   43.2340 C   0  0  0  0  0  0  0  0  0  0  0  0
  182.9310   15.3540   42.5050 O   0  0  0  0  0  0  0  0  0  0  0  0
  181.2350   16.2760   43.9840 C   0  0  0  0  0  0  0  0  0  0  0  0
  181.8680   17.5950   44.0420 C   0  0  0  0  0  0  0  0  0  0  0  0
  182.9100   17.8430   43.4400 O   0  0  0  0  0  0  0  0  0  0  0  0
  181.2060   18.6370   44.8610 C   0  0  0  0  0  0  0  0  0  0  0  0
  181.8200   19.8740   44.9190 O   0  0  0  0  0  0  0  0  0  0  0  0
  179.9870   20.1610   47.2180 C   0  0  0  0  0  0  0  0  0  0  0  0
  179.2640   21.0660   48.0010 C   0  0  0  0  0  0  0  0  0  0  0  0
  177.8630   21.1170   47.9490 C   0  0  0  0  0  0  0  0  0  0  0  0
  177.1180   22.0260   48.7320 N   0  0  0  0  0  0  0  0  0  0  0  0
  177.0890   23.3880   48.1780 C   0  0  0  0  0  0  0  0  0  0  0  0
  176.4780   24.3320   49.2150 C   0  0  0  0  0  0  0  0  0  0  0  0
  175.0930   23.8530   49.6460 C   0  0  0  0  0  0  0  0  0  0  0  0
  175.1400   22.4000   50.1170 C   0  0  0  0  0  0  0  0  0  0  0  0
  175.7870   21.4960   49.0670 C   0  0  0  0  0  0  0  0  0  0  0  0
  174.9730   18.4421   47.9316 H   0  0  0  0  0  0  0  0  0  0  0  0
  174.1592   18.8265   46.3771 H   0  0  0  0  0  0  0  0  0  0  0  0
  175.8297   18.1661   46.3771 H   0  0  0  0  0  0  0  0  0  0  0  0
  175.3857   20.7684   46.0516 H   0  0  0  0  0  0  0  0  0  0  0  0
  175.2746   20.7222   47.8635 H   0  0  0  0  0  0  0  0  0  0  0  0
  177.3955   18.6474   45.6172 H   0  0  0  0  0  0  0  0  0  0  0  0
  178.4967   14.6833   45.2463 H   0  0  0  0  0  0  0  0  0  0  0  0
  179.4663   12.8154   43.9045 H   0  0  0  0  0  0  0  0  0  0  0  0
  181.5768   13.1664   42.6152 H   0  0  0  0  0  0  0  0  0  0  0  0
  183.6250   15.9040   42.8120 H   0  0  0  0  0  0  0  0  0  0  0  0
  182.1740   20.1840   45.7300 H   0  0  0  0  0  0  0  0  0  0  0  0
  181.0854   20.1476   47.2762 H   0  0  0  0  0  0  0  0  0  0  0  0
  179.8042   21.7513   48.6708 H   0  0  0  0  0  0  0  0  0  0  0  0
  178.1132   23.7123   47.9416 H   0  0  0  0  0  0  0  0  0  0  0  0
  176.4853   23.4035   47.2586 H   0  0  0  0  0  0  0  0  0  0  0  0
  177.1350   24.3712   50.0964 H   0  0  0  0  0  0  0  0  0  0  0  0
  176.3776   25.3298   48.7630 H   0  0  0  0  0  0  0  0  0  0  0  0
  174.7330   24.4870   50.4697 H   0  0  0  0  0  0  0  0  0  0  0  0
  174.4138   23.9208   48.7834 H   0  0  0  0  0  0  0  0  0  0  0  0
  175.7243   22.3436   51.0473 H   0  0  0  0  0  0  0  0  0  0  0  0
  174.1087   22.0556   50.2835 H   0  0  0  0  0  0  0  0  0  0  0  0
  175.8865   20.4769   49.4689 H   0  0  0  0  0  0  0  0  0  0  0  0
  175.1601   21.4687   48.1635 H   0  0  0  0  0  0  0  0  0  0  0  0
  1  2  1  0
  2  3  1  0
  3  4  2  0
  4  5  1  0
  5  6  1  0
  6  7  1  0
  7  8  1  0
  8  9  2  0
  9 10  1  0
 10 11  2  0
 11 12  1  0
 12 13  1  0
 12 14  2  0
 14 15  1  0
 15 16  2  0
 15 17  1  0
 17 18  1  0
  5 19  2  0
 19 20  1  0
 20 21  2  0
 21 22  1  0
 22 23  1  0
 23 24  1  0
 24 25  1  0
 25 26  1  0
 26 27  1  0
 21  3  1  0
 27 22  1  0
 17  6  2  0
 14  8  1  0
  1 28  1  0
  1 29  1  0
  1 30  1  0
  2 31  1  0
  2 32  1  0
  4 33  1  0
  9 34  1  0
 10 35  1  0
 11 36  1  0
 13 37  1  0
 18 38  1  0
 19 39  1  0
 20 40  1  0
 23 41  1  0
 23 42  1  0
 24 43  1  0
 24 44  1  0
 25 45  1  0
 25 46  1  0
 26 47  1  0
 26 48  1  0
 27 49  1  0
 27 50  1  0
M  END
>  <meeko>  (3) 
{"is_sidechain": [false], "free_energy": -5.74, "intermolecular_energy": -8.17, "internal_energy": 1.02}

$$$$
cand_029_out
     RDKit          3D

 50 53  0  0  0  0  0  0  0  0999 V2000
  180.9630   18.2500   44.4260 C   0  0  0  0  0  0  0  0  0  0  0  0
  180.3960   18.4820   45.8190 C   0  0  0  0  0  0  0  0  0  0  0  0
  180.5850   19.9100   46.2780 C   0  0  0  0  0  0  0  0  0  0  0  0
  181.8310   20.5320   46.0640 C   0  0  0  0  0  0  0  0  0  0  0  0
  182.0800   21.8460   46.4870 C   0  0  0  0  0  0  0  0  0  0  0  0
  183.3920   22.4700   46.2160 C   0  0  0  0  0  0  0  0  0  0  0  0
  183.8420   22.2410   44.9200 O   0  0  0  0  0  0  0  0  0  0  0  0
  185.0500   22.7630   44.5340 C   0  0  0  0  0  0  0  0  0  0  0  0
  185.4560   22.5190   43.2210 C   0  0  0  0  0  0  0  0  0  0  0  0
  186.6760   23.0210   42.7650 C   0  0  0  0  0  0  0  0  0  0  0  0
  187.4910   23.7650   43.6200 C   0  0  0  0  0  0  0  0  0  0  0  0
  187.0830   24.0070   44.9300 C   0  0  0  0  0  0  0  0  0  0  0  0
  187.9300   24.7430   45.7130 O   0  0  0  0  0  0  0  0  0  0  0  0
  185.8620   23.5060   45.3850 C   0  0  0  0  0  0  0  0  0  0  0  0
  185.3960   23.7360   46.7550 C   0  0  0  0  0  0  0  0  0  0  0  0
  186.0600   24.3760   47.5680 O   0  0  0  0  0  0  0  0  0  0  0  0
  184.0840   23.1670   47.1370 C   0  0  0  0  0  0  0  0  0  0  0  0
  183.6610   23.3800   48.4360 O   0  0  0  0  0  0  0  0  0  0  0  0
  181.0480   22.5430   47.1210 C   0  0  0  0  0  0  0  0  0  0  0  0
  179.8090   21.9350   47.3470 C   0  0  0  0  0  0  0  0  0  0  0  0
  179.5610   20.6160   46.9410 C   0  0  0  0  0  0  0  0  0  0  0  0
  178.3150   19.9880   47.1600 N   0  0  0  0  0  0  0  0  0  0  0  0
  177.5330   20.6020   48.2450 C   0  0  0  0  0  0  0  0  0  0  0  0
  176.3350   19.7060   48.5610 C   0  0  0  0  0  0  0  0  0  0  0  0
  175.4930   19.4510   47.3130 C   0  0  0  0  0  0  0  0  0  0  0  0
  176.3560   18.9120   46.1730 C   0  0  0  0  0  0  0  0  0  0  0  0
  177.5600   19.8180   45.9090 C   0  0  0  0  0  0  0  0  0  0  0  0
  181.9782   17.8346   44.5079 H   0  0  0  0  0  0  0  0  0  0  0  0
  180.3202   17.5426   43.8816 H   0  0  0  0  0  0  0  0  0  0  0  0
  181.0004   19.2051   43.8816 H   0  0  0  0  0  0  0  0  0  0  0  0
  179.3203   18.2524   45.8071 H   0  0  0  0  0  0  0  0  0  0  0  0
  180.9356   17.8266   46.5184 H   0  0  0  0  0  0  0  0  0  0  0  0
  182.6285   19.9732   45.5524 H   0  0  0  0  0  0  0  0  0  0  0  0
  184.8154   21.9319   42.5465 H   0  0  0  0  0  0  0  0  0  0  0  0
  186.9958   22.8300   41.7300 H   0  0  0  0  0  0  0  0  0  0  0  0
  188.4529   24.1592   43.2603 H   0  0  0  0  0  0  0  0  0  0  0  0
  188.0810   24.4930   46.6040 H   0  0  0  0  0  0  0  0  0  0  0  0
  183.8640   24.1860   48.8680 H   0  0  0  0  0  0  0  0  0  0  0  0
  181.2120   23.5811   47.4458 H   0  0  0  0  0  0  0  0  0  0  0  0
  179.0139   22.5023   47.8529 H   0  0  0  0  0  0  0  0  0  0  0  0
  178.1628   20.7059   49.1409 H   0  0  0  0  0  0  0  0  0  0  0  0
  177.1822   21.5971   47.9342 H   0  0  0  0  0  0  0  0  0  0  0  0
  176.6991   18.7441   48.9511 H   0  0  0  0  0  0  0  0  0  0  0  0
  175.7069   20.2140   49.3076 H   0  0  0  0  0  0  0  0  0  0  0  0
  174.7103   18.7155   47.5508 H   0  0  0  0  0  0  0  0  0  0  0  0
  175.0424   20.4021   46.9930 H   0  0  0  0  0  0  0  0  0  0  0  0
  176.7157   17.9074   46.4403 H   0  0  0  0  0  0  0  0  0  0  0  0
  175.7424   18.8765   45.2608 H   0  0  0  0  0  0  0  0  0  0  0  0
  178.2071   19.3587   45.1472 H   0  0  0  0  0  0  0  0  0  0  0  0
  177.2154   20.7979   45.5469 H   0  0  0  0  0  0  0  0  0  0  0  0
  1  2  1  0
  2  3  1  0
  3  4  2  0
  4  5  1  0
  5  6  1  0
  6  7  1  0
  7  8  1  0
  8  9  2  0
  9 10  1  0
 10 11  2  0
 11 12  1  0
 12 13  1  0
 12 14  2  0
 14 15  1  0
 15 16  2  0
 15 17  1  0
 17 18  1  0
  5 19  2  0
 19 20  1  0
 20 21  2  0
 21 22  1  0
 22 23  1  0
 23 24  1  0
 24 25  1  0
 25 26  1  0
 26 27  1  0
 21  3  1  0
 27 22  1  0
 17  6  2  0
 14  8  1  0
  1 28  1  0
  1 29  1  0
  1 30  1  0
  2 31  1  0
  2 32  1  0
  4 33  1  0
  9 34  1  0
 10 35  1  0
 11 36  1  0
 13 37  1  0
 18 38  1  0
 19 39  1  0
 20 40  1  0
 23 41  1  0
 23 42  1  0
 24 43  1  0
 24 44  1  0
 25 45  1  0
 25 46  1  0
 26 47  1  0
 26 48  1  0
 27 49  1  0
 27 50  1  0
M  END
>  <meeko>  (4) 
{"is_sidechain": [false], "free_energy": -5.512, "intermolecular_energy": -6.615, "internal_energy": -0.254}

$$$$
cand_029_out
     RDKit          3D

 50 53  0  0  0  0  0  0  0  0999 V2000
  178.2270   15.7230   45.4920 C   0  0  0  0  0  0  0  0  0  0  0  0
  179.7140   16.0460   45.4640 C   0  0  0  0  0  0  0  0  0  0  0  0
  179.9710   17.5140   45.2030 C   0  0  0  0  0  0  0  0  0  0  0  0
  179.3780   18.4680   46.0540 C   0  0  0  0  0  0  0  0  0  0  0  0
  179.5570   19.8440   45.8540 C   0  0  0  0  0  0  0  0  0  0  0  0
  178.9420   20.8100   46.7880 C   0  0  0  0  0  0  0  0  0  0  0  0
  177.5580   20.6940   46.8520 O   0  0  0  0  0  0  0  0  0  0  0  0
  176.8580   21.5320   47.6810 C   0  0  0  0  0  0  0  0  0  0  0  0
  175.4730   21.3710   47.7230 C   0  0  0  0  0  0  0  0  0  0  0  0
  174.7010   22.1940   48.5460 C   0  0  0  0  0  0  0  0  0  0  0  0
  175.3130   23.1780   49.3250 C   0  0  0  0  0  0  0  0  0  0  0  0
  176.6960   23.3360   49.2810 C   0  0  0  0  0  0  0  0  0  0  0  0
  177.2300   24.3190   50.0690 O   0  0  0  0  0  0  0  0  0  0  0  0
  177.4680   22.5120   48.4590 C   0  0  0  0  0  0  0  0  0  0  0  0
  178.9240   22.6450   48.3820 C   0  0  0  0  0  0  0  0  0  0  0  0
  179.5350   23.4910   49.0330 O   0  0  0  0  0  0  0  0  0  0  0  0
  179.6510   21.7180   47.4840 C   0  0  0  0  0  0  0  0  0  0  0  0
  181.0240   21.8630   47.4100 O   0  0  0  0  0  0  0  0  0  0  0  0
  180.3590   20.2570   44.7860 C   0  0  0  0  0  0  0  0  0  0  0  0
  180.9450   19.3220   43.9280 C   0  0  0  0  0  0  0  0  0  0  0  0
  180.7560   17.9440   44.1150 C   0  0  0  0  0  0  0  0  0  0  0  0
  181.3420   16.9860   43.2600 N   0  0  0  0  0  0  0  0  0  0  0  0
  181.5230   15.6700   43.8920 C   0  0  0  0  0  0  0  0  0  0  0  0
  182.3800   14.7940   42.9770 C   0  0  0  0  0  0  0  0  0  0  0  0
  181.7640   14.6860   41.5830 C   0  0  0  0  0  0  0  0  0  0  0  0
  181.4920   16.0720   40.9990 C   0  0  0  0  0  0  0  0  0  0  0  0
  180.6620   16.9270   41.9570 C   0  0  0  0  0  0  0  0  0  0  0  0
  177.8874   15.6492   46.5357 H   0  0  0  0  0  0  0  0  0  0  0  0
  177.6688   16.5208   44.9803 H   0  0  0  0  0  0  0  0  0  0  0  0
  178.0501   14.7655   44.9803 H   0  0  0  0  0  0  0  0  0  0  0  0
  180.1544   15.7757   46.4351 H   0  0  0  0  0  0  0  0  0  0  0  0
  180.1710   15.4706   44.6455 H   0  0  0  0  0  0  0  0  0  0  0  0
  178.7593   18.1245   46.8961 H   0  0  0  0  0  0  0  0  0  0  0  0
  174.9896   20.5970   47.1088 H   0  0  0  0  0  0  0  0  0  0  0  0
  173.6089   22.0668   48.5806 H   0  0  0  0  0  0  0  0  0  0  0  0
  174.7043   23.8268   49.9719 H   0  0  0  0  0  0  0  0  0  0  0  0
  178.0760   24.6710   49.8720 H   0  0  0  0  0  0  0  0  0  0  0  0
  181.5430   21.8070   48.1890 H   0  0  0  0  0  0  0  0  0  0  0  0
  180.5309   21.3306   44.6189 H   0  0  0  0  0  0  0  0  0  0  0  0
  181.5659   19.6728   43.0905 H   0  0  0  0  0  0  0  0  0  0  0  0
  182.0259   15.7927   44.8626 H   0  0  0  0  0  0  0  0  0  0  0  0
  180.5435   15.1955   44.0514 H   0  0  0  0  0  0  0  0  0  0  0  0
  183.3835   15.2366   42.8929 H   0  0  0  0  0  0  0  0  0  0  0  0
  182.4371   13.7855   43.4125 H   0  0  0  0  0  0  0  0  0  0  0  0
  182.4592   14.1469   40.9227 H   0  0  0  0  0  0  0  0  0  0  0  0
  180.8102   14.1437   41.6609 H   0  0  0  0  0  0  0  0  0  0  0  0
  182.4516   16.5754   40.8097 H   0  0  0  0  0  0  0  0  0  0  0  0
  180.9251   15.9491   40.0644 H   0  0  0  0  0  0  0  0  0  0  0  0
  180.5588   17.9432   41.5488 H   0  0  0  0  0  0  0  0  0  0  0  0
  179.6630   16.4833   42.0796 H   0  0  0  0  0  0  0  0  0  0  0  0
  1  2  1  0
  2  3  1  0
  3  4  2  0
  4  5  1  0
  5  6  1  0
  6  7  1  0
  7  8  1  0
  8  9  2  0
  9 10  1  0
 10 11  2  0
 11 12  1  0
 12 13  1  0
 12 14  2  0
 14 15  1  0
 15 16  2  0
 15 17  1  0
 17 18  1  0
  5 19  2  0
 19 20  1  0
 20 21  2  0
 21 22  1  0
 22 23  1  0
 23 24  1  0
 24 25  1  0
 25 26  1  0
 26 27  1  0
 21  3  1  0
 27 22  1  0
 17  6  2  0
 14  8  1  0
  1 28  1  0
  1 29  1  0
  1 30  1  0
  2 31  1  0
  2 32  1  0
  4 33  1  0
  9 34  1  0
 10 35  1  0
 11 36  1  0
 13 37  1  0
 18 38  1  0
 19 39  1  0
 20 40  1  0
 23 41  1  0
 23 42  1  0
 24 43  1  0
 24 44  1  0
 25 45  1  0
 25 46  1  0
 26 47  1  0
 26 48  1  0
 27 49  1  0
 27 50  1  0
M  END
>  <meeko>  (5) 
{"is_sidechain": [false], "free_energy": -5.486, "intermolecular_energy": -7.655, "internal_energy": 0.818}

$$$$
cand_029_out
     RDKit          3D

 50 53  0  0  0  0  0  0  0  0999 V2000
  175.1100   19.3800   47.7400 C   0  0  0  0  0  0  0  0  0  0  0  0
  175.9010   19.8600   48.9480 C   0  0  0  0  0  0  0  0  0  0  0  0
  176.1160   21.3570   48.9270 C   0  0  0  0  0  0  0  0  0  0  0  0
  175.1480   22.1890   49.5230 C   0  0  0  0  0  0  0  0  0  0  0  0
  175.2740   23.5860   49.5180 C   0  0  0  0  0  0  0  0  0  0  0  0
  174.2500   24.4200   50.1800 C   0  0  0  0  0  0  0  0  0  0  0  0
  174.5570   24.7010   51.5070 O   0  0  0  0  0  0  0  0  0  0  0  0
  173.6890   25.4660   52.2430 C   0  0  0  0  0  0  0  0  0  0  0  0
  174.0430   25.7330   53.5660 C   0  0  0  0  0  0  0  0  0  0  0  0
  173.2020   26.5040   54.3700 C   0  0  0  0  0  0  0  0  0  0  0  0
  172.0070   27.0090   53.8520 C   0  0  0  0  0  0  0  0  0  0  0  0
  171.6560   26.7410   52.5310 C   0  0  0  0  0  0  0  0  0  0  0  0
  170.4720   27.2660   52.0890 O   0  0  0  0  0  0  0  0  0  0  0  0
  172.4990   25.9700   51.7270 C   0  0  0  0  0  0  0  0  0  0  0  0
  172.1670   25.6640   50.3340 C   0  0  0  0  0  0  0  0  0  0  0  0
  171.1310   26.0670   49.8080 O   0  0  0  0  0  0  0  0  0  0  0  0
  173.1300   24.8430   49.5640 C   0  0  0  0  0  0  0  0  0  0  0  0
  172.8000   24.5500   48.2540 O   0  0  0  0  0  0  0  0  0  0  0  0
  176.4050   24.1450   48.9140 C   0  0  0  0  0  0  0  0  0  0  0  0
  177.3690   23.3310   48.3120 C   0  0  0  0  0  0  0  0  0  0  0  0
  177.2380   21.9340   48.3000 C   0  0  0  0  0  0  0  0  0  0  0  0
  178.2030   21.0980   47.6980 N   0  0  0  0  0  0  0  0  0  0  0  0
  178.0240   20.9500   46.2450 C   0  0  0  0  0  0  0  0  0  0  0  0
  178.9530   19.8440   45.7410 C   0  0  0  0  0  0  0  0  0  0  0  0
  180.4050   20.1300   46.1190 C   0  0  0  0  0  0  0  0  0  0  0  0
  180.5390   20.3830   47.6200 C   0  0  0  0  0  0  0  0  0  0  0  0
  179.5720   21.4710   48.0890 C   0  0  0  0  0  0  0  0  0  0  0  0
  174.2155   18.8372   48.0795 H   0  0  0  0  0  0  0  0  0  0  0  0
  174.8054   20.2457   47.1336 H   0  0  0  0  0  0  0  0  0  0  0  0
  175.7373   18.7101   47.1336 H   0  0  0  0  0  0  0  0  0  0  0  0
  175.3500   19.5933   49.8619 H   0  0  0  0  0  0  0  0  0  0  0  0
  176.8879   19.3749   48.9221 H   0  0  0  0  0  0  0  0  0  0  0  0
  174.2711   21.7316   50.0045 H   0  0  0  0  0  0  0  0  0  0  0  0
  174.9839   25.3363   53.9749 H   0  0  0  0  0  0  0  0  0  0  0  0
  173.4806   26.7143   55.4131 H   0  0  0  0  0  0  0  0  0  0  0  0
  171.3447   27.6169   54.4859 H   0  0  0  0  0  0  0  0  0  0  0  0
  169.7870   26.6970   51.7970 H   0  0  0  0  0  0  0  0  0  0  0  0
  172.4640   23.7030   48.0340 H   0  0  0  0  0  0  0  0  0  0  0  0
  176.5374   25.2370   48.9127 H   0  0  0  0  0  0  0  0  0  0  0  0
  178.2471   23.7946   47.8386 H   0  0  0  0  0  0  0  0  0  0  0  0
  176.9795   20.6826   46.0270 H   0  0  0  0  0  0  0  0  0  0  0  0
  178.2656   21.8977   45.7415 H   0  0  0  0  0  0  0  0  0  0  0  0
  178.6473   18.8867   46.1883 H   0  0  0  0  0  0  0  0  0  0  0  0
  178.8800   19.7995   44.6443 H   0  0  0  0  0  0  0  0  0  0  0  0
  181.0259   19.2650   45.8429 H   0  0  0  0  0  0  0  0  0  0  0  0
  180.7373   21.0297   45.5803 H   0  0  0  0  0  0  0  0  0  0  0  0
  180.3195   19.4510   48.1614 H   0  0  0  0  0  0  0  0  0  0  0  0
  181.5660   20.7197   47.8249 H   0  0  0  0  0  0  0  0  0  0  0  0
  179.6292   21.5683   49.1832 H   0  0  0  0  0  0  0  0  0  0  0  0
  179.8415   22.4317   47.6260 H   0  0  0  0  0  0  0  0  0  0  0  0
  1  2  1  0
  2  3  1  0
  3  4  2  0
  4  5  1  0
  5  6  1  0
  6  7  1  0
  7  8  1  0
  8  9  2  0
  9 10  1  0
 10 11  2  0
 11 12  1  0
 12 13  1  0
 12 14  2  0
 14 15  1  0
 15 16  2  0
 15 17  1  0
 17 18  1  0
  5 19  2  0
 19 20  1  0
 20 21  2  0
 21 22  1  0
 22 23  1  0
 23 24  1  0
 24 25  1  0
 25 26  1  0
 26 27  1  0
 21  3  1  0
 27 22  1  0
 17  6  2  0
 14  8  1  0
  1 28  1  0
  1 29  1  0
  1 30  1  0
  2 31  1  0
  2 32  1  0
  4 33  1  0
  9 34  1  0
 10 35  1  0
 11 36  1  0
 13 37  1  0
 18 38  1  0
 19 39  1  0
 20 40  1  0
 23 41  1  0
 23 42  1  0
 24 43  1  0
 24 44  1  0
 25 45  1  0
 25 46  1  0
 26 47  1  0
 26 48  1  0
 27 49  1  0
 27 50  1  0
M  END
>  <meeko>  (6) 
{"is_sidechain": [false], "free_energy": -5.103, "intermolecular_energy": -5.516, "internal_energy": -0.848}

$$$$
cand_029_out
     RDKit          3D

 50 53  0  0  0  0  0  0  0  0999 V2000
  178.6240   24.0270   48.2020 C   0  0  0  0  0  0  0  0  0  0  0  0
  178.2340   22.8740   47.2890 C   0  0  0  0  0  0  0  0  0  0  0  0
  179.3700   21.8920   47.0990 C   0  0  0  0  0  0  0  0  0  0  0  0
  180.6390   22.3860   46.7370 C   0  0  0  0  0  0  0  0  0  0  0  0
  181.7270   21.5280   46.5220 C   0  0  0  0  0  0  0  0  0  0  0  0
  183.0490   22.0890   46.1730 C   0  0  0  0  0  0  0  0  0  0  0  0
  183.4290   23.1360   47.0050 O   0  0  0  0  0  0  0  0  0  0  0  0
  184.6360   23.7520   46.7910 C   0  0  0  0  0  0  0  0  0  0  0  0
  184.9810   24.7890   47.6580 C   0  0  0  0  0  0  0  0  0  0  0  0
  186.1950   25.4580   47.4940 C   0  0  0  0  0  0  0  0  0  0  0  0
  187.0630   25.0920   46.4630 C   0  0  0  0  0  0  0  0  0  0  0  0
  186.7150   24.0560   45.5990 C   0  0  0  0  0  0  0  0  0  0  0  0
  187.6110   23.7500   44.6120 O   0  0  0  0  0  0  0  0  0  0  0  0
  185.5010   23.3860   45.7640 C   0  0  0  0  0  0  0  0  0  0  0  0
  185.0970   22.2930   44.8780 C   0  0  0  0  0  0  0  0  0  0  0  0
  185.8030   21.9170   43.9450 O   0  0  0  0  0  0  0  0  0  0  0  0
  183.7920   21.6430   45.1420 C   0  0  0  0  0  0  0  0  0  0  0  0
  183.4150   20.6210   44.2910 O   0  0  0  0  0  0  0  0  0  0  0  0
  181.5300   20.1540   46.6920 C   0  0  0  0  0  0  0  0  0  0  0  0
  180.2740   19.6510   47.0430 C   0  0  0  0  0  0  0  0  0  0  0  0
  179.1780   20.5040   47.2420 C   0  0  0  0  0  0  0  0  0  0  0  0
  177.9030   20.0120   47.5980 N   0  0  0  0  0  0  0  0  0  0  0  0
  177.2700   20.7660   48.6920 C   0  0  0  0  0  0  0  0  0  0  0  0
  176.0250   20.0090   49.1600 C   0  0  0  0  0  0  0  0  0  0  0  0
  175.0650   19.7570   47.9990 C   0  0  0  0  0  0  0  0  0  0  0  0
  175.7810   19.0680   46.8380 C   0  0  0  0  0  0  0  0  0  0  0  0
  177.0360   19.8370   46.4220 C   0  0  0  0  0  0  0  0  0  0  0  0
  178.5186   23.7154   49.2516 H   0  0  0  0  0  0  0  0  0  0  0  0
  179.6685   24.3118   48.0072 H   0  0  0  0  0  0  0  0  0  0  0  0
  177.9669   24.8874   48.0072 H   0  0  0  0  0  0  0  0  0  0  0  0
  177.3773   22.3447   47.7316 H   0  0  0  0  0  0  0  0  0  0  0  0
  177.9779   23.2920   46.3043 H   0  0  0  0  0  0  0  0  0  0  0  0
  180.7795   23.4707   46.6203 H   0  0  0  0  0  0  0  0  0  0  0  0
  184.2974   25.0790   48.4696 H   0  0  0  0  0  0  0  0  0  0  0  0
  186.4685   26.2749   48.1780 H   0  0  0  0  0  0  0  0  0  0  0  0
  188.0191   25.6204   46.3334 H   0  0  0  0  0  0  0  0  0  0  0  0
  187.3180   23.6420   43.7280 H   0  0  0  0  0  0  0  0  0  0  0  0
  182.5090   20.4070   44.1890 H   0  0  0  0  0  0  0  0  0  0  0  0
  182.3725   19.4616   46.5480 H   0  0  0  0  0  0  0  0  0  0  0  0
  180.1424   18.5658   47.1655 H   0  0  0  0  0  0  0  0  0  0  0  0
  177.9772   20.8667   49.5285 H   0  0  0  0  0  0  0  0  0  0  0  0
  176.9860   21.7682   48.3384 H   0  0  0  0  0  0  0  0  0  0  0  0
  176.3317   19.0434   49.5884 H   0  0  0  0  0  0  0  0  0  0  0  0
  175.5078   20.6202   49.9142 H   0  0  0  0  0  0  0  0  0  0  0  0
  174.2414   19.1155   48.3456 H   0  0  0  0  0  0  0  0  0  0  0  0
  174.6772   20.7246   47.6477 H   0  0  0  0  0  0  0  0  0  0  0  0
  176.0694   18.0525   47.1472 H   0  0  0  0  0  0  0  0  0  0  0  0
  175.0948   19.0339   45.9789 H   0  0  0  0  0  0  0  0  0  0  0  0
  177.5750   19.2717   45.6474 H   0  0  0  0  0  0  0  0  0  0  0  0
  176.7525   20.8208   46.0198 H   0  0  0  0  0  0  0  0  0  0  0  0
  1  2  1  0
  2  3  1  0
  3  4  2  0
  4  5  1  0
  5  6  1  0
  6  7  1  0
  7  8  1  0
  8  9  2  0
  9 10  1  0
 10 11  2  0
 11 12  1  0
 12 13  1  0
 12 14  2  0
 14 15  1  0
 15 16  2  0
 15 17  1  0
 17 18  1  0
  5 19  2  0
 19 20  1  0
 20 21  2  0
 21 22  1  0
 22 23  1  0
 23 24  1  0
 24 25  1  0
 25 26  1  0
 26 27  1  0
 21  3  1  0
 27 22  1  0
 17  6  2  0
 14  8  1  0
  1 28  1  0
  1 29  1  0
  1 30  1  0
  2 31  1  0
  2 32  1  0
  4 33  1  0
  9 34  1  0
 10 35  1  0
 11 36  1  0
 13 37  1  0
 18 38  1  0
 19 39  1  0
 20 40  1  0
 23 41  1  0
 23 42  1  0
 24 43  1  0
 24 44  1  0
 25 45  1  0
 25 46  1  0
 26 47  1  0
 26 48  1  0
 27 49  1  0
 27 50  1  0
M  END
>  <meeko>  (7) 
{"is_sidechain": [false], "free_energy": -5.057, "intermolecular_energy": -6.802, "internal_energy": 0.495}

$$$$
cand_029_out
     RDKit          3D

 50 53  0  0  0  0  0  0  0  0999 V2000
  178.3920   23.9900   47.4210 C   0  0  0  0  0  0  0  0  0  0  0  0
  178.0690   22.5040   47.4790 C   0  0  0  0  0  0  0  0  0  0  0  0
  179.2740   21.6480   47.1620 C   0  0  0  0  0  0  0  0  0  0  0  0
  180.5200   22.2760   46.9690 C   0  0  0  0  0  0  0  0  0  0  0  0
  181.6730   21.5430   46.6490 C   0  0  0  0  0  0  0  0  0  0  0  0
  182.9660   22.2400   46.4850 C   0  0  0  0  0  0  0  0  0  0  0  0
  183.4860   22.1170   45.2010 O   0  0  0  0  0  0  0  0  0  0  0  0
  184.6850   22.7150   44.9100 C   0  0  0  0  0  0  0  0  0  0  0  0
  185.1620   22.5770   43.6060 C   0  0  0  0  0  0  0  0  0  0  0  0
  186.3780   23.1600   43.2440 C   0  0  0  0  0  0  0  0  0  0  0  0
  187.1170   23.8800   44.1850 C   0  0  0  0  0  0  0  0  0  0  0  0
  186.6380   24.0170   45.4860 C   0  0  0  0  0  0  0  0  0  0  0  0
  187.4120   24.7340   46.3570 O   0  0  0  0  0  0  0  0  0  0  0  0
  185.4210   23.4340   45.8470 C   0  0  0  0  0  0  0  0  0  0  0  0
  184.8820   23.5520   47.2030 C   0  0  0  0  0  0  0  0  0  0  0  0
  185.4760   24.1650   48.0880 O   0  0  0  0  0  0  0  0  0  0  0  0
  183.5800   22.9030   47.4820 C   0  0  0  0  0  0  0  0  0  0  0  0
  183.0870   23.0100   48.7700 O   0  0  0  0  0  0  0  0  0  0  0  0
  181.5620   20.1540   46.5390 C   0  0  0  0  0  0  0  0  0  0  0  0
  180.3300   19.5180   46.7200 C   0  0  0  0  0  0  0  0  0  0  0  0
  179.1720   20.2490   47.0230 C   0  0  0  0  0  0  0  0  0  0  0  0
  177.9210   19.6230   47.2100 N   0  0  0  0  0  0  0  0  0  0  0  0
  177.0830   20.2810   48.2250 C   0  0  0  0  0  0  0  0  0  0  0  0
  175.8740   19.3920   48.5230 C   0  0  0  0  0  0  0  0  0  0  0  0
  175.0960   19.0730   47.2480 C   0  0  0  0  0  0  0  0  0  0  0  0
  176.0180   18.4880   46.1780 C   0  0  0  0  0  0  0  0  0  0  0  0
  177.2290   19.3900   45.9330 C   0  0  0  0  0  0  0  0  0  0  0  0
  178.4782   24.3867   48.4434 H   0  0  0  0  0  0  0  0  0  0  0  0
  179.3433   24.1380   46.8889 H   0  0  0  0  0  0  0  0  0  0  0  0
  177.5880   24.5195   46.8889 H   0  0  0  0  0  0  0  0  0  0  0  0
  177.7147   22.2571   48.4907 H   0  0  0  0  0  0  0  0  0  0  0  0
  177.2968   22.2952   46.7240 H   0  0  0  0  0  0  0  0  0  0  0  0
  180.5910   23.3689   47.0718 H   0  0  0  0  0  0  0  0  0  0  0  0
  184.5808   22.0096   42.8642 H   0  0  0  0  0  0  0  0  0  0  0  0
  186.7544   23.0520   42.2161 H   0  0  0  0  0  0  0  0  0  0  0  0
  188.0755   24.3381   43.8996 H   0  0  0  0  0  0  0  0  0  0  0  0
  187.2750   24.6560   47.2800 H   0  0  0  0  0  0  0  0  0  0  0  0
  182.9920   22.2440   49.3000 H   0  0  0  0  0  0  0  0  0  0  0  0
  182.4544   19.5541   46.3073 H   0  0  0  0  0  0  0  0  0  0  0  0
  180.2678   18.4241   46.6230 H   0  0  0  0  0  0  0  0  0  0  0  0
  177.6669   20.4306   49.1452 H   0  0  0  0  0  0  0  0  0  0  0  0
  176.7434   21.2581   47.8509 H   0  0  0  0  0  0  0  0  0  0  0  0
  176.2226   18.4519   48.9754 H   0  0  0  0  0  0  0  0  0  0  0  0
  175.2072   19.9302   49.2127 H   0  0  0  0  0  0  0  0  0  0  0  0
  174.3064   18.3435   47.4810 H   0  0  0  0  0  0  0  0  0  0  0  0
  174.6567   20.0047   46.8621 H   0  0  0  0  0  0  0  0  0  0  0  0
  176.3689   17.4994   46.5091 H   0  0  0  0  0  0  0  0  0  0  0  0
  175.4511   18.4058   45.2389 H   0  0  0  0  0  0  0  0  0  0  0  0
  177.9153   18.9014   45.2258 H   0  0  0  0  0  0  0  0  0  0  0  0
  176.8971   20.3499   45.5105 H   0  0  0  0  0  0  0  0  0  0  0  0
  1  2  1  0
  2  3  1  0
  3  4  2  0
  4  5  1  0
  5  6  1  0
  6  7  1  0
  7  8  1  0
  8  9  2  0
  9 10  1  0
 10 11  2  0
 11 12  1  0
 12 13  1  0
 12 14  2  0
 14 15  1  0
 15 16  2  0
 15 17  1  0
 17 18  1  0
  5 19  2  0
 19 20  1  0
 20 21  2  0
 21 22  1  0
 22 23  1  0
 23 24  1  0
 24 25  1  0
 25 26  1  0
 26 27  1  0
 21  3  1  0
 27 22  1  0
 17  6  2  0
 14  8  1  0
  1 28  1  0
  1 29  1  0
  1 30  1  0
  2 31  1  0
  2 32  1  0
  4 33  1  0
  9 34  1  0
 10 35  1  0
 11 36  1  0
 13 37  1  0
 18 38  1  0
 19 39  1  0
 20 40  1  0
 23 41  1  0
 23 42  1  0
 24 43  1  0
 24 44  1  0
 25 45  1  0
 25 46  1  0
 26 47  1  0
 26 48  1  0
 27 49  1  0
 27 50  1  0
M  END
>  <meeko>  (8) 
{"is_sidechain": [false], "free_energy": -4.956, "intermolecular_energy": -6.761, "internal_energy": 0.579}

$$$$
cand_029_out
     RDKit          3D

 50 53  0  0  0  0  0  0  0  0999 V2000
  184.5230   23.7480   43.2640 C   0  0  0  0  0  0  0  0  0  0  0  0
  184.9130   22.6000   44.1830 C   0  0  0  0  0  0  0  0  0  0  0  0
  184.0820   22.5760   45.4470 C   0  0  0  0  0  0  0  0  0  0  0  0
  182.8500   21.8930   45.4350 C   0  0  0  0  0  0  0  0  0  0  0  0
  182.0200   21.8530   46.5650 C   0  0  0  0  0  0  0  0  0  0  0  0
  180.7490   21.1000   46.5190 C   0  0  0  0  0  0  0  0  0  0  0  0
  179.6580   21.8560   46.9310 O   0  0  0  0  0  0  0  0  0  0  0  0
  178.4140   21.2790   46.9390 C   0  0  0  0  0  0  0  0  0  0  0  0
  177.3460   22.0790   47.3470 C   0  0  0  0  0  0  0  0  0  0  0  0
  176.0540   21.5510   47.3800 C   0  0  0  0  0  0  0  0  0  0  0  0
  175.8290   20.2250   47.0060 C   0  0  0  0  0  0  0  0  0  0  0  0
  176.8970   19.4290   46.5980 C   0  0  0  0  0  0  0  0  0  0  0  0
  176.6060   18.1390   46.2460 O   0  0  0  0  0  0  0  0  0  0  0  0
  178.1900   19.9580   46.5650 C   0  0  0  0  0  0  0  0  0  0  0  0
  179.3400   19.1550   46.1440 C   0  0  0  0  0  0  0  0  0  0  0  0
  179.2240   17.9790   45.8060 O   0  0  0  0  0  0  0  0  0  0  0  0
  180.6680   19.8120   46.1380 C   0  0  0  0  0  0  0  0  0  0  0  0
  181.7480   19.0400   45.7510 O   0  0  0  0  0  0  0  0  0  0  0  0
  182.4530   22.5010   47.7260 C   0  0  0  0  0  0  0  0  0  0  0  0
  183.6700   23.1900   47.7480 C   0  0  0  0  0  0  0  0  0  0  0  0
  184.4950   23.2470   46.6150 C   0  0  0  0  0  0  0  0  0  0  0  0
  185.7270   23.9360   46.6210 N   0  0  0  0  0  0  0  0  0  0  0  0
  185.5920   25.3760   46.3520 C   0  0  0  0  0  0  0  0  0  0  0  0
  186.9850   25.9720   46.1360 C   0  0  0  0  0  0  0  0  0  0  0  0
  187.8960   25.6890   47.3290 C   0  0  0  0  0  0  0  0  0  0  0  0
  187.9300   24.1950   47.6470 C   0  0  0  0  0  0  0  0  0  0  0  0
  186.5190   23.6310   47.8230 C   0  0  0  0  0  0  0  0  0  0  0  0
  184.2275   24.6178   43.8690 H   0  0  0  0  0  0  0  0  0  0  0  0
  185.3802   24.0170   42.6293 H   0  0  0  0  0  0  0  0  0  0  0  0
  183.6793   23.4392   42.6293 H   0  0  0  0  0  0  0  0  0  0  0  0
  184.7692   21.6509   43.6458 H   0  0  0  0  0  0  0  0  0  0  0  0
  185.9652   22.7394   44.4717 H   0  0  0  0  0  0  0  0  0  0  0  0
  182.5310   21.3783   44.5167 H   0  0  0  0  0  0  0  0  0  0  0  0
  177.5218   23.1240   47.6422 H   0  0  0  0  0  0  0  0  0  0  0  0
  175.2116   22.1811   47.7014 H   0  0  0  0  0  0  0  0  0  0  0  0
  174.8108   19.8097   47.0334 H   0  0  0  0  0  0  0  0  0  0  0  0
  176.7610   17.8470   45.3690 H   0  0  0  0  0  0  0  0  0  0  0  0
  182.2100   19.2430   44.9610 H   0  0  0  0  0  0  0  0  0  0  0  0
  181.8298   22.4685   48.6318 H   0  0  0  0  0  0  0  0  0  0  0  0
  183.9862   23.6969   48.6716 H   0  0  0  0  0  0  0  0  0  0  0  0
  184.9814   25.5275   45.4497 H   0  0  0  0  0  0  0  0  0  0  0  0
  185.1028   25.8704   47.2042 H   0  0  0  0  0  0  0  0  0  0  0  0
  187.4289   25.5292   45.2322 H   0  0  0  0  0  0  0  0  0  0  0  0
  186.8849   27.0617   46.0239 H   0  0  0  0  0  0  0  0  0  0  0  0
  188.9148   26.0302   47.0931 H   0  0  0  0  0  0  0  0  0  0  0  0
  187.5042   26.2259   48.2054 H   0  0  0  0  0  0  0  0  0  0  0  0
  188.4274   23.6644   46.8218 H   0  0  0  0  0  0  0  0  0  0  0  0
  188.4801   24.0534   48.5890 H   0  0  0  0  0  0  0  0  0  0  0  0
  186.5723   22.5412   47.9626 H   0  0  0  0  0  0  0  0  0  0  0  0
  186.0448   24.0856   48.7053 H   0  0  0  0  0  0  0  0  0  0  0  0
  1  2  1  0
  2  3  1  0
  3  4  2  0
  4  5  1  0
  5  6  1  0
  6  7  1  0
  7  8  1  0
  8  9  2  0
  9 10  1  0
 10 11  2  0
 11 12  1  0
 12 13  1  0
 12 14  2  0
 14 15  1  0
 15 16  2  0
 15 17  1  0
 17 18  1  0
  5 19  2  0
 19 20  1  0
 20 21  2  0
 21 22  1  0
 22 23  1  0
 23 24  1  0
 24 25  1  0
 25 26  1  0
 26 27  1  0
 21  3  1  0
 27 22  1  0
 17  6  2  0
 14  8  1  0
  1 28  1  0
  1 29  1  0
  1 30  1  0
  2 31  1  0
  2 32  1  0
  4 33  1  0
  9 34  1  0
 10 35  1  0
 11 36  1  0
 13 37  1  0
 18 38  1  0
 19 39  1  0
 20 40  1  0
 23 41  1  0
 23 42  1  0
 24 43  1  0
 24 44  1  0
 25 45  1  0
 25 46  1  0
 26 47  1  0
 26 48  1  0
 27 49  1  0
 27 50  1  0
M  END
>  <meeko>  (9) 
{"is_sidechain": [false], "free_energy": -4.726, "intermolecular_energy": -5.289, "internal_energy": -0.61}

$$$$
