cand_039_out
     RDKit          3D

 41 43  0  0  0  0  0  0  0  0999 V2000
  181.2900   15.1510   41.3300 C   0  0  0  0  0  0  0  0  0  0  0  0
  182.0380   15.1980   42.6540 C   0  0  0  0  0  0  0  0  0  0  0  0
  181.4330   16.2000   43.6100 C   0  0  0  0  0  0  0  0  0  0  0  0
  181.7910   17.5520   43.4640 C   0  0  0  0  0  0  0  0  0  0  0  0
  181.2640   18.5330   44.3060 C   0  0  0  0  0  0  0  0  0  0  0  0
  180.3670   18.1950   45.3230 C   0  0  0  0  0  0  0  0  0  0  0  0
  179.8030   19.2510   46.1910 C   0  0  0  0  0  0  0  0  0  0  0  0
  178.4130   19.2560   46.2010 O   0  0  0  0  0  0  0  0  0  0  0  0
  177.7580   20.1870   46.9670 C   0  0  0  0  0  0  0  0  0  0  0  0
  176.3640   20.1460   46.9590 C   0  0  0  0  0  0  0  0  0  0  0  0
  175.6360   21.0670   47.7160 C   0  0  0  0  0  0  0  0  0  0  0  0
  176.3020   22.0280   48.4790 C   0  0  0  0  0  0  0  0  0  0  0  0
  177.6940   22.0670   48.4840 C   0  0  0  0  0  0  0  0  0  0  0  0
  178.2820   23.0330   49.2530 O   0  0  0  0  0  0  0  0  0  0  0  0
  178.4230   21.1440   47.7280 C   0  0  0  0  0  0  0  0  0  0  0  0
  179.8850   21.1500   47.7050 C   0  0  0  0  0  0  0  0  0  0  0  0
  180.5430   21.9690   48.3440 O   0  0  0  0  0  0  0  0  0  0  0  0
  180.5620   20.1250   46.8770 C   0  0  0  0  0  0  0  0  0  0  0  0
  181.9440   20.1490   46.8530 O   0  0  0  0  0  0  0  0  0  0  0  0
  179.9950   16.8500   45.4580 C   0  0  0  0  0  0  0  0  0  0  0  0
  180.5110   15.8450   44.6140 C   0  0  0  0  0  0  0  0  0  0  0  0
  180.0660   14.4200   44.8580 C   0  0  0  0  0  0  0  0  0  0  0  0
  178.8290   14.0650   44.0450 C   0  0  0  0  0  0  0  0  0  0  0  0
  180.2090   15.0831   41.5218 H   0  0  0  0  0  0  0  0  0  0  0  0
  181.5038   16.0643   40.7555 H   0  0  0  0  0  0  0  0  0  0  0  0
  181.6164   14.2716   40.7555 H   0  0  0  0  0  0  0  0  0  0  0  0
  182.0044   14.2006   43.1166 H   0  0  0  0  0  0  0  0  0  0  0  0
  183.0737   15.5064   42.4487 H   0  0  0  0  0  0  0  0  0  0  0  0
  182.4983   17.8416   42.6729 H   0  0  0  0  0  0  0  0  0  0  0  0
  181.5581   19.5838   44.1674 H   0  0  0  0  0  0  0  0  0  0  0  0
  175.8386   19.3896   46.3575 H   0  0  0  0  0  0  0  0  0  0  0  0
  174.5365   21.0351   47.7110 H   0  0  0  0  0  0  0  0  0  0  0  0
  175.7283   22.7530   49.0751 H   0  0  0  0  0  0  0  0  0  0  0  0
  178.3280   22.9290   50.1830 H   0  0  0  0  0  0  0  0  0  0  0  0
  182.3950   20.3570   46.0580 H   0  0  0  0  0  0  0  0  0  0  0  0
  179.2796   16.5705   46.2454 H   0  0  0  0  0  0  0  0  0  0  0  0
  180.8833   13.7392   44.5778 H   0  0  0  0  0  0  0  0  0  0  0  0
  179.8141   14.3191   45.9240 H   0  0  0  0  0  0  0  0  0  0  0  0
  177.9986   13.8267   44.7260 H   0  0  0  0  0  0  0  0  0  0  0  0
  178.5495   14.9192   43.4108 H   0  0  0  0  0  0  0  0  0  0  0  0
  179.0450   13.1926   43.4108 H   0  0  0  0  0  0  0  0  0  0  0  0
  1  2  1  0
  2  3  1  0
  3  4  2  0
  4  5  1  0
  5  6  2  0
  6  7  1  0
  7  8  1  0
  8  9  1  0
  9 10  2  0
 10 11  1  0
 11 12  2  0
 12 13  1  0
 13 14  1  0
 13 15  2  0
 15 16  1  0
 16 17  2  0
 16 18  1  0
 18 19  1  0
  6 20  1  0
 20 21  2  0
 21 22  1  0
 22 23  1  0
 21  3  1  0
 18  7  2  0
 15  9  1  0
  1 24  1  0
  1 25  1  0
  1 26  1  0
  2 27  1  0
  2 28  1  0
  4 29  1  0
  5 30  1  0
 10 31  1  0
 11 32  1  0
 12 33  1  0
 14 34  1  0
 19 35  1  0
 20 36  1  0
 22 37  1  0
 22 38  1  0
 23 39  1  0
 23 40  1  0
 23 41  1  0
M  END
>  <meeko>  (1) 
{"is_sidechain": [false], "free_energy": -8.014, "intermolecular_energy": -9.888, "internal_energy": -0.47}

$$$$
cand_039_out
     RDKit          3D

 41 43  0  0  0  0  0  0  0  0999 V2000
  176.7340   23.8100   48.5770 C   0  0  0  0  0  0  0  0  0  0  0  0
  176.7010   22.3950   49.1370 C   0  0  0  0  0  0  0  0  0  0  0  0
  177.4230   21.4160   48.2410 C   0  0  0  0  0  0  0  0  0  0  0  0
  178.8270   21.4720   48.1980 C   0  0  0  0  0  0  0  0  0  0  0  0
  179.5600   20.5920   47.3980 C   0  0  0  0  0  0  0  0  0  0  0  0
  178.9140   19.6340   46.6130 C   0  0  0  0  0  0  0  0  0  0  0  0
  179.7080   18.6970   45.7890 C   0  0  0  0  0  0  0  0  0  0  0  0
  179.2050   17.4010   45.8090 O   0  0  0  0  0  0  0  0  0  0  0  0
  179.8470   16.4290   45.0850 C   0  0  0  0  0  0  0  0  0  0  0  0
  179.3000   15.1470   45.1210 C   0  0  0  0  0  0  0  0  0  0  0  0
  179.9060   14.1100   44.4080 C   0  0  0  0  0  0  0  0  0  0  0  0
  181.0590   14.3560   43.6600 C   0  0  0  0  0  0  0  0  0  0  0  0
  181.6040   15.6370   43.6260 C   0  0  0  0  0  0  0  0  0  0  0  0
  182.7330   15.8080   42.8740 O   0  0  0  0  0  0  0  0  0  0  0  0
  180.9960   16.6750   44.3390 C   0  0  0  0  0  0  0  0  0  0  0  0
  181.5360   18.0350   44.3300 C   0  0  0  0  0  0  0  0  0  0  0  0
  182.5510   18.3280   43.7020 O   0  0  0  0  0  0  0  0  0  0  0  0
  180.8120   19.0640   45.1130 C   0  0  0  0  0  0  0  0  0  0  0  0
  181.3390   20.3420   45.1080 O   0  0  0  0  0  0  0  0  0  0  0  0
  177.5150   19.5650   46.6690 C   0  0  0  0  0  0  0  0  0  0  0  0
  176.7570   20.4400   47.4740 C   0  0  0  0  0  0  0  0  0  0  0  0
  175.2510   20.3010   47.4460 C   0  0  0  0  0  0  0  0  0  0  0  0
  174.8160   18.9400   46.9220 C   0  0  0  0  0  0  0  0  0  0  0  0
  176.7508   24.5323   49.4065 H   0  0  0  0  0  0  0  0  0  0  0  0
  177.6354   23.9392   47.9599 H   0  0  0  0  0  0  0  0  0  0  0  0
  175.8396   23.9811   47.9599 H   0  0  0  0  0  0  0  0  0  0  0  0
  177.1822   22.3930   50.1262 H   0  0  0  0  0  0  0  0  0  0  0  0
  175.6491   22.0809   49.2063 H   0  0  0  0  0  0  0  0  0  0  0  0
  179.3572   22.2211   48.8043 H   0  0  0  0  0  0  0  0  0  0  0  0
  180.6582   20.6542   47.3861 H   0  0  0  0  0  0  0  0  0  0  0  0
  178.3919   14.9524   45.7105 H   0  0  0  0  0  0  0  0  0  0  0  0
  179.4745   13.0986   44.4358 H   0  0  0  0  0  0  0  0  0  0  0  0
  181.5361   13.5393   43.0985 H   0  0  0  0  0  0  0  0  0  0  0  0
  183.0220   15.1270   42.2990 H   0  0  0  0  0  0  0  0  0  0  0  0
  181.5840   20.7510   45.9150 H   0  0  0  0  0  0  0  0  0  0  0  0
  176.9933   18.8061   46.0674 H   0  0  0  0  0  0  0  0  0  0  0  0
  174.8630   20.4294   48.4673 H   0  0  0  0  0  0  0  0  0  0  0  0
  174.8503   21.0705   46.7697 H   0  0  0  0  0  0  0  0  0  0  0  0
  174.6025   18.2720   47.7694 H   0  0  0  0  0  0  0  0  0  0  0  0
  173.9100   19.0556   46.3089 H   0  0  0  0  0  0  0  0  0  0  0  0
  175.6211   18.5087   46.3089 H   0  0  0  0  0  0  0  0  0  0  0  0
  1  2  1  0
  2  3  1  0
  3  4  2  0
  4  5  1  0
  5  6  2  0
  6  7  1  0
  7  8  1  0
  8  9  1  0
  9 10  2  0
 10 11  1  0
 11 12  2  0
 12 13  1  0
 13 14  1  0
 13 15  2  0
 15 16  1  0
 16 17  2  0
 16 18  1  0
 18 19  1  0
  6 20  1  0
 20 21  2  0
 21 22  1  0
 22 23  1  0
 21  3  1  0
 18  7  2  0
 15  9  1  0
  1 24  1  0
  1 25  1  0
  1 26  1  0
  2 27  1  0
  2 28  1  0
  4 29  1  0
  5 30  1  0
 10 31  1  0
 11 32  1  0
 12 33  1  0
 14 34  1  0
 19 35  1  0
 20 36  1  0
 22 37  1  0
 22 38  1  0
 23 39  1  0
 23 40  1  0
 23 41  1  0
M  END
>  <meeko>  (2) 
{"is_sidechain": [false], "free_energy": -7.212, "intermolecular_energy": -9.14, "internal_energy": -0.228}

$$$$
cand_039_out
     RDKit          3D

 41 43  0  0  0  0  0  0  0  0999 V2000
  174.9990   21.3400   49.7320 C   0  0  0  0  0  0  0  0  0  0  0  0
  175.6680   22.0890   48.5890 C   0  0  0  0  0  0  0  0  0  0  0  0
  176.6870   21.2340   47.8720 C   0  0  0  0  0  0  0  0  0  0  0  0
  176.2460   20.0370   47.2820 C   0  0  0  0  0  0  0  0  0  0  0  0
  177.1310   19.2010   46.5970 C   0  0  0  0  0  0  0  0  0  0  0  0
  178.4840   19.5330   46.4850 C   0  0  0  0  0  0  0  0  0  0  0  0
  179.4020   18.6460   45.7370 C   0  0  0  0  0  0  0  0  0  0  0  0
  179.0000   17.3160   45.7540 O   0  0  0  0  0  0  0  0  0  0  0  0
  179.7630   16.3840   45.0980 C   0  0  0  0  0  0  0  0  0  0  0  0
  179.3140   15.0630   45.1270 C   0  0  0  0  0  0  0  0  0  0  0  0
  180.0450   14.0640   44.4810 C   0  0  0  0  0  0  0  0  0  0  0  0
  181.2250   14.3860   43.8060 C   0  0  0  0  0  0  0  0  0  0  0  0
  181.6700   15.7040   43.7780 C   0  0  0  0  0  0  0  0  0  0  0  0
  182.8320   15.9500   43.0990 O   0  0  0  0  0  0  0  0  0  0  0  0
  180.9380   16.7040   44.4240 C   0  0  0  0  0  0  0  0  0  0  0  0
  181.3710   18.1020   44.4200 C   0  0  0  0  0  0  0  0  0  0  0  0
  182.4010   18.4620   43.8540 O   0  0  0  0  0  0  0  0  0  0  0  0
  180.5190   19.0860   45.1280 C   0  0  0  0  0  0  0  0  0  0  0  0
  180.9450   20.4010   45.1290 O   0  0  0  0  0  0  0  0  0  0  0  0
  178.9220   20.7360   47.0570 C   0  0  0  0  0  0  0  0  0  0  0  0
  178.0430   21.5960   47.7470 C   0  0  0  0  0  0  0  0  0  0  0  0
  178.6170   22.8580   48.3510 C   0  0  0  0  0  0  0  0  0  0  0  0
  178.5130   24.0410   47.3980 C   0  0  0  0  0  0  0  0  0  0  0  0
  175.3568   21.7406   50.6920 H   0  0  0  0  0  0  0  0  0  0  0  0
  173.9084   21.4673   49.6652 H   0  0  0  0  0  0  0  0  0  0  0  0
  175.2481   20.2707   49.6652 H   0  0  0  0  0  0  0  0  0  0  0  0
  174.8968   22.4012   47.8694 H   0  0  0  0  0  0  0  0  0  0  0  0
  176.1918   22.9585   49.0129 H   0  0  0  0  0  0  0  0  0  0  0  0
  175.1860   19.7537   47.3610 H   0  0  0  0  0  0  0  0  0  0  0  0
  176.7591   18.2716   46.1410 H   0  0  0  0  0  0  0  0  0  0  0  0
  178.3849   14.8089   45.6583 H   0  0  0  0  0  0  0  0  0  0  0  0
  179.6915   13.0226   44.5036 H   0  0  0  0  0  0  0  0  0  0  0  0
  181.8013   13.5990   43.2976 H   0  0  0  0  0  0  0  0  0  0  0  0
  183.6170   15.4960   43.3350 H   0  0  0  0  0  0  0  0  0  0  0  0
  181.8590   20.5970   45.1950 H   0  0  0  0  0  0  0  0  0  0  0  0
  179.9815   21.0168   46.9648 H   0  0  0  0  0  0  0  0  0  0  0  0
  178.0651   23.0941   49.2728 H   0  0  0  0  0  0  0  0  0  0  0  0
  179.6823   22.6818   48.5611 H   0  0  0  0  0  0  0  0  0  0  0  0
  178.4311   24.9725   47.9774 H   0  0  0  0  0  0  0  0  0  0  0  0
  179.4111   24.0812   46.7641 H   0  0  0  0  0  0  0  0  0  0  0  0
  177.6217   23.9239   46.7641 H   0  0  0  0  0  0  0  0  0  0  0  0
  1  2  1  0
  2  3  1  0
  3  4  2  0
  4  5  1  0
  5  6  2  0
  6  7  1  0
  7  8  1  0
  8  9  1  0
  9 10  2  0
 10 11  1  0
 11 12  2  0
 12 13  1  0
 13 14  1  0
 13 15  2  0
 15 16  1  0
 16 17  2  0
 16 18  1  0
 18 19  1  0
  6 20  1  0
 20 21  2  0
 21 22  1  0
 22 23  1  0
 21  3  1  0
 18  7  2  0
 15  9  1  0
  1 24  1  0
  1 25  1  0
  1 26  1  0
  2 27  1  0
  2 28  1  0
  4 29  1  0
  5 30  1  0
 10 31  1  0
 11 32  1  0
 12 33  1  0
 14 34  1  0
 19 35  1  0
 20 36  1  0
 22 37  1  0
 22 38  1  0
 23 39  1  0
 23 40  1  0
 23 41  1  0
M  END
>  <meeko>  (3) 
{"is_sidechain": [false], "free_energy": -6.753, "intermolecular_energy": -8.702, "internal_energy": -0.1}

$$$$
cand_039_out
     RDKit          3D

 41 43  0  0  0  0  0  0  0  0999 V2000
  181.5630   15.5050   41.9500 C   0  0  0  0  0  0  0  0  0  0  0  0
  182.1120   15.8360   43.3300 C   0  0  0  0  0  0  0  0  0  0  0  0
  181.1630   16.7060   44.1210 C   0  0  0  0  0  0  0  0  0  0  0  0
  181.2850   18.1010   43.9960 C   0  0  0  0  0  0  0  0  0  0  0  0
  180.4370   18.9650   44.6910 C   0  0  0  0  0  0  0  0  0  0  0  0
  179.4440   18.4640   45.5370 C   0  0  0  0  0  0  0  0  0  0  0  0
  178.5420   19.3940   46.2490 C   0  0  0  0  0  0  0  0  0  0  0  0
  179.1660   20.5840   46.6070 O   0  0  0  0  0  0  0  0  0  0  0  0
  178.4420   21.5390   47.2740 C   0  0  0  0  0  0  0  0  0  0  0  0
  179.1040   22.7230   47.6000 C   0  0  0  0  0  0  0  0  0  0  0  0
  178.4240   23.7350   48.2820 C   0  0  0  0  0  0  0  0  0  0  0  0
  177.0850   23.5630   48.6380 C   0  0  0  0  0  0  0  0  0  0  0  0
  176.4270   22.3800   48.3120 C   0  0  0  0  0  0  0  0  0  0  0  0
  175.1170   22.2770   48.6890 O   0  0  0  0  0  0  0  0  0  0  0  0
  177.1070   21.3670   47.6280 C   0  0  0  0  0  0  0  0  0  0  0  0
  176.4530   20.1090   47.2660 C   0  0  0  0  0  0  0  0  0  0  0  0
  175.2800   19.8810   47.5510 O   0  0  0  0  0  0  0  0  0  0  0  0
  177.2590   19.1030   46.5360 C   0  0  0  0  0  0  0  0  0  0  0  0
  176.6360   17.9130   46.2110 O   0  0  0  0  0  0  0  0  0  0  0  0
  179.3100   17.0730   45.6500 C   0  0  0  0  0  0  0  0  0  0  0  0
  180.1520   16.1840   44.9510 C   0  0  0  0  0  0  0  0  0  0  0  0
  179.9420   14.7000   45.1600 C   0  0  0  0  0  0  0  0  0  0  0  0
  179.0730   14.0910   44.0690 C   0  0  0  0  0  0  0  0  0  0  0  0
  180.6252   14.9396   42.0544 H   0  0  0  0  0  0  0  0  0  0  0  0
  181.3697   16.4372   41.3990 H   0  0  0  0  0  0  0  0  0  0  0  0
  182.2972   14.8989   41.3990 H   0  0  0  0  0  0  0  0  0  0  0  0
  182.2777   14.8984   43.8809 H   0  0  0  0  0  0  0  0  0  0  0  0
  183.0528   16.3906   43.1982 H   0  0  0  0  0  0  0  0  0  0  0  0
  182.0621   18.5189   43.3392 H   0  0  0  0  0  0  0  0  0  0  0  0
  180.5517   20.0524   44.5714 H   0  0  0  0  0  0  0  0  0  0  0  0
  180.1592   22.8594   47.3206 H   0  0  0  0  0  0  0  0  0  0  0  0
  178.9446   24.6693   48.5390 H   0  0  0  0  0  0  0  0  0  0  0  0
  176.5508   24.3606   49.1751 H   0  0  0  0  0  0  0  0  0  0  0  0
  174.7050   21.4370   48.7250 H   0  0  0  0  0  0  0  0  0  0  0  0
  177.1350   17.1230   46.1530 H   0  0  0  0  0  0  0  0  0  0  0  0
  178.5252   16.6634   46.3029 H   0  0  0  0  0  0  0  0  0  0  0  0
  180.9209   14.1983   45.1565 H   0  0  0  0  0  0  0  0  0  0  0  0
  179.4285   14.5604   46.1227 H   0  0  0  0  0  0  0  0  0  0  0  0
  178.2548   13.5176   44.5293 H   0  0  0  0  0  0  0  0  0  0  0  0
  178.6526   14.8931   43.4446 H   0  0  0  0  0  0  0  0  0  0  0  0
  179.6835   13.4221   43.4446 H   0  0  0  0  0  0  0  0  0  0  0  0
  1  2  1  0
  2  3  1  0
  3  4  2  0
  4  5  1  0
  5  6  2  0
  6  7  1  0
  7  8  1  0
  8  9  1  0
  9 10  2  0
 10 11  1  0
 11 12  2  0
 12 13  1  0
 13 14  1  0
 13 15  2  0
 15 16  1  0
 16 17  2  0
 16 18  1  0
 18 19  1  0
  6 20  1  0
 20 21  2  0
 21 22  1  0
 22 23  1  0
 21  3  1  0
 18  7  2  0
 15  9  1  0
  1 24  1  0
  1 25  1  0
  1 26  1  0
  2 27  1  0
  2 28  1  0
  4 29  1  0
  5 30  1  0
 10 31  1  0
 11 32  1  0
 12 33  1  0
 14 34  1  0
 19 35  1  0
 20 36  1  0
 22 37  1  0
 22 38  1  0
 23 39  1  0
 23 40  1  0
 23 41  1  0
M  END
>  <meeko>  (4) 
{"is_sidechain": [false], "free_energy": -6.32, "intermolecular_energy": -8.139, "internal_energy": -0.129}

$$$$
cand_039_out
     RDKit          3D

 41 43  0  0  0  0  0  0  0  0999 V2000
  180.0350   13.2740   43.9400 C   0  0  0  0  0  0  0  0  0  0  0  0
  180.7070   14.4470   43.2400 C   0  0  0  0  0  0  0  0  0  0  0  0
  180.4790   15.7480   43.9730 C   0  0  0  0  0  0  0  0  0  0  0  0
  179.6950   15.7210   45.1390 C   0  0  0  0  0  0  0  0  0  0  0  0
  179.4490   16.8840   45.8720 C   0  0  0  0  0  0  0  0  0  0  0  0
  179.9760   18.1110   45.4600 C   0  0  0  0  0  0  0  0  0  0  0  0
  179.7230   19.3290   46.2610 C   0  0  0  0  0  0  0  0  0  0  0  0
  178.3870   19.7140   46.2490 O   0  0  0  0  0  0  0  0  0  0  0  0
  178.0120   20.8310   46.9530 C   0  0  0  0  0  0  0  0  0  0  0  0
  176.6600   21.1720   46.9270 C   0  0  0  0  0  0  0  0  0  0  0  0
  176.2130   22.2990   47.6210 C   0  0  0  0  0  0  0  0  0  0  0  0
  177.1170   23.0830   48.3400 C   0  0  0  0  0  0  0  0  0  0  0  0
  178.4660   22.7400   48.3640 C   0  0  0  0  0  0  0  0  0  0  0  0
  179.2970   23.5510   49.0870 O   0  0  0  0  0  0  0  0  0  0  0  0
  178.9140   21.6120   47.6700 C   0  0  0  0  0  0  0  0  0  0  0  0
  180.3220   21.2160   47.6700 C   0  0  0  0  0  0  0  0  0  0  0  0
  181.1790   21.8600   48.2730 O   0  0  0  0  0  0  0  0  0  0  0  0
  180.6920   20.0000   46.9090 C   0  0  0  0  0  0  0  0  0  0  0  0
  182.0280   19.6440   46.9050 O   0  0  0  0  0  0  0  0  0  0  0  0
  180.7730   18.1380   44.3070 C   0  0  0  0  0  0  0  0  0  0  0  0
  181.0370   16.9730   43.5570 C   0  0  0  0  0  0  0  0  0  0  0  0
  181.8890   17.1110   42.3150 C   0  0  0  0  0  0  0  0  0  0  0  0
  181.0900   16.8430   41.0470 C   0  0  0  0  0  0  0  0  0  0  0  0
  180.1102   13.4053   45.0295 H   0  0  0  0  0  0  0  0  0  0  0  0
  178.9753   13.2310   43.6481 H   0  0  0  0  0  0  0  0  0  0  0  0
  180.5339   12.3381   43.6481 H   0  0  0  0  0  0  0  0  0  0  0  0
  181.7887   14.2553   43.1844 H   0  0  0  0  0  0  0  0  0  0  0  0
  180.2680   14.5408   42.2358 H   0  0  0  0  0  0  0  0  0  0  0  0
  179.2675   14.7667   45.4804 H   0  0  0  0  0  0  0  0  0  0  0  0
  178.8343   16.8337   46.7828 H   0  0  0  0  0  0  0  0  0  0  0  0
  175.9468   20.5547   46.3610 H   0  0  0  0  0  0  0  0  0  0  0  0
  175.1469   22.5691   47.6009 H   0  0  0  0  0  0  0  0  0  0  0  0
  176.7641   23.9700   48.8865 H   0  0  0  0  0  0  0  0  0  0  0  0
  179.3740   24.4580   48.8670 H   0  0  0  0  0  0  0  0  0  0  0  0
  182.6300   20.0880   46.3410 H   0  0  0  0  0  0  0  0  0  0  0  0
  181.2046   19.0948   43.9779 H   0  0  0  0  0  0  0  0  0  0  0  0
  182.2923   18.1335   42.2720 H   0  0  0  0  0  0  0  0  0  0  0  0
  182.6983   16.3681   42.3719 H   0  0  0  0  0  0  0  0  0  0  0  0
  180.0787   16.5038   41.3157 H   0  0  0  0  0  0  0  0  0  0  0  0
  181.0214   17.7673   40.4546 H   0  0  0  0  0  0  0  0  0  0  0  0
  181.5926   16.0643   40.4546 H   0  0  0  0  0  0  0  0  0  0  0  0
  1  2  1  0
  2  3  1  0
  3  4  2  0
  4  5  1  0
  5  6  2  0
  6  7  1  0
  7  8  1  0
  8  9  1  0
  9 10  2  0
 10 11  1  0
 11 12  2  0
 12 13  1  0
 13 14  1  0
 13 15  2  0
 15 16  1  0
 16 17  2  0
 16 18  1  0
 18 19  1  0
  6 20  1  0
 20 21  2  0
 21 22  1  0
 22 23  1  0
 21  3  1  0
 18  7  2  0
 15  9  1  0
  1 24  1  0
  1 25  1  0
  1 26  1  0
  2 27  1  0
  2 28  1  0
  4 29  1  0
  5 30  1  0
 10 31  1  0
 11 32  1  0
 12 33  1  0
 14 34  1  0
 19 35  1  0
 20 36  1  0
 22 37  1  0
 22 38  1  0
 23 39  1  0
 23 40  1  0
 23 41  1  0
M  END
>  <meeko>  (5) 
{"is_sidechain": [false], "free_energy": -5.798, "intermolecular_energy": -7.352, "internal_energy": -0.273}

$$$$
cand_039_out
     RDKit          3D

 41 43  0  0  0  0  0  0  0  0999 V2000
  179.0350   22.9860   47.3760 C   0  0  0  0  0  0  0  0  0  0  0  0
  179.6540   21.7600   48.0340 C   0  0  0  0  0  0  0  0  0  0  0  0
  179.8000   20.6120   47.0620 C   0  0  0  0  0  0  0  0  0  0  0  0
  181.0570   20.4070   46.4670 C   0  0  0  0  0  0  0  0  0  0  0  0
  181.2670   19.3600   45.5660 C   0  0  0  0  0  0  0  0  0  0  0  0
  180.2280   18.4890   45.2290 C   0  0  0  0  0  0  0  0  0  0  0  0
  180.4750   17.3740   44.2900 C   0  0  0  0  0  0  0  0  0  0  0  0
  180.7520   17.8070   42.9990 O   0  0  0  0  0  0  0  0  0  0  0  0
  181.0020   16.8740   42.0250 C   0  0  0  0  0  0  0  0  0  0  0  0
  181.2910   17.3540   40.7470 C   0  0  0  0  0  0  0  0  0  0  0  0
  181.5520   16.4560   39.7090 C   0  0  0  0  0  0  0  0  0  0  0  0
  181.5230   15.0810   39.9490 C   0  0  0  0  0  0  0  0  0  0  0  0
  181.2340   14.6050   41.2250 C   0  0  0  0  0  0  0  0  0  0  0  0
  181.2220   13.2480   41.3900 O   0  0  0  0  0  0  0  0  0  0  0  0
  180.9740   15.5030   42.2640 C   0  0  0  0  0  0  0  0  0  0  0  0
  180.6650   15.0460   43.6190 C   0  0  0  0  0  0  0  0  0  0  0  0
  180.6140   13.8510   43.9060 O   0  0  0  0  0  0  0  0  0  0  0  0
  180.4120   16.0780   44.6500 C   0  0  0  0  0  0  0  0  0  0  0  0
  180.1090   15.6340   45.9240 O   0  0  0  0  0  0  0  0  0  0  0  0
  178.9790   18.6810   45.8360 C   0  0  0  0  0  0  0  0  0  0  0  0
  178.7480   19.7280   46.7520 C   0  0  0  0  0  0  0  0  0  0  0  0
  177.3580   19.8650   47.3330 C   0  0  0  0  0  0  0  0  0  0  0  0
  176.4200   20.6040   46.3900 C   0  0  0  0  0  0  0  0  0  0  0  0
  178.6840   23.6812   48.1529 H   0  0  0  0  0  0  0  0  0  0  0  0
  179.7887   23.4860   46.7499 H   0  0  0  0  0  0  0  0  0  0  0  0
  178.1852   22.6764   46.7499 H   0  0  0  0  0  0  0  0  0  0  0  0
  180.6486   22.0277   48.4202 H   0  0  0  0  0  0  0  0  0  0  0  0
  178.9871   21.4360   48.8466 H   0  0  0  0  0  0  0  0  0  0  0  0
  181.8892   21.0822   46.7149 H   0  0  0  0  0  0  0  0  0  0  0  0
  182.2614   19.2200   45.1170 H   0  0  0  0  0  0  0  0  0  0  0  0
  181.3133   18.4373   40.5572 H   0  0  0  0  0  0  0  0  0  0  0  0
  181.7807   16.8329   38.7012 H   0  0  0  0  0  0  0  0  0  0  0  0
  181.7282   14.3747   39.1311 H   0  0  0  0  0  0  0  0  0  0  0  0
  181.9760   12.8110   41.7350 H   0  0  0  0  0  0  0  0  0  0  0  0
  180.2500   16.1940   46.6610 H   0  0  0  0  0  0  0  0  0  0  0  0
  178.1550   17.9948   45.5906 H   0  0  0  0  0  0  0  0  0  0  0  0
  176.9518   18.8608   47.5242 H   0  0  0  0  0  0  0  0  0  0  0  0
  177.4331   20.4459   48.2641 H   0  0  0  0  0  0  0  0  0  0  0  0
  175.6891   21.1798   46.9767 H   0  0  0  0  0  0  0  0  0  0  0  0
  177.0022   21.2887   45.7558 H   0  0  0  0  0  0  0  0  0  0  0  0
  175.8906   19.8777   45.7558 H   0  0  0  0  0  0  0  0  0  0  0  0
  1  2  1  0
  2  3  1  0
  3  4  2  0
  4  5  1  0
  5  6  2  0
  6  7  1  0
  7  8  1  0
  8  9  1  0
  9 10  2  0
 10 11  1  0
 11 12  2  0
 12 13  1  0
 13 14  1  0
 13 15  2  0
 15 16  1  0
 16 17  2  0
 16 18  1  0
 18 19  1  0
  6 20  1  0
 20 21  2  0
 21 22  1  0
 22 23  1  0
 21  3  1  0
 18  7  2  0
 15  9  1  0
  1 24  1  0
  1 25  1  0
  1 26  1  0
  2 27  1  0
  2 28  1  0
  4 29  1  0
  5 30  1  0
 10 31  1  0
 11 32  1  0
 12 33  1  0
 14 34  1  0
 19 35  1  0
 20 36  1  0
 22 37  1  0
 22 38  1  0
 23 39  1  0
 23 40  1  0
 23 41  1  0
M  END
>  <meeko>  (6) 
{"is_sidechain": [false], "free_energy": -5.551, "intermolecular_energy": -6.793, "internal_energy": -0.526}

$$$$
cand_039_out
     RDKit          3D

 41 43  0  0  0  0  0  0  0  0999 V2000
  187.0730   25.7470   46.1740 C   0  0  0  0  0  0  0  0  0  0  0  0
  187.1340   24.4360   45.4020 C   0  0  0  0  0  0  0  0  0  0  0  0
  185.8490   23.6510   45.5200 C   0  0  0  0  0  0  0  0  0  0  0  0
  185.1060   23.7750   46.7070 C   0  0  0  0  0  0  0  0  0  0  0  0
  183.9040   23.0840   46.8820 C   0  0  0  0  0  0  0  0  0  0  0  0
  183.4100   22.2450   45.8790 C   0  0  0  0  0  0  0  0  0  0  0  0
  182.1260   21.5390   46.0730 C   0  0  0  0  0  0  0  0  0  0  0  0
  181.2360   22.2480   46.8730 O   0  0  0  0  0  0  0  0  0  0  0  0
  180.0040   21.7060   47.1350 C   0  0  0  0  0  0  0  0  0  0  0  0
  179.1370   22.4590   47.9280 C   0  0  0  0  0  0  0  0  0  0  0  0
  177.8670   21.9630   48.2350 C   0  0  0  0  0  0  0  0  0  0  0  0
  177.4650   20.7180   47.7490 C   0  0  0  0  0  0  0  0  0  0  0  0
  178.3320   19.9690   46.9580 C   0  0  0  0  0  0  0  0  0  0  0  0
  177.8750   18.7590   46.5150 O   0  0  0  0  0  0  0  0  0  0  0  0
  179.6030   20.4650   46.6500 C   0  0  0  0  0  0  0  0  0  0  0  0
  180.5440   19.7110   45.8220 C   0  0  0  0  0  0  0  0  0  0  0  0
  180.2660   18.6050   45.3640 O   0  0  0  0  0  0  0  0  0  0  0  0
  181.8620   20.3290   45.5480 C   0  0  0  0  0  0  0  0  0  0  0  0
  182.7490   19.6010   44.7760 O   0  0  0  0  0  0  0  0  0  0  0  0
  184.1410   22.1350   44.6880 C   0  0  0  0  0  0  0  0  0  0  0  0
  185.3530   22.8280   44.4890 C   0  0  0  0  0  0  0  0  0  0  0  0
  186.0790   22.6220   43.1790 C   0  0  0  0  0  0  0  0  0  0  0  0
  186.9560   21.3780   43.2050 C   0  0  0  0  0  0  0  0  0  0  0  0
  187.0827   25.5374   47.2538 H   0  0  0  0  0  0  0  0  0  0  0  0
  187.9433   26.3671   45.9130 H   0  0  0  0  0  0  0  0  0  0  0  0
  186.1489   26.2836   45.9130 H   0  0  0  0  0  0  0  0  0  0  0  0
  187.3192   24.6570   44.3405 H   0  0  0  0  0  0  0  0  0  0  0  0
  187.9450   23.8274   45.8285 H   0  0  0  0  0  0  0  0  0  0  0  0
  185.4770   24.4269   47.5116 H   0  0  0  0  0  0  0  0  0  0  0  0
  183.3404   23.2016   47.8193 H   0  0  0  0  0  0  0  0  0  0  0  0
  179.4525   23.4409   48.3106 H   0  0  0  0  0  0  0  0  0  0  0  0
  177.1830   22.5550   48.8608 H   0  0  0  0  0  0  0  0  0  0  0  0
  176.4648   20.3291   47.9905 H   0  0  0  0  0  0  0  0  0  0  0  0
  178.1700   17.9690   46.9230 H   0  0  0  0  0  0  0  0  0  0  0  0
  183.0530   19.9470   43.9600 H   0  0  0  0  0  0  0  0  0  0  0  0
  183.7578   21.4888   43.8845 H   0  0  0  0  0  0  0  0  0  0  0  0
  185.3368   22.5170   42.3739 H   0  0  0  0  0  0  0  0  0  0  0  0
  186.7285   23.4933   43.0088 H   0  0  0  0  0  0  0  0  0  0  0  0
  187.1570   21.0928   44.2482 H   0  0  0  0  0  0  0  0  0  0  0  0
  186.4383   20.5536   42.6928 H   0  0  0  0  0  0  0  0  0  0  0  0
  187.9064   21.5886   42.6928 H   0  0  0  0  0  0  0  0  0  0  0  0
  1  2  1  0
  2  3  1  0
  3  4  2  0
  4  5  1  0
  5  6  2  0
  6  7  1  0
  7  8  1  0
  8  9  1  0
  9 10  2  0
 10 11  1  0
 11 12  2  0
 12 13  1  0
 13 14  1  0
 13 15  2  0
 15 16  1  0
 16 17  2  0
 16 18  1  0
 18 19  1  0
  6 20  1  0
 20 21  2  0
 21 22  1  0
 22 23  1  0
 21  3  1  0
 18  7  2  0
 15  9  1  0
  1 24  1  0
  1 25  1  0
  1 26  1  0
  2 27  1  0
  2 28  1  0
  4 29  1  0
  5 30  1  0
 10 31  1  0
 11 32  1  0
 12 33  1  0
 14 34  1  0
 19 35  1  0
 20 36  1  0
 22 37  1  0
 22 38  1  0
 23 39  1  0
 23 40  1  0
 23 41  1  0
M  END
>  <meeko>  (7) 
{"is_sidechain": [false], "free_energy": -5.255, "intermolecular_energy": -6.754, "internal_energy": -0.2}

$$$$
cand_039_out
     RDKit          3D

 41 43  0  0  0  0  0  0  0  0999 V2000
  179.8240   17.7980   45.5440 C   0  0  0  0  0  0  0  0  0  0  0  0
  179.4030   19.1110   46.1880 C   0  0  0  0  0  0  0  0  0  0  0  0
  180.5350   20.1120   46.2240 C   0  0  0  0  0  0  0  0  0  0  0  0
  181.6730   19.8500   45.4420 C   0  0  0  0  0  0  0  0  0  0  0  0
  182.7540   20.7340   45.4200 C   0  0  0  0  0  0  0  0  0  0  0  0
  182.7330   21.9050   46.1830 C   0  0  0  0  0  0  0  0  0  0  0  0
  183.8780   22.8400   46.1310 C   0  0  0  0  0  0  0  0  0  0  0  0
  184.1890   23.3820   47.3720 O   0  0  0  0  0  0  0  0  0  0  0  0
  185.2320   24.2670   47.4680 C   0  0  0  0  0  0  0  0  0  0  0  0
  185.5190   24.7740   48.7350 C   0  0  0  0  0  0  0  0  0  0  0  0
  186.5680   25.6820   48.9010 C   0  0  0  0  0  0  0  0  0  0  0  0
  187.3280   26.0820   47.8000 C   0  0  0  0  0  0  0  0  0  0  0  0
  187.0400   25.5750   46.5370 C   0  0  0  0  0  0  0  0  0  0  0  0
  187.8230   26.0080   45.5030 O   0  0  0  0  0  0  0  0  0  0  0  0
  185.9910   24.6650   46.3710 C   0  0  0  0  0  0  0  0  0  0  0  0
  185.6540   24.1080   45.0600 C   0  0  0  0  0  0  0  0  0  0  0  0
  186.2720   24.4170   44.0440 O   0  0  0  0  0  0  0  0  0  0  0  0
  184.5290   23.1460   44.9930 C   0  0  0  0  0  0  0  0  0  0  0  0
  184.2110   22.6370   43.7480 O   0  0  0  0  0  0  0  0  0  0  0  0
  181.5920   22.1770   46.9500 C   0  0  0  0  0  0  0  0  0  0  0  0
  180.4880   21.3000   46.9800 C   0  0  0  0  0  0  0  0  0  0  0  0
  179.3140   21.6710   47.8580 C   0  0  0  0  0  0  0  0  0  0  0  0
  178.6190   22.9350   47.3730 C   0  0  0  0  0  0  0  0  0  0  0  0
  180.0594   17.0637   46.3285 H   0  0  0  0  0  0  0  0  0  0  0  0
  179.0032   17.4164   44.9190 H   0  0  0  0  0  0  0  0  0  0  0  0
  180.7137   17.9648   44.9190 H   0  0  0  0  0  0  0  0  0  0  0  0
  178.5693   19.5382   45.6115 H   0  0  0  0  0  0  0  0  0  0  0  0
  179.1025   18.9001   47.2249 H   0  0  0  0  0  0  0  0  0  0  0  0
  181.7130   18.9325   44.8366 H   0  0  0  0  0  0  0  0  0  0  0  0
  183.6308   20.5064   44.7959 H   0  0  0  0  0  0  0  0  0  0  0  0
  184.9204   24.4595   49.6026 H   0  0  0  0  0  0  0  0  0  0  0  0
  186.7953   26.0821   49.9001 H   0  0  0  0  0  0  0  0  0  0  0  0
  188.1534   26.7971   47.9312 H   0  0  0  0  0  0  0  0  0  0  0  0
  187.8890   25.4980   44.7190 H   0  0  0  0  0  0  0  0  0  0  0  0
  183.3240   22.6550   43.4470 H   0  0  0  0  0  0  0  0  0  0  0  0
  181.5565   23.1011   47.5457 H   0  0  0  0  0  0  0  0  0  0  0  0
  178.5901   20.8428   47.8523 H   0  0  0  0  0  0  0  0  0  0  0  0
  179.6938   21.8592   48.8731 H   0  0  0  0  0  0  0  0  0  0  0  0
  178.2923   23.5292   48.2392 H   0  0  0  0  0  0  0  0  0  0  0  0
  179.3182   23.5275   46.7646 H   0  0  0  0  0  0  0  0  0  0  0  0
  177.7442   22.6620   46.7646 H   0  0  0  0  0  0  0  0  0  0  0  0
  1  2  1  0
  2  3  1  0
  3  4  2  0
  4  5  1  0
  5  6  2  0
  6  7  1  0
  7  8  1  0
  8  9  1  0
  9 10  2  0
 10 11  1  0
 11 12  2  0
 12 13  1  0
 13 14  1  0
 13 15  2  0
 15 16  1  0
 16 17  2  0
 16 18  1  0
 18 19  1  0
  6 20  1  0
 20 21  2  0
 21 22  1  0
 22 23  1  0
 21  3  1  0
 18  7  2  0
 15  9  1  0
  1 24  1  0
  1 25  1  0
  1 26  1  0
  2 27  1  0
  2 28  1  0
  4 29  1  0
  5 30  1  0
 10 31  1  0
 11 32  1  0
 12 33  1  0
 14 34  1  0
 19 35  1  0
 20 36  1  0
 22 37  1  0
 22 38  1  0
 23 39  1  0
 23 40  1  0
 23 41  1  0
M  END
>  <meeko>  (8) 
{"is_sidechain": [false], "free_energy": -5.192, "intermolecular_energy": -6.642, "internal_energy": -0.234}

$$$$
