cand_026_out
     RDKit          3D

 41 43  0  0  0  0  0  0  0  0999 V2000
  179.2860   15.0120   45.3920 C   0  0  0  0  0  0  0  0  0  0  0  0
  179.9440   16.3140   45.0220 C   0  0  0  0  0  0  0  0  0  0  0  0
  179.6690   17.4490   45.8110 C   0  0  0  0  0  0  0  0  0  0  0  0
  180.2350   18.7010   45.5310 C   0  0  0  0  0  0  0  0  0  0  0  0
  179.9380   19.8560   46.4040 C   0  0  0  0  0  0  0  0  0  0  0  0
  178.5960   20.2170   46.3830 O   0  0  0  0  0  0  0  0  0  0  0  0
  178.1810   21.2750   47.1510 C   0  0  0  0  0  0  0  0  0  0  0  0
  176.8230   21.5930   47.1110 C   0  0  0  0  0  0  0  0  0  0  0  0
  176.3350   22.6620   47.8670 C   0  0  0  0  0  0  0  0  0  0  0  0
  177.2050   23.4100   48.6620 C   0  0  0  0  0  0  0  0  0  0  0  0
  178.5600   23.0910   48.7010 C   0  0  0  0  0  0  0  0  0  0  0  0
  179.3550   23.8650   49.5000 O   0  0  0  0  0  0  0  0  0  0  0  0
  179.0470   22.0210   47.9440 C   0  0  0  0  0  0  0  0  0  0  0  0
  180.4640   21.6520   47.9560 C   0  0  0  0  0  0  0  0  0  0  0  0
  181.2910   22.2670   48.6240 O   0  0  0  0  0  0  0  0  0  0  0  0
  180.8770   20.4980   47.1240 C   0  0  0  0  0  0  0  0  0  0  0  0
  182.2190   20.1660   47.1330 O   0  0  0  0  0  0  0  0  0  0  0  0
  181.1070   18.8030   44.4450 C   0  0  0  0  0  0  0  0  0  0  0  0
  181.3890   17.6870   43.6510 C   0  0  0  0  0  0  0  0  0  0  0  0
  180.8180   16.4290   43.9200 C   0  0  0  0  0  0  0  0  0  0  0  0
  181.1570   15.2440   43.0230 C   0  0  0  0  0  0  0  0  0  0  0  0
  182.6690   15.1140   42.8130 C   0  0  0  0  0  0  0  0  0  0  0  0
  180.4250   15.3260   41.6790 C   0  0  0  0  0  0  0  0  0  0  0  0
  179.2407   14.9224   46.4874 H   0  0  0  0  0  0  0  0  0  0  0  0
  178.2666   14.9861   44.9795 H   0  0  0  0  0  0  0  0  0  0  0  0
  179.8698   14.1759   44.9795 H   0  0  0  0  0  0  0  0  0  0  0  0
  178.9908   17.3498   46.6713 H   0  0  0  0  0  0  0  0  0  0  0  0
  176.1374   21.0029   46.4851 H   0  0  0  0  0  0  0  0  0  0  0  0
  175.2648   22.9142   47.8356 H   0  0  0  0  0  0  0  0  0  0  0  0
  176.8204   24.2511   49.2575 H   0  0  0  0  0  0  0  0  0  0  0  0
  179.4180   24.7870   49.3450 H   0  0  0  0  0  0  0  0  0  0  0  0
  182.6970   20.1260   46.3280 H   0  0  0  0  0  0  0  0  0  0  0  0
  181.5764   19.7702   44.2120 H   0  0  0  0  0  0  0  0  0  0  0  0
  182.0730   17.7948   42.7963 H   0  0  0  0  0  0  0  0  0  0  0  0
  180.8085   14.3378   43.5400 H   0  0  0  0  0  0  0  0  0  0  0  0
  183.1725   15.0707   43.7900 H   0  0  0  0  0  0  0  0  0  0  0  0
  182.8831   14.1941   42.2491 H   0  0  0  0  0  0  0  0  0  0  0  0
  183.0370   15.9838   42.2491 H   0  0  0  0  0  0  0  0  0  0  0  0
  179.3461   15.4469   41.8559 H   0  0  0  0  0  0  0  0  0  0  0  0
  180.8018   16.1876   41.1082 H   0  0  0  0  0  0  0  0  0  0  0  0
  180.6018   14.4024   41.1082 H   0  0  0  0  0  0  0  0  0  0  0  0
  1  2  1  0
  2  3  2  0
  3  4  1  0
  4  5  1  0
  5  6  1  0
  6  7  1  0
  7  8  2  0
  8  9  1  0
  9 10  2  0
 10 11  1  0
 11 12  1  0
 11 13  2  0
 13 14  1  0
 14 15  2  0
 14 16  1  0
 16 17  1  0
  4 18  2  0
 18 19  1  0
 19 20  2  0
 20 21  1  0
 21 22  1  0
 21 23  1  0
 20  2  1  0
 16  5  2  0
 13  7  1  0
  1 24  1  0
  1 25  1  0
  1 26  1  0
  3 27  1  0
  8 28  1  0
  9 29  1  0
 10 30  1  0
 12 31  1  0
 17 32  1  0
 18 33  1  0
 19 34  1  0
 21 35  1  0
 22 36  1  0
 22 37  1  0
 22 38  1  0
 23 39  1  0
 23 40  1  0
 23 41  1  0
M  END
>  <meeko>  (1) 
{"is_sidechain": [false], "free_energy": -8.237, "intermolecular_energy": -9.682, "internal_energy": -0.485}

$$$$
cand_026_out
     RDKit          3D

 41 43  0  0  0  0  0  0  0  0999 V2000
  174.9200   20.0910   47.0080 C   0  0  0  0  0  0  0  0  0  0  0  0
  176.4000   20.3360   47.1230 C   0  0  0  0  0  0  0  0  0  0  0  0
  177.2760   19.4740   46.4320 C   0  0  0  0  0  0  0  0  0  0  0  0
  178.6680   19.6300   46.4920 C   0  0  0  0  0  0  0  0  0  0  0  0
  179.5450   18.7170   45.7280 C   0  0  0  0  0  0  0  0  0  0  0  0
  179.1040   17.3990   45.7500 O   0  0  0  0  0  0  0  0  0  0  0  0
  179.8250   16.4460   45.0790 C   0  0  0  0  0  0  0  0  0  0  0  0
  179.3370   15.1390   45.1160 C   0  0  0  0  0  0  0  0  0  0  0  0
  180.0260   14.1190   44.4550 C   0  0  0  0  0  0  0  0  0  0  0  0
  181.2010   14.4070   43.7570 C   0  0  0  0  0  0  0  0  0  0  0  0
  181.6860   15.7120   43.7210 C   0  0  0  0  0  0  0  0  0  0  0  0
  182.8410   15.9240   43.0210 O   0  0  0  0  0  0  0  0  0  0  0  0
  180.9950   16.7320   44.3820 C   0  0  0  0  0  0  0  0  0  0  0  0
  181.4700   18.1170   44.3710 C   0  0  0  0  0  0  0  0  0  0  0  0
  182.4990   18.4470   43.7850 O   0  0  0  0  0  0  0  0  0  0  0  0
  180.6620   19.1240   45.0960 C   0  0  0  0  0  0  0  0  0  0  0  0
  181.1270   20.4260   45.0890 O   0  0  0  0  0  0  0  0  0  0  0  0
  179.1830   20.6830   47.2510 C   0  0  0  0  0  0  0  0  0  0  0  0
  178.3280   21.5460   47.9430 C   0  0  0  0  0  0  0  0  0  0  0  0
  176.9300   21.3910   47.8950 C   0  0  0  0  0  0  0  0  0  0  0  0
  176.0420   22.3580   48.6700 C   0  0  0  0  0  0  0  0  0  0  0  0
  176.7530   23.6910   48.9260 C   0  0  0  0  0  0  0  0  0  0  0  0
  175.5480   21.7420   49.9830 C   0  0  0  0  0  0  0  0  0  0  0  0
  174.4811   20.0183   48.0140 H   0  0  0  0  0  0  0  0  0  0  0  0
  174.4517   20.9239   46.4629 H   0  0  0  0  0  0  0  0  0  0  0  0
  174.7451   19.1517   46.4629 H   0  0  0  0  0  0  0  0  0  0  0  0
  176.8554   18.6560   45.8288 H   0  0  0  0  0  0  0  0  0  0  0  0
  178.4111   14.9122   45.6649 H   0  0  0  0  0  0  0  0  0  0  0  0
  179.6428   13.0883   44.4843 H   0  0  0  0  0  0  0  0  0  0  0  0
  181.7428   13.6038   43.2362 H   0  0  0  0  0  0  0  0  0  0  0  0
  183.2330   16.7750   43.0110 H   0  0  0  0  0  0  0  0  0  0  0  0
  181.4400   20.8070   44.2920 H   0  0  0  0  0  0  0  0  0  0  0  0
  180.2711   20.8348   47.3049 H   0  0  0  0  0  0  0  0  0  0  0  0
  178.7578   22.3649   48.5386 H   0  0  0  0  0  0  0  0  0  0  0  0
  175.1613   22.5604   48.0427 H   0  0  0  0  0  0  0  0  0  0  0  0
  176.8416   23.8571   50.0098 H   0  0  0  0  0  0  0  0  0  0  0  0
  177.7564   23.6637   48.4760 H   0  0  0  0  0  0  0  0  0  0  0  0
  176.1714   24.5091   48.4760 H   0  0  0  0  0  0  0  0  0  0  0  0
  175.9858   22.2879   50.8317 H   0  0  0  0  0  0  0  0  0  0  0  0
  174.4511   21.8098   50.0300 H   0  0  0  0  0  0  0  0  0  0  0  0
  175.8524   20.6860   50.0300 H   0  0  0  0  0  0  0  0  0  0  0  0
  1  2  1  0
  2  3  2  0
  3  4  1  0
  4  5  1  0
  5  6  1  0
  6  7  1  0
  7  8  2  0
  8  9  1  0
  9 10  2  0
 10 11  1  0
 11 12  1  0
 11 13  2  0
 13 14  1  0
 14 15  2  0
 14 16  1  0
 16 17  1  0
  4 18  2  0
 18 19  1  0
 19 20  2  0
 20 21  1  0
 21 22  1  0
 21 23  1  0
 20  2  1  0
 16  5  2  0
 13  7  1  0
  1 24  1  0
  1 25  1  0
  1 26  1  0
  3 27  1  0
  8 28  1  0
  9 29  1  0
 10 30  1  0
 12 31  1  0
 17 32  1  0
 18 33  1  0
 19 34  1  0
 21 35  1  0
 22 36  1  0
 22 37  1  0
 22 38  1  0
 23 39  1  0
 23 40  1  0
 23 41  1  0
M  END
>  <meeko>  (2) 
{"is_sidechain": [false], "free_energy": -7.082, "intermolecular_energy": -8.709, "internal_energy": -0.1}

$$$$
cand_026_out
     RDKit          3D

 41 43  0  0  0  0  0  0  0  0999 V2000
  182.5250   17.4770   42.9380 C   0  0  0  0  0  0  0  0  0  0  0  0
  181.4110   17.3760   43.9460 C   0  0  0  0  0  0  0  0  0  0  0  0
  181.1250   18.5040   44.7410 C   0  0  0  0  0  0  0  0  0  0  0  0
  180.1090   18.4910   45.7070 C   0  0  0  0  0  0  0  0  0  0  0  0
  179.8280   19.7080   46.4970 C   0  0  0  0  0  0  0  0  0  0  0  0
  178.4880   20.0770   46.4640 O   0  0  0  0  0  0  0  0  0  0  0  0
  178.0890   21.1910   47.1580 C   0  0  0  0  0  0  0  0  0  0  0  0
  176.7330   21.5150   47.1090 C   0  0  0  0  0  0  0  0  0  0  0  0
  176.2600   22.6390   47.7910 C   0  0  0  0  0  0  0  0  0  0  0  0
  177.1440   23.4360   48.5220 C   0  0  0  0  0  0  0  0  0  0  0  0
  178.4960   23.1100   48.5700 C   0  0  0  0  0  0  0  0  0  0  0  0
  179.3050   23.9330   49.3040 O   0  0  0  0  0  0  0  0  0  0  0  0
  178.9680   21.9850   47.8870 C   0  0  0  0  0  0  0  0  0  0  0  0
  180.3820   21.6070   47.9110 C   0  0  0  0  0  0  0  0  0  0  0  0
  181.2210   22.2620   48.5250 O   0  0  0  0  0  0  0  0  0  0  0  0
  180.7790   20.3930   47.1600 C   0  0  0  0  0  0  0  0  0  0  0  0
  182.1180   20.0530   47.1790 O   0  0  0  0  0  0  0  0  0  0  0  0
  179.3590   17.3240   45.8600 C   0  0  0  0  0  0  0  0  0  0  0  0
  179.6300   16.1950   45.0800 C   0  0  0  0  0  0  0  0  0  0  0  0
  180.6540   16.1970   44.1150 C   0  0  0  0  0  0  0  0  0  0  0  0
  180.9110   14.9400   43.2920 C   0  0  0  0  0  0  0  0  0  0  0  0
  180.6210   15.1730   41.8060 C   0  0  0  0  0  0  0  0  0  0  0  0
  180.1130   13.7450   43.8230 C   0  0  0  0  0  0  0  0  0  0  0  0
  183.4877   17.5643   43.4630 H   0  0  0  0  0  0  0  0  0  0  0  0
  182.5316   16.5758   42.3073 H   0  0  0  0  0  0  0  0  0  0  0  0
  182.3695   18.3647   42.3073 H   0  0  0  0  0  0  0  0  0  0  0  0
  181.7159   19.4210   44.5995 H   0  0  0  0  0  0  0  0  0  0  0  0
  176.0370   20.8864   46.5342 H   0  0  0  0  0  0  0  0  0  0  0  0
  175.1912   22.8963   47.7522 H   0  0  0  0  0  0  0  0  0  0  0  0
  176.7717   24.3207   49.0593 H   0  0  0  0  0  0  0  0  0  0  0  0
  179.7720   24.6270   48.8810 H   0  0  0  0  0  0  0  0  0  0  0  0
  182.5420   19.8600   47.9930 H   0  0  0  0  0  0  0  0  0  0  0  0
  178.5468   17.2918   46.6012 H   0  0  0  0  0  0  0  0  0  0  0  0
  179.0290   15.2850   45.2243 H   0  0  0  0  0  0  0  0  0  0  0  0
  181.9799   14.7008   43.3936 H   0  0  0  0  0  0  0  0  0  0  0  0
  179.7673   15.8589   41.7022 H   0  0  0  0  0  0  0  0  0  0  0  0
  181.5063   15.6139   41.3244 H   0  0  0  0  0  0  0  0  0  0  0  0
  180.3812   14.2136   41.3244 H   0  0  0  0  0  0  0  0  0  0  0  0
  180.1216   13.7579   44.9229 H   0  0  0  0  0  0  0  0  0  0  0  0
  179.0753   13.8083   43.4637 H   0  0  0  0  0  0  0  0  0  0  0  0
  180.5691   12.8107   43.4637 H   0  0  0  0  0  0  0  0  0  0  0  0
  1  2  1  0
  2  3  2  0
  3  4  1  0
  4  5  1  0
  5  6  1  0
  6  7  1  0
  7  8  2  0
  8  9  1  0
  9 10  2  0
 10 11  1  0
 11 12  1  0
 11 13  2  0
 13 14  1  0
 14 15  2  0
 14 16  1  0
 16 17  1  0
  4 18  2  0
 18 19  1  0
 19 20  2  0
 20 21  1  0
 21 22  1  0
 21 23  1  0
 20  2  1  0
 16  5  2  0
 13  7  1  0
  1 24  1  0
  1 25  1  0
  1 26  1  0
  3 27  1  0
  8 28  1  0
  9 29  1  0
 10 30  1  0
 12 31  1  0
 17 32  1  0
 18 33  1  0
 19 34  1  0
 21 35  1  0
 22 36  1  0
 22 37  1  0
 22 38  1  0
 23 39  1  0
 23 40  1  0
 23 41  1  0
M  END
>  <meeko>  (3) 
{"is_sidechain": [false], "free_energy": -6.491, "intermolecular_energy": -8.113, "internal_energy": -0.002}

$$$$
cand_026_out
     RDKit          3D

 41 43  0  0  0  0  0  0  0  0999 V2000
  179.4740   22.8690   48.5170 C   0  0  0  0  0  0  0  0  0  0  0  0
  178.7440   21.6670   47.9810 C   0  0  0  0  0  0  0  0  0  0  0  0
  179.4550   20.7620   47.1670 C   0  0  0  0  0  0  0  0  0  0  0  0
  178.8480   19.6220   46.6220 C   0  0  0  0  0  0  0  0  0  0  0  0
  179.6420   18.6880   45.7960 C   0  0  0  0  0  0  0  0  0  0  0  0
  179.1420   17.3900   45.8140 O   0  0  0  0  0  0  0  0  0  0  0  0
  179.7840   16.4210   45.0880 C   0  0  0  0  0  0  0  0  0  0  0  0
  179.2390   15.1370   45.1240 C   0  0  0  0  0  0  0  0  0  0  0  0
  179.8460   14.1020   44.4080 C   0  0  0  0  0  0  0  0  0  0  0  0
  180.9970   14.3520   43.6580 C   0  0  0  0  0  0  0  0  0  0  0  0
  181.5390   15.6340   43.6240 C   0  0  0  0  0  0  0  0  0  0  0  0
  182.6670   15.8080   42.8710 O   0  0  0  0  0  0  0  0  0  0  0  0
  180.9310   16.6690   44.3400 C   0  0  0  0  0  0  0  0  0  0  0  0
  181.4680   18.0310   44.3320 C   0  0  0  0  0  0  0  0  0  0  0  0
  182.4810   18.3270   43.7020 O   0  0  0  0  0  0  0  0  0  0  0  0
  180.7450   19.0570   45.1170 C   0  0  0  0  0  0  0  0  0  0  0  0
  181.2680   20.3360   45.1120 O   0  0  0  0  0  0  0  0  0  0  0  0
  177.5040   19.3840   46.9170 C   0  0  0  0  0  0  0  0  0  0  0  0
  176.7840   20.2720   47.7220 C   0  0  0  0  0  0  0  0  0  0  0  0
  177.3830   21.4230   48.2650 C   0  0  0  0  0  0  0  0  0  0  0  0
  176.5530   22.3610   49.1350 C   0  0  0  0  0  0  0  0  0  0  0  0
  175.1970   21.7440   49.4900 C   0  0  0  0  0  0  0  0  0  0  0  0
  176.3730   23.7320   48.4750 C   0  0  0  0  0  0  0  0  0  0  0  0
  179.4601   22.8461   49.6167 H   0  0  0  0  0  0  0  0  0  0  0  0
  180.5154   22.8535   48.1630 H   0  0  0  0  0  0  0  0  0  0  0  0
  178.9801   23.7859   48.1630 H   0  0  0  0  0  0  0  0  0  0  0  0
  180.5165   20.9559   46.9534 H   0  0  0  0  0  0  0  0  0  0  0  0
  178.3326   14.9398   45.7153 H   0  0  0  0  0  0  0  0  0  0  0  0
  179.4168   13.0895   44.4352 H   0  0  0  0  0  0  0  0  0  0  0  0
  181.4749   13.5370   43.0947 H   0  0  0  0  0  0  0  0  0  0  0  0
  183.4970   15.5190   43.1960 H   0  0  0  0  0  0  0  0  0  0  0  0
  181.4160   20.7790   44.3000 H   0  0  0  0  0  0  0  0  0  0  0  0
  177.0072   18.4898   46.5124 H   0  0  0  0  0  0  0  0  0  0  0  0
  175.7248   20.0657   47.9356 H   0  0  0  0  0  0  0  0  0  0  0  0
  177.1109   22.5108   50.0711 H   0  0  0  0  0  0  0  0  0  0  0  0
  175.0912   21.6958   50.5838 H   0  0  0  0  0  0  0  0  0  0  0  0
  174.3910   22.3640   49.0706 H   0  0  0  0  0  0  0  0  0  0  0  0
  175.1349   20.7290   49.0706 H   0  0  0  0  0  0  0  0  0  0  0  0
  176.2718   24.5030   49.2530 H   0  0  0  0  0  0  0  0  0  0  0  0
  177.2495   23.9555   47.8491 H   0  0  0  0  0  0  0  0  0  0  0  0
  175.4685   23.7217   47.8491 H   0  0  0  0  0  0  0  0  0  0  0  0
  1  2  1  0
  2  3  2  0
  3  4  1  0
  4  5  1  0
  5  6  1  0
  6  7  1  0
  7  8  2  0
  8  9  1  0
  9 10  2  0
 10 11  1  0
 11 12  1  0
 11 13  2  0
 13 14  1  0
 14 15  2  0
 14 16  1  0
 16 17  1  0
  4 18  2  0
 18 19  1  0
 19 20  2  0
 20 21  1  0
 21 22  1  0
 21 23  1  0
 20  2  1  0
 16  5  2  0
 13  7  1  0
  1 24  1  0
  1 25  1  0
  1 26  1  0
  3 27  1  0
  8 28  1  0
  9 29  1  0
 10 30  1  0
 12 31  1  0
 17 32  1  0
 18 33  1  0
 19 34  1  0
 21 35  1  0
 22 36  1  0
 22 37  1  0
 22 38  1  0
 23 39  1  0
 23 40  1  0
 23 41  1  0
M  END
>  <meeko>  (4) 
{"is_sidechain": [false], "free_energy": -6.269, "intermolecular_energy": -8.132, "internal_energy": 0.28}

$$$$
cand_026_out
     RDKit          3D

 41 43  0  0  0  0  0  0  0  0999 V2000
  179.3620   15.1130   45.2730 C   0  0  0  0  0  0  0  0  0  0  0  0
  179.6930   16.5770   45.1620 C   0  0  0  0  0  0  0  0  0  0  0  0
  178.8860   17.5000   45.8570 C   0  0  0  0  0  0  0  0  0  0  0  0
  179.1220   18.8810   45.8010 C   0  0  0  0  0  0  0  0  0  0  0  0
  178.2630   19.8070   46.5690 C   0  0  0  0  0  0  0  0  0  0  0  0
  178.9300   20.9620   46.9620 O   0  0  0  0  0  0  0  0  0  0  0  0
  178.2490   21.9090   47.6820 C   0  0  0  0  0  0  0  0  0  0  0  0
  178.9540   23.0590   48.0420 C   0  0  0  0  0  0  0  0  0  0  0  0
  178.3200   24.0620   48.7790 C   0  0  0  0  0  0  0  0  0  0  0  0
  176.9830   23.9150   49.1550 C   0  0  0  0  0  0  0  0  0  0  0  0
  176.2820   22.7670   48.7950 C   0  0  0  0  0  0  0  0  0  0  0  0
  174.9770   22.6880   49.1960 O   0  0  0  0  0  0  0  0  0  0  0  0
  176.9170   21.7640   48.0570 C   0  0  0  0  0  0  0  0  0  0  0  0
  176.2170   20.5420   47.6580 C   0  0  0  0  0  0  0  0  0  0  0  0
  175.0430   20.3370   47.9570 O   0  0  0  0  0  0  0  0  0  0  0  0
  176.9780   19.5430   46.8710 C   0  0  0  0  0  0  0  0  0  0  0  0
  176.3110   18.3880   46.5100 O   0  0  0  0  0  0  0  0  0  0  0  0
  180.2020   19.3360   45.0420 C   0  0  0  0  0  0  0  0  0  0  0  0
  181.0120   18.4340   44.3450 C   0  0  0  0  0  0  0  0  0  0  0  0
  180.7760   17.0480   44.3890 C   0  0  0  0  0  0  0  0  0  0  0  0
  181.6890   16.1070   43.6100 C   0  0  0  0  0  0  0  0  0  0  0  0
  181.2770   16.0170   42.1370 C   0  0  0  0  0  0  0  0  0  0  0  0
  181.7410   14.7150   44.2480 C   0  0  0  0  0  0  0  0  0  0  0  0
  179.2982   14.8309   46.3343 H   0  0  0  0  0  0  0  0  0  0  0  0
  178.3969   14.9171   44.7829 H   0  0  0  0  0  0  0  0  0  0  0  0
  180.1490   14.5210   44.7829 H   0  0  0  0  0  0  0  0  0  0  0  0
  178.0463   17.1260   46.4612 H   0  0  0  0  0  0  0  0  0  0  0  0
  180.0070   23.1750   47.7458 H   0  0  0  0  0  0  0  0  0  0  0  0
  178.8743   24.9685   49.0635 H   0  0  0  0  0  0  0  0  0  0  0  0
  176.4842   24.7054   49.7350 H   0  0  0  0  0  0  0  0  0  0  0  0
  174.4290   22.0000   48.8720 H   0  0  0  0  0  0  0  0  0  0  0  0
  176.4690   17.9970   45.6730 H   0  0  0  0  0  0  0  0  0  0  0  0
  180.4176   20.4135   44.9919 H   0  0  0  0  0  0  0  0  0  0  0  0
  181.8531   18.8172   43.7486 H   0  0  0  0  0  0  0  0  0  0  0  0
  182.7024   16.5328   43.6515 H   0  0  0  0  0  0  0  0  0  0  0  0
  180.2043   15.7827   42.0700 H   0  0  0  0  0  0  0  0  0  0  0  0
  181.4738   16.9793   41.6418 H   0  0  0  0  0  0  0  0  0  0  0  0
  181.8571   15.2244   41.6418 H   0  0  0  0  0  0  0  0  0  0  0  0
  181.7373   14.8134   45.3436 H   0  0  0  0  0  0  0  0  0  0  0  0
  180.8640   14.1326   43.9292 H   0  0  0  0  0  0  0  0  0  0  0  0
  182.6590   14.1996   43.9292 H   0  0  0  0  0  0  0  0  0  0  0  0
  1  2  1  0
  2  3  2  0
  3  4  1  0
  4  5  1  0
  5  6  1  0
  6  7  1  0
  7  8  2  0
  8  9  1  0
  9 10  2  0
 10 11  1  0
 11 12  1  0
 11 13  2  0
 13 14  1  0
 14 15  2  0
 14 16  1  0
 16 17  1  0
  4 18  2  0
 18 19  1  0
 19 20  2  0
 20 21  1  0
 21 22  1  0
 21 23  1  0
 20  2  1  0
 16  5  2  0
 13  7  1  0
  1 24  1  0
  1 25  1  0
  1 26  1  0
  3 27  1  0
  8 28  1  0
  9 29  1  0
 10 30  1  0
 12 31  1  0
 17 32  1  0
 18 33  1  0
 19 34  1  0
 21 35  1  0
 22 36  1  0
 22 37  1  0
 22 38  1  0
 23 39  1  0
 23 40  1  0
 23 41  1  0
M  END
>  <meeko>  (5) 
{"is_sidechain": [false], "free_energy": -5.478, "intermolecular_energy": -8.031, "internal_energy": 1.108}

$$$$
cand_026_out
     RDKit          3D

 41 43  0  0  0  0  0  0  0  0999 V2000
  185.4490   24.5100   47.6290 C   0  0  0  0  0  0  0  0  0  0  0  0
  184.8870   23.5860   46.5830 C   0  0  0  0  0  0  0  0  0  0  0  0
  183.6440   22.9710   46.8330 C   0  0  0  0  0  0  0  0  0  0  0  0
  183.0530   22.0920   45.9130 C   0  0  0  0  0  0  0  0  0  0  0  0
  181.7350   21.4930   46.2080 C   0  0  0  0  0  0  0  0  0  0  0  0
  180.9160   22.3300   46.9580 O   0  0  0  0  0  0  0  0  0  0  0  0
  179.6610   21.8980   47.3010 C   0  0  0  0  0  0  0  0  0  0  0  0
  178.8690   22.7770   48.0410 C   0  0  0  0  0  0  0  0  0  0  0  0
  177.5810   22.3980   48.4270 C   0  0  0  0  0  0  0  0  0  0  0  0
  177.0870   21.1400   48.0720 C   0  0  0  0  0  0  0  0  0  0  0  0
  177.8790   20.2650   47.3340 C   0  0  0  0  0  0  0  0  0  0  0  0
  177.3330   19.0510   47.0220 O   0  0  0  0  0  0  0  0  0  0  0  0
  179.1670   20.6460   46.9480 C   0  0  0  0  0  0  0  0  0  0  0  0
  180.0340   19.7560   46.1730 C   0  0  0  0  0  0  0  0  0  0  0  0
  179.6720   18.6330   45.8300 O   0  0  0  0  0  0  0  0  0  0  0  0
  181.3790   20.2570   45.8080 C   0  0  0  0  0  0  0  0  0  0  0  0
  182.1920   19.4040   45.0860 O   0  0  0  0  0  0  0  0  0  0  0  0
  183.7240   21.8420   44.7140 C   0  0  0  0  0  0  0  0  0  0  0  0
  184.9590   22.4430   44.4510 C   0  0  0  0  0  0  0  0  0  0  0  0
  185.5620   23.3190   45.3730 C   0  0  0  0  0  0  0  0  0  0  0  0
  186.9100   23.9470   45.0380 C   0  0  0  0  0  0  0  0  0  0  0  0
  186.7710   25.0480   43.9820 C   0  0  0  0  0  0  0  0  0  0  0  0
  187.9300   22.8920   44.5960 C   0  0  0  0  0  0  0  0  0  0  0  0
  185.2113   24.1192   48.6294 H   0  0  0  0  0  0  0  0  0  0  0  0
  186.5407   24.5765   47.5112 H   0  0  0  0  0  0  0  0  0  0  0  0
  185.0060   25.5099   47.5112 H   0  0  0  0  0  0  0  0  0  0  0  0
  183.1219   23.1864   47.7769 H   0  0  0  0  0  0  0  0  0  0  0  0
  179.2585   23.7672   48.3200 H   0  0  0  0  0  0  0  0  0  0  0  0
  176.9557   23.0899   49.0104 H   0  0  0  0  0  0  0  0  0  0  0  0
  176.0728   20.8413   48.3756 H   0  0  0  0  0  0  0  0  0  0  0  0
  177.0180   18.4900   47.7040 H   0  0  0  0  0  0  0  0  0  0  0  0
  181.9110   19.0810   44.2520 H   0  0  0  0  0  0  0  0  0  0  0  0
  183.2771   21.1663   43.9699 H   0  0  0  0  0  0  0  0  0  0  0  0
  185.4709   22.2262   43.5018 H   0  0  0  0  0  0  0  0  0  0  0  0
  187.2869   24.4117   45.9610 H   0  0  0  0  0  0  0  0  0  0  0  0
  186.6482   26.0208   44.4805 H   0  0  0  0  0  0  0  0  0  0  0  0
  187.6736   25.0694   43.3536 H   0  0  0  0  0  0  0  0  0  0  0  0
  185.8914   24.8444   43.3536 H   0  0  0  0  0  0  0  0  0  0  0  0
  188.3819   22.4246   45.4833 H   0  0  0  0  0  0  0  0  0  0  0  0
  187.4244   22.1228   43.9937 H   0  0  0  0  0  0  0  0  0  0  0  0
  188.7158   23.3714   43.9937 H   0  0  0  0  0  0  0  0  0  0  0  0
  1  2  1  0
  2  3  2  0
  3  4  1  0
  4  5  1  0
  5  6  1  0
  6  7  1  0
  7  8  2  0
  8  9  1  0
  9 10  2  0
 10 11  1  0
 11 12  1  0
 11 13  2  0
 13 14  1  0
 14 15  2  0
 14 16  1  0
 16 17  1  0
  4 18  2  0
 18 19  1  0
 19 20  2  0
 20 21  1  0
 21 22  1  0
 21 23  1  0
 20  2  1  0
 16  5  2  0
 13  7  1  0
  1 24  1  0
  1 25  1  0
  1 26  1  0
  3 27  1  0
  8 28  1  0
  9 29  1  0
 10 30  1  0
 12 31  1  0
 17 32  1  0
 18 33  1  0
 19 34  1  0
 21 35  1  0
 22 36  1  0
 22 37  1  0
 22 38  1  0
 23 39  1  0
 23 40  1  0
 23 41  1  0
M  END
>  <meeko>  (6) 
{"is_sidechain": [false], "free_energy": -5.366, "intermolecular_energy": -6.586, "internal_energy": -0.206}

$$$$
