cand_031_out
     RDKit          3D

 36 38  0  0  0  0  0  0  0  0999 V2000
  178.8990   14.0570   44.1570 C   0  0  0  0  0  0  0  0  0  0  0  0
  180.0130   14.5160   44.7410 C   0  0  0  0  0  0  0  0  0  0  0  0
  180.4970   15.8960   44.5900 C   0  0  0  0  0  0  0  0  0  0  0  0
  179.9620   16.9100   45.4050 C   0  0  0  0  0  0  0  0  0  0  0  0
  180.3660   18.2480   45.2750 C   0  0  0  0  0  0  0  0  0  0  0  0
  179.7980   19.2770   46.1730 C   0  0  0  0  0  0  0  0  0  0  0  0
  178.4090   19.2590   46.2030 O   0  0  0  0  0  0  0  0  0  0  0  0
  177.7500   20.1640   46.9950 C   0  0  0  0  0  0  0  0  0  0  0  0
  176.3560   20.1030   47.0060 C   0  0  0  0  0  0  0  0  0  0  0  0
  175.6250   20.9960   47.7910 C   0  0  0  0  0  0  0  0  0  0  0  0
  176.2860   21.9520   48.5640 C   0  0  0  0  0  0  0  0  0  0  0  0
  177.6770   22.0120   48.5520 C   0  0  0  0  0  0  0  0  0  0  0  0
  178.2600   22.9720   49.3330 O   0  0  0  0  0  0  0  0  0  0  0  0
  178.4090   21.1170   47.7670 C   0  0  0  0  0  0  0  0  0  0  0  0
  179.8720   21.1450   47.7270 C   0  0  0  0  0  0  0  0  0  0  0  0
  180.5260   21.9610   48.3730 O   0  0  0  0  0  0  0  0  0  0  0  0
  180.5520   20.1490   46.8670 C   0  0  0  0  0  0  0  0  0  0  0  0
  181.9330   20.1950   46.8240 O   0  0  0  0  0  0  0  0  0  0  0  0
  181.3300   18.5610   44.3120 C   0  0  0  0  0  0  0  0  0  0  0  0
  181.8630   17.5680   43.4880 C   0  0  0  0  0  0  0  0  0  0  0  0
  181.4570   16.2310   43.6150 C   0  0  0  0  0  0  0  0  0  0  0  0
  182.0580   15.1950   42.7030 C   0  0  0  0  0  0  0  0  0  0  0  0
  178.5888   13.0126   44.3086 H   0  0  0  0  0  0  0  0  0  0  0  0
  178.2940   14.7243   43.5256 H   0  0  0  0  0  0  0  0  0  0  0  0
  180.5966   13.8244   45.3664 H   0  0  0  0  0  0  0  0  0  0  0  0
  179.2087   16.6481   46.1626 H   0  0  0  0  0  0  0  0  0  0  0  0
  175.8334   19.3514   46.3962 H   0  0  0  0  0  0  0  0  0  0  0  0
  174.5262   20.9463   47.8005 H   0  0  0  0  0  0  0  0  0  0  0  0
  175.7092   22.6564   49.1813 H   0  0  0  0  0  0  0  0  0  0  0  0
  177.8610   23.2260   50.1420 H   0  0  0  0  0  0  0  0  0  0  0  0
  182.4130   20.5440   47.5500 H   0  0  0  0  0  0  0  0  0  0  0  0
  181.6721   19.6007   44.2024 H   0  0  0  0  0  0  0  0  0  0  0  0
  182.6117   17.8376   42.7286 H   0  0  0  0  0  0  0  0  0  0  0  0
  182.5197   14.3992   43.3060 H   0  0  0  0  0  0  0  0  0  0  0  0
  181.2699   14.7637   42.0683 H   0  0  0  0  0  0  0  0  0  0  0  0
  182.8236   15.6651   42.0683 H   0  0  0  0  0  0  0  0  0  0  0  0
  1  2  2  0
  2  3  1  0
  3  4  2  0
  4  5  1  0
  5  6  1  0
  6  7  1  0
  7  8  1  0
  8  9  2  0
  9 10  1  0
 10 11  2  0
 11 12  1  0
 12 13  1  0
 12 14  2  0
 14 15  1  0
 15 16  2  0
 15 17  1  0
 17 18  1  0
  5 19  2  0
 19 20  1  0
 20 21  2  0
 21 22  1  0
 21  3  1  0
 17  6  2  0
 14  8  1  0
  1 23  1  0
  1 24  1  0
  2 25  1  0
  4 26  1  0
  9 27  1  0
 10 28  1  0
 11 29  1  0
 13 30  1  0
 18 31  1  0
 19 32  1  0
 20 33  1  0
 22 34  1  0
 22 35  1  0
 22 36  1  0
M  END
>  <meeko>  (1) 
{"is_sidechain": [false], "free_energy": -7.767, "intermolecular_energy": -9.13, "internal_energy": -0.213}

$$$$
cand_031_out
     RDKit          3D

 36 38  0  0  0  0  0  0  0  0999 V2000
  174.7090   19.9060   47.2950 C   0  0  0  0  0  0  0  0  0  0  0  0
  175.5170   20.9220   46.9660 C   0  0  0  0  0  0  0  0  0  0  0  0
  176.9780   20.8800   47.1260 C   0  0  0  0  0  0  0  0  0  0  0  0
  177.7260   19.9300   46.4070 C   0  0  0  0  0  0  0  0  0  0  0  0
  179.1180   19.8270   46.5520 C   0  0  0  0  0  0  0  0  0  0  0  0
  179.8680   18.8330   45.7540 C   0  0  0  0  0  0  0  0  0  0  0  0
  179.2920   17.5680   45.7890 O   0  0  0  0  0  0  0  0  0  0  0  0
  179.8880   16.5480   45.0920 C   0  0  0  0  0  0  0  0  0  0  0  0
  179.2690   15.2980   45.1440 C   0  0  0  0  0  0  0  0  0  0  0  0
  179.8250   14.2170   44.4580 C   0  0  0  0  0  0  0  0  0  0  0  0
  180.9980   14.3840   43.7200 C   0  0  0  0  0  0  0  0  0  0  0  0
  181.6140   15.6320   43.6700 C   0  0  0  0  0  0  0  0  0  0  0  0
  182.7600   15.7250   42.9290 O   0  0  0  0  0  0  0  0  0  0  0  0
  181.0570   16.7140   44.3570 C   0  0  0  0  0  0  0  0  0  0  0  0
  181.6720   18.0420   44.3290 C   0  0  0  0  0  0  0  0  0  0  0  0
  182.7090   18.2670   43.7090 O   0  0  0  0  0  0  0  0  0  0  0  0
  180.9990   19.1230   45.0850 C   0  0  0  0  0  0  0  0  0  0  0  0
  181.5960   20.3700   45.0650 O   0  0  0  0  0  0  0  0  0  0  0  0
  179.7620   20.7030   47.4310 C   0  0  0  0  0  0  0  0  0  0  0  0
  179.0320   21.6440   48.1590 C   0  0  0  0  0  0  0  0  0  0  0  0
  177.6400   21.7460   48.0180 C   0  0  0  0  0  0  0  0  0  0  0  0
  176.8960   22.7750   48.8260 C   0  0  0  0  0  0  0  0  0  0  0  0
  173.6224   19.9987   47.1513 H   0  0  0  0  0  0  0  0  0  0  0  0
  175.1319   18.9788   47.7089 H   0  0  0  0  0  0  0  0  0  0  0  0
  175.0639   21.8360   46.5544 H   0  0  0  0  0  0  0  0  0  0  0  0
  177.2071   19.2513   45.7142 H   0  0  0  0  0  0  0  0  0  0  0  0
  178.3443   15.1650   45.7248 H   0  0  0  0  0  0  0  0  0  0  0  0
  179.3379   13.2316   44.4990 H   0  0  0  0  0  0  0  0  0  0  0  0
  181.4349   13.5316   43.1791 H   0  0  0  0  0  0  0  0  0  0  0  0
  183.4790   16.2400   43.2390 H   0  0  0  0  0  0  0  0  0  0  0  0
  182.3720   20.5100   44.5580 H   0  0  0  0  0  0  0  0  0  0  0  0
  180.8543   20.6501   47.5500 H   0  0  0  0  0  0  0  0  0  0  0  0
  179.5564   22.3161   48.8542 H   0  0  0  0  0  0  0  0  0  0  0  0
  177.0410   22.5745   49.8978 H   0  0  0  0  0  0  0  0  0  0  0  0
  177.2795   23.7775   48.5854 H   0  0  0  0  0  0  0  0  0  0  0  0
  175.8238   22.7250   48.5854 H   0  0  0  0  0  0  0  0  0  0  0  0
  1  2  2  0
  2  3  1  0
  3  4  2  0
  4  5  1  0
  5  6  1  0
  6  7  1  0
  7  8  1  0
  8  9  2  0
  9 10  1  0
 10 11  2  0
 11 12  1  0
 12 13  1  0
 12 14  2  0
 14 15  1  0
 15 16  2  0
 15 17  1  0
 17 18  1  0
  5 19  2  0
 19 20  1  0
 20 21  2  0
 21 22  1  0
 21  3  1  0
 17  6  2  0
 14  8  1  0
  1 23  1  0
  1 24  1  0
  2 25  1  0
  4 26  1  0
  9 27  1  0
 10 28  1  0
 11 29  1  0
 13 30  1  0
 18 31  1  0
 19 32  1  0
 20 33  1  0
 22 34  1  0
 22 35  1  0
 22 36  1  0
M  END
>  <meeko>  (2) 
{"is_sidechain": [false], "free_energy": -7.393, "intermolecular_energy": -8.713, "internal_energy": -0.19}

$$$$
cand_031_out
     RDKit          3D

 36 38  0  0  0  0  0  0  0  0999 V2000
  181.1760   15.6590   40.0230 C   0  0  0  0  0  0  0  0  0  0  0  0
  181.5530   16.4540   41.0320 C   0  0  0  0  0  0  0  0  0  0  0  0
  181.0970   16.2730   42.4190 C   0  0  0  0  0  0  0  0  0  0  0  0
  180.8620   17.4040   43.2230 C   0  0  0  0  0  0  0  0  0  0  0  0
  180.4600   17.2840   44.5620 C   0  0  0  0  0  0  0  0  0  0  0  0
  180.1940   18.5000   45.3610 C   0  0  0  0  0  0  0  0  0  0  0  0
  178.8910   18.5530   45.8440 O   0  0  0  0  0  0  0  0  0  0  0  0
  178.5080   19.6310   46.6010 C   0  0  0  0  0  0  0  0  0  0  0  0
  177.1960   19.6380   47.0760 C   0  0  0  0  0  0  0  0  0  0  0  0
  176.7410   20.7060   47.8520 C   0  0  0  0  0  0  0  0  0  0  0  0
  177.5980   21.7670   48.1520 C   0  0  0  0  0  0  0  0  0  0  0  0
  178.9070   21.7580   47.6770 C   0  0  0  0  0  0  0  0  0  0  0  0
  179.6910   22.8280   48.0090 O   0  0  0  0  0  0  0  0  0  0  0  0
  179.3610   20.6880   46.9010 C   0  0  0  0  0  0  0  0  0  0  0  0
  180.7290   20.6390   46.3830 C   0  0  0  0  0  0  0  0  0  0  0  0
  181.5400   21.5380   46.5980 O   0  0  0  0  0  0  0  0  0  0  0  0
  181.1130   19.4580   45.5760 C   0  0  0  0  0  0  0  0  0  0  0  0
  182.4030   19.4290   45.0790 O   0  0  0  0  0  0  0  0  0  0  0  0
  180.2880   16.0020   45.0920 C   0  0  0  0  0  0  0  0  0  0  0  0
  180.5280   14.8700   44.3110 C   0  0  0  0  0  0  0  0  0  0  0  0
  180.9330   14.9890   42.9730 C   0  0  0  0  0  0  0  0  0  0  0  0
  181.1830   13.7400   42.1700 C   0  0  0  0  0  0  0  0  0  0  0  0
  181.5515   15.8455   39.0060 H   0  0  0  0  0  0  0  0  0  0  0  0
  180.4908   14.8193   40.2109 H   0  0  0  0  0  0  0  0  0  0  0  0
  182.2391   17.2854   40.8127 H   0  0  0  0  0  0  0  0  0  0  0  0
  180.9968   18.4066   42.7911 H   0  0  0  0  0  0  0  0  0  0  0  0
  176.5206   18.8027   46.8393 H   0  0  0  0  0  0  0  0  0  0  0  0
  175.7070   20.7116   48.2272 H   0  0  0  0  0  0  0  0  0  0  0  0
  177.2395   22.6087   48.7627 H   0  0  0  0  0  0  0  0  0  0  0  0
  180.5150   22.9570   47.5820 H   0  0  0  0  0  0  0  0  0  0  0  0
  182.5560   19.1790   44.1890 H   0  0  0  0  0  0  0  0  0  0  0  0
  179.9601   15.8839   46.1353 H   0  0  0  0  0  0  0  0  0  0  0  0
  180.3977   13.8703   44.7510 H   0  0  0  0  0  0  0  0  0  0  0  0
  181.3524   12.8935   42.8518 H   0  0  0  0  0  0  0  0  0  0  0  0
  180.3089   13.5307   41.5358 H   0  0  0  0  0  0  0  0  0  0  0  0
  182.0703   13.8833   41.5358 H   0  0  0  0  0  0  0  0  0  0  0  0
  1  2  2  0
  2  3  1  0
  3  4  2  0
  4  5  1  0
  5  6  1  0
  6  7  1  0
  7  8  1  0
  8  9  2  0
  9 10  1  0
 10 11  2  0
 11 12  1  0
 12 13  1  0
 12 14  2  0
 14 15  1  0
 15 16  2  0
 15 17  1  0
 17 18  1  0
  5 19  2  0
 19 20  1  0
 20 21  2  0
 21 22  1  0
 21  3  1  0
 17  6  2  0
 14  8  1  0
  1 23  1  0
  1 24  1  0
  2 25  1  0
  4 26  1  0
  9 27  1  0
 10 28  1  0
 11 29  1  0
 13 30  1  0
 18 31  1  0
 19 32  1  0
 20 33  1  0
 22 34  1  0
 22 35  1  0
 22 36  1  0
M  END
>  <meeko>  (3) 
{"is_sidechain": [false], "free_energy": -6.893, "intermolecular_energy": -8.772, "internal_energy": 0.458}

$$$$
cand_031_out
     RDKit          3D

 36 38  0  0  0  0  0  0  0  0999 V2000
  179.6370   14.3220   44.0920 C   0  0  0  0  0  0  0  0  0  0  0  0
  179.8760   15.0960   45.1580 C   0  0  0  0  0  0  0  0  0  0  0  0
  180.0100   16.5590   45.0820 C   0  0  0  0  0  0  0  0  0  0  0  0
  179.0840   17.3750   45.7580 C   0  0  0  0  0  0  0  0  0  0  0  0
  179.1480   18.7750   45.6880 C   0  0  0  0  0  0  0  0  0  0  0  0
  178.1710   19.5940   46.4390 C   0  0  0  0  0  0  0  0  0  0  0  0
  178.7090   20.7930   46.8920 O   0  0  0  0  0  0  0  0  0  0  0  0
  177.9110   21.6500   47.6060 C   0  0  0  0  0  0  0  0  0  0  0  0
  178.4870   22.8480   48.0310 C   0  0  0  0  0  0  0  0  0  0  0  0
  177.7300   23.7640   48.7630 C   0  0  0  0  0  0  0  0  0  0  0  0
  176.3970   23.4830   49.0710 C   0  0  0  0  0  0  0  0  0  0  0  0
  175.8250   22.2870   48.6470 C   0  0  0  0  0  0  0  0  0  0  0  0
  174.5160   22.0750   48.9840 O   0  0  0  0  0  0  0  0  0  0  0  0
  176.5830   21.3700   47.9140 C   0  0  0  0  0  0  0  0  0  0  0  0
  176.0190   20.1020   47.4480 C   0  0  0  0  0  0  0  0  0  0  0  0
  174.8570   19.7790   47.6860 O   0  0  0  0  0  0  0  0  0  0  0  0
  176.9050   19.2030   46.6730 C   0  0  0  0  0  0  0  0  0  0  0  0
  176.3680   18.0010   46.2500 O   0  0  0  0  0  0  0  0  0  0  0  0
  180.1690   19.3560   44.9300 C   0  0  0  0  0  0  0  0  0  0  0  0
  181.0900   18.5610   44.2460 C   0  0  0  0  0  0  0  0  0  0  0  0
  181.0240   17.1610   44.3120 C   0  0  0  0  0  0  0  0  0  0  0  0
  182.0370   16.3450   43.5550 C   0  0  0  0  0  0  0  0  0  0  0  0
  179.5469   13.2323   44.2126 H   0  0  0  0  0  0  0  0  0  0  0  0
  179.5307   14.7757   43.0956 H   0  0  0  0  0  0  0  0  0  0  0  0
  179.9774   14.6132   46.1411 H   0  0  0  0  0  0  0  0  0  0  0  0
  178.2903   16.9036   46.3562 H   0  0  0  0  0  0  0  0  0  0  0  0
  179.5369   23.0702   47.7892 H   0  0  0  0  0  0  0  0  0  0  0  0
  178.1838   24.7085   49.0978 H   0  0  0  0  0  0  0  0  0  0  0  0
  175.8004   24.2054   49.6475 H   0  0  0  0  0  0  0  0  0  0  0  0
  173.8320   22.4870   48.4930 H   0  0  0  0  0  0  0  0  0  0  0  0
  175.5420   17.9880   45.8070 H   0  0  0  0  0  0  0  0  0  0  0  0
  180.2474   20.4517   44.8720 H   0  0  0  0  0  0  0  0  0  0  0  0
  181.8789   19.0389   43.6466 H   0  0  0  0  0  0  0  0  0  0  0  0
  182.6900   15.8190   44.2669 H   0  0  0  0  0  0  0  0  0  0  0  0
  181.5173   15.6104   42.9224 H   0  0  0  0  0  0  0  0  0  0  0  0
  182.6441   17.0093   42.9224 H   0  0  0  0  0  0  0  0  0  0  0  0
  1  2  2  0
  2  3  1  0
  3  4  2  0
  4  5  1  0
  5  6  1  0
  6  7  1  0
  7  8  1  0
  8  9  2  0
  9 10  1  0
 10 11  2  0
 11 12  1  0
 12 13  1  0
 12 14  2  0
 14 15  1  0
 15 16  2  0
 15 17  1  0
 17 18  1  0
  5 19  2  0
 19 20  1  0
 20 21  2  0
 21 22  1  0
 21  3  1  0
 17  6  2  0
 14  8  1  0
  1 23  1  0
  1 24  1  0
  2 25  1  0
  4 26  1  0
  9 27  1  0
 10 28  1  0
 11 29  1  0
 13 30  1  0
 18 31  1  0
 19 32  1  0
 20 33  1  0
 22 34  1  0
 22 35  1  0
 22 36  1  0
M  END
>  <meeko>  (4) 
{"is_sidechain": [false], "free_energy": -6.261, "intermolecular_energy": -7.946, "internal_energy": 0.374}

$$$$
cand_031_out
     RDKit          3D

 36 38  0  0  0  0  0  0  0  0999 V2000
  182.9490   21.9090   45.9090 C   0  0  0  0  0  0  0  0  0  0  0  0
  182.7450   20.8320   45.1400 C   0  0  0  0  0  0  0  0  0  0  0  0
  181.5570   19.9720   45.2480 C   0  0  0  0  0  0  0  0  0  0  0  0
  180.4140   20.4520   45.9120 C   0  0  0  0  0  0  0  0  0  0  0  0
  179.2680   19.6570   46.0720 C   0  0  0  0  0  0  0  0  0  0  0  0
  178.0770   20.2130   46.7510 C   0  0  0  0  0  0  0  0  0  0  0  0
  178.3210   21.4470   47.3430 O   0  0  0  0  0  0  0  0  0  0  0  0
  177.3010   22.0770   48.0100 C   0  0  0  0  0  0  0  0  0  0  0  0
  177.5860   23.3190   48.5780 C   0  0  0  0  0  0  0  0  0  0  0  0
  176.5920   24.0120   49.2710 C   0  0  0  0  0  0  0  0  0  0  0  0
  175.3140   23.4640   49.3970 C   0  0  0  0  0  0  0  0  0  0  0  0
  175.0320   22.2240   48.8290 C   0  0  0  0  0  0  0  0  0  0  0  0
  173.7610   21.7460   48.9910 O   0  0  0  0  0  0  0  0  0  0  0  0
  176.0270   21.5310   48.1350 C   0  0  0  0  0  0  0  0  0  0  0  0
  175.7720   20.2260   47.5230 C   0  0  0  0  0  0  0  0  0  0  0  0
  174.6760   19.6750   47.5970 O   0  0  0  0  0  0  0  0  0  0  0  0
  176.8920   19.5770   46.8040 C   0  0  0  0  0  0  0  0  0  0  0  0
  176.6460   18.3380   46.2420 O   0  0  0  0  0  0  0  0  0  0  0  0
  179.2790   18.3620   45.5470 C   0  0  0  0  0  0  0  0  0  0  0  0
  180.4100   17.8670   44.8950 C   0  0  0  0  0  0  0  0  0  0  0  0
  181.5570   18.6590   44.7380 C   0  0  0  0  0  0  0  0  0  0  0  0
  182.7530   18.0820   44.0300 C   0  0  0  0  0  0  0  0  0  0  0  0
  183.8593   22.5128   45.7795 H   0  0  0  0  0  0  0  0  0  0  0  0
  182.2063   22.1899   46.6702 H   0  0  0  0  0  0  0  0  0  0  0  0
  183.5061   20.5771   44.3879 H   0  0  0  0  0  0  0  0  0  0  0  0
  180.4180   21.4752   46.3158 H   0  0  0  0  0  0  0  0  0  0  0  0
  178.5926   23.7516   48.4799 H   0  0  0  0  0  0  0  0  0  0  0  0
  176.8159   24.9915   49.7186 H   0  0  0  0  0  0  0  0  0  0  0  0
  174.5315   24.0105   49.9438 H   0  0  0  0  0  0  0  0  0  0  0  0
  173.2070   22.1030   49.6570 H   0  0  0  0  0  0  0  0  0  0  0  0
  176.0210   18.2540   45.5480 H   0  0  0  0  0  0  0  0  0  0  0  0
  178.3873   17.7260   45.6485 H   0  0  0  0  0  0  0  0  0  0  0  0
  180.4015   16.8409   44.4986 H   0  0  0  0  0  0  0  0  0  0  0  0
  183.4839   17.7294   44.7726 H   0  0  0  0  0  0  0  0  0  0  0  0
  182.4344   17.2385   43.3999 H   0  0  0  0  0  0  0  0  0  0  0  0
  183.2149   18.8563   43.3999 H   0  0  0  0  0  0  0  0  0  0  0  0
  1  2  2  0
  2  3  1  0
  3  4  2  0
  4  5  1  0
  5  6  1  0
  6  7  1  0
  7  8  1  0
  8  9  2  0
  9 10  1  0
 10 11  2  0
 11 12  1  0
 12 13  1  0
 12 14  2  0
 14 15  1  0
 15 16  2  0
 15 17  1  0
 17 18  1  0
  5 19  2  0
 19 20  1  0
 20 21  2  0
 21 22  1  0
 21  3  1  0
 17  6  2  0
 14  8  1  0
  1 23  1  0
  1 24  1  0
  2 25  1  0
  4 26  1  0
  9 27  1  0
 10 28  1  0
 11 29  1  0
 13 30  1  0
 18 31  1  0
 19 32  1  0
 20 33  1  0
 22 34  1  0
 22 35  1  0
 22 36  1  0
M  END
>  <meeko>  (5) 
{"is_sidechain": [false], "free_energy": -5.527, "intermolecular_energy": -6.864, "internal_energy": 0.155}

$$$$
cand_031_out
     RDKit          3D

 36 38  0  0  0  0  0  0  0  0999 V2000
  186.9330   21.3130   43.0610 C   0  0  0  0  0  0  0  0  0  0  0  0
  186.1570   22.3880   43.2430 C   0  0  0  0  0  0  0  0  0  0  0  0
  185.4160   22.6510   44.4870 C   0  0  0  0  0  0  0  0  0  0  0  0
  184.1770   22.0190   44.7000 C   0  0  0  0  0  0  0  0  0  0  0  0
  183.4160   22.2630   45.8540 C   0  0  0  0  0  0  0  0  0  0  0  0
  182.1330   21.5550   46.0520 C   0  0  0  0  0  0  0  0  0  0  0  0
  181.2410   22.2670   46.8450 O   0  0  0  0  0  0  0  0  0  0  0  0
  180.0100   21.7240   47.1110 C   0  0  0  0  0  0  0  0  0  0  0  0
  179.1400   22.4780   47.9000 C   0  0  0  0  0  0  0  0  0  0  0  0
  177.8730   21.9820   48.2100 C   0  0  0  0  0  0  0  0  0  0  0  0
  177.4740   20.7320   47.7310 C   0  0  0  0  0  0  0  0  0  0  0  0
  178.3430   19.9810   46.9440 C   0  0  0  0  0  0  0  0  0  0  0  0
  177.8890   18.7660   46.5100 O   0  0  0  0  0  0  0  0  0  0  0  0
  179.6120   20.4780   46.6350 C   0  0  0  0  0  0  0  0  0  0  0  0
  180.5550   19.7210   45.8100 C   0  0  0  0  0  0  0  0  0  0  0  0
  180.2810   18.6110   45.3580 O   0  0  0  0  0  0  0  0  0  0  0  0
  181.8720   20.3400   45.5350 C   0  0  0  0  0  0  0  0  0  0  0  0
  182.7620   19.6110   44.7670 O   0  0  0  0  0  0  0  0  0  0  0  0
  183.9200   23.1540   46.8060 C   0  0  0  0  0  0  0  0  0  0  0  0
  185.1430   23.7970   46.6040 C   0  0  0  0  0  0  0  0  0  0  0  0
  185.9020   23.5560   45.4490 C   0  0  0  0  0  0  0  0  0  0  0  0
  187.2140   24.2740   45.2740 C   0  0  0  0  0  0  0  0  0  0  0  0
  187.4622   21.1718   42.1071 H   0  0  0  0  0  0  0  0  0  0  0  0
  187.0416   20.5705   43.8653 H   0  0  0  0  0  0  0  0  0  0  0  0
  186.0684   23.1126   42.4201 H   0  0  0  0  0  0  0  0  0  0  0  0
  183.7956   21.3168   43.9440 H   0  0  0  0  0  0  0  0  0  0  0  0
  179.4529   23.4628   48.2773 H   0  0  0  0  0  0  0  0  0  0  0  0
  177.1877   22.5761   48.8323 H   0  0  0  0  0  0  0  0  0  0  0  0
  176.4750   20.3416   47.9751 H   0  0  0  0  0  0  0  0  0  0  0  0
  178.3290   18.3220   45.8130 H   0  0  0  0  0  0  0  0  0  0  0  0
  183.0500   19.9440   43.9400 H   0  0  0  0  0  0  0  0  0  0  0  0
  183.3470   23.3507   47.7241 H   0  0  0  0  0  0  0  0  0  0  0  0
  185.5165   24.5023   47.3610 H   0  0  0  0  0  0  0  0  0  0  0  0
  187.6392   24.5067   46.2614 H   0  0  0  0  0  0  0  0  0  0  0  0
  187.9118   23.6320   44.7164 H   0  0  0  0  0  0  0  0  0  0  0  0
  187.0494   25.2078   44.7164 H   0  0  0  0  0  0  0  0  0  0  0  0
  1  2  2  0
  2  3  1  0
  3  4  2  0
  4  5  1  0
  5  6  1  0
  6  7  1  0
  7  8  1  0
  8  9  2  0
  9 10  1  0
 10 11  2  0
 11 12  1  0
 12 13  1  0
 12 14  2  0
 14 15  1  0
 15 16  2  0
 15 17  1  0
 17 18  1  0
  5 19  2  0
 19 20  1  0
 20 21  2  0
 21 22  1  0
 21  3  1  0
 17  6  2  0
 14  8  1  0
  1 23  1  0
  1 24  1  0
  2 25  1  0
  4 26  1  0
  9 27  1  0
 10 28  1  0
 11 29  1  0
 13 30  1  0
 18 31  1  0
 19 32  1  0
 20 33  1  0
 22 34  1  0
 22 35  1  0
 22 36  1  0
M  END
>  <meeko>  (6) 
{"is_sidechain": [false], "free_energy": -5.387, "intermolecular_energy": -6.63, "internal_energy": 0.086}

$$$$
cand_031_out
     RDKit          3D

 36 38  0  0  0  0  0  0  0  0999 V2000
  175.5470   19.5150   49.9020 C   0  0  0  0  0  0  0  0  0  0  0  0
  175.4050   20.7750   49.4730 C   0  0  0  0  0  0  0  0  0  0  0  0
  176.4570   21.5100   48.7540 C   0  0  0  0  0  0  0  0  0  0  0  0
  177.4280   20.7950   48.0290 C   0  0  0  0  0  0  0  0  0  0  0  0
  178.4720   21.4480   47.3560 C   0  0  0  0  0  0  0  0  0  0  0  0
  179.4540   20.6590   46.5800 C   0  0  0  0  0  0  0  0  0  0  0  0
  179.0000   19.3800   46.2800 O   0  0  0  0  0  0  0  0  0  0  0  0
  179.8130   18.5380   45.5650 C   0  0  0  0  0  0  0  0  0  0  0  0
  179.3140   17.2680   45.2750 C   0  0  0  0  0  0  0  0  0  0  0  0
  180.0910   16.3630   44.5510 C   0  0  0  0  0  0  0  0  0  0  0  0
  181.3680   16.7260   44.1180 C   0  0  0  0  0  0  0  0  0  0  0  0
  181.8640   17.9930   44.4090 C   0  0  0  0  0  0  0  0  0  0  0  0
  183.1220   18.2830   43.9550 O   0  0  0  0  0  0  0  0  0  0  0  0
  181.0860   18.9000   45.1330 C   0  0  0  0  0  0  0  0  0  0  0  0
  181.5700   20.2420   45.4600 C   0  0  0  0  0  0  0  0  0  0  0  0
  182.6850   20.6330   45.1200 O   0  0  0  0  0  0  0  0  0  0  0  0
  180.6640   21.1290   46.2260 C   0  0  0  0  0  0  0  0  0  0  0  0
  181.1360   22.3890   46.5420 O   0  0  0  0  0  0  0  0  0  0  0  0
  178.5290   22.8440   47.4130 C   0  0  0  0  0  0  0  0  0  0  0  0
  177.5790   23.5670   48.1380 C   0  0  0  0  0  0  0  0  0  0  0  0
  176.5370   22.9140   48.8130 C   0  0  0  0  0  0  0  0  0  0  0  0
  175.5380   23.7360   49.5840 C   0  0  0  0  0  0  0  0  0  0  0  0
  174.7222   19.0191   50.4346 H   0  0  0  0  0  0  0  0  0  0  0  0
  176.4885   18.9755   49.7219 H   0  0  0  0  0  0  0  0  0  0  0  0
  174.4516   21.2877   49.6684 H   0  0  0  0  0  0  0  0  0  0  0  0
  177.3673   19.6974   47.9888 H   0  0  0  0  0  0  0  0  0  0  0  0
  178.3088   16.9803   45.6168 H   0  0  0  0  0  0  0  0  0  0  0  0
  179.6970   15.3621   44.3210 H   0  0  0  0  0  0  0  0  0  0  0  0
  181.9805   16.0118   43.5481 H   0  0  0  0  0  0  0  0  0  0  0  0
  183.5340   17.7250   43.3250 H   0  0  0  0  0  0  0  0  0  0  0  0
  182.0130   22.6310   46.3140 H   0  0  0  0  0  0  0  0  0  0  0  0
  179.3302   23.3783   46.8814 H   0  0  0  0  0  0  0  0  0  0  0  0
  177.6489   24.6640   48.1803 H   0  0  0  0  0  0  0  0  0  0  0  0
  175.7048   23.5988   50.6626 H   0  0  0  0  0  0  0  0  0  0  0  0
  175.6604   24.7983   49.3263 H   0  0  0  0  0  0  0  0  0  0  0  0
  174.5191   23.4113   49.3263 H   0  0  0  0  0  0  0  0  0  0  0  0
  1  2  2  0
  2  3  1  0
  3  4  2  0
  4  5  1  0
  5  6  1  0
  6  7  1  0
  7  8  1  0
  8  9  2  0
  9 10  1  0
 10 11  2  0
 11 12  1  0
 12 13  1  0
 12 14  2  0
 14 15  1  0
 15 16  2  0
 15 17  1  0
 17 18  1  0
  5 19  2  0
 19 20  1  0
 20 21  2  0
 21 22  1  0
 21  3  1  0
 17  6  2  0
 14  8  1  0
  1 23  1  0
  1 24  1  0
  2 25  1  0
  4 26  1  0
  9 27  1  0
 10 28  1  0
 11 29  1  0
 13 30  1  0
 18 31  1  0
 19 32  1  0
 20 33  1  0
 22 34  1  0
 22 35  1  0
 22 36  1  0
M  END
>  <meeko>  (7) 
{"is_sidechain": [false], "free_energy": -5.3, "intermolecular_energy": -6.511, "internal_energy": 0.069}

$$$$
cand_031_out
     RDKit          3D

 36 38  0  0  0  0  0  0  0  0999 V2000
  185.1130   24.4860   48.9420 C   0  0  0  0  0  0  0  0  0  0  0  0
  185.5050   24.4980   47.6620 C   0  0  0  0  0  0  0  0  0  0  0  0
  184.9370   23.6140   46.6330 C   0  0  0  0  0  0  0  0  0  0  0  0
  183.6920   22.9990   46.8590 C   0  0  0  0  0  0  0  0  0  0  0  0
  183.1250   22.1210   45.9230 C   0  0  0  0  0  0  0  0  0  0  0  0
  181.8000   21.5190   46.1890 C   0  0  0  0  0  0  0  0  0  0  0  0
  180.9670   22.3540   46.9250 O   0  0  0  0  0  0  0  0  0  0  0  0
  179.7060   21.9200   47.2450 C   0  0  0  0  0  0  0  0  0  0  0  0
  178.8990   22.7940   47.9730 C   0  0  0  0  0  0  0  0  0  0  0  0
  177.6050   22.4130   48.3320 C   0  0  0  0  0  0  0  0  0  0  0  0
  177.1180   21.1570   47.9640 C   0  0  0  0  0  0  0  0  0  0  0  0
  177.9260   20.2860   47.2380 C   0  0  0  0  0  0  0  0  0  0  0  0
  177.3850   19.0720   46.9110 O   0  0  0  0  0  0  0  0  0  0  0  0
  179.2200   20.6680   46.8780 C   0  0  0  0  0  0  0  0  0  0  0  0
  180.1010   19.7830   46.1150 C   0  0  0  0  0  0  0  0  0  0  0  0
  179.7480   18.6600   45.7600 O   0  0  0  0  0  0  0  0  0  0  0  0
  181.4530   20.2860   45.7780 C   0  0  0  0  0  0  0  0  0  0  0  0
  182.2820   19.4360   45.0700 O   0  0  0  0  0  0  0  0  0  0  0  0
  183.8240   21.8690   44.7390 C   0  0  0  0  0  0  0  0  0  0  0  0
  185.0660   22.4630   44.5040 C   0  0  0  0  0  0  0  0  0  0  0  0
  185.6350   23.3380   45.4410 C   0  0  0  0  0  0  0  0  0  0  0  0
  186.9770   23.9540   45.1450 C   0  0  0  0  0  0  0  0  0  0  0  0
  185.5766   25.1726   49.6657 H   0  0  0  0  0  0  0  0  0  0  0  0
  184.3273   23.7896   49.2701 H   0  0  0  0  0  0  0  0  0  0  0  0
  186.2928   25.2057   47.3645 H   0  0  0  0  0  0  0  0  0  0  0  0
  183.1499   23.2117   47.7922 H   0  0  0  0  0  0  0  0  0  0  0  0
  179.2821   23.7832   48.2642 H   0  0  0  0  0  0  0  0  0  0  0  0
  176.9683   23.1028   48.9054 H   0  0  0  0  0  0  0  0  0  0  0  0
  176.0984   20.8565   48.2470 H   0  0  0  0  0  0  0  0  0  0  0  0
  176.4900   19.0140   46.6410 H   0  0  0  0  0  0  0  0  0  0  0  0
  181.9690   19.0170   44.2920 H   0  0  0  0  0  0  0  0  0  0  0  0
  183.3913   21.1957   43.9844 H   0  0  0  0  0  0  0  0  0  0  0  0
  185.6054   22.2416   43.5712 H   0  0  0  0  0  0  0  0  0  0  0  0
  187.4890   24.1890   46.0898 H   0  0  0  0  0  0  0  0  0  0  0  0
  187.5858   23.2452   44.5645 H   0  0  0  0  0  0  0  0  0  0  0  0
  186.8364   24.8777   44.5645 H   0  0  0  0  0  0  0  0  0  0  0  0
  1  2  2  0
  2  3  1  0
  3  4  2  0
  4  5  1  0
  5  6  1  0
  6  7  1  0
  7  8  1  0
  8  9  2  0
  9 10  1  0
 10 11  2  0
 11 12  1  0
 12 13  1  0
 12 14  2  0
 14 15  1  0
 15 16  2  0
 15 17  1  0
 17 18  1  0
  5 19  2  0
 19 20  1  0
 20 21  2  0
 21 22  1  0
 21  3  1  0
 17  6  2  0
 14  8  1  0
  1 23  1  0
  1 24  1  0
  2 25  1  0
  4 26  1  0
  9 27  1  0
 10 28  1  0
 11 29  1  0
 13 30  1  0
 18 31  1  0
 19 32  1  0
 20 33  1  0
 22 34  1  0
 22 35  1  0
 22 36  1  0
M  END
>  <meeko>  (8) 
{"is_sidechain": [false], "free_energy": -5.252, "intermolecular_energy": -6.323, "internal_energy": -0.062}

$$$$
cand_031_out
     RDKit          3D

 36 38  0  0  0  0  0  0  0  0999 V2000
  178.5220   22.6230   47.5990 C   0  0  0  0  0  0  0  0  0  0  0  0
  179.2990   21.5550   47.8150 C   0  0  0  0  0  0  0  0  0  0  0  0
  180.4660   21.2210   46.9830 C   0  0  0  0  0  0  0  0  0  0  0  0
  181.5630   22.1000   46.9450 C   0  0  0  0  0  0  0  0  0  0  0  0
  182.6840   21.8440   46.1410 C   0  0  0  0  0  0  0  0  0  0  0  0
  183.8290   22.7810   46.1540 C   0  0  0  0  0  0  0  0  0  0  0  0
  184.0670   23.3210   47.4130 O   0  0  0  0  0  0  0  0  0  0  0  0
  185.1000   24.2090   47.5680 C   0  0  0  0  0  0  0  0  0  0  0  0
  185.3130   24.7180   48.8500 C   0  0  0  0  0  0  0  0  0  0  0  0
  186.3480   25.6270   49.0770 C   0  0  0  0  0  0  0  0  0  0  0  0
  187.1700   26.0280   48.0220 C   0  0  0  0  0  0  0  0  0  0  0  0
  186.9560   25.5200   46.7440 C   0  0  0  0  0  0  0  0  0  0  0  0
  187.7980   25.9570   45.7580 O   0  0  0  0  0  0  0  0  0  0  0  0
  185.9200   24.6100   46.5180 C   0  0  0  0  0  0  0  0  0  0  0  0
  185.6620   24.0520   45.1900 C   0  0  0  0  0  0  0  0  0  0  0  0
  186.3370   24.3620   44.2100 O   0  0  0  0  0  0  0  0  0  0  0  0
  184.5440   23.0890   45.0570 C   0  0  0  0  0  0  0  0  0  0  0  0
  184.2990   22.5790   43.7960 O   0  0  0  0  0  0  0  0  0  0  0  0
  182.6960   20.6770   45.3700 C   0  0  0  0  0  0  0  0  0  0  0  0
  181.6100   19.8000   45.3880 C   0  0  0  0  0  0  0  0  0  0  0  0
  180.4880   20.0580   46.1890 C   0  0  0  0  0  0  0  0  0  0  0  0
  179.3400   19.0840   46.1750 C   0  0  0  0  0  0  0  0  0  0  0  0
  177.6624   22.8198   48.2566 H   0  0  0  0  0  0  0  0  0  0  0  0
  178.7429   23.3040   46.7639 H   0  0  0  0  0  0  0  0  0  0  0  0
  179.0526   20.8926   48.6579 H   0  0  0  0  0  0  0  0  0  0  0  0
  181.5417   23.0111   47.5610 H   0  0  0  0  0  0  0  0  0  0  0  0
  184.6654   24.4030   49.6815 H   0  0  0  0  0  0  0  0  0  0  0  0
  186.5160   26.0275   50.0876 H   0  0  0  0  0  0  0  0  0  0  0  0
  187.9855   26.7443   48.2006 H   0  0  0  0  0  0  0  0  0  0  0  0
  187.9670   26.8730   45.6560 H   0  0  0  0  0  0  0  0  0  0  0  0
  183.5970   21.9730   43.6640 H   0  0  0  0  0  0  0  0  0  0  0  0
  183.5703   20.4479   44.7430 H   0  0  0  0  0  0  0  0  0  0  0  0
  181.6346   18.8937   44.7651 H   0  0  0  0  0  0  0  0  0  0  0  0
  179.0531   18.8406   47.2086 H   0  0  0  0  0  0  0  0  0  0  0  0
  178.4830   19.5348   45.6531 H   0  0  0  0  0  0  0  0  0  0  0  0
  179.6451   18.1650   45.6531 H   0  0  0  0  0  0  0  0  0  0  0  0
  1  2  2  0
  2  3  1  0
  3  4  2  0
  4  5  1  0
  5  6  1  0
  6  7  1  0
  7  8  1  0
  8  9  2  0
  9 10  1  0
 10 11  2  0
 11 12  1  0
 12 13  1  0
 12 14  2  0
 14 15  1  0
 15 16  2  0
 15 17  1  0
 17 18  1  0
  5 19  2  0
 19 20  1  0
 20 21  2  0
 21 22  1  0
 21  3  1  0
 17  6  2  0
 14  8  1  0
  1 23  1  0
  1 24  1  0
  2 25  1  0
  4 26  1  0
  9 27  1  0
 10 28  1  0
 11 29  1  0
 13 30  1  0
 18 31  1  0
 19 32  1  0
 20 33  1  0
 22 34  1  0
 22 35  1  0
 22 36  1  0
M  END
>  <meeko>  (9) 
{"is_sidechain": [false], "free_energy": -5.239, "intermolecular_energy": -6.246, "internal_energy": -0.125}

$$$$
