cand_034_out
     RDKit          3D

 40 42  0  0  0  0  0  0  0  0999 V2000
  180.5430   15.2980   41.5980 C   0  0  0  0  0  0  0  0  0  0  0  0
  181.2360   15.3470   42.8900 N   0  0  0  0  0  0  0  0  0  0  0  0
  182.6930   15.1880   42.7820 C   0  0  0  0  0  0  0  0  0  0  0  0
  180.9100   16.4620   43.6930 C   0  0  0  0  0  0  0  0  0  0  0  0
  181.3140   17.7650   43.3640 C   0  0  0  0  0  0  0  0  0  0  0  0
  180.9990   18.8530   44.1860 C   0  0  0  0  0  0  0  0  0  0  0  0
  180.2700   18.6730   45.3640 C   0  0  0  0  0  0  0  0  0  0  0  0
  179.9530   19.8000   46.2670 C   0  0  0  0  0  0  0  0  0  0  0  0
  178.5950   20.0990   46.3010 O   0  0  0  0  0  0  0  0  0  0  0  0
  178.1630   21.1280   47.0970 C   0  0  0  0  0  0  0  0  0  0  0  0
  176.7910   21.3870   47.1070 C   0  0  0  0  0  0  0  0  0  0  0  0
  176.2830   22.4220   47.8950 C   0  0  0  0  0  0  0  0  0  0  0  0
  177.1460   23.1980   48.6710 C   0  0  0  0  0  0  0  0  0  0  0  0
  178.5140   22.9390   48.6580 C   0  0  0  0  0  0  0  0  0  0  0  0
  179.3030   23.7380   49.4410 O   0  0  0  0  0  0  0  0  0  0  0  0
  179.0220   21.9020   47.8700 C   0  0  0  0  0  0  0  0  0  0  0  0
  180.4520   21.5970   47.8260 C   0  0  0  0  0  0  0  0  0  0  0  0
  181.2750   22.2390   48.4750 O   0  0  0  0  0  0  0  0  0  0  0  0
  180.8870   20.4750   46.9620 C   0  0  0  0  0  0  0  0  0  0  0  0
  182.2430   20.2060   46.9160 O   0  0  0  0  0  0  0  0  0  0  0  0
  179.8760   17.3710   45.7050 C   0  0  0  0  0  0  0  0  0  0  0  0
  180.1780   16.2690   44.8800 C   0  0  0  0  0  0  0  0  0  0  0  0
  179.7290   14.8930   45.2980 C   0  0  0  0  0  0  0  0  0  0  0  0
  180.7750   14.0320   45.4900 F   0  0  0  0  0  0  0  0  0  0  0  0
  178.9430   14.2920   44.3580 F   0  0  0  0  0  0  0  0  0  0  0  0
  179.4586   15.2213   41.7662 H   0  0  0  0  0  0  0  0  0  0  0  0
  180.7620   16.2139   41.0295 H   0  0  0  0  0  0  0  0  0  0  0  0
  180.8887   14.4221   41.0295 H   0  0  0  0  0  0  0  0  0  0  0  0
  183.1323   15.1401   43.7893 H   0  0  0  0  0  0  0  0  0  0  0  0
  182.9212   14.2596   42.2379 H   0  0  0  0  0  0  0  0  0  0  0  0
  183.1161   16.0453   42.2379 H   0  0  0  0  0  0  0  0  0  0  0  0
  181.8895   17.9345   42.4420 H   0  0  0  0  0  0  0  0  0  0  0  0
  181.3296   19.8627   43.9009 H   0  0  0  0  0  0  0  0  0  0  0  0
  176.1110   20.7764   46.4948 H   0  0  0  0  0  0  0  0  0  0  0  0
  175.2021   22.6260   47.9043 H   0  0  0  0  0  0  0  0  0  0  0  0
  176.7457   24.0130   49.2919 H   0  0  0  0  0  0  0  0  0  0  0  0
  179.0840   24.6410   49.5590 H   0  0  0  0  0  0  0  0  0  0  0  0
  182.5670   19.3870   47.2340 H   0  0  0  0  0  0  0  0  0  0  0  0
  179.3180   17.2060   46.6385 H   0  0  0  0  0  0  0  0  0  0  0  0
  179.1779   15.0700   46.2334 H   0  0  0  0  0  0  0  0  0  0  0  0
  1  2  1  0
  2  3  1  0
  2  4  1  0
  4  5  2  0
  5  6  1  0
  6  7  2  0
  7  8  1  0
  8  9  1  0
  9 10  1  0
 10 11  2  0
 11 12  1  0
 12 13  2  0
 13 14  1  0
 14 15  1  0
 14 16  2  0
 16 17  1  0
 17 18  2  0
 17 19  1  0
 19 20  1  0
  7 21  1  0
 21 22  2  0
 22 23  1  0
 23 24  1  0
 23 25  1  0
 22  4  1  0
 19  8  2  0
 16 10  1  0
  1 26  1  0
  1 27  1  0
  1 28  1  0
  3 29  1  0
  3 30  1  0
  3 31  1  0
  5 32  1  0
  6 33  1  0
 11 34  1  0
 12 35  1  0
 13 36  1  0
 15 37  1  0
 20 38  1  0
 21 39  1  0
 23 40  1  0
M  END
>  <meeko>  (1) 
{"is_sidechain": [false], "free_energy": -7.927, "intermolecular_energy": -9.781, "internal_energy": -0.397}

$$$$
cand_034_out
     RDKit          3D

 40 42  0  0  0  0  0  0  0  0999 V2000
  175.8700   21.8570   49.9420 C   0  0  0  0  0  0  0  0  0  0  0  0
  176.4290   22.3720   48.6880 N   0  0  0  0  0  0  0  0  0  0  0  0
  177.0970   23.6740   48.8330 C   0  0  0  0  0  0  0  0  0  0  0  0
  177.2520   21.4610   47.9900 C   0  0  0  0  0  0  0  0  0  0  0  0
  178.6530   21.5370   48.0290 C   0  0  0  0  0  0  0  0  0  0  0  0
  179.4490   20.6360   47.3110 C   0  0  0  0  0  0  0  0  0  0  0  0
  178.8700   19.6320   46.5320 C   0  0  0  0  0  0  0  0  0  0  0  0
  179.6870   18.6890   45.7380 C   0  0  0  0  0  0  0  0  0  0  0  0
  179.1910   17.3910   45.7630 O   0  0  0  0  0  0  0  0  0  0  0  0
  179.8570   16.4130   45.0700 C   0  0  0  0  0  0  0  0  0  0  0  0
  179.3170   15.1260   45.1150 C   0  0  0  0  0  0  0  0  0  0  0  0
  179.9460   14.0830   44.4320 C   0  0  0  0  0  0  0  0  0  0  0  0
  181.1140   14.3250   43.7070 C   0  0  0  0  0  0  0  0  0  0  0  0
  181.6510   15.6090   43.6640 C   0  0  0  0  0  0  0  0  0  0  0  0
  182.7960   15.7770   42.9350 O   0  0  0  0  0  0  0  0  0  0  0  0
  181.0200   16.6540   44.3470 C   0  0  0  0  0  0  0  0  0  0  0  0
  181.5510   18.0170   44.3300 C   0  0  0  0  0  0  0  0  0  0  0  0
  182.5770   18.3090   43.7190 O   0  0  0  0  0  0  0  0  0  0  0  0
  180.8060   19.0520   45.0820 C   0  0  0  0  0  0  0  0  0  0  0  0
  181.3250   20.3340   45.0720 O   0  0  0  0  0  0  0  0  0  0  0  0
  177.4710   19.5620   46.4780 C   0  0  0  0  0  0  0  0  0  0  0  0
  176.6590   20.4550   47.2040 C   0  0  0  0  0  0  0  0  0  0  0  0
  175.1600   20.3320   47.1070 C   0  0  0  0  0  0  0  0  0  0  0  0
  174.7600   19.1020   46.6580 F   0  0  0  0  0  0  0  0  0  0  0  0
  174.6200   21.2230   46.2260 F   0  0  0  0  0  0  0  0  0  0  0  0
  176.3825   22.3292   50.7931 H   0  0  0  0  0  0  0  0  0  0  0  0
  174.7955   22.0883   49.9868 H   0  0  0  0  0  0  0  0  0  0  0  0
  176.0126   20.7672   49.9868 H   0  0  0  0  0  0  0  0  0  0  0  0
  177.2169   23.9077   49.9012 H   0  0  0  0  0  0  0  0  0  0  0  0
  178.0860   23.6342   48.3531 H   0  0  0  0  0  0  0  0  0  0  0  0
  176.4878   24.4541   48.3531 H   0  0  0  0  0  0  0  0  0  0  0  0
  179.1346   22.3188   48.6348 H   0  0  0  0  0  0  0  0  0  0  0  0
  180.5446   20.7202   47.3613 H   0  0  0  0  0  0  0  0  0  0  0  0
  178.3976   14.9341   45.6876 H   0  0  0  0  0  0  0  0  0  0  0  0
  179.5204   13.0692   44.4654 H   0  0  0  0  0  0  0  0  0  0  0  0
  181.6095   13.5025   43.1704 H   0  0  0  0  0  0  0  0  0  0  0  0
  183.1400   15.0650   42.4320 H   0  0  0  0  0  0  0  0  0  0  0  0
  180.9700   20.9770   44.4910 H   0  0  0  0  0  0  0  0  0  0  0  0
  176.9959   18.7911   45.8536 H   0  0  0  0  0  0  0  0  0  0  0  0
  174.8135   20.5170   48.1345 H   0  0  0  0  0  0  0  0  0  0  0  0
  1  2  1  0
  2  3  1  0
  2  4  1  0
  4  5  2  0
  5  6  1  0
  6  7  2  0
  7  8  1  0
  8  9  1  0
  9 10  1  0
 10 11  2  0
 11 12  1  0
 12 13  2  0
 13 14  1  0
 14 15  1  0
 14 16  2  0
 16 17  1  0
 17 18  2  0
 17 19  1  0
 19 20  1  0
  7 21  1  0
 21 22  2  0
 22 23  1  0
 23 24  1  0
 23 25  1  0
 22  4  1  0
 19  8  2  0
 16 10  1  0
  1 26  1  0
  1 27  1  0
  1 28  1  0
  3 29  1  0
  3 30  1  0
  3 31  1  0
  5 32  1  0
  6 33  1  0
 11 34  1  0
 12 35  1  0
 13 36  1  0
 15 37  1  0
 20 38  1  0
 21 39  1  0
 23 40  1  0
M  END
>  <meeko>  (2) 
{"is_sidechain": [false], "free_energy": -7.066, "intermolecular_energy": -9.074, "internal_energy": -0.041}

$$$$
cand_034_out
     RDKit          3D

 40 42  0  0  0  0  0  0  0  0999 V2000
  175.1200   22.7620   48.2320 C   0  0  0  0  0  0  0  0  0  0  0  0
  175.9820   21.8310   48.9670 N   0  0  0  0  0  0  0  0  0  0  0  0
  175.2600   21.0180   49.9570 C   0  0  0  0  0  0  0  0  0  0  0  0
  176.8030   21.0190   48.1550 C   0  0  0  0  0  0  0  0  0  0  0  0
  176.3700   19.7830   47.6520 C   0  0  0  0  0  0  0  0  0  0  0  0
  177.2100   18.9840   46.8660 C   0  0  0  0  0  0  0  0  0  0  0  0
  178.5080   19.3960   46.5590 C   0  0  0  0  0  0  0  0  0  0  0  0
  179.4270   18.5560   45.7590 C   0  0  0  0  0  0  0  0  0  0  0  0
  179.0640   17.2140   45.7530 O   0  0  0  0  0  0  0  0  0  0  0  0
  179.8350   16.3220   45.0520 C   0  0  0  0  0  0  0  0  0  0  0  0
  179.4270   14.9870   45.0660 C   0  0  0  0  0  0  0  0  0  0  0  0
  180.1670   14.0260   44.3730 C   0  0  0  0  0  0  0  0  0  0  0  0
  181.3130   14.4000   43.6690 C   0  0  0  0  0  0  0  0  0  0  0  0
  181.7180   15.7320   43.6580 C   0  0  0  0  0  0  0  0  0  0  0  0
  182.8500   16.0290   42.9490 O   0  0  0  0  0  0  0  0  0  0  0  0
  180.9760   16.6940   44.3510 C   0  0  0  0  0  0  0  0  0  0  0  0
  181.3660   18.1040   44.3660 C   0  0  0  0  0  0  0  0  0  0  0  0
  182.3660   18.5100   43.7760 O   0  0  0  0  0  0  0  0  0  0  0  0
  180.5110   19.0430   45.1270 C   0  0  0  0  0  0  0  0  0  0  0  0
  180.8980   20.3710   45.1480 O   0  0  0  0  0  0  0  0  0  0  0  0
  178.9510   20.6230   47.0720 C   0  0  0  0  0  0  0  0  0  0  0  0
  178.1120   21.4420   47.8540 C   0  0  0  0  0  0  0  0  0  0  0  0
  178.6430   22.7500   48.3790 C   0  0  0  0  0  0  0  0  0  0  0  0
  178.2830   23.8160   47.5990 F   0  0  0  0  0  0  0  0  0  0  0  0
  180.0070   22.7830   48.4150 F   0  0  0  0  0  0  0  0  0  0  0  0
  174.5513   23.3763   48.9456 H   0  0  0  0  0  0  0  0  0  0  0  0
  175.7401   23.4143   47.5995 H   0  0  0  0  0  0  0  0  0  0  0  0
  174.4220   22.1939   47.5995 H   0  0  0  0  0  0  0  0  0  0  0  0
  175.5436   21.3373   50.9707 H   0  0  0  0  0  0  0  0  0  0  0  0
  174.1766   21.1506   49.8204 H   0  0  0  0  0  0  0  0  0  0  0  0
  175.5197   19.9579   49.8204 H   0  0  0  0  0  0  0  0  0  0  0  0
  175.3516   19.4348   47.8792 H   0  0  0  0  0  0  0  0  0  0  0  0
  176.8422   18.0195   46.4858 H   0  0  0  0  0  0  0  0  0  0  0  0
  178.5245   14.6924   45.6217 H   0  0  0  0  0  0  0  0  0  0  0  0
  179.8465   12.9738   44.3820 H   0  0  0  0  0  0  0  0  0  0  0  0
  181.8955   13.6430   43.1234 H   0  0  0  0  0  0  0  0  0  0  0  0
  183.4830   16.6230   43.3030 H   0  0  0  0  0  0  0  0  0  0  0  0
  180.3090   21.0340   44.8460 H   0  0  0  0  0  0  0  0  0  0  0  0
  179.9780   20.9545   46.8591 H   0  0  0  0  0  0  0  0  0  0  0  0
  178.2092   22.8242   49.3871 H   0  0  0  0  0  0  0  0  0  0  0  0
  1  2  1  0
  2  3  1  0
  2  4  1  0
  4  5  2  0
  5  6  1  0
  6  7  2  0
  7  8  1  0
  8  9  1  0
  9 10  1  0
 10 11  2  0
 11 12  1  0
 12 13  2  0
 13 14  1  0
 14 15  1  0
 14 16  2  0
 16 17  1  0
 17 18  2  0
 17 19  1  0
 19 20  1  0
  7 21  1  0
 21 22  2  0
 22 23  1  0
 23 24  1  0
 23 25  1  0
 22  4  1  0
 19  8  2  0
 16 10  1  0
  1 26  1  0
  1 27  1  0
  1 28  1  0
  3 29  1  0
  3 30  1  0
  3 31  1  0
  5 32  1  0
  6 33  1  0
 11 34  1  0
 12 35  1  0
 13 36  1  0
 15 37  1  0
 20 38  1  0
 21 39  1  0
 23 40  1  0
M  END
>  <meeko>  (3) 
{"is_sidechain": [false], "free_energy": -5.923, "intermolecular_energy": -7.714, "internal_energy": 0.009}

$$$$
cand_034_out
     RDKit          3D

 40 42  0  0  0  0  0  0  0  0999 V2000
  187.9300   23.0690   44.9870 C   0  0  0  0  0  0  0  0  0  0  0  0
  186.7840   23.9740   45.1230 N   0  0  0  0  0  0  0  0  0  0  0  0
  186.6560   24.9320   44.0140 C   0  0  0  0  0  0  0  0  0  0  0  0
  185.5520   23.3340   45.3780 C   0  0  0  0  0  0  0  0  0  0  0  0
  184.9500   22.4720   44.4470 C   0  0  0  0  0  0  0  0  0  0  0  0
  183.7160   21.8650   44.7120 C   0  0  0  0  0  0  0  0  0  0  0  0
  183.0460   22.0990   45.9150 C   0  0  0  0  0  0  0  0  0  0  0  0
  181.7270   21.4970   46.2050 C   0  0  0  0  0  0  0  0  0  0  0  0
  180.9050   22.3320   46.9520 O   0  0  0  0  0  0  0  0  0  0  0  0
  179.6520   21.8950   47.2970 C   0  0  0  0  0  0  0  0  0  0  0  0
  178.8570   22.7700   48.0380 C   0  0  0  0  0  0  0  0  0  0  0  0
  177.5710   22.3870   48.4230 C   0  0  0  0  0  0  0  0  0  0  0  0
  177.0800   21.1290   48.0680 C   0  0  0  0  0  0  0  0  0  0  0  0
  177.8750   20.2570   47.3290 C   0  0  0  0  0  0  0  0  0  0  0  0
  177.3320   19.0410   47.0150 O   0  0  0  0  0  0  0  0  0  0  0  0
  179.1620   20.6420   46.9430 C   0  0  0  0  0  0  0  0  0  0  0  0
  180.0310   19.7560   46.1670 C   0  0  0  0  0  0  0  0  0  0  0  0
  179.6740   18.6320   45.8220 O   0  0  0  0  0  0  0  0  0  0  0  0
  181.3760   20.2600   45.8060 C   0  0  0  0  0  0  0  0  0  0  0  0
  182.1940   19.4090   45.0860 O   0  0  0  0  0  0  0  0  0  0  0  0
  183.6360   22.9710   46.8410 C   0  0  0  0  0  0  0  0  0  0  0  0
  184.8820   23.5800   46.5910 C   0  0  0  0  0  0  0  0  0  0  0  0
  185.4670   24.5080   47.6240 C   0  0  0  0  0  0  0  0  0  0  0  0
  184.9330   24.3150   48.8690 F   0  0  0  0  0  0  0  0  0  0  0  0
  185.2320   25.8210   47.3380 F   0  0  0  0  0  0  0  0  0  0  0  0
  188.2920   22.7831   45.9856 H   0  0  0  0  0  0  0  0  0  0  0  0
  187.6221   22.1677   44.4367 H   0  0  0  0  0  0  0  0  0  0  0  0
  188.7354   23.5774   44.4367 H   0  0  0  0  0  0  0  0  0  0  0  0
  186.5206   25.9457   44.4190 H   0  0  0  0  0  0  0  0  0  0  0  0
  187.5661   24.9022   43.3969 H   0  0  0  0  0  0  0  0  0  0  0  0
  185.7856   24.6644   43.3969 H   0  0  0  0  0  0  0  0  0  0  0  0
  185.4570   22.2698   43.4920 H   0  0  0  0  0  0  0  0  0  0  0  0
  183.2686   21.1952   43.9629 H   0  0  0  0  0  0  0  0  0  0  0  0
  179.2433   23.7610   48.3186 H   0  0  0  0  0  0  0  0  0  0  0  0
  176.9438   23.0769   49.0066 H   0  0  0  0  0  0  0  0  0  0  0  0
  176.0667   20.8274   48.3717 H   0  0  0  0  0  0  0  0  0  0  0  0
  177.2990   18.3620   47.6610 H   0  0  0  0  0  0  0  0  0  0  0  0
  182.7410   19.7500   44.4060 H   0  0  0  0  0  0  0  0  0  0  0  0
  183.1138   23.1849   47.7852 H   0  0  0  0  0  0  0  0  0  0  0  0
  186.5420   24.2756   47.6074 H   0  0  0  0  0  0  0  0  0  0  0  0
  1  2  1  0
  2  3  1  0
  2  4  1  0
  4  5  2  0
  5  6  1  0
  6  7  2  0
  7  8  1  0
  8  9  1  0
  9 10  1  0
 10 11  2  0
 11 12  1  0
 12 13  2  0
 13 14  1  0
 14 15  1  0
 14 16  2  0
 16 17  1  0
 17 18  2  0
 17 19  1  0
 19 20  1  0
  7 21  1  0
 21 22  2  0
 22 23  1  0
 23 24  1  0
 23 25  1  0
 22  4  1  0
 19  8  2  0
 16 10  1  0
  1 26  1  0
  1 27  1  0
  1 28  1  0
  3 29  1  0
  3 30  1  0
  3 31  1  0
  5 32  1  0
  6 33  1  0
 11 34  1  0
 12 35  1  0
 13 36  1  0
 15 37  1  0
 20 38  1  0
 21 39  1  0
 23 40  1  0
M  END
>  <meeko>  (4) 
{"is_sidechain": [false], "free_energy": -5.55, "intermolecular_energy": -6.962, "internal_energy": -0.282}

$$$$
cand_034_out
     RDKit          3D

 40 42  0  0  0  0  0  0  0  0999 V2000
  186.9280   25.6170   45.7180 C   0  0  0  0  0  0  0  0  0  0  0  0
  186.9350   24.1530   45.6370 N   0  0  0  0  0  0  0  0  0  0  0  0
  187.9210   23.5190   46.5240 C   0  0  0  0  0  0  0  0  0  0  0  0
  185.6680   23.5470   45.7810 C   0  0  0  0  0  0  0  0  0  0  0  0
  184.9010   23.6840   46.9480 C   0  0  0  0  0  0  0  0  0  0  0  0
  183.6570   23.0560   47.0780 C   0  0  0  0  0  0  0  0  0  0  0  0
  183.1390   22.2710   46.0450 C   0  0  0  0  0  0  0  0  0  0  0  0
  181.8430   21.5700   46.1690 C   0  0  0  0  0  0  0  0  0  0  0  0
  180.8800   22.3280   46.8250 O   0  0  0  0  0  0  0  0  0  0  0  0
  179.6310   21.7950   47.0130 C   0  0  0  0  0  0  0  0  0  0  0  0
  178.6930   22.5950   47.6680 C   0  0  0  0  0  0  0  0  0  0  0  0
  177.4020   22.1120   47.8930 C   0  0  0  0  0  0  0  0  0  0  0  0
  177.0490   20.8310   47.4650 C   0  0  0  0  0  0  0  0  0  0  0  0
  177.9870   20.0340   46.8120 C   0  0  0  0  0  0  0  0  0  0  0  0
  177.5750   18.7900   46.4190 O   0  0  0  0  0  0  0  0  0  0  0  0
  179.2790   20.5190   46.5870 C   0  0  0  0  0  0  0  0  0  0  0  0
  180.2950   19.7150   45.9060 C   0  0  0  0  0  0  0  0  0  0  0  0
  180.0640   18.5760   45.5060 O   0  0  0  0  0  0  0  0  0  0  0  0
  181.6320   20.3210   45.7130 C   0  0  0  0  0  0  0  0  0  0  0  0
  182.5890   19.5470   45.0830 O   0  0  0  0  0  0  0  0  0  0  0  0
  183.9080   22.1190   44.8820 C   0  0  0  0  0  0  0  0  0  0  0  0
  185.1570   22.7540   44.7350 C   0  0  0  0  0  0  0  0  0  0  0  0
  185.9390   22.5530   43.4630 C   0  0  0  0  0  0  0  0  0  0  0  0
  185.2840   23.0310   42.3600 F   0  0  0  0  0  0  0  0  0  0  0  0
  186.1690   21.2350   43.1950 F   0  0  0  0  0  0  0  0  0  0  0  0
  186.9265   25.9258   46.7738 H   0  0  0  0  0  0  0  0  0  0  0  0
  187.8242   26.0160   45.2205 H   0  0  0  0  0  0  0  0  0  0  0  0
  186.0280   26.0075   45.2205 H   0  0  0  0  0  0  0  0  0  0  0  0
  187.6406   23.6993   47.5723 H   0  0  0  0  0  0  0  0  0  0  0  0
  187.9444   22.4362   46.3317 H   0  0  0  0  0  0  0  0  0  0  0  0
  188.9159   23.9471   46.3317 H   0  0  0  0  0  0  0  0  0  0  0  0
  185.2849   24.2969   47.7768 H   0  0  0  0  0  0  0  0  0  0  0  0
  183.0796   23.1822   48.0057 H   0  0  0  0  0  0  0  0  0  0  0  0
  178.9703   23.6043   48.0064 H   0  0  0  0  0  0  0  0  0  0  0  0
  176.6621   22.7421   48.4083 H   0  0  0  0  0  0  0  0  0  0  0  0
  176.0320   20.4514   47.6430 H   0  0  0  0  0  0  0  0  0  0  0  0
  176.8080   18.4090   46.7990 H   0  0  0  0  0  0  0  0  0  0  0  0
  182.5020   19.3450   44.1730 H   0  0  0  0  0  0  0  0  0  0  0  0
  183.5268   21.4888   44.0650 H   0  0  0  0  0  0  0  0  0  0  0  0
  186.8766   23.0997   43.6415 H   0  0  0  0  0  0  0  0  0  0  0  0
  1  2  1  0
  2  3  1  0
  2  4  1  0
  4  5  2  0
  5  6  1  0
  6  7  2  0
  7  8  1  0
  8  9  1  0
  9 10  1  0
 10 11  2  0
 11 12  1  0
 12 13  2  0
 13 14  1  0
 14 15  1  0
 14 16  2  0
 16 17  1  0
 17 18  2  0
 17 19  1  0
 19 20  1  0
  7 21  1  0
 21 22  2  0
 22 23  1  0
 23 24  1  0
 23 25  1  0
 22  4  1  0
 19  8  2  0
 16 10  1  0
  1 26  1  0
  1 27  1  0
  1 28  1  0
  3 29  1  0
  3 30  1  0
  3 31  1  0
  5 32  1  0
  6 33  1  0
 11 34  1  0
 12 35  1  0
 13 36  1  0
 15 37  1  0
 20 38  1  0
 21 39  1  0
 23 40  1  0
M  END
>  <meeko>  (5) 
{"is_sidechain": [false], "free_energy": -5.456, "intermolecular_energy": -6.917, "internal_energy": -0.212}

$$$$
