cand_041_out
     RDKit          3D

 47 49  0  0  0  0  0  0  0  0999 V2000
  177.8180   23.1520   48.8180 C   0  0  0  0  0  0  0  0  0  0  0  0
  178.3990   22.0530   47.9710 C   0  0  0  0  0  0  0  0  0  0  0  0
  179.7740   21.7890   48.0490 C   0  0  0  0  0  0  0  0  0  0  0  0
  180.3560   20.7760   47.2840 C   0  0  0  0  0  0  0  0  0  0  0  0
  179.5820   19.9990   46.4170 C   0  0  0  0  0  0  0  0  0  0  0  0
  180.2140   18.9170   45.6320 C   0  0  0  0  0  0  0  0  0  0  0  0
  179.5320   17.7100   45.7270 O   0  0  0  0  0  0  0  0  0  0  0  0
  180.0120   16.6210   45.0460 C   0  0  0  0  0  0  0  0  0  0  0  0
  179.2870   15.4340   45.1580 C   0  0  0  0  0  0  0  0  0  0  0  0
  179.7220   14.2860   44.4910 C   0  0  0  0  0  0  0  0  0  0  0  0
  180.8830   14.3260   43.7150 C   0  0  0  0  0  0  0  0  0  0  0  0
  181.6040   15.5110   43.6050 C   0  0  0  0  0  0  0  0  0  0  0  0
  182.7300   15.4800   42.8300 O   0  0  0  0  0  0  0  0  0  0  0  0
  181.1670   16.6590   44.2720 C   0  0  0  0  0  0  0  0  0  0  0  0
  181.8960   17.9260   44.1840 C   0  0  0  0  0  0  0  0  0  0  0  0
  182.9290   18.0390   43.5260 O   0  0  0  0  0  0  0  0  0  0  0  0
  181.3450   19.0860   44.9210 C   0  0  0  0  0  0  0  0  0  0  0  0
  182.0500   20.2740   44.8410 O   0  0  0  0  0  0  0  0  0  0  0  0
  178.2040   20.2500   46.3530 C   0  0  0  0  0  0  0  0  0  0  0  0
  177.5990   21.2660   47.1190 C   0  0  0  0  0  0  0  0  0  0  0  0
  176.1070   21.4880   46.9640 C   0  0  0  0  0  0  0  0  0  0  0  0
  175.2960   20.3340   47.5780 C   0  0  0  0  0  0  0  0  0  0  0  0
  174.7510   20.6470   48.9150 N   0  0  0  0  0  0  0  0  0  0  0  0
  174.7230   22.0890   49.1700 C   0  0  0  0  0  0  0  0  0  0  0  0
  175.5530   19.9810   49.9460 C   0  0  0  0  0  0  0  0  0  0  0  0
  177.9493   22.9036   49.8815 H   0  0  0  0  0  0  0  0  0  0  0  0
  178.3339   24.0978   48.5959 H   0  0  0  0  0  0  0  0  0  0  0  0
  176.7459   23.2582   48.5959 H   0  0  0  0  0  0  0  0  0  0  0  0
  180.4035   22.3888   48.7228 H   0  0  0  0  0  0  0  0  0  0  0  0
  181.4367   20.5871   47.3646 H   0  0  0  0  0  0  0  0  0  0  0  0
  178.3740   15.4022   45.7707 H   0  0  0  0  0  0  0  0  0  0  0  0
  179.1501   13.3503   44.5769 H   0  0  0  0  0  0  0  0  0  0  0  0
  181.2268   13.4217   43.1915 H   0  0  0  0  0  0  0  0  0  0  0  0
  183.2650   14.7110   42.8110 H   0  0  0  0  0  0  0  0  0  0  0  0
  182.8430   20.3150   44.3440 H   0  0  0  0  0  0  0  0  0  0  0  0
  177.5786   19.6374   45.6870 H   0  0  0  0  0  0  0  0  0  0  0  0
  175.8313   22.4259   47.4683 H   0  0  0  0  0  0  0  0  0  0  0  0
  175.8762   21.5372   45.8896 H   0  0  0  0  0  0  0  0  0  0  0  0
  174.4575   20.1005   46.9054 H   0  0  0  0  0  0  0  0  0  0  0  0
  175.9820   19.4825   47.6979 H   0  0  0  0  0  0  0  0  0  0  0  0
  173.7900   20.3060   48.9450 H   0  0  0  0  0  0  0  0  0  0  0  0
  174.7195   22.2695   50.2551 H   0  0  0  0  0  0  0  0  0  0  0  0
  175.6122   22.5577   48.7232 H   0  0  0  0  0  0  0  0  0  0  0  0
  173.8163   22.5228   48.7232 H   0  0  0  0  0  0  0  0  0  0  0  0
  175.1925   20.2804   50.9412 H   0  0  0  0  0  0  0  0  0  0  0  0
  175.4603   18.8905   49.8351 H   0  0  0  0  0  0  0  0  0  0  0  0
  176.6079   20.2725   49.8351 H   0  0  0  0  0  0  0  0  0  0  0  0
  1  2  1  0
  2  3  2  0
  3  4  1  0
  4  5  2  0
  5  6  1  0
  6  7  1  0
  7  8  1  0
  8  9  2  0
  9 10  1  0
 10 11  2  0
 11 12  1  0
 12 13  1  0
 12 14  2  0
 14 15  1  0
 15 16  2  0
 15 17  1  0
 17 18  1  0
  5 19  1  0
 19 20  2  0
 20 21  1  0
 21 22  1  0
 22 23  1  0
 23 24  1  0
 23 25  1  0
 20  2  1  0
 17  6  2  0
 14  8  1  0
  1 26  1  0
  1 27  1  0
  1 28  1  0
  3 29  1  0
  4 30  1  0
  9 31  1  0
 10 32  1  0
 11 33  1  0
 13 34  1  0
 18 35  1  0
 19 36  1  0
 21 37  1  0
 21 38  1  0
 22 39  1  0
 22 40  1  0
 23 41  1  0
 24 42  1  0
 24 43  1  0
 24 44  1  0
 25 45  1  0
 25 46  1  0
 25 47  1  0
M  CHG  1  23   1
M  END
>  <meeko>  (1) 
{"is_sidechain": [false], "free_energy": -6.844, "intermolecular_energy": -8.845, "internal_energy": -0.175}

$$$$
cand_041_out
     RDKit          3D

 47 49  0  0  0  0  0  0  0  0999 V2000
  182.9160   18.2810   43.9940 C   0  0  0  0  0  0  0  0  0  0  0  0
  181.6710   18.7400   44.7010 C   0  0  0  0  0  0  0  0  0  0  0  0
  181.5830   20.0740   45.1270 C   0  0  0  0  0  0  0  0  0  0  0  0
  180.4440   20.5460   45.7840 C   0  0  0  0  0  0  0  0  0  0  0  0
  179.3610   19.6990   46.0360 C   0  0  0  0  0  0  0  0  0  0  0  0
  178.1560   20.2230   46.7140 C   0  0  0  0  0  0  0  0  0  0  0  0
  178.3650   21.4640   47.3060 O   0  0  0  0  0  0  0  0  0  0  0  0
  177.3280   22.0660   47.9700 C   0  0  0  0  0  0  0  0  0  0  0  0
  177.5780   23.3170   48.5350 C   0  0  0  0  0  0  0  0  0  0  0  0
  176.5640   23.9840   49.2270 C   0  0  0  0  0  0  0  0  0  0  0  0
  175.3030   23.3990   49.3550 C   0  0  0  0  0  0  0  0  0  0  0  0
  175.0550   22.1510   48.7900 C   0  0  0  0  0  0  0  0  0  0  0  0
  173.7980   21.6370   48.9530 O   0  0  0  0  0  0  0  0  0  0  0  0
  176.0700   21.4840   48.0970 C   0  0  0  0  0  0  0  0  0  0  0  0
  175.8520   20.1710   47.4880 C   0  0  0  0  0  0  0  0  0  0  0  0
  174.7720   19.5890   47.5630 O   0  0  0  0  0  0  0  0  0  0  0  0
  176.9900   19.5530   46.7680 C   0  0  0  0  0  0  0  0  0  0  0  0
  176.7760   18.3060   46.2080 O   0  0  0  0  0  0  0  0  0  0  0  0
  179.4400   18.3710   45.5930 C   0  0  0  0  0  0  0  0  0  0  0  0
  180.5790   17.8780   44.9270 C   0  0  0  0  0  0  0  0  0  0  0  0
  180.5920   16.4210   44.5100 C   0  0  0  0  0  0  0  0  0  0  0  0
  180.7820   16.2690   42.9900 C   0  0  0  0  0  0  0  0  0  0  0  0
  180.4490   14.9190   42.4910 N   0  0  0  0  0  0  0  0  0  0  0  0
  180.2070   13.9760   43.5850 C   0  0  0  0  0  0  0  0  0  0  0  0
  181.5370   14.4210   41.6440 C   0  0  0  0  0  0  0  0  0  0  0  0
  183.6772   18.0004   44.7369 H   0  0  0  0  0  0  0  0  0  0  0  0
  182.6802   17.4107   43.3639 H   0  0  0  0  0  0  0  0  0  0  0  0
  183.3015   19.0961   43.3639 H   0  0  0  0  0  0  0  0  0  0  0  0
  182.4236   20.7586   44.9408 H   0  0  0  0  0  0  0  0  0  0  0  0
  180.3989   21.5966   46.1068 H   0  0  0  0  0  0  0  0  0  0  0  0
  178.5720   23.7775   48.4357 H   0  0  0  0  0  0  0  0  0  0  0  0
  176.7595   24.9711   49.6714 H   0  0  0  0  0  0  0  0  0  0  0  0
  174.5058   23.9238   49.9019 H   0  0  0  0  0  0  0  0  0  0  0  0
  173.6200   20.7510   48.7070 H   0  0  0  0  0  0  0  0  0  0  0  0
  177.0270   17.5340   46.6750 H   0  0  0  0  0  0  0  0  0  0  0  0
  178.5897   17.6961   45.7703 H   0  0  0  0  0  0  0  0  0  0  0  0
  181.4177   15.9092   45.0260 H   0  0  0  0  0  0  0  0  0  0  0  0
  179.6234   15.9763   44.7821 H   0  0  0  0  0  0  0  0  0  0  0  0
  180.1336   16.9984   42.4825 H   0  0  0  0  0  0  0  0  0  0  0  0
  181.8471   16.4415   42.7762 H   0  0  0  0  0  0  0  0  0  0  0  0
  179.5880   14.9930   41.9470 H   0  0  0  0  0  0  0  0  0  0  0  0
  180.3390   14.4903   44.5484 H   0  0  0  0  0  0  0  0  0  0  0  0
  179.1802   13.5879   43.5142 H   0  0  0  0  0  0  0  0  0  0  0  0
  180.9201   13.1414   43.5142 H   0  0  0  0  0  0  0  0  0  0  0  0
  182.3540   14.0471   42.2786 H   0  0  0  0  0  0  0  0  0  0  0  0
  181.1629   13.6045   41.0089 H   0  0  0  0  0  0  0  0  0  0  0  0
  181.9105   15.2378   41.0089 H   0  0  0  0  0  0  0  0  0  0  0  0
  1  2  1  0
  2  3  2  0
  3  4  1  0
  4  5  2  0
  5  6  1  0
  6  7  1  0
  7  8  1  0
  8  9  2  0
  9 10  1  0
 10 11  2  0
 11 12  1  0
 12 13  1  0
 12 14  2  0
 14 15  1  0
 15 16  2  0
 15 17  1  0
 17 18  1  0
  5 19  1  0
 19 20  2  0
 20 21  1  0
 21 22  1  0
 22 23  1  0
 23 24  1  0
 23 25  1  0
 20  2  1  0
 17  6  2  0
 14  8  1  0
  1 26  1  0
  1 27  1  0
  1 28  1  0
  3 29  1  0
  4 30  1  0
  9 31  1  0
 10 32  1  0
 11 33  1  0
 13 34  1  0
 18 35  1  0
 19 36  1  0
 21 37  1  0
 21 38  1  0
 22 39  1  0
 22 40  1  0
 23 41  1  0
 24 42  1  0
 24 43  1  0
 24 44  1  0
 25 45  1  0
 25 46  1  0
 25 47  1  0
M  CHG  1  23   1
M  END
>  <meeko>  (2) 
{"is_sidechain": [false], "free_energy": -5.92, "intermolecular_energy": -8.37, "internal_energy": 0.545}

$$$$
cand_041_out
     RDKit          3D

 47 49  0  0  0  0  0  0  0  0999 V2000
  180.4380   13.6420   43.9420 C   0  0  0  0  0  0  0  0  0  0  0  0
  180.2570   15.0550   44.4250 C   0  0  0  0  0  0  0  0  0  0  0  0
  179.2040   15.3420   45.3050 C   0  0  0  0  0  0  0  0  0  0  0  0
  179.0000   16.6390   45.7830 C   0  0  0  0  0  0  0  0  0  0  0  0
  179.8410   17.6850   45.3940 C   0  0  0  0  0  0  0  0  0  0  0  0
  179.6210   19.0460   45.9280 C   0  0  0  0  0  0  0  0  0  0  0  0
  178.2790   19.3290   46.1540 O   0  0  0  0  0  0  0  0  0  0  0  0
  177.9330   20.5600   46.6490 C   0  0  0  0  0  0  0  0  0  0  0  0
  176.5760   20.7940   46.8750 C   0  0  0  0  0  0  0  0  0  0  0  0
  176.1560   22.0280   47.3770 C   0  0  0  0  0  0  0  0  0  0  0  0
  177.0930   23.0260   47.6520 C   0  0  0  0  0  0  0  0  0  0  0  0
  178.4460   22.7900   47.4270 C   0  0  0  0  0  0  0  0  0  0  0  0
  179.3080   23.8110   47.7170 O   0  0  0  0  0  0  0  0  0  0  0  0
  178.8650   21.5550   46.9250 C   0  0  0  0  0  0  0  0  0  0  0  0
  180.2780   21.2660   46.6730 C   0  0  0  0  0  0  0  0  0  0  0  0
  181.1610   22.0950   46.8840 O   0  0  0  0  0  0  0  0  0  0  0  0
  180.6190   19.9230   46.1480 C   0  0  0  0  0  0  0  0  0  0  0  0
  181.9560   19.6650   45.9020 O   0  0  0  0  0  0  0  0  0  0  0  0
  180.9060   17.3950   44.5300 C   0  0  0  0  0  0  0  0  0  0  0  0
  181.1290   16.0930   44.0400 C   0  0  0  0  0  0  0  0  0  0  0  0
  182.2860   15.8740   43.0850 C   0  0  0  0  0  0  0  0  0  0  0  0
  181.8980   14.9290   41.9340 C   0  0  0  0  0  0  0  0  0  0  0  0
  181.6130   15.6350   40.6680 N   0  0  0  0  0  0  0  0  0  0  0  0
  180.8470   16.8640   40.8880 C   0  0  0  0  0  0  0  0  0  0  0  0
  180.8740   14.7500   39.7620 C   0  0  0  0  0  0  0  0  0  0  0  0
  180.5244   12.9673   44.8064 H   0  0  0  0  0  0  0  0  0  0  0  0
  179.5701   13.3486   43.3332 H   0  0  0  0  0  0  0  0  0  0  0  0
  181.3518   13.5768   43.3332 H   0  0  0  0  0  0  0  0  0  0  0  0
  178.5286   14.5344   45.6238 H   0  0  0  0  0  0  0  0  0  0  0  0
  178.1676   16.8391   46.4737 H   0  0  0  0  0  0  0  0  0  0  0  0
  175.8380   20.0077   46.6581 H   0  0  0  0  0  0  0  0  0  0  0  0
  175.0866   22.2136   47.5557 H   0  0  0  0  0  0  0  0  0  0  0  0
  176.7620   23.9981   48.0462 H   0  0  0  0  0  0  0  0  0  0  0  0
  179.0900   24.6910   47.4800 H   0  0  0  0  0  0  0  0  0  0  0  0
  182.4220   20.1740   45.2690 H   0  0  0  0  0  0  0  0  0  0  0  0
  181.5854   18.2051   44.2266 H   0  0  0  0  0  0  0  0  0  0  0  0
  182.5900   16.8437   42.6639 H   0  0  0  0  0  0  0  0  0  0  0  0
  183.1128   15.4131   43.6454 H   0  0  0  0  0  0  0  0  0  0  0  0
  182.7281   14.2278   41.7633 H   0  0  0  0  0  0  0  0  0  0  0  0
  180.9740   14.4130   42.2340 H   0  0  0  0  0  0  0  0  0  0  0  0
  182.5070   15.8950   40.2500 H   0  0  0  0  0  0  0  0  0  0  0  0
  180.7376   17.0395   41.9684 H   0  0  0  0  0  0  0  0  0  0  0  0
  181.3763   17.7128   40.4304 H   0  0  0  0  0  0  0  0  0  0  0  0
  179.8518   16.7627   40.4304 H   0  0  0  0  0  0  0  0  0  0  0  0
  180.2785   14.0369   40.3509 H   0  0  0  0  0  0  0  0  0  0  0  0
  180.2052   15.3503   39.1277 H   0  0  0  0  0  0  0  0  0  0  0  0
  181.5839   14.1989   39.1277 H   0  0  0  0  0  0  0  0  0  0  0  0
  1  2  1  0
  2  3  2  0
  3  4  1  0
  4  5  2  0
  5  6  1  0
  6  7  1  0
  7  8  1  0
  8  9  2  0
  9 10  1  0
 10 11  2  0
 11 12  1  0
 12 13  1  0
 12 14  2  0
 14 15  1  0
 15 16  2  0
 15 17  1  0
 17 18  1  0
  5 19  1  0
 19 20  2  0
 20 21  1  0
 21 22  1  0
 22 23  1  0
 23 24  1  0
 23 25  1  0
 20  2  1  0
 17  6  2  0
 14  8  1  0
  1 26  1  0
  1 27  1  0
  1 28  1  0
  3 29  1  0
  4 30  1  0
  9 31  1  0
 10 32  1  0
 11 33  1  0
 13 34  1  0
 18 35  1  0
 19 36  1  0
 21 37  1  0
 21 38  1  0
 22 39  1  0
 22 40  1  0
 23 41  1  0
 24 42  1  0
 24 43  1  0
 24 44  1  0
 25 45  1  0
 25 46  1  0
 25 47  1  0
M  CHG  1  23   1
M  END
>  <meeko>  (3) 
{"is_sidechain": [false], "free_energy": -5.89, "intermolecular_energy": -8.748, "internal_energy": 0.962}

$$$$
cand_041_out
     RDKit          3D

 47 49  0  0  0  0  0  0  0  0999 V2000
  182.1210   17.2420   43.6030 C   0  0  0  0  0  0  0  0  0  0  0  0
  181.3330   18.1480   44.5080 C   0  0  0  0  0  0  0  0  0  0  0  0
  181.7400   19.4820   44.6560 C   0  0  0  0  0  0  0  0  0  0  0  0
  181.0360   20.3610   45.4820 C   0  0  0  0  0  0  0  0  0  0  0  0
  179.9060   19.9320   46.1860 C   0  0  0  0  0  0  0  0  0  0  0  0
  179.1630   20.8840   47.0390 C   0  0  0  0  0  0  0  0  0  0  0  0
  177.7890   20.6700   47.0180 O   0  0  0  0  0  0  0  0  0  0  0  0
  176.9790   21.4850   47.7660 C   0  0  0  0  0  0  0  0  0  0  0  0
  175.6090   21.2240   47.7280 C   0  0  0  0  0  0  0  0  0  0  0  0
  174.7270   22.0180   48.4660 C   0  0  0  0  0  0  0  0  0  0  0  0
  175.2170   23.0720   49.2400 C   0  0  0  0  0  0  0  0  0  0  0  0
  176.5840   23.3300   49.2770 C   0  0  0  0  0  0  0  0  0  0  0  0
  176.9940   24.3770   50.0560 O   0  0  0  0  0  0  0  0  0  0  0  0
  177.4650   22.5350   48.5390 C   0  0  0  0  0  0  0  0  0  0  0  0
  178.9090   22.7720   48.5490 C   0  0  0  0  0  0  0  0  0  0  0  0
  179.4150   23.6830   49.2010 O   0  0  0  0  0  0  0  0  0  0  0  0
  179.7590   21.8670   47.7400 C   0  0  0  0  0  0  0  0  0  0  0  0
  181.1200   22.1090   47.7470 O   0  0  0  0  0  0  0  0  0  0  0  0
  179.4880   18.6040   46.0230 C   0  0  0  0  0  0  0  0  0  0  0  0
  180.1840   17.7040   45.1920 C   0  0  0  0  0  0  0  0  0  0  0  0
  179.6790   16.2780   45.0980 C   0  0  0  0  0  0  0  0  0  0  0  0
  180.8090   15.3010   44.7280 C   0  0  0  0  0  0  0  0  0  0  0  0
  180.3570   14.1710   43.8910 N   0  0  0  0  0  0  0  0  0  0  0  0
  180.7220   14.3520   42.4850 C   0  0  0  0  0  0  0  0  0  0  0  0
  178.9030   14.0200   44.0060 C   0  0  0  0  0  0  0  0  0  0  0  0
  182.7228   16.5501   44.2105 H   0  0  0  0  0  0  0  0  0  0  0  0
  181.4307   16.6671   42.9682 H   0  0  0  0  0  0  0  0  0  0  0  0
  182.7860   17.8460   42.9682 H   0  0  0  0  0  0  0  0  0  0  0  0
  182.6269   19.8413   44.1134 H   0  0  0  0  0  0  0  0  0  0  0  0
  181.3742   21.4031   45.5801 H   0  0  0  0  0  0  0  0  0  0  0  0
  175.2234   20.3940   47.1177 H   0  0  0  0  0  0  0  0  0  0  0  0
  173.6467   21.8127   48.4372 H   0  0  0  0  0  0  0  0  0  0  0  0
  174.5229   23.6979   49.8201 H   0  0  0  0  0  0  0  0  0  0  0  0
  176.4520   25.1350   50.1440 H   0  0  0  0  0  0  0  0  0  0  0  0
  181.6920   21.5850   47.2220 H   0  0  0  0  0  0  0  0  0  0  0  0
  178.5926   18.2552   46.5583 H   0  0  0  0  0  0  0  0  0  0  0  0
  179.2567   15.9839   46.0702 H   0  0  0  0  0  0  0  0  0  0  0  0
  178.9141   16.2348   44.3086 H   0  0  0  0  0  0  0  0  0  0  0  0
  181.5828   15.8555   44.1768 H   0  0  0  0  0  0  0  0  0  0  0  0
  181.1917   14.8762   45.6678 H   0  0  0  0  0  0  0  0  0  0  0  0
  180.8230   13.3290   44.2290 H   0  0  0  0  0  0  0  0  0  0  0  0
  181.7058   14.8399   42.4215 H   0  0  0  0  0  0  0  0  0  0  0  0
  180.7662   13.3714   41.9885 H   0  0  0  0  0  0  0  0  0  0  0  0
  179.9682   14.9807   41.9885 H   0  0  0  0  0  0  0  0  0  0  0  0
  178.6203   13.9906   45.0687 H   0  0  0  0  0  0  0  0  0  0  0  0
  178.4062   14.8714   43.5178 H   0  0  0  0  0  0  0  0  0  0  0  0
  178.5917   13.0847   43.5178 H   0  0  0  0  0  0  0  0  0  0  0  0
  1  2  1  0
  2  3  2  0
  3  4  1  0
  4  5  2  0
  5  6  1  0
  6  7  1  0
  7  8  1  0
  8  9  2  0
  9 10  1  0
 10 11  2  0
 11 12  1  0
 12 13  1  0
 12 14  2  0
 14 15  1  0
 15 16  2  0
 15 17  1  0
 17 18  1  0
  5 19  1  0
 19 20  2  0
 20 21  1  0
 21 22  1  0
 22 23  1  0
 23 24  1  0
 23 25  1  0
 20  2  1  0
 17  6  2  0
 14  8  1  0
  1 26  1  0
  1 27  1  0
  1 28  1  0
  3 29  1  0
  4 30  1  0
  9 31  1  0
 10 32  1  0
 11 33  1  0
 13 34  1  0
 18 35  1  0
 19 36  1  0
 21 37  1  0
 21 38  1  0
 22 39  1  0
 22 40  1  0
 23 41  1  0
 24 42  1  0
 24 43  1  0
 24 44  1  0
 25 45  1  0
 25 46  1  0
 25 47  1  0
M  CHG  1  23   1
M  END
>  <meeko>  (4) 
{"is_sidechain": [false], "free_energy": -5.874, "intermolecular_energy": -9.03, "internal_energy": 1.264}

$$$$
cand_041_out
     RDKit          3D

 47 49  0  0  0  0  0  0  0  0999 V2000
  178.9230   19.0810   46.3380 C   0  0  0  0  0  0  0  0  0  0  0  0
  180.1580   19.9260   46.1880 C   0  0  0  0  0  0  0  0  0  0  0  0
  181.1700   19.5020   45.3130 C   0  0  0  0  0  0  0  0  0  0  0  0
  182.3320   20.2570   45.1380 C   0  0  0  0  0  0  0  0  0  0  0  0
  182.5190   21.4540   45.8360 C   0  0  0  0  0  0  0  0  0  0  0  0
  183.7480   22.2480   45.6210 C   0  0  0  0  0  0  0  0  0  0  0  0
  184.3640   21.9740   44.4050 O   0  0  0  0  0  0  0  0  0  0  0  0
  185.5160   22.6420   44.0790 C   0  0  0  0  0  0  0  0  0  0  0  0
  186.0920   22.3460   42.8430 C   0  0  0  0  0  0  0  0  0  0  0  0
  187.2680   22.9900   42.4500 C   0  0  0  0  0  0  0  0  0  0  0  0
  187.8670   23.9280   43.2940 C   0  0  0  0  0  0  0  0  0  0  0  0
  187.2910   24.2210   44.5260 C   0  0  0  0  0  0  0  0  0  0  0  0
  187.9300   25.1480   45.3030 O   0  0  0  0  0  0  0  0  0  0  0  0
  186.1140   23.5770   44.9190 C   0  0  0  0  0  0  0  0  0  0  0  0
  185.4760   23.8550   46.2060 C   0  0  0  0  0  0  0  0  0  0  0  0
  185.9460   24.6620   47.0060 O   0  0  0  0  0  0  0  0  0  0  0  0
  184.2260   23.1250   46.5240 C   0  0  0  0  0  0  0  0  0  0  0  0
  183.6390   23.3870   47.7480 O   0  0  0  0  0  0  0  0  0  0  0  0
  181.5010   21.8880   46.6950 C   0  0  0  0  0  0  0  0  0  0  0  0
  180.3200   21.1420   46.8820 C   0  0  0  0  0  0  0  0  0  0  0  0
  179.2840   21.6690   47.8550 C   0  0  0  0  0  0  0  0  0  0  0  0
  178.7320   23.0340   47.4080 C   0  0  0  0  0  0  0  0  0  0  0  0
  177.2660   23.1500   47.5540 N   0  0  0  0  0  0  0  0  0  0  0  0
  176.8910   23.7580   48.8330 C   0  0  0  0  0  0  0  0  0  0  0  0
  176.6500   21.8240   47.4410 C   0  0  0  0  0  0  0  0  0  0  0  0
  178.7073   18.9334   47.4065 H   0  0  0  0  0  0  0  0  0  0  0  0
  178.0720   19.5870   45.8586 H   0  0  0  0  0  0  0  0  0  0  0  0
  179.0864   18.1045   45.8586 H   0  0  0  0  0  0  0  0  0  0  0  0
  181.0462   18.5611   44.7567 H   0  0  0  0  0  0  0  0  0  0  0  0
  183.1090   19.9058   44.4430 H   0  0  0  0  0  0  0  0  0  0  0  0
  185.6208   21.6065   42.1788 H   0  0  0  0  0  0  0  0  0  0  0  0
  187.7224   22.7582   41.4754 H   0  0  0  0  0  0  0  0  0  0  0  0
  188.7932   24.4345   42.9849 H   0  0  0  0  0  0  0  0  0  0  0  0
  188.1510   25.9860   44.9460 H   0  0  0  0  0  0  0  0  0  0  0  0
  183.4870   22.6890   48.3540 H   0  0  0  0  0  0  0  0  0  0  0  0
  181.6268   22.8363   47.2380 H   0  0  0  0  0  0  0  0  0  0  0  0
  178.4534   20.9505   47.9163 H   0  0  0  0  0  0  0  0  0  0  0  0
  179.7655   21.7963   48.8358 H   0  0  0  0  0  0  0  0  0  0  0  0
  179.2062   23.8182   48.0164 H   0  0  0  0  0  0  0  0  0  0  0  0
  178.9616   23.1427   46.3377 H   0  0  0  0  0  0  0  0  0  0  0  0
  176.9270   23.7580   46.8080 H   0  0  0  0  0  0  0  0  0  0  0  0
  177.2725   23.1395   49.6588 H   0  0  0  0  0  0  0  0  0  0  0  0
  177.3239   24.7670   48.9003 H   0  0  0  0  0  0  0  0  0  0  0  0
  175.7951   23.8240   48.9003 H   0  0  0  0  0  0  0  0  0  0  0  0
  176.4623   21.4200   48.4468 H   0  0  0  0  0  0  0  0  0  0  0  0
  175.6983   21.9071   46.8957 H   0  0  0  0  0  0  0  0  0  0  0  0
  177.3273   21.1503   46.8957 H   0  0  0  0  0  0  0  0  0  0  0  0
  1  2  1  0
  2  3  2  0
  3  4  1  0
  4  5  2  0
  5  6  1  0
  6  7  1  0
  7  8  1  0
  8  9  2  0
  9 10  1  0
 10 11  2  0
 11 12  1  0
 12 13  1  0
 12 14  2  0
 14 15  1  0
 15 16  2  0
 15 17  1  0
 17 18  1  0
  5 19  1  0
 19 20  2  0
 20 21  1  0
 21 22  1  0
 22 23  1  0
 23 24  1  0
 23 25  1  0
 20  2  1  0
 17  6  2  0
 14  8  1  0
  1 26  1  0
  1 27  1  0
  1 28  1  0
  3 29  1  0
  4 30  1  0
  9 31  1  0
 10 32  1  0
 11 33  1  0
 13 34  1  0
 18 35  1  0
 19 36  1  0
 21 37  1  0
 21 38  1  0
 22 39  1  0
 22 40  1  0
 23 41  1  0
 24 42  1  0
 24 43  1  0
 24 44  1  0
 25 45  1  0
 25 46  1  0
 25 47  1  0
M  CHG  1  23   1
M  END
>  <meeko>  (5) 
{"is_sidechain": [false], "free_energy": -5.737, "intermolecular_energy": -7.517, "internal_energy": -0.072}

$$$$
cand_041_out
     RDKit          3D

 47 49  0  0  0  0  0  0  0  0999 V2000
  179.5690   21.9440   48.0310 C   0  0  0  0  0  0  0  0  0  0  0  0
  179.7520   20.7950   47.0780 C   0  0  0  0  0  0  0  0  0  0  0  0
  181.0520   20.3770   46.7580 C   0  0  0  0  0  0  0  0  0  0  0  0
  181.2700   19.3120   45.8810 C   0  0  0  0  0  0  0  0  0  0  0  0
  180.1950   18.6350   45.2970 C   0  0  0  0  0  0  0  0  0  0  0  0
  180.4470   17.4960   44.3880 C   0  0  0  0  0  0  0  0  0  0  0  0
  180.7470   17.8950   43.0910 O   0  0  0  0  0  0  0  0  0  0  0  0
  181.0010   16.9370   42.1430 C   0  0  0  0  0  0  0  0  0  0  0  0
  181.3130   17.3840   40.8590 C   0  0  0  0  0  0  0  0  0  0  0  0
  181.5820   16.4590   39.8460 C   0  0  0  0  0  0  0  0  0  0  0  0
  181.5370   15.0910   40.1190 C   0  0  0  0  0  0  0  0  0  0  0  0
  181.2260   14.6480   41.4010 C   0  0  0  0  0  0  0  0  0  0  0  0
  181.2000   13.2950   41.5980 O   0  0  0  0  0  0  0  0  0  0  0  0
  180.9580   15.5730   42.4140 C   0  0  0  0  0  0  0  0  0  0  0  0
  180.6260   15.1500   43.7750 C   0  0  0  0  0  0  0  0  0  0  0  0
  180.5610   13.9640   44.0920 O   0  0  0  0  0  0  0  0  0  0  0  0
  180.3670   16.2100   44.7780 C   0  0  0  0  0  0  0  0  0  0  0  0
  180.0430   15.7980   46.0580 O   0  0  0  0  0  0  0  0  0  0  0  0
  178.8950   19.0390   45.6320 C   0  0  0  0  0  0  0  0  0  0  0  0
  178.6560   20.1100   46.5160 C   0  0  0  0  0  0  0  0  0  0  0  0
  177.2190   20.5000   46.7980 C   0  0  0  0  0  0  0  0  0  0  0  0
  176.5560   19.5350   47.7960 C   0  0  0  0  0  0  0  0  0  0  0  0
  175.3740   20.1100   48.4700 N   0  0  0  0  0  0  0  0  0  0  0  0
  175.1480   21.5040   48.0810 C   0  0  0  0  0  0  0  0  0  0  0  0
  175.5410   20.0260   49.9240 C   0  0  0  0  0  0  0  0  0  0  0  0
  179.6277   21.5751   49.0656 H   0  0  0  0  0  0  0  0  0  0  0  0
  180.3597   22.6899   47.8622 H   0  0  0  0  0  0  0  0  0  0  0  0
  178.5857   22.4074   47.8622 H   0  0  0  0  0  0  0  0  0  0  0  0
  181.9131   20.8958   47.2045 H   0  0  0  0  0  0  0  0  0  0  0  0
  182.2993   19.0023   45.6471 H   0  0  0  0  0  0  0  0  0  0  0  0
  181.3473   18.4622   40.6440 H   0  0  0  0  0  0  0  0  0  0  0  0
  181.8293   16.8095   38.8331 H   0  0  0  0  0  0  0  0  0  0  0  0
  181.7473   14.3634   39.3212 H   0  0  0  0  0  0  0  0  0  0  0  0
  181.9990   12.8250   41.7340 H   0  0  0  0  0  0  0  0  0  0  0  0
  179.4950   16.3330   46.5970 H   0  0  0  0  0  0  0  0  0  0  0  0
  178.0388   18.5058   45.1931 H   0  0  0  0  0  0  0  0  0  0  0  0
  177.2008   21.5164   47.2183 H   0  0  0  0  0  0  0  0  0  0  0  0
  176.6585   20.4559   45.8525 H   0  0  0  0  0  0  0  0  0  0  0  0
  176.2424   18.6318   47.2520 H   0  0  0  0  0  0  0  0  0  0  0  0
  177.2991   19.3131   48.5761 H   0  0  0  0  0  0  0  0  0  0  0  0
  174.5580   19.5690   48.1800 H   0  0  0  0  0  0  0  0  0  0  0  0
  175.0473   22.1248   48.9835 H   0  0  0  0  0  0  0  0  0  0  0  0
  176.0000   21.8607   47.4837 H   0  0  0  0  0  0  0  0  0  0  0  0
  174.2269   21.5733   47.4837 H   0  0  0  0  0  0  0  0  0  0  0  0
  174.6638   20.4672   50.4199 H   0  0  0  0  0  0  0  0  0  0  0  0
  175.6387   18.9715   50.2215 H   0  0  0  0  0  0  0  0  0  0  0  0
  176.4458   20.5763   50.2215 H   0  0  0  0  0  0  0  0  0  0  0  0
  1  2  1  0
  2  3  2  0
  3  4  1  0
  4  5  2  0
  5  6  1  0
  6  7  1  0
  7  8  1  0
  8  9  2  0
  9 10  1  0
 10 11  2  0
 11 12  1  0
 12 13  1  0
 12 14  2  0
 14 15  1  0
 15 16  2  0
 15 17  1  0
 17 18  1  0
  5 19  1  0
 19 20  2  0
 20 21  1  0
 21 22  1  0
 22 23  1  0
 23 24  1  0
 23 25  1  0
 20  2  1  0
 17  6  2  0
 14  8  1  0
  1 26  1  0
  1 27  1  0
  1 28  1  0
  3 29  1  0
  4 30  1  0
  9 31  1  0
 10 32  1  0
 11 33  1  0
 13 34  1  0
 18 35  1  0
 19 36  1  0
 21 37  1  0
 21 38  1  0
 22 39  1  0
 22 40  1  0
 23 41  1  0
 24 42  1  0
 24 43  1  0
 24 44  1  0
 25 45  1  0
 25 46  1  0
 25 47  1  0
M  CHG  1  23   1
M  END
>  <meeko>  (6) 
{"is_sidechain": [false], "free_energy": -5.736, "intermolecular_energy": -7.065, "internal_energy": -0.523}

$$$$
cand_041_out
     RDKit          3D

 47 49  0  0  0  0  0  0  0  0999 V2000
  179.2880   19.2110   46.1990 C   0  0  0  0  0  0  0  0  0  0  0  0
  180.4490   20.1670   46.2150 C   0  0  0  0  0  0  0  0  0  0  0  0
  181.5750   19.8830   45.4280 C   0  0  0  0  0  0  0  0  0  0  0  0
  182.6740   20.7430   45.4080 C   0  0  0  0  0  0  0  0  0  0  0  0
  182.6830   21.9110   46.1760 C   0  0  0  0  0  0  0  0  0  0  0  0
  183.8480   22.8200   46.1250 C   0  0  0  0  0  0  0  0  0  0  0  0
  184.1780   23.3480   47.3670 O   0  0  0  0  0  0  0  0  0  0  0  0
  185.2410   24.2090   47.4630 C   0  0  0  0  0  0  0  0  0  0  0  0
  185.5460   24.7020   48.7320 C   0  0  0  0  0  0  0  0  0  0  0  0
  186.6160   25.5840   48.8980 C   0  0  0  0  0  0  0  0  0  0  0  0
  187.3790   25.9730   47.7950 C   0  0  0  0  0  0  0  0  0  0  0  0
  187.0740   25.4800   46.5310 C   0  0  0  0  0  0  0  0  0  0  0  0
  187.8620   25.9010   45.4950 O   0  0  0  0  0  0  0  0  0  0  0  0
  186.0030   24.5960   46.3650 C   0  0  0  0  0  0  0  0  0  0  0  0
  185.6480   24.0540   45.0530 C   0  0  0  0  0  0  0  0  0  0  0  0
  186.2680   24.3530   44.0340 O   0  0  0  0  0  0  0  0  0  0  0  0
  184.5010   23.1180   44.9850 C   0  0  0  0  0  0  0  0  0  0  0  0
  184.1670   22.6230   43.7380 O   0  0  0  0  0  0  0  0  0  0  0  0
  181.5500   22.2060   46.9480 C   0  0  0  0  0  0  0  0  0  0  0  0
  180.4310   21.3510   46.9790 C   0  0  0  0  0  0  0  0  0  0  0  0
  179.2620   21.7310   47.8650 C   0  0  0  0  0  0  0  0  0  0  0  0
  178.5850   23.0280   47.3850 C   0  0  0  0  0  0  0  0  0  0  0  0
  177.1180   23.0200   47.5550 N   0  0  0  0  0  0  0  0  0  0  0  0
  176.7170   23.5300   48.8680 C   0  0  0  0  0  0  0  0  0  0  0  0
  176.6050   21.6580   47.3780 C   0  0  0  0  0  0  0  0  0  0  0  0
  178.9964   18.9709   47.2321 H   0  0  0  0  0  0  0  0  0  0  0  0
  178.4383   19.6748   45.6766 H   0  0  0  0  0  0  0  0  0  0  0  0
  179.5801   18.2881   45.6766 H   0  0  0  0  0  0  0  0  0  0  0  0
  181.5920   18.9683   44.8172 H   0  0  0  0  0  0  0  0  0  0  0  0
  183.5437   20.4988   44.7803 H   0  0  0  0  0  0  0  0  0  0  0  0
  184.9444   24.3964   49.6007 H   0  0  0  0  0  0  0  0  0  0  0  0
  186.8579   25.9725   49.8983 H   0  0  0  0  0  0  0  0  0  0  0  0
  188.2207   26.6689   47.9259 H   0  0  0  0  0  0  0  0  0  0  0  0
  188.1470   26.7930   45.4570 H   0  0  0  0  0  0  0  0  0  0  0  0
  184.6720   21.9310   43.3580 H   0  0  0  0  0  0  0  0  0  0  0  0
  181.5348   23.1296   47.5452 H   0  0  0  0  0  0  0  0  0  0  0  0
  178.5232   20.9161   47.8502 H   0  0  0  0  0  0  0  0  0  0  0  0
  179.6423   21.8981   48.8835 H   0  0  0  0  0  0  0  0  0  0  0  0
  178.9982   23.8704   47.9591 H   0  0  0  0  0  0  0  0  0  0  0  0
  178.7871   23.1210   46.3077 H   0  0  0  0  0  0  0  0  0  0  0  0
  176.7210   23.6380   46.8460 H   0  0  0  0  0  0  0  0  0  0  0  0
  177.1913   22.9268   49.6561 H   0  0  0  0  0  0  0  0  0  0  0  0
  177.0353   24.5783   48.9670 H   0  0  0  0  0  0  0  0  0  0  0  0
  175.6232   23.4680   48.9670 H   0  0  0  0  0  0  0  0  0  0  0  0
  176.4326   21.2002   48.3632 H   0  0  0  0  0  0  0  0  0  0  0  0
  175.6583   21.6925   46.8190 H   0  0  0  0  0  0  0  0  0  0  0  0
  177.3393   21.0594   46.8190 H   0  0  0  0  0  0  0  0  0  0  0  0
  1  2  1  0
  2  3  2  0
  3  4  1  0
  4  5  2  0
  5  6  1  0
  6  7  1  0
  7  8  1  0
  8  9  2  0
  9 10  1  0
 10 11  2  0
 11 12  1  0
 12 13  1  0
 12 14  2  0
 14 15  1  0
 15 16  2  0
 15 17  1  0
 17 18  1  0
  5 19  1  0
 19 20  2  0
 20 21  1  0
 21 22  1  0
 22 23  1  0
 23 24  1  0
 23 25  1  0
 20  2  1  0
 17  6  2  0
 14  8  1  0
  1 26  1  0
  1 27  1  0
  1 28  1  0
  3 29  1  0
  4 30  1  0
  9 31  1  0
 10 32  1  0
 11 33  1  0
 13 34  1  0
 18 35  1  0
 19 36  1  0
 21 37  1  0
 21 38  1  0
 22 39  1  0
 22 40  1  0
 23 41  1  0
 24 42  1  0
 24 43  1  0
 24 44  1  0
 25 45  1  0
 25 46  1  0
 25 47  1  0
M  CHG  1  23   1
M  END
>  <meeko>  (7) 
{"is_sidechain": [false], "free_energy": -5.645, "intermolecular_energy": -7.282, "internal_energy": -0.187}

$$$$
cand_041_out
     RDKit          3D

 47 49  0  0  0  0  0  0  0  0999 V2000
  187.2350   24.2290   45.3450 C   0  0  0  0  0  0  0  0  0  0  0  0
  185.9300   23.4950   45.4860 C   0  0  0  0  0  0  0  0  0  0  0  0
  185.0640   23.8430   46.5330 C   0  0  0  0  0  0  0  0  0  0  0  0
  183.8400   23.1910   46.7000 C   0  0  0  0  0  0  0  0  0  0  0  0
  183.4470   22.1710   45.8270 C   0  0  0  0  0  0  0  0  0  0  0  0
  182.1380   21.5080   46.0090 C   0  0  0  0  0  0  0  0  0  0  0  0
  181.2520   22.2610   46.7710 O   0  0  0  0  0  0  0  0  0  0  0  0
  179.9990   21.7610   47.0180 C   0  0  0  0  0  0  0  0  0  0  0  0
  179.1370   22.5570   47.7730 C   0  0  0  0  0  0  0  0  0  0  0  0
  177.8460   22.1070   48.0620 C   0  0  0  0  0  0  0  0  0  0  0  0
  177.4200   20.8610   47.5960 C   0  0  0  0  0  0  0  0  0  0  0  0
  178.2810   20.0700   46.8430 C   0  0  0  0  0  0  0  0  0  0  0  0
  177.7990   18.8620   46.4190 O   0  0  0  0  0  0  0  0  0  0  0  0
  179.5720   20.5210   46.5530 C   0  0  0  0  0  0  0  0  0  0  0  0
  180.5090   19.7200   45.7650 C   0  0  0  0  0  0  0  0  0  0  0  0
  180.2100   18.6120   45.3250 O   0  0  0  0  0  0  0  0  0  0  0  0
  181.8510   20.2920   45.5060 C   0  0  0  0  0  0  0  0  0  0  0  0
  182.7320   19.5210   44.7710 O   0  0  0  0  0  0  0  0  0  0  0  0
  184.3040   21.8360   44.7690 C   0  0  0  0  0  0  0  0  0  0  0  0
  185.5410   22.4840   44.5840 C   0  0  0  0  0  0  0  0  0  0  0  0
  186.4190   22.0380   43.4320 C   0  0  0  0  0  0  0  0  0  0  0  0
  186.1100   22.8250   42.1460 C   0  0  0  0  0  0  0  0  0  0  0  0
  187.0560   22.5470   41.0470 N   0  0  0  0  0  0  0  0  0  0  0  0
  186.3630   22.2380   39.7940 C   0  0  0  0  0  0  0  0  0  0  0  0
  187.9290   21.4280   41.4140 C   0  0  0  0  0  0  0  0  0  0  0  0
  187.6379   24.4556   46.3431 H   0  0  0  0  0  0  0  0  0  0  0  0
  187.9511   23.6013   44.7944 H   0  0  0  0  0  0  0  0  0  0  0  0
  187.0705   25.1669   44.7944 H   0  0  0  0  0  0  0  0  0  0  0  0
  185.3529   24.6410   47.2328 H   0  0  0  0  0  0  0  0  0  0  0  0
  183.1772   23.4831   47.5279 H   0  0  0  0  0  0  0  0  0  0  0  0
  179.4733   23.5378   48.1404 H   0  0  0  0  0  0  0  0  0  0  0  0
  177.1652   22.7340   48.6565 H   0  0  0  0  0  0  0  0  0  0  0  0
  176.4043   20.5057   47.8244 H   0  0  0  0  0  0  0  0  0  0  0  0
  177.6340   18.1800   47.0390 H   0  0  0  0  0  0  0  0  0  0  0  0
  183.2480   19.9140   44.0950 H   0  0  0  0  0  0  0  0  0  0  0  0
  184.0024   21.0464   44.0650 H   0  0  0  0  0  0  0  0  0  0  0  0
  187.4729   22.1979   43.7038 H   0  0  0  0  0  0  0  0  0  0  0  0
  186.2198   20.9734   43.2399 H   0  0  0  0  0  0  0  0  0  0  0  0
  185.0969   22.5595   41.8096 H   0  0  0  0  0  0  0  0  0  0  0  0
  186.2003   23.8939   42.3897 H   0  0  0  0  0  0  0  0  0  0  0  0
  187.6120   23.3890   40.8960 H   0  0  0  0  0  0  0  0  0  0  0  0
  185.3793   21.7994   40.0176 H   0  0  0  0  0  0  0  0  0  0  0  0
  186.2289   23.1616   39.2118 H   0  0  0  0  0  0  0  0  0  0  0  0
  186.9604   21.5210   39.2118 H   0  0  0  0  0  0  0  0  0  0  0  0
  187.9877   21.3528   42.5099 H   0  0  0  0  0  0  0  0  0  0  0  0
  187.5191   20.4933   41.0038 H   0  0  0  0  0  0  0  0  0  0  0  0
  188.9353   21.5982   41.0038 H   0  0  0  0  0  0  0  0  0  0  0  0
  1  2  1  0
  2  3  2  0
  3  4  1  0
  4  5  2  0
  5  6  1  0
  6  7  1  0
  7  8  1  0
  8  9  2  0
  9 10  1  0
 10 11  2  0
 11 12  1  0
 12 13  1  0
 12 14  2  0
 14 15  1  0
 15 16  2  0
 15 17  1  0
 17 18  1  0
  5 19  1  0
 19 20  2  0
 20 21  1  0
 21 22  1  0
 22 23  1  0
 23 24  1  0
 23 25  1  0
 20  2  1  0
 17  6  2  0
 14  8  1  0
  1 26  1  0
  1 27  1  0
  1 28  1  0
  3 29  1  0
  4 30  1  0
  9 31  1  0
 10 32  1  0
 11 33  1  0
 13 34  1  0
 18 35  1  0
 19 36  1  0
 21 37  1  0
 21 38  1  0
 22 39  1  0
 22 40  1  0
 23 41  1  0
 24 42  1  0
 24 43  1  0
 24 44  1  0
 25 45  1  0
 25 46  1  0
 25 47  1  0
M  CHG  1  23   1
M  END
>  <meeko>  (8) 
{"is_sidechain": [false], "free_energy": -5.59, "intermolecular_energy": -7.419, "internal_energy": 0.021}

$$$$
cand_041_out
     RDKit          3D

 47 49  0  0  0  0  0  0  0  0999 V2000
  177.7200   18.6070   46.2220 C   0  0  0  0  0  0  0  0  0  0  0  0
  178.9390   19.4840   46.3010 C   0  0  0  0  0  0  0  0  0  0  0  0
  180.1600   18.9990   45.8080 C   0  0  0  0  0  0  0  0  0  0  0  0
  181.3170   19.7790   45.8560 C   0  0  0  0  0  0  0  0  0  0  0  0
  181.2890   21.0670   46.4010 C   0  0  0  0  0  0  0  0  0  0  0  0
  182.5200   21.8850   46.4230 C   0  0  0  0  0  0  0  0  0  0  0  0
  183.1880   21.8920   45.2040 O   0  0  0  0  0  0  0  0  0  0  0  0
  184.3480   22.6130   45.0860 C   0  0  0  0  0  0  0  0  0  0  0  0
  184.9760   22.6040   43.8400 C   0  0  0  0  0  0  0  0  0  0  0  0
  186.1630   23.3170   43.6530 C   0  0  0  0  0  0  0  0  0  0  0  0
  186.7210   24.0360   44.7120 C   0  0  0  0  0  0  0  0  0  0  0  0
  186.0920   24.0440   45.9530 C   0  0  0  0  0  0  0  0  0  0  0  0
  186.6930   24.7690   46.9460 O   0  0  0  0  0  0  0  0  0  0  0  0
  184.9040   23.3310   46.1400 C   0  0  0  0  0  0  0  0  0  0  0  0
  184.2120   23.3120   47.4290 C   0  0  0  0  0  0  0  0  0  0  0  0
  184.6430   23.9150   48.4100 O   0  0  0  0  0  0  0  0  0  0  0  0
  182.9550   22.5330   47.5210 C   0  0  0  0  0  0  0  0  0  0  0  0
  182.3160   22.5120   48.7470 O   0  0  0  0  0  0  0  0  0  0  0  0
  180.0660   21.5600   46.8760 C   0  0  0  0  0  0  0  0  0  0  0  0
  178.8880   20.7880   46.8330 C   0  0  0  0  0  0  0  0  0  0  0  0
  177.6150   21.3890   47.3970 C   0  0  0  0  0  0  0  0  0  0  0  0
  177.8320   21.9420   48.8170 C   0  0  0  0  0  0  0  0  0  0  0  0
  176.6120   21.9130   49.6490 N   0  0  0  0  0  0  0  0  0  0  0  0
  175.9640   20.6000   49.6230 C   0  0  0  0  0  0  0  0  0  0  0  0
  175.6690   22.9350   49.1840 C   0  0  0  0  0  0  0  0  0  0  0  0
  177.3785   18.3613   47.2384 H   0  0  0  0  0  0  0  0  0  0  0  0
  176.9204   19.1381   45.6849 H   0  0  0  0  0  0  0  0  0  0  0  0
  177.9694   17.6800   45.6849 H   0  0  0  0  0  0  0  0  0  0  0  0
  180.2063   17.9881   45.3768 H   0  0  0  0  0  0  0  0  0  0  0  0
  182.2612   19.3762   45.4608 H   0  0  0  0  0  0  0  0  0  0  0  0
  184.5372   22.0364   43.0061 H   0  0  0  0  0  0  0  0  0  0  0  0
  186.6583   23.3119   42.6708 H   0  0  0  0  0  0  0  0  0  0  0  0
  187.6567   24.5954   44.5653 H   0  0  0  0  0  0  0  0  0  0  0  0
  186.2520   24.9010   47.7610 H   0  0  0  0  0  0  0  0  0  0  0  0
  182.3950   23.2420   49.3290 H   0  0  0  0  0  0  0  0  0  0  0  0
  180.0246   22.5768   47.2935 H   0  0  0  0  0  0  0  0  0  0  0  0
  177.2856   22.2083   46.7410 H   0  0  0  0  0  0  0  0  0  0  0  0
  176.8532   20.5972   47.4481 H   0  0  0  0  0  0  0  0  0  0  0  0
  178.6065   21.3379   49.3122 H   0  0  0  0  0  0  0  0  0  0  0  0
  178.1305   22.9957   48.7138 H   0  0  0  0  0  0  0  0  0  0  0  0
  176.8890   22.1050   50.6120 H   0  0  0  0  0  0  0  0  0  0  0  0
  175.7936   20.2547   50.6534 H   0  0  0  0  0  0  0  0  0  0  0  0
  175.0004   20.6770   49.0980 H   0  0  0  0  0  0  0  0  0  0  0  0
  176.6112   19.8820   49.0980 H   0  0  0  0  0  0  0  0  0  0  0  0
  175.2102   23.4323   50.0513 H   0  0  0  0  0  0  0  0  0  0  0  0
  176.2048   23.6788   48.5759 H   0  0  0  0  0  0  0  0  0  0  0  0
  174.8846   22.4607   48.5759 H   0  0  0  0  0  0  0  0  0  0  0  0
  1  2  1  0
  2  3  2  0
  3  4  1  0
  4  5  2  0
  5  6  1  0
  6  7  1  0
  7  8  1  0
  8  9  2  0
  9 10  1  0
 10 11  2  0
 11 12  1  0
 12 13  1  0
 12 14  2  0
 14 15  1  0
 15 16  2  0
 15 17  1  0
 17 18  1  0
  5 19  1  0
 19 20  2  0
 20 21  1  0
 21 22  1  0
 22 23  1  0
 23 24  1  0
 23 25  1  0
 20  2  1  0
 17  6  2  0
 14  8  1  0
  1 26  1  0
  1 27  1  0
  1 28  1  0
  3 29  1  0
  4 30  1  0
  9 31  1  0
 10 32  1  0
 11 33  1  0
 13 34  1  0
 18 35  1  0
 19 36  1  0
 21 37  1  0
 21 38  1  0
 22 39  1  0
 22 40  1  0
 23 41  1  0
 24 42  1  0
 24 43  1  0
 24 44  1  0
 25 45  1  0
 25 46  1  0
 25 47  1  0
M  CHG  1  23   1
M  END
>  <meeko>  (9) 
{"is_sidechain": [false], "free_energy": -5.561, "intermolecular_energy": -7.049, "internal_energy": -0.312}

$$$$
