cand_054_out
     RDKit          3D

 46 48  0  0  0  0  0  0  0  0999 V2000
  176.2510   20.3490   50.5190 C   0  0  0  0  0  0  0  0  0  0  0  0
  175.8810   19.7880   49.1530 C   0  0  0  0  0  0  0  0  0  0  0  0
  176.0460   20.8000   48.0900 N   0  0  0  0  0  0  0  0  0  0  0  0
  175.1450   20.6310   46.9310 C   0  0  0  0  0  0  0  0  0  0  0  0
  174.7530   19.1680   46.7810 C   0  0  0  0  0  0  0  0  0  0  0  0
  177.3880   20.9410   47.6480 C   0  0  0  0  0  0  0  0  0  0  0  0
  178.0380   19.9360   46.9060 C   0  0  0  0  0  0  0  0  0  0  0  0
  179.3570   20.0900   46.4550 C   0  0  0  0  0  0  0  0  0  0  0  0
  180.0480   19.0240   45.6980 C   0  0  0  0  0  0  0  0  0  0  0  0
  179.4000   17.7960   45.7830 O   0  0  0  0  0  0  0  0  0  0  0  0
  179.9340   16.7180   45.1260 C   0  0  0  0  0  0  0  0  0  0  0  0
  179.2440   15.5100   45.2270 C   0  0  0  0  0  0  0  0  0  0  0  0
  179.7350   14.3720   44.5820 C   0  0  0  0  0  0  0  0  0  0  0  0
  180.9160   14.4420   43.8400 C   0  0  0  0  0  0  0  0  0  0  0  0
  181.6030   15.6490   43.7430 C   0  0  0  0  0  0  0  0  0  0  0  0
  182.7520   15.6480   43.0010 O   0  0  0  0  0  0  0  0  0  0  0  0
  181.1100   16.7880   44.3860 C   0  0  0  0  0  0  0  0  0  0  0  0
  181.8010   18.0760   44.3090 C   0  0  0  0  0  0  0  0  0  0  0  0
  182.8490   18.2160   43.6810 O   0  0  0  0  0  0  0  0  0  0  0  0
  181.1930   19.2230   45.0200 C   0  0  0  0  0  0  0  0  0  0  0  0
  181.8610   20.4320   44.9500 O   0  0  0  0  0  0  0  0  0  0  0  0
  180.0360   21.2730   46.7680 C   0  0  0  0  0  0  0  0  0  0  0  0
  179.4050   22.2860   47.4940 C   0  0  0  0  0  0  0  0  0  0  0  0
  178.0830   22.1350   47.9310 C   0  0  0  0  0  0  0  0  0  0  0  0
  177.4250   23.2450   48.7050 C   0  0  0  0  0  0  0  0  0  0  0  0
  175.8278   19.7073   51.3058 H   0  0  0  0  0  0  0  0  0  0  0  0
  177.3461   20.3780   50.6191 H   0  0  0  0  0  0  0  0  0  0  0  0
  175.8466   21.3670   50.6191 H   0  0  0  0  0  0  0  0  0  0  0  0
  176.5303   18.9280   48.9318 H   0  0  0  0  0  0  0  0  0  0  0  0
  174.8242   19.4839   49.1793 H   0  0  0  0  0  0  0  0  0  0  0  0
  174.2393   21.2364   47.0832 H   0  0  0  0  0  0  0  0  0  0  0  0
  175.6662   20.9589   46.0195 H   0  0  0  0  0  0  0  0  0  0  0  0
  174.6321   18.7168   47.7769 H   0  0  0  0  0  0  0  0  0  0  0  0
  173.8043   19.0974   46.2288 H   0  0  0  0  0  0  0  0  0  0  0  0
  175.5393   18.6325   46.2288 H   0  0  0  0  0  0  0  0  0  0  0  0
  177.4974   19.0065   46.6742 H   0  0  0  0  0  0  0  0  0  0  0  0
  178.3150   15.4534   45.8134 H   0  0  0  0  0  0  0  0  0  0  0  0
  179.1904   13.4194   44.6588 H   0  0  0  0  0  0  0  0  0  0  0  0
  181.3026   13.5454   43.3333 H   0  0  0  0  0  0  0  0  0  0  0  0
  182.7070   15.7080   42.0660 H   0  0  0  0  0  0  0  0  0  0  0  0
  182.6270   20.5750   45.4710 H   0  0  0  0  0  0  0  0  0  0  0  0
  181.0771   21.4065   46.4390 H   0  0  0  0  0  0  0  0  0  0  0  0
  179.9522   23.2119   47.7249 H   0  0  0  0  0  0  0  0  0  0  0  0
  177.5367   23.0566   49.7830 H   0  0  0  0  0  0  0  0  0  0  0  0
  177.9013   24.2029   48.4489 H   0  0  0  0  0  0  0  0  0  0  0  0
  176.3560   23.2870   48.4489 H   0  0  0  0  0  0  0  0  0  0  0  0
  1  2  1  0
  2  3  1  0
  3  4  1  0
  4  5  1  0
  3  6  1  0
  6  7  2  0
  7  8  1  0
  8  9  1  0
  9 10  1  0
 10 11  1  0
 11 12  2  0
 12 13  1  0
 13 14  2  0
 14 15  1  0
 15 16  1  0
 15 17  2  0
 17 18  1  0
 18 19  2  0
 18 20  1  0
 20 21  1  0
  8 22  2  0
 22 23  1  0
 23 24  2  0
 24 25  1  0
 24  6  1  0
 20  9  2  0
 17 11  1  0
  1 26  1  0
  1 27  1  0
  1 28  1  0
  2 29  1  0
  2 30  1  0
  4 31  1  0
  4 32  1  0
  5 33  1  0
  5 34  1  0
  5 35  1  0
  7 36  1  0
 12 37  1  0
 13 38  1  0
 14 39  1  0
 16 40  1  0
 21 41  1  0
 22 42  1  0
 23 43  1  0
 25 44  1  0
 25 45  1  0
 25 46  1  0
M  END
>  <meeko>  (1) 
{"is_sidechain": [false], "free_energy": -6.831, "intermolecular_energy": -8.828, "internal_energy": -0.097}

$$$$
cand_054_out
     RDKit          3D

 46 48  0  0  0  0  0  0  0  0999 V2000
  181.5940   15.3040   42.2190 C   0  0  0  0  0  0  0  0  0  0  0  0
  180.6440   16.3320   42.8200 C   0  0  0  0  0  0  0  0  0  0  0  0
  180.8080   16.4300   44.2840 N   0  0  0  0  0  0  0  0  0  0  0  0
  179.9200   15.5450   45.0660 C   0  0  0  0  0  0  0  0  0  0  0  0
  180.4630   14.1230   45.0630 C   0  0  0  0  0  0  0  0  0  0  0  0
  180.7250   17.7600   44.7740 C   0  0  0  0  0  0  0  0  0  0  0  0
  179.5860   18.2340   45.4530 C   0  0  0  0  0  0  0  0  0  0  0  0
  179.5180   19.5440   45.9520 C   0  0  0  0  0  0  0  0  0  0  0  0
  178.3120   20.0490   46.6420 C   0  0  0  0  0  0  0  0  0  0  0  0
  178.4970   21.3120   47.1950 O   0  0  0  0  0  0  0  0  0  0  0  0
  177.4560   21.9010   47.8650 C   0  0  0  0  0  0  0  0  0  0  0  0
  177.6810   23.1740   48.3910 C   0  0  0  0  0  0  0  0  0  0  0  0
  176.6630   23.8300   49.0860 C   0  0  0  0  0  0  0  0  0  0  0  0
  175.4210   23.2120   49.2570 C   0  0  0  0  0  0  0  0  0  0  0  0
  175.2010   21.9420   48.7330 C   0  0  0  0  0  0  0  0  0  0  0  0
  173.9630   21.3960   48.9370 O   0  0  0  0  0  0  0  0  0  0  0  0
  176.2200   21.2870   48.0350 C   0  0  0  0  0  0  0  0  0  0  0  0
  176.0290   19.9520   47.4670 C   0  0  0  0  0  0  0  0  0  0  0  0
  174.9680   19.3400   47.5820 O   0  0  0  0  0  0  0  0  0  0  0  0
  177.1680   19.3470   46.7400 C   0  0  0  0  0  0  0  0  0  0  0  0
  176.9800   18.0800   46.2190 O   0  0  0  0  0  0  0  0  0  0  0  0
  180.6130   20.3930   45.7520 C   0  0  0  0  0  0  0  0  0  0  0  0
  181.7550   19.9370   45.0900 C   0  0  0  0  0  0  0  0  0  0  0  0
  181.8250   18.6250   44.6040 C   0  0  0  0  0  0  0  0  0  0  0  0
  183.0720   18.1590   43.9010 C   0  0  0  0  0  0  0  0  0  0  0  0
  182.1004   14.7561   43.0273 H   0  0  0  0  0  0  0  0  0  0  0  0
  181.0242   14.5972   41.5979 H   0  0  0  0  0  0  0  0  0  0  0  0
  182.3434   15.8164   41.5979 H   0  0  0  0  0  0  0  0  0  0  0  0
  180.8501   17.3147   42.3707 H   0  0  0  0  0  0  0  0  0  0  0  0
  179.6125   16.0133   42.6090 H   0  0  0  0  0  0  0  0  0  0  0  0
  179.8630   15.9104   46.1020 H   0  0  0  0  0  0  0  0  0  0  0  0
  178.9181   15.5484   44.6119 H   0  0  0  0  0  0  0  0  0  0  0  0
  180.5945   13.7786   46.0994 H   0  0  0  0  0  0  0  0  0  0  0  0
  179.7544   13.4610   44.5437 H   0  0  0  0  0  0  0  0  0  0  0  0
  181.4325   14.1018   44.5437 H   0  0  0  0  0  0  0  0  0  0  0  0
  178.7280   17.5606   45.5959 H   0  0  0  0  0  0  0  0  0  0  0  0
  178.6589   23.6599   48.2582 H   0  0  0  0  0  0  0  0  0  0  0  0
  176.8386   24.8341   49.4993 H   0  0  0  0  0  0  0  0  0  0  0  0
  174.6191   23.7287   49.8048 H   0  0  0  0  0  0  0  0  0  0  0  0
  173.5970   20.8120   48.3010 H   0  0  0  0  0  0  0  0  0  0  0  0
  177.2130   17.8990   45.3300 H   0  0  0  0  0  0  0  0  0  0  0  0
  180.5735   21.4290   46.1197 H   0  0  0  0  0  0  0  0  0  0  0  0
  182.6091   20.6156   44.9486 H   0  0  0  0  0  0  0  0  0  0  0  0
  183.8294   17.8760   44.6469 H   0  0  0  0  0  0  0  0  0  0  0  0
  182.8345   17.2889   43.2712 H   0  0  0  0  0  0  0  0  0  0  0  0
  183.4633   18.9716   43.2712 H   0  0  0  0  0  0  0  0  0  0  0  0
  1  2  1  0
  2  3  1  0
  3  4  1  0
  4  5  1  0
  3  6  1  0
  6  7  2  0
  7  8  1  0
  8  9  1  0
  9 10  1  0
 10 11  1  0
 11 12  2  0
 12 13  1  0
 13 14  2  0
 14 15  1  0
 15 16  1  0
 15 17  2  0
 17 18  1  0
 18 19  2  0
 18 20  1  0
 20 21  1  0
  8 22  2  0
 22 23  1  0
 23 24  2  0
 24 25  1  0
 24  6  1  0
 20  9  2  0
 17 11  1  0
  1 26  1  0
  1 27  1  0
  1 28  1  0
  2 29  1  0
  2 30  1  0
  4 31  1  0
  4 32  1  0
  5 33  1  0
  5 34  1  0
  5 35  1  0
  7 36  1  0
 12 37  1  0
 13 38  1  0
 14 39  1  0
 16 40  1  0
 21 41  1  0
 22 42  1  0
 23 43  1  0
 25 44  1  0
 25 45  1  0
 25 46  1  0
M  END
>  <meeko>  (2) 
{"is_sidechain": [false], "free_energy": -5.889, "intermolecular_energy": -8.071, "internal_energy": 0.365}

$$$$
cand_054_out
     RDKit          3D

 46 48  0  0  0  0  0  0  0  0999 V2000
  186.4360   22.6240   40.8860 C   0  0  0  0  0  0  0  0  0  0  0  0
  185.6700   23.0750   42.1220 C   0  0  0  0  0  0  0  0  0  0  0  0
  186.2790   22.5460   43.3590 N   0  0  0  0  0  0  0  0  0  0  0  0
  186.7210   21.1390   43.2780 C   0  0  0  0  0  0  0  0  0  0  0  0
  187.9300   20.9160   44.1760 C   0  0  0  0  0  0  0  0  0  0  0  0
  185.4720   22.7360   44.5120 C   0  0  0  0  0  0  0  0  0  0  0  0
  184.2510   22.0570   44.6880 C   0  0  0  0  0  0  0  0  0  0  0  0
  183.4680   22.2350   45.8380 C   0  0  0  0  0  0  0  0  0  0  0  0
  182.1730   21.5410   46.0110 C   0  0  0  0  0  0  0  0  0  0  0  0
  181.2690   22.2700   46.7750 O   0  0  0  0  0  0  0  0  0  0  0  0
  180.0260   21.7440   47.0140 C   0  0  0  0  0  0  0  0  0  0  0  0
  179.1460   22.5150   47.7730 C   0  0  0  0  0  0  0  0  0  0  0  0
  177.8640   22.0360   48.0540 C   0  0  0  0  0  0  0  0  0  0  0  0
  177.4650   20.7850   47.5780 C   0  0  0  0  0  0  0  0  0  0  0  0
  178.3460   20.0170   46.8220 C   0  0  0  0  0  0  0  0  0  0  0  0
  177.8900   18.8020   46.3870 O   0  0  0  0  0  0  0  0  0  0  0  0
  179.6280   20.4980   46.5390 C   0  0  0  0  0  0  0  0  0  0  0  0
  180.5840   19.7230   45.7480 C   0  0  0  0  0  0  0  0  0  0  0  0
  180.3090   18.6110   45.2990 O   0  0  0  0  0  0  0  0  0  0  0  0
  181.9130   20.3250   45.4990 C   0  0  0  0  0  0  0  0  0  0  0  0
  182.8130   19.5770   44.7600 O   0  0  0  0  0  0  0  0  0  0  0  0
  183.9190   23.1220   46.8230 C   0  0  0  0  0  0  0  0  0  0  0  0
  185.1320   23.7970   46.6710 C   0  0  0  0  0  0  0  0  0  0  0  0
  185.9180   23.6070   45.5270 C   0  0  0  0  0  0  0  0  0  0  0  0
  187.2250   24.3420   45.3940 C   0  0  0  0  0  0  0  0  0  0  0  0
  187.3460   22.0882   41.1939 H   0  0  0  0  0  0  0  0  0  0  0  0
  185.8020   21.9550   40.2856 H   0  0  0  0  0  0  0  0  0  0  0  0
  186.7134   23.5029   40.2856 H   0  0  0  0  0  0  0  0  0  0  0  0
  185.6737   24.1742   42.1635 H   0  0  0  0  0  0  0  0  0  0  0  0
  184.6423   22.6893   42.0510 H   0  0  0  0  0  0  0  0  0  0  0  0
  185.9011   20.4812   43.6022 H   0  0  0  0  0  0  0  0  0  0  0  0
  186.9981   20.9087   42.2387 H   0  0  0  0  0  0  0  0  0  0  0  0
  187.6196   20.9733   45.2297 H   0  0  0  0  0  0  0  0  0  0  0  0
  188.3590   19.9236   43.9735 H   0  0  0  0  0  0  0  0  0  0  0  0
  188.6849   21.6901   43.9735 H   0  0  0  0  0  0  0  0  0  0  0  0
  183.9023   21.3693   43.9034 H   0  0  0  0  0  0  0  0  0  0  0  0
  179.4609   23.4992   48.1500 H   0  0  0  0  0  0  0  0  0  0  0  0
  177.1684   22.6445   48.6505 H   0  0  0  0  0  0  0  0  0  0  0  0
  176.4561   20.4072   47.8002 H   0  0  0  0  0  0  0  0  0  0  0  0
  177.1070   18.7520   45.8730 H   0  0  0  0  0  0  0  0  0  0  0  0
  182.7020   19.4900   43.8340 H   0  0  0  0  0  0  0  0  0  0  0  0
  183.3121   23.2887   47.7251 H   0  0  0  0  0  0  0  0  0  0  0  0
  185.4740   24.4853   47.4580 H   0  0  0  0  0  0  0  0  0  0  0  0
  187.6232   24.5659   46.3946 H   0  0  0  0  0  0  0  0  0  0  0  0
  187.9437   23.7157   44.8451 H   0  0  0  0  0  0  0  0  0  0  0  0
  187.0632   25.2814   44.8451 H   0  0  0  0  0  0  0  0  0  0  0  0
  1  2  1  0
  2  3  1  0
  3  4  1  0
  4  5  1  0
  3  6  1  0
  6  7  2  0
  7  8  1  0
  8  9  1  0
  9 10  1  0
 10 11  1  0
 11 12  2  0
 12 13  1  0
 13 14  2  0
 14 15  1  0
 15 16  1  0
 15 17  2  0
 17 18  1  0
 18 19  2  0
 18 20  1  0
 20 21  1  0
  8 22  2  0
 22 23  1  0
 23 24  2  0
 24 25  1  0
 24  6  1  0
 20  9  2  0
 17 11  1  0
  1 26  1  0
  1 27  1  0
  1 28  1  0
  2 29  1  0
  2 30  1  0
  4 31  1  0
  4 32  1  0
  5 33  1  0
  5 34  1  0
  5 35  1  0
  7 36  1  0
 12 37  1  0
 13 38  1  0
 14 39  1  0
 16 40  1  0
 21 41  1  0
 22 42  1  0
 23 43  1  0
 25 44  1  0
 25 45  1  0
 25 46  1  0
M  END
>  <meeko>  (3) 
{"is_sidechain": [false], "free_energy": -5.516, "intermolecular_energy": -6.776, "internal_energy": -0.45}

$$$$
cand_054_out
     RDKit          3D

 46 48  0  0  0  0  0  0  0  0999 V2000
  187.6420   23.1600   48.6890 C   0  0  0  0  0  0  0  0  0  0  0  0
  186.4220   23.9610   49.1210 C   0  0  0  0  0  0  0  0  0  0  0  0
  185.9490   24.8520   48.0420 N   0  0  0  0  0  0  0  0  0  0  0  0
  185.0110   25.9060   48.4780 C   0  0  0  0  0  0  0  0  0  0  0  0
  184.6970   25.7500   49.9590 C   0  0  0  0  0  0  0  0  0  0  0  0
  185.4130   24.1530   46.9280 C   0  0  0  0  0  0  0  0  0  0  0  0
  184.2600   23.3510   47.0360 C   0  0  0  0  0  0  0  0  0  0  0  0
  183.7240   22.6790   45.9270 C   0  0  0  0  0  0  0  0  0  0  0  0
  182.5290   21.8160   46.0460 C   0  0  0  0  0  0  0  0  0  0  0  0
  181.5310   22.3830   46.8310 O   0  0  0  0  0  0  0  0  0  0  0  0
  180.3650   21.6880   47.0250 C   0  0  0  0  0  0  0  0  0  0  0  0
  179.3860   22.3000   47.8080 C   0  0  0  0  0  0  0  0  0  0  0  0
  178.1740   21.6460   48.0450 C   0  0  0  0  0  0  0  0  0  0  0  0
  177.9450   20.3800   47.5020 C   0  0  0  0  0  0  0  0  0  0  0  0
  178.9240   19.7720   46.7230 C   0  0  0  0  0  0  0  0  0  0  0  0
  178.6340   18.5320   46.2220 O   0  0  0  0  0  0  0  0  0  0  0  0
  180.1350   20.4270   46.4840 C   0  0  0  0  0  0  0  0  0  0  0  0
  181.1910   19.8230   45.6700 C   0  0  0  0  0  0  0  0  0  0  0  0
  181.0660   18.7090   45.1630 O   0  0  0  0  0  0  0  0  0  0  0  0
  182.4330   20.6040   45.4700 C   0  0  0  0  0  0  0  0  0  0  0  0
  183.4290   20.0170   44.7100 O   0  0  0  0  0  0  0  0  0  0  0  0
  184.3680   22.8090   44.6910 C   0  0  0  0  0  0  0  0  0  0  0  0
  185.5060   23.6080   44.5620 C   0  0  0  0  0  0  0  0  0  0  0  0
  186.0320   24.2880   45.6680 C   0  0  0  0  0  0  0  0  0  0  0  0
  187.2550   25.1480   45.4990 C   0  0  0  0  0  0  0  0  0  0  0  0
  188.1820   22.8055   49.5794 H   0  0  0  0  0  0  0  0  0  0  0  0
  187.3199   22.2970   48.0877 H   0  0  0  0  0  0  0  0  0  0  0  0
  188.3058   23.7986   48.0877 H   0  0  0  0  0  0  0  0  0  0  0  0
  185.6139   23.2646   49.3893 H   0  0  0  0  0  0  0  0  0  0  0  0
  186.7053   24.5832   49.9828 H   0  0  0  0  0  0  0  0  0  0  0  0
  185.4666   26.8922   48.3050 H   0  0  0  0  0  0  0  0  0  0  0  0
  184.0781   25.8172   47.9019 H   0  0  0  0  0  0  0  0  0  0  0  0
  185.5252   26.1614   50.5547 H   0  0  0  0  0  0  0  0  0  0  0  0
  183.7698   26.2922   50.1963 H   0  0  0  0  0  0  0  0  0  0  0  0
  184.5691   24.6836   50.1963 H   0  0  0  0  0  0  0  0  0  0  0  0
  183.7675   23.2490   48.0143 H   0  0  0  0  0  0  0  0  0  0  0  0
  179.5678   23.2959   48.2382 H   0  0  0  0  0  0  0  0  0  0  0  0
  177.3999   22.1287   48.6596 H   0  0  0  0  0  0  0  0  0  0  0  0
  176.9918   19.8643   47.6900 H   0  0  0  0  0  0  0  0  0  0  0  0
  179.0060   18.2560   45.4070 H   0  0  0  0  0  0  0  0  0  0  0  0
  184.2410   20.4640   44.5770 H   0  0  0  0  0  0  0  0  0  0  0  0
  183.9739   22.2766   43.8128 H   0  0  0  0  0  0  0  0  0  0  0  0
  185.9947   23.7045   43.5812 H   0  0  0  0  0  0  0  0  0  0  0  0
  187.6483   25.4246   46.4883 H   0  0  0  0  0  0  0  0  0  0  0  0
  188.0220   24.5894   44.9426 H   0  0  0  0  0  0  0  0  0  0  0  0
  186.9888   26.0588   44.9426 H   0  0  0  0  0  0  0  0  0  0  0  0
  1  2  1  0
  2  3  1  0
  3  4  1  0
  4  5  1  0
  3  6  1  0
  6  7  2  0
  7  8  1  0
  8  9  1  0
  9 10  1  0
 10 11  1  0
 11 12  2  0
 12 13  1  0
 13 14  2  0
 14 15  1  0
 15 16  1  0
 15 17  2  0
 17 18  1  0
 18 19  2  0
 18 20  1  0
 20 21  1  0
  8 22  2  0
 22 23  1  0
 23 24  2  0
 24 25  1  0
 24  6  1  0
 20  9  2  0
 17 11  1  0
  1 26  1  0
  1 27  1  0
  1 28  1  0
  2 29  1  0
  2 30  1  0
  4 31  1  0
  4 32  1  0
  5 33  1  0
  5 34  1  0
  5 35  1  0
  7 36  1  0
 12 37  1  0
 13 38  1  0
 14 39  1  0
 16 40  1  0
 21 41  1  0
 22 42  1  0
 23 43  1  0
 25 44  1  0
 25 45  1  0
 25 46  1  0
M  END
>  <meeko>  (4) 
{"is_sidechain": [false], "free_energy": -5.395, "intermolecular_energy": -6.477, "internal_energy": -0.592}

$$$$
cand_054_out
     RDKit          3D

 46 48  0  0  0  0  0  0  0  0999 V2000
  181.2020   15.2780   41.9110 C   0  0  0  0  0  0  0  0  0  0  0  0
  180.4400   16.3500   42.6790 C   0  0  0  0  0  0  0  0  0  0  0  0
  180.8150   16.3620   44.1070 N   0  0  0  0  0  0  0  0  0  0  0  0
  179.9290   15.5710   44.9850 C   0  0  0  0  0  0  0  0  0  0  0  0
  180.4410   14.1410   45.0960 C   0  0  0  0  0  0  0  0  0  0  0  0
  180.9830   17.6690   44.6360 C   0  0  0  0  0  0  0  0  0  0  0  0
  180.0200   18.2640   45.4730 C   0  0  0  0  0  0  0  0  0  0  0  0
  180.2010   19.5480   46.0080 C   0  0  0  0  0  0  0  0  0  0  0  0
  179.1780   20.1830   46.8660 C   0  0  0  0  0  0  0  0  0  0  0  0
  177.9080   19.6500   46.6760 O   0  0  0  0  0  0  0  0  0  0  0  0
  176.8620   20.1470   47.4090 C   0  0  0  0  0  0  0  0  0  0  0  0
  175.6090   19.5730   47.1970 C   0  0  0  0  0  0  0  0  0  0  0  0
  174.5010   20.0340   47.9110 C   0  0  0  0  0  0  0  0  0  0  0  0
  174.6470   21.0710   48.8360 C   0  0  0  0  0  0  0  0  0  0  0  0
  175.8990   21.6430   49.0450 C   0  0  0  0  0  0  0  0  0  0  0  0
  175.9700   22.6540   49.9650 O   0  0  0  0  0  0  0  0  0  0  0  0
  177.0080   21.1790   48.3310 C   0  0  0  0  0  0  0  0  0  0  0  0
  178.3400   21.7520   48.5210 C   0  0  0  0  0  0  0  0  0  0  0  0
  178.5480   22.6720   49.3120 O   0  0  0  0  0  0  0  0  0  0  0  0
  179.4500   21.1850   47.7220 C   0  0  0  0  0  0  0  0  0  0  0  0
  180.7030   21.7440   47.9010 O   0  0  0  0  0  0  0  0  0  0  0  0
  181.3690   20.2490   45.6830 C   0  0  0  0  0  0  0  0  0  0  0  0
  182.3410   19.6710   44.8630 C   0  0  0  0  0  0  0  0  0  0  0  0
  182.1630   18.3830   44.3410 C   0  0  0  0  0  0  0  0  0  0  0  0
  183.2290   17.7830   43.4660 C   0  0  0  0  0  0  0  0  0  0  0  0
  181.6884   14.5937   42.6217 H   0  0  0  0  0  0  0  0  0  0  0  0
  180.5019   14.7127   41.2783 H   0  0  0  0  0  0  0  0  0  0  0  0
  181.9660   15.7534   41.2783 H   0  0  0  0  0  0  0  0  0  0  0  0
  180.6676   17.3332   42.2414 H   0  0  0  0  0  0  0  0  0  0  0  0
  179.3650   16.1285   42.6062 H   0  0  0  0  0  0  0  0  0  0  0  0
  179.9065   16.0278   45.9854 H   0  0  0  0  0  0  0  0  0  0  0  0
  178.9162   15.5579   44.5559 H   0  0  0  0  0  0  0  0  0  0  0  0
  180.5388   13.8679   46.1571 H   0  0  0  0  0  0  0  0  0  0  0  0
  179.7314   13.4584   44.6056 H   0  0  0  0  0  0  0  0  0  0  0  0
  181.4226   14.0639   44.6056 H   0  0  0  0  0  0  0  0  0  0  0  0
  179.1020   17.7077   45.7136 H   0  0  0  0  0  0  0  0  0  0  0  0
  175.4934   18.7576   46.4678 H   0  0  0  0  0  0  0  0  0  0  0  0
  173.5127   19.5805   47.7451 H   0  0  0  0  0  0  0  0  0  0  0  0
  173.7743   21.4348   49.3981 H   0  0  0  0  0  0  0  0  0  0  0  0
  175.8540   22.4670   50.8760 H   0  0  0  0  0  0  0  0  0  0  0  0
  181.0230   22.3800   47.2930 H   0  0  0  0  0  0  0  0  0  0  0  0
  181.5225   21.2644   46.0772 H   0  0  0  0  0  0  0  0  0  0  0  0
  183.2560   20.2331   44.6245 H   0  0  0  0  0  0  0  0  0  0  0  0
  184.0147   17.3408   44.0962 H   0  0  0  0  0  0  0  0  0  0  0  0
  182.7855   17.0020   42.8309 H   0  0  0  0  0  0  0  0  0  0  0  0
  183.6665   18.5674   42.8309 H   0  0  0  0  0  0  0  0  0  0  0  0
  1  2  1  0
  2  3  1  0
  3  4  1  0
  4  5  1  0
  3  6  1  0
  6  7  2  0
  7  8  1  0
  8  9  1  0
  9 10  1  0
 10 11  1  0
 11 12  2  0
 12 13  1  0
 13 14  2  0
 14 15  1  0
 15 16  1  0
 15 17  2  0
 17 18  1  0
 18 19  2  0
 18 20  1  0
 20 21  1  0
  8 22  2  0
 22 23  1  0
 23 24  2  0
 24 25  1  0
 24  6  1  0
 20  9  2  0
 17 11  1  0
  1 26  1  0
  1 27  1  0
  1 28  1  0
  2 29  1  0
  2 30  1  0
  4 31  1  0
  4 32  1  0
  5 33  1  0
  5 34  1  0
  5 35  1  0
  7 36  1  0
 12 37  1  0
 13 38  1  0
 14 39  1  0
 16 40  1  0
 21 41  1  0
 22 42  1  0
 23 43  1  0
 25 44  1  0
 25 45  1  0
 25 46  1  0
M  END
>  <meeko>  (5) 
{"is_sidechain": [false], "free_energy": -5.259, "intermolecular_energy": -7.07, "internal_energy": 0.177}

$$$$
cand_054_out
     RDKit          3D

 46 48  0  0  0  0  0  0  0  0999 V2000
  176.1690   24.1250   49.5930 C   0  0  0  0  0  0  0  0  0  0  0  0
  176.4550   23.2950   48.3490 C   0  0  0  0  0  0  0  0  0  0  0  0
  177.4620   22.2480   48.6160 N   0  0  0  0  0  0  0  0  0  0  0  0
  178.8610   22.6660   48.3930 C   0  0  0  0  0  0  0  0  0  0  0  0
  178.9190   23.7700   47.3460 C   0  0  0  0  0  0  0  0  0  0  0  0
  177.2030   21.0290   47.9340 C   0  0  0  0  0  0  0  0  0  0  0  0
  178.2120   20.3360   47.2380 C   0  0  0  0  0  0  0  0  0  0  0  0
  177.9540   19.1220   46.5840 C   0  0  0  0  0  0  0  0  0  0  0  0
  179.0070   18.4070   45.8310 C   0  0  0  0  0  0  0  0  0  0  0  0
  178.7730   17.0390   45.7430 O   0  0  0  0  0  0  0  0  0  0  0  0
  179.6730   16.2540   45.0700 C   0  0  0  0  0  0  0  0  0  0  0  0
  179.3910   14.8900   44.9940 C   0  0  0  0  0  0  0  0  0  0  0  0
  180.2680   14.0340   44.3230 C   0  0  0  0  0  0  0  0  0  0  0  0
  181.4270   14.5420   43.7320 C   0  0  0  0  0  0  0  0  0  0  0  0
  181.7050   15.9030   43.8110 C   0  0  0  0  0  0  0  0  0  0  0  0
  182.8570   16.3340   43.2100 O   0  0  0  0  0  0  0  0  0  0  0  0
  180.8270   16.7600   44.4800 C   0  0  0  0  0  0  0  0  0  0  0  0
  181.0830   18.1970   44.5850 C   0  0  0  0  0  0  0  0  0  0  0  0
  182.0840   18.7180   44.0970 O   0  0  0  0  0  0  0  0  0  0  0  0
  180.0860   19.0190   45.3090 C   0  0  0  0  0  0  0  0  0  0  0  0
  180.3450   20.3740   45.4130 O   0  0  0  0  0  0  0  0  0  0  0  0
  176.6540   18.6050   46.6230 C   0  0  0  0  0  0  0  0  0  0  0  0
  175.6420   19.2730   47.3170 C   0  0  0  0  0  0  0  0  0  0  0  0
  175.9060   20.4780   47.9800 C   0  0  0  0  0  0  0  0  0  0  0  0
  174.7990   21.1730   48.7270 C   0  0  0  0  0  0  0  0  0  0  0  0
  176.3762   23.5238   50.4905 H   0  0  0  0  0  0  0  0  0  0  0  0
  176.8113   25.0180   49.5936 H   0  0  0  0  0  0  0  0  0  0  0  0
  175.1130   24.4328   49.5936 H   0  0  0  0  0  0  0  0  0  0  0  0
  175.5220   22.8168   48.0162 H   0  0  0  0  0  0  0  0  0  0  0  0
  176.8513   23.9644   47.5713 H   0  0  0  0  0  0  0  0  0  0  0  0
  179.2840   23.0384   49.3377 H   0  0  0  0  0  0  0  0  0  0  0  0
  179.4414   21.8022   48.0366 H   0  0  0  0  0  0  0  0  0  0  0  0
  178.9704   24.7480   47.8469 H   0  0  0  0  0  0  0  0  0  0  0  0
  179.8112   23.6327   46.7174 H   0  0  0  0  0  0  0  0  0  0  0  0
  178.0174   23.7269   46.7174 H   0  0  0  0  0  0  0  0  0  0  0  0
  179.2278   20.7570   47.2063 H   0  0  0  0  0  0  0  0  0  0  0  0
  178.4797   14.4890   45.4616 H   0  0  0  0  0  0  0  0  0  0  0  0
  180.0454   12.9586   44.2601 H   0  0  0  0  0  0  0  0  0  0  0  0
  182.1184   13.8677   43.2053 H   0  0  0  0  0  0  0  0  0  0  0  0
  182.9290   16.3280   42.2750 H   0  0  0  0  0  0  0  0  0  0  0  0
  181.1860   20.6690   45.6990 H   0  0  0  0  0  0  0  0  0  0  0  0
  176.4268   17.6632   46.1020 H   0  0  0  0  0  0  0  0  0  0  0  0
  174.6277   18.8482   47.3429 H   0  0  0  0  0  0  0  0  0  0  0  0
  174.9652   21.0687   49.8094 H   0  0  0  0  0  0  0  0  0  0  0  0
  174.7890   22.2397   48.4587 H   0  0  0  0  0  0  0  0  0  0  0  0
  173.8339   20.7184   48.4587 H   0  0  0  0  0  0  0  0  0  0  0  0
  1  2  1  0
  2  3  1  0
  3  4  1  0
  4  5  1  0
  3  6  1  0
  6  7  2  0
  7  8  1  0
  8  9  1  0
  9 10  1  0
 10 11  1  0
 11 12  2  0
 12 13  1  0
 13 14  2  0
 14 15  1  0
 15 16  1  0
 15 17  2  0
 17 18  1  0
 18 19  2  0
 18 20  1  0
 20 21  1  0
  8 22  2  0
 22 23  1  0
 23 24  2  0
 24 25  1  0
 24  6  1  0
 20  9  2  0
 17 11  1  0
  1 26  1  0
  1 27  1  0
  1 28  1  0
  2 29  1  0
  2 30  1  0
  4 31  1  0
  4 32  1  0
  5 33  1  0
  5 34  1  0
  5 35  1  0
  7 36  1  0
 12 37  1  0
 13 38  1  0
 14 39  1  0
 16 40  1  0
 21 41  1  0
 22 42  1  0
 23 43  1  0
 25 44  1  0
 25 45  1  0
 25 46  1  0
M  END
>  <meeko>  (6) 
{"is_sidechain": [false], "free_energy": -5.259, "intermolecular_energy": -7.826, "internal_energy": 0.932}

$$$$
cand_054_out
     RDKit          3D

 46 48  0  0  0  0  0  0  0  0999 V2000
  177.2980   23.8130   48.4990 C   0  0  0  0  0  0  0  0  0  0  0  0
  177.3160   22.9090   47.2740 C   0  0  0  0  0  0  0  0  0  0  0  0
  177.5970   21.5060   47.6420 N   0  0  0  0  0  0  0  0  0  0  0  0
  177.5890   21.2340   49.0930 C   0  0  0  0  0  0  0  0  0  0  0  0
  176.2820   20.5650   49.4950 C   0  0  0  0  0  0  0  0  0  0  0  0
  178.7860   20.9960   47.0560 C   0  0  0  0  0  0  0  0  0  0  0  0
  179.9950   21.7170   47.0760 C   0  0  0  0  0  0  0  0  0  0  0  0
  181.1710   21.1990   46.5140 C   0  0  0  0  0  0  0  0  0  0  0  0
  182.4340   21.9680   46.5120 C   0  0  0  0  0  0  0  0  0  0  0  0
  183.0600   21.9740   45.2700 O   0  0  0  0  0  0  0  0  0  0  0  0
  184.2430   22.6520   45.1260 C   0  0  0  0  0  0  0  0  0  0  0  0
  184.8280   22.6430   43.8600 C   0  0  0  0  0  0  0  0  0  0  0  0
  186.0350   23.3140   43.6460 C   0  0  0  0  0  0  0  0  0  0  0  0
  186.6560   23.9900   44.6990 C   0  0  0  0  0  0  0  0  0  0  0  0
  186.0700   23.9950   45.9610 C   0  0  0  0  0  0  0  0  0  0  0  0
  186.7320   24.6760   46.9460 O   0  0  0  0  0  0  0  0  0  0  0  0
  184.8620   23.3260   46.1740 C   0  0  0  0  0  0  0  0  0  0  0  0
  184.2130   23.3070   47.4860 C   0  0  0  0  0  0  0  0  0  0  0  0
  184.7010   23.8730   48.4620 O   0  0  0  0  0  0  0  0  0  0  0  0
  182.9310   22.5760   47.6050 C   0  0  0  0  0  0  0  0  0  0  0  0
  182.3330   22.5550   48.8520 O   0  0  0  0  0  0  0  0  0  0  0  0
  181.1240   19.9370   45.9110 C   0  0  0  0  0  0  0  0  0  0  0  0
  179.9370   19.2020   45.8910 C   0  0  0  0  0  0  0  0  0  0  0  0
  178.7670   19.7160   46.4640 C   0  0  0  0  0  0  0  0  0  0  0  0
  177.5030   18.8990   46.4350 C   0  0  0  0  0  0  0  0  0  0  0  0
  177.3103   23.1965   49.4099 H   0  0  0  0  0  0  0  0  0  0  0  0
  178.1833   24.4657   48.4861 H   0  0  0  0  0  0  0  0  0  0  0  0
  176.3874   24.4300   48.4861 H   0  0  0  0  0  0  0  0  0  0  0  0
  176.3354   22.9592   46.7780 H   0  0  0  0  0  0  0  0  0  0  0  0
  178.1132   23.2559   46.6001 H   0  0  0  0  0  0  0  0  0  0  0  0
  178.4292   20.5695   49.3428 H   0  0  0  0  0  0  0  0  0  0  0  0
  177.6878   22.1849   49.6371 H   0  0  0  0  0  0  0  0  0  0  0  0
  176.2110   20.5286   50.5921 H   0  0  0  0  0  0  0  0  0  0  0  0
  175.4361   21.1410   49.0917 H   0  0  0  0  0  0  0  0  0  0  0  0
  176.2545   19.5420   49.0917 H   0  0  0  0  0  0  0  0  0  0  0  0
  180.0179   22.7120   47.5444 H   0  0  0  0  0  0  0  0  0  0  0  0
  184.3402   22.1087   43.0314 H   0  0  0  0  0  0  0  0  0  0  0  0
  186.4965   23.3099   42.6475 H   0  0  0  0  0  0  0  0  0  0  0  0
  187.6066   24.5174   44.5308 H   0  0  0  0  0  0  0  0  0  0  0  0
  186.9440   25.5820   46.8290 H   0  0  0  0  0  0  0  0  0  0  0  0
  182.8540   22.6520   49.6240 H   0  0  0  0  0  0  0  0  0  0  0  0
  182.0308   19.5201   45.4484 H   0  0  0  0  0  0  0  0  0  0  0  0
  179.9206   18.2081   45.4199 H   0  0  0  0  0  0  0  0  0  0  0  0
  177.1783   18.6892   47.4648 H   0  0  0  0  0  0  0  0  0  0  0  0
  176.7160   19.4597   45.9095 H   0  0  0  0  0  0  0  0  0  0  0  0
  177.6911   17.9511   45.9095 H   0  0  0  0  0  0  0  0  0  0  0  0
  1  2  1  0
  2  3  1  0
  3  4  1  0
  4  5  1  0
  3  6  1  0
  6  7  2  0
  7  8  1  0
  8  9  1  0
  9 10  1  0
 10 11  1  0
 11 12  2  0
 12 13  1  0
 13 14  2  0
 14 15  1  0
 15 16  1  0
 15 17  2  0
 17 18  1  0
 18 19  2  0
 18 20  1  0
 20 21  1  0
  8 22  2  0
 22 23  1  0
 23 24  2  0
 24 25  1  0
 24  6  1  0
 20  9  2  0
 17 11  1  0
  1 26  1  0
  1 27  1  0
  1 28  1  0
  2 29  1  0
  2 30  1  0
  4 31  1  0
  4 32  1  0
  5 33  1  0
  5 34  1  0
  5 35  1  0
  7 36  1  0
 12 37  1  0
 13 38  1  0
 14 39  1  0
 16 40  1  0
 21 41  1  0
 22 42  1  0
 23 43  1  0
 25 44  1  0
 25 45  1  0
 25 46  1  0
M  END
>  <meeko>  (7) 
{"is_sidechain": [false], "free_energy": -5.228, "intermolecular_energy": -6.374, "internal_energy": -0.479}

$$$$
cand_054_out
     RDKit          3D

 46 48  0  0  0  0  0  0  0  0999 V2000
  176.4610   21.0250   49.3550 C   0  0  0  0  0  0  0  0  0  0  0  0
  177.1500   19.9530   48.5210 C   0  0  0  0  0  0  0  0  0  0  0  0
  177.4140   20.4240   47.1460 N   0  0  0  0  0  0  0  0  0  0  0  0
  176.3980   20.0250   46.1510 C   0  0  0  0  0  0  0  0  0  0  0  0
  175.5540   18.8800   46.6930 C   0  0  0  0  0  0  0  0  0  0  0  0
  178.7120   20.0930   46.6760 C   0  0  0  0  0  0  0  0  0  0  0  0
  178.9340   19.0180   45.7940 C   0  0  0  0  0  0  0  0  0  0  0  0
  180.2170   18.7090   45.3180 C   0  0  0  0  0  0  0  0  0  0  0  0
  180.4540   17.5630   44.4130 C   0  0  0  0  0  0  0  0  0  0  0  0
  180.7440   17.9560   43.1110 O   0  0  0  0  0  0  0  0  0  0  0  0
  180.9860   16.9930   42.1650 C   0  0  0  0  0  0  0  0  0  0  0  0
  181.2870   17.4330   40.8760 C   0  0  0  0  0  0  0  0  0  0  0  0
  181.5430   16.5030   39.8660 C   0  0  0  0  0  0  0  0  0  0  0  0
  181.4940   15.1350   40.1450 C   0  0  0  0  0  0  0  0  0  0  0  0
  181.1920   14.7000   41.4320 C   0  0  0  0  0  0  0  0  0  0  0  0
  181.1620   13.3470   41.6360 O   0  0  0  0  0  0  0  0  0  0  0  0
  180.9380   15.6310   42.4430 C   0  0  0  0  0  0  0  0  0  0  0  0
  180.6180   15.2160   43.8090 C   0  0  0  0  0  0  0  0  0  0  0  0
  180.5500   14.0310   44.1310 O   0  0  0  0  0  0  0  0  0  0  0  0
  180.3730   16.2800   44.8090 C   0  0  0  0  0  0  0  0  0  0  0  0
  180.0580   15.8760   46.0940 O   0  0  0  0  0  0  0  0  0  0  0  0
  181.2960   19.4900   45.7470 C   0  0  0  0  0  0  0  0  0  0  0  0
  181.0940   20.5680   46.6130 C   0  0  0  0  0  0  0  0  0  0  0  0
  179.8100   20.8820   47.0770 C   0  0  0  0  0  0  0  0  0  0  0  0
  179.6210   22.0530   48.0030 C   0  0  0  0  0  0  0  0  0  0  0  0
  176.6022   20.8053   50.4236 H   0  0  0  0  0  0  0  0  0  0  0  0
  176.8971   22.0076   49.1219 H   0  0  0  0  0  0  0  0  0  0  0  0
  175.3860   21.0364   49.1219 H   0  0  0  0  0  0  0  0  0  0  0  0
  178.1052   19.6881   48.9978 H   0  0  0  0  0  0  0  0  0  0  0  0
  176.4849   19.0786   48.4648 H   0  0  0  0  0  0  0  0  0  0  0  0
  175.7471   20.8842   45.9315 H   0  0  0  0  0  0  0  0  0  0  0  0
  176.9050   19.6942   45.2326 H   0  0  0  0  0  0  0  0  0  0  0  0
  175.5698   18.9014   47.7927 H   0  0  0  0  0  0  0  0  0  0  0  0
  174.5182   18.9885   46.3390 H   0  0  0  0  0  0  0  0  0  0  0  0
  175.9641   17.9227   46.3390 H   0  0  0  0  0  0  0  0  0  0  0  0
  178.0799   18.4051   45.4701 H   0  0  0  0  0  0  0  0  0  0  0  0
  181.3227   18.5101   40.6555 H   0  0  0  0  0  0  0  0  0  0  0  0
  181.7835   16.8481   38.8496 H   0  0  0  0  0  0  0  0  0  0  0  0
  181.6938   14.4029   39.3487 H   0  0  0  0  0  0  0  0  0  0  0  0
  181.5780   12.7710   41.0240 H   0  0  0  0  0  0  0  0  0  0  0  0
  179.1760   15.6470   46.3100 H   0  0  0  0  0  0  0  0  0  0  0  0
  182.3124   19.2532   45.3994 H   0  0  0  0  0  0  0  0  0  0  0  0
  181.9524   21.1765   46.9338 H   0  0  0  0  0  0  0  0  0  0  0  0
  179.6766   21.7083   49.0461 H   0  0  0  0  0  0  0  0  0  0  0  0
  180.4108   22.7965   47.8199 H   0  0  0  0  0  0  0  0  0  0  0  0
  178.6374   22.5102   47.8199 H   0  0  0  0  0  0  0  0  0  0  0  0
  1  2  1  0
  2  3  1  0
  3  4  1  0
  4  5  1  0
  3  6  1  0
  6  7  2  0
  7  8  1  0
  8  9  1  0
  9 10  1  0
 10 11  1  0
 11 12  2  0
 12 13  1  0
 13 14  2  0
 14 15  1  0
 15 16  1  0
 15 17  2  0
 17 18  1  0
 18 19  2  0
 18 20  1  0
 20 21  1  0
  8 22  2  0
 22 23  1  0
 23 24  2  0
 24 25  1  0
 24  6  1  0
 20  9  2  0
 17 11  1  0
  1 26  1  0
  1 27  1  0
  1 28  1  0
  2 29  1  0
  2 30  1  0
  4 31  1  0
  4 32  1  0
  5 33  1  0
  5 34  1  0
  5 35  1  0
  7 36  1  0
 12 37  1  0
 13 38  1  0
 14 39  1  0
 16 40  1  0
 21 41  1  0
 22 42  1  0
 23 43  1  0
 25 44  1  0
 25 45  1  0
 25 46  1  0
M  END
>  <meeko>  (8) 
{"is_sidechain": [false], "free_energy": -5.157, "intermolecular_energy": -6.366, "internal_energy": -0.395}

$$$$
cand_054_out
     RDKit          3D

 46 48  0  0  0  0  0  0  0  0999 V2000
  178.5490   24.1520   48.6170 C   0  0  0  0  0  0  0  0  0  0  0  0
  178.6010   23.4710   47.2570 C   0  0  0  0  0  0  0  0  0  0  0  0
  178.7510   22.0070   47.3900 N   0  0  0  0  0  0  0  0  0  0  0  0
  178.5800   21.4910   48.7640 C   0  0  0  0  0  0  0  0  0  0  0  0
  177.1240   21.1180   49.0070 C   0  0  0  0  0  0  0  0  0  0  0  0
  179.9570   21.5100   46.8290 C   0  0  0  0  0  0  0  0  0  0  0  0
  181.1420   22.2710   46.8150 C   0  0  0  0  0  0  0  0  0  0  0  0
  182.3350   21.7660   46.2780 C   0  0  0  0  0  0  0  0  0  0  0  0
  183.5720   22.5750   46.2400 C   0  0  0  0  0  0  0  0  0  0  0  0
  183.8240   23.2310   47.4400 O   0  0  0  0  0  0  0  0  0  0  0  0
  184.9420   24.0180   47.5440 C   0  0  0  0  0  0  0  0  0  0  0  0
  185.1640   24.6450   48.7700 C   0  0  0  0  0  0  0  0  0  0  0  0
  186.2840   25.4620   48.9420 C   0  0  0  0  0  0  0  0  0  0  0  0
  187.1810   25.6520   47.8870 C   0  0  0  0  0  0  0  0  0  0  0  0
  186.9560   25.0250   46.6650 C   0  0  0  0  0  0  0  0  0  0  0  0
  187.8730   25.2550   45.6760 O   0  0  0  0  0  0  0  0  0  0  0  0
  185.8360   24.2070   46.4940 C   0  0  0  0  0  0  0  0  0  0  0  0
  185.5630   23.5300   45.2260 C   0  0  0  0  0  0  0  0  0  0  0  0
  186.3010   23.6530   44.2490 O   0  0  0  0  0  0  0  0  0  0  0  0
  184.3540   22.6790   45.1500 C   0  0  0  0  0  0  0  0  0  0  0  0
  184.1000   22.0540   43.9420 O   0  0  0  0  0  0  0  0  0  0  0  0
  182.3300   20.4770   45.7340 C   0  0  0  0  0  0  0  0  0  0  0  0
  181.1680   19.7020   45.7480 C   0  0  0  0  0  0  0  0  0  0  0  0
  179.9810   20.2040   46.2980 C   0  0  0  0  0  0  0  0  0  0  0  0
  178.7450   19.3460   46.3060 C   0  0  0  0  0  0  0  0  0  0  0  0
  178.6070   23.3920   49.4101 H   0  0  0  0  0  0  0  0  0  0  0  0
  179.3967   24.8465   48.7120 H   0  0  0  0  0  0  0  0  0  0  0  0
  177.6056   24.7097   48.7120 H   0  0  0  0  0  0  0  0  0  0  0  0
  177.6695   23.6870   46.7132 H   0  0  0  0  0  0  0  0  0  0  0  0
  179.4727   23.8590   46.7097 H   0  0  0  0  0  0  0  0  0  0  0  0
  179.2109   20.6001   48.8989 H   0  0  0  0  0  0  0  0  0  0  0  0
  178.8754   22.2717   49.4804 H   0  0  0  0  0  0  0  0  0  0  0  0
  176.9337   21.0693   50.0893 H   0  0  0  0  0  0  0  0  0  0  0  0
  176.4703   21.8777   48.5536 H   0  0  0  0  0  0  0  0  0  0  0  0
  176.9161   20.1376   48.5536 H   0  0  0  0  0  0  0  0  0  0  0  0
  181.1315   23.2872   47.2359 H   0  0  0  0  0  0  0  0  0  0  0  0
  184.4581   24.4963   49.6004 H   0  0  0  0  0  0  0  0  0  0  0  0
  186.4602   25.9563   49.9087 H   0  0  0  0  0  0  0  0  0  0  0  0
  188.0627   26.2956   48.0223 H   0  0  0  0  0  0  0  0  0  0  0  0
  188.1760   26.1270   45.5090 H   0  0  0  0  0  0  0  0  0  0  0  0
  184.2360   21.1320   43.8540 H   0  0  0  0  0  0  0  0  0  0  0  0
  183.2506   20.0697   45.2907 H   0  0  0  0  0  0  0  0  0  0  0  0
  181.1849   18.6875   45.3231 H   0  0  0  0  0  0  0  0  0  0  0  0
  178.4483   19.1401   47.3450 H   0  0  0  0  0  0  0  0  0  0  0  0
  177.9294   19.8731   45.7894 H   0  0  0  0  0  0  0  0  0  0  0  0
  178.9537   18.3975   45.7894 H   0  0  0  0  0  0  0  0  0  0  0  0
  1  2  1  0
  2  3  1  0
  3  4  1  0
  4  5  1  0
  3  6  1  0
  6  7  2  0
  7  8  1  0
  8  9  1  0
  9 10  1  0
 10 11  1  0
 11 12  2  0
 12 13  1  0
 13 14  2  0
 14 15  1  0
 15 16  1  0
 15 17  2  0
 17 18  1  0
 18 19  2  0
 18 20  1  0
 20 21  1  0
  8 22  2  0
 22 23  1  0
 23 24  2  0
 24 25  1  0
 24  6  1  0
 20  9  2  0
 17 11  1  0
  1 26  1  0
  1 27  1  0
  1 28  1  0
  2 29  1  0
  2 30  1  0
  4 31  1  0
  4 32  1  0
  5 33  1  0
  5 34  1  0
  5 35  1  0
  7 36  1  0
 12 37  1  0
 13 38  1  0
 14 39  1  0
 16 40  1  0
 21 41  1  0
 22 42  1  0
 23 43  1  0
 25 44  1  0
 25 45  1  0
 25 46  1  0
M  END
>  <meeko>  (9) 
{"is_sidechain": [false], "free_energy": -4.879, "intermolecular_energy": -6.345, "internal_energy": -0.056}

$$$$
