cand_049_out
     RDKit          3D

 47 49  0  0  0  0  0  0  0  0999 V2000
  180.7400   14.1910   45.2500 C   0  0  0  0  0  0  0  0  0  0  0  0
  179.5820   15.1770   45.1790 C   0  0  0  0  0  0  0  0  0  0  0  0
  180.0650   16.6010   45.0100 C   0  0  0  0  0  0  0  0  0  0  0  0
  179.4680   17.5980   45.8090 C   0  0  0  0  0  0  0  0  0  0  0  0
  179.8760   18.9380   45.7530 C   0  0  0  0  0  0  0  0  0  0  0  0
  179.1960   19.9510   46.5890 C   0  0  0  0  0  0  0  0  0  0  0  0
  177.8240   19.7480   46.6750 O   0  0  0  0  0  0  0  0  0  0  0  0
  177.0690   20.6160   47.4210 C   0  0  0  0  0  0  0  0  0  0  0  0
  175.6950   20.3830   47.4670 C   0  0  0  0  0  0  0  0  0  0  0  0
  174.8680   21.2290   48.2100 C   0  0  0  0  0  0  0  0  0  0  0  0
  175.4170   22.3070   48.9070 C   0  0  0  0  0  0  0  0  0  0  0  0
  176.7900   22.5380   48.8600 C   0  0  0  0  0  0  0  0  0  0  0  0
  177.2610   23.6100   49.5660 O   0  0  0  0  0  0  0  0  0  0  0  0
  177.6150   21.6910   48.1150 C   0  0  0  0  0  0  0  0  0  0  0  0
  179.0630   21.8980   48.0380 C   0  0  0  0  0  0  0  0  0  0  0  0
  179.6200   22.8200   48.6300 O   0  0  0  0  0  0  0  0  0  0  0  0
  179.8470   20.9490   47.2160 C   0  0  0  0  0  0  0  0  0  0  0  0
  181.2160   21.1460   47.1620 O   0  0  0  0  0  0  0  0  0  0  0  0
  180.9010   19.2810   44.8680 C   0  0  0  0  0  0  0  0  0  0  0  0
  181.5090   18.3060   44.0730 C   0  0  0  0  0  0  0  0  0  0  0  0
  181.1050   16.9620   44.1300 C   0  0  0  0  0  0  0  0  0  0  0  0
  181.8050   15.9650   43.2290 C   0  0  0  0  0  0  0  0  0  0  0  0
  181.0000   15.5870   41.9680 C   0  0  0  0  0  0  0  0  0  0  0  0
  181.1670   16.6110   40.8440 C   0  0  0  0  0  0  0  0  0  0  0  0
  181.4360   14.2050   41.4720 C   0  0  0  0  0  0  0  0  0  0  0  0
  180.9821   13.9849   46.3031 H   0  0  0  0  0  0  0  0  0  0  0  0
  180.4550   13.2540   44.7491 H   0  0  0  0  0  0  0  0  0  0  0  0
  181.6196   14.6217   44.7491 H   0  0  0  0  0  0  0  0  0  0  0  0
  178.9427   14.9141   44.3234 H   0  0  0  0  0  0  0  0  0  0  0  0
  179.0229   15.1159   46.1243 H   0  0  0  0  0  0  0  0  0  0  0  0
  178.6576   17.3156   46.4971 H   0  0  0  0  0  0  0  0  0  0  0  0
  175.2624   19.5333   46.9184 H   0  0  0  0  0  0  0  0  0  0  0  0
  173.7840   21.0458   48.2459 H   0  0  0  0  0  0  0  0  0  0  0  0
  174.7662   22.9731   49.4925 H   0  0  0  0  0  0  0  0  0  0  0  0
  177.3540   23.5540   50.4970 H   0  0  0  0  0  0  0  0  0  0  0  0
  181.7980   20.4590   47.4220 H   0  0  0  0  0  0  0  0  0  0  0  0
  181.2322   20.3275   44.7964 H   0  0  0  0  0  0  0  0  0  0  0  0
  182.3200   18.5967   43.3891 H   0  0  0  0  0  0  0  0  0  0  0  0
  182.7635   16.4003   42.9101 H   0  0  0  0  0  0  0  0  0  0  0  0
  181.9331   15.0422   43.8138 H   0  0  0  0  0  0  0  0  0  0  0  0
  179.9364   15.5729   42.2485 H   0  0  0  0  0  0  0  0  0  0  0  0
  181.3297   17.6086   41.2780 H   0  0  0  0  0  0  0  0  0  0  0  0
  182.0321   16.3358   40.2229 H   0  0  0  0  0  0  0  0  0  0  0  0
  180.2593   16.6250   40.2229 H   0  0  0  0  0  0  0  0  0  0  0  0
  181.6414   13.5539   42.3345 H   0  0  0  0  0  0  0  0  0  0  0  0
  180.6333   13.7641   40.8627 H   0  0  0  0  0  0  0  0  0  0  0  0
  182.3464   14.3045   40.8627 H   0  0  0  0  0  0  0  0  0  0  0  0
  1  2  1  0
  2  3  1  0
  3  4  2  0
  4  5  1  0
  5  6  1  0
  6  7  1  0
  7  8  1  0
  8  9  2  0
  9 10  1  0
 10 11  2  0
 11 12  1  0
 12 13  1  0
 12 14  2  0
 14 15  1  0
 15 16  2  0
 15 17  1  0
 17 18  1  0
  5 19  2  0
 19 20  1  0
 20 21  2  0
 21 22  1  0
 22 23  1  0
 23 24  1  0
 23 25  1  0
 21  3  1  0
 17  6  2  0
 14  8  1  0
  1 26  1  0
  1 27  1  0
  1 28  1  0
  2 29  1  0
  2 30  1  0
  4 31  1  0
  9 32  1  0
 10 33  1  0
 11 34  1  0
 13 35  1  0
 18 36  1  0
 19 37  1  0
 20 38  1  0
 22 39  1  0
 22 40  1  0
 23 41  1  0
 24 42  1  0
 24 43  1  0
 24 44  1  0
 25 45  1  0
 25 46  1  0
 25 47  1  0
M  END
>  <meeko>  (1) 
{"is_sidechain": [false], "free_energy": -8.503, "intermolecular_energy": -10.988, "internal_energy": 0.116}

$$$$
cand_049_out
     RDKit          3D

 47 49  0  0  0  0  0  0  0  0999 V2000
  175.0460   19.0090   46.9580 C   0  0  0  0  0  0  0  0  0  0  0  0
  175.5700   20.3470   47.4620 C   0  0  0  0  0  0  0  0  0  0  0  0
  177.0800   20.3610   47.5540 C   0  0  0  0  0  0  0  0  0  0  0  0
  177.8000   19.5030   46.6970 C   0  0  0  0  0  0  0  0  0  0  0  0
  179.2020   19.4740   46.6790 C   0  0  0  0  0  0  0  0  0  0  0  0
  179.9090   18.5340   45.7830 C   0  0  0  0  0  0  0  0  0  0  0  0
  179.3340   17.2680   45.7670 O   0  0  0  0  0  0  0  0  0  0  0  0
  179.8910   16.2970   44.9770 C   0  0  0  0  0  0  0  0  0  0  0  0
  179.2910   15.0370   45.0020 C   0  0  0  0  0  0  0  0  0  0  0  0
  179.8070   14.0030   44.2190 C   0  0  0  0  0  0  0  0  0  0  0  0
  180.9230   14.2280   43.4090 C   0  0  0  0  0  0  0  0  0  0  0  0
  181.5200   15.4850   43.3850 C   0  0  0  0  0  0  0  0  0  0  0  0
  182.6080   15.6370   42.5700 O   0  0  0  0  0  0  0  0  0  0  0  0
  181.0030   16.5200   44.1700 C   0  0  0  0  0  0  0  0  0  0  0  0
  181.6000   17.8570   44.1740 C   0  0  0  0  0  0  0  0  0  0  0  0
  182.5780   18.1340   43.4830 O   0  0  0  0  0  0  0  0  0  0  0  0
  180.9810   18.8810   45.0470 C   0  0  0  0  0  0  0  0  0  0  0  0
  181.5460   20.1430   45.0320 O   0  0  0  0  0  0  0  0  0  0  0  0
  179.8910   20.3220   47.5500 C   0  0  0  0  0  0  0  0  0  0  0  0
  179.1960   21.1830   48.4020 C   0  0  0  0  0  0  0  0  0  0  0  0
  177.7910   21.2170   48.4190 C   0  0  0  0  0  0  0  0  0  0  0  0
  177.1090   22.1700   49.3790 C   0  0  0  0  0  0  0  0  0  0  0  0
  177.0590   23.6300   48.8820 C   0  0  0  0  0  0  0  0  0  0  0  0
  177.5490   23.7690   47.4390 C   0  0  0  0  0  0  0  0  0  0  0  0
  175.6280   24.1640   48.9920 C   0  0  0  0  0  0  0  0  0  0  0  0
  174.7947   18.3672   47.8153 H   0  0  0  0  0  0  0  0  0  0  0  0
  174.1461   19.1742   46.3473 H   0  0  0  0  0  0  0  0  0  0  0  0
  175.8187   18.5191   46.3473 H   0  0  0  0  0  0  0  0  0  0  0  0
  175.2482   21.1389   46.7697 H   0  0  0  0  0  0  0  0  0  0  0  0
  175.1647   20.5146   48.4708 H   0  0  0  0  0  0  0  0  0  0  0  0
  177.2446   18.8357   46.0216 H   0  0  0  0  0  0  0  0  0  0  0  0
  178.4118   14.8589   45.6386 H   0  0  0  0  0  0  0  0  0  0  0  0
  179.3345   13.0099   44.2397 H   0  0  0  0  0  0  0  0  0  0  0  0
  181.3290   13.4132   42.7915 H   0  0  0  0  0  0  0  0  0  0  0  0
  183.4290   15.9100   42.9310 H   0  0  0  0  0  0  0  0  0  0  0  0
  182.3000   20.3130   44.5030 H   0  0  0  0  0  0  0  0  0  0  0  0
  180.9909   20.3113   47.5647 H   0  0  0  0  0  0  0  0  0  0  0  0
  179.7594   21.8479   49.0732 H   0  0  0  0  0  0  0  0  0  0  0  0
  176.0773   21.8226   49.5372 H   0  0  0  0  0  0  0  0  0  0  0  0
  177.7023   22.1685   50.3053 H   0  0  0  0  0  0  0  0  0  0  0  0
  177.7349   24.2185   49.5198 H   0  0  0  0  0  0  0  0  0  0  0  0
  178.6072   24.0692   47.4384 H   0  0  0  0  0  0  0  0  0  0  0  0
  177.4411   22.8048   46.9206 H   0  0  0  0  0  0  0  0  0  0  0  0
  176.9509   24.5329   46.9206 H   0  0  0  0  0  0  0  0  0  0  0  0
  175.3552   24.2658   50.0528 H   0  0  0  0  0  0  0  0  0  0  0  0
  175.5645   25.1464   48.5011 H   0  0  0  0  0  0  0  0  0  0  0  0
  174.9365   23.4634   48.5011 H   0  0  0  0  0  0  0  0  0  0  0  0
  1  2  1  0
  2  3  1  0
  3  4  2  0
  4  5  1  0
  5  6  1  0
  6  7  1  0
  7  8  1  0
  8  9  2  0
  9 10  1  0
 10 11  2  0
 11 12  1  0
 12 13  1  0
 12 14  2  0
 14 15  1  0
 15 16  2  0
 15 17  1  0
 17 18  1  0
  5 19  2  0
 19 20  1  0
 20 21  2  0
 21 22  1  0
 22 23  1  0
 23 24  1  0
 23 25  1  0
 21  3  1  0
 17  6  2  0
 14  8  1  0
  1 26  1  0
  1 27  1  0
  1 28  1  0
  2 29  1  0
  2 30  1  0
  4 31  1  0
  9 32  1  0
 10 33  1  0
 11 34  1  0
 13 35  1  0
 18 36  1  0
 19 37  1  0
 20 38  1  0
 22 39  1  0
 22 40  1  0
 23 41  1  0
 24 42  1  0
 24 43  1  0
 24 44  1  0
 25 45  1  0
 25 46  1  0
 25 47  1  0
M  END
>  <meeko>  (2) 
{"is_sidechain": [false], "free_energy": -7.581, "intermolecular_energy": -9.265, "internal_energy": -0.416}

$$$$
cand_049_out
     RDKit          3D

 47 49  0  0  0  0  0  0  0  0999 V2000
  178.9350   14.3900   44.3540 C   0  0  0  0  0  0  0  0  0  0  0  0
  179.8630   15.0540   45.3620 C   0  0  0  0  0  0  0  0  0  0  0  0
  179.9910   16.5410   45.1140 C   0  0  0  0  0  0  0  0  0  0  0  0
  179.1350   17.4030   45.8310 C   0  0  0  0  0  0  0  0  0  0  0  0
  179.2060   18.7980   45.6990 C   0  0  0  0  0  0  0  0  0  0  0  0
  178.2650   19.6570   46.4510 C   0  0  0  0  0  0  0  0  0  0  0  0
  178.8490   20.8390   46.8920 O   0  0  0  0  0  0  0  0  0  0  0  0
  178.0880   21.7300   47.6040 C   0  0  0  0  0  0  0  0  0  0  0  0
  178.7180   22.8960   48.0390 C   0  0  0  0  0  0  0  0  0  0  0  0
  177.9990   23.8470   48.7670 C   0  0  0  0  0  0  0  0  0  0  0  0
  176.6510   23.6310   49.0600 C   0  0  0  0  0  0  0  0  0  0  0  0
  176.0240   22.4670   48.6250 C   0  0  0  0  0  0  0  0  0  0  0  0
  174.7030   22.3200   48.9450 O   0  0  0  0  0  0  0  0  0  0  0  0
  176.7440   21.5160   47.8960 C   0  0  0  0  0  0  0  0  0  0  0  0
  176.1240   20.2780   47.4200 C   0  0  0  0  0  0  0  0  0  0  0  0
  174.9410   20.0200   47.6310 O   0  0  0  0  0  0  0  0  0  0  0  0
  176.9760   19.3320   46.6630 C   0  0  0  0  0  0  0  0  0  0  0  0
  176.3760   18.1730   46.2060 O   0  0  0  0  0  0  0  0  0  0  0  0
  180.1510   19.3320   44.8210 C   0  0  0  0  0  0  0  0  0  0  0  0
  181.0110   18.4950   44.1070 C   0  0  0  0  0  0  0  0  0  0  0  0
  180.9460   17.0970   44.2390 C   0  0  0  0  0  0  0  0  0  0  0  0
  181.9040   16.2550   43.4220 C   0  0  0  0  0  0  0  0  0  0  0  0
  181.2680   15.6200   42.1690 C   0  0  0  0  0  0  0  0  0  0  0  0
  181.3330   16.5460   40.9520 C   0  0  0  0  0  0  0  0  0  0  0  0
  181.9730   14.2990   41.8460 C   0  0  0  0  0  0  0  0  0  0  0  0
  178.1531   13.8306   44.8885 H   0  0  0  0  0  0  0  0  0  0  0  0
  178.4681   15.1603   43.7226 H   0  0  0  0  0  0  0  0  0  0  0  0
  179.5133   13.6994   43.7226 H   0  0  0  0  0  0  0  0  0  0  0  0
  179.4617   14.8951   46.3738 H   0  0  0  0  0  0  0  0  0  0  0  0
  180.8607   14.6029   45.2568 H   0  0  0  0  0  0  0  0  0  0  0  0
  178.3899   16.9687   46.5137 H   0  0  0  0  0  0  0  0  0  0  0  0
  179.7801   23.0665   47.8090 H   0  0  0  0  0  0  0  0  0  0  0  0
  178.4952   24.7669   49.1098 H   0  0  0  0  0  0  0  0  0  0  0  0
  176.0853   24.3798   49.6339 H   0  0  0  0  0  0  0  0  0  0  0  0
  174.1860   21.6690   48.5120 H   0  0  0  0  0  0  0  0  0  0  0  0
  176.6460   17.3410   46.5430 H   0  0  0  0  0  0  0  0  0  0  0  0
  180.2188   20.4221   44.6905 H   0  0  0  0  0  0  0  0  0  0  0  0
  181.7540   18.9384   43.4278 H   0  0  0  0  0  0  0  0  0  0  0  0
  182.7387   16.8949   43.0998 H   0  0  0  0  0  0  0  0  0  0  0  0
  182.2305   15.4267   44.0680 H   0  0  0  0  0  0  0  0  0  0  0  0
  180.2061   15.4408   42.3934 H   0  0  0  0  0  0  0  0  0  0  0  0
  181.4063   17.5904   41.2894 H   0  0  0  0  0  0  0  0  0  0  0  0
  182.2156   16.2937   40.3460 H   0  0  0  0  0  0  0  0  0  0  0  0
  180.4238   16.4194   40.3460 H   0  0  0  0  0  0  0  0  0  0  0  0
  182.2447   13.7899   42.7825 H   0  0  0  0  0  0  0  0  0  0  0  0
  181.2979   13.6564   41.2618 H   0  0  0  0  0  0  0  0  0  0  0  0
  182.8826   14.5021   41.2618 H   0  0  0  0  0  0  0  0  0  0  0  0
  1  2  1  0
  2  3  1  0
  3  4  2  0
  4  5  1  0
  5  6  1  0
  6  7  1  0
  7  8  1  0
  8  9  2  0
  9 10  1  0
 10 11  2  0
 11 12  1  0
 12 13  1  0
 12 14  2  0
 14 15  1  0
 15 16  2  0
 15 17  1  0
 17 18  1  0
  5 19  2  0
 19 20  1  0
 20 21  2  0
 21 22  1  0
 22 23  1  0
 23 24  1  0
 23 25  1  0
 21  3  1  0
 17  6  2  0
 14  8  1  0
  1 26  1  0
  1 27  1  0
  1 28  1  0
  2 29  1  0
  2 30  1  0
  4 31  1  0
  9 32  1  0
 10 33  1  0
 11 34  1  0
 13 35  1  0
 18 36  1  0
 19 37  1  0
 20 38  1  0
 22 39  1  0
 22 40  1  0
 23 41  1  0
 24 42  1  0
 24 43  1  0
 24 44  1  0
 25 45  1  0
 25 46  1  0
 25 47  1  0
M  END
>  <meeko>  (3) 
{"is_sidechain": [false], "free_energy": -7.495, "intermolecular_energy": -9.143, "internal_energy": -0.427}

$$$$
cand_049_out
     RDKit          3D

 47 49  0  0  0  0  0  0  0  0999 V2000
  183.3620   21.6170   45.1810 C   0  0  0  0  0  0  0  0  0  0  0  0
  183.0570   20.2200   44.6580 C   0  0  0  0  0  0  0  0  0  0  0  0
  181.7100   19.7220   45.1340 C   0  0  0  0  0  0  0  0  0  0  0  0
  180.9340   20.5870   45.9340 C   0  0  0  0  0  0  0  0  0  0  0  0
  179.6560   20.2320   46.3890 C   0  0  0  0  0  0  0  0  0  0  0  0
  178.8950   21.1630   47.2500 C   0  0  0  0  0  0  0  0  0  0  0  0
  177.5230   20.9480   47.1960 O   0  0  0  0  0  0  0  0  0  0  0  0
  176.6970   21.7430   47.9480 C   0  0  0  0  0  0  0  0  0  0  0  0
  175.3260   21.5020   47.8530 C   0  0  0  0  0  0  0  0  0  0  0  0
  174.4290   22.2750   48.5940 C   0  0  0  0  0  0  0  0  0  0  0  0
  174.9030   23.2880   49.4300 C   0  0  0  0  0  0  0  0  0  0  0  0
  176.2710   23.5270   49.5230 C   0  0  0  0  0  0  0  0  0  0  0  0
  176.6670   24.5330   50.3610 O   0  0  0  0  0  0  0  0  0  0  0  0
  177.1680   22.7530   48.7810 C   0  0  0  0  0  0  0  0  0  0  0  0
  178.6140   22.9710   48.8500 C   0  0  0  0  0  0  0  0  0  0  0  0
  179.1080   23.8380   49.5680 O   0  0  0  0  0  0  0  0  0  0  0  0
  179.4780   22.1020   48.0180 C   0  0  0  0  0  0  0  0  0  0  0  0
  180.8440   22.3080   48.1020 O   0  0  0  0  0  0  0  0  0  0  0  0
  179.1550   18.9760   46.0390 C   0  0  0  0  0  0  0  0  0  0  0  0
  179.9070   18.1070   45.2440 C   0  0  0  0  0  0  0  0  0  0  0  0
  181.1860   18.4620   44.7820 C   0  0  0  0  0  0  0  0  0  0  0  0
  181.9440   17.4620   43.9330 C   0  0  0  0  0  0  0  0  0  0  0  0
  181.0460   16.4070   43.2560 C   0  0  0  0  0  0  0  0  0  0  0  0
  180.9310   16.6230   41.7460 C   0  0  0  0  0  0  0  0  0  0  0  0
  181.5980   15.0060   43.5330 C   0  0  0  0  0  0  0  0  0  0  0  0
  183.3595   21.6054   46.2809 H   0  0  0  0  0  0  0  0  0  0  0  0
  184.3509   21.9359   44.8200 H   0  0  0  0  0  0  0  0  0  0  0  0
  182.5960   22.3190   44.8200 H   0  0  0  0  0  0  0  0  0  0  0  0
  183.0593   20.2434   43.5583 H   0  0  0  0  0  0  0  0  0  0  0  0
  183.8286   19.5361   45.0412 H   0  0  0  0  0  0  0  0  0  0  0  0
  181.3440   21.5699   46.2092 H   0  0  0  0  0  0  0  0  0  0  0  0
  174.9518   20.7038   47.1950 H   0  0  0  0  0  0  0  0  0  0  0  0
  173.3481   22.0855   48.5189 H   0  0  0  0  0  0  0  0  0  0  0  0
  174.1965   23.8961   50.0140 H   0  0  0  0  0  0  0  0  0  0  0  0
  177.4790   24.4640   50.8250 H   0  0  0  0  0  0  0  0  0  0  0  0
  181.4330   21.5860   48.0010 H   0  0  0  0  0  0  0  0  0  0  0  0
  178.1598   18.6682   46.3923 H   0  0  0  0  0  0  0  0  0  0  0  0
  179.4896   17.1256   44.9744 H   0  0  0  0  0  0  0  0  0  0  0  0
  182.4830   18.0127   43.1480 H   0  0  0  0  0  0  0  0  0  0  0  0
  182.6204   16.9182   44.6089 H   0  0  0  0  0  0  0  0  0  0  0  0
  180.0375   16.5112   43.6827 H   0  0  0  0  0  0  0  0  0  0  0  0
  180.4223   17.5784   41.5500 H   0  0  0  0  0  0  0  0  0  0  0  0
  181.9368   16.6451   41.3011 H   0  0  0  0  0  0  0  0  0  0  0  0
  180.3512   15.8009   41.3011 H   0  0  0  0  0  0  0  0  0  0  0  0
  181.6614   14.8451   44.6193 H   0  0  0  0  0  0  0  0  0  0  0  0
  180.9290   14.2540   43.0893 H   0  0  0  0  0  0  0  0  0  0  0  0
  182.6002   14.9124   43.0893 H   0  0  0  0  0  0  0  0  0  0  0  0
  1  2  1  0
  2  3  1  0
  3  4  2  0
  4  5  1  0
  5  6  1  0
  6  7  1  0
  7  8  1  0
  8  9  2  0
  9 10  1  0
 10 11  2  0
 11 12  1  0
 12 13  1  0
 12 14  2  0
 14 15  1  0
 15 16  2  0
 15 17  1  0
 17 18  1  0
  5 19  2  0
 19 20  1  0
 20 21  2  0
 21 22  1  0
 22 23  1  0
 23 24  1  0
 23 25  1  0
 21  3  1  0
 17  6  2  0
 14  8  1  0
  1 26  1  0
  1 27  1  0
  1 28  1  0
  2 29  1  0
  2 30  1  0
  4 31  1  0
  9 32  1  0
 10 33  1  0
 11 34  1  0
 13 35  1  0
 18 36  1  0
 19 37  1  0
 20 38  1  0
 22 39  1  0
 22 40  1  0
 23 41  1  0
 24 42  1  0
 24 43  1  0
 24 44  1  0
 25 45  1  0
 25 46  1  0
 25 47  1  0
M  END
>  <meeko>  (4) 
{"is_sidechain": [false], "free_energy": -6.962, "intermolecular_energy": -8.604, "internal_energy": -0.277}

$$$$
cand_049_out
     RDKit          3D

 47 49  0  0  0  0  0  0  0  0999 V2000
  182.5210   21.5180   46.2230 C   0  0  0  0  0  0  0  0  0  0  0  0
  181.5800   21.1790   47.3710 C   0  0  0  0  0  0  0  0  0  0  0  0
  180.4390   20.2930   46.9210 C   0  0  0  0  0  0  0  0  0  0  0  0
  180.7370   19.2350   46.0370 C   0  0  0  0  0  0  0  0  0  0  0  0
  179.7540   18.3370   45.5950 C   0  0  0  0  0  0  0  0  0  0  0  0
  180.1120   17.2620   44.6440 C   0  0  0  0  0  0  0  0  0  0  0  0
  180.4850   17.7480   43.3960 O   0  0  0  0  0  0  0  0  0  0  0  0
  180.8420   16.8580   42.4170 C   0  0  0  0  0  0  0  0  0  0  0  0
  181.1950   17.3880   41.1760 C   0  0  0  0  0  0  0  0  0  0  0  0
  181.5720   16.5360   40.1350 C   0  0  0  0  0  0  0  0  0  0  0  0
  181.5960   15.1550   40.3360 C   0  0  0  0  0  0  0  0  0  0  0  0
  181.2430   14.6270   41.5750 C   0  0  0  0  0  0  0  0  0  0  0  0
  181.2890   13.2670   41.7040 O   0  0  0  0  0  0  0  0  0  0  0  0
  180.8660   15.4810   42.6160 C   0  0  0  0  0  0  0  0  0  0  0  0
  180.4880   14.9680   43.9340 C   0  0  0  0  0  0  0  0  0  0  0  0
  180.4910   13.7660   44.1900 O   0  0  0  0  0  0  0  0  0  0  0  0
  180.0970   15.9560   44.9670 C   0  0  0  0  0  0  0  0  0  0  0  0
  179.7560   15.4600   46.2120 O   0  0  0  0  0  0  0  0  0  0  0  0
  178.4450   18.5140   46.0480 C   0  0  0  0  0  0  0  0  0  0  0  0
  178.1320   19.5530   46.9280 C   0  0  0  0  0  0  0  0  0  0  0  0
  179.1140   20.4520   47.3750 C   0  0  0  0  0  0  0  0  0  0  0  0
  178.6950   21.5590   48.3210 C   0  0  0  0  0  0  0  0  0  0  0  0
  177.7440   22.5960   47.6890 C   0  0  0  0  0  0  0  0  0  0  0  0
  176.5790   22.9560   48.6150 C   0  0  0  0  0  0  0  0  0  0  0  0
  178.5260   23.8630   47.3320 C   0  0  0  0  0  0  0  0  0  0  0  0
  183.4833   21.8647   46.6278 H   0  0  0  0  0  0  0  0  0  0  0  0
  182.6842   20.6221   45.6059 H   0  0  0  0  0  0  0  0  0  0  0  0
  182.0754   22.3121   45.6059 H   0  0  0  0  0  0  0  0  0  0  0  0
  182.1484   20.6566   48.1546 H   0  0  0  0  0  0  0  0  0  0  0  0
  181.1530   22.1187   47.7513 H   0  0  0  0  0  0  0  0  0  0  0  0
  181.7712   19.1103   45.6836 H   0  0  0  0  0  0  0  0  0  0  0  0
  181.1766   18.4763   41.0171 H   0  0  0  0  0  0  0  0  0  0  0  0
  181.8502   16.9538   39.1562 H   0  0  0  0  0  0  0  0  0  0  0  0
  181.8935   14.4844   39.5163 H   0  0  0  0  0  0  0  0  0  0  0  0
  182.0680   12.8520   42.0190 H   0  0  0  0  0  0  0  0  0  0  0  0
  179.3330   16.0160   46.8380 H   0  0  0  0  0  0  0  0  0  0  0  0
  177.6535   17.8295   45.7090 H   0  0  0  0  0  0  0  0  0  0  0  0
  177.0956   19.6692   47.2778 H   0  0  0  0  0  0  0  0  0  0  0  0
  178.1865   21.1033   49.1834 H   0  0  0  0  0  0  0  0  0  0  0  0
  179.6104   22.0981   48.6063 H   0  0  0  0  0  0  0  0  0  0  0  0
  177.3185   22.1427   46.7816 H   0  0  0  0  0  0  0  0  0  0  0  0
  176.8993   22.8570   49.6627 H   0  0  0  0  0  0  0  0  0  0  0  0
  176.2655   23.9929   48.4238 H   0  0  0  0  0  0  0  0  0  0  0  0
  175.7352   22.2767   48.4238 H   0  0  0  0  0  0  0  0  0  0  0  0
  178.8403   24.3722   48.2550 H   0  0  0  0  0  0  0  0  0  0  0  0
  179.4141   23.5918   46.7423 H   0  0  0  0  0  0  0  0  0  0  0  0
  177.8855   24.5353   46.7423 H   0  0  0  0  0  0  0  0  0  0  0  0
  1  2  1  0
  2  3  1  0
  3  4  2  0
  4  5  1  0
  5  6  1  0
  6  7  1  0
  7  8  1  0
  8  9  2  0
  9 10  1  0
 10 11  2  0
 11 12  1  0
 12 13  1  0
 12 14  2  0
 14 15  1  0
 15 16  2  0
 15 17  1  0
 17 18  1  0
  5 19  2  0
 19 20  1  0
 20 21  2  0
 21 22  1  0
 22 23  1  0
 23 24  1  0
 23 25  1  0
 21  3  1  0
 17  6  2  0
 14  8  1  0
  1 26  1  0
  1 27  1  0
  1 28  1  0
  2 29  1  0
  2 30  1  0
  4 31  1  0
  9 32  1  0
 10 33  1  0
 11 34  1  0
 13 35  1  0
 18 36  1  0
 19 37  1  0
 20 38  1  0
 22 39  1  0
 22 40  1  0
 23 41  1  0
 24 42  1  0
 24 43  1  0
 24 44  1  0
 25 45  1  0
 25 46  1  0
 25 47  1  0
M  END
>  <meeko>  (5) 
{"is_sidechain": [false], "free_energy": -6.434, "intermolecular_energy": -7.319, "internal_energy": -0.879}

$$$$
cand_049_out
     RDKit          3D

 47 49  0  0  0  0  0  0  0  0999 V2000
  182.5280   20.9320   45.5650 C   0  0  0  0  0  0  0  0  0  0  0  0
  182.3540   19.6780   44.7180 C   0  0  0  0  0  0  0  0  0  0  0  0
  181.0860   18.9320   45.0710 C   0  0  0  0  0  0  0  0  0  0  0  0
  180.0750   19.6400   45.7520 C   0  0  0  0  0  0  0  0  0  0  0  0
  178.8480   19.0460   46.0860 C   0  0  0  0  0  0  0  0  0  0  0  0
  177.8310   19.8230   46.8270 C   0  0  0  0  0  0  0  0  0  0  0  0
  178.3010   21.0610   47.2510 O   0  0  0  0  0  0  0  0  0  0  0  0
  177.4590   21.8860   47.9520 C   0  0  0  0  0  0  0  0  0  0  0  0
  177.9760   23.1120   48.3690 C   0  0  0  0  0  0  0  0  0  0  0  0
  177.1700   24.0010   49.0860 C   0  0  0  0  0  0  0  0  0  0  0  0
  175.8490   23.6620   49.3840 C   0  0  0  0  0  0  0  0  0  0  0  0
  175.3350   22.4370   48.9660 C   0  0  0  0  0  0  0  0  0  0  0  0
  174.0340   22.1700   49.2910 O   0  0  0  0  0  0  0  0  0  0  0  0
  176.1420   21.5490   48.2500 C   0  0  0  0  0  0  0  0  0  0  0  0
  175.6420   20.2510   47.7920 C   0  0  0  0  0  0  0  0  0  0  0  0
  174.4890   19.8850   48.0090 O   0  0  0  0  0  0  0  0  0  0  0  0
  176.5790   19.3800   47.0460 C   0  0  0  0  0  0  0  0  0  0  0  0
  176.0910   18.1630   46.6070 O   0  0  0  0  0  0  0  0  0  0  0  0
  178.6430   17.7110   45.7330 C   0  0  0  0  0  0  0  0  0  0  0  0
  179.6310   16.9950   45.0530 C   0  0  0  0  0  0  0  0  0  0  0  0
  180.8590   17.5880   44.7140 C   0  0  0  0  0  0  0  0  0  0  0  0
  181.8860   16.7440   43.9860 C   0  0  0  0  0  0  0  0  0  0  0  0
  181.2960   15.8800   42.8530 C   0  0  0  0  0  0  0  0  0  0  0  0
  180.9000   16.7130   41.6320 C   0  0  0  0  0  0  0  0  0  0  0  0
  182.3110   14.8110   42.4370 C   0  0  0  0  0  0  0  0  0  0  0  0
  182.4906   20.6626   46.6309 H   0  0  0  0  0  0  0  0  0  0  0  0
  183.4991   21.3960   45.3379 H   0  0  0  0  0  0  0  0  0  0  0  0
  181.7199   21.6429   45.3379 H   0  0  0  0  0  0  0  0  0  0  0  0
  182.3131   19.9676   43.6576 H   0  0  0  0  0  0  0  0  0  0  0  0
  183.2076   19.0124   44.9138 H   0  0  0  0  0  0  0  0  0  0  0  0
  180.2530   20.6893   46.0299 H   0  0  0  0  0  0  0  0  0  0  0  0
  179.0168   23.3793   48.1340 H   0  0  0  0  0  0  0  0  0  0  0  0
  177.5769   24.9683   49.4156 H   0  0  0  0  0  0  0  0  0  0  0  0
  175.2148   24.3616   49.9483 H   0  0  0  0  0  0  0  0  0  0  0  0
  173.6740   21.3210   49.1230 H   0  0  0  0  0  0  0  0  0  0  0  0
  176.4550   17.3650   46.9390 H   0  0  0  0  0  0  0  0  0  0  0  0
  177.6945   17.2183   45.9928 H   0  0  0  0  0  0  0  0  0  0  0  0
  179.4441   15.9466   44.7775 H   0  0  0  0  0  0  0  0  0  0  0  0
  182.6411   17.4157   43.5518 H   0  0  0  0  0  0  0  0  0  0  0  0
  182.3123   16.0512   44.7265 H   0  0  0  0  0  0  0  0  0  0  0  0
  180.3821   15.4074   43.2421 H   0  0  0  0  0  0  0  0  0  0  0  0
  180.4498   17.6600   41.9645 H   0  0  0  0  0  0  0  0  0  0  0  0
  181.7939   16.9245   41.0269 H   0  0  0  0  0  0  0  0  0  0  0  0
  180.1716   16.1533   41.0269 H   0  0  0  0  0  0  0  0  0  0  0  0
  182.7479   14.3508   43.3355 H   0  0  0  0  0  0  0  0  0  0  0  0
  181.8057   14.0388   41.8384 H   0  0  0  0  0  0  0  0  0  0  0  0
  183.1083   15.2756   41.8384 H   0  0  0  0  0  0  0  0  0  0  0  0
  1  2  1  0
  2  3  1  0
  3  4  2  0
  4  5  1  0
  5  6  1  0
  6  7  1  0
  7  8  1  0
  8  9  2  0
  9 10  1  0
 10 11  2  0
 11 12  1  0
 12 13  1  0
 12 14  2  0
 14 15  1  0
 15 16  2  0
 15 17  1  0
 17 18  1  0
  5 19  2  0
 19 20  1  0
 20 21  2  0
 21 22  1  0
 22 23  1  0
 23 24  1  0
 23 25  1  0
 21  3  1  0
 17  6  2  0
 14  8  1  0
  1 26  1  0
  1 27  1  0
  1 28  1  0
  2 29  1  0
  2 30  1  0
  4 31  1  0
  9 32  1  0
 10 33  1  0
 11 34  1  0
 13 35  1  0
 18 36  1  0
 19 37  1  0
 20 38  1  0
 22 39  1  0
 22 40  1  0
 23 41  1  0
 24 42  1  0
 24 43  1  0
 24 44  1  0
 25 45  1  0
 25 46  1  0
 25 47  1  0
M  END
>  <meeko>  (6) 
{"is_sidechain": [false], "free_energy": -6.199, "intermolecular_energy": -7.622, "internal_energy": -0.274}

$$$$
cand_049_out
     RDKit          3D

 47 49  0  0  0  0  0  0  0  0999 V2000
  175.9260   19.0190   47.9750 C   0  0  0  0  0  0  0  0  0  0  0  0
  176.5210   19.9480   46.9260 C   0  0  0  0  0  0  0  0  0  0  0  0
  178.0030   19.7080   46.7370 C   0  0  0  0  0  0  0  0  0  0  0  0
  178.3960   18.6960   45.8380 C   0  0  0  0  0  0  0  0  0  0  0  0
  179.7450   18.4260   45.5660 C   0  0  0  0  0  0  0  0  0  0  0  0
  180.1060   17.3330   44.6380 C   0  0  0  0  0  0  0  0  0  0  0  0
  180.4940   17.7950   43.3850 O   0  0  0  0  0  0  0  0  0  0  0  0
  180.8550   16.8860   42.4250 C   0  0  0  0  0  0  0  0  0  0  0  0
  181.2240   17.3930   41.1780 C   0  0  0  0  0  0  0  0  0  0  0  0
  181.6050   16.5210   40.1560 C   0  0  0  0  0  0  0  0  0  0  0  0
  181.6180   15.1430   40.3810 C   0  0  0  0  0  0  0  0  0  0  0  0
  181.2510   14.6390   41.6260 C   0  0  0  0  0  0  0  0  0  0  0  0
  181.2870   13.2800   41.7780 O   0  0  0  0  0  0  0  0  0  0  0  0
  180.8690   15.5120   42.6480 C   0  0  0  0  0  0  0  0  0  0  0  0
  180.4740   15.0250   43.9710 C   0  0  0  0  0  0  0  0  0  0  0  0
  180.4680   13.8270   44.2470 O   0  0  0  0  0  0  0  0  0  0  0  0
  180.0800   16.0320   44.9820 C   0  0  0  0  0  0  0  0  0  0  0  0
  179.7230   15.5610   46.2330 O   0  0  0  0  0  0  0  0  0  0  0  0
  180.7170   19.1860   46.2220 C   0  0  0  0  0  0  0  0  0  0  0  0
  180.3460   20.1970   47.1120 C   0  0  0  0  0  0  0  0  0  0  0  0
  178.9950   20.4730   47.3830 C   0  0  0  0  0  0  0  0  0  0  0  0
  178.6730   21.5780   48.3690 C   0  0  0  0  0  0  0  0  0  0  0  0
  177.7470   22.6720   47.8010 C   0  0  0  0  0  0  0  0  0  0  0  0
  176.6970   23.1300   48.8170 C   0  0  0  0  0  0  0  0  0  0  0  0
  178.5830   23.8740   47.3520 C   0  0  0  0  0  0  0  0  0  0  0  0
  176.1681   19.3970   48.9792 H   0  0  0  0  0  0  0  0  0  0  0  0
  174.8336   18.9787   47.8519 H   0  0  0  0  0  0  0  0  0  0  0  0
  176.3463   18.0099   47.8519 H   0  0  0  0  0  0  0  0  0  0  0  0
  176.0079   19.7779   45.9680 H   0  0  0  0  0  0  0  0  0  0  0  0
  176.3840   20.9838   47.2701 H   0  0  0  0  0  0  0  0  0  0  0  0
  177.6208   18.0998   45.3344 H   0  0  0  0  0  0  0  0  0  0  0  0
  181.2147   18.4785   41.0005 H   0  0  0  0  0  0  0  0  0  0  0  0
  181.8951   16.9200   39.1728 H   0  0  0  0  0  0  0  0  0  0  0  0
  181.9178   14.4564   39.5756 H   0  0  0  0  0  0  0  0  0  0  0  0
  182.0100   12.8770   42.2170 H   0  0  0  0  0  0  0  0  0  0  0  0
  180.3840   15.2670   46.8290 H   0  0  0  0  0  0  0  0  0  0  0  0
  181.7827   18.9867   46.0362 H   0  0  0  0  0  0  0  0  0  0  0  0
  181.1274   20.7891   47.6108 H   0  0  0  0  0  0  0  0  0  0  0  0
  178.1816   21.1286   49.2445 H   0  0  0  0  0  0  0  0  0  0  0  0
  179.6253   22.0663   48.6234 H   0  0  0  0  0  0  0  0  0  0  0  0
  177.2122   22.2375   46.9436 H   0  0  0  0  0  0  0  0  0  0  0  0
  177.0763   22.9645   49.8362 H   0  0  0  0  0  0  0  0  0  0  0  0
  176.4893   24.2005   48.6724 H   0  0  0  0  0  0  0  0  0  0  0  0
  175.7711   22.5540   48.6724 H   0  0  0  0  0  0  0  0  0  0  0  0
  178.9568   24.4114   48.2360 H   0  0  0  0  0  0  0  0  0  0  0  0
  179.4337   23.5242   46.7487 H   0  0  0  0  0  0  0  0  0  0  0  0
  177.9590   24.5498   46.7487 H   0  0  0  0  0  0  0  0  0  0  0  0
  1  2  1  0
  2  3  1  0
  3  4  2  0
  4  5  1  0
  5  6  1  0
  6  7  1  0
  7  8  1  0
  8  9  2  0
  9 10  1  0
 10 11  2  0
 11 12  1  0
 12 13  1  0
 12 14  2  0
 14 15  1  0
 15 16  2  0
 15 17  1  0
 17 18  1  0
  5 19  2  0
 19 20  1  0
 20 21  2  0
 21 22  1  0
 22 23  1  0
 23 24  1  0
 23 25  1  0
 21  3  1  0
 17  6  2  0
 14  8  1  0
  1 26  1  0
  1 27  1  0
  1 28  1  0
  2 29  1  0
  2 30  1  0
  4 31  1  0
  9 32  1  0
 10 33  1  0
 11 34  1  0
 13 35  1  0
 18 36  1  0
 19 37  1  0
 20 38  1  0
 22 39  1  0
 22 40  1  0
 23 41  1  0
 24 42  1  0
 24 43  1  0
 24 44  1  0
 25 45  1  0
 25 46  1  0
 25 47  1  0
M  END
>  <meeko>  (7) 
{"is_sidechain": [false], "free_energy": -6.136, "intermolecular_energy": -7.194, "internal_energy": -0.62}

$$$$
cand_049_out
     RDKit          3D

 47 49  0  0  0  0  0  0  0  0999 V2000
  178.1540   23.8890   47.4460 C   0  0  0  0  0  0  0  0  0  0  0  0
  178.6680   22.7450   48.3110 C   0  0  0  0  0  0  0  0  0  0  0  0
  179.5690   21.8130   47.5330 C   0  0  0  0  0  0  0  0  0  0  0  0
  180.8350   22.2960   47.1410 C   0  0  0  0  0  0  0  0  0  0  0  0
  181.7570   21.4940   46.4530 C   0  0  0  0  0  0  0  0  0  0  0  0
  183.0600   22.0580   46.0380 C   0  0  0  0  0  0  0  0  0  0  0  0
  183.4630   23.1250   46.8330 O   0  0  0  0  0  0  0  0  0  0  0  0
  184.6560   23.7420   46.5590 C   0  0  0  0  0  0  0  0  0  0  0  0
  185.0150   24.8170   47.3730 C   0  0  0  0  0  0  0  0  0  0  0  0
  186.2190   25.4900   47.1490 C   0  0  0  0  0  0  0  0  0  0  0  0
  187.0630   25.0870   46.1120 C   0  0  0  0  0  0  0  0  0  0  0  0
  186.7030   24.0140   45.3010 C   0  0  0  0  0  0  0  0  0  0  0  0
  187.5750   23.6710   44.3060 O   0  0  0  0  0  0  0  0  0  0  0  0
  185.4980   23.3420   45.5260 C   0  0  0  0  0  0  0  0  0  0  0  0
  185.0810   22.2090   44.6970 C   0  0  0  0  0  0  0  0  0  0  0  0
  185.7730   21.7910   43.7710 O   0  0  0  0  0  0  0  0  0  0  0  0
  183.7830   21.5700   45.0130 C   0  0  0  0  0  0  0  0  0  0  0  0
  183.4060   20.4930   44.2320 O   0  0  0  0  0  0  0  0  0  0  0  0
  181.3900   20.1820   46.1450 C   0  0  0  0  0  0  0  0  0  0  0  0
  180.1430   19.6830   46.5290 C   0  0  0  0  0  0  0  0  0  0  0  0
  179.2190   20.4830   47.2220 C   0  0  0  0  0  0  0  0  0  0  0  0
  177.8820   19.8750   47.5950 C   0  0  0  0  0  0  0  0  0  0  0  0
  176.8480   19.8860   46.4510 C   0  0  0  0  0  0  0  0  0  0  0  0
  176.1180   18.5490   46.3150 C   0  0  0  0  0  0  0  0  0  0  0  0
  175.8300   21.0050   46.6870 C   0  0  0  0  0  0  0  0  0  0  0  0
  177.7890   24.7014   48.0915 H   0  0  0  0  0  0  0  0  0  0  0  0
  178.9702   24.2639   46.8110 H   0  0  0  0  0  0  0  0  0  0  0  0
  177.3317   23.5277   46.8110 H   0  0  0  0  0  0  0  0  0  0  0  0
  179.2340   23.1642   49.1560 H   0  0  0  0  0  0  0  0  0  0  0  0
  177.8010   22.1669   48.6634 H   0  0  0  0  0  0  0  0  0  0  0  0
  181.1075   23.3340   47.3825 H   0  0  0  0  0  0  0  0  0  0  0  0
  184.3508   25.1344   48.1904 H   0  0  0  0  0  0  0  0  0  0  0  0
  186.5022   26.3379   47.7900 H   0  0  0  0  0  0  0  0  0  0  0  0
  188.0110   25.6165   45.9361 H   0  0  0  0  0  0  0  0  0  0  0  0
  187.7160   22.7690   44.0950 H   0  0  0  0  0  0  0  0  0  0  0  0
  183.8330   20.3360   43.4120 H   0  0  0  0  0  0  0  0  0  0  0  0
  182.0895   19.5355   45.5948 H   0  0  0  0  0  0  0  0  0  0  0  0
  179.8794   18.6435   46.2841 H   0  0  0  0  0  0  0  0  0  0  0  0
  178.0494   18.8315   47.9001 H   0  0  0  0  0  0  0  0  0  0  0  0
  177.4667   20.4915   48.4058 H   0  0  0  0  0  0  0  0  0  0  0  0
  177.3960   20.0608   45.5134 H   0  0  0  0  0  0  0  0  0  0  0  0
  175.8988   18.1475   47.3154 H   0  0  0  0  0  0  0  0  0  0  0  0
  175.1768   18.6993   45.7659 H   0  0  0  0  0  0  0  0  0  0  0  0
  176.7534   17.8385   45.7659 H   0  0  0  0  0  0  0  0  0  0  0  0
  175.6938   21.1547   47.7682 H   0  0  0  0  0  0  0  0  0  0  0  0
  176.1968   21.9365   46.2312 H   0  0  0  0  0  0  0  0  0  0  0  0
  174.8681   20.7277   46.2312 H   0  0  0  0  0  0  0  0  0  0  0  0
  1  2  1  0
  2  3  1  0
  3  4  2  0
  4  5  1  0
  5  6  1  0
  6  7  1  0
  7  8  1  0
  8  9  2  0
  9 10  1  0
 10 11  2  0
 11 12  1  0
 12 13  1  0
 12 14  2  0
 14 15  1  0
 15 16  2  0
 15 17  1  0
 17 18  1  0
  5 19  2  0
 19 20  1  0
 20 21  2  0
 21 22  1  0
 22 23  1  0
 23 24  1  0
 23 25  1  0
 21  3  1  0
 17  6  2  0
 14  8  1  0
  1 26  1  0
  1 27  1  0
  1 28  1  0
  2 29  1  0
  2 30  1  0
  4 31  1  0
  9 32  1  0
 10 33  1  0
 11 34  1  0
 13 35  1  0
 18 36  1  0
 19 37  1  0
 20 38  1  0
 22 39  1  0
 22 40  1  0
 23 41  1  0
 24 42  1  0
 24 43  1  0
 24 44  1  0
 25 45  1  0
 25 46  1  0
 25 47  1  0
M  END
>  <meeko>  (8) 
{"is_sidechain": [false], "free_energy": -6.117, "intermolecular_energy": -7.279, "internal_energy": -0.51}

$$$$
cand_049_out
     RDKit          3D

 47 49  0  0  0  0  0  0  0  0999 V2000
  181.2090   17.8690   44.0170 C   0  0  0  0  0  0  0  0  0  0  0  0
  180.3200   17.9340   45.2510 C   0  0  0  0  0  0  0  0  0  0  0  0
  180.3180   19.3140   45.8710 C   0  0  0  0  0  0  0  0  0  0  0  0
  181.5160   20.0570   45.8260 C   0  0  0  0  0  0  0  0  0  0  0  0
  181.6010   21.3600   46.3370 C   0  0  0  0  0  0  0  0  0  0  0  0
  182.8890   22.0870   46.2930 C   0  0  0  0  0  0  0  0  0  0  0  0
  183.4940   22.0360   45.0420 O   0  0  0  0  0  0  0  0  0  0  0  0
  184.6970   22.6690   44.8610 C   0  0  0  0  0  0  0  0  0  0  0  0
  185.2750   22.5800   43.5940 C   0  0  0  0  0  0  0  0  0  0  0  0
  186.4990   23.2040   43.3410 C   0  0  0  0  0  0  0  0  0  0  0  0
  187.1430   23.9180   44.3540 C   0  0  0  0  0  0  0  0  0  0  0  0
  186.5640   24.0050   45.6180 C   0  0  0  0  0  0  0  0  0  0  0  0
  187.2470   24.7190   46.5630 O   0  0  0  0  0  0  0  0  0  0  0  0
  185.3400   23.3800   45.8700 C   0  0  0  0  0  0  0  0  0  0  0  0
  184.6960   23.4460   47.1830 C   0  0  0  0  0  0  0  0  0  0  0  0
  185.1970   24.0610   48.1230 O   0  0  0  0  0  0  0  0  0  0  0  0
  183.4030   22.7430   47.3490 C   0  0  0  0  0  0  0  0  0  0  0  0
  182.7980   22.8250   48.5910 O   0  0  0  0  0  0  0  0  0  0  0  0
  180.4590   21.9210   46.9130 C   0  0  0  0  0  0  0  0  0  0  0  0
  179.2620   21.2020   46.9620 C   0  0  0  0  0  0  0  0  0  0  0  0
  179.1720   19.8980   46.4470 C   0  0  0  0  0  0  0  0  0  0  0  0
  177.8420   19.1780   46.5460 C   0  0  0  0  0  0  0  0  0  0  0  0
  176.7750   19.9430   47.3560 C   0  0  0  0  0  0  0  0  0  0  0  0
  175.9100   20.8440   46.4720 C   0  0  0  0  0  0  0  0  0  0  0  0
  175.8830   18.9470   48.1030 C   0  0  0  0  0  0  0  0  0  0  0  0
  182.2616   17.7920   44.3270 H   0  0  0  0  0  0  0  0  0  0  0  0
  180.9384   16.9882   43.4161 H   0  0  0  0  0  0  0  0  0  0  0  0
  181.0694   18.7797   43.4161 H   0  0  0  0  0  0  0  0  0  0  0  0
  179.2913   17.6718   44.9628 H   0  0  0  0  0  0  0  0  0  0  0  0
  180.7154   17.2262   45.9944 H   0  0  0  0  0  0  0  0  0  0  0  0
  182.4103   19.6007   45.3766 H   0  0  0  0  0  0  0  0  0  0  0  0
  184.7674   22.0191   42.7954 H   0  0  0  0  0  0  0  0  0  0  0  0
  186.9560   23.1329   42.3430 H   0  0  0  0  0  0  0  0  0  0  0  0
  188.1059   24.4108   44.1540 H   0  0  0  0  0  0  0  0  0  0  0  0
  186.8440   25.4590   46.9730 H   0  0  0  0  0  0  0  0  0  0  0  0
  182.9680   22.1690   49.2380 H   0  0  0  0  0  0  0  0  0  0  0  0
  180.5023   22.9373   47.3315 H   0  0  0  0  0  0  0  0  0  0  0  0
  178.3724   21.6662   47.4128 H   0  0  0  0  0  0  0  0  0  0  0  0
  177.4568   19.0208   45.5277 H   0  0  0  0  0  0  0  0  0  0  0  0
  178.0294   18.2334   47.0776 H   0  0  0  0  0  0  0  0  0  0  0  0
  177.3047   20.5904   48.0704 H   0  0  0  0  0  0  0  0  0  0  0  0
  175.2878   21.4921   47.1067 H   0  0  0  0  0  0  0  0  0  0  0  0
  176.5581   21.4658   45.8369 H   0  0  0  0  0  0  0  0  0  0  0  0
  175.2623   20.2218   45.8369 H   0  0  0  0  0  0  0  0  0  0  0  0
  176.0069   19.0854   49.1872 H   0  0  0  0  0  0  0  0  0  0  0  0
  174.8317   19.1193   47.8292 H   0  0  0  0  0  0  0  0  0  0  0  0
  176.1698   17.9210   47.8292 H   0  0  0  0  0  0  0  0  0  0  0  0
  1  2  1  0
  2  3  1  0
  3  4  2  0
  4  5  1  0
  5  6  1  0
  6  7  1  0
  7  8  1  0
  8  9  2  0
  9 10  1  0
 10 11  2  0
 11 12  1  0
 12 13  1  0
 12 14  2  0
 14 15  1  0
 15 16  2  0
 15 17  1  0
 17 18  1  0
  5 19  2  0
 19 20  1  0
 20 21  2  0
 21 22  1  0
 22 23  1  0
 23 24  1  0
 23 25  1  0
 21  3  1  0
 17  6  2  0
 14  8  1  0
  1 26  1  0
  1 27  1  0
  1 28  1  0
  2 29  1  0
  2 30  1  0
  4 31  1  0
  9 32  1  0
 10 33  1  0
 11 34  1  0
 13 35  1  0
 18 36  1  0
 19 37  1  0
 20 38  1  0
 22 39  1  0
 22 40  1  0
 23 41  1  0
 24 42  1  0
 24 43  1  0
 24 44  1  0
 25 45  1  0
 25 46  1  0
 25 47  1  0
M  END
>  <meeko>  (9) 
{"is_sidechain": [false], "free_energy": -6.01, "intermolecular_energy": -7.235, "internal_energy": -0.417}

$$$$
