cand_002_out
     RDKit          3D

 45 48  0  0  0  0  0  0  0  0999 V2000
  180.0060   15.5810   45.1840 C   0  0  0  0  0  0  0  0  0  0  0  0
  180.0660   17.0830   45.1950 C   0  0  0  0  0  0  0  0  0  0  0  0
  179.0620   17.7910   45.8830 C   0  0  0  0  0  0  0  0  0  0  0  0
  179.0420   19.1940   45.9260 C   0  0  0  0  0  0  0  0  0  0  0  0
  177.9540   19.8930   46.6420 C   0  0  0  0  0  0  0  0  0  0  0  0
  178.3500   21.1210   47.1590 O   0  0  0  0  0  0  0  0  0  0  0  0
  177.4370   21.8770   47.8490 C   0  0  0  0  0  0  0  0  0  0  0  0
  177.8810   23.0960   48.3620 C   0  0  0  0  0  0  0  0  0  0  0  0
  177.0020   23.9150   49.0730 C   0  0  0  0  0  0  0  0  0  0  0  0
  175.6790   23.5160   49.2700 C   0  0  0  0  0  0  0  0  0  0  0  0
  175.2380   22.2990   48.7570 C   0  0  0  0  0  0  0  0  0  0  0  0
  173.9290   21.9700   48.9870 O   0  0  0  0  0  0  0  0  0  0  0  0
  176.1180   21.4790   48.0470 C   0  0  0  0  0  0  0  0  0  0  0  0
  175.6950   20.1940   47.4910 C   0  0  0  0  0  0  0  0  0  0  0  0
  174.5460   19.7760   47.6170 O   0  0  0  0  0  0  0  0  0  0  0  0
  176.7080   19.3960   46.7600 C   0  0  0  0  0  0  0  0  0  0  0  0
  176.2940   18.1890   46.2270 O   0  0  0  0  0  0  0  0  0  0  0  0
  180.0420   19.8920   45.2440 C   0  0  0  0  0  0  0  0  0  0  0  0
  181.0390   19.2070   44.5470 C   0  0  0  0  0  0  0  0  0  0  0  0
  181.0660   17.8010   44.5080 C   0  0  0  0  0  0  0  0  0  0  0  0
  182.1720   17.1200   43.7220 C   0  0  0  0  0  0  0  0  0  0  0  0
  181.7090   16.2770   42.5530 C   0  0  0  0  0  0  0  0  0  0  0  0
  180.9080   16.8450   41.5510 C   0  0  0  0  0  0  0  0  0  0  0  0
  180.4530   16.0740   40.4800 C   0  0  0  0  0  0  0  0  0  0  0  0
  180.7850   14.7230   40.4020 C   0  0  0  0  0  0  0  0  0  0  0  0
  181.5680   14.1420   41.3980 C   0  0  0  0  0  0  0  0  0  0  0  0
  182.0240   14.9130   42.4690 C   0  0  0  0  0  0  0  0  0  0  0  0
  179.9911   15.2071   46.2184 H   0  0  0  0  0  0  0  0  0  0  0  0
  179.0941   15.2543   44.6628 H   0  0  0  0  0  0  0  0  0  0  0  0
  180.8889   15.1826   44.6628 H   0  0  0  0  0  0  0  0  0  0  0  0
  178.2711   17.2290   46.4013 H   0  0  0  0  0  0  0  0  0  0  0  0
  178.9232   23.4117   48.2063 H   0  0  0  0  0  0  0  0  0  0  0  0
  177.3523   24.8757   49.4784 H   0  0  0  0  0  0  0  0  0  0  0  0
  174.9861   24.1617   49.8294 H   0  0  0  0  0  0  0  0  0  0  0  0
  173.2440   22.5200   48.6630 H   0  0  0  0  0  0  0  0  0  0  0  0
  176.8350   17.7410   45.6070 H   0  0  0  0  0  0  0  0  0  0  0  0
  180.0437   20.9919   45.2564 H   0  0  0  0  0  0  0  0  0  0  0  0
  181.8175   19.7770   44.0188 H   0  0  0  0  0  0  0  0  0  0  0  0
  182.8432   17.9002   43.3338 H   0  0  0  0  0  0  0  0  0  0  0  0
  182.6611   16.4270   44.4224 H   0  0  0  0  0  0  0  0  0  0  0  0
  180.6357   17.9091   41.6100 H   0  0  0  0  0  0  0  0  0  0  0  0
  179.8318   16.5333   39.6970 H   0  0  0  0  0  0  0  0  0  0  0  0
  180.4299   14.1162   39.5560 H   0  0  0  0  0  0  0  0  0  0  0  0
  181.8271   13.0745   41.3402 H   0  0  0  0  0  0  0  0  0  0  0  0
  182.6363   14.4460   43.2545 H   0  0  0  0  0  0  0  0  0  0  0  0
  1  2  1  0
  2  3  2  0
  3  4  1  0
  4  5  1  0
  5  6  1  0
  6  7  1  0
  7  8  2  0
  8  9  1  0
  9 10  2  0
 10 11  1  0
 11 12  1  0
 11 13  2  0
 13 14  1  0
 14 15  2  0
 14 16  1  0
 16 17  1  0
  4 18  2  0
 18 19  1  0
 19 20  2  0
 20 21  1  0
 21 22  1  0
 22 23  2  0
 23 24  1  0
 24 25  2  0
 25 26  1  0
 26 27  2  0
 20  2  1  0
 27 22  1  0
 16  5  2  0
 13  7  1  0
  1 28  1  0
  1 29  1  0
  1 30  1  0
  3 31  1  0
  8 32  1  0
  9 33  1  0
 10 34  1  0
 12 35  1  0
 17 36  1  0
 18 37  1  0
 19 38  1  0
 21 39  1  0
 21 40  1  0
 23 41  1  0
 24 42  1  0
 25 43  1  0
 26 44  1  0
 27 45  1  0
M  END
>  <meeko>  (1) 
{"is_sidechain": [false], "free_energy": -8.388, "intermolecular_energy": -10.349, "internal_energy": -0.207}

$$$$
cand_002_out
     RDKit          3D

 45 48  0  0  0  0  0  0  0  0999 V2000
  179.9690   16.3120   45.0790 C   0  0  0  0  0  0  0  0  0  0  0  0
  180.4380   17.7330   45.2280 C   0  0  0  0  0  0  0  0  0  0  0  0
  179.6750   18.6150   46.0170 C   0  0  0  0  0  0  0  0  0  0  0  0
  180.0390   19.9580   46.1900 C   0  0  0  0  0  0  0  0  0  0  0  0
  179.1940   20.8520   47.0100 C   0  0  0  0  0  0  0  0  0  0  0  0
  177.8490   20.5020   46.9780 O   0  0  0  0  0  0  0  0  0  0  0  0
  176.9510   21.2490   47.6970 C   0  0  0  0  0  0  0  0  0  0  0  0
  175.6100   20.8700   47.6240 C   0  0  0  0  0  0  0  0  0  0  0  0
  174.6440   21.5870   48.3330 C   0  0  0  0  0  0  0  0  0  0  0  0
  175.0190   22.6820   49.1150 C   0  0  0  0  0  0  0  0  0  0  0  0
  176.3580   23.0570   49.1860 C   0  0  0  0  0  0  0  0  0  0  0  0
  176.6550   24.1380   49.9710 O   0  0  0  0  0  0  0  0  0  0  0  0
  177.3240   22.3400   48.4750 C   0  0  0  0  0  0  0  0  0  0  0  0
  178.7410   22.7010   48.5220 C   0  0  0  0  0  0  0  0  0  0  0  0
  179.1500   23.6470   49.1930 O   0  0  0  0  0  0  0  0  0  0  0  0
  179.6840   21.8810   47.7270 C   0  0  0  0  0  0  0  0  0  0  0  0
  181.0220   22.2220   47.7900 O   0  0  0  0  0  0  0  0  0  0  0  0
  181.1830   20.4240   45.5370 C   0  0  0  0  0  0  0  0  0  0  0  0
  181.9470   19.5670   44.7400 C   0  0  0  0  0  0  0  0  0  0  0  0
  181.5870   18.2180   44.5710 C   0  0  0  0  0  0  0  0  0  0  0  0
  182.4550   17.3440   43.6820 C   0  0  0  0  0  0  0  0  0  0  0  0
  181.7030   16.5030   42.6730 C   0  0  0  0  0  0  0  0  0  0  0  0
  181.8830   15.1120   42.6430 C   0  0  0  0  0  0  0  0  0  0  0  0
  181.2170   14.3280   41.7010 C   0  0  0  0  0  0  0  0  0  0  0  0
  180.3680   14.9240   40.7710 C   0  0  0  0  0  0  0  0  0  0  0  0
  180.1900   16.3060   40.7790 C   0  0  0  0  0  0  0  0  0  0  0  0
  180.8570   17.0920   41.7220 C   0  0  0  0  0  0  0  0  0  0  0  0
  179.8224   15.8679   46.0747 H   0  0  0  0  0  0  0  0  0  0  0  0
  179.0178   16.2958   44.5267 H   0  0  0  0  0  0  0  0  0  0  0  0
  180.7236   15.7328   44.5267 H   0  0  0  0  0  0  0  0  0  0  0  0
  178.7672   18.2396   46.5119 H   0  0  0  0  0  0  0  0  0  0  0  0
  175.3142   20.0075   47.0087 H   0  0  0  0  0  0  0  0  0  0  0  0
  173.5866   21.2892   48.2756 H   0  0  0  0  0  0  0  0  0  0  0  0
  174.2581   23.2468   49.6735 H   0  0  0  0  0  0  0  0  0  0  0  0
  176.3270   24.9860   49.7440 H   0  0  0  0  0  0  0  0  0  0  0  0
  181.3210   22.8320   48.4360 H   0  0  0  0  0  0  0  0  0  0  0  0
  181.4852   21.4755   45.6513 H   0  0  0  0  0  0  0  0  0  0  0  0
  182.8451   19.9541   44.2364 H   0  0  0  0  0  0  0  0  0  0  0  0
  183.1461   17.9991   43.1313 H   0  0  0  0  0  0  0  0  0  0  0  0
  182.9621   16.6349   44.3528 H   0  0  0  0  0  0  0  0  0  0  0  0
  182.5564   14.6346   43.3700 H   0  0  0  0  0  0  0  0  0  0  0  0
  181.3623   13.2377   41.6924 H   0  0  0  0  0  0  0  0  0  0  0  0
  179.8391   14.3047   40.0316 H   0  0  0  0  0  0  0  0  0  0  0  0
  179.5238   16.7785   40.0422 H   0  0  0  0  0  0  0  0  0  0  0  0
  180.7173   18.1831   41.7186 H   0  0  0  0  0  0  0  0  0  0  0  0
  1  2  1  0
  2  3  2  0
  3  4  1  0
  4  5  1  0
  5  6  1  0
  6  7  1  0
  7  8  2  0
  8  9  1  0
  9 10  2  0
 10 11  1  0
 11 12  1  0
 11 13  2  0
 13 14  1  0
 14 15  2  0
 14 16  1  0
 16 17  1  0
  4 18  2  0
 18 19  1  0
 19 20  2  0
 20 21  1  0
 21 22  1  0
 22 23  2  0
 23 24  1  0
 24 25  2  0
 25 26  1  0
 26 27  2  0
 20  2  1  0
 27 22  1  0
 16  5  2  0
 13  7  1  0
  1 28  1  0
  1 29  1  0
  1 30  1  0
  3 31  1  0
  8 32  1  0
  9 33  1  0
 10 34  1  0
 12 35  1  0
 17 36  1  0
 18 37  1  0
 19 38  1  0
 21 39  1  0
 21 40  1  0
 23 41  1  0
 24 42  1  0
 25 43  1  0
 26 44  1  0
 27 45  1  0
M  END
>  <meeko>  (2) 
{"is_sidechain": [false], "free_energy": -8.379, "intermolecular_energy": -10.69, "internal_energy": 0.145}

$$$$
cand_002_out
     RDKit          3D

 45 48  0  0  0  0  0  0  0  0999 V2000
  180.9140   18.2660   44.5770 C   0  0  0  0  0  0  0  0  0  0  0  0
  181.0690   19.5380   45.3640 C   0  0  0  0  0  0  0  0  0  0  0  0
  182.2320   20.3090   45.1750 C   0  0  0  0  0  0  0  0  0  0  0  0
  182.4550   21.4990   45.8840 C   0  0  0  0  0  0  0  0  0  0  0  0
  183.7020   22.2630   45.6680 C   0  0  0  0  0  0  0  0  0  0  0  0
  184.2760   22.0190   44.4260 O   0  0  0  0  0  0  0  0  0  0  0  0
  185.4400   22.6640   44.0940 C   0  0  0  0  0  0  0  0  0  0  0  0
  185.9880   22.3790   42.8430 C   0  0  0  0  0  0  0  0  0  0  0  0
  187.1720   23.0030   42.4430 C   0  0  0  0  0  0  0  0  0  0  0  0
  187.8060   23.9110   43.2920 C   0  0  0  0  0  0  0  0  0  0  0  0
  187.2570   24.1940   44.5400 C   0  0  0  0  0  0  0  0  0  0  0  0
  187.9300   25.0940   45.3220 O   0  0  0  0  0  0  0  0  0  0  0  0
  186.0730   23.5690   44.9410 C   0  0  0  0  0  0  0  0  0  0  0  0
  185.4630   23.8370   46.2430 C   0  0  0  0  0  0  0  0  0  0  0  0
  185.9580   24.6290   47.0430 O   0  0  0  0  0  0  0  0  0  0  0  0
  184.2120   23.1180   46.5760 C   0  0  0  0  0  0  0  0  0  0  0  0
  183.6360   23.3890   47.8030 O   0  0  0  0  0  0  0  0  0  0  0  0
  181.4950   21.9060   46.8140 C   0  0  0  0  0  0  0  0  0  0  0  0
  180.3400   21.1480   47.0240 C   0  0  0  0  0  0  0  0  0  0  0  0
  180.1120   19.9590   46.3090 C   0  0  0  0  0  0  0  0  0  0  0  0
  178.8410   19.1770   46.5930 C   0  0  0  0  0  0  0  0  0  0  0  0
  177.6680   20.0030   47.0750 C   0  0  0  0  0  0  0  0  0  0  0  0
  177.5650   20.3540   48.4290 C   0  0  0  0  0  0  0  0  0  0  0  0
  176.4750   21.0950   48.8920 C   0  0  0  0  0  0  0  0  0  0  0  0
  175.4720   21.4860   48.0090 C   0  0  0  0  0  0  0  0  0  0  0  0
  175.5550   21.1330   46.6630 C   0  0  0  0  0  0  0  0  0  0  0  0
  176.6440   20.3930   46.1990 C   0  0  0  0  0  0  0  0  0  0  0  0
  180.8106   17.4171   45.2688 H   0  0  0  0  0  0  0  0  0  0  0  0
  180.0175   18.3339   43.9432 H   0  0  0  0  0  0  0  0  0  0  0  0
  181.8006   18.1166   43.9432 H   0  0  0  0  0  0  0  0  0  0  0  0
  182.9870   19.9687   44.4510 H   0  0  0  0  0  0  0  0  0  0  0  0
  185.4885   21.6640   42.1727 H   0  0  0  0  0  0  0  0  0  0  0  0
  187.6053   22.7783   41.4572 H   0  0  0  0  0  0  0  0  0  0  0  0
  188.7380   24.4024   42.9759 H   0  0  0  0  0  0  0  0  0  0  0  0
  188.1990   24.8540   46.1870 H   0  0  0  0  0  0  0  0  0  0  0  0
  182.7060   23.3330   47.9070 H   0  0  0  0  0  0  0  0  0  0  0  0
  181.6499   22.8324   47.3866 H   0  0  0  0  0  0  0  0  0  0  0  0
  179.5969   21.4871   47.7608 H   0  0  0  0  0  0  0  0  0  0  0  0
  178.5402   18.6685   45.6651 H   0  0  0  0  0  0  0  0  0  0  0  0
  179.0852   18.4870   47.4141 H   0  0  0  0  0  0  0  0  0  0  0  0
  178.3504   20.0427   49.1334 H   0  0  0  0  0  0  0  0  0  0  0  0
  176.4091   21.3698   49.9551 H   0  0  0  0  0  0  0  0  0  0  0  0
  174.6155   22.0725   48.3729 H   0  0  0  0  0  0  0  0  0  0  0  0
  174.7611   21.4380   45.9654 H   0  0  0  0  0  0  0  0  0  0  0  0
  176.6997   20.1131   45.1367 H   0  0  0  0  0  0  0  0  0  0  0  0
  1  2  1  0
  2  3  2  0
  3  4  1  0
  4  5  1  0
  5  6  1  0
  6  7  1  0
  7  8  2  0
  8  9  1  0
  9 10  2  0
 10 11  1  0
 11 12  1  0
 11 13  2  0
 13 14  1  0
 14 15  2  0
 14 16  1  0
 16 17  1  0
  4 18  2  0
 18 19  1  0
 19 20  2  0
 20 21  1  0
 21 22  1  0
 22 23  2  0
 23 24  1  0
 24 25  2  0
 25 26  1  0
 26 27  2  0
 20  2  1  0
 27 22  1  0
 16  5  2  0
 13  7  1  0
  1 28  1  0
  1 29  1  0
  1 30  1  0
  3 31  1  0
  8 32  1  0
  9 33  1  0
 10 34  1  0
 12 35  1  0
 17 36  1  0
 18 37  1  0
 19 38  1  0
 21 39  1  0
 21 40  1  0
 23 41  1  0
 24 42  1  0
 25 43  1  0
 26 44  1  0
 27 45  1  0
M  END
>  <meeko>  (3) 
{"is_sidechain": [false], "free_energy": -6.826, "intermolecular_energy": -8.542, "internal_energy": -0.087}

$$$$
cand_002_out
     RDKit          3D

 45 48  0  0  0  0  0  0  0  0999 V2000
  182.4100   21.4580   46.5160 C   0  0  0  0  0  0  0  0  0  0  0  0
  181.2420   20.5310   46.3250 C   0  0  0  0  0  0  0  0  0  0  0  0
  181.3890   19.4350   45.4530 C   0  0  0  0  0  0  0  0  0  0  0  0
  180.3400   18.5350   45.2110 C   0  0  0  0  0  0  0  0  0  0  0  0
  180.5350   17.4120   44.2700 C   0  0  0  0  0  0  0  0  0  0  0  0
  180.8490   17.8330   42.9830 O   0  0  0  0  0  0  0  0  0  0  0  0
  181.0570   16.8920   42.0080 C   0  0  0  0  0  0  0  0  0  0  0  0
  181.3550   17.3600   40.7280 C   0  0  0  0  0  0  0  0  0  0  0  0
  181.5790   16.4540   39.6890 C   0  0  0  0  0  0  0  0  0  0  0  0
  181.5060   15.0810   39.9300 C   0  0  0  0  0  0  0  0  0  0  0  0
  181.2080   14.6160   41.2080 C   0  0  0  0  0  0  0  0  0  0  0  0
  181.1520   13.2590   41.3750 O   0  0  0  0  0  0  0  0  0  0  0  0
  180.9820   15.5230   42.2470 C   0  0  0  0  0  0  0  0  0  0  0  0
  180.6660   15.0770   43.6050 C   0  0  0  0  0  0  0  0  0  0  0  0
  180.5900   13.8850   43.8970 O   0  0  0  0  0  0  0  0  0  0  0  0
  180.4380   16.1180   44.6330 C   0  0  0  0  0  0  0  0  0  0  0  0
  180.1530   15.6860   45.9150 O   0  0  0  0  0  0  0  0  0  0  0  0
  179.1150   18.7600   45.8450 C   0  0  0  0  0  0  0  0  0  0  0  0
  178.9470   19.8480   46.7030 C   0  0  0  0  0  0  0  0  0  0  0  0
  179.9990   20.7470   46.9530 C   0  0  0  0  0  0  0  0  0  0  0  0
  179.7460   21.9160   47.8890 C   0  0  0  0  0  0  0  0  0  0  0  0
  178.3080   22.0910   48.3300 C   0  0  0  0  0  0  0  0  0  0  0  0
  177.6140   23.2680   48.0120 C   0  0  0  0  0  0  0  0  0  0  0  0
  176.2960   23.4530   48.4340 C   0  0  0  0  0  0  0  0  0  0  0  0
  175.6590   22.4680   49.1860 C   0  0  0  0  0  0  0  0  0  0  0  0
  176.3410   21.3000   49.5200 C   0  0  0  0  0  0  0  0  0  0  0  0
  177.6590   21.1140   49.0990 C   0  0  0  0  0  0  0  0  0  0  0  0
  182.5917   21.6022   47.5913 H   0  0  0  0  0  0  0  0  0  0  0  0
  183.3048   21.0216   46.0482 H   0  0  0  0  0  0  0  0  0  0  0  0
  182.1881   22.4286   46.0482 H   0  0  0  0  0  0  0  0  0  0  0  0
  182.3535   19.2800   44.9473 H   0  0  0  0  0  0  0  0  0  0  0  0
  181.4135   18.4417   40.5372 H   0  0  0  0  0  0  0  0  0  0  0  0
  181.8132   16.8228   38.6795 H   0  0  0  0  0  0  0  0  0  0  0  0
  181.6836   14.3677   39.1116 H   0  0  0  0  0  0  0  0  0  0  0  0
  181.9370   12.7730   41.5320 H   0  0  0  0  0  0  0  0  0  0  0  0
  180.8400   15.6180   46.5490 H   0  0  0  0  0  0  0  0  0  0  0  0
  178.2749   18.0728   45.6660 H   0  0  0  0  0  0  0  0  0  0  0  0
  177.9744   20.0050   47.1923 H   0  0  0  0  0  0  0  0  0  0  0  0
  180.3623   21.7709   48.7885 H   0  0  0  0  0  0  0  0  0  0  0  0
  180.0029   22.8223   47.3209 H   0  0  0  0  0  0  0  0  0  0  0  0
  178.1130   24.0527   47.4245 H   0  0  0  0  0  0  0  0  0  0  0  0
  175.7600   24.3773   48.1725 H   0  0  0  0  0  0  0  0  0  0  0  0
  174.6194   22.6124   49.5154 H   0  0  0  0  0  0  0  0  0  0  0  0
  175.8402   20.5231   50.1164 H   0  0  0  0  0  0  0  0  0  0  0  0
  178.1935   20.1925   49.3730 H   0  0  0  0  0  0  0  0  0  0  0  0
  1  2  1  0
  2  3  2  0
  3  4  1  0
  4  5  1  0
  5  6  1  0
  6  7  1  0
  7  8  2  0
  8  9  1  0
  9 10  2  0
 10 11  1  0
 11 12  1  0
 11 13  2  0
 13 14  1  0
 14 15  2  0
 14 16  1  0
 16 17  1  0
  4 18  2  0
 18 19  1  0
 19 20  2  0
 20 21  1  0
 21 22  1  0
 22 23  2  0
 23 24  1  0
 24 25  2  0
 25 26  1  0
 26 27  2  0
 20  2  1  0
 27 22  1  0
 16  5  2  0
 13  7  1  0
  1 28  1  0
  1 29  1  0
  1 30  1  0
  3 31  1  0
  8 32  1  0
  9 33  1  0
 10 34  1  0
 12 35  1  0
 17 36  1  0
 18 37  1  0
 19 38  1  0
 21 39  1  0
 21 40  1  0
 23 41  1  0
 24 42  1  0
 25 43  1  0
 26 44  1  0
 27 45  1  0
M  END
>  <meeko>  (4) 
{"is_sidechain": [false], "free_energy": -6.793, "intermolecular_energy": -8.3, "internal_energy": -0.288}

$$$$
cand_002_out
     RDKit          3D

 45 48  0  0  0  0  0  0  0  0999 V2000
  181.1560   18.5450   44.7060 C   0  0  0  0  0  0  0  0  0  0  0  0
  181.1830   19.7860   45.5550 C   0  0  0  0  0  0  0  0  0  0  0  0
  182.3170   20.6180   45.4940 C   0  0  0  0  0  0  0  0  0  0  0  0
  182.4230   21.7840   46.2680 C   0  0  0  0  0  0  0  0  0  0  0  0
  183.6440   22.6140   46.1870 C   0  0  0  0  0  0  0  0  0  0  0  0
  183.8760   23.3470   47.3450 O   0  0  0  0  0  0  0  0  0  0  0  0
  184.9790   24.1610   47.4050 C   0  0  0  0  0  0  0  0  0  0  0  0
  185.1650   24.8880   48.5810 C   0  0  0  0  0  0  0  0  0  0  0  0
  186.2680   25.7350   48.7090 C   0  0  0  0  0  0  0  0  0  0  0  0
  187.1840   25.8540   47.6610 C   0  0  0  0  0  0  0  0  0  0  0  0
  186.9950   25.1270   46.4890 C   0  0  0  0  0  0  0  0  0  0  0  0
  187.9300   25.2910   45.5030 O   0  0  0  0  0  0  0  0  0  0  0  0
  185.8900   24.2810   46.3610 C   0  0  0  0  0  0  0  0  0  0  0  0
  185.6550   23.4990   45.1470 C   0  0  0  0  0  0  0  0  0  0  0  0
  186.4190   23.5450   44.1850 O   0  0  0  0  0  0  0  0  0  0  0  0
  184.4510   22.6370   45.1090 C   0  0  0  0  0  0  0  0  0  0  0  0
  184.2450   21.8930   43.9620 O   0  0  0  0  0  0  0  0  0  0  0  0
  181.3720   22.1030   47.1320 C   0  0  0  0  0  0  0  0  0  0  0  0
  180.2450   21.2830   47.2150 C   0  0  0  0  0  0  0  0  0  0  0  0
  180.1330   20.1180   46.4360 C   0  0  0  0  0  0  0  0  0  0  0  0
  178.8850   19.2660   46.5820 C   0  0  0  0  0  0  0  0  0  0  0  0
  177.6500   20.0040   47.0490 C   0  0  0  0  0  0  0  0  0  0  0  0
  177.4050   20.1670   48.4210 C   0  0  0  0  0  0  0  0  0  0  0  0
  176.2570   20.8240   48.8670 C   0  0  0  0  0  0  0  0  0  0  0  0
  175.3350   21.3200   47.9470 C   0  0  0  0  0  0  0  0  0  0  0  0
  175.5580   21.1530   46.5820 C   0  0  0  0  0  0  0  0  0  0  0  0
  176.7060   20.4960   46.1350 C   0  0  0  0  0  0  0  0  0  0  0  0
  181.1367   17.6571   45.3550 H   0  0  0  0  0  0  0  0  0  0  0  0
  180.2579   18.5546   44.0710 H   0  0  0  0  0  0  0  0  0  0  0  0
  182.0537   18.5156   44.0710 H   0  0  0  0  0  0  0  0  0  0  0  0
  183.1434   20.3466   44.8206 H   0  0  0  0  0  0  0  0  0  0  0  0
  184.4439   24.7942   49.4063 H   0  0  0  0  0  0  0  0  0  0  0  0
  186.4156   26.3089   49.6358 H   0  0  0  0  0  0  0  0  0  0  0  0
  188.0530   26.5209   47.7617 H   0  0  0  0  0  0  0  0  0  0  0  0
  187.7860   24.9200   44.6550 H   0  0  0  0  0  0  0  0  0  0  0  0
  183.7310   22.2440   43.2620 H   0  0  0  0  0  0  0  0  0  0  0  0
  181.4332   23.0090   47.7528 H   0  0  0  0  0  0  0  0  0  0  0  0
  179.4299   21.5534   47.9024 H   0  0  0  0  0  0  0  0  0  0  0  0
  178.6630   18.8177   45.6024 H   0  0  0  0  0  0  0  0  0  0  0  0
  179.1113   18.5261   47.3639 H   0  0  0  0  0  0  0  0  0  0  0  0
  178.1253   19.7728   49.1529 H   0  0  0  0  0  0  0  0  0  0  0  0
  176.0799   20.9504   49.9453 H   0  0  0  0  0  0  0  0  0  0  0  0
  174.4329   21.8424   48.2980 H   0  0  0  0  0  0  0  0  0  0  0  0
  174.8284   21.5394   45.8552 H   0  0  0  0  0  0  0  0  0  0  0  0
  176.8720   20.3628   45.0558 H   0  0  0  0  0  0  0  0  0  0  0  0
  1  2  1  0
  2  3  2  0
  3  4  1  0
  4  5  1  0
  5  6  1  0
  6  7  1  0
  7  8  2  0
  8  9  1  0
  9 10  2  0
 10 11  1  0
 11 12  1  0
 11 13  2  0
 13 14  1  0
 14 15  2  0
 14 16  1  0
 16 17  1  0
  4 18  2  0
 18 19  1  0
 19 20  2  0
 20 21  1  0
 21 22  1  0
 22 23  2  0
 23 24  1  0
 24 25  2  0
 25 26  1  0
 26 27  2  0
 20  2  1  0
 27 22  1  0
 16  5  2  0
 13  7  1  0
  1 28  1  0
  1 29  1  0
  1 30  1  0
  3 31  1  0
  8 32  1  0
  9 33  1  0
 10 34  1  0
 12 35  1  0
 17 36  1  0
 18 37  1  0
 19 38  1  0
 21 39  1  0
 21 40  1  0
 23 41  1  0
 24 42  1  0
 25 43  1  0
 26 44  1  0
 27 45  1  0
M  END
>  <meeko>  (5) 
{"is_sidechain": [false], "free_energy": -6.783, "intermolecular_energy": -8.455, "internal_energy": -0.121}

$$$$
cand_002_out
     RDKit          3D

 45 48  0  0  0  0  0  0  0  0999 V2000
  179.5580   21.0770   47.7560 C   0  0  0  0  0  0  0  0  0  0  0  0
  180.7560   20.9500   46.8560 C   0  0  0  0  0  0  0  0  0  0  0  0
  181.7580   21.9370   46.9270 C   0  0  0  0  0  0  0  0  0  0  0  0
  182.8970   21.8950   46.1090 C   0  0  0  0  0  0  0  0  0  0  0  0
  183.9120   22.9660   46.2040 C   0  0  0  0  0  0  0  0  0  0  0  0
  184.1520   23.3680   47.5130 O   0  0  0  0  0  0  0  0  0  0  0  0
  185.0730   24.3560   47.7470 C   0  0  0  0  0  0  0  0  0  0  0  0
  185.2720   24.7380   49.0740 C   0  0  0  0  0  0  0  0  0  0  0  0
  186.1970   25.7380   49.3810 C   0  0  0  0  0  0  0  0  0  0  0  0
  186.9230   26.3560   48.3610 C   0  0  0  0  0  0  0  0  0  0  0  0
  186.7230   25.9730   47.0370 C   0  0  0  0  0  0  0  0  0  0  0  0
  187.4680   26.6200   46.0890 O   0  0  0  0  0  0  0  0  0  0  0  0
  185.7970   24.9730   46.7310 C   0  0  0  0  0  0  0  0  0  0  0  0
  185.5560   24.5420   45.3530 C   0  0  0  0  0  0  0  0  0  0  0  0
  186.1610   25.0330   44.4020 O   0  0  0  0  0  0  0  0  0  0  0  0
  184.5480   23.4790   45.1340 C   0  0  0  0  0  0  0  0  0  0  0  0
  184.3390   23.0700   43.8300 O   0  0  0  0  0  0  0  0  0  0  0  0
  183.0140   20.8510   45.1880 C   0  0  0  0  0  0  0  0  0  0  0  0
  182.0250   19.8700   45.0950 C   0  0  0  0  0  0  0  0  0  0  0  0
  180.8860   19.9050   45.9190 C   0  0  0  0  0  0  0  0  0  0  0  0
  179.8420   18.8140   45.7580 C   0  0  0  0  0  0  0  0  0  0  0  0
  180.3150   17.5690   45.0380 C   0  0  0  0  0  0  0  0  0  0  0  0
  181.1800   17.6780   43.9400 C   0  0  0  0  0  0  0  0  0  0  0  0
  181.6040   16.5400   43.2510 C   0  0  0  0  0  0  0  0  0  0  0  0
  181.1620   15.2790   43.6470 C   0  0  0  0  0  0  0  0  0  0  0  0
  180.2910   15.1570   44.7280 C   0  0  0  0  0  0  0  0  0  0  0  0
  179.8670   16.2950   45.4180 C   0  0  0  0  0  0  0  0  0  0  0  0
  179.8831   21.0425   48.8063 H   0  0  0  0  0  0  0  0  0  0  0  0
  179.0520   22.0338   47.5600 H   0  0  0  0  0  0  0  0  0  0  0  0
  178.8626   20.2475   47.5600 H   0  0  0  0  0  0  0  0  0  0  0  0
  181.6445   22.7638   47.6437 H   0  0  0  0  0  0  0  0  0  0  0  0
  184.7004   24.2516   49.8782 H   0  0  0  0  0  0  0  0  0  0  0  0
  186.3538   26.0391   50.4273 H   0  0  0  0  0  0  0  0  0  0  0  0
  187.6516   27.1439   48.6027 H   0  0  0  0  0  0  0  0  0  0  0  0
  188.1590   27.1970   46.3490 H   0  0  0  0  0  0  0  0  0  0  0  0
  183.4650   22.9570   43.5090 H   0  0  0  0  0  0  0  0  0  0  0  0
  183.8939   20.8015   44.5297 H   0  0  0  0  0  0  0  0  0  0  0  0
  182.1387   19.0555   44.3645 H   0  0  0  0  0  0  0  0  0  0  0  0
  179.5018   18.5181   46.7613 H   0  0  0  0  0  0  0  0  0  0  0  0
  179.0458   19.2439   45.1325 H   0  0  0  0  0  0  0  0  0  0  0  0
  181.5283   18.6705   43.6180 H   0  0  0  0  0  0  0  0  0  0  0  0
  182.2875   16.6388   42.3948 H   0  0  0  0  0  0  0  0  0  0  0  0
  181.4999   14.3819   43.1075 H   0  0  0  0  0  0  0  0  0  0  0  0
  179.9368   14.1629   45.0384 H   0  0  0  0  0  0  0  0  0  0  0  0
  179.1755   16.1914   46.2671 H   0  0  0  0  0  0  0  0  0  0  0  0
  1  2  1  0
  2  3  2  0
  3  4  1  0
  4  5  1  0
  5  6  1  0
  6  7  1  0
  7  8  2  0
  8  9  1  0
  9 10  2  0
 10 11  1  0
 11 12  1  0
 11 13  2  0
 13 14  1  0
 14 15  2  0
 14 16  1  0
 16 17  1  0
  4 18  2  0
 18 19  1  0
 19 20  2  0
 20 21  1  0
 21 22  1  0
 22 23  2  0
 23 24  1  0
 24 25  2  0
 25 26  1  0
 26 27  2  0
 20  2  1  0
 27 22  1  0
 16  5  2  0
 13  7  1  0
  1 28  1  0
  1 29  1  0
  1 30  1  0
  3 31  1  0
  8 32  1  0
  9 33  1  0
 10 34  1  0
 12 35  1  0
 17 36  1  0
 18 37  1  0
 19 38  1  0
 21 39  1  0
 21 40  1  0
 23 41  1  0
 24 42  1  0
 25 43  1  0
 26 44  1  0
 27 45  1  0
M  END
>  <meeko>  (6) 
{"is_sidechain": [false], "free_energy": -5.881, "intermolecular_energy": -8.047, "internal_energy": 0.584}

$$$$
cand_002_out
     RDKit          3D

 45 48  0  0  0  0  0  0  0  0999 V2000
  185.2520   24.3270   47.4920 C   0  0  0  0  0  0  0  0  0  0  0  0
  184.5670   23.3600   46.5670 C   0  0  0  0  0  0  0  0  0  0  0  0
  183.2630   22.9340   46.8850 C   0  0  0  0  0  0  0  0  0  0  0  0
  182.5660   22.0210   46.0790 C   0  0  0  0  0  0  0  0  0  0  0  0
  181.2060   21.5860   46.4660 C   0  0  0  0  0  0  0  0  0  0  0  0
  180.4380   22.6190   46.9890 O   0  0  0  0  0  0  0  0  0  0  0  0
  179.1530   22.3540   47.3890 C   0  0  0  0  0  0  0  0  0  0  0  0
  178.4220   23.4170   47.9200 C   0  0  0  0  0  0  0  0  0  0  0  0
  177.1070   23.2150   48.3460 C   0  0  0  0  0  0  0  0  0  0  0  0
  176.5240   21.9510   48.2380 C   0  0  0  0  0  0  0  0  0  0  0  0
  177.2550   20.8920   47.7070 C   0  0  0  0  0  0  0  0  0  0  0  0
  176.6220   19.6810   47.6310 O   0  0  0  0  0  0  0  0  0  0  0  0
  178.5710   21.0940   47.2830 C   0  0  0  0  0  0  0  0  0  0  0  0
  179.3740   20.0090   46.7190 C   0  0  0  0  0  0  0  0  0  0  0  0
  178.9280   18.8700   46.5870 O   0  0  0  0  0  0  0  0  0  0  0  0
  180.7610   20.3250   46.3060 C   0  0  0  0  0  0  0  0  0  0  0  0
  181.5060   19.2950   45.7630 O   0  0  0  0  0  0  0  0  0  0  0  0
  183.2050   21.5140   44.9450 C   0  0  0  0  0  0  0  0  0  0  0  0
  184.5030   21.9160   44.6200 C   0  0  0  0  0  0  0  0  0  0  0  0
  185.2020   22.8360   45.4220 C   0  0  0  0  0  0  0  0  0  0  0  0
  186.6140   23.2220   45.0180 C   0  0  0  0  0  0  0  0  0  0  0  0
  187.0960   22.6310   43.7110 C   0  0  0  0  0  0  0  0  0  0  0  0
  187.0890   23.4080   42.5430 C   0  0  0  0  0  0  0  0  0  0  0  0
  187.5070   22.8690   41.3260 C   0  0  0  0  0  0  0  0  0  0  0  0
  187.9300   21.5430   41.2580 C   0  0  0  0  0  0  0  0  0  0  0  0
  187.9300   20.7550   42.4080 C   0  0  0  0  0  0  0  0  0  0  0  0
  187.5110   21.2940   43.6260 C   0  0  0  0  0  0  0  0  0  0  0  0
  185.0502   24.0421   48.5351 H   0  0  0  0  0  0  0  0  0  0  0  0
  186.3364   24.3041   47.3089 H   0  0  0  0  0  0  0  0  0  0  0  0
  184.8706   25.3424   47.3089 H   0  0  0  0  0  0  0  0  0  0  0  0
  182.7774   23.3278   47.7901 H   0  0  0  0  0  0  0  0  0  0  0  0
  178.8807   24.4133   48.0032 H   0  0  0  0  0  0  0  0  0  0  0  0
  176.5306   24.0522   48.7667 H   0  0  0  0  0  0  0  0  0  0  0  0
  175.4881   21.7921   48.5722 H   0  0  0  0  0  0  0  0  0  0  0  0
  175.8120   19.5470   48.0830 H   0  0  0  0  0  0  0  0  0  0  0  0
  181.9460   18.6880   46.3250 H   0  0  0  0  0  0  0  0  0  0  0  0
  182.6813   20.7914   44.3018 H   0  0  0  0  0  0  0  0  0  0  0  0
  184.9867   21.5058   43.7212 H   0  0  0  0  0  0  0  0  0  0  0  0
  186.6554   24.3178   44.9314 H   0  0  0  0  0  0  0  0  0  0  0  0
  187.2755   22.8168   45.7979 H   0  0  0  0  0  0  0  0  0  0  0  0
  186.7503   24.4536   42.5872 H   0  0  0  0  0  0  0  0  0  0  0  0
  187.5027   23.4915   40.4191 H   0  0  0  0  0  0  0  0  0  0  0  0
  188.2631   21.1191   40.2992 H   0  0  0  0  0  0  0  0  0  0  0  0
  188.2605   19.7071   42.3558 H   0  0  0  0  0  0  0  0  0  0  0  0
  187.5064   20.6639   44.5276 H   0  0  0  0  0  0  0  0  0  0  0  0
  1  2  1  0
  2  3  2  0
  3  4  1  0
  4  5  1  0
  5  6  1  0
  6  7  1  0
  7  8  2  0
  8  9  1  0
  9 10  2  0
 10 11  1  0
 11 12  1  0
 11 13  2  0
 13 14  1  0
 14 15  2  0
 14 16  1  0
 16 17  1  0
  4 18  2  0
 18 19  1  0
 19 20  2  0
 20 21  1  0
 21 22  1  0
 22 23  2  0
 23 24  1  0
 24 25  2  0
 25 26  1  0
 26 27  2  0
 20  2  1  0
 27 22  1  0
 16  5  2  0
 13  7  1  0
  1 28  1  0
  1 29  1  0
  1 30  1  0
  3 31  1  0
  8 32  1  0
  9 33  1  0
 10 34  1  0
 12 35  1  0
 17 36  1  0
 18 37  1  0
 19 38  1  0
 21 39  1  0
 21 40  1  0
 23 41  1  0
 24 42  1  0
 25 43  1  0
 26 44  1  0
 27 45  1  0
M  END
>  <meeko>  (7) 
{"is_sidechain": [false], "free_energy": -5.756, "intermolecular_energy": -7.059, "internal_energy": -0.25}

$$$$
cand_002_out
     RDKit          3D

 45 48  0  0  0  0  0  0  0  0999 V2000
  187.4640   27.4170   50.2730 C   0  0  0  0  0  0  0  0  0  0  0  0
  186.5800   26.2470   49.9390 C   0  0  0  0  0  0  0  0  0  0  0  0
  186.5370   25.7950   48.6060 C   0  0  0  0  0  0  0  0  0  0  0  0
  185.7250   24.7200   48.2150 C   0  0  0  0  0  0  0  0  0  0  0  0
  185.6960   24.2960   46.7990 C   0  0  0  0  0  0  0  0  0  0  0  0
  186.6840   23.3670   46.4930 O   0  0  0  0  0  0  0  0  0  0  0  0
  186.7710   22.8870   45.2110 C   0  0  0  0  0  0  0  0  0  0  0  0
  187.7860   21.9680   44.9460 C   0  0  0  0  0  0  0  0  0  0  0  0
  187.9300   21.4390   43.6620 C   0  0  0  0  0  0  0  0  0  0  0  0
  187.0580   21.8300   42.6430 C   0  0  0  0  0  0  0  0  0  0  0  0
  186.0460   22.7480   42.9110 C   0  0  0  0  0  0  0  0  0  0  0  0
  185.2280   23.0860   41.8670 O   0  0  0  0  0  0  0  0  0  0  0  0
  185.9040   23.2770   44.1960 C   0  0  0  0  0  0  0  0  0  0  0  0
  184.8540   24.2440   44.5190 C   0  0  0  0  0  0  0  0  0  0  0  0
  184.0450   24.6310   43.6780 O   0  0  0  0  0  0  0  0  0  0  0  0
  184.7930   24.7500   45.9090 C   0  0  0  0  0  0  0  0  0  0  0  0
  183.7880   25.6530   46.2070 O   0  0  0  0  0  0  0  0  0  0  0  0
  184.9270   24.1050   49.1830 C   0  0  0  0  0  0  0  0  0  0  0  0
  184.9480   24.5470   50.5080 C   0  0  0  0  0  0  0  0  0  0  0  0
  185.7660   25.6200   50.9040 C   0  0  0  0  0  0  0  0  0  0  0  0
  185.7330   26.0570   52.3580 C   0  0  0  0  0  0  0  0  0  0  0  0
  184.3540   26.3370   52.9170 C   0  0  0  0  0  0  0  0  0  0  0  0
  183.8540   25.5620   53.9740 C   0  0  0  0  0  0  0  0  0  0  0  0
  182.5750   25.7920   54.4820 C   0  0  0  0  0  0  0  0  0  0  0  0
  181.7750   26.7940   53.9350 C   0  0  0  0  0  0  0  0  0  0  0  0
  182.2540   27.5620   52.8760 C   0  0  0  0  0  0  0  0  0  0  0  0
  183.5340   27.3330   52.3660 C   0  0  0  0  0  0  0  0  0  0  0  0
  187.5407   27.5185   51.3656 H   0  0  0  0  0  0  0  0  0  0  0  0
  188.4655   27.2527   49.8488 H   0  0  0  0  0  0  0  0  0  0  0  0
  187.0323   28.3356   49.8488 H   0  0  0  0  0  0  0  0  0  0  0  0
  187.1574   26.2989   47.8503 H   0  0  0  0  0  0  0  0  0  0  0  0
  188.4728   21.6601   45.7482 H   0  0  0  0  0  0  0  0  0  0  0  0
  188.7304   20.7140   43.4526 H   0  0  0  0  0  0  0  0  0  0  0  0
  187.1706   21.4135   41.6311 H   0  0  0  0  0  0  0  0  0  0  0  0
  184.3390   23.3330   42.0300 H   0  0  0  0  0  0  0  0  0  0  0  0
  183.8160   26.1360   47.0100 H   0  0  0  0  0  0  0  0  0  0  0  0
  184.2761   23.2649   48.8991 H   0  0  0  0  0  0  0  0  0  0  0  0
  184.3136   24.0469   51.2546 H   0  0  0  0  0  0  0  0  0  0  0  0
  186.1899   25.2600   52.9631 H   0  0  0  0  0  0  0  0  0  0  0  0
  186.2791   27.0108   52.4020 H   0  0  0  0  0  0  0  0  0  0  0  0
  184.4765   24.7650   54.4067 H   0  0  0  0  0  0  0  0  0  0  0  0
  182.1973   25.1816   55.3155 H   0  0  0  0  0  0  0  0  0  0  0  0
  180.7683   26.9778   54.3384 H   0  0  0  0  0  0  0  0  0  0  0  0
  181.6227   28.3506   52.4405 H   0  0  0  0  0  0  0  0  0  0  0  0
  183.9023   27.9389   51.5250 H   0  0  0  0  0  0  0  0  0  0  0  0
  1  2  1  0
  2  3  2  0
  3  4  1  0
  4  5  1  0
  5  6  1  0
  6  7  1  0
  7  8  2  0
  8  9  1  0
  9 10  2  0
 10 11  1  0
 11 12  1  0
 11 13  2  0
 13 14  1  0
 14 15  2  0
 14 16  1  0
 16 17  1  0
  4 18  2  0
 18 19  1  0
 19 20  2  0
 20 21  1  0
 21 22  1  0
 22 23  2  0
 23 24  1  0
 24 25  2  0
 25 26  1  0
 26 27  2  0
 20  2  1  0
 27 22  1  0
 16  5  2  0
 13  7  1  0
  1 28  1  0
  1 29  1  0
  1 30  1  0
  3 31  1  0
  8 32  1  0
  9 33  1  0
 10 34  1  0
 12 35  1  0
 17 36  1  0
 18 37  1  0
 19 38  1  0
 21 39  1  0
 21 40  1  0
 23 41  1  0
 24 42  1  0
 25 43  1  0
 26 44  1  0
 27 45  1  0
M  END
>  <meeko>  (8) 
{"is_sidechain": [false], "free_energy": -5.583, "intermolecular_energy": -6.121, "internal_energy": -0.975}

$$$$
