cand_056_out
     RDKit          3D

 50 53  0  0  0  0  0  0  0  0999 V2000
  175.7340   23.5430   49.4510 C   0  0  0  0  0  0  0  0  0  0  0  0
  177.1090   23.2340   49.0620 N   0  0  0  0  0  0  0  0  0  0  0  0
  177.3330   21.7700   49.0630 C   0  0  0  0  0  0  0  0  0  0  0  0
  178.7610   21.3900   48.6010 C   0  0  0  0  0  0  0  0  0  0  0  0
  179.0180   21.9490   47.2540 N   0  0  0  0  0  0  0  0  0  0  0  0
  180.2460   21.5420   46.7010 C   0  0  0  0  0  0  0  0  0  0  0  0
  181.3860   22.3670   46.7320 C   0  0  0  0  0  0  0  0  0  0  0  0
  182.6130   21.9580   46.1910 C   0  0  0  0  0  0  0  0  0  0  0  0
  183.8010   22.8360   46.2090 C   0  0  0  0  0  0  0  0  0  0  0  0
  184.0610   23.3700   47.4660 O   0  0  0  0  0  0  0  0  0  0  0  0
  185.1380   24.2030   47.6230 C   0  0  0  0  0  0  0  0  0  0  0  0
  185.3690   24.7050   48.9050 C   0  0  0  0  0  0  0  0  0  0  0  0
  186.4490   25.5610   49.1330 C   0  0  0  0  0  0  0  0  0  0  0  0
  187.2960   25.9150   48.0810 C   0  0  0  0  0  0  0  0  0  0  0  0
  187.0630   25.4140   46.8040 C   0  0  0  0  0  0  0  0  0  0  0  0
  187.9300   25.8020   45.8190 O   0  0  0  0  0  0  0  0  0  0  0  0
  185.9830   24.5570   46.5750 C   0  0  0  0  0  0  0  0  0  0  0  0
  185.7020   24.0090   45.2480 C   0  0  0  0  0  0  0  0  0  0  0  0
  186.3970   24.2790   44.2700 O   0  0  0  0  0  0  0  0  0  0  0  0
  184.5370   23.1030   45.1140 C   0  0  0  0  0  0  0  0  0  0  0  0
  184.2720   22.6000   43.8540 O   0  0  0  0  0  0  0  0  0  0  0  0
  182.6880   20.6990   45.5870 C   0  0  0  0  0  0  0  0  0  0  0  0
  181.5670   19.8670   45.5420 C   0  0  0  0  0  0  0  0  0  0  0  0
  180.3400   20.2760   46.0970 C   0  0  0  0  0  0  0  0  0  0  0  0
  179.1440   19.3570   46.0380 C   0  0  0  0  0  0  0  0  0  0  0  0
  179.4230   18.1690   45.4160 F   0  0  0  0  0  0  0  0  0  0  0  0
  178.0890   19.8730   45.3440 F   0  0  0  0  0  0  0  0  0  0  0  0
  178.6630   19.0010   47.2650 F   0  0  0  0  0  0  0  0  0  0  0  0
  178.8260   23.4180   47.2290 C   0  0  0  0  0  0  0  0  0  0  0  0
  177.3980   23.7700   47.7110 C   0  0  0  0  0  0  0  0  0  0  0  0
  175.6584   23.5600   50.5483 H   0  0  0  0  0  0  0  0  0  0  0  0
  175.4515   24.5270   49.0487 H   0  0  0  0  0  0  0  0  0  0  0  0
  175.0576   22.7745   49.0487 H   0  0  0  0  0  0  0  0  0  0  0  0
  177.7330   23.6730   49.7400 H   0  0  0  0  0  0  0  0  0  0  0  0
  177.1794   21.3900   50.0838 H   0  0  0  0  0  0  0  0  0  0  0  0
  176.6213   21.3218   48.3541 H   0  0  0  0  0  0  0  0  0  0  0  0
  179.4952   21.7974   49.3116 H   0  0  0  0  0  0  0  0  0  0  0  0
  178.8507   20.2943   48.5626 H   0  0  0  0  0  0  0  0  0  0  0  0
  181.3120   23.3623   47.1945 H   0  0  0  0  0  0  0  0  0  0  0  0
  184.7017   24.4270   49.7341 H   0  0  0  0  0  0  0  0  0  0  0  0
  186.6325   25.9568   50.1428 H   0  0  0  0  0  0  0  0  0  0  0  0
  188.1463   26.5890   48.2615 H   0  0  0  0  0  0  0  0  0  0  0  0
  187.7250   26.5410   45.2790 H   0  0  0  0  0  0  0  0  0  0  0  0
  183.6990   21.8650   43.7540 H   0  0  0  0  0  0  0  0  0  0  0  0
  183.6367   20.3615   45.1441 H   0  0  0  0  0  0  0  0  0  0  0  0
  181.6442   18.8783   45.0661 H   0  0  0  0  0  0  0  0  0  0  0  0
  179.5628   23.8936   47.8930 H   0  0  0  0  0  0  0  0  0  0  0  0
  178.9620   23.7839   46.2006 H   0  0  0  0  0  0  0  0  0  0  0  0
  177.2934   24.8647   47.7356 H   0  0  0  0  0  0  0  0  0  0  0  0
  176.6851   23.3123   47.0093 H   0  0  0  0  0  0  0  0  0  0  0  0
  1  2  1  0
  2  3  1  0
  3  4  1  0
  4  5  1  0
  5  6  1  0
  6  7  2  0
  7  8  1  0
  8  9  1  0
  9 10  1  0
 10 11  1  0
 11 12  2  0
 12 13  1  0
 13 14  2  0
 14 15  1  0
 15 16  1  0
 15 17  2  0
 17 18  1  0
 18 19  2  0
 18 20  1  0
 20 21  1  0
  8 22  2  0
 22 23  1  0
 23 24  2  0
 24 25  1  0
 25 26  1  0
 25 27  1  0
 25 28  1  0
  5 29  1  0
 29 30  1  0
 30  2  1  0
 24  6  1  0
 20  9  2  0
 17 11  1  0
  1 31  1  0
  1 32  1  0
  1 33  1  0
  2 34  1  0
  3 35  1  0
  3 36  1  0
  4 37  1  0
  4 38  1  0
  7 39  1  0
 12 40  1  0
 13 41  1  0
 14 42  1  0
 16 43  1  0
 21 44  1  0
 22 45  1  0
 23 46  1  0
 29 47  1  0
 29 48  1  0
 30 49  1  0
 30 50  1  0
M  CHG  1   2   1
M  END
>  <meeko>  (1) 
{"is_sidechain": [false], "free_energy": -6.158, "intermolecular_energy": -7.598, "internal_energy": 0.1}

$$$$
cand_056_out
     RDKit          3D

 50 53  0  0  0  0  0  0  0  0999 V2000
  175.7850   23.8360   49.5260 C   0  0  0  0  0  0  0  0  0  0  0  0
  177.1040   23.3930   49.0750 N   0  0  0  0  0  0  0  0  0  0  0  0
  177.2120   21.9170   49.1570 C   0  0  0  0  0  0  0  0  0  0  0  0
  178.5720   21.3950   48.6360 C   0  0  0  0  0  0  0  0  0  0  0  0
  178.7850   21.8500   47.2420 N   0  0  0  0  0  0  0  0  0  0  0  0
  179.9390   21.3120   46.6440 C   0  0  0  0  0  0  0  0  0  0  0  0
  181.1430   22.0360   46.5650 C   0  0  0  0  0  0  0  0  0  0  0  0
  182.2970   21.4960   45.9780 C   0  0  0  0  0  0  0  0  0  0  0  0
  183.5530   22.2680   45.8800 C   0  0  0  0  0  0  0  0  0  0  0  0
  184.1890   22.1150   44.6540 O   0  0  0  0  0  0  0  0  0  0  0  0
  185.3670   22.7810   44.4310 C   0  0  0  0  0  0  0  0  0  0  0  0
  185.9630   22.6100   43.1810 C   0  0  0  0  0  0  0  0  0  0  0  0
  187.1660   23.2580   42.8890 C   0  0  0  0  0  0  0  0  0  0  0  0
  187.7710   24.0750   43.8470 C   0  0  0  0  0  0  0  0  0  0  0  0
  187.1740   24.2430   45.0930 C   0  0  0  0  0  0  0  0  0  0  0  0
  187.8200   25.0550   45.9840 O   0  0  0  0  0  0  0  0  0  0  0  0
  185.9700   23.5950   45.3850 C   0  0  0  0  0  0  0  0  0  0  0  0
  185.3100   23.7440   46.6820 C   0  0  0  0  0  0  0  0  0  0  0  0
  185.7840   24.4400   47.5780 O   0  0  0  0  0  0  0  0  0  0  0  0
  184.0340   23.0210   46.8880 C   0  0  0  0  0  0  0  0  0  0  0  0
  183.4240   23.1570   48.1210 O   0  0  0  0  0  0  0  0  0  0  0  0
  182.2290   20.2060   45.4410 C   0  0  0  0  0  0  0  0  0  0  0  0
  181.0430   19.4730   45.5070 C   0  0  0  0  0  0  0  0  0  0  0  0
  179.8900   20.0130   46.1070 C   0  0  0  0  0  0  0  0  0  0  0  0
  178.6210   19.1990   46.1670 C   0  0  0  0  0  0  0  0  0  0  0  0
  178.0980   19.1320   47.4310 F   0  0  0  0  0  0  0  0  0  0  0  0
  178.7860   17.8970   45.7900 F   0  0  0  0  0  0  0  0  0  0  0  0
  177.6090   19.6980   45.3990 F   0  0  0  0  0  0  0  0  0  0  0  0
  178.7080   23.3260   47.1350 C   0  0  0  0  0  0  0  0  0  0  0  0
  177.3460   23.8230   47.6780 C   0  0  0  0  0  0  0  0  0  0  0  0
  175.7575   23.8452   50.6256 H   0  0  0  0  0  0  0  0  0  0  0  0
  175.5887   24.8494   49.1458 H   0  0  0  0  0  0  0  0  0  0  0  0
  175.0168   23.1466   49.1458 H   0  0  0  0  0  0  0  0  0  0  0  0
  177.8030   23.8180   49.6850 H   0  0  0  0  0  0  0  0  0  0  0  0
  177.0956   21.6122   50.2075 H   0  0  0  0  0  0  0  0  0  0  0  0
  176.4227   21.4873   48.5227 H   0  0  0  0  0  0  0  0  0  0  0  0
  179.3802   21.7823   49.2738 H   0  0  0  0  0  0  0  0  0  0  0  0
  178.5727   20.2953   48.6627 H   0  0  0  0  0  0  0  0  0  0  0  0
  181.1804   23.0557   46.9758 H   0  0  0  0  0  0  0  0  0  0  0  0
  185.4867   21.9663   42.4269 H   0  0  0  0  0  0  0  0  0  0  0  0
  187.6370   23.1247   41.9039 H   0  0  0  0  0  0  0  0  0  0  0  0
  188.7181   24.5850   43.6169 H   0  0  0  0  0  0  0  0  0  0  0  0
  187.3560   25.4110   46.7160 H   0  0  0  0  0  0  0  0  0  0  0  0
  182.5540   23.5030   48.1780 H   0  0  0  0  0  0  0  0  0  0  0  0
  183.1168   19.7661   44.9632 H   0  0  0  0  0  0  0  0  0  0  0  0
  181.0089   18.4582   45.0838 H   0  0  0  0  0  0  0  0  0  0  0  0
  179.5214   23.7772   47.7221 H   0  0  0  0  0  0  0  0  0  0  0  0
  178.8055   23.6183   46.0790 H   0  0  0  0  0  0  0  0  0  0  0  0
  177.3300   24.9222   47.6389 H   0  0  0  0  0  0  0  0  0  0  0  0
  176.5552   23.3858   47.0508 H   0  0  0  0  0  0  0  0  0  0  0  0
  1  2  1  0
  2  3  1  0
  3  4  1  0
  4  5  1  0
  5  6  1  0
  6  7  2  0
  7  8  1  0
  8  9  1  0
  9 10  1  0
 10 11  1  0
 11 12  2  0
 12 13  1  0
 13 14  2  0
 14 15  1  0
 15 16  1  0
 15 17  2  0
 17 18  1  0
 18 19  2  0
 18 20  1  0
 20 21  1  0
  8 22  2  0
 22 23  1  0
 23 24  2  0
 24 25  1  0
 25 26  1  0
 25 27  1  0
 25 28  1  0
  5 29  1  0
 29 30  1  0
 30  2  1  0
 24  6  1  0
 20  9  2  0
 17 11  1  0
  1 31  1  0
  1 32  1  0
  1 33  1  0
  2 34  1  0
  3 35  1  0
  3 36  1  0
  4 37  1  0
  4 38  1  0
  7 39  1  0
 12 40  1  0
 13 41  1  0
 14 42  1  0
 16 43  1  0
 21 44  1  0
 22 45  1  0
 23 46  1  0
 29 47  1  0
 29 48  1  0
 30 49  1  0
 30 50  1  0
M  CHG  1   2   1
M  END
>  <meeko>  (2) 
{"is_sidechain": [false], "free_energy": -5.87, "intermolecular_energy": -7.514, "internal_energy": 0.371}

$$$$
cand_056_out
     RDKit          3D

 50 53  0  0  0  0  0  0  0  0999 V2000
  187.9300   21.8740   40.1290 C   0  0  0  0  0  0  0  0  0  0  0  0
  186.9130   21.8600   41.1800 N   0  0  0  0  0  0  0  0  0  0  0  0
  187.4620   21.2800   42.4270 C   0  0  0  0  0  0  0  0  0  0  0  0
  186.4380   21.2960   43.5870 C   0  0  0  0  0  0  0  0  0  0  0  0
  185.9710   22.6820   43.8270 N   0  0  0  0  0  0  0  0  0  0  0  0
  185.1360   22.8070   44.9510 C   0  0  0  0  0  0  0  0  0  0  0  0
  183.9070   22.1260   45.0450 C   0  0  0  0  0  0  0  0  0  0  0  0
  183.0780   22.2430   46.1700 C   0  0  0  0  0  0  0  0  0  0  0  0
  181.7810   21.5400   46.2550 C   0  0  0  0  0  0  0  0  0  0  0  0
  180.8130   22.2700   46.9360 O   0  0  0  0  0  0  0  0  0  0  0  0
  179.5610   21.7310   47.0860 C   0  0  0  0  0  0  0  0  0  0  0  0
  178.6170   22.5040   47.7630 C   0  0  0  0  0  0  0  0  0  0  0  0
  177.3230   22.0140   47.9520 C   0  0  0  0  0  0  0  0  0  0  0  0
  176.9740   20.7530   47.4640 C   0  0  0  0  0  0  0  0  0  0  0  0
  177.9180   19.9840   46.7890 C   0  0  0  0  0  0  0  0  0  0  0  0
  177.5100   18.7580   46.3390 O   0  0  0  0  0  0  0  0  0  0  0  0
  179.2130   20.4750   46.6000 C   0  0  0  0  0  0  0  0  0  0  0  0
  180.2350   19.6990   45.8970 C   0  0  0  0  0  0  0  0  0  0  0  0
  180.0070   18.5780   45.4450 O   0  0  0  0  0  0  0  0  0  0  0  0
  181.5740   20.3130   45.7420 C   0  0  0  0  0  0  0  0  0  0  0  0
  182.5370   19.5680   45.0880 O   0  0  0  0  0  0  0  0  0  0  0  0
  183.4860   23.0810   47.2130 C   0  0  0  0  0  0  0  0  0  0  0  0
  184.6980   23.7680   47.1370 C   0  0  0  0  0  0  0  0  0  0  0  0
  185.5340   23.6400   46.0110 C   0  0  0  0  0  0  0  0  0  0  0  0
  186.8420   24.3920   45.9550 C   0  0  0  0  0  0  0  0  0  0  0  0
  187.1060   25.0740   47.1120 F   0  0  0  0  0  0  0  0  0  0  0  0
  186.8870   25.3400   44.9740 F   0  0  0  0  0  0  0  0  0  0  0  0
  187.9300   23.5890   45.7680 F   0  0  0  0  0  0  0  0  0  0  0  0
  185.3920   23.2790   42.6000 C   0  0  0  0  0  0  0  0  0  0  0  0
  186.4310   23.2350   41.4530 C   0  0  0  0  0  0  0  0  0  0  0  0
  188.9301   21.8878   40.5867 H   0  0  0  0  0  0  0  0  0  0  0  0
  187.8247   20.9743   39.5049 H   0  0  0  0  0  0  0  0  0  0  0  0
  187.8000   22.7704   39.5049 H   0  0  0  0  0  0  0  0  0  0  0  0
  186.1340   21.2870   40.8540 H   0  0  0  0  0  0  0  0  0  0  0  0
  187.7580   20.2387   42.2316 H   0  0  0  0  0  0  0  0  0  0  0  0
  188.3225   21.8939   42.7314 H   0  0  0  0  0  0  0  0  0  0  0  0
  185.5786   20.6617   43.3240 H   0  0  0  0  0  0  0  0  0  0  0  0
  186.9175   20.9118   44.4994 H   0  0  0  0  0  0  0  0  0  0  0  0
  183.5878   21.4833   44.2113 H   0  0  0  0  0  0  0  0  0  0  0  0
  178.8916   23.4975   48.1471 H   0  0  0  0  0  0  0  0  0  0  0  0
  176.5778   22.6220   48.4859 H   0  0  0  0  0  0  0  0  0  0  0  0
  175.9545   20.3678   47.6128 H   0  0  0  0  0  0  0  0  0  0  0  0
  176.6850   18.6710   45.9010 H   0  0  0  0  0  0  0  0  0  0  0  0
  182.2840   18.8460   44.5470 H   0  0  0  0  0  0  0  0  0  0  0  0
  182.8463   23.1993   48.1000 H   0  0  0  0  0  0  0  0  0  0  0  0
  185.0050   24.4191   47.9688 H   0  0  0  0  0  0  0  0  0  0  0  0
  184.4979   22.7105   42.3045 H   0  0  0  0  0  0  0  0  0  0  0  0
  185.1174   24.3251   42.8005 H   0  0  0  0  0  0  0  0  0  0  0  0
  185.9660   23.6343   40.5396 H   0  0  0  0  0  0  0  0  0  0  0  0
  187.2970   23.8391   41.7614 H   0  0  0  0  0  0  0  0  0  0  0  0
  1  2  1  0
  2  3  1  0
  3  4  1  0
  4  5  1  0
  5  6  1  0
  6  7  2  0
  7  8  1  0
  8  9  1  0
  9 10  1  0
 10 11  1  0
 11 12  2  0
 12 13  1  0
 13 14  2  0
 14 15  1  0
 15 16  1  0
 15 17  2  0
 17 18  1  0
 18 19  2  0
 18 20  1  0
 20 21  1  0
  8 22  2  0
 22 23  1  0
 23 24  2  0
 24 25  1  0
 25 26  1  0
 25 27  1  0
 25 28  1  0
  5 29  1  0
 29 30  1  0
 30  2  1  0
 24  6  1  0
 20  9  2  0
 17 11  1  0
  1 31  1  0
  1 32  1  0
  1 33  1  0
  2 34  1  0
  3 35  1  0
  3 36  1  0
  4 37  1  0
  4 38  1  0
  7 39  1  0
 12 40  1  0
 13 41  1  0
 14 42  1  0
 16 43  1  0
 21 44  1  0
 22 45  1  0
 23 46  1  0
 29 47  1  0
 29 48  1  0
 30 49  1  0
 30 50  1  0
M  CHG  1   2   1
M  END
>  <meeko>  (3) 
{"is_sidechain": [false], "free_energy": -5.865, "intermolecular_energy": -6.75, "internal_energy": -0.387}

$$$$
cand_056_out
     RDKit          3D

 50 53  0  0  0  0  0  0  0  0999 V2000
  187.0190   26.8320   50.7330 C   0  0  0  0  0  0  0  0  0  0  0  0
  186.1900   25.9180   49.9490 N   0  0  0  0  0  0  0  0  0  0  0  0
  185.6890   26.5890   48.7270 C   0  0  0  0  0  0  0  0  0  0  0  0
  184.8510   25.6420   47.8340 C   0  0  0  0  0  0  0  0  0  0  0  0
  185.6540   24.4490   47.4740 N   0  0  0  0  0  0  0  0  0  0  0  0
  185.0140   23.5970   46.5560 C   0  0  0  0  0  0  0  0  0  0  0  0
  183.7610   23.0160   46.8290 C   0  0  0  0  0  0  0  0  0  0  0  0
  183.1190   22.1730   45.9100 C   0  0  0  0  0  0  0  0  0  0  0  0
  181.8130   21.5510   46.2090 C   0  0  0  0  0  0  0  0  0  0  0  0
  180.9840   22.3680   46.9690 O   0  0  0  0  0  0  0  0  0  0  0  0
  179.7400   21.9110   47.3170 C   0  0  0  0  0  0  0  0  0  0  0  0
  178.9360   22.7710   48.0680 C   0  0  0  0  0  0  0  0  0  0  0  0
  177.6580   22.3660   48.4580 C   0  0  0  0  0  0  0  0  0  0  0  0
  177.1830   21.1020   48.0970 C   0  0  0  0  0  0  0  0  0  0  0  0
  177.9870   20.2470   47.3480 C   0  0  0  0  0  0  0  0  0  0  0  0
  177.4610   19.0250   47.0310 O   0  0  0  0  0  0  0  0  0  0  0  0
  179.2660   20.6520   46.9580 C   0  0  0  0  0  0  0  0  0  0  0  0
  180.1430   19.7840   46.1720 C   0  0  0  0  0  0  0  0  0  0  0  0
  179.8010   18.6560   45.8220 O   0  0  0  0  0  0  0  0  0  0  0  0
  181.4770   20.3120   45.8030 C   0  0  0  0  0  0  0  0  0  0  0  0
  182.3030   19.4800   45.0710 O   0  0  0  0  0  0  0  0  0  0  0  0
  183.7610   21.8950   44.6990 C   0  0  0  0  0  0  0  0  0  0  0  0
  185.0060   22.4590   44.4120 C   0  0  0  0  0  0  0  0  0  0  0  0
  185.6430   23.3130   45.3320 C   0  0  0  0  0  0  0  0  0  0  0  0
  186.9870   23.9120   44.9950 C   0  0  0  0  0  0  0  0  0  0  0  0
  187.5370   23.3710   43.8640 F   0  0  0  0  0  0  0  0  0  0  0  0
  187.9300   23.7220   45.9640 F   0  0  0  0  0  0  0  0  0  0  0  0
  186.9460   25.2550   44.7530 F   0  0  0  0  0  0  0  0  0  0  0  0
  186.1470   23.7430   48.6800 C   0  0  0  0  0  0  0  0  0  0  0  0
  186.9660   24.7160   49.5620 C   0  0  0  0  0  0  0  0  0  0  0  0
  186.8533   26.6493   51.8050 H   0  0  0  0  0  0  0  0  0  0  0  0
  188.0790   26.6638   50.4920 H   0  0  0  0  0  0  0  0  0  0  0  0
  186.7485   27.8706   50.4920 H   0  0  0  0  0  0  0  0  0  0  0  0
  185.3990   25.6360   50.5290 H   0  0  0  0  0  0  0  0  0  0  0  0
  185.0607   27.4415   49.0246 H   0  0  0  0  0  0  0  0  0  0  0  0
  186.5617   26.9156   48.1424 H   0  0  0  0  0  0  0  0  0  0  0  0
  183.9514   25.3248   48.3818 H   0  0  0  0  0  0  0  0  0  0  0  0
  184.5585   26.1731   46.9162 H   0  0  0  0  0  0  0  0  0  0  0  0
  183.2714   23.2293   47.7907 H   0  0  0  0  0  0  0  0  0  0  0  0
  179.3090   23.7661   48.3519 H   0  0  0  0  0  0  0  0  0  0  0  0
  177.0242   23.0425   49.0501 H   0  0  0  0  0  0  0  0  0  0  0  0
  176.1759   20.7834   48.4041 H   0  0  0  0  0  0  0  0  0  0  0  0
  176.5670   18.8320   47.2360 H   0  0  0  0  0  0  0  0  0  0  0  0
  183.2260   19.4710   45.2380 H   0  0  0  0  0  0  0  0  0  0  0  0
  183.2820   21.2275   43.9675 H   0  0  0  0  0  0  0  0  0  0  0  0
  185.4958   22.2327   43.4534 H   0  0  0  0  0  0  0  0  0  0  0  0
  185.2903   23.3622   49.2555 H   0  0  0  0  0  0  0  0  0  0  0  0
  186.7898   22.9052   48.3718 H   0  0  0  0  0  0  0  0  0  0  0  0
  187.2776   24.1877   50.4751 H   0  0  0  0  0  0  0  0  0  0  0  0
  187.8332   25.0518   48.9744 H   0  0  0  0  0  0  0  0  0  0  0  0
  1  2  1  0
  2  3  1  0
  3  4  1  0
  4  5  1  0
  5  6  1  0
  6  7  2  0
  7  8  1  0
  8  9  1  0
  9 10  1  0
 10 11  1  0
 11 12  2  0
 12 13  1  0
 13 14  2  0
 14 15  1  0
 15 16  1  0
 15 17  2  0
 17 18  1  0
 18 19  2  0
 18 20  1  0
 20 21  1  0
  8 22  2  0
 22 23  1  0
 23 24  2  0
 24 25  1  0
 25 26  1  0
 25 27  1  0
 25 28  1  0
  5 29  1  0
 29 30  1  0
 30  2  1  0
 24  6  1  0
 20  9  2  0
 17 11  1  0
  1 31  1  0
  1 32  1  0
  1 33  1  0
  2 34  1  0
  3 35  1  0
  3 36  1  0
  4 37  1  0
  4 38  1  0
  7 39  1  0
 12 40  1  0
 13 41  1  0
 14 42  1  0
 16 43  1  0
 21 44  1  0
 22 45  1  0
 23 46  1  0
 29 47  1  0
 29 48  1  0
 30 49  1  0
 30 50  1  0
M  CHG  1   2   1
M  END
>  <meeko>  (4) 
{"is_sidechain": [false], "free_energy": -5.801, "intermolecular_energy": -6.788, "internal_energy": -0.268}

$$$$
cand_056_out
     RDKit          3D

 50 53  0  0  0  0  0  0  0  0999 V2000
  174.0930   21.0720   48.2630 C   0  0  0  0  0  0  0  0  0  0  0  0
  175.2370   20.7100   47.4270 N   0  0  0  0  0  0  0  0  0  0  0  0
  176.2350   21.8060   47.4090 C   0  0  0  0  0  0  0  0  0  0  0  0
  177.4920   21.4460   46.5810 C   0  0  0  0  0  0  0  0  0  0  0  0
  178.1030   20.2040   47.1090 N   0  0  0  0  0  0  0  0  0  0  0  0
  179.3260   19.8750   46.4980 C   0  0  0  0  0  0  0  0  0  0  0  0
  179.4340   18.8240   45.5670 C   0  0  0  0  0  0  0  0  0  0  0  0
  180.6510   18.5020   44.9500 C   0  0  0  0  0  0  0  0  0  0  0  0
  180.7620   17.3860   43.9880 C   0  0  0  0  0  0  0  0  0  0  0  0
  181.0200   17.8130   42.6900 O   0  0  0  0  0  0  0  0  0  0  0  0
  181.1470   16.8750   41.6980 C   0  0  0  0  0  0  0  0  0  0  0  0
  181.4200   17.3480   40.4130 C   0  0  0  0  0  0  0  0  0  0  0  0
  181.5600   16.4460   39.3550 C   0  0  0  0  0  0  0  0  0  0  0  0
  181.4270   15.0740   39.5820 C   0  0  0  0  0  0  0  0  0  0  0  0
  181.1550   14.6070   40.8650 C   0  0  0  0  0  0  0  0  0  0  0  0
  181.0360   13.2520   41.0170 O   0  0  0  0  0  0  0  0  0  0  0  0
  181.0160   15.5080   41.9230 C   0  0  0  0  0  0  0  0  0  0  0  0
  180.7280   15.0590   43.2860 C   0  0  0  0  0  0  0  0  0  0  0  0
  180.5910   13.8690   43.5640 O   0  0  0  0  0  0  0  0  0  0  0  0
  180.6070   16.0950   44.3380 C   0  0  0  0  0  0  0  0  0  0  0  0
  180.3230   15.6620   45.6190 O   0  0  0  0  0  0  0  0  0  0  0  0
  181.7880   19.2410   45.2930 C   0  0  0  0  0  0  0  0  0  0  0  0
  181.7020   20.2840   46.2170 C   0  0  0  0  0  0  0  0  0  0  0  0
  180.4770   20.6130   46.8260 C   0  0  0  0  0  0  0  0  0  0  0  0
  180.4100   21.7480   47.8190 C   0  0  0  0  0  0  0  0  0  0  0  0
  181.6210   22.0070   48.4040 F   0  0  0  0  0  0  0  0  0  0  0  0
  179.5630   21.5130   48.8640 F   0  0  0  0  0  0  0  0  0  0  0  0
  180.0280   22.9380   47.2710 F   0  0  0  0  0  0  0  0  0  0  0  0
  177.1330   19.0830   47.1150 C   0  0  0  0  0  0  0  0  0  0  0  0
  175.8800   19.4750   47.9340 C   0  0  0  0  0  0  0  0  0  0  0  0
  174.3714   20.9839   49.3235 H   0  0  0  0  0  0  0  0  0  0  0  0
  173.7945   22.1085   48.0471 H   0  0  0  0  0  0  0  0  0  0  0  0
  173.2526   20.3959   48.0471 H   0  0  0  0  0  0  0  0  0  0  0  0
  174.8950   20.5480   46.4800 H   0  0  0  0  0  0  0  0  0  0  0  0
  175.7686   22.7013   46.9720 H   0  0  0  0  0  0  0  0  0  0  0  0
  176.5562   21.9841   48.4459 H   0  0  0  0  0  0  0  0  0  0  0  0
  177.2055   21.2936   45.5300 H   0  0  0  0  0  0  0  0  0  0  0  0
  178.2205   22.2672   46.6517 H   0  0  0  0  0  0  0  0  0  0  0  0
  178.5371   18.2385   45.3165 H   0  0  0  0  0  0  0  0  0  0  0  0
  181.5246   18.4283   40.2339 H   0  0  0  0  0  0  0  0  0  0  0  0
  181.7752   16.8168   38.3420 H   0  0  0  0  0  0  0  0  0  0  0  0
  181.5370   14.3642   38.7488 H   0  0  0  0  0  0  0  0  0  0  0  0
  181.0420   12.8750   41.8750 H   0  0  0  0  0  0  0  0  0  0  0  0
  180.9750   15.2050   46.1150 H   0  0  0  0  0  0  0  0  0  0  0  0
  182.7566   18.9987   44.8315 H   0  0  0  0  0  0  0  0  0  0  0  0
  182.6054   20.8571   46.4727 H   0  0  0  0  0  0  0  0  0  0  0  0
  176.8356   18.8525   46.0814 H   0  0  0  0  0  0  0  0  0  0  0  0
  177.6030   18.1999   47.5725 H   0  0  0  0  0  0  0  0  0  0  0  0
  175.1526   18.6514   47.8827 H   0  0  0  0  0  0  0  0  0  0  0  0
  176.2017   19.6650   48.9686 H   0  0  0  0  0  0  0  0  0  0  0  0
  1  2  1  0
  2  3  1  0
  3  4  1  0
  4  5  1  0
  5  6  1  0
  6  7  2  0
  7  8  1  0
  8  9  1  0
  9 10  1  0
 10 11  1  0
 11 12  2  0
 12 13  1  0
 13 14  2  0
 14 15  1  0
 15 16  1  0
 15 17  2  0
 17 18  1  0
 18 19  2  0
 18 20  1  0
 20 21  1  0
  8 22  2  0
 22 23  1  0
 23 24  2  0
 24 25  1  0
 25 26  1  0
 25 27  1  0
 25 28  1  0
  5 29  1  0
 29 30  1  0
 30  2  1  0
 24  6  1  0
 20  9  2  0
 17 11  1  0
  1 31  1  0
  1 32  1  0
  1 33  1  0
  2 34  1  0
  3 35  1  0
  3 36  1  0
  4 37  1  0
  4 38  1  0
  7 39  1  0
 12 40  1  0
 13 41  1  0
 14 42  1  0
 16 43  1  0
 21 44  1  0
 22 45  1  0
 23 46  1  0
 29 47  1  0
 29 48  1  0
 30 49  1  0
 30 50  1  0
M  CHG  1   2   1
M  END
>  <meeko>  (5) 
{"is_sidechain": [false], "free_energy": -5.182, "intermolecular_energy": -6.306, "internal_energy": 0.012}

$$$$
cand_056_out
     RDKit          3D

 50 53  0  0  0  0  0  0  0  0999 V2000
  186.6770   27.0340   48.3770 C   0  0  0  0  0  0  0  0  0  0  0  0
  185.5900   26.1730   47.9150 N   0  0  0  0  0  0  0  0  0  0  0  0
  185.7140   25.9130   46.4620 C   0  0  0  0  0  0  0  0  0  0  0  0
  184.6150   24.9580   45.9370 C   0  0  0  0  0  0  0  0  0  0  0  0
  184.6530   23.6840   46.6920 N   0  0  0  0  0  0  0  0  0  0  0  0
  183.7730   22.7070   46.1930 C   0  0  0  0  0  0  0  0  0  0  0  0
  182.5170   22.4670   46.7800 C   0  0  0  0  0  0  0  0  0  0  0  0
  181.6350   21.5000   46.2760 C   0  0  0  0  0  0  0  0  0  0  0  0
  180.3250   21.2400   46.9090 C   0  0  0  0  0  0  0  0  0  0  0  0
  179.5720   20.2930   46.2250 O   0  0  0  0  0  0  0  0  0  0  0  0
  178.3330   19.9570   46.7080 C   0  0  0  0  0  0  0  0  0  0  0  0
  177.6180   18.9910   45.9980 C   0  0  0  0  0  0  0  0  0  0  0  0
  176.3490   18.6040   46.4340 C   0  0  0  0  0  0  0  0  0  0  0  0
  175.7950   19.1840   47.5780 C   0  0  0  0  0  0  0  0  0  0  0  0
  176.5100   20.1470   48.2840 C   0  0  0  0  0  0  0  0  0  0  0  0
  175.9090   20.6740   49.3940 O   0  0  0  0  0  0  0  0  0  0  0  0
  177.7810   20.5330   47.8480 C   0  0  0  0  0  0  0  0  0  0  0  0
  178.5650   21.5430   48.5590 C   0  0  0  0  0  0  0  0  0  0  0  0
  178.1440   22.1030   49.5690 O   0  0  0  0  0  0  0  0  0  0  0  0
  179.9040   21.8760   48.0190 C   0  0  0  0  0  0  0  0  0  0  0  0
  180.6330   22.8390   48.6900 O   0  0  0  0  0  0  0  0  0  0  0  0
  182.0360   20.7450   45.1700 C   0  0  0  0  0  0  0  0  0  0  0  0
  183.2800   20.9650   44.5760 C   0  0  0  0  0  0  0  0  0  0  0  0
  184.1580   21.9440   45.0770 C   0  0  0  0  0  0  0  0  0  0  0  0
  185.4970   22.1640   44.4140 C   0  0  0  0  0  0  0  0  0  0  0  0
  185.8890   21.0950   43.6530 F   0  0  0  0  0  0  0  0  0  0  0  0
  186.5200   22.3560   45.2960 F   0  0  0  0  0  0  0  0  0  0  0  0
  185.5190   23.2270   43.5580 F   0  0  0  0  0  0  0  0  0  0  0  0
  184.5050   23.9120   48.1490 C   0  0  0  0  0  0  0  0  0  0  0  0
  185.6050   24.8830   48.6440 C   0  0  0  0  0  0  0  0  0  0  0  0
  186.6927   27.0465   49.4768 H   0  0  0  0  0  0  0  0  0  0  0  0
  187.6358   26.6477   48.0009 H   0  0  0  0  0  0  0  0  0  0  0  0
  186.5205   28.0558   48.0009 H   0  0  0  0  0  0  0  0  0  0  0  0
  184.7090   26.6540   48.0990 H   0  0  0  0  0  0  0  0  0  0  0  0
  185.6370   26.8695   45.9243 H   0  0  0  0  0  0  0  0  0  0  0  0
  186.6875   25.4306   46.2897 H   0  0  0  0  0  0  0  0  0  0  0  0
  183.6296   25.4295   46.0661 H   0  0  0  0  0  0  0  0  0  0  0  0
  184.7917   24.7531   44.8708 H   0  0  0  0  0  0  0  0  0  0  0  0
  182.2180   23.0551   47.6602 H   0  0  0  0  0  0  0  0  0  0  0  0
  178.0534   18.5353   45.0965 H   0  0  0  0  0  0  0  0  0  0  0  0
  175.7851   17.8418   45.8762 H   0  0  0  0  0  0  0  0  0  0  0  0
  174.7948   18.8799   47.9203 H   0  0  0  0  0  0  0  0  0  0  0  0
  176.4250   21.1090   50.0440 H   0  0  0  0  0  0  0  0  0  0  0  0
  180.8690   23.6360   48.2560 H   0  0  0  0  0  0  0  0  0  0  0  0
  181.3665   19.9720   44.7648 H   0  0  0  0  0  0  0  0  0  0  0  0
  183.5782   20.3645   43.7039 H   0  0  0  0  0  0  0  0  0  0  0  0
  183.5155   24.3478   48.3515 H   0  0  0  0  0  0  0  0  0  0  0  0
  184.6036   22.9526   48.6779 H   0  0  0  0  0  0  0  0  0  0  0  0
  185.4463   25.0804   49.7144 H   0  0  0  0  0  0  0  0  0  0  0  0
  186.5795   24.4064   48.4620 H   0  0  0  0  0  0  0  0  0  0  0  0
  1  2  1  0
  2  3  1  0
  3  4  1  0
  4  5  1  0
  5  6  1  0
  6  7  2  0
  7  8  1  0
  8  9  1  0
  9 10  1  0
 10 11  1  0
 11 12  2  0
 12 13  1  0
 13 14  2  0
 14 15  1  0
 15 16  1  0
 15 17  2  0
 17 18  1  0
 18 19  2  0
 18 20  1  0
 20 21  1  0
  8 22  2  0
 22 23  1  0
 23 24  2  0
 24 25  1  0
 25 26  1  0
 25 27  1  0
 25 28  1  0
  5 29  1  0
 29 30  1  0
 30  2  1  0
 24  6  1  0
 20  9  2  0
 17 11  1  0
  1 31  1  0
  1 32  1  0
  1 33  1  0
  2 34  1  0
  3 35  1  0
  3 36  1  0
  4 37  1  0
  4 38  1  0
  7 39  1  0
 12 40  1  0
 13 41  1  0
 14 42  1  0
 16 43  1  0
 21 44  1  0
 22 45  1  0
 23 46  1  0
 29 47  1  0
 29 48  1  0
 30 49  1  0
 30 50  1  0
M  CHG  1   2   1
M  END
>  <meeko>  (6) 
{"is_sidechain": [false], "free_energy": -4.519, "intermolecular_energy": -5.765, "internal_energy": 0.29}

$$$$
cand_056_out
     RDKit          3D

 50 53  0  0  0  0  0  0  0  0999 V2000
  187.2780   25.4160   51.7890 C   0  0  0  0  0  0  0  0  0  0  0  0
  186.5760   24.6670   50.7480 N   0  0  0  0  0  0  0  0  0  0  0  0
  185.4860   25.4850   50.1650 C   0  0  0  0  0  0  0  0  0  0  0  0
  184.7490   24.7540   49.0170 C   0  0  0  0  0  0  0  0  0  0  0  0
  185.7170   24.3630   47.9660 N   0  0  0  0  0  0  0  0  0  0  0  0
  185.1130   23.8090   46.8240 C   0  0  0  0  0  0  0  0  0  0  0  0
  184.0570   22.8820   46.9150 C   0  0  0  0  0  0  0  0  0  0  0  0
  183.4480   22.3360   45.7760 C   0  0  0  0  0  0  0  0  0  0  0  0
  182.3530   21.3500   45.8790 C   0  0  0  0  0  0  0  0  0  0  0  0
  182.5500   20.2360   45.0710 O   0  0  0  0  0  0  0  0  0  0  0  0
  181.6060   19.2410   45.0730 C   0  0  0  0  0  0  0  0  0  0  0  0
  181.8510   18.1350   44.2570 C   0  0  0  0  0  0  0  0  0  0  0  0
  180.9290   17.0870   44.2110 C   0  0  0  0  0  0  0  0  0  0  0  0
  179.7630   17.1450   44.9780 C   0  0  0  0  0  0  0  0  0  0  0  0
  179.5220   18.2500   45.7900 C   0  0  0  0  0  0  0  0  0  0  0  0
  178.3600   18.2430   46.5130 O   0  0  0  0  0  0  0  0  0  0  0  0
  180.4440   19.2990   45.8370 C   0  0  0  0  0  0  0  0  0  0  0  0
  180.2280   20.4780   46.6750 C   0  0  0  0  0  0  0  0  0  0  0  0
  179.2240   20.6070   47.3730 O   0  0  0  0  0  0  0  0  0  0  0  0
  181.2710   21.5300   46.6600 C   0  0  0  0  0  0  0  0  0  0  0  0
  181.0520   22.6460   47.4450 O   0  0  0  0  0  0  0  0  0  0  0  0
  183.9270   22.7170   44.5180 C   0  0  0  0  0  0  0  0  0  0  0  0
  184.9760   23.6310   44.4070 C   0  0  0  0  0  0  0  0  0  0  0  0
  185.5780   24.1860   45.5510 C   0  0  0  0  0  0  0  0  0  0  0  0
  186.7080   25.1750   45.4030 C   0  0  0  0  0  0  0  0  0  0  0  0
  186.8550   25.6170   44.1150 F   0  0  0  0  0  0  0  0  0  0  0  0
  187.9300   24.6660   45.7370 F   0  0  0  0  0  0  0  0  0  0  0  0
  186.5470   26.3100   46.1440 F   0  0  0  0  0  0  0  0  0  0  0  0
  186.8060   23.5220   48.5170 C   0  0  0  0  0  0  0  0  0  0  0  0
  187.5150   24.2690   49.6730 C   0  0  0  0  0  0  0  0  0  0  0  0
  186.9491   25.0651   52.7783 H   0  0  0  0  0  0  0  0  0  0  0  0
  188.3619   25.2591   51.6860 H   0  0  0  0  0  0  0  0  0  0  0  0
  187.0512   26.4874   51.6860 H   0  0  0  0  0  0  0  0  0  0  0  0
  186.1790   23.8310   51.1770 H   0  0  0  0  0  0  0  0  0  0  0  0
  184.7599   25.7217   50.9566 H   0  0  0  0  0  0  0  0  0  0  0  0
  185.9378   26.3965   49.7467 H   0  0  0  0  0  0  0  0  0  0  0  0
  184.2577   23.8534   49.4139 H   0  0  0  0  0  0  0  0  0  0  0  0
  183.9953   25.4276   48.5832 H   0  0  0  0  0  0  0  0  0  0  0  0
  183.6991   22.5770   47.9094 H   0  0  0  0  0  0  0  0  0  0  0  0
  182.7683   18.0891   43.6516 H   0  0  0  0  0  0  0  0  0  0  0  0
  181.1214   16.2143   43.5696 H   0  0  0  0  0  0  0  0  0  0  0  0
  179.0369   16.3196   44.9406 H   0  0  0  0  0  0  0  0  0  0  0  0
  178.1910   18.9260   47.1330 H   0  0  0  0  0  0  0  0  0  0  0  0
  180.2410   23.1120   47.3820 H   0  0  0  0  0  0  0  0  0  0  0  0
  183.4736   22.2932   43.6098 H   0  0  0  0  0  0  0  0  0  0  0  0
  185.3376   23.9219   43.4097 H   0  0  0  0  0  0  0  0  0  0  0  0
  186.3831   22.5801   48.8965 H   0  0  0  0  0  0  0  0  0  0  0  0
  187.5359   23.3082   47.7223 H   0  0  0  0  0  0  0  0  0  0  0  0
  188.2833   23.6087   50.1016 H   0  0  0  0  0  0  0  0  0  0  0  0
  187.9580   25.1863   49.2579 H   0  0  0  0  0  0  0  0  0  0  0  0
  1  2  1  0
  2  3  1  0
  3  4  1  0
  4  5  1  0
  5  6  1  0
  6  7  2  0
  7  8  1  0
  8  9  1  0
  9 10  1  0
 10 11  1  0
 11 12  2  0
 12 13  1  0
 13 14  2  0
 14 15  1  0
 15 16  1  0
 15 17  2  0
 17 18  1  0
 18 19  2  0
 18 20  1  0
 20 21  1  0
  8 22  2  0
 22 23  1  0
 23 24  2  0
 24 25  1  0
 25 26  1  0
 25 27  1  0
 25 28  1  0
  5 29  1  0
 29 30  1  0
 30  2  1  0
 24  6  1  0
 20  9  2  0
 17 11  1  0
  1 31  1  0
  1 32  1  0
  1 33  1  0
  2 34  1  0
  3 35  1  0
  3 36  1  0
  4 37  1  0
  4 38  1  0
  7 39  1  0
 12 40  1  0
 13 41  1  0
 14 42  1  0
 16 43  1  0
 21 44  1  0
 22 45  1  0
 23 46  1  0
 29 47  1  0
 29 48  1  0
 30 49  1  0
 30 50  1  0
M  CHG  1   2   1
M  END
>  <meeko>  (7) 
{"is_sidechain": [false], "free_energy": -4.179, "intermolecular_energy": -4.656, "internal_energy": -0.399}

$$$$
cand_056_out
     RDKit          3D

 50 53  0  0  0  0  0  0  0  0999 V2000
  180.4700   14.4770   43.1440 C   0  0  0  0  0  0  0  0  0  0  0  0
  180.9190   15.6710   43.8590 N   0  0  0  0  0  0  0  0  0  0  0  0
  180.9750   16.8340   42.9420 C   0  0  0  0  0  0  0  0  0  0  0  0
  181.3920   18.1370   43.6670 C   0  0  0  0  0  0  0  0  0  0  0  0
  180.4610   18.4090   44.7870 N   0  0  0  0  0  0  0  0  0  0  0  0
  180.6880   19.6450   45.4190 C   0  0  0  0  0  0  0  0  0  0  0  0
  181.9260   20.3090   45.3310 C   0  0  0  0  0  0  0  0  0  0  0  0
  182.1500   21.5470   45.9530 C   0  0  0  0  0  0  0  0  0  0  0  0
  183.4570   22.2300   45.8720 C   0  0  0  0  0  0  0  0  0  0  0  0
  184.1070   22.0160   44.6620 O   0  0  0  0  0  0  0  0  0  0  0  0
  185.3320   22.5960   44.4550 C   0  0  0  0  0  0  0  0  0  0  0  0
  185.9410   22.3660   43.2210 C   0  0  0  0  0  0  0  0  0  0  0  0
  187.1910   22.9260   42.9460 C   0  0  0  0  0  0  0  0  0  0  0  0
  187.8300   23.7150   43.9050 C   0  0  0  0  0  0  0  0  0  0  0  0
  187.2200   23.9430   45.1350 C   0  0  0  0  0  0  0  0  0  0  0  0
  187.9020   24.7230   46.0290 O   0  0  0  0  0  0  0  0  0  0  0  0
  185.9700   23.3830   45.4100 C   0  0  0  0  0  0  0  0  0  0  0  0
  185.2940   23.5960   46.6910 C   0  0  0  0  0  0  0  0  0  0  0  0
  185.7950   24.2720   47.5870 O   0  0  0  0  0  0  0  0  0  0  0  0
  183.9670   22.9650   46.8790 C   0  0  0  0  0  0  0  0  0  0  0  0
  183.3430   23.1610   48.0960 O   0  0  0  0  0  0  0  0  0  0  0  0
  181.1110   22.1150   46.6970 C   0  0  0  0  0  0  0  0  0  0  0  0
  179.8780   21.4690   46.8000 C   0  0  0  0  0  0  0  0  0  0  0  0
  179.6520   20.2340   46.1650 C   0  0  0  0  0  0  0  0  0  0  0  0
  178.3080   19.5580   46.2900 C   0  0  0  0  0  0  0  0  0  0  0  0
  177.3960   20.0290   45.3830 F   0  0  0  0  0  0  0  0  0  0  0  0
  177.7150   19.7380   47.5050 F   0  0  0  0  0  0  0  0  0  0  0  0
  178.3480   18.2110   46.0750 F   0  0  0  0  0  0  0  0  0  0  0  0
  180.4050   17.2710   45.7340 C   0  0  0  0  0  0  0  0  0  0  0  0
  180.0030   15.9790   44.9820 C   0  0  0  0  0  0  0  0  0  0  0  0
  180.1789   13.7030   43.8694 H   0  0  0  0  0  0  0  0  0  0  0  0
  179.6060   14.7311   42.5124 H   0  0  0  0  0  0  0  0  0  0  0  0
  181.2873   14.0988   42.5124 H   0  0  0  0  0  0  0  0  0  0  0  0
  181.8520   15.4840   44.2260 H   0  0  0  0  0  0  0  0  0  0  0  0
  181.7055   16.6225   42.1473 H   0  0  0  0  0  0  0  0  0  0  0  0
  179.9660   16.9865   42.5314 H   0  0  0  0  0  0  0  0  0  0  0  0
  182.4132   18.0252   44.0602 H   0  0  0  0  0  0  0  0  0  0  0  0
  181.3581   18.9750   42.9553 H   0  0  0  0  0  0  0  0  0  0  0  0
  182.7417   19.8440   44.7580 H   0  0  0  0  0  0  0  0  0  0  0  0
  185.4376   21.7446   42.4657 H   0  0  0  0  0  0  0  0  0  0  0  0
  187.6722   22.7454   41.9735 H   0  0  0  0  0  0  0  0  0  0  0  0
  188.8143   24.1557   43.6884 H   0  0  0  0  0  0  0  0  0  0  0  0
  188.7840   24.5080   46.2610 H   0  0  0  0  0  0  0  0  0  0  0  0
  182.5140   23.5970   48.1330 H   0  0  0  0  0  0  0  0  0  0  0  0
  181.2666   23.0782   47.2049 H   0  0  0  0  0  0  0  0  0  0  0  0
  179.0709   21.9324   47.3864 H   0  0  0  0  0  0  0  0  0  0  0  0
  181.3937   17.1317   46.1956 H   0  0  0  0  0  0  0  0  0  0  0  0
  179.6578   17.4842   46.5126 H   0  0  0  0  0  0  0  0  0  0  0  0
  180.0183   15.1382   45.6911 H   0  0  0  0  0  0  0  0  0  0  0  0
  178.9981   16.1341   44.5623 H   0  0  0  0  0  0  0  0  0  0  0  0
  1  2  1  0
  2  3  1  0
  3  4  1  0
  4  5  1  0
  5  6  1  0
  6  7  2  0
  7  8  1  0
  8  9  1  0
  9 10  1  0
 10 11  1  0
 11 12  2  0
 12 13  1  0
 13 14  2  0
 14 15  1  0
 15 16  1  0
 15 17  2  0
 17 18  1  0
 18 19  2  0
 18 20  1  0
 20 21  1  0
  8 22  2  0
 22 23  1  0
 23 24  2  0
 24 25  1  0
 25 26  1  0
 25 27  1  0
 25 28  1  0
  5 29  1  0
 29 30  1  0
 30  2  1  0
 24  6  1  0
 20  9  2  0
 17 11  1  0
  1 31  1  0
  1 32  1  0
  1 33  1  0
  2 34  1  0
  3 35  1  0
  3 36  1  0
  4 37  1  0
  4 38  1  0
  7 39  1  0
 12 40  1  0
 13 41  1  0
 14 42  1  0
 16 43  1  0
 21 44  1  0
 22 45  1  0
 23 46  1  0
 29 47  1  0
 29 48  1  0
 30 49  1  0
 30 50  1  0
M  CHG  1   2   1
M  END
>  <meeko>  (8) 
{"is_sidechain": [false], "free_energy": -4.031, "intermolecular_energy": -6.547, "internal_energy": 1.673}

$$$$
cand_056_out
     RDKit          3D

 50 53  0  0  0  0  0  0  0  0999 V2000
  180.6680   14.7800   43.1110 C   0  0  0  0  0  0  0  0  0  0  0  0
  181.0600   15.9480   43.8990 N   0  0  0  0  0  0  0  0  0  0  0  0
  181.1930   17.1400   43.0290 C   0  0  0  0  0  0  0  0  0  0  0  0
  181.5520   18.4160   43.8280 C   0  0  0  0  0  0  0  0  0  0  0  0
  180.5340   18.6550   44.8780 N   0  0  0  0  0  0  0  0  0  0  0  0
  180.7120   19.8680   45.5680 C   0  0  0  0  0  0  0  0  0  0  0  0
  181.9410   20.5540   45.5620 C   0  0  0  0  0  0  0  0  0  0  0  0
  182.1160   21.7690   46.2420 C   0  0  0  0  0  0  0  0  0  0  0  0
  183.4140   22.4750   46.2470 C   0  0  0  0  0  0  0  0  0  0  0  0
  183.7000   23.0730   47.4690 O   0  0  0  0  0  0  0  0  0  0  0  0
  184.8770   23.7610   47.6110 C   0  0  0  0  0  0  0  0  0  0  0  0
  185.1300   24.3340   48.8590 C   0  0  0  0  0  0  0  0  0  0  0  0
  186.3100   25.0500   49.0690 C   0  0  0  0  0  0  0  0  0  0  0  0
  187.2360   25.1950   48.0340 C   0  0  0  0  0  0  0  0  0  0  0  0
  186.9810   24.6230   46.7910 C   0  0  0  0  0  0  0  0  0  0  0  0
  187.9300   24.8040   45.8210 O   0  0  0  0  0  0  0  0  0  0  0  0
  185.8010   23.9050   46.5800 C   0  0  0  0  0  0  0  0  0  0  0  0
  185.4940   23.2900   45.2880 C   0  0  0  0  0  0  0  0  0  0  0  0
  186.2550   23.3780   44.3260 O   0  0  0  0  0  0  0  0  0  0  0  0
  184.2190   22.5440   45.1700 C   0  0  0  0  0  0  0  0  0  0  0  0
  183.9320   21.9770   43.9430 O   0  0  0  0  0  0  0  0  0  0  0  0
  181.0360   22.2920   46.9590 C   0  0  0  0  0  0  0  0  0  0  0  0
  179.8100   21.6240   46.9800 C   0  0  0  0  0  0  0  0  0  0  0  0
  179.6340   20.4120   46.2880 C   0  0  0  0  0  0  0  0  0  0  0  0
  178.2970   19.7120   46.3240 C   0  0  0  0  0  0  0  0  0  0  0  0
  177.7060   19.7700   47.5580 F   0  0  0  0  0  0  0  0  0  0  0  0
  178.3680   18.3790   46.0360 F   0  0  0  0  0  0  0  0  0  0  0  0
  177.3740   20.2430   45.4710 F   0  0  0  0  0  0  0  0  0  0  0  0
  180.3990   17.4860   45.7790 C   0  0  0  0  0  0  0  0  0  0  0  0
  180.0570   16.2220   44.9540 C   0  0  0  0  0  0  0  0  0  0  0  0
  180.3919   13.9574   43.7871 H   0  0  0  0  0  0  0  0  0  0  0  0
  179.8071   15.0378   42.4766 H   0  0  0  0  0  0  0  0  0  0  0  0
  181.5101   14.4663   42.4766 H   0  0  0  0  0  0  0  0  0  0  0  0
  181.9610   15.7440   44.3340 H   0  0  0  0  0  0  0  0  0  0  0  0
  181.9855   16.9513   42.2898 H   0  0  0  0  0  0  0  0  0  0  0  0
  180.2211   17.3108   42.5429 H   0  0  0  0  0  0  0  0  0  0  0  0
  182.5380   18.2869   44.2982 H   0  0  0  0  0  0  0  0  0  0  0  0
  181.5769   19.2772   43.1441 H   0  0  0  0  0  0  0  0  0  0  0  0
  182.7891   20.1252   45.0081 H   0  0  0  0  0  0  0  0  0  0  0  0
  184.4010   24.2215   49.6751 H   0  0  0  0  0  0  0  0  0  0  0  0
  186.5107   25.5009   50.0520 H   0  0  0  0  0  0  0  0  0  0  0  0
  188.1649   25.7600   48.2006 H   0  0  0  0  0  0  0  0  0  0  0  0
  188.1810   25.6700   45.5680 H   0  0  0  0  0  0  0  0  0  0  0  0
  184.1800   21.0900   43.7670 H   0  0  0  0  0  0  0  0  0  0  0  0
  181.1528   23.2365   47.5106 H   0  0  0  0  0  0  0  0  0  0  0  0
  178.9694   22.0518   47.5460 H   0  0  0  0  0  0  0  0  0  0  0  0
  181.3466   17.3268   46.3144 H   0  0  0  0  0  0  0  0  0  0  0  0
  179.5915   17.6766   46.5012 H   0  0  0  0  0  0  0  0  0  0  0  0
  180.0136   15.3578   45.6332 H   0  0  0  0  0  0  0  0  0  0  0  0
  179.0895   16.3954   44.4602 H   0  0  0  0  0  0  0  0  0  0  0  0
  1  2  1  0
  2  3  1  0
  3  4  1  0
  4  5  1  0
  5  6  1  0
  6  7  2  0
  7  8  1  0
  8  9  1  0
  9 10  1  0
 10 11  1  0
 11 12  2  0
 12 13  1  0
 13 14  2  0
 14 15  1  0
 15 16  1  0
 15 17  2  0
 17 18  1  0
 18 19  2  0
 18 20  1  0
 20 21  1  0
  8 22  2  0
 22 23  1  0
 23 24  2  0
 24 25  1  0
 25 26  1  0
 25 27  1  0
 25 28  1  0
  5 29  1  0
 29 30  1  0
 30  2  1  0
 24  6  1  0
 20  9  2  0
 17 11  1  0
  1 31  1  0
  1 32  1  0
  1 33  1  0
  2 34  1  0
  3 35  1  0
  3 36  1  0
  4 37  1  0
  4 38  1  0
  7 39  1  0
 12 40  1  0
 13 41  1  0
 14 42  1  0
 16 43  1  0
 21 44  1  0
 22 45  1  0
 23 46  1  0
 29 47  1  0
 29 48  1  0
 30 49  1  0
 30 50  1  0
M  CHG  1   2   1
M  END
>  <meeko>  (9) 
{"is_sidechain": [false], "free_energy": -3.699, "intermolecular_energy": -6.215, "internal_energy": 1.752}

$$$$
