native_SAG_out
     RDKit          3D

 39 40  0  0  0  0  0  0  0  0999 V2000
   54.2060  153.3920   23.1870 C   0  0  0  0  0  0  0  0  0  0  0  0
   53.8270  152.8480   24.5580 C   0  0  2  0  0  0  0  0  0  0  0  0
   53.7490  153.9940   25.5000 N   0  0  0  0  0  0  0  0  0  0  0  0
   52.6760  153.9930   26.2190 C   0  0  0  0  0  0  0  0  0  0  0  0
   52.4050  155.0510   27.2120 C   0  0  0  0  0  0  0  0  0  0  0  0
   52.9780  156.3190   27.0840 C   0  0  0  0  0  0  0  0  0  0  0  0
   52.7100  157.3100   28.0370 C   0  0  0  0  0  0  0  0  0  0  0  0
   51.8700  157.0330   29.1170 C   0  0  0  0  0  0  0  0  0  0  0  0
   51.5260  157.9020   30.1130 O   0  0  0  0  0  0  0  0  0  0  0  0
   51.2320  159.2450   29.7350 C   0  0  0  0  0  0  0  0  0  0  0  0
   49.9950  159.6760   30.4800 C   0  0  0  0  0  0  0  0  0  0  0  0
   48.9960  158.7450   30.8040 C   0  0  0  0  0  0  0  0  0  0  0  0
   47.8560  159.1380   31.5110 C   0  0  0  0  0  0  0  0  0  0  0  0
   47.7080  160.4670   31.9070 C   0  0  0  0  0  0  0  0  0  0  0  0
   48.7030  161.3870   31.6000 C   0  0  0  0  0  0  0  0  0  0  0  0
   48.5640  162.6610   31.9880 F   0  0  0  0  0  0  0  0  0  0  0  0
   49.8420  161.0070   30.8960 C   0  0  0  0  0  0  0  0  0  0  0  0
   51.3020  155.7610   29.2360 C   0  0  0  0  0  0  0  0  0  0  0  0
   51.5640  154.7680   28.2890 C   0  0  0  0  0  0  0  0  0  0  0  0
   54.9010  151.8720   25.0540 C   0  0  0  0  0  0  0  0  0  0  0  0
   56.0060  152.4620   25.6030 N   0  0  0  0  0  0  0  0  0  0  0  0
   54.8110  150.6530   24.9530 O   0  0  0  0  0  0  0  0  0  0  0  0
   54.8310  154.2890   23.3084 H   0  0  0  0  0  0  0  0  0  0  0  0
   54.7673  152.6265   22.6312 H   0  0  0  0  0  0  0  0  0  0  0  0
   53.2935  153.6534   22.6312 H   0  0  0  0  0  0  0  0  0  0  0  0
   52.8643  152.3195   24.4965 H   0  0  0  0  0  0  0  0  0  0  0  0
   51.9445  153.1820   26.0878 H   0  0  0  0  0  0  0  0  0  0  0  0
   53.6403  156.5392   26.2338 H   0  0  0  0  0  0  0  0  0  0  0  0
   53.1619  158.3076   27.9342 H   0  0  0  0  0  0  0  0  0  0  0  0
   52.0748  159.9006   29.9993 H   0  0  0  0  0  0  0  0  0  0  0  0
   51.0674  159.3100   28.6493 H   0  0  0  0  0  0  0  0  0  0  0  0
   49.1114  157.6947   30.4983 H   0  0  0  0  0  0  0  0  0  0  0  0
   47.0771  158.4004   31.7546 H   0  0  0  0  0  0  0  0  0  0  0  0
   46.8105  160.7845   32.4581 H   0  0  0  0  0  0  0  0  0  0  0  0
   50.6208  161.7491   30.6662 H   0  0  0  0  0  0  0  0  0  0  0  0
   50.6403  155.5393   30.0863 H   0  0  0  0  0  0  0  0  0  0  0  0
   51.1109  153.7709   28.3915 H   0  0  0  0  0  0  0  0  0  0  0  0
   56.0550  153.4430   25.6740 H   0  0  0  0  0  0  0  0  0  0  0  0
   56.7500  151.9060   25.9290 H   0  0  0  0  0  0  0  0  0  0  0  0
  1  2  1  0
  2  3  1  0
  3  4  2  0
  4  5  1  0
  5  6  2  0
  6  7  1  0
  7  8  2  0
  8  9  1  0
  9 10  1  0
 10 11  1  0
 11 12  2  0
 12 13  1  0
 13 14  2  0
 14 15  1  0
 15 16  1  0
 15 17  2  0
  8 18  1  0
 18 19  2  0
  2 20  1  0
 20 21  1  0
 20 22  2  0
 19  5  1  0
 17 11  1  0
  1 23  1  0
  1 24  1  0
  1 25  1  0
  2 26  1  6
  4 27  1  0
  6 28  1  0
  7 29  1  0
 10 30  1  0
 10 31  1  0
 12 32  1  0
 13 33  1  0
 14 34  1  0
 17 35  1  0
 18 36  1  0
 19 37  1  0
 21 38  1  0
 21 39  1  0
M  END
>  <meeko>  (1) 
{"is_sidechain": [false], "free_energy": -10.175, "intermolecular_energy": -13.745, "internal_energy": -0.612}

$$$$
native_SAG_out
     RDKit          3D

 39 40  0  0  0  0  0  0  0  0999 V2000
   47.4580  160.0120   31.6980 C   0  0  0  0  0  0  0  0  0  0  0  0
   48.5960  160.9830   31.4140 C   0  0  2  0  0  0  0  0  0  0  0  0
   49.6480  160.2500   30.6640 N   0  0  0  0  0  0  0  0  0  0  0  0
   49.5200  158.9660   30.7220 C   0  0  0  0  0  0  0  0  0  0  0  0
   50.4690  158.0590   30.0480 C   0  0  0  0  0  0  0  0  0  0  0  0
   51.6900  158.5310   29.5610 C   0  0  0  0  0  0  0  0  0  0  0  0
   52.5780  157.6550   28.9230 C   0  0  0  0  0  0  0  0  0  0  0  0
   52.2430  156.3080   28.7720 C   0  0  0  0  0  0  0  0  0  0  0  0
   53.0110  155.3500   28.1740 O   0  0  0  0  0  0  0  0  0  0  0  0
   52.3350  154.3510   27.4130 C   0  0  0  0  0  0  0  0  0  0  0  0
   53.1260  154.1150   26.1520 C   0  0  0  0  0  0  0  0  0  0  0  0
   53.8580  155.1570   25.5620 C   0  0  0  0  0  0  0  0  0  0  0  0
   54.6080  154.9360   24.4030 C   0  0  0  0  0  0  0  0  0  0  0  0
   54.6370  153.6670   23.8280 C   0  0  0  0  0  0  0  0  0  0  0  0
   53.9250  152.6300   24.4180 C   0  0  0  0  0  0  0  0  0  0  0  0
   53.9620  151.4090   23.8700 F   0  0  0  0  0  0  0  0  0  0  0  0
   53.1760  152.8390   25.5720 C   0  0  0  0  0  0  0  0  0  0  0  0
   51.0180  155.8450   29.2630 C   0  0  0  0  0  0  0  0  0  0  0  0
   50.1290  156.7140   29.9010 C   0  0  0  0  0  0  0  0  0  0  0  0
   49.1930  161.4950   32.7300 C   0  0  0  0  0  0  0  0  0  0  0  0
   50.4970  161.9000   32.6520 N   0  0  0  0  0  0  0  0  0  0  0  0
   48.5770  161.5240   33.7910 O   0  0  0  0  0  0  0  0  0  0  0  0
   47.3311  159.9037   32.7853 H   0  0  0  0  0  0  0  0  0  0  0  0
   46.5274  160.3986   31.2569 H   0  0  0  0  0  0  0  0  0  0  0  0
   47.6934  159.0322   31.2569 H   0  0  0  0  0  0  0  0  0  0  0  0
   48.2200  161.8389   30.8343 H   0  0  0  0  0  0  0  0  0  0  0  0
   48.6808  158.5370   31.2892 H   0  0  0  0  0  0  0  0  0  0  0  0
   51.9548  159.5922   29.6785 H   0  0  0  0  0  0  0  0  0  0  0  0
   53.5395  158.0286   28.5409 H   0  0  0  0  0  0  0  0  0  0  0  0
   52.2703  153.4189   27.9936 H   0  0  0  0  0  0  0  0  0  0  0  0
   51.3143  154.6805   27.1690 H   0  0  0  0  0  0  0  0  0  0  0  0
   53.8415  156.1586   26.0165 H   0  0  0  0  0  0  0  0  0  0  0  0
   55.1736  155.7615   23.9463 H   0  0  0  0  0  0  0  0  0  0  0  0
   55.2200  153.4874   22.9126 H   0  0  0  0  0  0  0  0  0  0  0  0
   52.6238  152.0045   26.0288 H   0  0  0  0  0  0  0  0  0  0  0  0
   50.7512  154.7843   29.1456 H   0  0  0  0  0  0  0  0  0  0  0  0
   49.1681  156.3403   30.2845 H   0  0  0  0  0  0  0  0  0  0  0  0
   50.9710  161.8680   31.7890 H   0  0  0  0  0  0  0  0  0  0  0  0
   50.9610  162.2250   33.4570 H   0  0  0  0  0  0  0  0  0  0  0  0
  1  2  1  0
  2  3  1  0
  3  4  2  0
  4  5  1  0
  5  6  2  0
  6  7  1  0
  7  8  2  0
  8  9  1  0
  9 10  1  0
 10 11  1  0
 11 12  2  0
 12 13  1  0
 13 14  2  0
 14 15  1  0
 15 16  1  0
 15 17  2  0
  8 18  1  0
 18 19  2  0
  2 20  1  0
 20 21  1  0
 20 22  2  0
 19  5  1  0
 17 11  1  0
  1 23  1  0
  1 24  1  0
  1 25  1  0
  2 26  1  6
  4 27  1  0
  6 28  1  0
  7 29  1  0
 10 30  1  0
 10 31  1  0
 12 32  1  0
 13 33  1  0
 14 34  1  0
 17 35  1  0
 18 36  1  0
 19 37  1  0
 21 38  1  0
 21 39  1  0
M  END
>  <meeko>  (2) 
{"is_sidechain": [false], "free_energy": -10.052, "intermolecular_energy": -13.509, "internal_energy": -0.681}

$$$$
native_SAG_out
     RDKit          3D

 39 40  0  0  0  0  0  0  0  0999 V2000
   54.1720  153.5750   23.3390 C   0  0  0  0  0  0  0  0  0  0  0  0
   53.7980  152.9360   24.6690 C   0  0  2  0  0  0  0  0  0  0  0  0
   53.7340  154.0110   25.6930 N   0  0  0  0  0  0  0  0  0  0  0  0
   52.5810  154.1020   26.2690 C   0  0  0  0  0  0  0  0  0  0  0  0
   52.3120  155.1110   27.3110 C   0  0  0  0  0  0  0  0  0  0  0  0
   51.4930  154.8140   28.4040 C   0  0  0  0  0  0  0  0  0  0  0  0
   51.2480  155.7850   29.3830 C   0  0  0  0  0  0  0  0  0  0  0  0
   51.8220  157.0530   29.2690 C   0  0  0  0  0  0  0  0  0  0  0  0
   51.6680  158.0880   30.1470 O   0  0  0  0  0  0  0  0  0  0  0  0
   51.1190  159.3010   29.6360 C   0  0  0  0  0  0  0  0  0  0  0  0
   50.2050  159.8750   30.6890 C   0  0  0  0  0  0  0  0  0  0  0  0
   50.6880  160.8050   31.6240 C   0  0  0  0  0  0  0  0  0  0  0  0
   49.8380  161.3520   32.5890 C   0  0  0  0  0  0  0  0  0  0  0  0
   48.4960  160.9790   32.6250 C   0  0  0  0  0  0  0  0  0  0  0  0
   48.0130  160.0700   31.6920 C   0  0  0  0  0  0  0  0  0  0  0  0
   46.7200  159.7200   31.7210 F   0  0  0  0  0  0  0  0  0  0  0  0
   48.8490  159.5190   30.7260 C   0  0  0  0  0  0  0  0  0  0  0  0
   52.6400  157.3410   28.1720 C   0  0  0  0  0  0  0  0  0  0  0  0
   52.8880  156.3760   27.1920 C   0  0  0  0  0  0  0  0  0  0  0  0
   54.8670  151.9180   25.0860 C   0  0  0  0  0  0  0  0  0  0  0  0
   56.0160  152.4640   25.5880 N   0  0  0  0  0  0  0  0  0  0  0  0
   54.7350  150.7050   24.9630 O   0  0  0  0  0  0  0  0  0  0  0  0
   54.7198  154.5110   23.5231 H   0  0  0  0  0  0  0  0  0  0  0  0
   54.8084  152.8842   22.7664 H   0  0  0  0  0  0  0  0  0  0  0  0
   53.2581  153.7916   22.7664 H   0  0  0  0  0  0  0  0  0  0  0  0
   52.8308  152.4204   24.5752 H   0  0  0  0  0  0  0  0  0  0  0  0
   51.7790  153.4090   25.9747 H   0  0  0  0  0  0  0  0  0  0  0  0
   51.0401  153.8158   28.4954 H   0  0  0  0  0  0  0  0  0  0  0  0
   50.6031  155.5488   30.2422 H   0  0  0  0  0  0  0  0  0  0  0  0
   51.9275  160.0131   29.4143 H   0  0  0  0  0  0  0  0  0  0  0  0
   50.5612  159.1083   28.7077 H   0  0  0  0  0  0  0  0  0  0  0  0
   51.7457  161.1058   31.5965 H   0  0  0  0  0  0  0  0  0  0  0  0
   50.2280  162.0762   33.3193 H   0  0  0  0  0  0  0  0  0  0  0  0
   47.8239  161.4012   33.3866 H   0  0  0  0  0  0  0  0  0  0  0  0
   48.4469  158.8050   29.9922 H   0  0  0  0  0  0  0  0  0  0  0  0
   53.0936  158.3388   28.0793 H   0  0  0  0  0  0  0  0  0  0  0  0
   53.5329  156.6123   26.3328 H   0  0  0  0  0  0  0  0  0  0  0  0
   56.0980  153.4410   25.6780 H   0  0  0  0  0  0  0  0  0  0  0  0
   56.7600  151.8790   25.8620 H   0  0  0  0  0  0  0  0  0  0  0  0
  1  2  1  0
  2  3  1  0
  3  4  2  0
  4  5  1  0
  5  6  2  0
  6  7  1  0
  7  8  2  0
  8  9  1  0
  9 10  1  0
 10 11  1  0
 11 12  2  0
 12 13  1  0
 13 14  2  0
 14 15  1  0
 15 16  1  0
 15 17  2  0
  8 18  1  0
 18 19  2  0
  2 20  1  0
 20 21  1  0
 20 22  2  0
 19  5  1  0
 17 11  1  0
  1 23  1  0
  1 24  1  0
  1 25  1  0
  2 26  1  6
  4 27  1  0
  6 28  1  0
  7 29  1  0
 10 30  1  0
 10 31  1  0
 12 32  1  0
 13 33  1  0
 14 34  1  0
 17 35  1  0
 18 36  1  0
 19 37  1  0
 21 38  1  0
 21 39  1  0
M  END
>  <meeko>  (3) 
{"is_sidechain": [false], "free_energy": -9.959, "intermolecular_energy": -13.5, "internal_energy": -0.565}

$$$$
native_SAG_out
     RDKit          3D

 39 40  0  0  0  0  0  0  0  0999 V2000
   47.6510  160.3450   31.3920 C   0  0  0  0  0  0  0  0  0  0  0  0
   48.9360  161.1510   31.2600 C   0  0  2  0  0  0  0  0  0  0  0  0
   49.9210  160.3250   30.5160 N   0  0  0  0  0  0  0  0  0  0  0  0
   49.7320  159.0550   30.6530 C   0  0  0  0  0  0  0  0  0  0  0  0
   50.6090  158.0640   29.9980 C   0  0  0  0  0  0  0  0  0  0  0  0
   51.8350  158.4440   29.4470 C   0  0  0  0  0  0  0  0  0  0  0  0
   52.6530  157.4900   28.8290 C   0  0  0  0  0  0  0  0  0  0  0  0
   52.2450  156.1560   28.7630 C   0  0  0  0  0  0  0  0  0  0  0  0
   52.9410  155.1280   28.1930 O   0  0  0  0  0  0  0  0  0  0  0  0
   52.1910  154.1490   27.4790 C   0  0  0  0  0  0  0  0  0  0  0  0
   53.0140  153.7080   26.2950 C   0  0  0  0  0  0  0  0  0  0  0  0
   53.0840  152.3520   25.9390 C   0  0  0  0  0  0  0  0  0  0  0  0
   53.8310  151.9430   24.8300 C   0  0  0  0  0  0  0  0  0  0  0  0
   54.5100  152.8880   24.0630 C   0  0  0  0  0  0  0  0  0  0  0  0
   54.4300  154.2330   24.4060 C   0  0  0  0  0  0  0  0  0  0  0  0
   55.0750  155.1410   23.6620 F   0  0  0  0  0  0  0  0  0  0  0  0
   53.6890  154.6510   25.5070 C   0  0  0  0  0  0  0  0  0  0  0  0
   51.0160  155.7860   29.3170 C   0  0  0  0  0  0  0  0  0  0  0  0
   50.1950  156.7330   29.9360 C   0  0  0  0  0  0  0  0  0  0  0  0
   49.5050  161.4700   32.6480 C   0  0  0  0  0  0  0  0  0  0  0  0
   50.7600  162.0130   32.6440 N   0  0  0  0  0  0  0  0  0  0  0  0
   48.9110  161.2380   33.6960 O   0  0  0  0  0  0  0  0  0  0  0  0
   47.4177  160.1987   32.4570 H   0  0  0  0  0  0  0  0  0  0  0  0
   46.8262  160.8879   30.9072 H   0  0  0  0  0  0  0  0  0  0  0  0
   47.7807  159.3662   30.9072 H   0  0  0  0  0  0  0  0  0  0  0  0
   48.7315  162.0943   30.7324 H   0  0  0  0  0  0  0  0  0  0  0  0
   48.8955  158.7020   31.2741 H   0  0  0  0  0  0  0  0  0  0  0  0
   52.1584  159.4941   29.4986 H   0  0  0  0  0  0  0  0  0  0  0  0
   53.6178  157.7917   28.3952 H   0  0  0  0  0  0  0  0  0  0  0  0
   51.9834  153.2881   28.1315 H   0  0  0  0  0  0  0  0  0  0  0  0
   51.2319  154.5704   27.1436 H   0  0  0  0  0  0  0  0  0  0  0  0
   52.5456  151.6033   26.5387 H   0  0  0  0  0  0  0  0  0  0  0  0
   53.8827  150.8770   24.5634 H   0  0  0  0  0  0  0  0  0  0  0  0
   55.1046  152.5722   23.1931 H   0  0  0  0  0  0  0  0  0  0  0  0
   53.6328  155.7203   25.7590 H   0  0  0  0  0  0  0  0  0  0  0  0
   50.6909  154.7364   29.2652 H   0  0  0  0  0  0  0  0  0  0  0  0
   49.2306  156.4314   30.3706 H   0  0  0  0  0  0  0  0  0  0  0  0
   51.2170  162.1910   31.7900 H   0  0  0  0  0  0  0  0  0  0  0  0
   51.2050  162.2290   33.4960 H   0  0  0  0  0  0  0  0  0  0  0  0
  1  2  1  0
  2  3  1  0
  3  4  2  0
  4  5  1  0
  5  6  2  0
  6  7  1  0
  7  8  2  0
  8  9  1  0
  9 10  1  0
 10 11  1  0
 11 12  2  0
 12 13  1  0
 13 14  2  0
 14 15  1  0
 15 16  1  0
 15 17  2  0
  8 18  1  0
 18 19  2  0
  2 20  1  0
 20 21  1  0
 20 22  2  0
 19  5  1  0
 17 11  1  0
  1 23  1  0
  1 24  1  0
  1 25  1  0
  2 26  1  6
  4 27  1  0
  6 28  1  0
  7 29  1  0
 10 30  1  0
 10 31  1  0
 12 32  1  0
 13 33  1  0
 14 34  1  0
 17 35  1  0
 18 36  1  0
 19 37  1  0
 21 38  1  0
 21 39  1  0
M  END
>  <meeko>  (4) 
{"is_sidechain": [false], "free_energy": -9.796, "intermolecular_energy": -13.153, "internal_energy": -0.691}

$$$$
native_SAG_out
     RDKit          3D

 39 40  0  0  0  0  0  0  0  0999 V2000
   54.9420  151.5700   25.1510 C   0  0  0  0  0  0  0  0  0  0  0  0
   53.4320  151.5150   25.3390 C   0  0  2  0  0  0  0  0  0  0  0  0
   53.0780  152.4030   26.4760 N   0  0  0  0  0  0  0  0  0  0  0  0
   52.8690  153.6280   26.1240 C   0  0  0  0  0  0  0  0  0  0  0  0
   52.5120  154.6690   27.1080 C   0  0  0  0  0  0  0  0  0  0  0  0
   52.9640  155.9820   26.9590 C   0  0  0  0  0  0  0  0  0  0  0  0
   52.6150  156.9560   27.9040 C   0  0  0  0  0  0  0  0  0  0  0  0
   51.8130  156.6170   28.9950 C   0  0  0  0  0  0  0  0  0  0  0  0
   51.3990  157.4630   29.9840 O   0  0  0  0  0  0  0  0  0  0  0  0
   51.4230  158.8600   29.7010 C   0  0  0  0  0  0  0  0  0  0  0  0
   50.4120  159.5310   30.5950 C   0  0  0  0  0  0  0  0  0  0  0  0
   50.8200  160.4790   31.5480 C   0  0  0  0  0  0  0  0  0  0  0  0
   49.8820  161.1160   32.3660 C   0  0  0  0  0  0  0  0  0  0  0  0
   48.5270  160.8170   32.2330 C   0  0  0  0  0  0  0  0  0  0  0  0
   48.1210  159.8900   31.2810 C   0  0  0  0  0  0  0  0  0  0  0  0
   46.8180  159.6100   31.1480 F   0  0  0  0  0  0  0  0  0  0  0  0
   49.0450  159.2490   30.4610 C   0  0  0  0  0  0  0  0  0  0  0  0
   51.3650  155.3000   29.1340 C   0  0  0  0  0  0  0  0  0  0  0  0
   51.7090  154.3230   28.1960 C   0  0  0  0  0  0  0  0  0  0  0  0
   52.9930  150.0840   25.6740 C   0  0  0  0  0  0  0  0  0  0  0  0
   51.9970  149.9910   26.6060 N   0  0  0  0  0  0  0  0  0  0  0  0
   53.5000  149.0840   25.1770 O   0  0  0  0  0  0  0  0  0  0  0  0
   55.4336  151.5879   26.1349 H   0  0  0  0  0  0  0  0  0  0  0  0
   55.2743  150.6834   24.5911 H   0  0  0  0  0  0  0  0  0  0  0  0
   55.2089  152.4785   24.5911 H   0  0  0  0  0  0  0  0  0  0  0  0
   52.9300  151.8363   24.4145 H   0  0  0  0  0  0  0  0  0  0  0  0
   52.9594  153.9029   25.0628 H   0  0  0  0  0  0  0  0  0  0  0  0
   53.5946  156.2518   26.0990 H   0  0  0  0  0  0  0  0  0  0  0  0
   52.9736  157.9892   27.7859 H   0  0  0  0  0  0  0  0  0  0  0  0
   52.4260  159.2648   29.9013 H   0  0  0  0  0  0  0  0  0  0  0  0
   51.1796  159.0411   28.6437 H   0  0  0  0  0  0  0  0  0  0  0  0
   51.8877  160.7225   31.6517 H   0  0  0  0  0  0  0  0  0  0  0  0
   50.2128  161.8521   33.1135 H   0  0  0  0  0  0  0  0  0  0  0  0
   47.7847  161.3113   32.8770 H   0  0  0  0  0  0  0  0  0  0  0  0
   48.7035  158.5224   29.7091 H   0  0  0  0  0  0  0  0  0  0  0  0
   50.7335  155.0293   29.9930 H   0  0  0  0  0  0  0  0  0  0  0  0
   51.3500  153.2900   28.3141 H   0  0  0  0  0  0  0  0  0  0  0  0
   51.6060  150.8080   26.9910 H   0  0  0  0  0  0  0  0  0  0  0  0
   51.6710  149.1070   26.8910 H   0  0  0  0  0  0  0  0  0  0  0  0
  1  2  1  0
  2  3  1  0
  3  4  2  0
  4  5  1  0
  5  6  2  0
  6  7  1  0
  7  8  2  0
  8  9  1  0
  9 10  1  0
 10 11  1  0
 11 12  2  0
 12 13  1  0
 13 14  2  0
 14 15  1  0
 15 16  1  0
 15 17  2  0
  8 18  1  0
 18 19  2  0
  2 20  1  0
 20 21  1  0
 20 22  2  0
 19  5  1  0
 17 11  1  0
  1 23  1  0
  1 24  1  0
  1 25  1  0
  2 26  1  6
  4 27  1  0
  6 28  1  0
  7 29  1  0
 10 30  1  0
 10 31  1  0
 12 32  1  0
 13 33  1  0
 14 34  1  0
 17 35  1  0
 18 36  1  0
 19 37  1  0
 21 38  1  0
 21 39  1  0
M  END
>  <meeko>  (5) 
{"is_sidechain": [false], "free_energy": -9.793, "intermolecular_energy": -13.3, "internal_energy": -0.54}

$$$$
native_SAG_out
     RDKit          3D

 39 40  0  0  0  0  0  0  0  0999 V2000
   51.1290  160.9090   31.9630 C   0  0  0  0  0  0  0  0  0  0  0  0
   51.8530  161.1360   30.6430 C   0  0  2  0  0  0  0  0  0  0  0  0
   52.1860  159.8080   30.0680 N   0  0  0  0  0  0  0  0  0  0  0  0
   51.1750  159.0060   30.0100 C   0  0  0  0  0  0  0  0  0  0  0  0
   51.3000  157.6360   29.4760 C   0  0  0  0  0  0  0  0  0  0  0  0
   50.3440  156.6600   29.7720 C   0  0  0  0  0  0  0  0  0  0  0  0
   50.4790  155.3650   29.2560 C   0  0  0  0  0  0  0  0  0  0  0  0
   51.5700  155.0460   28.4460 C   0  0  0  0  0  0  0  0  0  0  0  0
   51.8240  153.8280   27.8790 O   0  0  0  0  0  0  0  0  0  0  0  0
   53.1880  153.4270   27.7780 C   0  0  0  0  0  0  0  0  0  0  0  0
   53.4920  153.1850   26.3220 C   0  0  0  0  0  0  0  0  0  0  0  0
   53.6610  154.2630   25.4390 C   0  0  0  0  0  0  0  0  0  0  0  0
   53.9610  154.0420   24.0910 C   0  0  0  0  0  0  0  0  0  0  0  0
   54.1020  152.7400   23.6160 C   0  0  0  0  0  0  0  0  0  0  0  0
   53.9490  151.6710   24.4920 C   0  0  0  0  0  0  0  0  0  0  0  0
   54.0940  150.4200   24.0360 F   0  0  0  0  0  0  0  0  0  0  0  0
   53.6510  151.8790   25.8350 C   0  0  0  0  0  0  0  0  0  0  0  0
   52.5220  156.0290   28.1560 C   0  0  0  0  0  0  0  0  0  0  0  0
   52.3920  157.3230   28.6660 C   0  0  0  0  0  0  0  0  0  0  0  0
   53.1540  161.9130   30.8800 C   0  0  0  0  0  0  0  0  0  0  0  0
   53.7990  161.6120   32.0480 N   0  0  0  0  0  0  0  0  0  0  0  0
   53.5880  162.7630   30.1100 O   0  0  0  0  0  0  0  0  0  0  0  0
   51.8126  161.1233   32.7977 H   0  0  0  0  0  0  0  0  0  0  0  0
   50.2570  161.5768   32.0225 H   0  0  0  0  0  0  0  0  0  0  0  0
   50.7944  159.8628   32.0225 H   0  0  0  0  0  0  0  0  0  0  0  0
   51.2112  161.7131   29.9611 H   0  0  0  0  0  0  0  0  0  0  0  0
   50.1948  159.3535   30.3682 H   0  0  0  0  0  0  0  0  0  0  0  0
   49.4843  156.9095   30.4112 H   0  0  0  0  0  0  0  0  0  0  0  0
   49.7248  154.5989   29.4892 H   0  0  0  0  0  0  0  0  0  0  0  0
   53.8411  154.2209   28.1694 H   0  0  0  0  0  0  0  0  0  0  0  0
   53.3633  152.5125   28.3636 H   0  0  0  0  0  0  0  0  0  0  0  0
   53.5563  155.2928   25.8113 H   0  0  0  0  0  0  0  0  0  0  0  0
   54.0854  154.8946   23.4072 H   0  0  0  0  0  0  0  0  0  0  0  0
   54.3327  152.5589   22.5558 H   0  0  0  0  0  0  0  0  0  0  0  0
   53.5402  151.0207   26.5140 H   0  0  0  0  0  0  0  0  0  0  0  0
   53.3833  155.7801   27.5187 H   0  0  0  0  0  0  0  0  0  0  0  0
   53.1450  158.0895   28.4307 H   0  0  0  0  0  0  0  0  0  0  0  0
   53.4310  160.9260   32.6500 H   0  0  0  0  0  0  0  0  0  0  0  0
   54.6320  162.0800   32.2850 H   0  0  0  0  0  0  0  0  0  0  0  0
  1  2  1  0
  2  3  1  0
  3  4  2  0
  4  5  1  0
  5  6  2  0
  6  7  1  0
  7  8  2  0
  8  9  1  0
  9 10  1  0
 10 11  1  0
 11 12  2  0
 12 13  1  0
 13 14  2  0
 14 15  1  0
 15 16  1  0
 15 17  2  0
  8 18  1  0
 18 19  2  0
  2 20  1  0
 20 21  1  0
 20 22  2  0
 19  5  1  0
 17 11  1  0
  1 23  1  0
  1 24  1  0
  1 25  1  0
  2 26  1  6
  4 27  1  0
  6 28  1  0
  7 29  1  0
 10 30  1  0
 10 31  1  0
 12 32  1  0
 13 33  1  0
 14 34  1  0
 17 35  1  0
 18 36  1  0
 19 37  1  0
 21 38  1  0
 21 39  1  0
M  END
>  <meeko>  (6) 
{"is_sidechain": [false], "free_energy": -9.735, "intermolecular_energy": -13.247, "internal_energy": -0.515}

$$$$
native_SAG_out
     RDKit          3D

 39 40  0  0  0  0  0  0  0  0999 V2000
   52.7600  151.4370   25.7350 C   0  0  0  0  0  0  0  0  0  0  0  0
   54.0780  152.1550   25.9910 C   0  0  2  0  0  0  0  0  0  0  0  0
   53.8410  153.1930   27.0270 N   0  0  0  0  0  0  0  0  0  0  0  0
   52.8390  153.9630   26.7610 C   0  0  0  0  0  0  0  0  0  0  0  0
   52.4430  155.0620   27.6630 C   0  0  0  0  0  0  0  0  0  0  0  0
   51.5310  154.8470   28.7000 C   0  0  0  0  0  0  0  0  0  0  0  0
   51.1670  155.9030   29.5450 C   0  0  0  0  0  0  0  0  0  0  0  0
   51.7160  157.1720   29.3540 C   0  0  0  0  0  0  0  0  0  0  0  0
   51.4500  158.2850   30.1020 O   0  0  0  0  0  0  0  0  0  0  0  0
   50.5580  159.2480   29.5450 C   0  0  0  0  0  0  0  0  0  0  0  0
   49.7120  159.7960   30.6650 C   0  0  0  0  0  0  0  0  0  0  0  0
   48.3490  159.4690   30.7560 C   0  0  0  0  0  0  0  0  0  0  0  0
   47.5660  159.9620   31.8040 C   0  0  0  0  0  0  0  0  0  0  0  0
   48.1400  160.7810   32.7750 C   0  0  0  0  0  0  0  0  0  0  0  0
   49.4920  161.0940   32.6940 C   0  0  0  0  0  0  0  0  0  0  0  0
   50.0450  161.8730   33.6330 F   0  0  0  0  0  0  0  0  0  0  0  0
   50.2810  160.6090   31.6560 C   0  0  0  0  0  0  0  0  0  0  0  0
   52.6280  157.3770   28.3150 C   0  0  0  0  0  0  0  0  0  0  0  0
   52.9950  156.3280   27.4680 C   0  0  0  0  0  0  0  0  0  0  0  0
   54.5650  152.8390   24.7070 C   0  0  0  0  0  0  0  0  0  0  0  0
   54.0600  152.3160   23.5490 N   0  0  0  0  0  0  0  0  0  0  0  0
   55.3660  153.7680   24.6940 O   0  0  0  0  0  0  0  0  0  0  0  0
   52.2895  151.1807   26.6957 H   0  0  0  0  0  0  0  0  0  0  0  0
   52.0895  152.0945   25.1622 H   0  0  0  0  0  0  0  0  0  0  0  0
   52.9488  150.5171   25.1622 H   0  0  0  0  0  0  0  0  0  0  0  0
   54.8383  151.4320   26.3215 H   0  0  0  0  0  0  0  0  0  0  0  0
   52.2654  153.7953   25.8375 H   0  0  0  0  0  0  0  0  0  0  0  0
   51.0985  153.8472   28.8527 H   0  0  0  0  0  0  0  0  0  0  0  0
   50.4480  155.7322   30.3597 H   0  0  0  0  0  0  0  0  0  0  0  0
   51.1311  160.0617   29.0766 H   0  0  0  0  0  0  0  0  0  0  0  0
   49.9229  158.7833   28.7764 H   0  0  0  0  0  0  0  0  0  0  0  0
   47.8931  158.8185   29.9951 H   0  0  0  0  0  0  0  0  0  0  0  0
   46.4983  159.7039   31.8623 H   0  0  0  0  0  0  0  0  0  0  0  0
   47.5279  161.1766   33.5989 H   0  0  0  0  0  0  0  0  0  0  0  0
   51.3504  160.8630   31.6125 H   0  0  0  0  0  0  0  0  0  0  0  0
   53.0621  158.3761   28.1622 H   0  0  0  0  0  0  0  0  0  0  0  0
   53.7140  156.4994   26.6534 H   0  0  0  0  0  0  0  0  0  0  0  0
   53.4180  151.5700   23.5850 H   0  0  0  0  0  0  0  0  0  0  0  0
   54.3370  152.6860   22.6800 H   0  0  0  0  0  0  0  0  0  0  0  0
  1  2  1  0
  2  3  1  0
  3  4  2  0
  4  5  1  0
  5  6  2  0
  6  7  1  0
  7  8  2  0
  8  9  1  0
  9 10  1  0
 10 11  1  0
 11 12  2  0
 12 13  1  0
 13 14  2  0
 14 15  1  0
 15 16  1  0
 15 17  2  0
  8 18  1  0
 18 19  2  0
  2 20  1  0
 20 21  1  0
 20 22  2  0
 19  5  1  0
 17 11  1  0
  1 23  1  0
  1 24  1  0
  1 25  1  0
  2 26  1  1
  4 27  1  0
  6 28  1  0
  7 29  1  0
 10 30  1  0
 10 31  1  0
 12 32  1  0
 13 33  1  0
 14 34  1  0
 17 35  1  0
 18 36  1  0
 19 37  1  0
 21 38  1  0
 21 39  1  0
M  END
>  <meeko>  (7) 
{"is_sidechain": [false], "free_energy": -9.154, "intermolecular_energy": -12.46, "internal_energy": -0.518}

$$$$
native_SAG_out
     RDKit          3D

 39 40  0  0  0  0  0  0  0  0999 V2000
   54.9920  153.9030   23.2780 C   0  0  0  0  0  0  0  0  0  0  0  0
   54.0370  153.2570   24.2720 C   0  0  2  0  0  0  0  0  0  0  0  0
   53.7800  154.2330   25.3620 N   0  0  0  0  0  0  0  0  0  0  0  0
   52.6740  154.0190   25.9920 C   0  0  0  0  0  0  0  0  0  0  0  0
   52.2340  154.8820   27.1060 C   0  0  0  0  0  0  0  0  0  0  0  0
   52.7440  156.1740   27.2570 C   0  0  0  0  0  0  0  0  0  0  0  0
   52.3140  156.9780   28.3210 C   0  0  0  0  0  0  0  0  0  0  0  0
   51.3750  156.4910   29.2310 C   0  0  0  0  0  0  0  0  0  0  0  0
   50.8720  157.1650   30.3080 O   0  0  0  0  0  0  0  0  0  0  0  0
   49.7070  157.9590   30.0950 C   0  0  0  0  0  0  0  0  0  0  0  0
   49.8020  159.1680   30.9890 C   0  0  0  0  0  0  0  0  0  0  0  0
   48.8400  159.3950   31.9870 C   0  0  0  0  0  0  0  0  0  0  0  0
   48.9350  160.5060   32.8300 C   0  0  0  0  0  0  0  0  0  0  0  0
   49.9970  161.3970   32.6870 C   0  0  0  0  0  0  0  0  0  0  0  0
   50.9580  161.1670   31.7100 C   0  0  0  0  0  0  0  0  0  0  0  0
   51.9830  162.0190   31.5800 F   0  0  0  0  0  0  0  0  0  0  0  0
   50.8730  160.0640   30.8650 C   0  0  0  0  0  0  0  0  0  0  0  0
   50.8710  155.1960   29.0710 C   0  0  0  0  0  0  0  0  0  0  0  0
   51.2940  154.3890   28.0120 C   0  0  0  0  0  0  0  0  0  0  0  0
   54.6730  151.9980   24.8750 C   0  0  0  0  0  0  0  0  0  0  0  0
   54.0060  150.8340   24.6120 N   0  0  0  0  0  0  0  0  0  0  0  0
   55.6860  152.0130   25.5660 O   0  0  0  0  0  0  0  0  0  0  0  0
   55.7829  154.4380   23.8241 H   0  0  0  0  0  0  0  0  0  0  0  0
   55.4448  153.1250   22.6458 H   0  0  0  0  0  0  0  0  0  0  0  0
   54.4384  154.6128   22.6458 H   0  0  0  0  0  0  0  0  0  0  0  0
   53.1031  152.9769   23.7627 H   0  0  0  0  0  0  0  0  0  0  0  0
   52.0421  153.1705   25.6907 H   0  0  0  0  0  0  0  0  0  0  0  0
   53.4836  156.5603   26.5402 H   0  0  0  0  0  0  0  0  0  0  0  0
   52.7173  157.9946   28.4391 H   0  0  0  0  0  0  0  0  0  0  0  0
   49.6572  158.2751   29.0426 H   0  0  0  0  0  0  0  0  0  0  0  0
   48.8007  157.3804   30.3273 H   0  0  0  0  0  0  0  0  0  0  0  0
   48.0031  158.6912   32.1064 H   0  0  0  0  0  0  0  0  0  0  0  0
   48.1730  160.6767   33.6047 H   0  0  0  0  0  0  0  0  0  0  0  0
   50.0740  162.2765   33.3432 H   0  0  0  0  0  0  0  0  0  0  0  0
   51.6457  159.8956   30.1005 H   0  0  0  0  0  0  0  0  0  0  0  0
   50.1324  154.8082   29.7880 H   0  0  0  0  0  0  0  0  0  0  0  0
   50.8893  153.3731   27.8932 H   0  0  0  0  0  0  0  0  0  0  0  0
   53.1950  150.8470   24.0540 H   0  0  0  0  0  0  0  0  0  0  0  0
   54.3380  149.9830   24.9790 H   0  0  0  0  0  0  0  0  0  0  0  0
  1  2  1  0
  2  3  1  0
  3  4  2  0
  4  5  1  0
  5  6  2  0
  6  7  1  0
  7  8  2  0
  8  9  1  0
  9 10  1  0
 10 11  1  0
 11 12  2  0
 12 13  1  0
 13 14  2  0
 14 15  1  0
 15 16  1  0
 15 17  2  0
  8 18  1  0
 18 19  2  0
  2 20  1  0
 20 21  1  0
 20 22  2  0
 19  5  1  0
 17 11  1  0
  1 23  1  0
  1 24  1  0
  1 25  1  0
  2 26  1  6
  4 27  1  0
  6 28  1  0
  7 29  1  0
 10 30  1  0
 10 31  1  0
 12 32  1  0
 13 33  1  0
 14 34  1  0
 17 35  1  0
 18 36  1  0
 19 37  1  0
 21 38  1  0
 21 39  1  0
M  END
>  <meeko>  (8) 
{"is_sidechain": [false], "free_energy": -9.047, "intermolecular_energy": -12.234, "internal_energy": -0.6}

$$$$
native_SAG_out
     RDKit          3D

 39 40  0  0  0  0  0  0  0  0999 V2000
   52.3540  161.6140   30.7290 C   0  0  0  0  0  0  0  0  0  0  0  0
   51.3970  160.4440   30.9120 C   0  0  2  0  0  0  0  0  0  0  0  0
   51.6790  159.4490   29.8450 N   0  0  0  0  0  0  0  0  0  0  0  0
   51.4260  158.2330   30.1990 C   0  0  0  0  0  0  0  0  0  0  0  0
   51.6450  157.0960   29.2840 C   0  0  0  0  0  0  0  0  0  0  0  0
   50.9060  155.9180   29.4120 C   0  0  0  0  0  0  0  0  0  0  0  0
   51.1290  154.8490   28.5340 C   0  0  0  0  0  0  0  0  0  0  0  0
   52.0900  154.9600   27.5280 C   0  0  0  0  0  0  0  0  0  0  0  0
   52.4080  154.0010   26.6080 O   0  0  0  0  0  0  0  0  0  0  0  0
   51.9530  152.6750   26.8650 C   0  0  0  0  0  0  0  0  0  0  0  0
   52.7850  151.7310   26.0360 C   0  0  0  0  0  0  0  0  0  0  0  0
   53.8520  152.2130   25.2600 C   0  0  0  0  0  0  0  0  0  0  0  0
   54.6370  151.3370   24.5040 C   0  0  0  0  0  0  0  0  0  0  0  0
   54.3670  149.9700   24.5230 C   0  0  0  0  0  0  0  0  0  0  0  0
   53.3210  149.4890   25.3010 C   0  0  0  0  0  0  0  0  0  0  0  0
   53.0680  148.1740   25.3260 F   0  0  0  0  0  0  0  0  0  0  0  0
   52.5330  150.3520   26.0580 C   0  0  0  0  0  0  0  0  0  0  0  0
   52.8250  156.1440   27.4070 C   0  0  0  0  0  0  0  0  0  0  0  0
   52.6070  157.2140   28.2790 C   0  0  0  0  0  0  0  0  0  0  0  0
   49.9460  160.9210   30.7720 C   0  0  0  0  0  0  0  0  0  0  0  0
   49.4820  160.9830   29.4880 N   0  0  0  0  0  0  0  0  0  0  0  0
   49.2450  161.2530   31.7230 O   0  0  0  0  0  0  0  0  0  0  0  0
   52.6634  161.9922   31.7145 H   0  0  0  0  0  0  0  0  0  0  0  0
   53.2402  161.2789   30.1701 H   0  0  0  0  0  0  0  0  0  0  0  0
   51.8498  162.4162   30.1701 H   0  0  0  0  0  0  0  0  0  0  0  0
   51.5342  160.0037   31.9107 H   0  0  0  0  0  0  0  0  0  0  0  0
   51.0369  158.0396   31.2095 H   0  0  0  0  0  0  0  0  0  0  0  0
   50.1474  155.8291   30.2036 H   0  0  0  0  0  0  0  0  0  0  0  0
   50.5463  153.9218   28.6377 H   0  0  0  0  0  0  0  0  0  0  0  0
   52.0725  152.4392   27.9328 H   0  0  0  0  0  0  0  0  0  0  0  0
   50.8888  152.5778   26.6041 H   0  0  0  0  0  0  0  0  0  0  0  0
   54.0723  153.2906   25.2469 H   0  0  0  0  0  0  0  0  0  0  0  0
   55.4664  151.7263   23.8952 H   0  0  0  0  0  0  0  0  0  0  0  0
   54.9777  149.2765   23.9262 H   0  0  0  0  0  0  0  0  0  0  0  0
   51.7133  149.9521   26.6729 H   0  0  0  0  0  0  0  0  0  0  0  0
   53.5839  156.2339   26.6158 H   0  0  0  0  0  0  0  0  0  0  0  0
   53.1886  158.1418   28.1745 H   0  0  0  0  0  0  0  0  0  0  0  0
   50.0630  160.7110   28.7410 H   0  0  0  0  0  0  0  0  0  0  0  0
   48.5660  161.2980   29.3100 H   0  0  0  0  0  0  0  0  0  0  0  0
  1  2  1  0
  2  3  1  0
  3  4  2  0
  4  5  1  0
  5  6  2  0
  6  7  1  0
  7  8  2  0
  8  9  1  0
  9 10  1  0
 10 11  1  0
 11 12  2  0
 12 13  1  0
 13 14  2  0
 14 15  1  0
 15 16  1  0
 15 17  2  0
  8 18  1  0
 18 19  2  0
  2 20  1  0
 20 21  1  0
 20 22  2  0
 19  5  1  0
 17 11  1  0
  1 23  1  0
  1 24  1  0
  1 25  1  0
  2 26  1  1
  4 27  1  0
  6 28  1  0
  7 29  1  0
 10 30  1  0
 10 31  1  0
 12 32  1  0
 13 33  1  0
 14 34  1  0
 17 35  1  0
 18 36  1  0
 19 37  1  0
 21 38  1  0
 21 39  1  0
M  END
>  <meeko>  (9) 
{"is_sidechain": [false], "free_energy": -8.792, "intermolecular_energy": -11.996, "internal_energy": -0.492}

$$$$
