clorgyline_out
     RDKit          3D

 33 33  0  0  0  0  0  0  0  0999 V2000
   47.1720  159.8180   31.6480 C   0  0  0  0  0  0  0  0  0  0  0  0
   48.1730  160.0520   31.0260 C   0  0  0  0  0  0  0  0  0  0  0  0
   49.4000  160.3430   30.2650 C   0  0  0  0  0  0  0  0  0  0  0  0
   50.6540  160.0330   30.9750 N   0  0  2  0  0  0  0  0  0  0  0  0
   51.1480  161.1920   31.7190 C   0  0  0  0  0  0  0  0  0  0  0  0
   51.6700  159.4690   30.0680 C   0  0  0  0  0  0  0  0  0  0  0  0
   51.3760  158.0070   29.7000 C   0  0  0  0  0  0  0  0  0  0  0  0
   52.5280  157.3790   28.9160 C   0  0  0  0  0  0  0  0  0  0  0  0
   52.1870  156.0320   28.5980 O   0  0  0  0  0  0  0  0  0  0  0  0
   52.6300  155.5180   27.4080 C   0  0  0  0  0  0  0  0  0  0  0  0
   53.1020  156.2870   26.3400 C   0  0  0  0  0  0  0  0  0  0  0  0
   53.5300  155.6680   25.1600 C   0  0  0  0  0  0  0  0  0  0  0  0
   53.4840  154.2810   25.0420 C   0  0  0  0  0  0  0  0  0  0  0  0
   54.0110  153.5300   23.5870 Cl  0  0  0  0  0  0  0  0  0  0  0  0
   53.0150  153.5000   26.0920 C   0  0  0  0  0  0  0  0  0  0  0  0
   52.5880  154.1190   27.2700 C   0  0  0  0  0  0  0  0  0  0  0  0
   52.0150  153.1070   28.5520 Cl  0  0  0  0  0  0  0  0  0  0  0  0
   46.2556  159.6038   32.2174 H   0  0  0  0  0  0  0  0  0  0  0  0
   49.3763  159.7517   29.3377 H   0  0  0  0  0  0  0  0  0  0  0  0
   49.4045  161.4284   30.0866 H   0  0  0  0  0  0  0  0  0  0  0  0
   50.4490  159.3070   31.6630 H   0  0  0  0  0  0  0  0  0  0  0  0
   51.0650  160.9973   32.7985 H   0  0  0  0  0  0  0  0  0  0  0  0
   52.2014  161.3728   31.4589 H   0  0  0  0  0  0  0  0  0  0  0  0
   50.5490  162.0772   31.4589 H   0  0  0  0  0  0  0  0  0  0  0  0
   51.6925  160.0682   29.1458 H   0  0  0  0  0  0  0  0  0  0  0  0
   52.6384  159.4966   30.5889 H   0  0  0  0  0  0  0  0  0  0  0  0
   51.2182  157.4316   30.6241 H   0  0  0  0  0  0  0  0  0  0  0  0
   50.4779  157.9870   29.0651 H   0  0  0  0  0  0  0  0  0  0  0  0
   52.6968  157.9463   27.9888 H   0  0  0  0  0  0  0  0  0  0  0  0
   53.4464  157.3991   29.5210 H   0  0  0  0  0  0  0  0  0  0  0  0
   53.1371  157.3830   26.4275 H   0  0  0  0  0  0  0  0  0  0  0  0
   53.9034  156.2780   24.3243 H   0  0  0  0  0  0  0  0  0  0  0  0
   52.9803  152.4047   25.9965 H   0  0  0  0  0  0  0  0  0  0  0  0
  1  2  3  0
  2  3  1  0
  3  4  1  0
  4  5  1  0
  4  6  1  0
  6  7  1  0
  7  8  1  0
  8  9  1  0
  9 10  1  0
 10 11  2  0
 11 12  1  0
 12 13  2  0
 13 14  1  0
 13 15  1  0
 15 16  2  0
 16 17  1  0
 16 10  1  0
  1 18  1  0
  3 19  1  0
  3 20  1  0
  4 21  1  1
  5 22  1  0
  5 23  1  0
  5 24  1  0
  6 25  1  0
  6 26  1  0
  7 27  1  0
  7 28  1  0
  8 29  1  0
  8 30  1  0
 11 31  1  0
 12 32  1  0
 15 33  1  0
M  CHG  1   4   1
M  END
>  <meeko>  (1) 
{"is_sidechain": [false], "free_energy": -7.913, "intermolecular_energy": -10.689, "internal_energy": -0.343}

$$$$
clorgyline_out
     RDKit          3D

 33 33  0  0  0  0  0  0  0  0999 V2000
   54.9370  154.3920   24.0940 C   0  0  0  0  0  0  0  0  0  0  0  0
   54.2460  154.9260   24.9180 C   0  0  0  0  0  0  0  0  0  0  0  0
   53.3940  155.5800   25.9260 C   0  0  0  0  0  0  0  0  0  0  0  0
   53.0720  154.7440   27.0980 N   0  0  2  0  0  0  0  0  0  0  0  0
   52.3300  153.5440   26.7100 C   0  0  0  0  0  0  0  0  0  0  0  0
   52.3870  155.5170   28.1480 C   0  0  0  0  0  0  0  0  0  0  0  0
   52.6500  157.0260   28.0290 C   0  0  0  0  0  0  0  0  0  0  0  0
   52.3760  157.7530   29.3450 C   0  0  0  0  0  0  0  0  0  0  0  0
   51.4320  158.7950   29.1060 O   0  0  0  0  0  0  0  0  0  0  0  0
   50.9180  159.4590   30.1870 C   0  0  0  0  0  0  0  0  0  0  0  0
   51.5190  160.5650   30.7970 C   0  0  0  0  0  0  0  0  0  0  0  0
   50.9160  161.1750   31.9030 C   0  0  0  0  0  0  0  0  0  0  0  0
   49.7150  160.6800   32.4060 C   0  0  0  0  0  0  0  0  0  0  0  0
   48.9840  161.4370   33.7670 Cl  0  0  0  0  0  0  0  0  0  0  0  0
   49.1040  159.5800   31.8140 C   0  0  0  0  0  0  0  0  0  0  0  0
   49.7060  158.9720   30.7110 C   0  0  0  0  0  0  0  0  0  0  0  0
   48.9080  157.6070   30.0050 Cl  0  0  0  0  0  0  0  0  0  0  0  0
   55.5701  153.9028   23.3391 H   0  0  0  0  0  0  0  0  0  0  0  0
   53.9142  156.4818   26.2811 H   0  0  0  0  0  0  0  0  0  0  0  0
   52.4375  155.7992   25.4289 H   0  0  0  0  0  0  0  0  0  0  0  0
   53.9540  154.4280   27.5030 H   0  0  0  0  0  0  0  0  0  0  0  0
   51.9994  153.0094   27.6127 H   0  0  0  0  0  0  0  0  0  0  0  0
   51.4525  153.8326   26.1128 H   0  0  0  0  0  0  0  0  0  0  0  0
   52.9803  152.8879   26.1128 H   0  0  0  0  0  0  0  0  0  0  0  0
   51.3044  155.3396   28.0681 H   0  0  0  0  0  0  0  0  0  0  0  0
   52.7790  155.1835   29.1202 H   0  0  0  0  0  0  0  0  0  0  0  0
   53.7015  157.1834   27.7470 H   0  0  0  0  0  0  0  0  0  0  0  0
   51.9717  157.4331   27.2647 H   0  0  0  0  0  0  0  0  0  0  0  0
   51.9667  157.0448   30.0805 H   0  0  0  0  0  0  0  0  0  0  0  0
   53.3108  158.1784   29.7389 H   0  0  0  0  0  0  0  0  0  0  0  0
   52.4695  160.9570   30.4059 H   0  0  0  0  0  0  0  0  0  0  0  0
   51.3914  162.0470   32.3759 H   0  0  0  0  0  0  0  0  0  0  0  0
   48.1544  159.1923   32.2115 H   0  0  0  0  0  0  0  0  0  0  0  0
  1  2  3  0
  2  3  1  0
  3  4  1  0
  4  5  1  0
  4  6  1  0
  6  7  1  0
  7  8  1  0
  8  9  1  0
  9 10  1  0
 10 11  2  0
 11 12  1  0
 12 13  2  0
 13 14  1  0
 13 15  1  0
 15 16  2  0
 16 17  1  0
 16 10  1  0
  1 18  1  0
  3 19  1  0
  3 20  1  0
  4 21  1  1
  5 22  1  0
  5 23  1  0
  5 24  1  0
  6 25  1  0
  6 26  1  0
  7 27  1  0
  7 28  1  0
  8 29  1  0
  8 30  1  0
 11 31  1  0
 12 32  1  0
 15 33  1  0
M  CHG  1   4   1
M  END
>  <meeko>  (2) 
{"is_sidechain": [false], "free_energy": -7.873, "intermolecular_energy": -10.605, "internal_energy": -0.372}

$$$$
clorgyline_out
     RDKit          3D

 33 33  0  0  0  0  0  0  0  0999 V2000
   48.7660  161.4510   33.7310 C   0  0  0  0  0  0  0  0  0  0  0  0
   49.1230  160.7120   32.8540 C   0  0  0  0  0  0  0  0  0  0  0  0
   49.5580  159.8060   31.7770 C   0  0  0  0  0  0  0  0  0  0  0  0
   50.3080  160.4580   30.6880 N   0  0  2  0  0  0  0  0  0  0  0  0
   49.4590  160.6860   29.5170 C   0  0  0  0  0  0  0  0  0  0  0  0
   51.5410  159.7220   30.3580 C   0  0  0  0  0  0  0  0  0  0  0  0
   51.2520  158.3550   29.7200 C   0  0  0  0  0  0  0  0  0  0  0  0
   52.4920  157.7740   29.0420 C   0  0  0  0  0  0  0  0  0  0  0  0
   52.3040  156.3720   28.8640 O   0  0  0  0  0  0  0  0  0  0  0  0
   52.6810  155.8170   27.6700 C   0  0  0  0  0  0  0  0  0  0  0  0
   53.1440  156.5450   26.5690 C   0  0  0  0  0  0  0  0  0  0  0  0
   53.5020  155.8860   25.3870 C   0  0  0  0  0  0  0  0  0  0  0  0
   53.3960  154.4990   25.3010 C   0  0  0  0  0  0  0  0  0  0  0  0
   53.8380  153.6990   23.8440 Cl  0  0  0  0  0  0  0  0  0  0  0  0
   52.9350  153.7590   26.3840 C   0  0  0  0  0  0  0  0  0  0  0  0
   52.5770  154.4180   27.5630 C   0  0  0  0  0  0  0  0  0  0  0  0
   52.0120  153.4560   28.8860 Cl  0  0  0  0  0  0  0  0  0  0  0  0
   48.4391  162.1278   34.5342 H   0  0  0  0  0  0  0  0  0  0  0  0
   50.2013  159.0314   32.2200 H   0  0  0  0  0  0  0  0  0  0  0  0
   48.6416  159.4006   31.3233 H   0  0  0  0  0  0  0  0  0  0  0  0
   50.6020  161.3760   31.0220 H   0  0  0  0  0  0  0  0  0  0  0  0
   48.4454  160.9582   29.8464 H   0  0  0  0  0  0  0  0  0  0  0  0
   49.8799  161.5029   28.9124 H   0  0  0  0  0  0  0  0  0  0  0  0
   49.4139  159.7681   28.9124 H   0  0  0  0  0  0  0  0  0  0  0  0
   52.1336  160.3232   29.6527 H   0  0  0  0  0  0  0  0  0  0  0  0
   52.0887  159.5463   31.2956 H   0  0  0  0  0  0  0  0  0  0  0  0
   50.9155  157.6600   30.5034 H   0  0  0  0  0  0  0  0  0  0  0  0
   50.4747  158.4918   28.9538 H   0  0  0  0  0  0  0  0  0  0  0  0
   52.6377  158.2547   28.0634 H   0  0  0  0  0  0  0  0  0  0  0  0
   53.3791  157.9558   29.6664 H   0  0  0  0  0  0  0  0  0  0  0  0
   53.2271  157.6400   26.6323 H   0  0  0  0  0  0  0  0  0  0  0  0
   53.8674  156.4635   24.5251 H   0  0  0  0  0  0  0  0  0  0  0  0
   52.8528  152.6644   26.3133 H   0  0  0  0  0  0  0  0  0  0  0  0
  1  2  3  0
  2  3  1  0
  3  4  1  0
  4  5  1  0
  4  6  1  0
  6  7  1  0
  7  8  1  0
  8  9  1  0
  9 10  1  0
 10 11  2  0
 11 12  1  0
 12 13  2  0
 13 14  1  0
 13 15  1  0
 15 16  2  0
 16 17  1  0
 16 10  1  0
  1 18  1  0
  3 19  1  0
  3 20  1  0
  4 21  1  1
  5 22  1  0
  5 23  1  0
  5 24  1  0
  6 25  1  0
  6 26  1  0
  7 27  1  0
  7 28  1  0
  8 29  1  0
  8 30  1  0
 11 31  1  0
 12 32  1  0
 15 33  1  0
M  CHG  1   4   1
M  END
>  <meeko>  (3) 
{"is_sidechain": [false], "free_energy": -7.872, "intermolecular_energy": -10.647, "internal_energy": -0.329}

$$$$
clorgyline_out
     RDKit          3D

 33 33  0  0  0  0  0  0  0  0999 V2000
   54.1360  152.6550   23.8520 C   0  0  0  0  0  0  0  0  0  0  0  0
   53.6670  153.5120   24.5510 C   0  0  0  0  0  0  0  0  0  0  0  0
   53.0880  154.5620   25.4060 C   0  0  0  0  0  0  0  0  0  0  0  0
   52.9090  154.1790   26.8180 N   0  0  2  0  0  0  0  0  0  0  0  0
   52.2030  152.9030   26.9400 C   0  0  0  0  0  0  0  0  0  0  0  0
   52.2730  155.2540   27.5990 C   0  0  0  0  0  0  0  0  0  0  0  0
   52.8580  156.6370   27.2740 C   0  0  0  0  0  0  0  0  0  0  0  0
   52.9280  157.5270   28.5140 C   0  0  0  0  0  0  0  0  0  0  0  0
   51.8300  157.2120   29.3670 O   0  0  0  0  0  0  0  0  0  0  0  0
   51.0890  158.2470   29.8740 C   0  0  0  0  0  0  0  0  0  0  0  0
   51.6030  159.5090   30.1890 C   0  0  0  0  0  0  0  0  0  0  0  0
   50.7650  160.5030   30.7070 C   0  0  0  0  0  0  0  0  0  0  0  0
   49.4130  160.2380   30.9160 C   0  0  0  0  0  0  0  0  0  0  0  0
   48.3930  161.4670   31.5550 Cl  0  0  0  0  0  0  0  0  0  0  0  0
   48.8850  158.9890   30.6110 C   0  0  0  0  0  0  0  0  0  0  0  0
   49.7220  157.9980   30.0940 C   0  0  0  0  0  0  0  0  0  0  0  0
   49.0200  156.4590   29.7260 Cl  0  0  0  0  0  0  0  0  0  0  0  0
   54.5655  151.8702   23.2119 H   0  0  0  0  0  0  0  0  0  0  0  0
   53.7527  155.4377   25.3704 H   0  0  0  0  0  0  0  0  0  0  0  0
   52.0821  154.7649   25.0098 H   0  0  0  0  0  0  0  0  0  0  0  0
   53.8370  154.0420   27.2210 H   0  0  0  0  0  0  0  0  0  0  0  0
   52.0680  152.6589   28.0040 H   0  0  0  0  0  0  0  0  0  0  0  0
   51.2193  152.9803   26.4538 H   0  0  0  0  0  0  0  0  0  0  0  0
   52.7910  152.1106   26.4538 H   0  0  0  0  0  0  0  0  0  0  0  0
   51.1961  155.2641   27.3749 H   0  0  0  0  0  0  0  0  0  0  0  0
   52.4605  155.0517   28.6639 H   0  0  0  0  0  0  0  0  0  0  0  0
   53.8729  156.5086   26.8697 H   0  0  0  0  0  0  0  0  0  0  0  0
   52.1995  157.1237   26.5395 H   0  0  0  0  0  0  0  0  0  0  0  0
   53.8736  157.3462   29.0462 H   0  0  0  0  0  0  0  0  0  0  0  0
   52.8803  158.5854   28.2181 H   0  0  0  0  0  0  0  0  0  0  0  0
   52.6704  159.7212   30.0289 H   0  0  0  0  0  0  0  0  0  0  0  0
   51.1742  161.4949   30.9495 H   0  0  0  0  0  0  0  0  0  0  0  0
   47.8171  158.7829   30.7754 H   0  0  0  0  0  0  0  0  0  0  0  0
  1  2  3  0
  2  3  1  0
  3  4  1  0
  4  5  1  0
  4  6  1  0
  6  7  1  0
  7  8  1  0
  8  9  1  0
  9 10  1  0
 10 11  2  0
 11 12  1  0
 12 13  2  0
 13 14  1  0
 13 15  1  0
 15 16  2  0
 16 17  1  0
 16 10  1  0
  1 18  1  0
  3 19  1  0
  3 20  1  0
  4 21  1  1
  5 22  1  0
  5 23  1  0
  5 24  1  0
  6 25  1  0
  6 26  1  0
  7 27  1  0
  7 28  1  0
  8 29  1  0
  8 30  1  0
 11 31  1  0
 12 32  1  0
 15 33  1  0
M  CHG  1   4   1
M  END
>  <meeko>  (4) 
{"is_sidechain": [false], "free_energy": -7.547, "intermolecular_energy": -10.123, "internal_energy": -0.415}

$$$$
clorgyline_out
     RDKit          3D

 33 33  0  0  0  0  0  0  0  0999 V2000
   49.2870  160.7240   33.5250 C   0  0  0  0  0  0  0  0  0  0  0  0
   49.4130  160.2630   32.4230 C   0  0  0  0  0  0  0  0  0  0  0  0
   49.5670  159.7030   31.0700 C   0  0  0  0  0  0  0  0  0  0  0  0
   50.9320  159.2530   30.7400 N   0  0  2  0  0  0  0  0  0  0  0  0
   51.8110  160.3860   30.4490 C   0  0  0  0  0  0  0  0  0  0  0  0
   50.9310  158.2470   29.6630 C   0  0  0  0  0  0  0  0  0  0  0  0
   52.3510  157.8360   29.2480 C   0  0  0  0  0  0  0  0  0  0  0  0
   52.3770  156.4350   28.6390 C   0  0  0  0  0  0  0  0  0  0  0  0
   52.6940  156.5420   27.2530 O   0  0  0  0  0  0  0  0  0  0  0  0
   52.9540  155.3900   26.5590 C   0  0  0  0  0  0  0  0  0  0  0  0
   52.4690  154.1270   26.9110 C   0  0  0  0  0  0  0  0  0  0  0  0
   52.7940  153.0050   26.1400 C   0  0  0  0  0  0  0  0  0  0  0  0
   53.6080  153.1420   25.0170 C   0  0  0  0  0  0  0  0  0  0  0  0
   54.0030  151.7570   24.0770 Cl  0  0  0  0  0  0  0  0  0  0  0  0
   54.1020  154.3890   24.6530 C   0  0  0  0  0  0  0  0  0  0  0  0
   53.7770  155.5080   25.4240 C   0  0  0  0  0  0  0  0  0  0  0  0
   54.4120  157.0410   24.9310 Cl  0  0  0  0  0  0  0  0  0  0  0  0
   49.1716  161.1462   34.5342 H   0  0  0  0  0  0  0  0  0  0  0  0
   48.8903  158.8407   30.9772 H   0  0  0  0  0  0  0  0  0  0  0  0
   49.3306  160.5168   30.3687 H   0  0  0  0  0  0  0  0  0  0  0  0
   51.3130  158.7900   31.5660 H   0  0  0  0  0  0  0  0  0  0  0  0
   52.1577  160.8329   31.3925 H   0  0  0  0  0  0  0  0  0  0  0  0
   52.6777  160.0379   29.8679 H   0  0  0  0  0  0  0  0  0  0  0  0
   51.2584  161.1390   29.8679 H   0  0  0  0  0  0  0  0  0  0  0  0
   50.3925  157.3541   30.0135 H   0  0  0  0  0  0  0  0  0  0  0  0
   50.4401  158.6937   28.7858 H   0  0  0  0  0  0  0  0  0  0  0  0
   52.7278  158.5548   28.5055 H   0  0  0  0  0  0  0  0  0  0  0  0
   52.9840  157.8313   30.1476 H   0  0  0  0  0  0  0  0  0  0  0  0
   53.1391  155.8254   29.1465 H   0  0  0  0  0  0  0  0  0  0  0  0
   51.3944  155.9560   28.7616 H   0  0  0  0  0  0  0  0  0  0  0  0
   51.8288  154.0144   27.7984 H   0  0  0  0  0  0  0  0  0  0  0  0
   52.4067  152.0144   26.4206 H   0  0  0  0  0  0  0  0  0  0  0  0
   54.7434  154.4941   23.7655 H   0  0  0  0  0  0  0  0  0  0  0  0
  1  2  3  0
  2  3  1  0
  3  4  1  0
  4  5  1  0
  4  6  1  0
  6  7  1  0
  7  8  1  0
  8  9  1  0
  9 10  1  0
 10 11  2  0
 11 12  1  0
 12 13  2  0
 13 14  1  0
 13 15  1  0
 15 16  2  0
 16 17  1  0
 16 10  1  0
  1 18  1  0
  3 19  1  0
  3 20  1  0
  4 21  1  1
  5 22  1  0
  5 23  1  0
  5 24  1  0
  6 25  1  0
  6 26  1  0
  7 27  1  0
  7 28  1  0
  8 29  1  0
  8 30  1  0
 11 31  1  0
 12 32  1  0
 15 33  1  0
M  CHG  1   4   1
M  END
>  <meeko>  (5) 
{"is_sidechain": [false], "free_energy": -7.355, "intermolecular_energy": -9.996, "internal_energy": -0.282}

$$$$
clorgyline_out
     RDKit          3D

 33 33  0  0  0  0  0  0  0  0999 V2000
   54.2210  153.3050   23.3730 C   0  0  0  0  0  0  0  0  0  0  0  0
   53.8160  154.0550   24.2200 C   0  0  0  0  0  0  0  0  0  0  0  0
   53.3160  154.9740   25.2560 C   0  0  0  0  0  0  0  0  0  0  0  0
   53.3920  154.4520   26.6320 N   0  0  2  0  0  0  0  0  0  0  0  0
   53.3740  152.9890   26.6500 C   0  0  0  0  0  0  0  0  0  0  0  0
   52.3540  155.0410   27.4980 C   0  0  0  0  0  0  0  0  0  0  0  0
   52.6530  156.5040   27.8550 C   0  0  0  0  0  0  0  0  0  0  0  0
   52.3630  156.7980   29.3260 C   0  0  0  0  0  0  0  0  0  0  0  0
   52.0470  158.1810   29.4650 O   0  0  0  0  0  0  0  0  0  0  0  0
   50.8230  158.5150   29.9790 C   0  0  0  0  0  0  0  0  0  0  0  0
   49.7050  157.6730   29.9750 C   0  0  0  0  0  0  0  0  0  0  0  0
   48.4930  158.1070   30.5220 C   0  0  0  0  0  0  0  0  0  0  0  0
   48.3910  159.3830   31.0710 C   0  0  0  0  0  0  0  0  0  0  0  0
   46.8950  159.9070   31.7400 Cl  0  0  0  0  0  0  0  0  0  0  0  0
   49.4900  160.2350   31.0820 C   0  0  0  0  0  0  0  0  0  0  0  0
   50.6990  159.8010   30.5350 C   0  0  0  0  0  0  0  0  0  0  0  0
   52.0410  160.8940   30.5730 Cl  0  0  0  0  0  0  0  0  0  0  0  0
   54.5917  152.6184   22.5976 H   0  0  0  0  0  0  0  0  0  0  0  0
   53.9084  155.8996   25.2076 H   0  0  0  0  0  0  0  0  0  0  0  0
   52.2485  155.1313   25.0423 H   0  0  0  0  0  0  0  0  0  0  0  0
   54.2890  154.7410   27.0240 H   0  0  0  0  0  0  0  0  0  0  0  0
   53.3696  152.6351   27.6915 H   0  0  0  0  0  0  0  0  0  0  0  0
   52.4713  152.6271   26.1360 H   0  0  0  0  0  0  0  0  0  0  0  0
   54.2675  152.6050   26.1360 H   0  0  0  0  0  0  0  0  0  0  0  0
   51.3882  154.9953   26.9735 H   0  0  0  0  0  0  0  0  0  0  0  0
   52.3307  154.4645   28.4345 H   0  0  0  0  0  0  0  0  0  0  0  0
   53.7144  156.7104   27.6529 H   0  0  0  0  0  0  0  0  0  0  0  0
   52.0027  157.1459   27.2426 H   0  0  0  0  0  0  0  0  0  0  0  0
   51.5118  156.1886   29.6639 H   0  0  0  0  0  0  0  0  0  0  0  0
   53.2445  156.5531   29.9367 H   0  0  0  0  0  0  0  0  0  0  0  0
   49.7798  156.6655   29.5398 H   0  0  0  0  0  0  0  0  0  0  0  0
   47.6188  157.4393   30.5186 H   0  0  0  0  0  0  0  0  0  0  0  0
   49.4075  161.2417   31.5177 H   0  0  0  0  0  0  0  0  0  0  0  0
  1  2  3  0
  2  3  1  0
  3  4  1  0
  4  5  1  0
  4  6  1  0
  6  7  1  0
  7  8  1  0
  8  9  1  0
  9 10  1  0
 10 11  2  0
 11 12  1  0
 12 13  2  0
 13 14  1  0
 13 15  1  0
 15 16  2  0
 16 17  1  0
 16 10  1  0
  1 18  1  0
  3 19  1  0
  3 20  1  0
  4 21  1  1
  5 22  1  0
  5 23  1  0
  5 24  1  0
  6 25  1  0
  6 26  1  0
  7 27  1  0
  7 28  1  0
  8 29  1  0
  8 30  1  0
 11 31  1  0
 12 32  1  0
 15 33  1  0
M  CHG  1   4   1
M  END
>  <meeko>  (6) 
{"is_sidechain": [false], "free_energy": -7.352, "intermolecular_energy": -10.091, "internal_energy": -0.182}

$$$$
clorgyline_out
     RDKit          3D

 33 33  0  0  0  0  0  0  0  0999 V2000
   49.1670  161.3650   33.7120 C   0  0  0  0  0  0  0  0  0  0  0  0
   49.5130  160.7210   32.7590 C   0  0  0  0  0  0  0  0  0  0  0  0
   49.9370  159.9270   31.5930 C   0  0  0  0  0  0  0  0  0  0  0  0
   48.8480  159.5530   30.6730 N   0  0  2  0  0  0  0  0  0  0  0  0
   47.5490  160.0100   31.1680 C   0  0  0  0  0  0  0  0  0  0  0  0
   48.8620  158.1120   30.3670 C   0  0  0  0  0  0  0  0  0  0  0  0
   50.2740  157.5940   30.0580 C   0  0  0  0  0  0  0  0  0  0  0  0
   50.2600  156.1190   29.6570 C   0  0  0  0  0  0  0  0  0  0  0  0
   51.6010  155.6350   29.6410 O   0  0  0  0  0  0  0  0  0  0  0  0
   52.0080  154.9000   28.5600 C   0  0  0  0  0  0  0  0  0  0  0  0
   51.7880  153.5270   28.4060 C   0  0  0  0  0  0  0  0  0  0  0  0
   52.2480  152.8610   27.2640 C   0  0  0  0  0  0  0  0  0  0  0  0
   52.9320  153.5630   26.2740 C   0  0  0  0  0  0  0  0  0  0  0  0
   53.4940  152.7350   24.8750 Cl  0  0  0  0  0  0  0  0  0  0  0  0
   53.1620  154.9280   26.4100 C   0  0  0  0  0  0  0  0  0  0  0  0
   52.7030  155.5910   27.5510 C   0  0  0  0  0  0  0  0  0  0  0  0
   53.0110  157.2900   27.6760 Cl  0  0  0  0  0  0  0  0  0  0  0  0
   48.8501  161.9548   34.5848 H   0  0  0  0  0  0  0  0  0  0  0  0
   50.6756  160.5150   31.0284 H   0  0  0  0  0  0  0  0  0  0  0  0
   50.3449  158.9858   31.9901 H   0  0  0  0  0  0  0  0  0  0  0  0
   49.0120  160.0350   29.7880 H   0  0  0  0  0  0  0  0  0  0  0  0
   47.5544  160.0081   32.2680 H   0  0  0  0  0  0  0  0  0  0  0  0
   47.3561  161.0300   30.8041 H   0  0  0  0  0  0  0  0  0  0  0  0
   46.7600  159.3355   30.8041 H   0  0  0  0  0  0  0  0  0  0  0  0
   48.4658  157.5627   31.2338 H   0  0  0  0  0  0  0  0  0  0  0  0
   48.2425  157.9527   29.4721 H   0  0  0  0  0  0  0  0  0  0  0  0
   50.6973  158.1840   29.2317 H   0  0  0  0  0  0  0  0  0  0  0  0
   50.8835  157.6961   30.9680 H   0  0  0  0  0  0  0  0  0  0  0  0
   49.6679  155.5437   30.3840 H   0  0  0  0  0  0  0  0  0  0  0  0
   49.8100  156.0069   28.6595 H   0  0  0  0  0  0  0  0  0  0  0  0
   51.2508  152.9680   29.1863 H   0  0  0  0  0  0  0  0  0  0  0  0
   52.0692  151.7818   27.1481 H   0  0  0  0  0  0  0  0  0  0  0  0
   53.7006  155.4807   25.6261 H   0  0  0  0  0  0  0  0  0  0  0  0
  1  2  3  0
  2  3  1  0
  3  4  1  0
  4  5  1  0
  4  6  1  0
  6  7  1  0
  7  8  1  0
  8  9  1  0
  9 10  1  0
 10 11  2  0
 11 12  1  0
 12 13  2  0
 13 14  1  0
 13 15  1  0
 15 16  2  0
 16 17  1  0
 16 10  1  0
  1 18  1  0
  3 19  1  0
  3 20  1  0
  4 21  1  6
  5 22  1  0
  5 23  1  0
  5 24  1  0
  6 25  1  0
  6 26  1  0
  7 27  1  0
  7 28  1  0
  8 29  1  0
  8 30  1  0
 11 31  1  0
 12 32  1  0
 15 33  1  0
M  CHG  1   4   1
M  END
>  <meeko>  (7) 
{"is_sidechain": [false], "free_energy": -7.007, "intermolecular_energy": -9.61, "internal_energy": -0.197}

$$$$
clorgyline_out
     RDKit          3D

 33 33  0  0  0  0  0  0  0  0999 V2000
   54.4850  151.8870   25.1130 C   0  0  0  0  0  0  0  0  0  0  0  0
   53.4640  152.2400   25.6370 C   0  0  0  0  0  0  0  0  0  0  0  0
   52.2130  152.6720   26.2830 C   0  0  0  0  0  0  0  0  0  0  0  0
   52.0900  154.1280   26.4780 N   0  0  2  0  0  0  0  0  0  0  0  0
   52.5490  154.8650   25.3000 C   0  0  0  0  0  0  0  0  0  0  0  0
   52.7540  154.5710   27.7170 C   0  0  0  0  0  0  0  0  0  0  0  0
   52.1970  153.8660   28.9620 C   0  0  0  0  0  0  0  0  0  0  0  0
   51.3550  154.8110   29.8180 C   0  0  0  0  0  0  0  0  0  0  0  0
   50.8240  155.8370   28.9820 O   0  0  0  0  0  0  0  0  0  0  0  0
   50.4500  157.0170   29.5680 C   0  0  0  0  0  0  0  0  0  0  0  0
   49.1840  157.2690   30.1060 C   0  0  0  0  0  0  0  0  0  0  0  0
   48.8950  158.5120   30.6810 C   0  0  0  0  0  0  0  0  0  0  0  0
   49.8690  159.5070   30.7170 C   0  0  0  0  0  0  0  0  0  0  0  0
   49.5030  161.0320   31.4250 Cl  0  0  0  0  0  0  0  0  0  0  0  0
   51.1320  159.2770   30.1860 C   0  0  0  0  0  0  0  0  0  0  0  0
   51.4190  158.0360   29.6120 C   0  0  0  0  0  0  0  0  0  0  0  0
   53.0060  157.7930   28.9650 Cl  0  0  0  0  0  0  0  0  0  0  0  0
   55.4204  151.5636   24.6329 H   0  0  0  0  0  0  0  0  0  0  0  0
   51.3718  152.3380   25.6579 H   0  0  0  0  0  0  0  0  0  0  0  0
   52.2116  152.2233   27.2873 H   0  0  0  0  0  0  0  0  0  0  0  0
   51.0980  154.3420   26.5920 H   0  0  0  0  0  0  0  0  0  0  0  0
   53.1053  155.7583   25.6202 H   0  0  0  0  0  0  0  0  0  0  0  0
   53.2057  154.2205   24.6972 H   0  0  0  0  0  0  0  0  0  0  0  0
   51.6810  155.1702   24.6972 H   0  0  0  0  0  0  0  0  0  0  0  0
   53.8295  154.3535   27.6390 H   0  0  0  0  0  0  0  0  0  0  0  0
   52.5689  155.6494   27.8304 H   0  0  0  0  0  0  0  0  0  0  0  0
   51.5699  153.0207   28.6423 H   0  0  0  0  0  0  0  0  0  0  0  0
   53.0467  153.5196   29.5686 H   0  0  0  0  0  0  0  0  0  0  0  0
   50.5313  154.2516   30.2855 H   0  0  0  0  0  0  0  0  0  0  0  0
   51.9785  155.2567   30.6070 H   0  0  0  0  0  0  0  0  0  0  0  0
   48.4115  156.4865   30.0772 H   0  0  0  0  0  0  0  0  0  0  0  0
   47.8980  158.7031   31.1047 H   0  0  0  0  0  0  0  0  0  0  0  0
   51.8991  160.0648   30.2172 H   0  0  0  0  0  0  0  0  0  0  0  0
  1  2  3  0
  2  3  1  0
  3  4  1  0
  4  5  1  0
  4  6  1  0
  6  7  1  0
  7  8  1  0
  8  9  1  0
  9 10  1  0
 10 11  2  0
 11 12  1  0
 12 13  2  0
 13 14  1  0
 13 15  1  0
 15 16  2  0
 16 17  1  0
 16 10  1  0
  1 18  1  0
  3 19  1  0
  3 20  1  0
  4 21  1  1
  5 22  1  0
  5 23  1  0
  5 24  1  0
  6 25  1  0
  6 26  1  0
  7 27  1  0
  7 28  1  0
  8 29  1  0
  8 30  1  0
 11 31  1  0
 12 32  1  0
 15 33  1  0
M  CHG  1   4   1
M  END
>  <meeko>  (8) 
{"is_sidechain": [false], "free_energy": -6.991, "intermolecular_energy": -9.175, "internal_energy": -0.611}

$$$$
clorgyline_out
     RDKit          3D

 33 33  0  0  0  0  0  0  0  0999 V2000
   51.7960  158.9540   29.7820 C   0  0  0  0  0  0  0  0  0  0  0  0
   52.0490  157.8440   29.4000 C   0  0  0  0  0  0  0  0  0  0  0  0
   52.3620  156.4810   28.9360 C   0  0  0  0  0  0  0  0  0  0  0  0
   51.2200  155.5480   28.9480 N   0  0  2  0  0  0  0  0  0  0  0  0
   50.0920  156.0950   29.7030 C   0  0  0  0  0  0  0  0  0  0  0  0
   51.6160  154.2080   29.4140 C   0  0  0  0  0  0  0  0  0  0  0  0
   52.4890  153.4680   28.3890 C   0  0  0  0  0  0  0  0  0  0  0  0
   51.6610  152.5280   27.5140 C   0  0  0  0  0  0  0  0  0  0  0  0
   52.2700  152.4420   26.2280 O   0  0  0  0  0  0  0  0  0  0  0  0
   52.9050  153.5520   25.7390 C   0  0  0  0  0  0  0  0  0  0  0  0
   52.3340  154.8270   25.6750 C   0  0  0  0  0  0  0  0  0  0  0  0
   53.0630  155.9020   25.1530 C   0  0  0  0  0  0  0  0  0  0  0  0
   54.3620  155.7050   24.6900 C   0  0  0  0  0  0  0  0  0  0  0  0
   55.2490  157.0320   24.0490 Cl  0  0  0  0  0  0  0  0  0  0  0  0
   54.9450  154.4440   24.7430 C   0  0  0  0  0  0  0  0  0  0  0  0
   54.2170  153.3730   25.2640 C   0  0  0  0  0  0  0  0  0  0  0  0
   54.9840  151.8220   25.3130 Cl  0  0  0  0  0  0  0  0  0  0  0  0
   51.5642  159.9708   30.1319 H   0  0  0  0  0  0  0  0  0  0  0  0
   52.7385  156.5483   27.9046 H   0  0  0  0  0  0  0  0  0  0  0  0
   53.1019  156.0751   29.6415 H   0  0  0  0  0  0  0  0  0  0  0  0
   50.9030  155.4350   27.9840 H   0  0  0  0  0  0  0  0  0  0  0  0
   50.2908  155.9986   30.7806 H   0  0  0  0  0  0  0  0  0  0  0  0
   49.9605  157.1569   29.4480 H   0  0  0  0  0  0  0  0  0  0  0  0
   49.1768  155.5406   29.4480 H   0  0  0  0  0  0  0  0  0  0  0  0
   52.1825  154.3126   30.3511 H   0  0  0  0  0  0  0  0  0  0  0  0
   50.6989  153.6189   29.5622 H   0  0  0  0  0  0  0  0  0  0  0  0
   52.9871  154.2078   27.7451 H   0  0  0  0  0  0  0  0  0  0  0  0
   53.2256  152.8639   28.9391 H   0  0  0  0  0  0  0  0  0  0  0  0
   51.6261  151.5294   27.9741 H   0  0  0  0  0  0  0  0  0  0  0  0
   50.6356  152.9141   27.4169 H   0  0  0  0  0  0  0  0  0  0  0  0
   51.3073  154.9859   26.0365 H   0  0  0  0  0  0  0  0  0  0  0  0
   52.6097  156.9032   25.1084 H   0  0  0  0  0  0  0  0  0  0  0  0
   55.9712  154.2916   24.3775 H   0  0  0  0  0  0  0  0  0  0  0  0
  1  2  3  0
  2  3  1  0
  3  4  1  0
  4  5  1  0
  4  6  1  0
  6  7  1  0
  7  8  1  0
  8  9  1  0
  9 10  1  0
 10 11  2  0
 11 12  1  0
 12 13  2  0
 13 14  1  0
 13 15  1  0
 15 16  2  0
 16 17  1  0
 16 10  1  0
  1 18  1  0
  3 19  1  0
  3 20  1  0
  4 21  1  6
  5 22  1  0
  5 23  1  0
  5 24  1  0
  6 25  1  0
  6 26  1  0
  7 27  1  0
  7 28  1  0
  8 29  1  0
  8 30  1  0
 11 31  1  0
 12 32  1  0
 15 33  1  0
M  CHG  1   4   1
M  END
>  <meeko>  (9) 
{"is_sidechain": [false], "free_energy": -6.975, "intermolecular_energy": -9.754, "internal_energy": -0.011}

$$$$
