harmine_out
     RDKit          3D

 28 30  0  0  0  0  0  0  0  0999 V2000
   49.9970  159.3370   30.4130 C   0  0  0  0  0  0  0  0  0  0  0  0
   51.3260  158.8420   30.3210 O   0  0  0  0  0  0  0  0  0  0  0  0
   51.5060  157.6690   29.6360 C   0  0  0  0  0  0  0  0  0  0  0  0
   50.9080  156.4470   29.9400 C   0  0  0  0  0  0  0  0  0  0  0  0
   51.1670  155.3070   29.1650 C   0  0  0  0  0  0  0  0  0  0  0  0
   52.0430  155.3940   28.0640 C   0  0  0  0  0  0  0  0  0  0  0  0
   52.6270  156.6260   27.7810 C   0  0  0  0  0  0  0  0  0  0  0  0
   52.3790  157.7730   28.5440 C   0  0  0  0  0  0  0  0  0  0  0  0
   53.4260  156.4500   26.6770 N   0  0  0  0  0  0  0  0  0  0  0  0
   53.3800  155.1480   26.2350 C   0  0  0  0  0  0  0  0  0  0  0  0
   54.0270  154.5300   25.1590 C   0  0  0  0  0  0  0  0  0  0  0  0
   54.9590  155.2310   24.2200 C   0  0  0  0  0  0  0  0  0  0  0  0
   53.7930  153.2060   24.9530 N   0  0  0  0  0  0  0  0  0  0  0  0
   52.9580  152.5370   25.7780 C   0  0  0  0  0  0  0  0  0  0  0  0
   52.2940  153.0970   26.8550 C   0  0  0  0  0  0  0  0  0  0  0  0
   52.5170  154.4610   27.0890 C   0  0  0  0  0  0  0  0  0  0  0  0
   49.7170  159.4413   31.4717 H   0  0  0  0  0  0  0  0  0  0  0  0
   49.9361  160.3181   29.9193 H   0  0  0  0  0  0  0  0  0  0  0  0
   49.3092  158.6348   29.9193 H   0  0  0  0  0  0  0  0  0  0  0  0
   50.2242  156.3759   30.7987 H   0  0  0  0  0  0  0  0  0  0  0  0
   50.6884  154.3488   29.4154 H   0  0  0  0  0  0  0  0  0  0  0  0
   52.8569  158.7315   28.2932 H   0  0  0  0  0  0  0  0  0  0  0  0
   53.9620  157.1620   26.2580 H   0  0  0  0  0  0  0  0  0  0  0  0
   55.7070  155.7936   24.7978 H   0  0  0  0  0  0  0  0  0  0  0  0
   55.4672  154.4894   23.5861 H   0  0  0  0  0  0  0  0  0  0  0  0
   54.3875  155.9250   23.5861 H   0  0  0  0  0  0  0  0  0  0  0  0
   52.7939  151.4677   25.5787 H   0  0  0  0  0  0  0  0  0  0  0  0
   51.6254  152.5023   27.4948 H   0  0  0  0  0  0  0  0  0  0  0  0
  1  2  1  0
  2  3  1  0
  3  4  2  0
  4  5  1  0
  5  6  2  0
  6  7  1  0
  7  8  2  0
  7  9  1  0
  9 10  1  0
 10 11  2  0
 11 12  1  0
 11 13  1  0
 13 14  2  0
 14 15  1  0
 15 16  2  0
  8  3  1  0
 16 10  1  0
 16  6  1  0
  1 17  1  0
  1 18  1  0
  1 19  1  0
  4 20  1  0
  5 21  1  0
  8 22  1  0
  9 23  1  0
 12 24  1  0
 12 25  1  0
 12 26  1  0
 14 27  1  0
 15 28  1  0
M  END
>  <meeko>  (1) 
{"is_sidechain": [false], "free_energy": -8.172, "intermolecular_energy": -8.65, "internal_energy": -0.036}

$$$$
harmine_out
     RDKit          3D

 28 30  0  0  0  0  0  0  0  0999 V2000
   52.4680  153.5480   27.3250 C   0  0  0  0  0  0  0  0  0  0  0  0
   51.4280  154.0130   28.1750 O   0  0  0  0  0  0  0  0  0  0  0  0
   51.5240  155.3030   28.6250 C   0  0  0  0  0  0  0  0  0  0  0  0
   52.6320  156.1370   28.4790 C   0  0  0  0  0  0  0  0  0  0  0  0
   52.6180  157.4470   28.9820 C   0  0  0  0  0  0  0  0  0  0  0  0
   51.4710  157.9280   29.6460 C   0  0  0  0  0  0  0  0  0  0  0  0
   50.3780  157.0760   29.7790 C   0  0  0  0  0  0  0  0  0  0  0  0
   50.3760  155.7670   29.2810 C   0  0  0  0  0  0  0  0  0  0  0  0
   49.4020  157.7720   30.4510 N   0  0  0  0  0  0  0  0  0  0  0  0
   49.8250  159.0450   30.7590 C   0  0  0  0  0  0  0  0  0  0  0  0
   49.1680  160.0830   31.4290 C   0  0  0  0  0  0  0  0  0  0  0  0
   47.7780  159.9880   31.9740 C   0  0  0  0  0  0  0  0  0  0  0  0
   49.8390  161.2550   31.5940 N   0  0  0  0  0  0  0  0  0  0  0  0
   51.0960  161.3810   31.1160 C   0  0  0  0  0  0  0  0  0  0  0  0
   51.7920  160.3890   30.4480 C   0  0  0  0  0  0  0  0  0  0  0  0
   51.1230  159.1710   30.2640 C   0  0  0  0  0  0  0  0  0  0  0  0
   53.3025  153.1749   27.9369 H   0  0  0  0  0  0  0  0  0  0  0  0
   52.0866  152.7347   26.6901 H   0  0  0  0  0  0  0  0  0  0  0  0
   52.8198  154.3745   26.6901 H   0  0  0  0  0  0  0  0  0  0  0  0
   53.5286  155.7632   27.9629 H   0  0  0  0  0  0  0  0  0  0  0  0
   53.4979  158.0956   28.8588 H   0  0  0  0  0  0  0  0  0  0  0  0
   49.4952  155.1193   29.4018 H   0  0  0  0  0  0  0  0  0  0  0  0
   48.5180  157.4070   30.6830 H   0  0  0  0  0  0  0  0  0  0  0  0
   47.8143  159.9905   33.0734 H   0  0  0  0  0  0  0  0  0  0  0  0
   47.1876  160.8479   31.6247 H   0  0  0  0  0  0  0  0  0  0  0  0
   47.3101  159.0558   31.6247 H   0  0  0  0  0  0  0  0  0  0  0  0
   51.6045  162.3443   31.2692 H   0  0  0  0  0  0  0  0  0  0  0  0
   52.8166  160.5479   30.0806 H   0  0  0  0  0  0  0  0  0  0  0  0
  1  2  1  0
  2  3  1  0
  3  4  2  0
  4  5  1  0
  5  6  2  0
  6  7  1  0
  7  8  2  0
  7  9  1  0
  9 10  1  0
 10 11  2  0
 11 12  1  0
 11 13  1  0
 13 14  2  0
 14 15  1  0
 15 16  2  0
  8  3  1  0
 16 10  1  0
 16  6  1  0
  1 17  1  0
  1 18  1  0
  1 19  1  0
  4 20  1  0
  5 21  1  0
  8 22  1  0
  9 23  1  0
 12 24  1  0
 12 25  1  0
 12 26  1  0
 14 27  1  0
 15 28  1  0
M  END
>  <meeko>  (2) 
{"is_sidechain": [false], "free_energy": -8.159, "intermolecular_energy": -8.63, "internal_energy": -0.042}

$$$$
harmine_out
     RDKit          3D

 28 30  0  0  0  0  0  0  0  0999 V2000
   53.0220  155.3530   26.4830 C   0  0  0  0  0  0  0  0  0  0  0  0
   53.0290  155.2060   27.8970 O   0  0  0  0  0  0  0  0  0  0  0  0
   52.1020  155.9290   28.6010 C   0  0  0  0  0  0  0  0  0  0  0  0
   50.8290  155.4900   28.9620 C   0  0  0  0  0  0  0  0  0  0  0  0
   49.9600  156.3200   29.6860 C   0  0  0  0  0  0  0  0  0  0  0  0
   50.3760  157.6160   30.0540 C   0  0  0  0  0  0  0  0  0  0  0  0
   51.6520  158.0300   29.6830 C   0  0  0  0  0  0  0  0  0  0  0  0
   52.5310  157.2140   28.9610 C   0  0  0  0  0  0  0  0  0  0  0  0
   51.8150  159.3100   30.1550 N   0  0  0  0  0  0  0  0  0  0  0  0
   50.6900  159.7390   30.8200 C   0  0  0  0  0  0  0  0  0  0  0  0
   50.4170  160.9580   31.4520 C   0  0  0  0  0  0  0  0  0  0  0  0
   51.3770  162.1030   31.5250 C   0  0  0  0  0  0  0  0  0  0  0  0
   49.1990  161.1090   32.0380 N   0  0  0  0  0  0  0  0  0  0  0  0
   48.3030  160.0990   31.9950 C   0  0  0  0  0  0  0  0  0  0  0  0
   48.5200  158.8750   31.3840 C   0  0  0  0  0  0  0  0  0  0  0  0
   49.7680  158.6930   30.7720 C   0  0  0  0  0  0  0  0  0  0  0  0
   52.9711  156.4213   26.2257 H   0  0  0  0  0  0  0  0  0  0  0  0
   53.9419  154.9185   26.0646 H   0  0  0  0  0  0  0  0  0  0  0  0
   52.1476  154.8330   26.0646 H   0  0  0  0  0  0  0  0  0  0  0  0
   50.5017  154.4797   28.6754 H   0  0  0  0  0  0  0  0  0  0  0  0
   48.9584  155.9613   29.9654 H   0  0  0  0  0  0  0  0  0  0  0  0
   53.5332  157.5722   28.6831 H   0  0  0  0  0  0  0  0  0  0  0  0
   52.6300  159.8490   30.0330 H   0  0  0  0  0  0  0  0  0  0  0  0
   51.5798  162.3449   32.5787 H   0  0  0  0  0  0  0  0  0  0  0  0
   52.3168  161.8260   31.0250 H   0  0  0  0  0  0  0  0  0  0  0  0
   50.9403  162.9801   31.0250 H   0  0  0  0  0  0  0  0  0  0  0  0
   47.3295  160.2605   32.4809 H   0  0  0  0  0  0  0  0  0  0  0  0
   47.7528  158.0867   31.3792 H   0  0  0  0  0  0  0  0  0  0  0  0
  1  2  1  0
  2  3  1  0
  3  4  2  0
  4  5  1  0
  5  6  2  0
  6  7  1  0
  7  8  2  0
  7  9  1  0
  9 10  1  0
 10 11  2  0
 11 12  1  0
 11 13  1  0
 13 14  2  0
 14 15  1  0
 15 16  2  0
  8  3  1  0
 16 10  1  0
 16  6  1  0
  1 17  1  0
  1 18  1  0
  1 19  1  0
  4 20  1  0
  5 21  1  0
  8 22  1  0
  9 23  1  0
 12 24  1  0
 12 25  1  0
 12 26  1  0
 14 27  1  0
 15 28  1  0
M  END
>  <meeko>  (3) 
{"is_sidechain": [false], "free_energy": -8.072, "intermolecular_energy": -8.541, "internal_energy": -0.04}

$$$$
harmine_out
     RDKit          3D

 28 30  0  0  0  0  0  0  0  0999 V2000
   49.3030  156.8390   30.0340 C   0  0  0  0  0  0  0  0  0  0  0  0
   50.4190  155.9600   30.0870 O   0  0  0  0  0  0  0  0  0  0  0  0
   51.2880  155.9950   29.0280 C   0  0  0  0  0  0  0  0  0  0  0  0
   51.9850  157.1170   28.5820 C   0  0  0  0  0  0  0  0  0  0  0  0
   52.8530  157.0340   27.4820 C   0  0  0  0  0  0  0  0  0  0  0  0
   53.0230  155.8030   26.8170 C   0  0  0  0  0  0  0  0  0  0  0  0
   52.3150  154.6980   27.2820 C   0  0  0  0  0  0  0  0  0  0  0  0
   51.4470  154.7630   28.3790 C   0  0  0  0  0  0  0  0  0  0  0  0
   52.6510  153.6350   26.4780 N   0  0  0  0  0  0  0  0  0  0  0  0
   53.5500  154.0140   25.5080 C   0  0  0  0  0  0  0  0  0  0  0  0
   54.1540  153.2690   24.4880 C   0  0  0  0  0  0  0  0  0  0  0  0
   53.9100  151.8120   24.2510 C   0  0  0  0  0  0  0  0  0  0  0  0
   55.0180  153.9140   23.6590 N   0  0  0  0  0  0  0  0  0  0  0  0
   55.2660  155.2300   23.8390 C   0  0  0  0  0  0  0  0  0  0  0  0
   54.6970  156.0130   24.8290 C   0  0  0  0  0  0  0  0  0  0  0  0
   53.8020  155.3730   25.6980 C   0  0  0  0  0  0  0  0  0  0  0  0
   48.9848  157.0896   31.0567 H   0  0  0  0  0  0  0  0  0  0  0  0
   49.5861  157.7593   29.5021 H   0  0  0  0  0  0  0  0  0  0  0  0
   48.4746  156.3482   29.5021 H   0  0  0  0  0  0  0  0  0  0  0  0
   51.8531  158.0792   29.0985 H   0  0  0  0  0  0  0  0  0  0  0  0
   53.3983  157.9261   27.1404 H   0  0  0  0  0  0  0  0  0  0  0  0
   50.9040  153.8702   28.7225 H   0  0  0  0  0  0  0  0  0  0  0  0
   52.2930  152.7240   26.5810 H   0  0  0  0  0  0  0  0  0  0  0  0
   53.8231  151.2929   25.2169 H   0  0  0  0  0  0  0  0  0  0  0  0
   52.9780  151.6843   23.6809 H   0  0  0  0  0  0  0  0  0  0  0  0
   54.7496  151.3876   23.6809 H   0  0  0  0  0  0  0  0  0  0  0  0
   55.9717  155.7148   23.1484 H   0  0  0  0  0  0  0  0  0  0  0  0
   54.9349  157.0823   24.9286 H   0  0  0  0  0  0  0  0  0  0  0  0
  1  2  1  0
  2  3  1  0
  3  4  2  0
  4  5  1  0
  5  6  2  0
  6  7  1  0
  7  8  2  0
  7  9  1  0
  9 10  1  0
 10 11  2  0
 11 12  1  0
 11 13  1  0
 13 14  2  0
 14 15  1  0
 15 16  2  0
  8  3  1  0
 16 10  1  0
 16  6  1  0
  1 17  1  0
  1 18  1  0
  1 19  1  0
  4 20  1  0
  5 21  1  0
  8 22  1  0
  9 23  1  0
 12 24  1  0
 12 25  1  0
 12 26  1  0
 14 27  1  0
 15 28  1  0
M  END
>  <meeko>  (4) 
{"is_sidechain": [false], "free_energy": -7.681, "intermolecular_energy": -8.13, "internal_energy": -0.036}

$$$$
harmine_out
     RDKit          3D

 28 30  0  0  0  0  0  0  0  0999 V2000
   54.1000  151.5890   23.9590 C   0  0  0  0  0  0  0  0  0  0  0  0
   54.2120  152.9260   23.4890 O   0  0  0  0  0  0  0  0  0  0  0  0
   53.9440  153.9240   24.3890 C   0  0  0  0  0  0  0  0  0  0  0  0
   54.3340  155.2560   24.2680 C   0  0  0  0  0  0  0  0  0  0  0  0
   54.0020  156.1960   25.2550 C   0  0  0  0  0  0  0  0  0  0  0  0
   53.2630  155.7910   26.3850 C   0  0  0  0  0  0  0  0  0  0  0  0
   52.8840  154.4540   26.4820 C   0  0  0  0  0  0  0  0  0  0  0  0
   53.2080  153.5050   25.5050 C   0  0  0  0  0  0  0  0  0  0  0  0
   52.1840  154.3170   27.6570 N   0  0  0  0  0  0  0  0  0  0  0  0
   52.0960  155.5170   28.3230 C   0  0  0  0  0  0  0  0  0  0  0  0
   51.4830  155.8370   29.5400 C   0  0  0  0  0  0  0  0  0  0  0  0
   50.7560  154.8540   30.4030 C   0  0  0  0  0  0  0  0  0  0  0  0
   51.5550  157.1270   29.9660 N   0  0  0  0  0  0  0  0  0  0  0  0
   52.2020  158.0460   29.2160 C   0  0  0  0  0  0  0  0  0  0  0  0
   52.8250  157.7840   28.0080 C   0  0  0  0  0  0  0  0  0  0  0  0
   52.7660  156.4620   27.5460 C   0  0  0  0  0  0  0  0  0  0  0  0
   54.0997  151.5858   25.0590 H   0  0  0  0  0  0  0  0  0  0  0  0
   53.1618  151.1483   23.5908 H   0  0  0  0  0  0  0  0  0  0  0  0
   54.9518  150.9983   23.5908 H   0  0  0  0  0  0  0  0  0  0  0  0
   54.9100  155.5749   23.3868 H   0  0  0  0  0  0  0  0  0  0  0  0
   54.3170  157.2445   25.1476 H   0  0  0  0  0  0  0  0  0  0  0  0
   52.8925  152.4566   25.6110 H   0  0  0  0  0  0  0  0  0  0  0  0
   51.7970  153.4710   27.9780 H   0  0  0  0  0  0  0  0  0  0  0  0
   50.9335  155.0940   31.4617 H   0  0  0  0  0  0  0  0  0  0  0  0
   49.6780  154.9068   30.1908 H   0  0  0  0  0  0  0  0  0  0  0  0
   51.1222  153.8387   30.1908 H   0  0  0  0  0  0  0  0  0  0  0  0
   52.2362  159.0787   29.5933 H   0  0  0  0  0  0  0  0  0  0  0  0
   53.3399  158.5727   27.4398 H   0  0  0  0  0  0  0  0  0  0  0  0
  1  2  1  0
  2  3  1  0
  3  4  2  0
  4  5  1  0
  5  6  2  0
  6  7  1  0
  7  8  2  0
  7  9  1  0
  9 10  1  0
 10 11  2  0
 11 12  1  0
 11 13  1  0
 13 14  2  0
 14 15  1  0
 15 16  2  0
  8  3  1  0
 16 10  1  0
 16  6  1  0
  1 17  1  0
  1 18  1  0
  1 19  1  0
  4 20  1  0
  5 21  1  0
  8 22  1  0
  9 23  1  0
 12 24  1  0
 12 25  1  0
 12 26  1  0
 14 27  1  0
 15 28  1  0
M  END
>  <meeko>  (5) 
{"is_sidechain": [false], "free_energy": -7.354, "intermolecular_energy": -7.759, "internal_energy": -0.06}

$$$$
harmine_out
     RDKit          3D

 28 30  0  0  0  0  0  0  0  0999 V2000
   49.1490  157.9730   30.4520 C   0  0  0  0  0  0  0  0  0  0  0  0
   50.2140  157.0410   30.5940 O   0  0  0  0  0  0  0  0  0  0  0  0
   51.0360  156.8680   29.5120 C   0  0  0  0  0  0  0  0  0  0  0  0
   51.7370  157.8750   28.8510 C   0  0  0  0  0  0  0  0  0  0  0  0
   52.5530  157.5790   27.7490 C   0  0  0  0  0  0  0  0  0  0  0  0
   52.6670  156.2470   27.3010 C   0  0  0  0  0  0  0  0  0  0  0  0
   51.9570  155.2590   27.9790 C   0  0  0  0  0  0  0  0  0  0  0  0
   51.1390  155.5380   29.0800 C   0  0  0  0  0  0  0  0  0  0  0  0
   52.2340  154.0650   27.3580 N   0  0  0  0  0  0  0  0  0  0  0  0
   53.0980  154.2440   26.3030 C   0  0  0  0  0  0  0  0  0  0  0  0
   53.6400  153.3180   25.4040 C   0  0  0  0  0  0  0  0  0  0  0  0
   53.3550  151.8490   25.4340 C   0  0  0  0  0  0  0  0  0  0  0  0
   54.4810  153.7840   24.4430 N   0  0  0  0  0  0  0  0  0  0  0  0
   54.7650  155.1030   24.3820 C   0  0  0  0  0  0  0  0  0  0  0  0
   54.2570  156.0620   25.2430 C   0  0  0  0  0  0  0  0  0  0  0  0
   53.3880  155.6070   26.2440 C   0  0  0  0  0  0  0  0  0  0  0  0
   48.7965  158.2815   31.4473 H   0  0  0  0  0  0  0  0  0  0  0  0
   49.5049  158.8551   29.8994 H   0  0  0  0  0  0  0  0  0  0  0  0
   48.3219  157.5033   29.8994 H   0  0  0  0  0  0  0  0  0  0  0  0
   51.6493  158.9152   29.1978 H   0  0  0  0  0  0  0  0  0  0  0  0
   53.1017  158.3829   27.2365 H   0  0  0  0  0  0  0  0  0  0  0  0
   50.5908  154.7343   29.5933 H   0  0  0  0  0  0  0  0  0  0  0  0
   51.8620  153.1960   27.6320 H   0  0  0  0  0  0  0  0  0  0  0  0
   53.2891  151.5095   26.4782 H   0  0  0  0  0  0  0  0  0  0  0  0
   52.4015  151.6500   24.9229 H   0  0  0  0  0  0  0  0  0  0  0  0
   54.1649  151.3079   24.9229 H   0  0  0  0  0  0  0  0  0  0  0  0
   55.4501  155.4406   23.5904 H   0  0  0  0  0  0  0  0  0  0  0  0
   54.5219  157.1252   25.1461 H   0  0  0  0  0  0  0  0  0  0  0  0
  1  2  1  0
  2  3  1  0
  3  4  2  0
  4  5  1  0
  5  6  2  0
  6  7  1  0
  7  8  2  0
  7  9  1  0
  9 10  1  0
 10 11  2  0
 11 12  1  0
 11 13  1  0
 13 14  2  0
 14 15  1  0
 15 16  2  0
  8  3  1  0
 16 10  1  0
 16  6  1  0
  1 17  1  0
  1 18  1  0
  1 19  1  0
  4 20  1  0
  5 21  1  0
  8 22  1  0
  9 23  1  0
 12 24  1  0
 12 25  1  0
 12 26  1  0
 14 27  1  0
 15 28  1  0
M  END
>  <meeko>  (6) 
{"is_sidechain": [false], "free_energy": -6.866, "intermolecular_energy": -7.267, "internal_energy": -0.036}

$$$$
harmine_out
     RDKit          3D

 28 30  0  0  0  0  0  0  0  0999 V2000
   54.5180  153.2870   22.9250 C   0  0  0  0  0  0  0  0  0  0  0  0
   54.7870  154.3200   23.8650 O   0  0  0  0  0  0  0  0  0  0  0  0
   53.9140  154.4480   24.9130 C   0  0  0  0  0  0  0  0  0  0  0  0
   53.0130  153.4780   25.3470 C   0  0  0  0  0  0  0  0  0  0  0  0
   52.1640  153.7210   26.4370 C   0  0  0  0  0  0  0  0  0  0  0  0
   52.2190  154.9620   27.1030 C   0  0  0  0  0  0  0  0  0  0  0  0
   53.1280  155.9150   26.6500 C   0  0  0  0  0  0  0  0  0  0  0  0
   53.9830  155.6870   25.5650 C   0  0  0  0  0  0  0  0  0  0  0  0
   52.9900  157.0200   27.4550 N   0  0  0  0  0  0  0  0  0  0  0  0
   52.0230  156.8170   28.4130 C   0  0  0  0  0  0  0  0  0  0  0  0
   51.5570  157.6620   29.4270 C   0  0  0  0  0  0  0  0  0  0  0  0
   52.0680  159.0460   29.6710 C   0  0  0  0  0  0  0  0  0  0  0  0
   50.5770  157.1910   30.2430 N   0  0  0  0  0  0  0  0  0  0  0  0
   50.0880  155.9450   30.0560 C   0  0  0  0  0  0  0  0  0  0  0  0
   50.5110  155.0700   29.0700 C   0  0  0  0  0  0  0  0  0  0  0  0
   51.5220  155.5300   28.2150 C   0  0  0  0  0  0  0  0  0  0  0  0
   54.2759  152.3574   23.4610 H   0  0  0  0  0  0  0  0  0  0  0  0
   53.6659  153.5787   22.2935 H   0  0  0  0  0  0  0  0  0  0  0  0
   55.4042  153.1260   22.2935 H   0  0  0  0  0  0  0  0  0  0  0  0
   52.9668  152.5091   24.8283 H   0  0  0  0  0  0  0  0  0  0  0  0
   51.4581  152.9461   26.7706 H   0  0  0  0  0  0  0  0  0  0  0  0
   54.6909  156.4605   25.2326 H   0  0  0  0  0  0  0  0  0  0  0  0
   53.5120  157.8480   27.3570 H   0  0  0  0  0  0  0  0  0  0  0  0
   52.1347  159.2266   30.7540 H   0  0  0  0  0  0  0  0  0  0  0  0
   53.0652  159.1537   29.2192 H   0  0  0  0  0  0  0  0  0  0  0  0
   51.3801  159.7758   29.2192 H   0  0  0  0  0  0  0  0  0  0  0  0
   49.2958  155.6009   30.7372 H   0  0  0  0  0  0  0  0  0  0  0  0
   50.0760  154.0653   28.9631 H   0  0  0  0  0  0  0  0  0  0  0  0
  1  2  1  0
  2  3  1  0
  3  4  2  0
  4  5  1  0
  5  6  2  0
  6  7  1  0
  7  8  2  0
  7  9  1  0
  9 10  1  0
 10 11  2  0
 11 12  1  0
 11 13  1  0
 13 14  2  0
 14 15  1  0
 15 16  2  0
  8  3  1  0
 16 10  1  0
 16  6  1  0
  1 17  1  0
  1 18  1  0
  1 19  1  0
  4 20  1  0
  5 21  1  0
  8 22  1  0
  9 23  1  0
 12 24  1  0
 12 25  1  0
 12 26  1  0
 14 27  1  0
 15 28  1  0
M  END
>  <meeko>  (7) 
{"is_sidechain": [false], "free_energy": -6.39, "intermolecular_energy": -6.758, "internal_energy": -0.041}

$$$$
harmine_out
     RDKit          3D

 28 30  0  0  0  0  0  0  0  0999 V2000
   48.4280  161.5700   33.5630 C   0  0  0  0  0  0  0  0  0  0  0  0
   48.0440  160.7820   32.4440 O   0  0  0  0  0  0  0  0  0  0  0  0
   49.0520  160.2600   31.6770 C   0  0  0  0  0  0  0  0  0  0  0  0
   50.1810  160.9480   31.2360 C   0  0  0  0  0  0  0  0  0  0  0  0
   51.1530  160.3080   30.4520 C   0  0  0  0  0  0  0  0  0  0  0  0
   50.9890  158.9530   30.1030 C   0  0  0  0  0  0  0  0  0  0  0  0
   49.8530  158.2870   30.5570 C   0  0  0  0  0  0  0  0  0  0  0  0
   48.8750  158.9110   31.3400 C   0  0  0  0  0  0  0  0  0  0  0  0
   49.9280  156.9960   30.0910 N   0  0  0  0  0  0  0  0  0  0  0  0
   51.0720  156.8030   29.3510 C   0  0  0  0  0  0  0  0  0  0  0  0
   51.5470  155.6610   28.6950 C   0  0  0  0  0  0  0  0  0  0  0  0
   50.8420  154.3420   28.6800 C   0  0  0  0  0  0  0  0  0  0  0  0
   52.7290  155.7600   28.0290 N   0  0  0  0  0  0  0  0  0  0  0  0
   53.3980  156.9330   28.0180 C   0  0  0  0  0  0  0  0  0  0  0  0
   52.9740  158.0910   28.6480 C   0  0  0  0  0  0  0  0  0  0  0  0
   51.7580  158.0170   29.3430 C   0  0  0  0  0  0  0  0  0  0  0  0
   48.1694  161.0394   34.4912 H   0  0  0  0  0  0  0  0  0  0  0  0
   49.5133  161.7468   33.5319 H   0  0  0  0  0  0  0  0  0  0  0  0
   47.8985  162.5337   33.5319 H   0  0  0  0  0  0  0  0  0  0  0  0
   50.3118  162.0063   31.5060 H   0  0  0  0  0  0  0  0  0  0  0  0
   52.0399  160.8623   30.1111 H   0  0  0  0  0  0  0  0  0  0  0  0
   47.9890  158.3563   31.6826 H   0  0  0  0  0  0  0  0  0  0  0  0
   49.2510  156.3030   30.2630 H   0  0  0  0  0  0  0  0  0  0  0  0
   50.6643  154.0095   29.7134 H   0  0  0  0  0  0  0  0  0  0  0  0
   49.8795  154.4466   28.1578 H   0  0  0  0  0  0  0  0  0  0  0  0
   51.4637  153.5998   28.1578 H   0  0  0  0  0  0  0  0  0  0  0  0
   54.3499  156.9715   27.4681 H   0  0  0  0  0  0  0  0  0  0  0  0
   53.5605  159.0207   28.6056 H   0  0  0  0  0  0  0  0  0  0  0  0
  1  2  1  0
  2  3  1  0
  3  4  2  0
  4  5  1  0
  5  6  2  0
  6  7  1  0
  7  8  2  0
  7  9  1  0
  9 10  1  0
 10 11  2  0
 11 12  1  0
 11 13  1  0
 13 14  2  0
 14 15  1  0
 15 16  2  0
  8  3  1  0
 16 10  1  0
 16  6  1  0
  1 17  1  0
  1 18  1  0
  1 19  1  0
  4 20  1  0
  5 21  1  0
  8 22  1  0
  9 23  1  0
 12 24  1  0
 12 25  1  0
 12 26  1  0
 14 27  1  0
 15 28  1  0
M  END
>  <meeko>  (8) 
{"is_sidechain": [false], "free_energy": -6.296, "intermolecular_energy": -6.662, "internal_energy": -0.038}

$$$$
harmine_out
     RDKit          3D

 28 30  0  0  0  0  0  0  0  0999 V2000
   48.4970  162.2440   33.1040 C   0  0  0  0  0  0  0  0  0  0  0  0
   49.5560  161.9990   32.1870 O   0  0  0  0  0  0  0  0  0  0  0  0
   49.6420  160.7370   31.6610 C   0  0  0  0  0  0  0  0  0  0  0  0
   48.7520  159.6910   31.9010 C   0  0  0  0  0  0  0  0  0  0  0  0
   48.9400  158.4350   31.3050 C   0  0  0  0  0  0  0  0  0  0  0  0
   50.0430  158.2250   30.4520 C   0  0  0  0  0  0  0  0  0  0  0  0
   50.9160  159.2850   30.2270 C   0  0  0  0  0  0  0  0  0  0  0  0
   50.7420  160.5440   30.8140 C   0  0  0  0  0  0  0  0  0  0  0  0
   51.8920  158.8320   29.3730 N   0  0  0  0  0  0  0  0  0  0  0  0
   51.6810  157.5150   29.0350 C   0  0  0  0  0  0  0  0  0  0  0  0
   52.4150  156.6610   28.2040 C   0  0  0  0  0  0  0  0  0  0  0  0
   53.6590  157.0580   27.4740 C   0  0  0  0  0  0  0  0  0  0  0  0
   51.9660  155.3860   28.0500 N   0  0  0  0  0  0  0  0  0  0  0  0
   50.8460  154.9870   28.6910 C   0  0  0  0  0  0  0  0  0  0  0  0
   50.0840  155.7880   29.5240 C   0  0  0  0  0  0  0  0  0  0  0  0
   50.5240  157.1070   29.7000 C   0  0  0  0  0  0  0  0  0  0  0  0
   48.8755  162.1564   34.1331 H   0  0  0  0  0  0  0  0  0  0  0  0
   48.1006  163.2576   32.9441 H   0  0  0  0  0  0  0  0  0  0  0  0
   47.6957  161.5075   32.9441 H   0  0  0  0  0  0  0  0  0  0  0  0
   47.8911  159.8527   32.5664 H   0  0  0  0  0  0  0  0  0  0  0  0
   48.2304  157.6179   31.5022 H   0  0  0  0  0  0  0  0  0  0  0  0
   51.4509  161.3614   30.6155 H   0  0  0  0  0  0  0  0  0  0  0  0
   52.6430  159.3770   29.0450 H   0  0  0  0  0  0  0  0  0  0  0  0
   54.4460  157.3092   28.2003 H   0  0  0  0  0  0  0  0  0  0  0  0
   53.9959  156.2227   26.8425 H   0  0  0  0  0  0  0  0  0  0  0  0
   53.4498  157.9340   26.8425 H   0  0  0  0  0  0  0  0  0  0  0  0
   50.5150  153.9489   28.5399 H   0  0  0  0  0  0  0  0  0  0  0  0
   49.1796  155.4088   30.0222 H   0  0  0  0  0  0  0  0  0  0  0  0
  1  2  1  0
  2  3  1  0
  3  4  2  0
  4  5  1  0
  5  6  2  0
  6  7  1  0
  7  8  2  0
  7  9  1  0
  9 10  1  0
 10 11  2  0
 11 12  1  0
 11 13  1  0
 13 14  2  0
 14 15  1  0
 15 16  2  0
  8  3  1  0
 16 10  1  0
 16  6  1  0
  1 17  1  0
  1 18  1  0
  1 19  1  0
  4 20  1  0
  5 21  1  0
  8 22  1  0
  9 23  1  0
 12 24  1  0
 12 25  1  0
 12 26  1  0
 14 27  1  0
 15 28  1  0
M  END
>  <meeko>  (9) 
{"is_sidechain": [false], "free_energy": -6.201, "intermolecular_energy": -6.558, "internal_energy": -0.042}

$$$$
