isatin_out
     RDKit          3D

 16 17  0  0  0  0  0  0  0  0999 V2000
   55.0600  150.8830   24.8190 O   0  0  0  0  0  0  0  0  0  0  0  0
   54.7390  152.0390   24.9770 C   0  0  0  0  0  0  0  0  0  0  0  0
   55.2670  153.1620   24.3700 N   0  0  0  0  0  0  0  0  0  0  0  0
   54.6280  154.3150   24.8160 C   0  0  0  0  0  0  0  0  0  0  0  0
   54.8870  155.6140   24.4340 C   0  0  0  0  0  0  0  0  0  0  0  0
   54.1140  156.6230   25.0180 C   0  0  0  0  0  0  0  0  0  0  0  0
   53.1090  156.3200   25.9610 C   0  0  0  0  0  0  0  0  0  0  0  0
   52.8590  154.9990   26.3390 C   0  0  0  0  0  0  0  0  0  0  0  0
   53.6350  154.0230   25.7480 C   0  0  0  0  0  0  0  0  0  0  0  0
   53.6250  152.5690   25.9240 C   0  0  0  0  0  0  0  0  0  0  0  0
   52.9040  151.9250   26.6500 O   0  0  0  0  0  0  0  0  0  0  0  0
   55.9980  153.1480   23.7110 H   0  0  0  0  0  0  0  0  0  0  0  0
   55.6709  155.8479   23.6987 H   0  0  0  0  0  0  0  0  0  0  0  0
   54.2928  157.6714   24.7371 H   0  0  0  0  0  0  0  0  0  0  0  0
   52.5156  157.1337   26.4035 H   0  0  0  0  0  0  0  0  0  0  0  0
   52.0797  154.7482   27.0737 H   0  0  0  0  0  0  0  0  0  0  0  0
  1  2  2  0
  2  3  1  0
  3  4  1  0
  4  5  2  0
  5  6  1  0
  6  7  2  0
  7  8  1  0
  8  9  2  0
  9 10  1  0
 10 11  2  0
 10  2  1  0
  9  4  1  0
  3 12  1  0
  5 13  1  0
  6 14  1  0
  7 15  1  0
  8 16  1  0
M  END
>  <meeko>  (1) 
{"is_sidechain": [false], "free_energy": -7.666, "intermolecular_energy": -7.666, "internal_energy": 0.0}

$$$$
isatin_out
     RDKit          3D

 16 17  0  0  0  0  0  0  0  0999 V2000
   51.7830  151.9480   27.8870 O   0  0  0  0  0  0  0  0  0  0  0  0
   52.3500  152.7870   27.2230 C   0  0  0  0  0  0  0  0  0  0  0  0
   52.2030  154.1600   27.2750 N   0  0  0  0  0  0  0  0  0  0  0  0
   53.0330  154.7840   26.3500 C   0  0  0  0  0  0  0  0  0  0  0  0
   53.1550  156.1380   26.1180 C   0  0  0  0  0  0  0  0  0  0  0  0
   54.0610  156.5420   25.1300 C   0  0  0  0  0  0  0  0  0  0  0  0
   54.8180  155.5990   24.4030 C   0  0  0  0  0  0  0  0  0  0  0  0
   54.6840  154.2310   24.6500 C   0  0  0  0  0  0  0  0  0  0  0  0
   53.7840  153.8590   25.6290 C   0  0  0  0  0  0  0  0  0  0  0  0
   53.4150  152.5290   26.1190 C   0  0  0  0  0  0  0  0  0  0  0  0
   53.8470  151.4650   25.7450 O   0  0  0  0  0  0  0  0  0  0  0  0
   51.5910  154.6320   27.8850 H   0  0  0  0  0  0  0  0  0  0  0  0
   52.5641  156.8712   26.6865 H   0  0  0  0  0  0  0  0  0  0  0  0
   54.1849  157.6140   24.9167 H   0  0  0  0  0  0  0  0  0  0  0  0
   55.5223  155.9455   23.6323 H   0  0  0  0  0  0  0  0  0  0  0  0
   55.2679  153.4850   24.0910 H   0  0  0  0  0  0  0  0  0  0  0  0
  1  2  2  0
  2  3  1  0
  3  4  1  0
  4  5  2  0
  5  6  1  0
  6  7  2  0
  7  8  1  0
  8  9  2  0
  9 10  1  0
 10 11  2  0
 10  2  1  0
  9  4  1  0
  3 12  1  0
  5 13  1  0
  6 14  1  0
  7 15  1  0
  8 16  1  0
M  END
>  <meeko>  (2) 
{"is_sidechain": [false], "free_energy": -7.607, "intermolecular_energy": -7.607, "internal_energy": 0.0}

$$$$
isatin_out
     RDKit          3D

 16 17  0  0  0  0  0  0  0  0999 V2000
   52.5860  158.6340   29.3580 O   0  0  0  0  0  0  0  0  0  0  0  0
   51.6120  159.0530   29.9430 C   0  0  0  0  0  0  0  0  0  0  0  0
   50.3870  158.4380   30.1100 N   0  0  0  0  0  0  0  0  0  0  0  0
   49.5220  159.2440   30.8440 C   0  0  0  0  0  0  0  0  0  0  0  0
   48.2220  158.9620   31.2050 C   0  0  0  0  0  0  0  0  0  0  0  0
   47.5360  159.9280   31.9490 C   0  0  0  0  0  0  0  0  0  0  0  0
   48.1540  161.1430   32.3150 C   0  0  0  0  0  0  0  0  0  0  0  0
   49.4730  161.4150   31.9420 C   0  0  0  0  0  0  0  0  0  0  0  0
   50.1260  160.4450   31.2080 C   0  0  0  0  0  0  0  0  0  0  0  0
   51.4880  160.4220   30.6710 C   0  0  0  0  0  0  0  0  0  0  0  0
   52.3310  161.2820   30.7740 O   0  0  0  0  0  0  0  0  0  0  0  0
   50.1560  157.5490   29.7560 H   0  0  0  0  0  0  0  0  0  0  0  0
   47.7425  158.0142   30.9192 H   0  0  0  0  0  0  0  0  0  0  0  0
   46.4965  159.7372   32.2542 H   0  0  0  0  0  0  0  0  0  0  0  0
   47.5908  161.8845   32.9007 H   0  0  0  0  0  0  0  0  0  0  0  0
   49.9676  162.3574   32.2201 H   0  0  0  0  0  0  0  0  0  0  0  0
  1  2  2  0
  2  3  1  0
  3  4  1  0
  4  5  2  0
  5  6  1  0
  6  7  2  0
  7  8  1  0
  8  9  2  0
  9 10  1  0
 10 11  2  0
 10  2  1  0
  9  4  1  0
  3 12  1  0
  5 13  1  0
  6 14  1  0
  7 15  1  0
  8 16  1  0
M  END
>  <meeko>  (3) 
{"is_sidechain": [false], "free_energy": -7.474, "intermolecular_energy": -7.474, "internal_energy": 0.0}

$$$$
isatin_out
     RDKit          3D

 16 17  0  0  0  0  0  0  0  0999 V2000
   51.5230  151.7580   28.2030 O   0  0  0  0  0  0  0  0  0  0  0  0
   52.1050  152.5530   27.4990 C   0  0  0  0  0  0  0  0  0  0  0  0
   53.1070  152.3070   26.5820 N   0  0  0  0  0  0  0  0  0  0  0  0
   53.5210  153.4850   25.9690 C   0  0  0  0  0  0  0  0  0  0  0  0
   54.4980  153.6270   25.0060 C   0  0  0  0  0  0  0  0  0  0  0  0
   54.7480  154.9190   24.5290 C   0  0  0  0  0  0  0  0  0  0  0  0
   54.0280  156.0300   25.0170 C   0  0  0  0  0  0  0  0  0  0  0  0
   53.0420  155.8700   25.9930 C   0  0  0  0  0  0  0  0  0  0  0  0
   52.8140  154.5860   26.4460 C   0  0  0  0  0  0  0  0  0  0  0  0
   51.8670  154.0890   27.4460 C   0  0  0  0  0  0  0  0  0  0  0  0
   51.0730  154.7360   28.0880 O   0  0  0  0  0  0  0  0  0  0  0  0
   53.4800  151.4160   26.3880 H   0  0  0  0  0  0  0  0  0  0  0  0
   55.0585  152.7594   24.6278 H   0  0  0  0  0  0  0  0  0  0  0  0
   55.5196  155.0709   23.7599 H   0  0  0  0  0  0  0  0  0  0  0  0
   54.2459  157.0340   24.6240 H   0  0  0  0  0  0  0  0  0  0  0  0
   52.4734  156.7272   26.3827 H   0  0  0  0  0  0  0  0  0  0  0  0
  1  2  2  0
  2  3  1  0
  3  4  1  0
  4  5  2  0
  5  6  1  0
  6  7  2  0
  7  8  1  0
  8  9  2  0
  9 10  1  0
 10 11  2  0
 10  2  1  0
  9  4  1  0
  3 12  1  0
  5 13  1  0
  6 14  1  0
  7 15  1  0
  8 16  1  0
M  END
>  <meeko>  (4) 
{"is_sidechain": [false], "free_energy": -7.453, "intermolecular_energy": -7.453, "internal_energy": 0.0}

$$$$
isatin_out
     RDKit          3D

 16 17  0  0  0  0  0  0  0  0999 V2000
   51.1470  154.8120   28.4720 O   0  0  0  0  0  0  0  0  0  0  0  0
   51.7760  154.3620   27.5400 C   0  0  0  0  0  0  0  0  0  0  0  0
   52.3080  155.0420   26.4620 N   0  0  0  0  0  0  0  0  0  0  0  0
   52.9650  154.1700   25.5990 C   0  0  0  0  0  0  0  0  0  0  0  0
   53.6130  154.4890   24.4250 C   0  0  0  0  0  0  0  0  0  0  0  0
   54.2090  153.4400   23.7140 C   0  0  0  0  0  0  0  0  0  0  0  0
   54.1460  152.1110   24.1830 C   0  0  0  0  0  0  0  0  0  0  0  0
   53.4850  151.8040   25.3750 C   0  0  0  0  0  0  0  0  0  0  0  0
   52.9070  152.8560   26.0570 C   0  0  0  0  0  0  0  0  0  0  0  0
   52.1550  152.8700   27.3130 C   0  0  0  0  0  0  0  0  0  0  0  0
   51.8890  151.9260   28.0180 O   0  0  0  0  0  0  0  0  0  0  0  0
   52.2320  156.0140   26.3230 H   0  0  0  0  0  0  0  0  0  0  0  0
   53.6601  155.5260   24.0612 H   0  0  0  0  0  0  0  0  0  0  0  0
   54.7358  153.6562   22.7728 H   0  0  0  0  0  0  0  0  0  0  0  0
   54.6229  151.3069   23.6034 H   0  0  0  0  0  0  0  0  0  0  0  0
   53.4278  150.7724   25.7524 H   0  0  0  0  0  0  0  0  0  0  0  0
  1  2  2  0
  2  3  1  0
  3  4  1  0
  4  5  2  0
  5  6  1  0
  6  7  2  0
  7  8  1  0
  8  9  2  0
  9 10  1  0
 10 11  2  0
 10  2  1  0
  9  4  1  0
  3 12  1  0
  5 13  1  0
  6 14  1  0
  7 15  1  0
  8 16  1  0
M  END
>  <meeko>  (5) 
{"is_sidechain": [false], "free_energy": -7.352, "intermolecular_energy": -7.352, "internal_energy": 0.0}

$$$$
isatin_out
     RDKit          3D

 16 17  0  0  0  0  0  0  0  0999 V2000
   53.8070  151.0290   25.1980 O   0  0  0  0  0  0  0  0  0  0  0  0
   53.5890  152.1470   25.6100 C   0  0  0  0  0  0  0  0  0  0  0  0
   53.1260  152.5220   26.8550 N   0  0  0  0  0  0  0  0  0  0  0  0
   53.0040  153.9050   26.9450 C   0  0  0  0  0  0  0  0  0  0  0  0
   52.5730  154.6370   28.0310 C   0  0  0  0  0  0  0  0  0  0  0  0
   52.5310  156.0290   27.8930 C   0  0  0  0  0  0  0  0  0  0  0  0
   52.9160  156.6560   26.6890 C   0  0  0  0  0  0  0  0  0  0  0  0
   53.3500  155.9010   25.5970 C   0  0  0  0  0  0  0  0  0  0  0  0
   53.3820  154.5300   25.7590 C   0  0  0  0  0  0  0  0  0  0  0  0
   53.7800  153.4750   24.8240 C   0  0  0  0  0  0  0  0  0  0  0  0
   54.1720  153.6130   23.6890 O   0  0  0  0  0  0  0  0  0  0  0  0
   52.9100  151.8940   27.5820 H   0  0  0  0  0  0  0  0  0  0  0  0
   52.2739  154.1462   28.9689 H   0  0  0  0  0  0  0  0  0  0  0  0
   52.1917  156.6455   28.7385 H   0  0  0  0  0  0  0  0  0  0  0  0
   52.8738  157.7523   26.6095 H   0  0  0  0  0  0  0  0  0  0  0  0
   53.6522  156.3763   24.6521 H   0  0  0  0  0  0  0  0  0  0  0  0
  1  2  2  0
  2  3  1  0
  3  4  1  0
  4  5  2  0
  5  6  1  0
  6  7  2  0
  7  8  1  0
  8  9  2  0
  9 10  1  0
 10 11  2  0
 10  2  1  0
  9  4  1  0
  3 12  1  0
  5 13  1  0
  6 14  1  0
  7 15  1  0
  8 16  1  0
M  END
>  <meeko>  (6) 
{"is_sidechain": [false], "free_energy": -7.317, "intermolecular_energy": -7.317, "internal_energy": 0.0}

$$$$
isatin_out
     RDKit          3D

 16 17  0  0  0  0  0  0  0  0999 V2000
   52.2290  154.5700   29.0880 O   0  0  0  0  0  0  0  0  0  0  0  0
   52.6390  154.2210   28.0040 C   0  0  0  0  0  0  0  0  0  0  0  0
   52.9660  152.9460   27.5850 N   0  0  0  0  0  0  0  0  0  0  0  0
   53.4010  152.9530   26.2640 C   0  0  0  0  0  0  0  0  0  0  0  0
   53.8100  151.8700   25.5140 C   0  0  0  0  0  0  0  0  0  0  0  0
   54.2090  152.1150   24.1950 C   0  0  0  0  0  0  0  0  0  0  0  0
   54.1920  153.4200   23.6570 C   0  0  0  0  0  0  0  0  0  0  0  0
   53.7750  154.5060   24.4290 C   0  0  0  0  0  0  0  0  0  0  0  0
   53.3870  154.2380   25.7260 C   0  0  0  0  0  0  0  0  0  0  0  0
   52.9070  155.1380   26.7770 C   0  0  0  0  0  0  0  0  0  0  0  0
   52.7530  156.3350   26.7010 O   0  0  0  0  0  0  0  0  0  0  0  0
   52.9000  152.1410   28.1480 H   0  0  0  0  0  0  0  0  0  0  0  0
   53.8221  150.8541   25.9358 H   0  0  0  0  0  0  0  0  0  0  0  0
   54.5417  151.2758   23.5665 H   0  0  0  0  0  0  0  0  0  0  0  0
   54.5111  153.5832   22.6170 H   0  0  0  0  0  0  0  0  0  0  0  0
   53.7566  155.5279   24.0223 H   0  0  0  0  0  0  0  0  0  0  0  0
  1  2  2  0
  2  3  1  0
  3  4  1  0
  4  5  2  0
  5  6  1  0
  6  7  2  0
  7  8  1  0
  8  9  2  0
  9 10  1  0
 10 11  2  0
 10  2  1  0
  9  4  1  0
  3 12  1  0
  5 13  1  0
  6 14  1  0
  7 15  1  0
  8 16  1  0
M  END
>  <meeko>  (7) 
{"is_sidechain": [false], "free_energy": -7.302, "intermolecular_energy": -7.302, "internal_energy": 0.0}

$$$$
isatin_out
     RDKit          3D

 16 17  0  0  0  0  0  0  0  0999 V2000
   54.0920  151.4460   24.0810 O   0  0  0  0  0  0  0  0  0  0  0  0
   53.8850  152.5000   24.6410 C   0  0  0  0  0  0  0  0  0  0  0  0
   54.2010  153.7730   24.2080 N   0  0  0  0  0  0  0  0  0  0  0  0
   53.7990  154.7280   25.1360 C   0  0  0  0  0  0  0  0  0  0  0  0
   53.9480  156.0950   25.0450 C   0  0  0  0  0  0  0  0  0  0  0  0
   53.4630  156.8680   26.1070 C   0  0  0  0  0  0  0  0  0  0  0  0
   52.8450  156.2670   27.2240 C   0  0  0  0  0  0  0  0  0  0  0  0
   52.7010  154.8800   27.3020 C   0  0  0  0  0  0  0  0  0  0  0  0
   53.1870  154.1410   26.2420 C   0  0  0  0  0  0  0  0  0  0  0  0
   53.1930  152.6940   26.0200 C   0  0  0  0  0  0  0  0  0  0  0  0
   52.7530  151.8390   26.7530 O   0  0  0  0  0  0  0  0  0  0  0  0
   54.6530  153.9760   23.3570 H   0  0  0  0  0  0  0  0  0  0  0  0
   54.4291  156.5606   24.1722 H   0  0  0  0  0  0  0  0  0  0  0  0
   53.5655  157.9626   26.0698 H   0  0  0  0  0  0  0  0  0  0  0  0
   52.4720  156.8987   28.0436 H   0  0  0  0  0  0  0  0  0  0  0  0
   52.2226  154.3988   28.1678 H   0  0  0  0  0  0  0  0  0  0  0  0
  1  2  2  0
  2  3  1  0
  3  4  1  0
  4  5  2  0
  5  6  1  0
  6  7  2  0
  7  8  1  0
  8  9  2  0
  9 10  1  0
 10 11  2  0
 10  2  1  0
  9  4  1  0
  3 12  1  0
  5 13  1  0
  6 14  1  0
  7 15  1  0
  8 16  1  0
M  END
>  <meeko>  (8) 
{"is_sidechain": [false], "free_energy": -7.211, "intermolecular_energy": -7.211, "internal_energy": 0.0}

$$$$
isatin_out
     RDKit          3D

 16 17  0  0  0  0  0  0  0  0999 V2000
   53.0340  156.7830   28.7490 O   0  0  0  0  0  0  0  0  0  0  0  0
   52.2820  157.5640   29.2890 C   0  0  0  0  0  0  0  0  0  0  0  0
   52.5180  158.8840   29.6210 N   0  0  0  0  0  0  0  0  0  0  0  0
   51.4030  159.4490   30.2320 C   0  0  0  0  0  0  0  0  0  0  0  0
   51.2710  160.7400   30.6970 C   0  0  0  0  0  0  0  0  0  0  0  0
   50.0480  161.0920   31.2800 C   0  0  0  0  0  0  0  0  0  0  0  0
   48.9940  160.1600   31.3860 C   0  0  0  0  0  0  0  0  0  0  0  0
   49.1430  158.8550   30.9090 C   0  0  0  0  0  0  0  0  0  0  0  0
   50.3580  158.5340   30.3390 C   0  0  0  0  0  0  0  0  0  0  0  0
   50.8270  157.2760   29.7550 C   0  0  0  0  0  0  0  0  0  0  0  0
   50.2120  156.2400   29.6580 O   0  0  0  0  0  0  0  0  0  0  0  0
   53.3630  159.3600   29.4500 H   0  0  0  0  0  0  0  0  0  0  0  0
   52.0941  161.4649   30.6132 H   0  0  0  0  0  0  0  0  0  0  0  0
   49.9061  162.1136   31.6624 H   0  0  0  0  0  0  0  0  0  0  0  0
   48.0439  160.4642   31.8495 H   0  0  0  0  0  0  0  0  0  0  0  0
   48.3298  158.1181   30.9844 H   0  0  0  0  0  0  0  0  0  0  0  0
  1  2  2  0
  2  3  1  0
  3  4  1  0
  4  5  2  0
  5  6  1  0
  6  7  2  0
  7  8  1  0
  8  9  2  0
  9 10  1  0
 10 11  2  0
 10  2  1  0
  9  4  1  0
  3 12  1  0
  5 13  1  0
  6 14  1  0
  7 15  1  0
  8 16  1  0
M  END
>  <meeko>  (9) 
{"is_sidechain": [false], "free_energy": -7.075, "intermolecular_energy": -7.075, "internal_energy": 0.0}

$$$$
