quercetin_out
     RDKit          3D

 32 34  0  0  0  0  0  0  0  0999 V2000
   52.1590  152.8670   28.8280 O   0  0  0  0  0  0  0  0  0  0  0  0
   52.2780  154.0340   28.4590 C   0  0  0  0  0  0  0  0  0  0  0  0
   51.7260  155.1390   29.2740 C   0  0  0  0  0  0  0  0  0  0  0  0
   51.0710  154.7930   30.4420 O   0  0  0  0  0  0  0  0  0  0  0  0
   51.8750  156.4020   28.8300 C   0  0  0  0  0  0  0  0  0  0  0  0
   51.3490  157.5850   29.5490 C   0  0  0  0  0  0  0  0  0  0  0  0
   50.0220  157.5790   30.0180 C   0  0  0  0  0  0  0  0  0  0  0  0
   49.4880  158.6890   30.6800 C   0  0  0  0  0  0  0  0  0  0  0  0
   50.2810  159.8090   30.8680 C   0  0  0  0  0  0  0  0  0  0  0  0
   49.7620  160.8920   31.5150 O   0  0  0  0  0  0  0  0  0  0  0  0
   51.5930  159.8350   30.4070 C   0  0  0  0  0  0  0  0  0  0  0  0
   52.3210  160.9730   30.6270 O   0  0  0  0  0  0  0  0  0  0  0  0
   52.1310  158.7360   29.7440 C   0  0  0  0  0  0  0  0  0  0  0  0
   52.5140  156.7330   27.6410 O   0  0  0  0  0  0  0  0  0  0  0  0
   53.0420  155.7300   26.8680 C   0  0  0  0  0  0  0  0  0  0  0  0
   53.6850  156.1080   25.6890 C   0  0  0  0  0  0  0  0  0  0  0  0
   54.2380  155.1320   24.8660 C   0  0  0  0  0  0  0  0  0  0  0  0
   54.8550  155.5440   23.7230 O   0  0  0  0  0  0  0  0  0  0  0  0
   54.1610  153.7820   25.1990 C   0  0  0  0  0  0  0  0  0  0  0  0
   53.5190  153.4110   26.3790 C   0  0  0  0  0  0  0  0  0  0  0  0
   53.4720  152.0720   26.6580 O   0  0  0  0  0  0  0  0  0  0  0  0
   52.9600  154.3840   27.2120 C   0  0  0  0  0  0  0  0  0  0  0  0
   50.1720  154.5290   30.4150 H   0  0  0  0  0  0  0  0  0  0  0  0
   49.3959  156.6882   29.8615 H   0  0  0  0  0  0  0  0  0  0  0  0
   48.4511  158.6729   31.0469 H   0  0  0  0  0  0  0  0  0  0  0  0
   50.2960  161.3880   32.1020 H   0  0  0  0  0  0  0  0  0  0  0  0
   53.2540  160.9550   30.5450 H   0  0  0  0  0  0  0  0  0  0  0  0
   53.1662  158.7683   29.3734 H   0  0  0  0  0  0  0  0  0  0  0  0
   53.7543  157.1703   25.4120 H   0  0  0  0  0  0  0  0  0  0  0  0
   54.4450  155.4010   22.8920 H   0  0  0  0  0  0  0  0  0  0  0  0
   54.6008  153.0191   24.5398 H   0  0  0  0  0  0  0  0  0  0  0  0
   53.7620  151.4500   26.0200 H   0  0  0  0  0  0  0  0  0  0  0  0
  1  2  2  0
  2  3  1  0
  3  4  1  0
  3  5  2  0
  5  6  1  0
  6  7  2  0
  7  8  1  0
  8  9  2  0
  9 10  1  0
  9 11  1  0
 11 12  1  0
 11 13  2  0
  5 14  1  0
 14 15  1  0
 15 16  2  0
 16 17  1  0
 17 18  1  0
 17 19  2  0
 19 20  1  0
 20 21  1  0
 20 22  2  0
 22  2  1  0
 13  6  1  0
 22 15  1  0
  4 23  1  0
  7 24  1  0
  8 25  1  0
 10 26  1  0
 12 27  1  0
 13 28  1  0
 16 29  1  0
 18 30  1  0
 19 31  1  0
 21 32  1  0
M  END
>  <meeko>  (1) 
{"is_sidechain": [false], "free_energy": -10.164, "intermolecular_energy": -12.243, "internal_energy": -0.017}

$$$$
quercetin_out
     RDKit          3D

 32 34  0  0  0  0  0  0  0  0999 V2000
   52.4180  160.6960   30.4420 O   0  0  0  0  0  0  0  0  0  0  0  0
   51.6850  159.7230   30.2700 C   0  0  0  0  0  0  0  0  0  0  0  0
   52.2190  158.4780   29.6730 C   0  0  0  0  0  0  0  0  0  0  0  0
   53.5550  158.4740   29.3160 O   0  0  0  0  0  0  0  0  0  0  0  0
   51.3810  157.4390   29.4980 C   0  0  0  0  0  0  0  0  0  0  0  0
   51.7960  156.1520   28.8940 C   0  0  0  0  0  0  0  0  0  0  0  0
   51.4660  154.9440   29.5390 C   0  0  0  0  0  0  0  0  0  0  0  0
   51.8630  153.7130   29.0080 C   0  0  0  0  0  0  0  0  0  0  0  0
   52.5950  153.6900   27.8330 C   0  0  0  0  0  0  0  0  0  0  0  0
   52.9810  152.4890   27.3120 O   0  0  0  0  0  0  0  0  0  0  0  0
   52.9350  154.8730   27.1840 C   0  0  0  0  0  0  0  0  0  0  0  0
   53.6590  154.7760   26.0270 O   0  0  0  0  0  0  0  0  0  0  0  0
   52.5470  156.1020   27.7080 C   0  0  0  0  0  0  0  0  0  0  0  0
   50.0330  157.4660   29.8390 O   0  0  0  0  0  0  0  0  0  0  0  0
   49.5120  158.6030   30.4010 C   0  0  0  0  0  0  0  0  0  0  0  0
   48.1590  158.5820   30.7380 C   0  0  0  0  0  0  0  0  0  0  0  0
   47.5770  159.7100   31.3100 C   0  0  0  0  0  0  0  0  0  0  0  0
   46.2520  159.6490   31.6230 O   0  0  0  0  0  0  0  0  0  0  0  0
   48.3240  160.8600   31.5510 C   0  0  0  0  0  0  0  0  0  0  0  0
   49.6760  160.8740   31.2140 C   0  0  0  0  0  0  0  0  0  0  0  0
   50.3630  162.0300   31.4720 O   0  0  0  0  0  0  0  0  0  0  0  0
   50.2690  159.7470   30.6380 C   0  0  0  0  0  0  0  0  0  0  0  0
   53.8570  157.9040   28.6360 H   0  0  0  0  0  0  0  0  0  0  0  0
   50.8874  154.9695   30.4742 H   0  0  0  0  0  0  0  0  0  0  0  0
   51.5972  152.7749   29.5172 H   0  0  0  0  0  0  0  0  0  0  0  0
   53.6690  152.0010   27.7190 H   0  0  0  0  0  0  0  0  0  0  0  0
   54.5680  154.5510   26.0610 H   0  0  0  0  0  0  0  0  0  0  0  0
   52.8279  157.0332   27.1943 H   0  0  0  0  0  0  0  0  0  0  0  0
   47.5560  157.6808   30.5532 H   0  0  0  0  0  0  0  0  0  0  0  0
   45.9250  158.9350   32.1350 H   0  0  0  0  0  0  0  0  0  0  0  0
   47.8530  161.7460   32.0016 H   0  0  0  0  0  0  0  0  0  0  0  0
   50.0760  162.6020   32.1580 H   0  0  0  0  0  0  0  0  0  0  0  0
  1  2  2  0
  2  3  1  0
  3  4  1  0
  3  5  2  0
  5  6  1  0
  6  7  2  0
  7  8  1  0
  8  9  2  0
  9 10  1  0
  9 11  1  0
 11 12  1  0
 11 13  2  0
  5 14  1  0
 14 15  1  0
 15 16  2  0
 16 17  1  0
 17 18  1  0
 17 19  2  0
 19 20  1  0
 20 21  1  0
 20 22  2  0
 22  2  1  0
 13  6  1  0
 22 15  1  0
  4 23  1  0
  7 24  1  0
  8 25  1  0
 10 26  1  0
 12 27  1  0
 13 28  1  0
 16 29  1  0
 18 30  1  0
 19 31  1  0
 21 32  1  0
M  END
>  <meeko>  (2) 
{"is_sidechain": [false], "free_energy": -9.85, "intermolecular_energy": -11.835, "internal_energy": -0.047}

$$$$
quercetin_out
     RDKit          3D

 32 34  0  0  0  0  0  0  0  0999 V2000
   52.1540  152.9270   28.8510 O   0  0  0  0  0  0  0  0  0  0  0  0
   52.2730  154.0910   28.4720 C   0  0  0  0  0  0  0  0  0  0  0  0
   51.7180  155.2030   29.2770 C   0  0  0  0  0  0  0  0  0  0  0  0
   51.0610  154.8660   30.4460 O   0  0  0  0  0  0  0  0  0  0  0  0
   51.8680  156.4620   28.8240 C   0  0  0  0  0  0  0  0  0  0  0  0
   51.3390  157.6500   29.5310 C   0  0  0  0  0  0  0  0  0  0  0  0
   52.1610  158.7810   29.7000 C   0  0  0  0  0  0  0  0  0  0  0  0
   51.7000  159.9100   30.3840 C   0  0  0  0  0  0  0  0  0  0  0  0
   50.4170  159.9060   30.9040 C   0  0  0  0  0  0  0  0  0  0  0  0
   49.9650  161.0080   31.5700 O   0  0  0  0  0  0  0  0  0  0  0  0
   49.5910  158.7960   30.7530 C   0  0  0  0  0  0  0  0  0  0  0  0
   48.3360  158.8610   31.2920 O   0  0  0  0  0  0  0  0  0  0  0  0
   50.0440  157.6670   30.0770 C   0  0  0  0  0  0  0  0  0  0  0  0
   52.5100  156.7840   27.6330 O   0  0  0  0  0  0  0  0  0  0  0  0
   53.0410  155.7750   26.8710 C   0  0  0  0  0  0  0  0  0  0  0  0
   53.6870  156.1440   25.6900 C   0  0  0  0  0  0  0  0  0  0  0  0
   54.2430  155.1620   24.8760 C   0  0  0  0  0  0  0  0  0  0  0  0
   54.8630  155.5650   23.7320 O   0  0  0  0  0  0  0  0  0  0  0  0
   54.1660  153.8150   25.2210 C   0  0  0  0  0  0  0  0  0  0  0  0
   53.5210  153.4530   26.4020 C   0  0  0  0  0  0  0  0  0  0  0  0
   53.4740  152.1160   26.6920 O   0  0  0  0  0  0  0  0  0  0  0  0
   52.9590  154.4320   27.2250 C   0  0  0  0  0  0  0  0  0  0  0  0
   51.5300  154.4570   31.1470 H   0  0  0  0  0  0  0  0  0  0  0  0
   53.1808  158.7761   29.2878 H   0  0  0  0  0  0  0  0  0  0  0  0
   52.3484  160.7900   30.5073 H   0  0  0  0  0  0  0  0  0  0  0  0
   49.3090  160.9190   32.2330 H   0  0  0  0  0  0  0  0  0  0  0  0
   47.5840  158.7440   30.7440 H   0  0  0  0  0  0  0  0  0  0  0  0
   49.3896  156.7893   29.9702 H   0  0  0  0  0  0  0  0  0  0  0  0
   53.7561  157.2041   25.4047 H   0  0  0  0  0  0  0  0  0  0  0  0
   55.3240  156.3810   23.7120 H   0  0  0  0  0  0  0  0  0  0  0  0
   54.6085  153.0468   24.5698 H   0  0  0  0  0  0  0  0  0  0  0  0
   53.6900  151.4850   26.0330 H   0  0  0  0  0  0  0  0  0  0  0  0
  1  2  2  0
  2  3  1  0
  3  4  1  0
  3  5  2  0
  5  6  1  0
  6  7  2  0
  7  8  1  0
  8  9  2  0
  9 10  1  0
  9 11  1  0
 11 12  1  0
 11 13  2  0
  5 14  1  0
 14 15  1  0
 15 16  2  0
 16 17  1  0
 17 18  1  0
 17 19  2  0
 19 20  1  0
 20 21  1  0
 20 22  2  0
 22  2  1  0
 13  6  1  0
 22 15  1  0
  4 23  1  0
  7 24  1  0
  8 25  1  0
 10 26  1  0
 12 27  1  0
 13 28  1  0
 16 29  1  0
 18 30  1  0
 19 31  1  0
 21 32  1  0
M  END
>  <meeko>  (3) 
{"is_sidechain": [false], "free_energy": -9.644, "intermolecular_energy": -11.623, "internal_energy": -0.012}

$$$$
quercetin_out
     RDKit          3D

 32 34  0  0  0  0  0  0  0  0999 V2000
   47.5990  158.3720   30.5480 O   0  0  0  0  0  0  0  0  0  0  0  0
   48.8110  158.3470   30.3470 C   0  0  0  0  0  0  0  0  0  0  0  0
   49.4430  157.1690   29.7090 C   0  0  0  0  0  0  0  0  0  0  0  0
   48.6120  156.1160   29.3710 O   0  0  0  0  0  0  0  0  0  0  0  0
   50.7740  157.1820   29.5100 C   0  0  0  0  0  0  0  0  0  0  0  0
   51.5170  156.0560   28.9000 C   0  0  0  0  0  0  0  0  0  0  0  0
   51.4520  154.7800   29.4900 C   0  0  0  0  0  0  0  0  0  0  0  0
   52.1600  153.7010   28.9530 C   0  0  0  0  0  0  0  0  0  0  0  0
   52.9400  153.9000   27.8260 C   0  0  0  0  0  0  0  0  0  0  0  0
   53.6310  152.8480   27.2990 O   0  0  0  0  0  0  0  0  0  0  0  0
   53.0220  155.1550   27.2310 C   0  0  0  0  0  0  0  0  0  0  0  0
   53.8100  155.2810   26.1200 O   0  0  0  0  0  0  0  0  0  0  0  0
   52.3230  156.2350   27.7630 C   0  0  0  0  0  0  0  0  0  0  0  0
   51.6000  158.2390   29.8770 O   0  0  0  0  0  0  0  0  0  0  0  0
   51.0430  159.3470   30.4630 C   0  0  0  0  0  0  0  0  0  0  0  0
   51.9070  160.3870   30.8040 C   0  0  0  0  0  0  0  0  0  0  0  0
   51.3960  161.5350   31.4030 C   0  0  0  0  0  0  0  0  0  0  0  0
   52.2740  162.5270   31.7210 O   0  0  0  0  0  0  0  0  0  0  0  0
   50.0350  161.6620   31.6680 C   0  0  0  0  0  0  0  0  0  0  0  0
   49.1770  160.6200   31.3230 C   0  0  0  0  0  0  0  0  0  0  0  0
   47.8490  160.7970   31.6060 O   0  0  0  0  0  0  0  0  0  0  0  0
   49.6810  159.4630   30.7220 C   0  0  0  0  0  0  0  0  0  0  0  0
   47.6890  156.2550   29.2890 H   0  0  0  0  0  0  0  0  0  0  0  0
   50.8344  154.6294   30.3877 H   0  0  0  0  0  0  0  0  0  0  0  0
   52.0984  152.7067   29.4195 H   0  0  0  0  0  0  0  0  0  0  0  0
   53.4550  151.9760   27.5940 H   0  0  0  0  0  0  0  0  0  0  0  0
   53.5520  154.8780   25.3140 H   0  0  0  0  0  0  0  0  0  0  0  0
   52.4015  157.2269   27.2940 H   0  0  0  0  0  0  0  0  0  0  0  0
   52.9847  160.3009   30.6011 H   0  0  0  0  0  0  0  0  0  0  0  0
   53.1760  162.4480   31.4800 H   0  0  0  0  0  0  0  0  0  0  0  0
   49.6424  162.5730   32.1434 H   0  0  0  0  0  0  0  0  0  0  0  0
   47.2420  160.0980   31.4600 H   0  0  0  0  0  0  0  0  0  0  0  0
  1  2  2  0
  2  3  1  0
  3  4  1  0
  3  5  2  0
  5  6  1  0
  6  7  2  0
  7  8  1  0
  8  9  2  0
  9 10  1  0
  9 11  1  0
 11 12  1  0
 11 13  2  0
  5 14  1  0
 14 15  1  0
 15 16  2  0
 16 17  1  0
 17 18  1  0
 17 19  2  0
 19 20  1  0
 20 21  1  0
 20 22  2  0
 22  2  1  0
 13  6  1  0
 22 15  1  0
  4 23  1  0
  7 24  1  0
  8 25  1  0
 10 26  1  0
 12 27  1  0
 13 28  1  0
 16 29  1  0
 18 30  1  0
 19 31  1  0
 21 32  1  0
M  END
>  <meeko>  (4) 
{"is_sidechain": [false], "free_energy": -8.603, "intermolecular_energy": -10.247, "internal_energy": -0.133}

$$$$
quercetin_out
     RDKit          3D

 32 34  0  0  0  0  0  0  0  0999 V2000
   47.7660  158.4860   31.0310 O   0  0  0  0  0  0  0  0  0  0  0  0
   48.9470  158.5570   30.6960 C   0  0  0  0  0  0  0  0  0  0  0  0
   49.5840  157.4490   29.9490 C   0  0  0  0  0  0  0  0  0  0  0  0
   48.7970  156.3460   29.6680 O   0  0  0  0  0  0  0  0  0  0  0  0
   50.8800  157.5660   29.6050 C   0  0  0  0  0  0  0  0  0  0  0  0
   51.6280  156.5160   28.8770 C   0  0  0  0  0  0  0  0  0  0  0  0
   52.3770  156.8620   27.7360 C   0  0  0  0  0  0  0  0  0  0  0  0
   53.0750  155.8910   27.0120 C   0  0  0  0  0  0  0  0  0  0  0  0
   53.0190  154.5700   27.4250 C   0  0  0  0  0  0  0  0  0  0  0  0
   53.7010  153.6220   26.7210 O   0  0  0  0  0  0  0  0  0  0  0  0
   52.2790  154.2080   28.5470 C   0  0  0  0  0  0  0  0  0  0  0  0
   52.2680  152.8860   28.9000 O   0  0  0  0  0  0  0  0  0  0  0  0
   51.5780  155.1680   29.2710 C   0  0  0  0  0  0  0  0  0  0  0  0
   51.6660  158.6700   29.9170 O   0  0  0  0  0  0  0  0  0  0  0  0
   51.1010  159.7170   30.6000 C   0  0  0  0  0  0  0  0  0  0  0  0
   51.9220  160.8090   30.8810 C   0  0  0  0  0  0  0  0  0  0  0  0
   51.4020  161.8980   31.5740 C   0  0  0  0  0  0  0  0  0  0  0  0
   52.2390  162.9430   31.8300 O   0  0  0  0  0  0  0  0  0  0  0  0
   50.0740  161.9160   31.9930 C   0  0  0  0  0  0  0  0  0  0  0  0
   49.2590  160.8230   31.7080 C   0  0  0  0  0  0  0  0  0  0  0  0
   47.9620  160.8930   32.1420 O   0  0  0  0  0  0  0  0  0  0  0  0
   49.7720  159.7240   31.0130 C   0  0  0  0  0  0  0  0  0  0  0  0
   49.1840  155.4940   29.6220 H   0  0  0  0  0  0  0  0  0  0  0  0
   52.4134  157.9118   27.4095 H   0  0  0  0  0  0  0  0  0  0  0  0
   53.6616  156.1726   26.1251 H   0  0  0  0  0  0  0  0  0  0  0  0
   53.3860  152.7390   26.6960 H   0  0  0  0  0  0  0  0  0  0  0  0
   53.0750  152.4370   29.0610 H   0  0  0  0  0  0  0  0  0  0  0  0
   50.9861  154.8722   30.1497 H   0  0  0  0  0  0  0  0  0  0  0  0
   52.9732  160.8094   30.5571 H   0  0  0  0  0  0  0  0  0  0  0  0
   52.9890  162.8190   32.3760 H   0  0  0  0  0  0  0  0  0  0  0  0
   49.6742  162.7816   32.5415 H   0  0  0  0  0  0  0  0  0  0  0  0
   47.6360  161.6870   32.5170 H   0  0  0  0  0  0  0  0  0  0  0  0
  1  2  2  0
  2  3  1  0
  3  4  1  0
  3  5  2  0
  5  6  1  0
  6  7  2  0
  7  8  1  0
  8  9  2  0
  9 10  1  0
  9 11  1  0
 11 12  1  0
 11 13  2  0
  5 14  1  0
 14 15  1  0
 15 16  2  0
 16 17  1  0
 17 18  1  0
 17 19  2  0
 19 20  1  0
 20 21  1  0
 20 22  2  0
 22  2  1  0
 13  6  1  0
 22 15  1  0
  4 23  1  0
  7 24  1  0
  8 25  1  0
 10 26  1  0
 12 27  1  0
 13 28  1  0
 16 29  1  0
 18 30  1  0
 19 31  1  0
 21 32  1  0
M  END
>  <meeko>  (5) 
{"is_sidechain": [false], "free_energy": -8.383, "intermolecular_energy": -10.065, "internal_energy": -0.051}

$$$$
