safinamide_out
     RDKit          3D

 42 43  0  0  0  0  0  0  0  0999 V2000
   54.7210  154.5460   24.7280 C   0  0  0  0  0  0  0  0  0  0  0  0
   54.1360  153.2780   25.3460 C   0  0  2  0  0  0  0  0  0  0  0  0
   53.7480  153.5570   26.7520 N   0  0  0  0  0  0  0  0  0  0  0  0
   52.3250  153.9040   26.8470 C   0  0  0  0  0  0  0  0  0  0  0  0
   52.1410  155.1220   27.7210 C   0  0  0  0  0  0  0  0  0  0  0  0
   51.3320  155.0630   28.8630 C   0  0  0  0  0  0  0  0  0  0  0  0
   51.1700  156.1820   29.6880 C   0  0  0  0  0  0  0  0  0  0  0  0
   51.8230  157.3760   29.3820 C   0  0  0  0  0  0  0  0  0  0  0  0
   51.7550  158.5390   30.0970 O   0  0  0  0  0  0  0  0  0  0  0  0
   50.8800  159.5510   29.6090 C   0  0  0  0  0  0  0  0  0  0  0  0
   50.0120  160.0080   30.7550 C   0  0  0  0  0  0  0  0  0  0  0  0
   50.5370  160.8400   31.7580 C   0  0  0  0  0  0  0  0  0  0  0  0
   49.7320  161.2790   32.8130 C   0  0  0  0  0  0  0  0  0  0  0  0
   48.3930  160.8970   32.8720 C   0  0  0  0  0  0  0  0  0  0  0  0
   47.8700  160.0840   31.8730 C   0  0  0  0  0  0  0  0  0  0  0  0
   46.5810  159.7220   31.9270 F   0  0  0  0  0  0  0  0  0  0  0  0
   48.6610  159.6410   30.8180 C   0  0  0  0  0  0  0  0  0  0  0  0
   52.6380  157.4370   28.2500 C   0  0  0  0  0  0  0  0  0  0  0  0
   52.8000  156.3210   27.4260 C   0  0  0  0  0  0  0  0  0  0  0  0
   55.1920  152.1600   25.3030 C   0  0  0  0  0  0  0  0  0  0  0  0
   56.4470  152.5410   25.6960 N   0  0  0  0  0  0  0  0  0  0  0  0
   54.9590  151.0190   24.9210 O   0  0  0  0  0  0  0  0  0  0  0  0
   55.0373  155.2316   25.5280 H   0  0  0  0  0  0  0  0  0  0  0  0
   55.5891  154.2837   24.1054 H   0  0  0  0  0  0  0  0  0  0  0  0
   53.9580  155.0362   24.1054 H   0  0  0  0  0  0  0  0  0  0  0  0
   53.2481  152.9577   24.7811 H   0  0  0  0  0  0  0  0  0  0  0  0
   54.3040  154.3360   27.1040 H   0  0  0  0  0  0  0  0  0  0  0  0
   53.9130  152.7180   27.3080 H   0  0  0  0  0  0  0  0  0  0  0  0
   51.9352  154.1170   25.8407 H   0  0  0  0  0  0  0  0  0  0  0  0
   51.7788  153.0586   27.2909 H   0  0  0  0  0  0  0  0  0  0  0  0
   50.8169  154.1243   29.1149 H   0  0  0  0  0  0  0  0  0  0  0  0
   50.5272  156.1198   30.5784 H   0  0  0  0  0  0  0  0  0  0  0  0
   51.4667  160.3981   29.2240 H   0  0  0  0  0  0  0  0  0  0  0  0
   50.2581  159.1573   28.7916 H   0  0  0  0  0  0  0  0  0  0  0  0
   51.5918  161.1489   31.7126 H   0  0  0  0  0  0  0  0  0  0  0  0
   50.1550  161.9255   33.5960 H   0  0  0  0  0  0  0  0  0  0  0  0
   47.7555  161.2359   33.7019 H   0  0  0  0  0  0  0  0  0  0  0  0
   48.2265  159.0033   30.0340 H   0  0  0  0  0  0  0  0  0  0  0  0
   53.1583  158.3745   28.0044 H   0  0  0  0  0  0  0  0  0  0  0  0
   53.4491  156.3847   26.5402 H   0  0  0  0  0  0  0  0  0  0  0  0
   56.6080  153.4650   25.9980 H   0  0  0  0  0  0  0  0  0  0  0  0
   57.1870  151.8930   25.6750 H   0  0  0  0  0  0  0  0  0  0  0  0
  1  2  1  0
  2  3  1  0
  3  4  1  0
  4  5  1  0
  5  6  2  0
  6  7  1  0
  7  8  2  0
  8  9  1  0
  9 10  1  0
 10 11  1  0
 11 12  2  0
 12 13  1  0
 13 14  2  0
 14 15  1  0
 15 16  1  0
 15 17  2  0
  8 18  1  0
 18 19  2  0
  2 20  1  0
 20 21  1  0
 20 22  2  0
 19  5  1  0
 17 11  1  0
  1 23  1  0
  1 24  1  0
  1 25  1  0
  2 26  1  6
  3 27  1  0
  3 28  1  0
  4 29  1  0
  4 30  1  0
  6 31  1  0
  7 32  1  0
 10 33  1  0
 10 34  1  0
 12 35  1  0
 13 36  1  0
 14 37  1  0
 17 38  1  0
 18 39  1  0
 19 40  1  0
 21 41  1  0
 21 42  1  0
M  CHG  1   3   1
M  END
>  <meeko>  (1) 
{"is_sidechain": [false], "free_energy": -10.282, "intermolecular_energy": -14.49, "internal_energy": -0.685}

$$$$
safinamide_out
     RDKit          3D

 42 43  0  0  0  0  0  0  0  0999 V2000
   54.7030  154.6050   24.7630 C   0  0  0  0  0  0  0  0  0  0  0  0
   54.1050  153.3330   25.3600 C   0  0  2  0  0  0  0  0  0  0  0  0
   53.7320  153.5900   26.7750 N   0  0  0  0  0  0  0  0  0  0  0  0
   52.3030  153.8990   26.8950 C   0  0  0  0  0  0  0  0  0  0  0  0
   52.1030  155.1170   27.7670 C   0  0  0  0  0  0  0  0  0  0  0  0
   51.2280  155.0730   28.8590 C   0  0  0  0  0  0  0  0  0  0  0  0
   51.0510  156.1920   29.6830 C   0  0  0  0  0  0  0  0  0  0  0  0
   51.7540  157.3680   29.4240 C   0  0  0  0  0  0  0  0  0  0  0  0
   51.6790  158.5290   30.1430 O   0  0  0  0  0  0  0  0  0  0  0  0
   50.8320  159.5540   29.6330 C   0  0  0  0  0  0  0  0  0  0  0  0
   49.9000  159.9800   30.7400 C   0  0  0  0  0  0  0  0  0  0  0  0
   48.5440  159.6130   30.7100 C   0  0  0  0  0  0  0  0  0  0  0  0
   47.6810  159.9910   31.7430 C   0  0  0  0  0  0  0  0  0  0  0  0
   48.1650  160.7330   32.8170 C   0  0  0  0  0  0  0  0  0  0  0  0
   49.5100  161.0850   32.8550 C   0  0  0  0  0  0  0  0  0  0  0  0
   49.9760  161.7930   33.8920 F   0  0  0  0  0  0  0  0  0  0  0  0
   50.3790  160.7140   31.8340 C   0  0  0  0  0  0  0  0  0  0  0  0
   52.6350  157.4130   28.3410 C   0  0  0  0  0  0  0  0  0  0  0  0
   52.8130  156.2970   27.5190 C   0  0  0  0  0  0  0  0  0  0  0  0
   55.1450  152.2010   25.2850 C   0  0  0  0  0  0  0  0  0  0  0  0
   56.4120  152.5620   25.6550 N   0  0  0  0  0  0  0  0  0  0  0  0
   54.8870  151.0670   24.8990 O   0  0  0  0  0  0  0  0  0  0  0  0
   55.0191  155.2773   25.5742 H   0  0  0  0  0  0  0  0  0  0  0  0
   55.5731  154.3448   24.1424 H   0  0  0  0  0  0  0  0  0  0  0  0
   53.9475  155.1091   24.1424 H   0  0  0  0  0  0  0  0  0  0  0  0
   53.2081  153.0359   24.7967 H   0  0  0  0  0  0  0  0  0  0  0  0
   54.2740  154.3790   27.1250 H   0  0  0  0  0  0  0  0  0  0  0  0
   53.9280  152.7500   27.3190 H   0  0  0  0  0  0  0  0  0  0  0  0
   51.8888  154.0961   25.8952 H   0  0  0  0  0  0  0  0  0  0  0  0
   51.7880  153.0417   27.3530 H   0  0  0  0  0  0  0  0  0  0  0  0
   50.6724  154.1480   29.0727 H   0  0  0  0  0  0  0  0  0  0  0  0
   50.3569  156.1429   30.5350 H   0  0  0  0  0  0  0  0  0  0  0  0
   51.4385  160.4110   29.3048 H   0  0  0  0  0  0  0  0  0  0  0  0
   50.2582  159.1828   28.7710 H   0  0  0  0  0  0  0  0  0  0  0  0
   48.1578  159.0228   29.8659 H   0  0  0  0  0  0  0  0  0  0  0  0
   46.6202  159.7023   31.7072 H   0  0  0  0  0  0  0  0  0  0  0  0
   47.4889  161.0385   33.6292 H   0  0  0  0  0  0  0  0  0  0  0  0
   51.4409  160.9963   31.8851 H   0  0  0  0  0  0  0  0  0  0  0  0
   53.1947  158.3368   28.1329 H   0  0  0  0  0  0  0  0  0  0  0  0
   53.5145  156.3464   26.6731 H   0  0  0  0  0  0  0  0  0  0  0  0
   56.5930  153.4800   25.9610 H   0  0  0  0  0  0  0  0  0  0  0  0
   57.1430  151.9030   25.6120 H   0  0  0  0  0  0  0  0  0  0  0  0
  1  2  1  0
  2  3  1  0
  3  4  1  0
  4  5  1  0
  5  6  2  0
  6  7  1  0
  7  8  2  0
  8  9  1  0
  9 10  1  0
 10 11  1  0
 11 12  2  0
 12 13  1  0
 13 14  2  0
 14 15  1  0
 15 16  1  0
 15 17  2  0
  8 18  1  0
 18 19  2  0
  2 20  1  0
 20 21  1  0
 20 22  2  0
 19  5  1  0
 17 11  1  0
  1 23  1  0
  1 24  1  0
  1 25  1  0
  2 26  1  6
  3 27  1  0
  3 28  1  0
  4 29  1  0
  4 30  1  0
  6 31  1  0
  7 32  1  0
 10 33  1  0
 10 34  1  0
 12 35  1  0
 13 36  1  0
 14 37  1  0
 17 38  1  0
 18 39  1  0
 19 40  1  0
 21 41  1  0
 21 42  1  0
M  CHG  1   3   1
M  END
>  <meeko>  (2) 
{"is_sidechain": [false], "free_energy": -10.203, "intermolecular_energy": -14.37, "internal_energy": -0.694}

$$$$
safinamide_out
     RDKit          3D

 42 43  0  0  0  0  0  0  0  0999 V2000
   53.8970  151.7540   24.4530 C   0  0  0  0  0  0  0  0  0  0  0  0
   54.8410  152.7290   25.1510 C   0  0  2  0  0  0  0  0  0  0  0  0
   54.2340  153.1560   26.4380 N   0  0  0  0  0  0  0  0  0  0  0  0
   52.8510  153.6090   26.2430 C   0  0  0  0  0  0  0  0  0  0  0  0
   52.5090  154.6870   27.2450 C   0  0  0  0  0  0  0  0  0  0  0  0
   52.9490  156.0030   27.0520 C   0  0  0  0  0  0  0  0  0  0  0  0
   52.6210  157.0110   27.9660 C   0  0  0  0  0  0  0  0  0  0  0  0
   51.8410  156.7140   29.0840 C   0  0  0  0  0  0  0  0  0  0  0  0
   51.4470  157.5970   30.0510 O   0  0  0  0  0  0  0  0  0  0  0  0
   51.2940  158.9590   29.6620 C   0  0  0  0  0  0  0  0  0  0  0  0
   50.0690  159.5040   30.3530 C   0  0  0  0  0  0  0  0  0  0  0  0
   48.9510  158.6820   30.5740 C   0  0  0  0  0  0  0  0  0  0  0  0
   47.8200  159.1780   31.2280 C   0  0  0  0  0  0  0  0  0  0  0  0
   47.7990  160.4970   31.6760 C   0  0  0  0  0  0  0  0  0  0  0  0
   48.9100  161.3070   31.4720 C   0  0  0  0  0  0  0  0  0  0  0  0
   48.8910  162.5730   31.9090 F   0  0  0  0  0  0  0  0  0  0  0  0
   50.0410  160.8250   30.8210 C   0  0  0  0  0  0  0  0  0  0  0  0
   51.3920  155.4060   29.2750 C   0  0  0  0  0  0  0  0  0  0  0  0
   51.7180  154.3990   28.3630 C   0  0  0  0  0  0  0  0  0  0  0  0
   55.0690  153.9510   24.2440 C   0  0  0  0  0  0  0  0  0  0  0  0
   55.1340  153.6670   22.9070 N   0  0  0  0  0  0  0  0  0  0  0  0
   55.2140  155.0920   24.6650 O   0  0  0  0  0  0  0  0  0  0  0  0
   53.3402  151.1790   25.2076 H   0  0  0  0  0  0  0  0  0  0  0  0
   53.1899  152.3149   23.8242 H   0  0  0  0  0  0  0  0  0  0  0  0
   54.4804  151.0654   23.8242 H   0  0  0  0  0  0  0  0  0  0  0  0
   55.8073  152.2424   25.3494 H   0  0  0  0  0  0  0  0  0  0  0  0
   54.7830  153.9210   26.8280 H   0  0  0  0  0  0  0  0  0  0  0  0
   54.2270  152.3590   27.0740 H   0  0  0  0  0  0  0  0  0  0  0  0
   52.7403  154.0108   25.2250 H   0  0  0  0  0  0  0  0  0  0  0  0
   52.1705  152.7567   26.3863 H   0  0  0  0  0  0  0  0  0  0  0  0
   53.5602  156.2473   26.1707 H   0  0  0  0  0  0  0  0  0  0  0  0
   52.9785  158.0384   27.8027 H   0  0  0  0  0  0  0  0  0  0  0  0
   52.1808  159.5357   29.9636 H   0  0  0  0  0  0  0  0  0  0  0  0
   51.1838  159.0355   28.5702 H   0  0  0  0  0  0  0  0  0  0  0  0
   48.9662  157.6377   30.2288 H   0  0  0  0  0  0  0  0  0  0  0  0
   46.9474  158.5278   31.3889 H   0  0  0  0  0  0  0  0  0  0  0  0
   46.9099  160.8944   32.1873 H   0  0  0  0  0  0  0  0  0  0  0  0
   50.9125  161.4799   30.6737 H   0  0  0  0  0  0  0  0  0  0  0  0
   50.7748  155.1656   30.1532 H   0  0  0  0  0  0  0  0  0  0  0  0
   51.3511  153.3747   28.5245 H   0  0  0  0  0  0  0  0  0  0  0  0
   55.0140  152.7410   22.5940 H   0  0  0  0  0  0  0  0  0  0  0  0
   55.3020  154.3880   22.2580 H   0  0  0  0  0  0  0  0  0  0  0  0
  1  2  1  0
  2  3  1  0
  3  4  1  0
  4  5  1  0
  5  6  2  0
  6  7  1  0
  7  8  2  0
  8  9  1  0
  9 10  1  0
 10 11  1  0
 11 12  2  0
 12 13  1  0
 13 14  2  0
 14 15  1  0
 15 16  1  0
 15 17  2  0
  8 18  1  0
 18 19  2  0
  2 20  1  0
 20 21  1  0
 20 22  2  0
 19  5  1  0
 17 11  1  0
  1 23  1  0
  1 24  1  0
  1 25  1  0
  2 26  1  1
  3 27  1  0
  3 28  1  0
  4 29  1  0
  4 30  1  0
  6 31  1  0
  7 32  1  0
 10 33  1  0
 10 34  1  0
 12 35  1  0
 13 36  1  0
 14 37  1  0
 17 38  1  0
 18 39  1  0
 19 40  1  0
 21 41  1  0
 21 42  1  0
M  CHG  1   3   1
M  END
>  <meeko>  (3) 
{"is_sidechain": [false], "free_energy": -10.189, "intermolecular_energy": -14.465, "internal_energy": -0.579}

$$$$
safinamide_out
     RDKit          3D

 42 43  0  0  0  0  0  0  0  0999 V2000
   48.1390  160.6930   32.2080 C   0  0  0  0  0  0  0  0  0  0  0  0
   49.2580  161.2180   31.3120 C   0  0  2  0  0  0  0  0  0  0  0  0
   49.5250  160.2280   30.2380 N   0  0  0  0  0  0  0  0  0  0  0  0
   49.3890  158.8560   30.7400 C   0  0  0  0  0  0  0  0  0  0  0  0
   50.3750  157.9450   30.0460 C   0  0  0  0  0  0  0  0  0  0  0  0
   51.6080  158.4390   29.6020 C   0  0  0  0  0  0  0  0  0  0  0  0
   52.5340  157.5970   28.9740 C   0  0  0  0  0  0  0  0  0  0  0  0
   52.2390  156.2470   28.7880 C   0  0  0  0  0  0  0  0  0  0  0  0
   53.0470  155.3180   28.1950 O   0  0  0  0  0  0  0  0  0  0  0  0
   52.4100  154.2940   27.4370 C   0  0  0  0  0  0  0  0  0  0  0  0
   53.1690  154.1350   26.1420 C   0  0  0  0  0  0  0  0  0  0  0  0
   53.8780  155.2170   25.5950 C   0  0  0  0  0  0  0  0  0  0  0  0
   54.5960  155.0690   24.4050 C   0  0  0  0  0  0  0  0  0  0  0  0
   54.6190  153.8370   23.7550 C   0  0  0  0  0  0  0  0  0  0  0  0
   53.9290  152.7620   24.3030 C   0  0  0  0  0  0  0  0  0  0  0  0
   53.9560  151.5760   23.6800 F   0  0  0  0  0  0  0  0  0  0  0  0
   53.2110  152.8970   25.4870 C   0  0  0  0  0  0  0  0  0  0  0  0
   51.0140  155.7490   29.2380 C   0  0  0  0  0  0  0  0  0  0  0  0
   50.0890  156.5870   29.8650 C   0  0  0  0  0  0  0  0  0  0  0  0
   50.5250  161.4340   32.1580 C   0  0  0  0  0  0  0  0  0  0  0  0
   50.2920  161.8200   33.4500 N   0  0  0  0  0  0  0  0  0  0  0  0
   51.6630  161.3070   31.7210 O   0  0  0  0  0  0  0  0  0  0  0  0
   48.4213  160.8254   33.2629 H   0  0  0  0  0  0  0  0  0  0  0  0
   47.2132  161.2507   32.0034 H   0  0  0  0  0  0  0  0  0  0  0  0
   47.9762  159.6245   32.0034 H   0  0  0  0  0  0  0  0  0  0  0  0
   48.9609  162.1747   30.8575 H   0  0  0  0  0  0  0  0  0  0  0  0
   50.4730  160.3620   29.8880 H   0  0  0  0  0  0  0  0  0  0  0  0
   48.8450  160.3680   29.4910 H   0  0  0  0  0  0  0  0  0  0  0  0
   49.5837  158.8444   31.8226 H   0  0  0  0  0  0  0  0  0  0  0  0
   48.3681  158.4998   30.5376 H   0  0  0  0  0  0  0  0  0  0  0  0
   51.8520  159.5015   29.7484 H   0  0  0  0  0  0  0  0  0  0  0  0
   53.4962  158.0015   28.6267 H   0  0  0  0  0  0  0  0  0  0  0  0
   52.4266  153.3482   27.9985 H   0  0  0  0  0  0  0  0  0  0  0  0
   51.3620  154.5614   27.2365 H   0  0  0  0  0  0  0  0  0  0  0  0
   53.8681  156.1900   26.1080 H   0  0  0  0  0  0  0  0  0  0  0  0
   55.1426  155.9247   23.9820 H   0  0  0  0  0  0  0  0  0  0  0  0
   55.1786  153.7160   22.8158 H   0  0  0  0  0  0  0  0  0  0  0  0
   52.6768  152.0327   25.9085 H   0  0  0  0  0  0  0  0  0  0  0  0
   50.7750  154.6846   29.0970 H   0  0  0  0  0  0  0  0  0  0  0  0
   49.1311  156.1776   30.2182 H   0  0  0  0  0  0  0  0  0  0  0  0
   49.3680  161.9150   33.7760 H   0  0  0  0  0  0  0  0  0  0  0  0
   51.0490  162.0030   34.0530 H   0  0  0  0  0  0  0  0  0  0  0  0
  1  2  1  0
  2  3  1  0
  3  4  1  0
  4  5  1  0
  5  6  2  0
  6  7  1  0
  7  8  2  0
  8  9  1  0
  9 10  1  0
 10 11  1  0
 11 12  2  0
 12 13  1  0
 13 14  2  0
 14 15  1  0
 15 16  1  0
 15 17  2  0
  8 18  1  0
 18 19  2  0
  2 20  1  0
 20 21  1  0
 20 22  2  0
 19  5  1  0
 17 11  1  0
  1 23  1  0
  1 24  1  0
  1 25  1  0
  2 26  1  6
  3 27  1  0
  3 28  1  0
  4 29  1  0
  4 30  1  0
  6 31  1  0
  7 32  1  0
 10 33  1  0
 10 34  1  0
 12 35  1  0
 13 36  1  0
 14 37  1  0
 17 38  1  0
 18 39  1  0
 19 40  1  0
 21 41  1  0
 21 42  1  0
M  CHG  1   3   1
M  END
>  <meeko>  (4) 
{"is_sidechain": [false], "free_energy": -10.128, "intermolecular_energy": -14.179, "internal_energy": -0.779}

$$$$
safinamide_out
     RDKit          3D

 42 43  0  0  0  0  0  0  0  0999 V2000
   54.9320  155.0310   24.4290 C   0  0  0  0  0  0  0  0  0  0  0  0
   53.9190  153.9410   24.0850 C   0  0  2  0  0  0  0  0  0  0  0  0
   52.6610  154.1940   24.8320 N   0  0  0  0  0  0  0  0  0  0  0  0
   52.7360  153.6450   26.1920 C   0  0  0  0  0  0  0  0  0  0  0  0
   52.4270  154.7210   27.2070 C   0  0  0  0  0  0  0  0  0  0  0  0
   52.9540  156.0110   27.0580 C   0  0  0  0  0  0  0  0  0  0  0  0
   52.6580  157.0170   27.9850 C   0  0  0  0  0  0  0  0  0  0  0  0
   51.8260  156.7460   29.0710 C   0  0  0  0  0  0  0  0  0  0  0  0
   51.4560  157.6310   30.0450 O   0  0  0  0  0  0  0  0  0  0  0  0
   51.3090  158.9950   29.6610 C   0  0  0  0  0  0  0  0  0  0  0  0
   50.1010  159.5500   30.3740 C   0  0  0  0  0  0  0  0  0  0  0  0
   48.9550  158.7580   30.5550 C   0  0  0  0  0  0  0  0  0  0  0  0
   47.8390  159.2630   31.2290 C   0  0  0  0  0  0  0  0  0  0  0  0
   47.8610  160.5600   31.7350 C   0  0  0  0  0  0  0  0  0  0  0  0
   49.0000  161.3400   31.5690 C   0  0  0  0  0  0  0  0  0  0  0  0
   49.0230  162.5860   32.0620 F   0  0  0  0  0  0  0  0  0  0  0  0
   50.1160  160.8490   30.9000 C   0  0  0  0  0  0  0  0  0  0  0  0
   51.2920  155.4640   29.2170 C   0  0  0  0  0  0  0  0  0  0  0  0
   51.5850  154.4590   28.2930 C   0  0  0  0  0  0  0  0  0  0  0  0
   54.4990  152.5700   24.4750 C   0  0  0  0  0  0  0  0  0  0  0  0
   55.6320  152.6240   25.2410 N   0  0  0  0  0  0  0  0  0  0  0  0
   54.0170  151.5020   24.1150 O   0  0  0  0  0  0  0  0  0  0  0  0
   55.0162  155.1216   25.5220 H   0  0  0  0  0  0  0  0  0  0  0  0
   55.9126  154.7668   24.0064 H   0  0  0  0  0  0  0  0  0  0  0  0
   54.5968  155.9897   24.0064 H   0  0  0  0  0  0  0  0  0  0  0  0
   53.7069  153.9485   23.0057 H   0  0  0  0  0  0  0  0  0  0  0  0
   51.8850  153.7540   24.3380 H   0  0  0  0  0  0  0  0  0  0  0  0
   52.5190  155.2020   24.8980 H   0  0  0  0  0  0  0  0  0  0  0  0
   52.0064  152.8282   26.2948 H   0  0  0  0  0  0  0  0  0  0  0  0
   53.7528  153.2650   26.3701 H   0  0  0  0  0  0  0  0  0  0  0  0
   53.6079  156.2355   26.2025 H   0  0  0  0  0  0  0  0  0  0  0  0
   53.0825  158.0236   27.8567 H   0  0  0  0  0  0  0  0  0  0  0  0
   52.2062  159.5629   29.9483 H   0  0  0  0  0  0  0  0  0  0  0  0
   51.1808  159.0745   28.5714 H   0  0  0  0  0  0  0  0  0  0  0  0
   48.9355  157.7305   30.1626 H   0  0  0  0  0  0  0  0  0  0  0  0
   46.9445  158.6363   31.3594 H   0  0  0  0  0  0  0  0  0  0  0  0
   46.9842  160.9644   32.2619 H   0  0  0  0  0  0  0  0  0  0  0  0
   51.0097  161.4796   30.7838 H   0  0  0  0  0  0  0  0  0  0  0  0
   50.6330  155.2434   30.0697 H   0  0  0  0  0  0  0  0  0  0  0  0
   51.1515  153.4560   28.4197 H   0  0  0  0  0  0  0  0  0  0  0  0
   55.9990  153.4950   25.5160 H   0  0  0  0  0  0  0  0  0  0  0  0
   56.0810  151.7920   25.5140 H   0  0  0  0  0  0  0  0  0  0  0  0
  1  2  1  0
  2  3  1  0
  3  4  1  0
  4  5  1  0
  5  6  2  0
  6  7  1  0
  7  8  2  0
  8  9  1  0
  9 10  1  0
 10 11  1  0
 11 12  2  0
 12 13  1  0
 13 14  2  0
 14 15  1  0
 15 16  1  0
 15 17  2  0
  8 18  1  0
 18 19  2  0
  2 20  1  0
 20 21  1  0
 20 22  2  0
 19  5  1  0
 17 11  1  0
  1 23  1  0
  1 24  1  0
  1 25  1  0
  2 26  1  6
  3 27  1  0
  3 28  1  0
  4 29  1  0
  4 30  1  0
  6 31  1  0
  7 32  1  0
 10 33  1  0
 10 34  1  0
 12 35  1  0
 13 36  1  0
 14 37  1  0
 17 38  1  0
 18 39  1  0
 19 40  1  0
 21 41  1  0
 21 42  1  0
M  CHG  1   3   1
M  END
>  <meeko>  (5) 
{"is_sidechain": [false], "free_energy": -10.125, "intermolecular_energy": -14.6, "internal_energy": -0.354}

$$$$
safinamide_out
     RDKit          3D

 42 43  0  0  0  0  0  0  0  0999 V2000
   48.2050  160.8050   31.9940 C   0  0  0  0  0  0  0  0  0  0  0  0
   49.3710  161.2380   31.1080 C   0  0  2  0  0  0  0  0  0  0  0  0
   49.6490  160.1710   30.1130 N   0  0  0  0  0  0  0  0  0  0  0  0
   49.5260  158.8400   30.7190 C   0  0  0  0  0  0  0  0  0  0  0  0
   50.4550  157.8660   30.0330 C   0  0  0  0  0  0  0  0  0  0  0  0
   51.6930  158.2930   29.5370 C   0  0  0  0  0  0  0  0  0  0  0  0
   52.5670  157.3930   28.9170 C   0  0  0  0  0  0  0  0  0  0  0  0
   52.2140  156.0500   28.7890 C   0  0  0  0  0  0  0  0  0  0  0  0
   52.9680  155.0680   28.2090 O   0  0  0  0  0  0  0  0  0  0  0  0
   52.3220  154.2360   27.2500 C   0  0  0  0  0  0  0  0  0  0  0  0
   53.2070  154.1620   26.0300 C   0  0  0  0  0  0  0  0  0  0  0  0
   53.3670  152.9490   25.3390 C   0  0  0  0  0  0  0  0  0  0  0  0
   54.1730  152.8800   24.1980 C   0  0  0  0  0  0  0  0  0  0  0  0
   54.8180  154.0240   23.7330 C   0  0  0  0  0  0  0  0  0  0  0  0
   54.6490  155.2270   24.4080 C   0  0  0  0  0  0  0  0  0  0  0  0
   55.2660  156.3280   23.9560 F   0  0  0  0  0  0  0  0  0  0  0  0
   53.8500  155.3080   25.5440 C   0  0  0  0  0  0  0  0  0  0  0  0
   50.9840  155.6180   29.2910 C   0  0  0  0  0  0  0  0  0  0  0  0
   50.1110  156.5150   29.9110 C   0  0  0  0  0  0  0  0  0  0  0  0
   50.6120  161.4760   31.9870 C   0  0  0  0  0  0  0  0  0  0  0  0
   50.3390  161.8470   33.2750 N   0  0  0  0  0  0  0  0  0  0  0  0
   51.7630  161.3760   31.5780 O   0  0  0  0  0  0  0  0  0  0  0  0
   48.4891  160.9105   33.0514 H   0  0  0  0  0  0  0  0  0  0  0  0
   47.3303  161.4382   31.7844 H   0  0  0  0  0  0  0  0  0  0  0  0
   47.9557  159.7543   31.7844 H   0  0  0  0  0  0  0  0  0  0  0  0
   49.1185  162.1689   30.5792 H   0  0  0  0  0  0  0  0  0  0  0  0
   50.5960  160.2870   29.7540 H   0  0  0  0  0  0  0  0  0  0  0  0
   48.9670  160.2470   29.3580 H   0  0  0  0  0  0  0  0  0  0  0  0
   49.7871  158.9010   31.7858 H   0  0  0  0  0  0  0  0  0  0  0  0
   48.4899  158.4884   30.6052 H   0  0  0  0  0  0  0  0  0  0  0  0
   51.9822  159.3497   29.6360 H   0  0  0  0  0  0  0  0  0  0  0  0
   53.5344  157.7456   28.5299 H   0  0  0  0  0  0  0  0  0  0  0  0
   52.1755  153.2288   27.6672 H   0  0  0  0  0  0  0  0  0  0  0  0
   51.3376  154.6492   26.9851 H   0  0  0  0  0  0  0  0  0  0  0  0
   52.8535  152.0452   25.6988 H   0  0  0  0  0  0  0  0  0  0  0  0
   54.2974  151.9239   23.6686 H   0  0  0  0  0  0  0  0  0  0  0  0
   55.4562  153.9754   22.8384 H   0  0  0  0  0  0  0  0  0  0  0  0
   53.7232  156.2710   26.0602 H   0  0  0  0  0  0  0  0  0  0  0  0
   50.6998  154.5595   29.1970 H   0  0  0  0  0  0  0  0  0  0  0  0
   49.1483  156.1577   30.3053 H   0  0  0  0  0  0  0  0  0  0  0  0
   49.4050  161.9210   33.5790 H   0  0  0  0  0  0  0  0  0  0  0  0
   51.0770  162.0430   33.8980 H   0  0  0  0  0  0  0  0  0  0  0  0
  1  2  1  0
  2  3  1  0
  3  4  1  0
  4  5  1  0
  5  6  2  0
  6  7  1  0
  7  8  2  0
  8  9  1  0
  9 10  1  0
 10 11  1  0
 11 12  2  0
 12 13  1  0
 13 14  2  0
 14 15  1  0
 15 16  1  0
 15 17  2  0
  8 18  1  0
 18 19  2  0
  2 20  1  0
 20 21  1  0
 20 22  2  0
 19  5  1  0
 17 11  1  0
  1 23  1  0
  1 24  1  0
  1 25  1  0
  2 26  1  6
  3 27  1  0
  3 28  1  0
  4 29  1  0
  4 30  1  0
  6 31  1  0
  7 32  1  0
 10 33  1  0
 10 34  1  0
 12 35  1  0
 13 36  1  0
 14 37  1  0
 17 38  1  0
 18 39  1  0
 19 40  1  0
 21 41  1  0
 21 42  1  0
M  CHG  1   3   1
M  END
>  <meeko>  (6) 
{"is_sidechain": [false], "free_energy": -9.972, "intermolecular_energy": -13.948, "internal_energy": -0.791}

$$$$
safinamide_out
     RDKit          3D

 42 43  0  0  0  0  0  0  0  0999 V2000
   49.8190  161.1390   33.4520 C   0  0  0  0  0  0  0  0  0  0  0  0
   49.1710  160.0770   32.5670 C   0  0  2  0  0  0  0  0  0  0  0  0
   50.1500  159.6340   31.5420 N   0  0  0  0  0  0  0  0  0  0  0  0
   49.4940  158.8480   30.4900 C   0  0  0  0  0  0  0  0  0  0  0  0
   50.4660  157.8580   29.8940 C   0  0  0  0  0  0  0  0  0  0  0  0
   51.7380  158.2720   29.4780 C   0  0  0  0  0  0  0  0  0  0  0  0
   52.6510  157.3570   28.9410 C   0  0  0  0  0  0  0  0  0  0  0  0
   52.3040  156.0120   28.8190 C   0  0  0  0  0  0  0  0  0  0  0  0
   53.0940  155.0160   28.3160 O   0  0  0  0  0  0  0  0  0  0  0  0
   52.4350  153.8710   27.7850 C   0  0  0  0  0  0  0  0  0  0  0  0
   53.0600  153.5540   26.4490 C   0  0  0  0  0  0  0  0  0  0  0  0
   52.8960  154.4280   25.3610 C   0  0  0  0  0  0  0  0  0  0  0  0
   53.4870  154.1460   24.1260 C   0  0  0  0  0  0  0  0  0  0  0  0
   54.2540  152.9940   23.9690 C   0  0  0  0  0  0  0  0  0  0  0  0
   54.4290  152.1370   25.0480 C   0  0  0  0  0  0  0  0  0  0  0  0
   55.1720  151.0320   24.8980 F   0  0  0  0  0  0  0  0  0  0  0  0
   53.8450  152.4060   26.2820 C   0  0  0  0  0  0  0  0  0  0  0  0
   51.0400  155.5930   29.2410 C   0  0  0  0  0  0  0  0  0  0  0  0
   50.1280  156.5050   29.7780 C   0  0  0  0  0  0  0  0  0  0  0  0
   47.9280  160.6760   31.8850 C   0  0  0  0  0  0  0  0  0  0  0  0
   46.8030  159.9020   31.9640 N   0  0  0  0  0  0  0  0  0  0  0  0
   47.9310  161.7460   31.2860 O   0  0  0  0  0  0  0  0  0  0  0  0
   49.6615  160.8809   34.5096 H   0  0  0  0  0  0  0  0  0  0  0  0
   50.8979  161.1828   33.2420 H   0  0  0  0  0  0  0  0  0  0  0  0
   49.3645  162.1185   33.2420 H   0  0  0  0  0  0  0  0  0  0  0  0
   48.8675  159.2124   33.1756 H   0  0  0  0  0  0  0  0  0  0  0  0
   50.8650  159.0600   31.9890 H   0  0  0  0  0  0  0  0  0  0  0  0
   50.5690  160.4600   31.1150 H   0  0  0  0  0  0  0  0  0  0  0  0
   48.6408  158.3042   30.9217 H   0  0  0  0  0  0  0  0  0  0  0  0
   49.1453  159.5284   29.6991 H   0  0  0  0  0  0  0  0  0  0  0  0
   52.0230  159.3300   29.5746 H   0  0  0  0  0  0  0  0  0  0  0  0
   53.6440  157.6996   28.6146 H   0  0  0  0  0  0  0  0  0  0  0  0
   52.5599  153.0177   28.4679 H   0  0  0  0  0  0  0  0  0  0  0  0
   51.3592  154.0683   27.6675 H   0  0  0  0  0  0  0  0  0  0  0  0
   52.2970  155.3426   25.4823 H   0  0  0  0  0  0  0  0  0  0  0  0
   53.3464  154.8334   23.2788 H   0  0  0  0  0  0  0  0  0  0  0  0
   54.7175  152.7647   22.9981 H   0  0  0  0  0  0  0  0  0  0  0  0
   53.9997  151.7176   27.1259 H   0  0  0  0  0  0  0  0  0  0  0  0
   50.7596  154.5333   29.1495 H   0  0  0  0  0  0  0  0  0  0  0  0
   49.1390  156.1577   30.1114 H   0  0  0  0  0  0  0  0  0  0  0  0
   46.8260  159.0460   32.4500 H   0  0  0  0  0  0  0  0  0  0  0  0
   45.9690  160.2000   31.5320 H   0  0  0  0  0  0  0  0  0  0  0  0
  1  2  1  0
  2  3  1  0
  3  4  1  0
  4  5  1  0
  5  6  2  0
  6  7  1  0
  7  8  2  0
  8  9  1  0
  9 10  1  0
 10 11  1  0
 11 12  2  0
 12 13  1  0
 13 14  2  0
 14 15  1  0
 15 16  1  0
 15 17  2  0
  8 18  1  0
 18 19  2  0
  2 20  1  0
 20 21  1  0
 20 22  2  0
 19  5  1  0
 17 11  1  0
  1 23  1  0
  1 24  1  0
  1 25  1  0
  2 26  1  1
  3 27  1  0
  3 28  1  0
  4 29  1  0
  4 30  1  0
  6 31  1  0
  7 32  1  0
 10 33  1  0
 10 34  1  0
 12 35  1  0
 13 36  1  0
 14 37  1  0
 17 38  1  0
 18 39  1  0
 19 40  1  0
 21 41  1  0
 21 42  1  0
M  CHG  1   3   1
M  END
>  <meeko>  (7) 
{"is_sidechain": [false], "free_energy": -8.961, "intermolecular_energy": -12.913, "internal_energy": -0.4}

$$$$
safinamide_out
     RDKit          3D

 42 43  0  0  0  0  0  0  0  0999 V2000
   51.9630  152.5010   26.3140 C   0  0  0  0  0  0  0  0  0  0  0  0
   53.4340  152.8560   26.5220 C   0  0  2  0  0  0  0  0  0  0  0  0
   53.5430  153.8540   27.6170 N   0  0  0  0  0  0  0  0  0  0  0  0
   52.3910  153.7720   28.5220 C   0  0  0  0  0  0  0  0  0  0  0  0
   51.9220  155.1580   28.8980 C   0  0  0  0  0  0  0  0  0  0  0  0
   52.7360  156.2730   28.6600 C   0  0  0  0  0  0  0  0  0  0  0  0
   52.3010  157.5620   28.9890 C   0  0  0  0  0  0  0  0  0  0  0  0
   51.0420  157.7520   29.5570 C   0  0  0  0  0  0  0  0  0  0  0  0
   50.4940  158.9490   29.9250 O   0  0  0  0  0  0  0  0  0  0  0  0
   49.4100  158.9110   30.8480 C   0  0  0  0  0  0  0  0  0  0  0  0
   49.5620  160.0770   31.7920 C   0  0  0  0  0  0  0  0  0  0  0  0
   50.6700  160.9360   31.6900 C   0  0  0  0  0  0  0  0  0  0  0  0
   50.8060  162.0280   32.5520 C   0  0  0  0  0  0  0  0  0  0  0  0
   49.8340  162.2770   33.5180 C   0  0  0  0  0  0  0  0  0  0  0  0
   48.7310  161.4360   33.6110 C   0  0  0  0  0  0  0  0  0  0  0  0
   47.7930  161.6800   34.5360 F   0  0  0  0  0  0  0  0  0  0  0  0
   48.5840  160.3460   32.7590 C   0  0  0  0  0  0  0  0  0  0  0  0
   50.2240  156.6440   29.7880 C   0  0  0  0  0  0  0  0  0  0  0  0
   50.6560  155.3560   29.4590 C   0  0  0  0  0  0  0  0  0  0  0  0
   54.0030  153.4400   25.2170 C   0  0  0  0  0  0  0  0  0  0  0  0
   53.1170  154.1880   24.4900 N   0  0  0  0  0  0  0  0  0  0  0  0
   55.1460  153.2380   24.8250 O   0  0  0  0  0  0  0  0  0  0  0  0
   51.4726  152.3827   27.2915 H   0  0  0  0  0  0  0  0  0  0  0  0
   51.4678  153.3054   25.7504 H   0  0  0  0  0  0  0  0  0  0  0  0
   51.8892  151.5593   25.7504 H   0  0  0  0  0  0  0  0  0  0  0  0
   54.0053  151.9561   26.7936 H   0  0  0  0  0  0  0  0  0  0  0  0
   53.5830  154.7890   27.2130 H   0  0  0  0  0  0  0  0  0  0  0  0
   54.3890  153.6570   28.1510 H   0  0  0  0  0  0  0  0  0  0  0  0
   51.5724  153.2353   28.0202 H   0  0  0  0  0  0  0  0  0  0  0  0
   52.6893  153.2347   29.4343 H   0  0  0  0  0  0  0  0  0  0  0  0
   53.7295  156.1337   28.2089 H   0  0  0  0  0  0  0  0  0  0  0  0
   52.9537  158.4268   28.7991 H   0  0  0  0  0  0  0  0  0  0  0  0
   48.4557  158.9906   30.3068 H   0  0  0  0  0  0  0  0  0  0  0  0
   49.4161  157.9633   31.4065 H   0  0  0  0  0  0  0  0  0  0  0  0
   51.4372  160.7471   30.9247 H   0  0  0  0  0  0  0  0  0  0  0  0
   51.6802  162.6903   32.4675 H   0  0  0  0  0  0  0  0  0  0  0  0
   49.9383  163.1323   34.2019 H   0  0  0  0  0  0  0  0  0  0  0  0
   47.7008  159.6958   32.8443 H   0  0  0  0  0  0  0  0  0  0  0  0
   49.2285  156.7864   30.2339 H   0  0  0  0  0  0  0  0  0  0  0  0
   49.9974  154.4942   29.6421 H   0  0  0  0  0  0  0  0  0  0  0  0
   52.2030  154.3340   24.8270 H   0  0  0  0  0  0  0  0  0  0  0  0
   53.3930  154.5780   23.6290 H   0  0  0  0  0  0  0  0  0  0  0  0
  1  2  1  0
  2  3  1  0
  3  4  1  0
  4  5  1  0
  5  6  2  0
  6  7  1  0
  7  8  2  0
  8  9  1  0
  9 10  1  0
 10 11  1  0
 11 12  2  0
 12 13  1  0
 13 14  2  0
 14 15  1  0
 15 16  1  0
 15 17  2  0
  8 18  1  0
 18 19  2  0
  2 20  1  0
 20 21  1  0
 20 22  2  0
 19  5  1  0
 17 11  1  0
  1 23  1  0
  1 24  1  0
  1 25  1  0
  2 26  1  1
  3 27  1  0
  3 28  1  0
  4 29  1  0
  4 30  1  0
  6 31  1  0
  7 32  1  0
 10 33  1  0
 10 34  1  0
 12 35  1  0
 13 36  1  0
 14 37  1  0
 17 38  1  0
 18 39  1  0
 19 40  1  0
 21 41  1  0
 21 42  1  0
M  CHG  1   3   1
M  END
>  <meeko>  (8) 
{"is_sidechain": [false], "free_energy": -8.03, "intermolecular_energy": -11.297, "internal_energy": -0.705}

$$$$
