SAG_pdb_out
     RDKit          3D

 39 40  0  0  0  0  0  0  0  0999 V2000
   54.8540  153.8700   23.3230 C   0  0  0  0  0  0  0  0  0  0  0  0
   53.9560  153.3510   24.4370 C   0  0  2  0  0  0  0  0  0  0  0  0
   53.7680  154.4450   25.4240 N   0  0  0  0  0  0  0  0  0  0  0  0
   52.7990  154.2300   26.2500 C   0  0  0  0  0  0  0  0  0  0  0  0
   52.4470  155.2010   27.3040 C   0  0  0  0  0  0  0  0  0  0  0  0
   51.5960  154.8440   28.3530 C   0  0  0  0  0  0  0  0  0  0  0  0
   51.2720  155.7800   29.3440 C   0  0  0  0  0  0  0  0  0  0  0  0
   51.7990  157.0710   29.2850 C   0  0  0  0  0  0  0  0  0  0  0  0
   51.5680  158.0770   30.1800 O   0  0  0  0  0  0  0  0  0  0  0  0
   51.1000  159.3190   29.6600 C   0  0  0  0  0  0  0  0  0  0  0  0
   49.8940  159.7340   30.4650 C   0  0  0  0  0  0  0  0  0  0  0  0
   48.9460  158.7810   30.8730 C   0  0  0  0  0  0  0  0  0  0  0  0
   47.8370  159.1600   31.6350 C   0  0  0  0  0  0  0  0  0  0  0  0
   47.6700  160.4940   32.0020 C   0  0  0  0  0  0  0  0  0  0  0  0
   48.6150  161.4360   31.6120 C   0  0  0  0  0  0  0  0  0  0  0  0
   48.4580  162.7160   31.9730 F   0  0  0  0  0  0  0  0  0  0  0  0
   49.7230  161.0700   30.8530 C   0  0  0  0  0  0  0  0  0  0  0  0
   52.6500  157.4190   28.2310 C   0  0  0  0  0  0  0  0  0  0  0  0
   52.9780  156.4900   27.2400 C   0  0  0  0  0  0  0  0  0  0  0  0
   54.6210  152.1610   25.1400 C   0  0  0  0  0  0  0  0  0  0  0  0
   55.9140  152.3730   25.5330 N   0  0  0  0  0  0  0  0  0  0  0  0
   54.0660  151.0820   25.3230 O   0  0  0  0  0  0  0  0  0  0  0  0
   55.7275  154.3748   23.7613 H   0  0  0  0  0  0  0  0  0  0  0  0
   55.1912  153.0275   22.7013 H   0  0  0  0  0  0  0  0  0  0  0  0
   54.2923  154.5827   22.7013 H   0  0  0  0  0  0  0  0  0  0  0  0
   52.9924  153.0269   24.0170 H   0  0  0  0  0  0  0  0  0  0  0  0
   52.2205  153.2982   26.1657 H   0  0  0  0  0  0  0  0  0  0  0  0
   51.1799  153.8269   28.4009 H   0  0  0  0  0  0  0  0  0  0  0  0
   50.6018  155.4971   30.1691 H   0  0  0  0  0  0  0  0  0  0  0  0
   51.8881  160.0814   29.7474 H   0  0  0  0  0  0  0  0  0  0  0  0
   50.8338  159.2137   28.5979 H   0  0  0  0  0  0  0  0  0  0  0  0
   49.0776  157.7262   30.5901 H   0  0  0  0  0  0  0  0  0  0  0  0
   47.0975  158.4067   31.9444 H   0  0  0  0  0  0  0  0  0  0  0  0
   46.7962  160.7995   32.5963 H   0  0  0  0  0  0  0  0  0  0  0  0
   50.4634  161.8282   30.5581 H   0  0  0  0  0  0  0  0  0  0  0  0
   53.0660  158.4361   28.1816 H   0  0  0  0  0  0  0  0  0  0  0  0
   53.6495  156.7725   26.4158 H   0  0  0  0  0  0  0  0  0  0  0  0
   56.3380  153.2470   25.3750 H   0  0  0  0  0  0  0  0  0  0  0  0
   56.4190  151.6520   25.9740 H   0  0  0  0  0  0  0  0  0  0  0  0
  1  2  1  0
  2  3  1  0
  3  4  2  0
  4  5  1  0
  5  6  2  0
  6  7  1  0
  7  8  2  0
  8  9  1  0
  9 10  1  0
 10 11  1  0
 11 12  2  0
 12 13  1  0
 13 14  2  0
 14 15  1  0
 15 16  1  0
 15 17  2  0
  8 18  1  0
 18 19  2  0
  2 20  1  0
 20 21  1  0
 20 22  2  0
 19  5  1  0
 17 11  1  0
  1 23  1  0
  1 24  1  0
  1 25  1  0
  2 26  1  6
  4 27  1  0
  6 28  1  0
  7 29  1  0
 10 30  1  0
 10 31  1  0
 12 32  1  0
 13 33  1  0
 14 34  1  0
 17 35  1  0
 18 36  1  0
 19 37  1  0
 21 38  1  0
 21 39  1  0
M  END
>  <meeko>  (1) 
{"is_sidechain": [false], "free_energy": -10.552, "intermolecular_energy": -14.253, "internal_energy": -0.648}

$$$$
SAG_pdb_out
     RDKit          3D

 39 40  0  0  0  0  0  0  0  0999 V2000
   47.6080  160.1260   31.7000 C   0  0  0  0  0  0  0  0  0  0  0  0
   48.7890  161.0480   31.4300 C   0  0  2  0  0  0  0  0  0  0  0  0
   49.8050  160.2790   30.6660 N   0  0  0  0  0  0  0  0  0  0  0  0
   49.6360  159.0010   30.7300 C   0  0  0  0  0  0  0  0  0  0  0  0
   50.5440  158.0610   30.0440 C   0  0  0  0  0  0  0  0  0  0  0  0
   51.7680  158.4940   29.5270 C   0  0  0  0  0  0  0  0  0  0  0  0
   52.6160  157.5870   28.8780 C   0  0  0  0  0  0  0  0  0  0  0  0
   52.2400  156.2490   28.7470 C   0  0  0  0  0  0  0  0  0  0  0  0
   52.9680  155.2640   28.1420 O   0  0  0  0  0  0  0  0  0  0  0  0
   52.2730  154.3890   27.2570 C   0  0  0  0  0  0  0  0  0  0  0  0
   53.1200  154.2110   26.0220 C   0  0  0  0  0  0  0  0  0  0  0  0
   53.8950  155.2730   25.5290 C   0  0  0  0  0  0  0  0  0  0  0  0
   54.6950  155.1050   24.3940 C   0  0  0  0  0  0  0  0  0  0  0  0
   54.7320  153.8710   23.7470 C   0  0  0  0  0  0  0  0  0  0  0  0
   53.9760  152.8150   24.2420 C   0  0  0  0  0  0  0  0  0  0  0  0
   54.0200  151.6270   23.6250 F   0  0  0  0  0  0  0  0  0  0  0  0
   53.1770  152.9710   25.3710 C   0  0  0  0  0  0  0  0  0  0  0  0
   51.0140  155.8260   29.2680 C   0  0  0  0  0  0  0  0  0  0  0  0
   50.1630  156.7250   29.9160 C   0  0  0  0  0  0  0  0  0  0  0  0
   49.4110  161.5110   32.7530 C   0  0  0  0  0  0  0  0  0  0  0  0
   50.7150  161.9160   32.6650 N   0  0  0  0  0  0  0  0  0  0  0  0
   48.8140  161.5030   33.8240 O   0  0  0  0  0  0  0  0  0  0  0  0
   47.4685  160.0171   32.7857 H   0  0  0  0  0  0  0  0  0  0  0  0
   46.6984  160.5553   31.2547 H   0  0  0  0  0  0  0  0  0  0  0  0
   47.8038  159.1394   31.2547 H   0  0  0  0  0  0  0  0  0  0  0  0
   48.4521  161.9299   30.8654 H   0  0  0  0  0  0  0  0  0  0  0  0
   48.7922  158.6014   31.3117 H   0  0  0  0  0  0  0  0  0  0  0  0
   52.0659  159.5479   29.6297 H   0  0  0  0  0  0  0  0  0  0  0  0
   53.5790  157.9295   28.4713 H   0  0  0  0  0  0  0  0  0  0  0  0
   52.1122  153.4156   27.7435 H   0  0  0  0  0  0  0  0  0  0  0  0
   51.2926  154.8114   26.9918 H   0  0  0  0  0  0  0  0  0  0  0  0
   53.8728  156.2466   26.0404 H   0  0  0  0  0  0  0  0  0  0  0  0
   55.2939  155.9452   24.0127 H   0  0  0  0  0  0  0  0  0  0  0  0
   55.3551  153.7339   22.8510 H   0  0  0  0  0  0  0  0  0  0  0  0
   52.5907  152.1218   25.7520 H   0  0  0  0  0  0  0  0  0  0  0  0
   50.7153  154.7722   29.1666 H   0  0  0  0  0  0  0  0  0  0  0  0
   49.2000  156.3820   30.3221 H   0  0  0  0  0  0  0  0  0  0  0  0
   51.1730  161.9140   31.7940 H   0  0  0  0  0  0  0  0  0  0  0  0
   51.1940  162.2110   33.4740 H   0  0  0  0  0  0  0  0  0  0  0  0
  1  2  1  0
  2  3  1  0
  3  4  2  0
  4  5  1  0
  5  6  2  0
  6  7  1  0
  7  8  2  0
  8  9  1  0
  9 10  1  0
 10 11  1  0
 11 12  2  0
 12 13  1  0
 13 14  2  0
 14 15  1  0
 15 16  1  0
 15 17  2  0
  8 18  1  0
 18 19  2  0
  2 20  1  0
 20 21  1  0
 20 22  2  0
 19  5  1  0
 17 11  1  0
  1 23  1  0
  1 24  1  0
  1 25  1  0
  2 26  1  6
  4 27  1  0
  6 28  1  0
  7 29  1  0
 10 30  1  0
 10 31  1  0
 12 32  1  0
 13 33  1  0
 14 34  1  0
 17 35  1  0
 18 36  1  0
 19 37  1  0
 21 38  1  0
 21 39  1  0
M  END
>  <meeko>  (2) 
{"is_sidechain": [false], "free_energy": -10.465, "intermolecular_energy": -14.094, "internal_energy": -0.689}

$$$$
SAG_pdb_out
     RDKit          3D

 39 40  0  0  0  0  0  0  0  0999 V2000
   54.5640  153.6830   23.3470 C   0  0  0  0  0  0  0  0  0  0  0  0
   53.7890  153.2010   24.5650 C   0  0  2  0  0  0  0  0  0  0  0  0
   53.5830  154.3640   25.4670 N   0  0  0  0  0  0  0  0  0  0  0  0
   52.7020  154.1490   26.3870 C   0  0  0  0  0  0  0  0  0  0  0  0
   52.3480  155.1820   27.3800 C   0  0  0  0  0  0  0  0  0  0  0  0
   52.9230  156.4540   27.3280 C   0  0  0  0  0  0  0  0  0  0  0  0
   52.5750  157.4210   28.2800 C   0  0  0  0  0  0  0  0  0  0  0  0
   51.6520  157.1160   29.2820 C   0  0  0  0  0  0  0  0  0  0  0  0
   51.2250  157.9600   30.2670 O   0  0  0  0  0  0  0  0  0  0  0  0
   51.1260  159.3450   29.9430 C   0  0  0  0  0  0  0  0  0  0  0  0
   50.1440  159.9750   30.8970 C   0  0  0  0  0  0  0  0  0  0  0  0
   50.5560  160.9830   31.7840 C   0  0  0  0  0  0  0  0  0  0  0  0
   49.6430  161.5820   32.6570 C   0  0  0  0  0  0  0  0  0  0  0  0
   48.3080  161.1830   32.6460 C   0  0  0  0  0  0  0  0  0  0  0  0
   47.8950  160.1950   31.7600 C   0  0  0  0  0  0  0  0  0  0  0  0
   46.6100  159.8190   31.7450 F   0  0  0  0  0  0  0  0  0  0  0  0
   48.7950  159.5920   30.8860 C   0  0  0  0  0  0  0  0  0  0  0  0
   51.0820  155.8400   29.3250 C   0  0  0  0  0  0  0  0  0  0  0  0
   51.4250  154.8700   28.3790 C   0  0  0  0  0  0  0  0  0  0  0  0
   54.5930  152.1310   25.3140 C   0  0  0  0  0  0  0  0  0  0  0  0
   55.8950  152.4610   25.5670 N   0  0  0  0  0  0  0  0  0  0  0  0
   54.1320  151.0440   25.6470 O   0  0  0  0  0  0  0  0  0  0  0  0
   55.4555  154.2374   23.6755 H   0  0  0  0  0  0  0  0  0  0  0  0
   54.8727  152.8173   22.7426 H   0  0  0  0  0  0  0  0  0  0  0  0
   53.9240  154.3426   22.7426 H   0  0  0  0  0  0  0  0  0  0  0  0
   52.8280  152.7697   24.2481 H   0  0  0  0  0  0  0  0  0  0  0  0
   52.2024  153.1700   26.4315 H   0  0  0  0  0  0  0  0  0  0  0  0
   53.6498  156.6966   26.5387 H   0  0  0  0  0  0  0  0  0  0  0  0
   53.0295  158.4218   28.2380 H   0  0  0  0  0  0  0  0  0  0  0  0
   52.1102  159.8248   30.0488 H   0  0  0  0  0  0  0  0  0  0  0  0
   50.7866  159.4722   28.9044 H   0  0  0  0  0  0  0  0  0  0  0  0
   51.6079  161.3045   31.7919 H   0  0  0  0  0  0  0  0  0  0  0  0
   49.9779  162.3668   33.3512 H   0  0  0  0  0  0  0  0  0  0  0  0
   47.5858  161.6469   33.3339 H   0  0  0  0  0  0  0  0  0  0  0  0
   48.4485  158.8160   30.1876 H   0  0  0  0  0  0  0  0  0  0  0  0
   50.3545  155.5965   30.1133 H   0  0  0  0  0  0  0  0  0  0  0  0
   50.9711  153.8689   28.4216 H   0  0  0  0  0  0  0  0  0  0  0  0
   56.2420  153.3400   25.2900 H   0  0  0  0  0  0  0  0  0  0  0  0
   56.4850  151.8210   26.0270 H   0  0  0  0  0  0  0  0  0  0  0  0
  1  2  1  0
  2  3  1  0
  3  4  2  0
  4  5  1  0
  5  6  2  0
  6  7  1  0
  7  8  2  0
  8  9  1  0
  9 10  1  0
 10 11  1  0
 11 12  2  0
 12 13  1  0
 13 14  2  0
 14 15  1  0
 15 16  1  0
 15 17  2  0
  8 18  1  0
 18 19  2  0
  2 20  1  0
 20 21  1  0
 20 22  2  0
 19  5  1  0
 17 11  1  0
  1 23  1  0
  1 24  1  0
  1 25  1  0
  2 26  1  6
  4 27  1  0
  6 28  1  0
  7 29  1  0
 10 30  1  0
 10 31  1  0
 12 32  1  0
 13 33  1  0
 14 34  1  0
 17 35  1  0
 18 36  1  0
 19 37  1  0
 21 38  1  0
 21 39  1  0
M  END
>  <meeko>  (3) 
{"is_sidechain": [false], "free_energy": -10.424, "intermolecular_energy": -14.179, "internal_energy": -0.551}

$$$$
SAG_pdb_out
     RDKit          3D

 39 40  0  0  0  0  0  0  0  0999 V2000
   54.6000  153.6270   23.2300 C   0  0  0  0  0  0  0  0  0  0  0  0
   53.7690  153.1770   24.4230 C   0  0  2  0  0  0  0  0  0  0  0  0
   53.5050  154.3660   25.2730 N   0  0  0  0  0  0  0  0  0  0  0  0
   52.8020  154.1000   26.3230 C   0  0  0  0  0  0  0  0  0  0  0  0
   52.4260  155.1470   27.2920 C   0  0  0  0  0  0  0  0  0  0  0  0
   52.9860  156.4260   27.2210 C   0  0  0  0  0  0  0  0  0  0  0  0
   52.6180  157.4070   28.1510 C   0  0  0  0  0  0  0  0  0  0  0  0
   51.6890  157.1090   29.1500 C   0  0  0  0  0  0  0  0  0  0  0  0
   51.2430  157.9670   30.1150 O   0  0  0  0  0  0  0  0  0  0  0  0
   51.5880  159.3430   29.9760 C   0  0  0  0  0  0  0  0  0  0  0  0
   50.5300  160.1590   30.6750 C   0  0  0  0  0  0  0  0  0  0  0  0
   49.2790  160.3690   30.0750 C   0  0  0  0  0  0  0  0  0  0  0  0
   48.2900  161.1100   30.7290 C   0  0  0  0  0  0  0  0  0  0  0  0
   48.5420  161.6410   31.9930 C   0  0  0  0  0  0  0  0  0  0  0  0
   49.7750  161.4220   32.5940 C   0  0  0  0  0  0  0  0  0  0  0  0
   50.0120  161.9240   33.8130 F   0  0  0  0  0  0  0  0  0  0  0  0
   50.7670  160.6860   31.9530 C   0  0  0  0  0  0  0  0  0  0  0  0
   51.1340  155.8280   29.2130 C   0  0  0  0  0  0  0  0  0  0  0  0
   51.4970  154.8440   28.2880 C   0  0  0  0  0  0  0  0  0  0  0  0
   54.5440  152.1420   25.2470 C   0  0  0  0  0  0  0  0  0  0  0  0
   55.8500  152.4640   25.4940 N   0  0  0  0  0  0  0  0  0  0  0  0
   54.0600  151.0870   25.6430 O   0  0  0  0  0  0  0  0  0  0  0  0
   55.5151  154.1225   23.5865 H   0  0  0  0  0  0  0  0  0  0  0  0
   54.8705  152.7521   22.6206 H   0  0  0  0  0  0  0  0  0  0  0  0
   54.0151  154.3316   22.6206 H   0  0  0  0  0  0  0  0  0  0  0  0
   52.8297  152.7242   24.0727 H   0  0  0  0  0  0  0  0  0  0  0  0
   52.4747  153.0648   26.4997 H   0  0  0  0  0  0  0  0  0  0  0  0
   53.7168  156.6625   26.4336 H   0  0  0  0  0  0  0  0  0  0  0  0
   53.0610  158.4123   28.0942 H   0  0  0  0  0  0  0  0  0  0  0  0
   52.5694  159.5306   30.4362 H   0  0  0  0  0  0  0  0  0  0  0  0
   51.6439  159.6185   28.9125 H   0  0  0  0  0  0  0  0  0  0  0  0
   49.0744  159.9464   29.0802 H   0  0  0  0  0  0  0  0  0  0  0  0
   47.3149  161.2736   30.2470 H   0  0  0  0  0  0  0  0  0  0  0  0
   47.7700  162.2292   32.5108 H   0  0  0  0  0  0  0  0  0  0  0  0
   51.7350  160.5179   32.4476 H   0  0  0  0  0  0  0  0  0  0  0  0
   50.4027  155.5908   29.9997 H   0  0  0  0  0  0  0  0  0  0  0  0
   51.0536  153.8389   28.3452 H   0  0  0  0  0  0  0  0  0  0  0  0
   56.2170  153.3170   25.1660 H   0  0  0  0  0  0  0  0  0  0  0  0
   56.4230  151.8430   26.0010 H   0  0  0  0  0  0  0  0  0  0  0  0
  1  2  1  0
  2  3  1  0
  3  4  2  0
  4  5  1  0
  5  6  2  0
  6  7  1  0
  7  8  2  0
  8  9  1  0
  9 10  1  0
 10 11  1  0
 11 12  2  0
 12 13  1  0
 13 14  2  0
 14 15  1  0
 15 16  1  0
 15 17  2  0
  8 18  1  0
 18 19  2  0
  2 20  1  0
 20 21  1  0
 20 22  2  0
 19  5  1  0
 17 11  1  0
  1 23  1  0
  1 24  1  0
  1 25  1  0
  2 26  1  6
  4 27  1  0
  6 28  1  0
  7 29  1  0
 10 30  1  0
 10 31  1  0
 12 32  1  0
 13 33  1  0
 14 34  1  0
 17 35  1  0
 18 36  1  0
 19 37  1  0
 21 38  1  0
 21 39  1  0
M  END
>  <meeko>  (4) 
{"is_sidechain": [false], "free_energy": -10.357, "intermolecular_energy": -14.169, "internal_energy": -0.468}

$$$$
SAG_pdb_out
     RDKit          3D

 39 40  0  0  0  0  0  0  0  0999 V2000
   47.8700  160.5120   31.3420 C   0  0  0  0  0  0  0  0  0  0  0  0
   49.2050  161.1870   31.0580 C   0  0  2  0  0  0  0  0  0  0  0  0
   50.0420  160.2380   30.2790 N   0  0  0  0  0  0  0  0  0  0  0  0
   49.9090  159.0090   30.6550 C   0  0  0  0  0  0  0  0  0  0  0  0
   50.6590  157.9140   30.0100 C   0  0  0  0  0  0  0  0  0  0  0  0
   50.1170  156.6300   29.9180 C   0  0  0  0  0  0  0  0  0  0  0  0
   50.8450  155.6030   29.3030 C   0  0  0  0  0  0  0  0  0  0  0  0
   52.1130  155.8610   28.7810 C   0  0  0  0  0  0  0  0  0  0  0  0
   52.9270  154.9570   28.1580 O   0  0  0  0  0  0  0  0  0  0  0  0
   52.3140  154.0420   27.2530 C   0  0  0  0  0  0  0  0  0  0  0  0
   53.1750  153.9680   26.0170 C   0  0  0  0  0  0  0  0  0  0  0  0
   53.3170  152.7580   25.3180 C   0  0  0  0  0  0  0  0  0  0  0  0
   54.0990  152.6900   24.1620 C   0  0  0  0  0  0  0  0  0  0  0  0
   54.7410  153.8340   23.6900 C   0  0  0  0  0  0  0  0  0  0  0  0
   54.5900  155.0350   24.3720 C   0  0  0  0  0  0  0  0  0  0  0  0
   55.2000  156.1350   23.9120 F   0  0  0  0  0  0  0  0  0  0  0  0
   53.8140  155.1140   25.5240 C   0  0  0  0  0  0  0  0  0  0  0  0
   52.6470  157.1500   28.8780 C   0  0  0  0  0  0  0  0  0  0  0  0
   51.9260  158.1790   29.4890 C   0  0  0  0  0  0  0  0  0  0  0  0
   49.9220  161.5130   32.3740 C   0  0  0  0  0  0  0  0  0  0  0  0
   51.2430  161.8440   32.2430 N   0  0  0  0  0  0  0  0  0  0  0  0
   49.3810  161.4630   33.4730 O   0  0  0  0  0  0  0  0  0  0  0  0
   47.7211  160.4367   32.4293 H   0  0  0  0  0  0  0  0  0  0  0  0
   47.0569  161.1073   30.9009 H   0  0  0  0  0  0  0  0  0  0  0  0
   47.8675  159.5043   30.9009 H   0  0  0  0  0  0  0  0  0  0  0  0
   49.0397  162.1201   30.4995 H   0  0  0  0  0  0  0  0  0  0  0  0
   49.2183  158.7727   31.4778 H   0  0  0  0  0  0  0  0  0  0  0  0
   49.1174  156.4249   30.3289 H   0  0  0  0  0  0  0  0  0  0  0  0
   50.4166  154.5924   29.2316 H   0  0  0  0  0  0  0  0  0  0  0  0
   52.2413  153.0479   27.7182 H   0  0  0  0  0  0  0  0  0  0  0  0
   51.2995  154.3795   26.9944 H   0  0  0  0  0  0  0  0  0  0  0  0
   52.8074  151.8546   25.6844 H   0  0  0  0  0  0  0  0  0  0  0  0
   54.2078  151.7359   23.6255 H   0  0  0  0  0  0  0  0  0  0  0  0
   55.3628  153.7861   22.7839 H   0  0  0  0  0  0  0  0  0  0  0  0
   53.7020  156.0749   26.0475 H   0  0  0  0  0  0  0  0  0  0  0  0
   53.6468  157.3561   28.4683 H   0  0  0  0  0  0  0  0  0  0  0  0
   52.3538  159.1900   29.5588 H   0  0  0  0  0  0  0  0  0  0  0  0
   51.6550  161.8780   31.3490 H   0  0  0  0  0  0  0  0  0  0  0  0
   51.7810  162.0490   33.0420 H   0  0  0  0  0  0  0  0  0  0  0  0
  1  2  1  0
  2  3  1  0
  3  4  2  0
  4  5  1  0
  5  6  2  0
  6  7  1  0
  7  8  2  0
  8  9  1  0
  9 10  1  0
 10 11  1  0
 11 12  2  0
 12 13  1  0
 13 14  2  0
 14 15  1  0
 15 16  1  0
 15 17  2  0
  8 18  1  0
 18 19  2  0
  2 20  1  0
 20 21  1  0
 20 22  2  0
 19  5  1  0
 17 11  1  0
  1 23  1  0
  1 24  1  0
  1 25  1  0
  2 26  1  6
  4 27  1  0
  6 28  1  0
  7 29  1  0
 10 30  1  0
 10 31  1  0
 12 32  1  0
 13 33  1  0
 14 34  1  0
 17 35  1  0
 18 36  1  0
 19 37  1  0
 21 38  1  0
 21 39  1  0
M  END
>  <meeko>  (5) 
{"is_sidechain": [false], "free_energy": -10.16, "intermolecular_energy": -13.686, "internal_energy": -0.687}

$$$$
SAG_pdb_out
     RDKit          3D

 39 40  0  0  0  0  0  0  0  0999 V2000
   52.0810  152.1170   26.0450 C   0  0  0  0  0  0  0  0  0  0  0  0
   53.5240  152.5470   26.2660 C   0  0  2  0  0  0  0  0  0  0  0  0
   53.5110  153.8220   27.0280 N   0  0  0  0  0  0  0  0  0  0  0  0
   52.3250  154.2060   27.3650 C   0  0  0  0  0  0  0  0  0  0  0  0
   52.0980  155.4520   28.1220 C   0  0  0  0  0  0  0  0  0  0  0  0
   51.1070  155.5240   29.1050 C   0  0  0  0  0  0  0  0  0  0  0  0
   50.9060  156.7160   29.8130 C   0  0  0  0  0  0  0  0  0  0  0  0
   51.6950  157.8350   29.5380 C   0  0  0  0  0  0  0  0  0  0  0  0
   51.6060  159.0530   30.1490 O   0  0  0  0  0  0  0  0  0  0  0  0
   50.5600  159.9220   29.7240 C   0  0  0  0  0  0  0  0  0  0  0  0
   49.7910  160.3540   30.9460 C   0  0  0  0  0  0  0  0  0  0  0  0
   50.3750  161.2110   31.8920 C   0  0  0  0  0  0  0  0  0  0  0  0
   49.6570  161.6280   33.0170 C   0  0  0  0  0  0  0  0  0  0  0  0
   48.3450  161.1950   33.2030 C   0  0  0  0  0  0  0  0  0  0  0  0
   47.7600  160.3580   32.2610 C   0  0  0  0  0  0  0  0  0  0  0  0
   46.4960  159.9510   32.4350 F   0  0  0  0  0  0  0  0  0  0  0  0
   48.4650  159.9380   31.1370 C   0  0  0  0  0  0  0  0  0  0  0  0
   52.6840  157.7520   28.5520 C   0  0  0  0  0  0  0  0  0  0  0  0
   52.8900  156.5660   27.8430 C   0  0  0  0  0  0  0  0  0  0  0  0
   54.2170  152.7830   24.9180 C   0  0  0  0  0  0  0  0  0  0  0  0
   54.0980  151.7570   24.0220 N   0  0  0  0  0  0  0  0  0  0  0  0
   54.8580  153.7940   24.6510 O   0  0  0  0  0  0  0  0  0  0  0  0
   51.5890  151.9704   27.0179 H   0  0  0  0  0  0  0  0  0  0  0  0
   51.5490  152.8956   25.4787 H   0  0  0  0  0  0  0  0  0  0  0  0
   52.0620  151.1742   25.4787 H   0  0  0  0  0  0  0  0  0  0  0  0
   54.0666  151.7632   26.8149 H   0  0  0  0  0  0  0  0  0  0  0  0
   51.4610  153.5877   27.0801 H   0  0  0  0  0  0  0  0  0  0  0  0
   50.4843  154.6438   29.3229 H   0  0  0  0  0  0  0  0  0  0  0  0
   50.1258  156.7706   30.5865 H   0  0  0  0  0  0  0  0  0  0  0  0
   50.9867  160.8020   29.2205 H   0  0  0  0  0  0  0  0  0  0  0  0
   49.8956  159.4043   29.0165 H   0  0  0  0  0  0  0  0  0  0  0  0
   51.4086  161.5582   31.7467 H   0  0  0  0  0  0  0  0  0  0  0  0
   50.1264  162.2964   33.7538 H   0  0  0  0  0  0  0  0  0  0  0  0
   47.7769  161.5138   34.0894 H   0  0  0  0  0  0  0  0  0  0  0  0
   47.9828  159.2803   30.3989 H   0  0  0  0  0  0  0  0  0  0  0  0
   53.3071  158.6314   28.3323 H   0  0  0  0  0  0  0  0  0  0  0  0
   53.6710  156.5110   27.0704 H   0  0  0  0  0  0  0  0  0  0  0  0
   53.5780  150.9550   24.2580 H   0  0  0  0  0  0  0  0  0  0  0  0
   54.5300  151.8210   23.1390 H   0  0  0  0  0  0  0  0  0  0  0  0
  1  2  1  0
  2  3  1  0
  3  4  2  0
  4  5  1  0
  5  6  2  0
  6  7  1  0
  7  8  2  0
  8  9  1  0
  9 10  1  0
 10 11  1  0
 11 12  2  0
 12 13  1  0
 13 14  2  0
 14 15  1  0
 15 16  1  0
 15 17  2  0
  8 18  1  0
 18 19  2  0
  2 20  1  0
 20 21  1  0
 20 22  2  0
 19  5  1  0
 17 11  1  0
  1 23  1  0
  1 24  1  0
  1 25  1  0
  2 26  1  1
  4 27  1  0
  6 28  1  0
  7 29  1  0
 10 30  1  0
 10 31  1  0
 12 32  1  0
 13 33  1  0
 14 34  1  0
 17 35  1  0
 18 36  1  0
 19 37  1  0
 21 38  1  0
 21 39  1  0
M  END
>  <meeko>  (6) 
{"is_sidechain": [false], "free_energy": -9.311, "intermolecular_energy": -12.567, "internal_energy": -0.658}

$$$$
SAG_pdb_out
     RDKit          3D

 39 40  0  0  0  0  0  0  0  0999 V2000
   53.4550  152.5350   25.0830 C   0  0  0  0  0  0  0  0  0  0  0  0
   54.2920  153.7560   25.4380 C   0  0  2  0  0  0  0  0  0  0  0  0
   53.4040  154.7420   26.1070 N   0  0  0  0  0  0  0  0  0  0  0  0
   53.0740  154.4010   27.3090 C   0  0  0  0  0  0  0  0  0  0  0  0
   52.1930  155.2430   28.1400 C   0  0  0  0  0  0  0  0  0  0  0  0
   52.5820  156.5280   28.5270 C   0  0  0  0  0  0  0  0  0  0  0  0
   51.7310  157.3120   29.3170 C   0  0  0  0  0  0  0  0  0  0  0  0
   50.4920  156.8110   29.7190 C   0  0  0  0  0  0  0  0  0  0  0  0
   49.5700  157.4660   30.4860 O   0  0  0  0  0  0  0  0  0  0  0  0
   49.0910  158.7190   30.0040 C   0  0  0  0  0  0  0  0  0  0  0  0
   49.4540  159.7740   31.0180 C   0  0  0  0  0  0  0  0  0  0  0  0
   50.6990  160.4200   30.9610 C   0  0  0  0  0  0  0  0  0  0  0  0
   51.0310  161.4120   31.8880 C   0  0  0  0  0  0  0  0  0  0  0  0
   50.1180  161.7710   32.8780 C   0  0  0  0  0  0  0  0  0  0  0  0
   48.8790  161.1430   32.9270 C   0  0  0  0  0  0  0  0  0  0  0  0
   47.9990  161.4960   33.8720 F   0  0  0  0  0  0  0  0  0  0  0  0
   48.5380  160.1540   32.0090 C   0  0  0  0  0  0  0  0  0  0  0  0
   50.1110  155.5240   29.3280 C   0  0  0  0  0  0  0  0  0  0  0  0
   50.9550  154.7370   28.5400 C   0  0  0  0  0  0  0  0  0  0  0  0
   54.8650  154.3920   24.1650 C   0  0  0  0  0  0  0  0  0  0  0  0
   55.0070  153.5360   23.1080 N   0  0  0  0  0  0  0  0  0  0  0  0
   55.2040  155.5680   24.0870 O   0  0  0  0  0  0  0  0  0  0  0  0
   53.1167  152.0414   26.0060 H   0  0  0  0  0  0  0  0  0  0  0  0
   52.5810  152.8485   24.4932 H   0  0  0  0  0  0  0  0  0  0  0  0
   54.0626  151.8328   24.4932 H   0  0  0  0  0  0  0  0  0  0  0  0
   55.1225  153.4598   26.0957 H   0  0  0  0  0  0  0  0  0  0  0  0
   53.4603  153.4581   27.7233 H   0  0  0  0  0  0  0  0  0  0  0  0
   53.5580  156.9248   28.2109 H   0  0  0  0  0  0  0  0  0  0  0  0
   52.0397  158.3232   29.6206 H   0  0  0  0  0  0  0  0  0  0  0  0
   49.5611  158.9521   29.0372 H   0  0  0  0  0  0  0  0  0  0  0  0
   48.0009  158.6835   29.8609 H   0  0  0  0  0  0  0  0  0  0  0  0
   51.4208  160.1426   30.1787 H   0  0  0  0  0  0  0  0  0  0  0  0
   52.0112  161.9085   31.8363 H   0  0  0  0  0  0  0  0  0  0  0  0
   50.3761  162.5456   33.6151 H   0  0  0  0  0  0  0  0  0  0  0  0
   47.5510  159.6711   32.0609 H   0  0  0  0  0  0  0  0  0  0  0  0
   49.1354  155.1262   29.6443 H   0  0  0  0  0  0  0  0  0  0  0  0
   50.6460  153.7257   28.2370 H   0  0  0  0  0  0  0  0  0  0  0  0
   54.7270  152.5960   23.1950 H   0  0  0  0  0  0  0  0  0  0  0  0
   55.3860  153.8610   22.2590 H   0  0  0  0  0  0  0  0  0  0  0  0
  1  2  1  0
  2  3  1  0
  3  4  2  0
  4  5  1  0
  5  6  2  0
  6  7  1  0
  7  8  2  0
  8  9  1  0
  9 10  1  0
 10 11  1  0
 11 12  2  0
 12 13  1  0
 13 14  2  0
 14 15  1  0
 15 16  1  0
 15 17  2  0
  8 18  1  0
 18 19  2  0
  2 20  1  0
 20 21  1  0
 20 22  2  0
 19  5  1  0
 17 11  1  0
  1 23  1  0
  1 24  1  0
  1 25  1  0
  2 26  1  1
  4 27  1  0
  6 28  1  0
  7 29  1  0
 10 30  1  0
 10 31  1  0
 12 32  1  0
 13 33  1  0
 14 34  1  0
 17 35  1  0
 18 36  1  0
 19 37  1  0
 21 38  1  0
 21 39  1  0
M  END
>  <meeko>  (7) 
{"is_sidechain": [false], "free_energy": -9.122, "intermolecular_energy": -12.341, "internal_energy": -0.63}

$$$$
SAG_pdb_out
     RDKit          3D

 39 40  0  0  0  0  0  0  0  0999 V2000
   53.8610  152.1340   23.9440 C   0  0  0  0  0  0  0  0  0  0  0  0
   54.6320  152.0330   25.2520 C   0  0  2  0  0  0  0  0  0  0  0  0
   53.7270  152.4540   26.3520 N   0  0  0  0  0  0  0  0  0  0  0  0
   53.6290  153.7360   26.4730 C   0  0  0  0  0  0  0  0  0  0  0  0
   52.7830  154.3560   27.5110 C   0  0  0  0  0  0  0  0  0  0  0  0
   52.2720  153.5990   28.5680 C   0  0  0  0  0  0  0  0  0  0  0  0
   51.4700  154.2050   29.5440 C   0  0  0  0  0  0  0  0  0  0  0  0
   51.1810  155.5680   29.4620 C   0  0  0  0  0  0  0  0  0  0  0  0
   50.4170  156.2830   30.3420 O   0  0  0  0  0  0  0  0  0  0  0  0
   49.5590  157.2830   29.7980 C   0  0  0  0  0  0  0  0  0  0  0  0
   49.8120  158.5670   30.5450 C   0  0  0  0  0  0  0  0  0  0  0  0
   50.9480  159.3440   30.2650 C   0  0  0  0  0  0  0  0  0  0  0  0
   51.1750  160.5450   30.9430 C   0  0  0  0  0  0  0  0  0  0  0  0
   50.2650  160.9830   31.9030 C   0  0  0  0  0  0  0  0  0  0  0  0
   49.1330  160.2230   32.1710 C   0  0  0  0  0  0  0  0  0  0  0  0
   48.2540  160.6500   33.0870 F   0  0  0  0  0  0  0  0  0  0  0  0
   48.8960  159.0260   31.5020 C   0  0  0  0  0  0  0  0  0  0  0  0
   51.6980  156.3180   28.4010 C   0  0  0  0  0  0  0  0  0  0  0  0
   52.4980  155.7200   27.4250 C   0  0  0  0  0  0  0  0  0  0  0  0
   55.8460  152.9700   25.2250 C   0  0  0  0  0  0  0  0  0  0  0  0
   56.9360  152.5210   25.9180 N   0  0  0  0  0  0  0  0  0  0  0  0
   55.8530  154.0560   24.6540 O   0  0  0  0  0  0  0  0  0  0  0  0
   52.7913  152.2741   24.1588 H   0  0  0  0  0  0  0  0  0  0  0  0
   54.2338  152.9910   23.3638 H   0  0  0  0  0  0  0  0  0  0  0  0
   54.0005  151.2099   23.3638 H   0  0  0  0  0  0  0  0  0  0  0  0
   54.9808  151.0002   25.3989 H   0  0  0  0  0  0  0  0  0  0  0  0
   54.1913  154.3832   25.7838 H   0  0  0  0  0  0  0  0  0  0  0  0
   52.4998  152.5249   28.6342 H   0  0  0  0  0  0  0  0  0  0  0  0
   51.0681  153.6066   30.3749 H   0  0  0  0  0  0  0  0  0  0  0  0
   49.7787  157.4229   28.7293 H   0  0  0  0  0  0  0  0  0  0  0  0
   48.5061  156.9814   29.9003 H   0  0  0  0  0  0  0  0  0  0  0  0
   51.6663  159.0039   29.5045 H   0  0  0  0  0  0  0  0  0  0  0  0
   52.0705  161.1434   30.7191 H   0  0  0  0  0  0  0  0  0  0  0  0
   50.4415  161.9238   32.4449 H   0  0  0  0  0  0  0  0  0  0  0  0
   47.9913  158.4408   31.7237 H   0  0  0  0  0  0  0  0  0  0  0  0
   51.4717  157.3924   28.3344 H   0  0  0  0  0  0  0  0  0  0  0  0
   52.9005  156.3190   26.5949 H   0  0  0  0  0  0  0  0  0  0  0  0
   56.9060  151.6450   26.3670 H   0  0  0  0  0  0  0  0  0  0  0  0
   57.7500  153.0720   25.9660 H   0  0  0  0  0  0  0  0  0  0  0  0
  1  2  1  0
  2  3  1  0
  3  4  2  0
  4  5  1  0
  5  6  2  0
  6  7  1  0
  7  8  2  0
  8  9  1  0
  9 10  1  0
 10 11  1  0
 11 12  2  0
 12 13  1  0
 13 14  2  0
 14 15  1  0
 15 16  1  0
 15 17  2  0
  8 18  1  0
 18 19  2  0
  2 20  1  0
 20 21  1  0
 20 22  2  0
 19  5  1  0
 17 11  1  0
  1 23  1  0
  1 24  1  0
  1 25  1  0
  2 26  1  1
  4 27  1  0
  6 28  1  0
  7 29  1  0
 10 30  1  0
 10 31  1  0
 12 32  1  0
 13 33  1  0
 14 34  1  0
 17 35  1  0
 18 36  1  0
 19 37  1  0
 21 38  1  0
 21 39  1  0
M  END
>  <meeko>  (8) 
{"is_sidechain": [false], "free_energy": -8.726, "intermolecular_energy": -12.219, "internal_energy": -0.216}

$$$$
