@<TRIPOS>MOLECULE
MOL
   35    37     1     0     0
SMALL
bcc


@<TRIPOS>ATOM
      1 C1          -3.7830    -0.6290    -2.0660 c3         1 MOL      -0.073800
      2 C2          -3.0600    -0.3760    -0.7700 ca         1 MOL      -0.027300
      3 C3          -1.6730    -0.1360    -0.7960 ca         1 MOL      -0.110000
      4 C4          -0.9490     0.1180     0.3790 ca         1 MOL      -0.014800
      5 C5           0.5110     0.3390     0.3100 cc         1 MOL       0.115900
      6 O1           1.1620    -0.5920    -0.4910 os         1 MOL      -0.213200
      7 C6           2.5220    -0.5010    -0.6420 ca         1 MOL       0.189100
      8 C7           3.1370    -1.4640    -1.4430 ca         1 MOL      -0.203000
      9 C8           4.5190    -1.4280    -1.6400 ca         1 MOL      -0.027000
     10 C9           5.2860    -0.4290    -1.0370 ca         1 MOL      -0.264000
     11 C10          4.6700     0.5320    -0.2390 ca         1 MOL       0.218100
     12 O2           5.4800     1.4820     0.3200 oh         1 MOL      -0.455100
     13 C11          3.2870     0.4940    -0.0410 ca         1 MOL      -0.249600
     14 C12          2.6010     1.4840     0.7900 c          1 MOL       0.578900
     15 O3           3.2050     2.3980     1.3480 o          1 MOL      -0.527100
     16 C13          1.1330     1.3520     0.9420 cd         1 MOL      -0.050100
     17 O4           0.4920     2.3000     1.7180 oh         1 MOL      -0.489100
     18 C14         -1.6350     0.1130     1.5980 ca         1 MOL      -0.103000
     19 C15         -3.0120    -0.1210     1.6400 ca         1 MOL      -0.088000
     20 C16         -3.7430    -0.3640     0.4650 ca         1 MOL      -0.159300
     21 C17         -5.2340    -0.6120     0.5510 c3         1 MOL       0.688200
     22 F1          -5.9610     0.2720    -0.1880 f          1 MOL      -0.237967
     23 F2          -5.7290    -0.5230     1.8190 f          1 MOL      -0.237967
     24 F3          -5.5870    -1.8520     0.1080 f          1 MOL      -0.237967
     25 H1          -3.0860    -0.5950    -2.8770 hc         1 MOL       0.059700
     26 H2          -4.5330     0.1210    -2.2090 hc         1 MOL       0.059700
     27 H3          -4.2460    -1.5940    -2.0340 hc         1 MOL       0.059700
     28 H4          -1.1770    -0.1460    -1.7010 ha         1 MOL       0.153000
     29 H5           2.5700    -2.2030    -1.8890 ha         1 MOL       0.160000
     30 H6           4.9740    -2.1400    -2.2320 ha         1 MOL       0.145000
     31 H7           6.3070    -0.4020    -1.1830 ha         1 MOL       0.145000
     32 H8           6.4030     1.4650     0.1580 ho         1 MOL       0.426000
     33 H9           0.9870     2.9800     2.1300 ho         1 MOL       0.449000
     34 H10         -1.1190     0.2840     2.4750 ha         1 MOL       0.167000
     35 H11         -3.5000    -0.1150     2.5500 ha         1 MOL       0.156000
@<TRIPOS>BOND
     1     1     2 1   
     2     1    25 1   
     3     1    26 1   
     4     1    27 1   
     5     2     3 ar  
     6     3     4 ar  
     7     3    28 1   
     8     4     5 1   
     9     4    18 ar  
    10     5     6 1   
    11     6     7 1   
    12     7     8 ar  
    13     8     9 ar  
    14     8    29 1   
    15     9    10 ar  
    16     9    30 1   
    17    10    11 ar  
    18    10    31 1   
    19    11    12 1   
    20    11    13 ar  
    21    12    32 1   
    22    13    14 1   
    23    13     7 ar  
    24    14    15 2   
    25    14    16 1   
    26    16    17 1   
    27    16     5 2   
    28    17    33 1   
    29    18    19 ar  
    30    18    34 1   
    31    19    20 ar  
    32    19    35 1   
    33    20    21 1   
    34    20     2 ar  
    35    21    22 1   
    36    21    23 1   
    37    21    24 1   
@<TRIPOS>SUBSTRUCTURE
     1 MOL         1 TEMP              0 ****  ****    0 ROOT
