9IV_ttbk2_out
     RDKit          3D

 37 40  0  0  0  0  0  0  0  0999 V2000
  178.5080   21.2020   50.9980 Cl  0  0  0  0  0  0  0  0  0  0  0  0
  178.2260   22.1560   49.5890 C   0  0  0  0  0  0  0  0  0  0  0  0
  177.1120   22.9990   49.5650 C   0  0  0  0  0  0  0  0  0  0  0  0
  176.8560   23.7860   48.4400 C   0  0  0  0  0  0  0  0  0  0  0  0
  177.7150   23.7370   47.3420 C   0  0  0  0  0  0  0  0  0  0  0  0
  178.8290   22.8960   47.3620 C   0  0  0  0  0  0  0  0  0  0  0  0
  179.0770   22.0900   48.4810 C   0  0  0  0  0  0  0  0  0  0  0  0
  180.1930   21.2850   48.5340 O   0  0  0  0  0  0  0  0  0  0  0  0
  180.4660   20.5190   47.4240 C   0  0  0  0  0  0  0  0  0  0  0  0
  181.6580   20.6170   46.7050 C   0  0  0  0  0  0  0  0  0  0  0  0
  181.8480   19.8270   45.5690 C   0  0  0  0  0  0  0  0  0  0  0  0
  180.8580   18.9340   45.1340 C   0  0  0  0  0  0  0  0  0  0  0  0
  181.1000   18.1880   43.9630 N   0  0  0  0  0  0  0  0  0  0  0  0
  180.9240   16.8090   43.7640 C   0  0  0  0  0  0  0  0  0  0  0  0
  180.5800   16.0760   44.8530 N   0  0  0  0  0  0  0  0  0  0  0  0
  180.3910   14.7500   44.7060 C   0  0  0  0  0  0  0  0  0  0  0  0
  180.4860   14.0170   43.5850 N   0  0  0  0  0  0  0  0  0  0  0  0
  180.7960   14.7820   42.5290 C   0  0  0  0  0  0  0  0  0  0  0  0
  180.9360   14.3190   41.2500 N   0  0  0  0  0  0  0  0  0  0  0  0
  181.2290   15.3620   40.4090 C   0  0  0  0  0  0  0  0  0  0  0  0
  181.2810   16.5110   41.1700 C   0  0  0  0  0  0  0  0  0  0  0  0
  181.0220   16.1510   42.5250 C   0  0  0  0  0  0  0  0  0  0  0  0
  179.6510   18.8820   45.8420 C   0  0  0  0  0  0  0  0  0  0  0  0
  179.4540   19.6700   46.9800 C   0  0  0  0  0  0  0  0  0  0  0  0
  176.4366   23.0428   50.4321 H   0  0  0  0  0  0  0  0  0  0  0  0
  175.9758   24.4454   48.4197 H   0  0  0  0  0  0  0  0  0  0  0  0
  177.5143   24.3619   46.4593 H   0  0  0  0  0  0  0  0  0  0  0  0
  179.5116   22.8661   46.4999 H   0  0  0  0  0  0  0  0  0  0  0  0
  182.4445   21.3133   47.0315 H   0  0  0  0  0  0  0  0  0  0  0  0
  182.7898   19.9066   45.0062 H   0  0  0  0  0  0  0  0  0  0  0  0
  181.4340   18.6960   43.1890 H   0  0  0  0  0  0  0  0  0  0  0  0
  180.1253   14.1983   45.6198 H   0  0  0  0  0  0  0  0  0  0  0  0
  180.8400   13.3790   40.9740 H   0  0  0  0  0  0  0  0  0  0  0  0
  181.3929   15.2943   39.3234 H   0  0  0  0  0  0  0  0  0  0  0  0
  181.4860   17.5255   40.7975 H   0  0  0  0  0  0  0  0  0  0  0  0
  178.8481   18.2131   45.4987 H   0  0  0  0  0  0  0  0  0  0  0  0
  178.4999   19.6198   47.5251 H   0  0  0  0  0  0  0  0  0  0  0  0
  1  2  1  0
  2  3  2  0
  3  4  1  0
  4  5  2  0
  5  6  1  0
  6  7  2  0
  7  8  1  0
  8  9  1  0
  9 10  2  0
 10 11  1  0
 11 12  2  0
 12 13  1  0
 13 14  1  0
 14 15  2  0
 15 16  1  0
 16 17  2  0
 17 18  1  0
 18 19  1  0
 19 20  1  0
 20 21  2  0
 21 22  1  0
 12 23  1  0
 23 24  2  0
  7  2  1  0
 24  9  1  0
 22 14  1  0
 22 18  2  0
  3 25  1  0
  4 26  1  0
  5 27  1  0
  6 28  1  0
 10 29  1  0
 11 30  1  0
 13 31  1  0
 16 32  1  0
 19 33  1  0
 20 34  1  0
 21 35  1  0
 23 36  1  0
 24 37  1  0
M  END
>  <meeko>  (1) 
{"is_sidechain": [false], "free_energy": -8.586, "intermolecular_energy": -10.593, "internal_energy": -0.323}

$$$$
9IV_ttbk2_out
     RDKit          3D

 37 40  0  0  0  0  0  0  0  0999 V2000
  175.2060   20.3070   48.5040 Cl  0  0  0  0  0  0  0  0  0  0  0  0
  176.5850   20.9050   49.3500 C   0  0  0  0  0  0  0  0  0  0  0  0
  176.6010   20.8230   50.7450 C   0  0  0  0  0  0  0  0  0  0  0  0
  177.7030   21.2970   51.4600 C   0  0  0  0  0  0  0  0  0  0  0  0
  178.7910   21.8470   50.7840 C   0  0  0  0  0  0  0  0  0  0  0  0
  178.7800   21.9300   49.3900 C   0  0  0  0  0  0  0  0  0  0  0  0
  177.6670   21.4750   48.6720 C   0  0  0  0  0  0  0  0  0  0  0  0
  177.6550   21.5130   47.2950 O   0  0  0  0  0  0  0  0  0  0  0  0
  178.5420   20.6910   46.6390 C   0  0  0  0  0  0  0  0  0  0  0  0
  179.7250   21.1540   46.0620 C   0  0  0  0  0  0  0  0  0  0  0  0
  180.5600   20.2620   45.3840 C   0  0  0  0  0  0  0  0  0  0  0  0
  180.2290   18.9040   45.2720 C   0  0  0  0  0  0  0  0  0  0  0  0
  181.1000   18.0620   44.5490 N   0  0  0  0  0  0  0  0  0  0  0  0
  180.8720   16.7450   44.1210 C   0  0  0  0  0  0  0  0  0  0  0  0
  180.4690   15.8580   45.0670 N   0  0  0  0  0  0  0  0  0  0  0  0
  180.2290   14.5840   44.6990 C   0  0  0  0  0  0  0  0  0  0  0  0
  180.3220   14.0430   43.4740 N   0  0  0  0  0  0  0  0  0  0  0  0
  180.6910   14.9570   42.5650 C   0  0  0  0  0  0  0  0  0  0  0  0
  180.8430   14.7060   41.2300 N   0  0  0  0  0  0  0  0  0  0  0  0
  181.2020   15.8590   40.5790 C   0  0  0  0  0  0  0  0  0  0  0  0
  181.2820   16.8630   41.5210 C   0  0  0  0  0  0  0  0  0  0  0  0
  180.9730   16.2960   42.7920 C   0  0  0  0  0  0  0  0  0  0  0  0
  179.0170   18.4660   45.8180 C   0  0  0  0  0  0  0  0  0  0  0  0
  178.1760   19.3540   46.4970 C   0  0  0  0  0  0  0  0  0  0  0  0
  175.7454   20.3850   51.2799 H   0  0  0  0  0  0  0  0  0  0  0  0
  177.7125   21.2363   52.5583 H   0  0  0  0  0  0  0  0  0  0  0  0
  179.6594   22.2161   51.3494 H   0  0  0  0  0  0  0  0  0  0  0  0
  179.6444   22.3522   48.8566 H   0  0  0  0  0  0  0  0  0  0  0  0
  179.9991   22.2164   46.1405 H   0  0  0  0  0  0  0  0  0  0  0  0
  181.4919   20.6310   44.9309 H   0  0  0  0  0  0  0  0  0  0  0  0
  181.9760   18.4460   44.3170 H   0  0  0  0  0  0  0  0  0  0  0  0
  179.9178   13.9016   45.5036 H   0  0  0  0  0  0  0  0  0  0  0  0
  180.7160   13.8300   40.8000 H   0  0  0  0  0  0  0  0  0  0  0  0
  181.3917   15.9637   39.5006 H   0  0  0  0  0  0  0  0  0  0  0  0
  181.5387   17.9148   41.3262 H   0  0  0  0  0  0  0  0  0  0  0  0
  178.7224   17.4115   45.7120 H   0  0  0  0  0  0  0  0  0  0  0  0
  177.2251   18.9966   46.9191 H   0  0  0  0  0  0  0  0  0  0  0  0
  1  2  1  0
  2  3  2  0
  3  4  1  0
  4  5  2  0
  5  6  1  0
  6  7  2  0
  7  8  1  0
  8  9  1  0
  9 10  2  0
 10 11  1  0
 11 12  2  0
 12 13  1  0
 13 14  1  0
 14 15  2  0
 15 16  1  0
 16 17  2  0
 17 18  1  0
 18 19  1  0
 19 20  1  0
 20 21  2  0
 21 22  1  0
 12 23  1  0
 23 24  2  0
  7  2  1  0
 24  9  1  0
 22 14  1  0
 22 18  2  0
  3 25  1  0
  4 26  1  0
  5 27  1  0
  6 28  1  0
 10 29  1  0
 11 30  1  0
 13 31  1  0
 16 32  1  0
 19 33  1  0
 20 34  1  0
 21 35  1  0
 23 36  1  0
 24 37  1  0
M  END
>  <meeko>  (2) 
{"is_sidechain": [false], "free_energy": -8.364, "intermolecular_energy": -10.178, "internal_energy": -0.465}

$$$$
9IV_ttbk2_out
     RDKit          3D

 37 40  0  0  0  0  0  0  0  0999 V2000
  180.8900   14.2310   45.0070 Cl  0  0  0  0  0  0  0  0  0  0  0  0
  180.8600   15.1660   43.5570 C   0  0  0  0  0  0  0  0  0  0  0  0
  180.4910   14.5390   42.3640 C   0  0  0  0  0  0  0  0  0  0  0  0
  180.4550   15.2680   41.1740 C   0  0  0  0  0  0  0  0  0  0  0  0
  180.7810   16.6240   41.1740 C   0  0  0  0  0  0  0  0  0  0  0  0
  181.1490   17.2550   42.3640 C   0  0  0  0  0  0  0  0  0  0  0  0
  181.2070   16.5210   43.5550 C   0  0  0  0  0  0  0  0  0  0  0  0
  181.5300   17.1360   44.7450 O   0  0  0  0  0  0  0  0  0  0  0  0
  180.7400   18.1910   45.1390 C   0  0  0  0  0  0  0  0  0  0  0  0
  181.1530   19.5220   45.0640 C   0  0  0  0  0  0  0  0  0  0  0  0
  180.3040   20.5370   45.5130 C   0  0  0  0  0  0  0  0  0  0  0  0
  179.0390   20.2410   46.0410 C   0  0  0  0  0  0  0  0  0  0  0  0
  178.2430   21.3090   46.5050 N   0  0  0  0  0  0  0  0  0  0  0  0
  177.9940   21.6890   47.8330 C   0  0  0  0  0  0  0  0  0  0  0  0
  178.6820   22.7630   48.2980 N   0  0  0  0  0  0  0  0  0  0  0  0
  178.4660   23.1690   49.5650 C   0  0  0  0  0  0  0  0  0  0  0  0
  177.6210   22.6500   50.4710 N   0  0  0  0  0  0  0  0  0  0  0  0
  176.9390   21.6140   49.9610 C   0  0  0  0  0  0  0  0  0  0  0  0
  175.9890   20.9020   50.6400 N   0  0  0  0  0  0  0  0  0  0  0  0
  175.4690   19.9290   49.8250 C   0  0  0  0  0  0  0  0  0  0  0  0
  176.1040   20.0230   48.6050 C   0  0  0  0  0  0  0  0  0  0  0  0
  177.0540   21.0830   48.6850 C   0  0  0  0  0  0  0  0  0  0  0  0
  178.6600   18.8980   46.1490 C   0  0  0  0  0  0  0  0  0  0  0  0
  179.5040   17.8780   45.7020 C   0  0  0  0  0  0  0  0  0  0  0  0
  180.2288   13.4707   42.3625 H   0  0  0  0  0  0  0  0  0  0  0  0
  180.1690   14.7721   40.2347 H   0  0  0  0  0  0  0  0  0  0  0  0
  180.7482   17.1970   40.2356 H   0  0  0  0  0  0  0  0  0  0  0  0
  181.3931   18.3276   42.3658 H   0  0  0  0  0  0  0  0  0  0  0  0
  182.1426   19.7710   44.6532 H   0  0  0  0  0  0  0  0  0  0  0  0
  180.6331   21.5848   45.4513 H   0  0  0  0  0  0  0  0  0  0  0  0
  177.8090   21.8560   45.8100 H   0  0  0  0  0  0  0  0  0  0  0  0
  179.0564   24.0349   49.8993 H   0  0  0  0  0  0  0  0  0  0  0  0
  175.7190   21.0630   51.5730 H   0  0  0  0  0  0  0  0  0  0  0  0
  174.6867   19.2047   50.0959 H   0  0  0  0  0  0  0  0  0  0  0  0
  175.9116   19.3916   47.7251 H   0  0  0  0  0  0  0  0  0  0  0  0
  177.6858   18.6423   46.5912 H   0  0  0  0  0  0  0  0  0  0  0  0
  179.1926   16.8271   45.7945 H   0  0  0  0  0  0  0  0  0  0  0  0
  1  2  1  0
  2  3  2  0
  3  4  1  0
  4  5  2  0
  5  6  1  0
  6  7  2  0
  7  8  1  0
  8  9  1  0
  9 10  2  0
 10 11  1  0
 11 12  2  0
 12 13  1  0
 13 14  1  0
 14 15  2  0
 15 16  1  0
 16 17  2  0
 17 18  1  0
 18 19  1  0
 19 20  1  0
 20 21  2  0
 21 22  1  0
 12 23  1  0
 23 24  2  0
  7  2  1  0
 24  9  1  0
 22 14  1  0
 22 18  2  0
  3 25  1  0
  4 26  1  0
  5 27  1  0
  6 28  1  0
 10 29  1  0
 11 30  1  0
 13 31  1  0
 16 32  1  0
 19 33  1  0
 20 34  1  0
 21 35  1  0
 23 36  1  0
 24 37  1  0
M  END
>  <meeko>  (3) 
{"is_sidechain": [false], "free_energy": -8.241, "intermolecular_energy": -9.593, "internal_energy": -0.898}

$$$$
9IV_ttbk2_out
     RDKit          3D

 37 40  0  0  0  0  0  0  0  0999 V2000
  181.0050   14.3170   45.0170 Cl  0  0  0  0  0  0  0  0  0  0  0  0
  180.9140   15.2220   43.5510 C   0  0  0  0  0  0  0  0  0  0  0  0
  180.5360   14.5610   42.3800 C   0  0  0  0  0  0  0  0  0  0  0  0
  180.4510   15.2640   41.1760 C   0  0  0  0  0  0  0  0  0  0  0  0
  180.7370   16.6290   41.1430 C   0  0  0  0  0  0  0  0  0  0  0  0
  181.1130   17.2940   42.3110 C   0  0  0  0  0  0  0  0  0  0  0  0
  181.2200   16.5860   43.5150 C   0  0  0  0  0  0  0  0  0  0  0  0
  181.5520   17.2340   44.6850 O   0  0  0  0  0  0  0  0  0  0  0  0
  180.7100   18.2380   45.1040 C   0  0  0  0  0  0  0  0  0  0  0  0
  181.0250   19.5930   44.9910 C   0  0  0  0  0  0  0  0  0  0  0  0
  180.1300   20.5540   45.4690 C   0  0  0  0  0  0  0  0  0  0  0  0
  178.9180   20.1800   46.0650 C   0  0  0  0  0  0  0  0  0  0  0  0
  178.0730   21.1980   46.5540 N   0  0  0  0  0  0  0  0  0  0  0  0
  177.0420   21.0860   47.5000 C   0  0  0  0  0  0  0  0  0  0  0  0
  175.8220   20.7200   47.0310 N   0  0  0  0  0  0  0  0  0  0  0  0
  174.8050   20.5910   47.9070 C   0  0  0  0  0  0  0  0  0  0  0  0
  174.8270   20.7670   49.2370 N   0  0  0  0  0  0  0  0  0  0  0  0
  176.0560   21.0960   49.6630 C   0  0  0  0  0  0  0  0  0  0  0  0
  176.3910   21.3120   50.9710 N   0  0  0  0  0  0  0  0  0  0  0  0
  177.7280   21.6040   51.0650 C   0  0  0  0  0  0  0  0  0  0  0  0
  178.2520   21.5750   49.7890 C   0  0  0  0  0  0  0  0  0  0  0  0
  177.1920   21.2670   48.8870 C   0  0  0  0  0  0  0  0  0  0  0  0
  178.6390   18.8160   46.2100 C   0  0  0  0  0  0  0  0  0  0  0  0
  179.5300   17.8490   45.7340 C   0  0  0  0  0  0  0  0  0  0  0  0
  180.3050   13.4858   42.4060 H   0  0  0  0  0  0  0  0  0  0  0  0
  180.1585   14.7411   40.2535 H   0  0  0  0  0  0  0  0  0  0  0  0
  180.6660   17.1821   40.1948 H   0  0  0  0  0  0  0  0  0  0  0  0
  181.3251   18.3731   42.2862 H   0  0  0  0  0  0  0  0  0  0  0  0
  181.9733   19.9031   44.5278 H   0  0  0  0  0  0  0  0  0  0  0  0
  180.3808   21.6210   45.3760 H   0  0  0  0  0  0  0  0  0  0  0  0
  178.2250   22.0980   46.1860 H   0  0  0  0  0  0  0  0  0  0  0  0
  173.8339   20.3052   47.4765 H   0  0  0  0  0  0  0  0  0  0  0  0
  175.7670   21.2670   51.7310 H   0  0  0  0  0  0  0  0  0  0  0  0
  178.2820   21.8218   51.9900 H   0  0  0  0  0  0  0  0  0  0  0  0
  179.3019   21.7573   49.5160 H   0  0  0  0  0  0  0  0  0  0  0  0
  177.7081   18.5011   46.7041 H   0  0  0  0  0  0  0  0  0  0  0  0
  179.2990   16.7806   45.8571 H   0  0  0  0  0  0  0  0  0  0  0  0
  1  2  1  0
  2  3  2  0
  3  4  1  0
  4  5  2  0
  5  6  1  0
  6  7  2  0
  7  8  1  0
  8  9  1  0
  9 10  2  0
 10 11  1  0
 11 12  2  0
 12 13  1  0
 13 14  1  0
 14 15  2  0
 15 16  1  0
 16 17  2  0
 17 18  1  0
 18 19  1  0
 19 20  1  0
 20 21  2  0
 21 22  1  0
 12 23  1  0
 23 24  2  0
  7  2  1  0
 24  9  1  0
 22 14  1  0
 22 18  2  0
  3 25  1  0
  4 26  1  0
  5 27  1  0
  6 28  1  0
 10 29  1  0
 11 30  1  0
 13 31  1  0
 16 32  1  0
 19 33  1  0
 20 34  1  0
 21 35  1  0
 23 36  1  0
 24 37  1  0
M  END
>  <meeko>  (4) 
{"is_sidechain": [false], "free_energy": -8.2, "intermolecular_energy": -9.6, "internal_energy": -0.841}

$$$$
9IV_ttbk2_out
     RDKit          3D

 37 40  0  0  0  0  0  0  0  0999 V2000
  178.3950   24.0040   47.3430 Cl  0  0  0  0  0  0  0  0  0  0  0  0
  179.4450   23.5350   48.6290 C   0  0  0  0  0  0  0  0  0  0  0  0
  180.2020   24.5210   49.2670 C   0  0  0  0  0  0  0  0  0  0  0  0
  181.0610   24.1740   50.3130 C   0  0  0  0  0  0  0  0  0  0  0  0
  181.1590   22.8460   50.7260 C   0  0  0  0  0  0  0  0  0  0  0  0
  180.4040   21.8580   50.0910 C   0  0  0  0  0  0  0  0  0  0  0  0
  179.5590   22.1990   49.0280 C   0  0  0  0  0  0  0  0  0  0  0  0
  178.7760   21.2440   48.4170 O   0  0  0  0  0  0  0  0  0  0  0  0
  179.3720   20.4800   47.4390 C   0  0  0  0  0  0  0  0  0  0  0  0
  180.7340   20.5500   47.1420 C   0  0  0  0  0  0  0  0  0  0  0  0
  181.2580   19.7630   46.1130 C   0  0  0  0  0  0  0  0  0  0  0  0
  180.4380   18.9040   45.3690 C   0  0  0  0  0  0  0  0  0  0  0  0
  181.0240   18.1600   44.3240 N   0  0  0  0  0  0  0  0  0  0  0  0
  180.8450   16.8000   44.0240 C   0  0  0  0  0  0  0  0  0  0  0  0
  180.4700   15.9940   45.0500 N   0  0  0  0  0  0  0  0  0  0  0  0
  180.2770   14.6830   44.8040 C   0  0  0  0  0  0  0  0  0  0  0  0
  180.3930   14.0310   43.6370 N   0  0  0  0  0  0  0  0  0  0  0  0
  180.7330   14.8680   42.6450 C   0  0  0  0  0  0  0  0  0  0  0  0
  180.8990   14.4960   41.3400 N   0  0  0  0  0  0  0  0  0  0  0  0
  181.2190   15.5930   40.5820 C   0  0  0  0  0  0  0  0  0  0  0  0
  181.2600   16.6850   41.4240 C   0  0  0  0  0  0  0  0  0  0  0  0
  180.9670   16.2310   42.7440 C   0  0  0  0  0  0  0  0  0  0  0  0
  179.0670   18.8800   45.6520 C   0  0  0  0  0  0  0  0  0  0  0  0
  178.5350   19.6640   46.6800 C   0  0  0  0  0  0  0  0  0  0  0  0
  180.1217   25.5700   48.9459 H   0  0  0  0  0  0  0  0  0  0  0  0
  181.6608   24.9498   50.8114 H   0  0  0  0  0  0  0  0  0  0  0  0
  181.8320   22.5763   51.5532 H   0  0  0  0  0  0  0  0  0  0  0  0
  180.4730   20.8124   50.4256 H   0  0  0  0  0  0  0  0  0  0  0  0
  181.3912   21.2209   47.7147 H   0  0  0  0  0  0  0  0  0  0  0  0
  182.3323   19.8187   45.8831 H   0  0  0  0  0  0  0  0  0  0  0  0
  181.6360   18.6550   43.7330 H   0  0  0  0  0  0  0  0  0  0  0  0
  179.9876   14.0695   45.6700 H   0  0  0  0  0  0  0  0  0  0  0  0
  180.8040   13.5780   40.9950 H   0  0  0  0  0  0  0  0  0  0  0  0
  181.4087   15.6008   39.4985 H   0  0  0  0  0  0  0  0  0  0  0  0
  181.4797   17.7219   41.1296 H   0  0  0  0  0  0  0  0  0  0  0  0
  178.4007   18.2367   45.0585 H   0  0  0  0  0  0  0  0  0  0  0  0
  177.4556   19.6368   46.8899 H   0  0  0  0  0  0  0  0  0  0  0  0
  1  2  1  0
  2  3  2  0
  3  4  1  0
  4  5  2  0
  5  6  1  0
  6  7  2  0
  7  8  1  0
  8  9  1  0
  9 10  2  0
 10 11  1  0
 11 12  2  0
 12 13  1  0
 13 14  1  0
 14 15  2  0
 15 16  1  0
 16 17  2  0
 17 18  1  0
 18 19  1  0
 19 20  1  0
 20 21  2  0
 21 22  1  0
 12 23  1  0
 23 24  2  0
  7  2  1  0
 24  9  1  0
 22 14  1  0
 22 18  2  0
  3 25  1  0
  4 26  1  0
  5 27  1  0
  6 28  1  0
 10 29  1  0
 11 30  1  0
 13 31  1  0
 16 32  1  0
 19 33  1  0
 20 34  1  0
 21 35  1  0
 23 36  1  0
 24 37  1  0
M  END
>  <meeko>  (5) 
{"is_sidechain": [false], "free_energy": -8.013, "intermolecular_energy": -9.82, "internal_energy": -0.389}

$$$$
9IV_ttbk2_out
     RDKit          3D

 37 40  0  0  0  0  0  0  0  0999 V2000
  179.9860   17.4390   45.3290 Cl  0  0  0  0  0  0  0  0  0  0  0  0
  180.1610   19.0280   45.9790 C   0  0  0  0  0  0  0  0  0  0  0  0
  181.4230   19.6260   45.9500 C   0  0  0  0  0  0  0  0  0  0  0  0
  181.5980   20.9120   46.4680 C   0  0  0  0  0  0  0  0  0  0  0  0
  180.5130   21.6020   47.0080 C   0  0  0  0  0  0  0  0  0  0  0  0
  179.2510   21.0070   47.0380 C   0  0  0  0  0  0  0  0  0  0  0  0
  179.0770   19.7110   46.5390 C   0  0  0  0  0  0  0  0  0  0  0  0
  177.8300   19.1240   46.5250 O   0  0  0  0  0  0  0  0  0  0  0  0
  176.8080   19.8120   47.1360 C   0  0  0  0  0  0  0  0  0  0  0  0
  176.1090   20.8480   46.5160 C   0  0  0  0  0  0  0  0  0  0  0  0
  175.1030   21.5200   47.2150 C   0  0  0  0  0  0  0  0  0  0  0  0
  174.7830   21.1730   48.5340 C   0  0  0  0  0  0  0  0  0  0  0  0
  173.7780   21.9100   49.1940 N   0  0  0  0  0  0  0  0  0  0  0  0
  173.7460   23.2900   49.4530 C   0  0  0  0  0  0  0  0  0  0  0  0
  172.5480   23.9100   49.3050 N   0  0  0  0  0  0  0  0  0  0  0  0
  172.4700   25.2320   49.5540 C   0  0  0  0  0  0  0  0  0  0  0  0
  173.4470   26.0610   49.9560 N   0  0  0  0  0  0  0  0  0  0  0  0
  174.6040   25.4040   50.1200 C   0  0  0  0  0  0  0  0  0  0  0  0
  175.7680   25.9790   50.5480 N   0  0  0  0  0  0  0  0  0  0  0  0
  176.7520   25.0270   50.6320 C   0  0  0  0  0  0  0  0  0  0  0  0
  176.2020   23.8220   50.2460 C   0  0  0  0  0  0  0  0  0  0  0  0
  174.8380   24.0540   49.9040 C   0  0  0  0  0  0  0  0  0  0  0  0
  175.5240   20.1610   49.1560 C   0  0  0  0  0  0  0  0  0  0  0  0
  176.5320   19.4840   48.4620 C   0  0  0  0  0  0  0  0  0  0  0  0
  182.2786   19.0849   45.5197 H   0  0  0  0  0  0  0  0  0  0  0  0
  182.5930   21.3807   46.4498 H   0  0  0  0  0  0  0  0  0  0  0  0
  180.6521   22.6162   47.4107 H   0  0  0  0  0  0  0  0  0  0  0  0
  178.3934   21.5563   47.4536 H   0  0  0  0  0  0  0  0  0  0  0  0
  176.3488   21.1345   45.4814 H   0  0  0  0  0  0  0  0  0  0  0  0
  174.5532   22.3350   46.7215 H   0  0  0  0  0  0  0  0  0  0  0  0
  173.0020   21.3940   49.5120 H   0  0  0  0  0  0  0  0  0  0  0  0
  171.4805   25.6903   49.4097 H   0  0  0  0  0  0  0  0  0  0  0  0
  175.8840   26.9320   50.7640 H   0  0  0  0  0  0  0  0  0  0  0  0
  177.7918   25.1941   50.9497 H   0  0  0  0  0  0  0  0  0  0  0  0
  176.7235   22.8542   50.2088 H   0  0  0  0  0  0  0  0  0  0  0  0
  175.3111   19.8954   50.2020 H   0  0  0  0  0  0  0  0  0  0  0  0
  177.1075   18.6919   48.9633 H   0  0  0  0  0  0  0  0  0  0  0  0
  1  2  1  0
  2  3  2  0
  3  4  1  0
  4  5  2  0
  5  6  1  0
  6  7  2  0
  7  8  1  0
  8  9  1  0
  9 10  2  0
 10 11  1  0
 11 12  2  0
 12 13  1  0
 13 14  1  0
 14 15  2  0
 15 16  1  0
 16 17  2  0
 17 18  1  0
 18 19  1  0
 19 20  1  0
 20 21  2  0
 21 22  1  0
 12 23  1  0
 23 24  2  0
  7  2  1  0
 24  9  1  0
 22 14  1  0
 22 18  2  0
  3 25  1  0
  4 26  1  0
  5 27  1  0
  6 28  1  0
 10 29  1  0
 11 30  1  0
 13 31  1  0
 16 32  1  0
 19 33  1  0
 20 34  1  0
 21 35  1  0
 23 36  1  0
 24 37  1  0
M  END
>  <meeko>  (6) 
{"is_sidechain": [false], "free_energy": -7.795, "intermolecular_energy": -9.363, "internal_energy": -0.578}

$$$$
9IV_ttbk2_out
     RDKit          3D

 37 40  0  0  0  0  0  0  0  0999 V2000
  183.1210   23.4240   51.1760 Cl  0  0  0  0  0  0  0  0  0  0  0  0
  183.7730   23.8520   49.6380 C   0  0  0  0  0  0  0  0  0  0  0  0
  184.4310   25.0780   49.5070 C   0  0  0  0  0  0  0  0  0  0  0  0
  184.9710   25.4540   48.2760 C   0  0  0  0  0  0  0  0  0  0  0  0
  184.8600   24.6040   47.1750 C   0  0  0  0  0  0  0  0  0  0  0  0
  184.2040   23.3780   47.3010 C   0  0  0  0  0  0  0  0  0  0  0  0
  183.6430   23.0080   48.5300 C   0  0  0  0  0  0  0  0  0  0  0  0
  183.0270   21.7850   48.6820 O   0  0  0  0  0  0  0  0  0  0  0  0
  181.8600   21.5810   47.9840 C   0  0  0  0  0  0  0  0  0  0  0  0
  180.8060   22.4960   47.9780 C   0  0  0  0  0  0  0  0  0  0  0  0
  179.6380   22.2020   47.2680 C   0  0  0  0  0  0  0  0  0  0  0  0
  179.5050   21.0000   46.5600 C   0  0  0  0  0  0  0  0  0  0  0  0
  178.2900   20.7510   45.8890 N   0  0  0  0  0  0  0  0  0  0  0  0
  177.1200   20.1730   46.4050 C   0  0  0  0  0  0  0  0  0  0  0  0
  176.8510   18.8980   46.0240 N   0  0  0  0  0  0  0  0  0  0  0  0
  175.7420   18.3000   46.5040 C   0  0  0  0  0  0  0  0  0  0  0  0
  174.8300   18.8000   47.3530 N   0  0  0  0  0  0  0  0  0  0  0  0
  175.1500   20.0470   47.7290 C   0  0  0  0  0  0  0  0  0  0  0  0
  174.4230   20.8020   48.6080 N   0  0  0  0  0  0  0  0  0  0  0  0
  175.0360   22.0150   48.7950 C   0  0  0  0  0  0  0  0  0  0  0  0
  176.1740   22.0320   48.0160 C   0  0  0  0  0  0  0  0  0  0  0  0
  176.2480   20.7890   47.3210 C   0  0  0  0  0  0  0  0  0  0  0  0
  180.5550   20.0750   46.6130 C   0  0  0  0  0  0  0  0  0  0  0  0
  181.7260   20.3620   47.3220 C   0  0  0  0  0  0  0  0  0  0  0  0
  184.5235   25.7474   50.3750 H   0  0  0  0  0  0  0  0  0  0  0  0
  185.4846   26.4214   48.1737 H   0  0  0  0  0  0  0  0  0  0  0  0
  185.2898   24.9002   46.2067 H   0  0  0  0  0  0  0  0  0  0  0  0
  184.1277   22.7031   46.4357 H   0  0  0  0  0  0  0  0  0  0  0  0
  180.8939   23.4439   48.5292 H   0  0  0  0  0  0  0  0  0  0  0  0
  178.8099   22.9261   47.2651 H   0  0  0  0  0  0  0  0  0  0  0  0
  178.2590   21.0160   44.9410 H   0  0  0  0  0  0  0  0  0  0  0  0
  175.5616   17.2722   46.1559 H   0  0  0  0  0  0  0  0  0  0  0  0
  173.5850   20.5180   49.0410 H   0  0  0  0  0  0  0  0  0  0  0  0
  174.6836   22.8270   49.4480 H   0  0  0  0  0  0  0  0  0  0  0  0
  176.8966   22.8582   47.9436 H   0  0  0  0  0  0  0  0  0  0  0  0
  180.4577   19.1116   46.0910 H   0  0  0  0  0  0  0  0  0  0  0  0
  182.5418   19.6250   47.3571 H   0  0  0  0  0  0  0  0  0  0  0  0
  1  2  1  0
  2  3  2  0
  3  4  1  0
  4  5  2  0
  5  6  1  0
  6  7  2  0
  7  8  1  0
  8  9  1  0
  9 10  2  0
 10 11  1  0
 11 12  2  0
 12 13  1  0
 13 14  1  0
 14 15  2  0
 15 16  1  0
 16 17  2  0
 17 18  1  0
 18 19  1  0
 19 20  1  0
 20 21  2  0
 21 22  1  0
 12 23  1  0
 23 24  2  0
  7  2  1  0
 24  9  1  0
 22 14  1  0
 22 18  2  0
  3 25  1  0
  4 26  1  0
  5 27  1  0
  6 28  1  0
 10 29  1  0
 11 30  1  0
 13 31  1  0
 16 32  1  0
 19 33  1  0
 20 34  1  0
 21 35  1  0
 23 36  1  0
 24 37  1  0
M  END
>  <meeko>  (7) 
{"is_sidechain": [false], "free_energy": -7.493, "intermolecular_energy": -8.679, "internal_energy": -0.889}

$$$$
9IV_ttbk2_out
     RDKit          3D

 37 40  0  0  0  0  0  0  0  0999 V2000
  179.7840   17.8920   45.5730 Cl  0  0  0  0  0  0  0  0  0  0  0  0
  180.2280   19.4410   46.1910 C   0  0  0  0  0  0  0  0  0  0  0  0
  181.5830   19.7170   46.3920 C   0  0  0  0  0  0  0  0  0  0  0  0
  181.9760   20.9610   46.8900 C   0  0  0  0  0  0  0  0  0  0  0  0
  181.0180   21.9320   47.1810 C   0  0  0  0  0  0  0  0  0  0  0  0
  179.6630   21.6600   46.9810 C   0  0  0  0  0  0  0  0  0  0  0  0
  179.2650   20.4060   46.5030 C   0  0  0  0  0  0  0  0  0  0  0  0
  177.9360   20.1340   46.2620 O   0  0  0  0  0  0  0  0  0  0  0  0
  177.0310   20.5490   47.2120 C   0  0  0  0  0  0  0  0  0  0  0  0
  176.5920   21.8690   47.3200 C   0  0  0  0  0  0  0  0  0  0  0  0
  175.6940   22.2190   48.3320 C   0  0  0  0  0  0  0  0  0  0  0  0
  175.2260   21.2640   49.2460 C   0  0  0  0  0  0  0  0  0  0  0  0
  174.3440   21.6880   50.2620 N   0  0  0  0  0  0  0  0  0  0  0  0
  174.1200   22.9950   50.7220 C   0  0  0  0  0  0  0  0  0  0  0  0
  174.9020   23.4230   51.7450 N   0  0  0  0  0  0  0  0  0  0  0  0
  174.7280   24.6750   52.2120 C   0  0  0  0  0  0  0  0  0  0  0  0
  173.8620   25.6080   51.7840 N   0  0  0  0  0  0  0  0  0  0  0  0
  173.1320   25.1570   50.7540 C   0  0  0  0  0  0  0  0  0  0  0  0
  172.1860   25.8910   50.0930 N   0  0  0  0  0  0  0  0  0  0  0  0
  171.6450   25.1440   49.0780 C   0  0  0  0  0  0  0  0  0  0  0  0
  172.2580   23.9080   49.0970 C   0  0  0  0  0  0  0  0  0  0  0  0
  173.1960   23.9010   50.1700 C   0  0  0  0  0  0  0  0  0  0  0  0
  175.7110   19.9540   49.1490 C   0  0  0  0  0  0  0  0  0  0  0  0
  176.6090   19.5970   48.1390 C   0  0  0  0  0  0  0  0  0  0  0  0
  182.3402   18.9542   46.1579 H   0  0  0  0  0  0  0  0  0  0  0  0
  183.0425   21.1754   47.0530 H   0  0  0  0  0  0  0  0  0  0  0  0
  181.3301   22.9131   47.5684 H   0  0  0  0  0  0  0  0  0  0  0  0
  178.9089   22.4306   47.1989 H   0  0  0  0  0  0  0  0  0  0  0  0
  176.9510   22.6305   46.6120 H   0  0  0  0  0  0  0  0  0  0  0  0
  175.3488   23.2603   48.4129 H   0  0  0  0  0  0  0  0  0  0  0  0
  173.8220   20.9800   50.7030 H   0  0  0  0  0  0  0  0  0  0  0  0
  175.3772   24.9701   53.0495 H   0  0  0  0  0  0  0  0  0  0  0  0
  171.9320   26.8160   50.3130 H   0  0  0  0  0  0  0  0  0  0  0  0
  170.8639   25.4710   48.3759 H   0  0  0  0  0  0  0  0  0  0  0  0
  172.0581   23.0755   48.4063 H   0  0  0  0  0  0  0  0  0  0  0  0
  175.3815   19.1971   49.8760 H   0  0  0  0  0  0  0  0  0  0  0  0
  176.9829   18.5644   48.0756 H   0  0  0  0  0  0  0  0  0  0  0  0
  1  2  1  0
  2  3  2  0
  3  4  1  0
  4  5  2  0
  5  6  1  0
  6  7  2  0
  7  8  1  0
  8  9  1  0
  9 10  2  0
 10 11  1  0
 11 12  2  0
 12 13  1  0
 13 14  1  0
 14 15  2  0
 15 16  1  0
 16 17  2  0
 17 18  1  0
 18 19  1  0
 19 20  1  0
 20 21  2  0
 21 22  1  0
 12 23  1  0
 23 24  2  0
  7  2  1  0
 24  9  1  0
 22 14  1  0
 22 18  2  0
  3 25  1  0
  4 26  1  0
  5 27  1  0
  6 28  1  0
 10 29  1  0
 11 30  1  0
 13 31  1  0
 16 32  1  0
 19 33  1  0
 20 34  1  0
 21 35  1  0
 23 36  1  0
 24 37  1  0
M  END
>  <meeko>  (8) 
{"is_sidechain": [false], "free_energy": -7.436, "intermolecular_energy": -9.025, "internal_energy": -0.473}

$$$$
9IV_ttbk2_out
     RDKit          3D

 37 40  0  0  0  0  0  0  0  0999 V2000
  174.3150   24.0750   52.7180 Cl  0  0  0  0  0  0  0  0  0  0  0  0
  173.3270   24.4010   51.3420 C   0  0  0  0  0  0  0  0  0  0  0  0
  172.5980   25.5920   51.3100 C   0  0  0  0  0  0  0  0  0  0  0  0
  171.7890   25.8870   50.2100 C   0  0  0  0  0  0  0  0  0  0  0  0
  171.7130   24.9970   49.1400 C   0  0  0  0  0  0  0  0  0  0  0  0
  172.4410   23.8060   49.1670 C   0  0  0  0  0  0  0  0  0  0  0  0
  173.2360   23.4980   50.2780 C   0  0  0  0  0  0  0  0  0  0  0  0
  173.9910   22.3460   50.3050 O   0  0  0  0  0  0  0  0  0  0  0  0
  175.0470   22.2690   49.4260 C   0  0  0  0  0  0  0  0  0  0  0  0
  176.0430   23.2430   49.3450 C   0  0  0  0  0  0  0  0  0  0  0  0
  177.0660   23.1100   48.4040 C   0  0  0  0  0  0  0  0  0  0  0  0
  177.1110   22.0110   47.5340 C   0  0  0  0  0  0  0  0  0  0  0  0
  178.1540   21.9510   46.5860 N   0  0  0  0  0  0  0  0  0  0  0  0
  179.2630   21.0910   46.5740 C   0  0  0  0  0  0  0  0  0  0  0  0
  179.4780   20.3900   45.4320 N   0  0  0  0  0  0  0  0  0  0  0  0
  180.5380   19.5600   45.3730 C   0  0  0  0  0  0  0  0  0  0  0  0
  181.4610   19.3230   46.3180 N   0  0  0  0  0  0  0  0  0  0  0  0
  181.2310   20.0570   47.4160 C   0  0  0  0  0  0  0  0  0  0  0  0
  182.0180   20.0470   48.5340 N   0  0  0  0  0  0  0  0  0  0  0  0
  181.5190   20.9280   49.4600 C   0  0  0  0  0  0  0  0  0  0  0  0
  180.3890   21.5060   48.9200 C   0  0  0  0  0  0  0  0  0  0  0  0
  180.1880   20.9470   47.6250 C   0  0  0  0  0  0  0  0  0  0  0  0
  176.0790   21.0670   47.6000 C   0  0  0  0  0  0  0  0  0  0  0  0
  175.0520   21.1940   48.5390 C   0  0  0  0  0  0  0  0  0  0  0  0
  172.6609   26.2979   52.1513 H   0  0  0  0  0  0  0  0  0  0  0  0
  171.2113   26.8228   50.1882 H   0  0  0  0  0  0  0  0  0  0  0  0
  171.0785   25.2333   48.2731 H   0  0  0  0  0  0  0  0  0  0  0  0
  172.3902   23.1103   48.3165 H   0  0  0  0  0  0  0  0  0  0  0  0
  176.0223   24.1117   50.0195 H   0  0  0  0  0  0  0  0  0  0  0  0
  177.8494   23.8798   48.3441 H   0  0  0  0  0  0  0  0  0  0  0  0
  178.0970   22.5930   45.8420 H   0  0  0  0  0  0  0  0  0  0  0  0
  180.6625   19.0065   44.4306 H   0  0  0  0  0  0  0  0  0  0  0  0
  182.8220   19.4930   48.6570 H   0  0  0  0  0  0  0  0  0  0  0  0
  181.9433   21.1358   50.4534 H   0  0  0  0  0  0  0  0  0  0  0  0
  179.7554   22.2641   49.4035 H   0  0  0  0  0  0  0  0  0  0  0  0
  176.0767   20.2150   46.9042 H   0  0  0  0  0  0  0  0  0  0  0  0
  174.2472   20.4452   48.5781 H   0  0  0  0  0  0  0  0  0  0  0  0
  1  2  1  0
  2  3  2  0
  3  4  1  0
  4  5  2  0
  5  6  1  0
  6  7  2  0
  7  8  1  0
  8  9  1  0
  9 10  2  0
 10 11  1  0
 11 12  2  0
 12 13  1  0
 13 14  1  0
 14 15  2  0
 15 16  1  0
 16 17  2  0
 17 18  1  0
 18 19  1  0
 19 20  1  0
 20 21  2  0
 21 22  1  0
 12 23  1  0
 23 24  2  0
  7  2  1  0
 24  9  1  0
 22 14  1  0
 22 18  2  0
  3 25  1  0
  4 26  1  0
  5 27  1  0
  6 28  1  0
 10 29  1  0
 11 30  1  0
 13 31  1  0
 16 32  1  0
 19 33  1  0
 20 34  1  0
 21 35  1  0
 23 36  1  0
 24 37  1  0
M  END
>  <meeko>  (9) 
{"is_sidechain": [false], "free_energy": -7.428, "intermolecular_energy": -8.528, "internal_energy": -0.96}

$$$$
