clorgyline_out
     RDKit          3D

 33 33  0  0  0  0  0  0  0  0999 V2000
  175.7190   18.1270   46.4660 C   0  0  0  0  0  0  0  0  0  0  0  0
  176.2540   19.1600   46.7660 C   0  0  0  0  0  0  0  0  0  0  0  0
  176.9080   20.4250   47.1390 C   0  0  0  0  0  0  0  0  0  0  0  0
  178.3820   20.3820   47.1370 N   0  0  2  0  0  0  0  0  0  0  0  0
  178.9560   21.7130   46.9380 C   0  0  0  0  0  0  0  0  0  0  0  0
  178.8980   19.3940   46.1740 C   0  0  0  0  0  0  0  0  0  0  0  0
  180.4090   19.1650   46.3260 C   0  0  0  0  0  0  0  0  0  0  0  0
  181.0380   18.6590   45.0280 C   0  0  0  0  0  0  0  0  0  0  0  0
  180.8410   17.2490   44.9410 O   0  0  0  0  0  0  0  0  0  0  0  0
  180.8650   16.6700   43.7010 C   0  0  0  0  0  0  0  0  0  0  0  0
  180.9460   17.3770   42.4970 C   0  0  0  0  0  0  0  0  0  0  0  0
  180.9610   16.6940   41.2760 C   0  0  0  0  0  0  0  0  0  0  0  0
  180.8910   15.3020   41.2530 C   0  0  0  0  0  0  0  0  0  0  0  0
  180.9090   14.4720   39.7470 Cl  0  0  0  0  0  0  0  0  0  0  0  0
  180.8080   14.5820   42.4390 C   0  0  0  0  0  0  0  0  0  0  0  0
  180.7930   15.2650   43.6570 C   0  0  0  0  0  0  0  0  0  0  0  0
  180.6920   14.3270   45.1090 Cl  0  0  0  0  0  0  0  0  0  0  0  0
  175.2291   17.1812   46.1913 H   0  0  0  0  0  0  0  0  0  0  0  0
  176.5871   21.1994   46.4267 H   0  0  0  0  0  0  0  0  0  0  0  0
  176.6053   20.6369   48.1751 H   0  0  0  0  0  0  0  0  0  0  0  0
  178.6830   20.0660   48.0610 H   0  0  0  0  0  0  0  0  0  0  0  0
  179.1557   22.1761   47.9156 H   0  0  0  0  0  0  0  0  0  0  0  0
  179.8966   21.6261   46.3744 H   0  0  0  0  0  0  0  0  0  0  0  0
  178.2472   22.3375   46.3744 H   0  0  0  0  0  0  0  0  0  0  0  0
  178.3776   18.4383   46.3347 H   0  0  0  0  0  0  0  0  0  0  0  0
  178.7173   19.7849   45.1618 H   0  0  0  0  0  0  0  0  0  0  0  0
  180.8870   20.1151   46.6070 H   0  0  0  0  0  0  0  0  0  0  0  0
  180.5635   18.4011   47.1022 H   0  0  0  0  0  0  0  0  0  0  0  0
  180.5605   19.1527   44.1688 H   0  0  0  0  0  0  0  0  0  0  0  0
  182.1140   18.8873   45.0203 H   0  0  0  0  0  0  0  0  0  0  0  0
  180.9982   18.4757   42.5101 H   0  0  0  0  0  0  0  0  0  0  0  0
  181.0281   17.2562   40.3329 H   0  0  0  0  0  0  0  0  0  0  0  0
  180.7546   13.4835   42.4184 H   0  0  0  0  0  0  0  0  0  0  0  0
  1  2  3  0
  2  3  1  0
  3  4  1  0
  4  5  1  0
  4  6  1  0
  6  7  1  0
  7  8  1  0
  8  9  1  0
  9 10  1  0
 10 11  2  0
 11 12  1  0
 12 13  2  0
 13 14  1  0
 13 15  1  0
 15 16  2  0
 16 17  1  0
 16 10  1  0
  1 18  1  0
  3 19  1  0
  3 20  1  0
  4 21  1  1
  5 22  1  0
  5 23  1  0
  5 24  1  0
  6 25  1  0
  6 26  1  0
  7 27  1  0
  7 28  1  0
  8 29  1  0
  8 30  1  0
 11 31  1  0
 12 32  1  0
 15 33  1  0
M  CHG  1   4   1
M  END
>  <meeko>  (1) 
{"is_sidechain": [false], "free_energy": -6.404, "intermolecular_energy": -8.65, "internal_energy": -0.322}

$$$$
clorgyline_out
     RDKit          3D

 33 33  0  0  0  0  0  0  0  0999 V2000
  175.7650   22.3710   48.6280 C   0  0  0  0  0  0  0  0  0  0  0  0
  176.8010   22.0080   48.1420 C   0  0  0  0  0  0  0  0  0  0  0  0
  178.0730   21.5600   47.5500 C   0  0  0  0  0  0  0  0  0  0  0  0
  177.9330   20.7720   46.3110 N   0  0  2  0  0  0  0  0  0  0  0  0
  177.0550   19.6180   46.5090 C   0  0  0  0  0  0  0  0  0  0  0  0
  179.2430   20.3970   45.7510 C   0  0  0  0  0  0  0  0  0  0  0  0
  179.5300   18.8950   45.8940 C   0  0  0  0  0  0  0  0  0  0  0  0
  180.8040   18.4900   45.1530 C   0  0  0  0  0  0  0  0  0  0  0  0
  180.8220   17.0710   45.0130 O   0  0  0  0  0  0  0  0  0  0  0  0
  180.8470   16.5490   43.7470 C   0  0  0  0  0  0  0  0  0  0  0  0
  180.9700   17.3080   42.5790 C   0  0  0  0  0  0  0  0  0  0  0  0
  180.9820   16.6810   41.3270 C   0  0  0  0  0  0  0  0  0  0  0  0
  180.8660   15.2960   41.2390 C   0  0  0  0  0  0  0  0  0  0  0  0
  180.8800   14.5350   39.6960 Cl  0  0  0  0  0  0  0  0  0  0  0  0
  180.7400   14.5250   42.3890 C   0  0  0  0  0  0  0  0  0  0  0  0
  180.7290   15.1510   43.6370 C   0  0  0  0  0  0  0  0  0  0  0  0
  180.5730   14.1510   45.0420 Cl  0  0  0  0  0  0  0  0  0  0  0  0
  174.8157   22.7036   49.0733 H   0  0  0  0  0  0  0  0  0  0  0  0
  178.6777   22.4505   47.3231 H   0  0  0  0  0  0  0  0  0  0  0  0
  178.5424   20.8948   48.2897 H   0  0  0  0  0  0  0  0  0  0  0  0
  177.4830   21.3680   45.6150 H   0  0  0  0  0  0  0  0  0  0  0  0
  176.9200   19.4405   47.5862 H   0  0  0  0  0  0  0  0  0  0  0  0
  176.0778   19.8169   46.0448 H   0  0  0  0  0  0  0  0  0  0  0  0
  177.5073   18.7292   46.0448 H   0  0  0  0  0  0  0  0  0  0  0  0
  179.2595   20.6601   44.6831 H   0  0  0  0  0  0  0  0  0  0  0  0
  180.0169   20.9422   46.3113 H   0  0  0  0  0  0  0  0  0  0  0  0
  179.6464   18.6543   46.9610 H   0  0  0  0  0  0  0  0  0  0  0  0
  178.6870   18.3414   45.4547 H   0  0  0  0  0  0  0  0  0  0  0  0
  180.8187   18.9600   44.1586 H   0  0  0  0  0  0  0  0  0  0  0  0
  181.6872   18.8213   45.7189 H   0  0  0  0  0  0  0  0  0  0  0  0
  181.0577   18.4026   42.6440 H   0  0  0  0  0  0  0  0  0  0  0  0
  181.0832   17.2831   40.4120 H   0  0  0  0  0  0  0  0  0  0  0  0
  180.6498   13.4311   42.3163 H   0  0  0  0  0  0  0  0  0  0  0  0
  1  2  3  0
  2  3  1  0
  3  4  1  0
  4  5  1  0
  4  6  1  0
  6  7  1  0
  7  8  1  0
  8  9  1  0
  9 10  1  0
 10 11  2  0
 11 12  1  0
 12 13  2  0
 13 14  1  0
 13 15  1  0
 15 16  2  0
 16 17  1  0
 16 10  1  0
  1 18  1  0
  3 19  1  0
  3 20  1  0
  4 21  1  6
  5 22  1  0
  5 23  1  0
  5 24  1  0
  6 25  1  0
  6 26  1  0
  7 27  1  0
  7 28  1  0
  8 29  1  0
  8 30  1  0
 11 31  1  0
 12 32  1  0
 15 33  1  0
M  CHG  1   4   1
M  END
>  <meeko>  (2) 
{"is_sidechain": [false], "free_energy": -6.32, "intermolecular_energy": -8.512, "internal_energy": -0.347}

$$$$
clorgyline_out
     RDKit          3D

 33 33  0  0  0  0  0  0  0  0999 V2000
  178.7070   21.9120   51.0520 C   0  0  0  0  0  0  0  0  0  0  0  0
  177.6400   21.4680   50.7230 C   0  0  0  0  0  0  0  0  0  0  0  0
  176.3310   20.9250   50.3240 C   0  0  0  0  0  0  0  0  0  0  0  0
  175.5520   21.7930   49.4230 N   0  0  2  0  0  0  0  0  0  0  0  0
  174.6730   22.6910   50.1730 C   0  0  0  0  0  0  0  0  0  0  0  0
  174.8260   21.0130   48.4050 C   0  0  0  0  0  0  0  0  0  0  0  0
  175.5340   19.6920   48.0680 C   0  0  0  0  0  0  0  0  0  0  0  0
  176.3000   19.7830   46.7490 C   0  0  0  0  0  0  0  0  0  0  0  0
  176.9400   21.0560   46.6760 O   0  0  0  0  0  0  0  0  0  0  0  0
  178.2820   21.1190   46.9400 C   0  0  0  0  0  0  0  0  0  0  0  0
  179.1560   20.0310   46.8670 C   0  0  0  0  0  0  0  0  0  0  0  0
  180.5150   20.1950   47.1610 C   0  0  0  0  0  0  0  0  0  0  0  0
  181.0020   21.4460   47.5330 C   0  0  0  0  0  0  0  0  0  0  0  0
  182.6730   21.6370   47.8940 Cl  0  0  0  0  0  0  0  0  0  0  0  0
  180.1480   22.5390   47.6150 C   0  0  0  0  0  0  0  0  0  0  0  0
  178.7920   22.3740   47.3210 C   0  0  0  0  0  0  0  0  0  0  0  0
  177.7660   23.7640   47.4330 Cl  0  0  0  0  0  0  0  0  0  0  0  0
  179.6838   22.3185   51.3532 H   0  0  0  0  0  0  0  0  0  0  0  0
  176.4995   19.9651   49.8138 H   0  0  0  0  0  0  0  0  0  0  0  0
  175.7411   20.8272   51.2473 H   0  0  0  0  0  0  0  0  0  0  0  0
  176.2120   22.3830   48.9150 H   0  0  0  0  0  0  0  0  0  0  0  0
  174.8246   22.5362   51.2515 H   0  0  0  0  0  0  0  0  0  0  0  0
  174.9087   23.7342   49.9157 H   0  0  0  0  0  0  0  0  0  0  0  0
  173.6250   22.4777   49.9157 H   0  0  0  0  0  0  0  0  0  0  0  0
  173.8184   20.7875   48.7843 H   0  0  0  0  0  0  0  0  0  0  0  0
  174.7838   21.6161   47.4860 H   0  0  0  0  0  0  0  0  0  0  0  0
  176.2411   19.4503   48.8752 H   0  0  0  0  0  0  0  0  0  0  0  0
  174.7687   18.9083   47.9672 H   0  0  0  0  0  0  0  0  0  0  0  0
  177.0566   18.9857   46.7051 H   0  0  0  0  0  0  0  0  0  0  0  0
  175.6053   19.6649   45.9044 H   0  0  0  0  0  0  0  0  0  0  0  0
  178.7744   19.0409   46.5771 H   0  0  0  0  0  0  0  0  0  0  0  0
  181.1986   19.3355   47.0982 H   0  0  0  0  0  0  0  0  0  0  0  0
  180.5360   23.5255   47.9088 H   0  0  0  0  0  0  0  0  0  0  0  0
  1  2  3  0
  2  3  1  0
  3  4  1  0
  4  5  1  0
  4  6  1  0
  6  7  1  0
  7  8  1  0
  8  9  1  0
  9 10  1  0
 10 11  2  0
 11 12  1  0
 12 13  2  0
 13 14  1  0
 13 15  1  0
 15 16  2  0
 16 17  1  0
 16 10  1  0
  1 18  1  0
  3 19  1  0
  3 20  1  0
  4 21  1  6
  5 22  1  0
  5 23  1  0
  5 24  1  0
  6 25  1  0
  6 26  1  0
  7 27  1  0
  7 28  1  0
  8 29  1  0
  8 30  1  0
 11 31  1  0
 12 32  1  0
 15 33  1  0
M  CHG  1   4   1
M  END
>  <meeko>  (3) 
{"is_sidechain": [false], "free_energy": -6.083, "intermolecular_energy": -7.121, "internal_energy": -1.418}

$$$$
clorgyline_out
     RDKit          3D

 33 33  0  0  0  0  0  0  0  0999 V2000
  172.3620   23.6120   49.1550 C   0  0  0  0  0  0  0  0  0  0  0  0
  173.4120   23.2390   49.6030 C   0  0  0  0  0  0  0  0  0  0  0  0
  174.6980   22.7830   50.1570 C   0  0  0  0  0  0  0  0  0  0  0  0
  174.9580   21.3400   50.0060 N   0  0  2  0  0  0  0  0  0  0  0  0
  176.2830   20.9800   50.5140 C   0  0  0  0  0  0  0  0  0  0  0  0
  174.7430   20.8880   48.6200 C   0  0  0  0  0  0  0  0  0  0  0  0
  175.5020   19.5920   48.3040 C   0  0  0  0  0  0  0  0  0  0  0  0
  176.0430   19.5880   46.8740 C   0  0  0  0  0  0  0  0  0  0  0  0
  176.5850   20.8740   46.5850 O   0  0  0  0  0  0  0  0  0  0  0  0
  177.9350   21.0530   46.7290 C   0  0  0  0  0  0  0  0  0  0  0  0
  178.9010   20.1040   46.3800 C   0  0  0  0  0  0  0  0  0  0  0  0
  180.2610   20.3770   46.5690 C   0  0  0  0  0  0  0  0  0  0  0  0
  180.6580   21.5980   47.1110 C   0  0  0  0  0  0  0  0  0  0  0  0
  182.3320   21.9240   47.3410 Cl  0  0  0  0  0  0  0  0  0  0  0  0
  179.7120   22.5520   47.4670 C   0  0  0  0  0  0  0  0  0  0  0  0
  178.3560   22.2780   47.2770 C   0  0  0  0  0  0  0  0  0  0  0  0
  177.2140   23.4970   47.7320 Cl  0  0  0  0  0  0  0  0  0  0  0  0
  171.4003   23.9536   48.7447 H   0  0  0  0  0  0  0  0  0  0  0  0
  175.5040   23.3313   49.6474 H   0  0  0  0  0  0  0  0  0  0  0  0
  174.6568   22.9792   51.2386 H   0  0  0  0  0  0  0  0  0  0  0  0
  174.2770   20.8410   50.5800 H   0  0  0  0  0  0  0  0  0  0  0  0
  176.2676   20.9842   51.6139 H   0  0  0  0  0  0  0  0  0  0  0  0
  176.5530   19.9759   50.1549 H   0  0  0  0  0  0  0  0  0  0  0  0
  177.0240   21.7094   50.1549 H   0  0  0  0  0  0  0  0  0  0  0  0
  173.6676   20.7139   48.4678 H   0  0  0  0  0  0  0  0  0  0  0  0
  175.1228   21.6720   47.9483 H   0  0  0  0  0  0  0  0  0  0  0  0
  176.3445   19.4925   49.0042 H   0  0  0  0  0  0  0  0  0  0  0  0
  174.8015   18.7503   48.4080 H   0  0  0  0  0  0  0  0  0  0  0  0
  176.8297   18.8251   46.7784 H   0  0  0  0  0  0  0  0  0  0  0  0
  175.2319   19.3567   46.1679 H   0  0  0  0  0  0  0  0  0  0  0  0
  178.5907   19.1381   45.9548 H   0  0  0  0  0  0  0  0  0  0  0  0
  181.0163   19.6277   46.2897 H   0  0  0  0  0  0  0  0  0  0  0  0
  180.0288   23.5146   47.8948 H   0  0  0  0  0  0  0  0  0  0  0  0
  1  2  3  0
  2  3  1  0
  3  4  1  0
  4  5  1  0
  4  6  1  0
  6  7  1  0
  7  8  1  0
  8  9  1  0
  9 10  1  0
 10 11  2  0
 11 12  1  0
 12 13  2  0
 13 14  1  0
 13 15  1  0
 15 16  2  0
 16 17  1  0
 16 10  1  0
  1 18  1  0
  3 19  1  0
  3 20  1  0
  4 21  1  1
  5 22  1  0
  5 23  1  0
  5 24  1  0
  6 25  1  0
  6 26  1  0
  7 27  1  0
  7 28  1  0
  8 29  1  0
  8 30  1  0
 11 31  1  0
 12 32  1  0
 15 33  1  0
M  CHG  1   4   1
M  END
>  <meeko>  (4) 
{"is_sidechain": [false], "free_energy": -5.915, "intermolecular_energy": -7.537, "internal_energy": -0.776}

$$$$
clorgyline_out
     RDKit          3D

 33 33  0  0  0  0  0  0  0  0999 V2000
  179.7560   13.6360   45.0890 C   0  0  0  0  0  0  0  0  0  0  0  0
  180.4920   14.3350   44.4480 C   0  0  0  0  0  0  0  0  0  0  0  0
  181.3940   15.1900   43.6580 C   0  0  0  0  0  0  0  0  0  0  0  0
  180.7760   16.4210   43.1330 N   0  0  2  0  0  0  0  0  0  0  0  0
  181.0260   16.5760   41.7000 C   0  0  0  0  0  0  0  0  0  0  0  0
  181.1780   17.6080   43.9090 C   0  0  0  0  0  0  0  0  0  0  0  0
  180.2950   17.8230   45.1470 C   0  0  0  0  0  0  0  0  0  0  0  0
  180.5230   19.1990   45.7710 C   0  0  0  0  0  0  0  0  0  0  0  0
  179.4020   20.0290   45.4750 O   0  0  0  0  0  0  0  0  0  0  0  0
  178.4070   20.1280   46.4110 C   0  0  0  0  0  0  0  0  0  0  0  0
  177.2990   19.2770   46.4820 C   0  0  0  0  0  0  0  0  0  0  0  0
  176.3300   19.4610   47.4750 C   0  0  0  0  0  0  0  0  0  0  0  0
  176.4630   20.4980   48.3960 C   0  0  0  0  0  0  0  0  0  0  0  0
  175.2650   20.7160   49.6120 Cl  0  0  0  0  0  0  0  0  0  0  0  0
  177.5560   21.3550   48.3400 C   0  0  0  0  0  0  0  0  0  0  0  0
  178.5220   21.1700   47.3480 C   0  0  0  0  0  0  0  0  0  0  0  0
  179.8670   22.2600   47.3180 Cl  0  0  0  0  0  0  0  0  0  0  0  0
  179.0816   12.9955   45.6763 H   0  0  0  0  0  0  0  0  0  0  0  0
  182.2405   15.4783   44.2985 H   0  0  0  0  0  0  0  0  0  0  0  0
  181.6951   14.5966   42.7821 H   0  0  0  0  0  0  0  0  0  0  0  0
  179.7650   16.3330   43.2480 H   0  0  0  0  0  0  0  0  0  0  0  0
  181.9521   17.1502   41.5494 H   0  0  0  0  0  0  0  0  0  0  0  0
  181.1302   15.5839   41.2366 H   0  0  0  0  0  0  0  0  0  0  0  0
  180.1837   17.1105   41.2366 H   0  0  0  0  0  0  0  0  0  0  0  0
  182.2204   17.4801   44.2362 H   0  0  0  0  0  0  0  0  0  0  0  0
  181.0654   18.4883   43.2590 H   0  0  0  0  0  0  0  0  0  0  0  0
  179.2391   17.7361   44.8513 H   0  0  0  0  0  0  0  0  0  0  0  0
  180.5591   17.0596   45.8936 H   0  0  0  0  0  0  0  0  0  0  0  0
  180.6303   19.0975   46.8610 H   0  0  0  0  0  0  0  0  0  0  0  0
  181.4395   19.6483   45.3608 H   0  0  0  0  0  0  0  0  0  0  0  0
  177.1888   18.4596   45.7542 H   0  0  0  0  0  0  0  0  0  0  0  0
  175.4628   18.7864   47.5284 H   0  0  0  0  0  0  0  0  0  0  0  0
  177.6593   22.1713   49.0701 H   0  0  0  0  0  0  0  0  0  0  0  0
  1  2  3  0
  2  3  1  0
  3  4  1  0
  4  5  1  0
  4  6  1  0
  6  7  1  0
  7  8  1  0
  8  9  1  0
  9 10  1  0
 10 11  2  0
 11 12  1  0
 12 13  2  0
 13 14  1  0
 13 15  1  0
 15 16  2  0
 16 17  1  0
 16 10  1  0
  1 18  1  0
  3 19  1  0
  3 20  1  0
  4 21  1  6
  5 22  1  0
  5 23  1  0
  5 24  1  0
  6 25  1  0
  6 26  1  0
  7 27  1  0
  7 28  1  0
  8 29  1  0
  8 30  1  0
 11 31  1  0
 12 32  1  0
 15 33  1  0
M  CHG  1   4   1
M  END
>  <meeko>  (5) 
{"is_sidechain": [false], "free_energy": -5.915, "intermolecular_energy": -7.968, "internal_energy": -0.344}

$$$$
clorgyline_out
     RDKit          3D

 33 33  0  0  0  0  0  0  0  0999 V2000
  179.8660   22.1770   50.8020 C   0  0  0  0  0  0  0  0  0  0  0  0
  178.7110   21.8880   50.9580 C   0  0  0  0  0  0  0  0  0  0  0  0
  177.2950   21.5330   51.1530 C   0  0  0  0  0  0  0  0  0  0  0  0
  176.3350   22.5700   50.7340 N   0  0  2  0  0  0  0  0  0  0  0  0
  176.0600   23.5130   51.8190 C   0  0  0  0  0  0  0  0  0  0  0  0
  175.1070   21.9830   50.1700 C   0  0  0  0  0  0  0  0  0  0  0  0
  175.3210   20.5450   49.6770 C   0  0  0  0  0  0  0  0  0  0  0  0
  175.2090   20.4460   48.1560 C   0  0  0  0  0  0  0  0  0  0  0  0
  176.0370   21.4480   47.5690 O   0  0  0  0  0  0  0  0  0  0  0  0
  177.3290   21.1170   47.2590 C   0  0  0  0  0  0  0  0  0  0  0  0
  177.7550   19.8320   46.9060 C   0  0  0  0  0  0  0  0  0  0  0  0
  179.1010   19.5910   46.6090 C   0  0  0  0  0  0  0  0  0  0  0  0
  180.0260   20.6310   46.6690 C   0  0  0  0  0  0  0  0  0  0  0  0
  181.6790   20.3240   46.3040 Cl  0  0  0  0  0  0  0  0  0  0  0  0
  179.6230   21.9140   47.0200 C   0  0  0  0  0  0  0  0  0  0  0  0
  178.2790   22.1530   47.3160 C   0  0  0  0  0  0  0  0  0  0  0  0
  177.8210   23.7660   47.7460 Cl  0  0  0  0  0  0  0  0  0  0  0  0
  180.9241   22.4417   50.6591 H   0  0  0  0  0  0  0  0  0  0  0  0
  177.0879   20.6209   50.5741 H   0  0  0  0  0  0  0  0  0  0  0  0
  177.1550   21.4005   52.2360 H   0  0  0  0  0  0  0  0  0  0  0  0
  176.7690   23.1060   49.9810 H   0  0  0  0  0  0  0  0  0  0  0  0
  176.2063   23.0112   52.7869 H   0  0  0  0  0  0  0  0  0  0  0  0
  176.7457   24.3697   51.7428 H   0  0  0  0  0  0  0  0  0  0  0  0
  175.0212   23.8668   51.7428 H   0  0  0  0  0  0  0  0  0  0  0  0
  174.3282   21.9783   50.9468 H   0  0  0  0  0  0  0  0  0  0  0  0
  174.8087   22.5940   49.3053 H   0  0  0  0  0  0  0  0  0  0  0  0
  176.3225   20.2085   49.9833 H   0  0  0  0  0  0  0  0  0  0  0  0
  174.5392   19.9108   50.1203 H   0  0  0  0  0  0  0  0  0  0  0  0
  175.5410   19.4510   47.8246 H   0  0  0  0  0  0  0  0  0  0  0  0
  174.1640   20.5960   47.8472 H   0  0  0  0  0  0  0  0  0  0  0  0
  177.0285   19.0073   46.8617 H   0  0  0  0  0  0  0  0  0  0  0  0
  179.4291   18.5794   46.3279 H   0  0  0  0  0  0  0  0  0  0  0  0
  180.3555   22.7334   47.0643 H   0  0  0  0  0  0  0  0  0  0  0  0
  1  2  3  0
  2  3  1  0
  3  4  1  0
  4  5  1  0
  4  6  1  0
  6  7  1  0
  7  8  1  0
  8  9  1  0
  9 10  1  0
 10 11  2  0
 11 12  1  0
 12 13  2  0
 13 14  1  0
 13 15  1  0
 15 16  2  0
 16 17  1  0
 16 10  1  0
  1 18  1  0
  3 19  1  0
  3 20  1  0
  4 21  1  6
  5 22  1  0
  5 23  1  0
  5 24  1  0
  6 25  1  0
  6 26  1  0
  7 27  1  0
  7 28  1  0
  8 29  1  0
  8 30  1  0
 11 31  1  0
 12 32  1  0
 15 33  1  0
M  CHG  1   4   1
M  END
>  <meeko>  (6) 
{"is_sidechain": [false], "free_energy": -5.901, "intermolecular_energy": -6.998, "internal_energy": -1.295}

$$$$
clorgyline_out
     RDKit          3D

 33 33  0  0  0  0  0  0  0  0999 V2000
  177.2040   21.3150   51.4680 C   0  0  0  0  0  0  0  0  0  0  0  0
  178.3110   21.7070   51.2130 C   0  0  0  0  0  0  0  0  0  0  0  0
  179.6690   22.1850   50.9010 C   0  0  0  0  0  0  0  0  0  0  0  0
  180.0020   22.2040   49.4650 N   0  0  2  0  0  0  0  0  0  0  0  0
  180.9300   21.1270   49.1180 C   0  0  0  0  0  0  0  0  0  0  0  0
  180.4850   23.5270   49.0340 C   0  0  0  0  0  0  0  0  0  0  0  0
  179.3460   24.4330   48.5430 C   0  0  0  0  0  0  0  0  0  0  0  0
  178.5110   23.7540   47.4590 C   0  0  0  0  0  0  0  0  0  0  0  0
  177.3430   23.1990   48.0580 O   0  0  0  0  0  0  0  0  0  0  0  0
  176.9670   21.9340   47.6910 C   0  0  0  0  0  0  0  0  0  0  0  0
  177.7510   21.0670   46.9230 C   0  0  0  0  0  0  0  0  0  0  0  0
  177.2770   19.7920   46.5940 C   0  0  0  0  0  0  0  0  0  0  0  0
  176.0180   19.3810   47.0260 C   0  0  0  0  0  0  0  0  0  0  0  0
  175.4440   17.8130   46.6150 Cl  0  0  0  0  0  0  0  0  0  0  0  0
  175.2230   20.2310   47.7880 C   0  0  0  0  0  0  0  0  0  0  0  0
  175.6970   21.5030   48.1160 C   0  0  0  0  0  0  0  0  0  0  0  0
  174.6750   22.5260   49.0670 Cl  0  0  0  0  0  0  0  0  0  0  0  0
  176.1907   20.9562   51.7014 H   0  0  0  0  0  0  0  0  0  0  0  0
  179.7691   23.2093   51.2893 H   0  0  0  0  0  0  0  0  0  0  0  0
  180.3638   21.4735   51.3710 H   0  0  0  0  0  0  0  0  0  0  0  0
  179.1410   22.0290   48.9460 H   0  0  0  0  0  0  0  0  0  0  0  0
  181.3230   20.6709   50.0386 H   0  0  0  0  0  0  0  0  0  0  0  0
  180.4018   20.3640   48.5273 H   0  0  0  0  0  0  0  0  0  0  0  0
  181.7627   21.5366   48.5273 H   0  0  0  0  0  0  0  0  0  0  0  0
  180.9838   24.0154   49.8841 H   0  0  0  0  0  0  0  0  0  0  0  0
  181.1787   23.3743   48.1941 H   0  0  0  0  0  0  0  0  0  0  0  0
  178.6937   24.6784   49.3940 H   0  0  0  0  0  0  0  0  0  0  0  0
  179.7920   25.3420   48.1131 H   0  0  0  0  0  0  0  0  0  0  0  0
  178.2204   24.4939   46.6987 H   0  0  0  0  0  0  0  0  0  0  0  0
  179.0987   22.9577   46.9789 H   0  0  0  0  0  0  0  0  0  0  0  0
  178.7441   21.3886   46.5762 H   0  0  0  0  0  0  0  0  0  0  0  0
  177.8998   19.1130   45.9931 H   0  0  0  0  0  0  0  0  0  0  0  0
  174.2297   19.9041   48.1292 H   0  0  0  0  0  0  0  0  0  0  0  0
  1  2  3  0
  2  3  1  0
  3  4  1  0
  4  5  1  0
  4  6  1  0
  6  7  1  0
  7  8  1  0
  8  9  1  0
  9 10  1  0
 10 11  2  0
 11 12  1  0
 12 13  2  0
 13 14  1  0
 13 15  1  0
 15 16  2  0
 16 17  1  0
 16 10  1  0
  1 18  1  0
  3 19  1  0
  3 20  1  0
  4 21  1  6
  5 22  1  0
  5 23  1  0
  5 24  1  0
  6 25  1  0
  6 26  1  0
  7 27  1  0
  7 28  1  0
  8 29  1  0
  8 30  1  0
 11 31  1  0
 12 32  1  0
 15 33  1  0
M  CHG  1   4   1
M  END
>  <meeko>  (7) 
{"is_sidechain": [false], "free_energy": -5.825, "intermolecular_energy": -6.925, "internal_energy": -1.266}

$$$$
clorgyline_out
     RDKit          3D

 33 33  0  0  0  0  0  0  0  0999 V2000
  180.0260   20.2260   46.9400 C   0  0  0  0  0  0  0  0  0  0  0  0
  180.3490   20.7840   47.9530 C   0  0  0  0  0  0  0  0  0  0  0  0
  180.7480   21.4710   49.1940 C   0  0  0  0  0  0  0  0  0  0  0  0
  179.9960   22.7050   49.4860 N   0  0  2  0  0  0  0  0  0  0  0  0
  180.6510   23.8780   48.9060 C   0  0  0  0  0  0  0  0  0  0  0  0
  179.7350   22.8580   50.9270 C   0  0  0  0  0  0  0  0  0  0  0  0
  178.7500   21.8060   51.4570 C   0  0  0  0  0  0  0  0  0  0  0  0
  177.3200   22.3440   51.5030 C   0  0  0  0  0  0  0  0  0  0  0  0
  176.8890   22.6190   50.1720 O   0  0  0  0  0  0  0  0  0  0  0  0
  176.5170   21.5630   49.3840 C   0  0  0  0  0  0  0  0  0  0  0  0
  175.9750   20.3670   49.8650 C   0  0  0  0  0  0  0  0  0  0  0  0
  175.6290   19.3410   48.9780 C   0  0  0  0  0  0  0  0  0  0  0  0
  175.8280   19.5050   47.6090 C   0  0  0  0  0  0  0  0  0  0  0  0
  175.4010   18.2370   46.5280 Cl  0  0  0  0  0  0  0  0  0  0  0  0
  176.3680   20.6850   47.1120 C   0  0  0  0  0  0  0  0  0  0  0  0
  176.7130   21.7090   47.9980 C   0  0  0  0  0  0  0  0  0  0  0  0
  177.3800   23.1620   47.3340 Cl  0  0  0  0  0  0  0  0  0  0  0  0
  179.7301   19.7148   46.0120 H   0  0  0  0  0  0  0  0  0  0  0  0
  180.6021   20.7746   50.0329 H   0  0  0  0  0  0  0  0  0  0  0  0
  181.7972   21.7723   49.0579 H   0  0  0  0  0  0  0  0  0  0  0  0
  179.0840   22.6250   49.0360 H   0  0  0  0  0  0  0  0  0  0  0  0
  181.0155   24.5308   49.7128 H   0  0  0  0  0  0  0  0  0  0  0  0
  181.4991   23.5546   48.2846 H   0  0  0  0  0  0  0  0  0  0  0  0
  179.9307   24.4304   48.2846 H   0  0  0  0  0  0  0  0  0  0  0  0
  180.6858   22.7579   51.4711 H   0  0  0  0  0  0  0  0  0  0  0  0
  179.2843   23.8492   51.0834 H   0  0  0  0  0  0  0  0  0  0  0  0
  178.7789   20.9261   50.7975 H   0  0  0  0  0  0  0  0  0  0  0  0
  179.0499   21.5403   52.4814 H   0  0  0  0  0  0  0  0  0  0  0  0
  176.6572   21.5935   51.9585 H   0  0  0  0  0  0  0  0  0  0  0  0
  177.2864   23.2645   52.1042 H   0  0  0  0  0  0  0  0  0  0  0  0
  175.8199   20.2319   50.9456 H   0  0  0  0  0  0  0  0  0  0  0  0
  175.1994   18.4041   49.3624 H   0  0  0  0  0  0  0  0  0  0  0  0
  176.5225   20.8119   46.0303 H   0  0  0  0  0  0  0  0  0  0  0  0
  1  2  3  0
  2  3  1  0
  3  4  1  0
  4  5  1  0
  4  6  1  0
  6  7  1  0
  7  8  1  0
  8  9  1  0
  9 10  1  0
 10 11  2  0
 11 12  1  0
 12 13  2  0
 13 14  1  0
 13 15  1  0
 15 16  2  0
 16 17  1  0
 16 10  1  0
  1 18  1  0
  3 19  1  0
  3 20  1  0
  4 21  1  6
  5 22  1  0
  5 23  1  0
  5 24  1  0
  6 25  1  0
  6 26  1  0
  7 27  1  0
  7 28  1  0
  8 29  1  0
  8 30  1  0
 11 31  1  0
 12 32  1  0
 15 33  1  0
M  CHG  1   4   1
M  END
>  <meeko>  (8) 
{"is_sidechain": [false], "free_energy": -5.777, "intermolecular_energy": -6.895, "internal_energy": -1.231}

$$$$
clorgyline_out
     RDKit          3D

 33 33  0  0  0  0  0  0  0  0999 V2000
  175.7060   19.2050   48.1330 C   0  0  0  0  0  0  0  0  0  0  0  0
  175.7940   20.1510   48.8680 C   0  0  0  0  0  0  0  0  0  0  0  0
  175.9030   21.3080   49.7720 C   0  0  0  0  0  0  0  0  0  0  0  0
  177.2210   21.9680   49.7740 N   0  0  2  0  0  0  0  0  0  0  0  0
  177.8550   21.8910   51.0910 C   0  0  0  0  0  0  0  0  0  0  0  0
  177.1420   23.3490   49.2650 C   0  0  0  0  0  0  0  0  0  0  0  0
  177.4560   23.4360   47.7640 C   0  0  0  0  0  0  0  0  0  0  0  0
  178.9610   23.5010   47.5050 C   0  0  0  0  0  0  0  0  0  0  0  0
  179.5700   22.3300   48.0430 O   0  0  0  0  0  0  0  0  0  0  0  0
  179.8690   21.3060   47.1840 C   0  0  0  0  0  0  0  0  0  0  0  0
  178.9620   20.3220   46.7780 C   0  0  0  0  0  0  0  0  0  0  0  0
  179.3640   19.3110   45.8980 C   0  0  0  0  0  0  0  0  0  0  0  0
  180.6740   19.2770   45.4240 C   0  0  0  0  0  0  0  0  0  0  0  0
  181.1580   18.0290   44.3440 Cl  0  0  0  0  0  0  0  0  0  0  0  0
  181.5910   20.2450   45.8190 C   0  0  0  0  0  0  0  0  0  0  0  0
  181.1880   21.2530   46.6970 C   0  0  0  0  0  0  0  0  0  0  0  0
  182.3630   22.4390   47.1590 Cl  0  0  0  0  0  0  0  0  0  0  0  0
  175.6254   18.3387   47.4599 H   0  0  0  0  0  0  0  0  0  0  0  0
  175.1490   22.0501   49.4707 H   0  0  0  0  0  0  0  0  0  0  0  0
  175.7483   20.9215   50.7902 H   0  0  0  0  0  0  0  0  0  0  0  0
  177.8230   21.4580   49.1270 H   0  0  0  0  0  0  0  0  0  0  0  0
  177.0875   21.9842   51.8734 H   0  0  0  0  0  0  0  0  0  0  0  0
  178.3687   20.9239   51.1947 H   0  0  0  0  0  0  0  0  0  0  0  0
  178.5853   22.7071   51.1947 H   0  0  0  0  0  0  0  0  0  0  0  0
  176.1250   23.7315   49.4364 H   0  0  0  0  0  0  0  0  0  0  0  0
  177.8924   23.9486   49.8010 H   0  0  0  0  0  0  0  0  0  0  0  0
  177.0457   22.5475   47.2617 H   0  0  0  0  0  0  0  0  0  0  0  0
  176.9999   24.3565   47.3707 H   0  0  0  0  0  0  0  0  0  0  0  0
  179.1481   23.5510   46.4222 H   0  0  0  0  0  0  0  0  0  0  0  0
  179.3845   24.3964   47.9835 H   0  0  0  0  0  0  0  0  0  0  0  0
  177.9278   20.3428   47.1521 H   0  0  0  0  0  0  0  0  0  0  0  0
  178.6448   18.5419   45.5799 H   0  0  0  0  0  0  0  0  0  0  0  0
  182.6244   20.2168   45.4431 H   0  0  0  0  0  0  0  0  0  0  0  0
  1  2  3  0
  2  3  1  0
  3  4  1  0
  4  5  1  0
  4  6  1  0
  6  7  1  0
  7  8  1  0
  8  9  1  0
  9 10  1  0
 10 11  2  0
 11 12  1  0
 12 13  2  0
 13 14  1  0
 13 15  1  0
 15 16  2  0
 16 17  1  0
 16 10  1  0
  1 18  1  0
  3 19  1  0
  3 20  1  0
  4 21  1  6
  5 22  1  0
  5 23  1  0
  5 24  1  0
  6 25  1  0
  6 26  1  0
  7 27  1  0
  7 28  1  0
  8 29  1  0
  8 30  1  0
 11 31  1  0
 12 32  1  0
 15 33  1  0
M  CHG  1   4   1
M  END
>  <meeko>  (9) 
{"is_sidechain": [false], "free_energy": -5.742, "intermolecular_energy": -7.056, "internal_energy": -1.022}

$$$$
