harmine_out
     RDKit          3D

 28 30  0  0  0  0  0  0  0  0999 V2000
  182.8510   22.4370   47.3510 C   0  0  0  0  0  0  0  0  0  0  0  0
  182.6200   21.4350   46.3700 O   0  0  0  0  0  0  0  0  0  0  0  0
  181.3880   20.8370   46.3720 C   0  0  0  0  0  0  0  0  0  0  0  0
  181.0690   19.6240   45.7620 C   0  0  0  0  0  0  0  0  0  0  0  0
  179.7680   19.1050   45.8300 C   0  0  0  0  0  0  0  0  0  0  0  0
  178.7660   19.8160   46.5220 C   0  0  0  0  0  0  0  0  0  0  0  0
  179.1100   21.0240   47.1230 C   0  0  0  0  0  0  0  0  0  0  0  0
  180.4040   21.5550   47.0650 C   0  0  0  0  0  0  0  0  0  0  0  0
  177.9760   21.5130   47.7250 N   0  0  0  0  0  0  0  0  0  0  0  0
  176.9100   20.6630   47.5360 C   0  0  0  0  0  0  0  0  0  0  0  0
  175.5820   20.7620   47.9670 C   0  0  0  0  0  0  0  0  0  0  0  0
  175.0400   21.8980   48.7760 C   0  0  0  0  0  0  0  0  0  0  0  0
  174.7290   19.7580   47.6280 N   0  0  0  0  0  0  0  0  0  0  0  0
  175.1790   18.7140   46.8990 C   0  0  0  0  0  0  0  0  0  0  0  0
  176.4790   18.5660   46.4470 C   0  0  0  0  0  0  0  0  0  0  0  0
  177.3780   19.5870   46.7830 C   0  0  0  0  0  0  0  0  0  0  0  0
  182.7498   21.9979   48.3545 H   0  0  0  0  0  0  0  0  0  0  0  0
  183.8662   22.8425   47.2289 H   0  0  0  0  0  0  0  0  0  0  0  0
  182.1158   23.2461   47.2289 H   0  0  0  0  0  0  0  0  0  0  0  0
  181.8480   19.0672   45.2206 H   0  0  0  0  0  0  0  0  0  0  0  0
  179.5300   18.1467   45.3453 H   0  0  0  0  0  0  0  0  0  0  0  0
  180.6426   22.5123   47.5514 H   0  0  0  0  0  0  0  0  0  0  0  0
  177.9320   22.3590   48.2260 H   0  0  0  0  0  0  0  0  0  0  0  0
  175.1486   21.6703   49.8467 H   0  0  0  0  0  0  0  0  0  0  0  0
  175.5970   22.8162   48.5380 H   0  0  0  0  0  0  0  0  0  0  0  0
  173.9758   22.0427   48.5380 H   0  0  0  0  0  0  0  0  0  0  0  0
  174.4588   17.9222   46.6455 H   0  0  0  0  0  0  0  0  0  0  0  0
  176.7900   17.6926   45.8550 H   0  0  0  0  0  0  0  0  0  0  0  0
  1  2  1  0
  2  3  1  0
  3  4  2  0
  4  5  1  0
  5  6  2  0
  6  7  1  0
  7  8  2  0
  7  9  1  0
  9 10  1  0
 10 11  2  0
 11 12  1  0
 11 13  1  0
 13 14  2  0
 14 15  1  0
 15 16  2  0
  8  3  1  0
 16 10  1  0
 16  6  1  0
  1 17  1  0
  1 18  1  0
  1 19  1  0
  4 20  1  0
  5 21  1  0
  8 22  1  0
  9 23  1  0
 12 24  1  0
 12 25  1  0
 12 26  1  0
 14 27  1  0
 15 28  1  0
M  END
>  <meeko>  (1) 
{"is_sidechain": [false], "free_energy": -6.665, "intermolecular_energy": -7.055, "internal_energy": -0.06}

$$$$
harmine_out
     RDKit          3D

 28 30  0  0  0  0  0  0  0  0999 V2000
  181.1970   17.0410   43.4520 C   0  0  0  0  0  0  0  0  0  0  0  0
  180.8030   17.0940   44.8170 O   0  0  0  0  0  0  0  0  0  0  0  0
  180.4480   18.3210   45.3130 C   0  0  0  0  0  0  0  0  0  0  0  0
  181.2540   19.4580   45.3290 C   0  0  0  0  0  0  0  0  0  0  0  0
  180.7830   20.6660   45.8650 C   0  0  0  0  0  0  0  0  0  0  0  0
  179.4790   20.7340   46.3960 C   0  0  0  0  0  0  0  0  0  0  0  0
  178.6940   19.5840   46.3680 C   0  0  0  0  0  0  0  0  0  0  0  0
  179.1480   18.3720   45.8360 C   0  0  0  0  0  0  0  0  0  0  0  0
  177.4840   19.9070   46.9360 N   0  0  0  0  0  0  0  0  0  0  0  0
  177.4590   21.2250   47.3290 C   0  0  0  0  0  0  0  0  0  0  0  0
  176.4460   21.9700   47.9440 C   0  0  0  0  0  0  0  0  0  0  0  0
  175.1020   21.4240   48.3110 C   0  0  0  0  0  0  0  0  0  0  0  0
  176.7010   23.2760   48.2250 N   0  0  0  0  0  0  0  0  0  0  0  0
  177.9020   23.8080   47.9090 C   0  0  0  0  0  0  0  0  0  0  0  0
  178.9370   23.1180   47.3030 C   0  0  0  0  0  0  0  0  0  0  0  0
  178.7000   21.7700   47.0020 C   0  0  0  0  0  0  0  0  0  0  0  0
  182.2855   16.8946   43.3900 H   0  0  0  0  0  0  0  0  0  0  0  0
  180.6855   16.2036   42.9550 H   0  0  0  0  0  0  0  0  0  0  0  0
  180.9249   17.9838   42.9550 H   0  0  0  0  0  0  0  0  0  0  0  0
  182.2723   19.4076   44.9161 H   0  0  0  0  0  0  0  0  0  0  0  0
  181.4287   21.5565   45.8709 H   0  0  0  0  0  0  0  0  0  0  0  0
  178.5016   17.4820   45.8283 H   0  0  0  0  0  0  0  0  0  0  0  0
  176.7360   19.2780   47.0460 H   0  0  0  0  0  0  0  0  0  0  0  0
  175.0083   21.3859   49.4063 H   0  0  0  0  0  0  0  0  0  0  0  0
  174.3168   22.0744   47.8982 H   0  0  0  0  0  0  0  0  0  0  0  0
  174.9929   20.4102   47.8982 H   0  0  0  0  0  0  0  0  0  0  0  0
  178.0694   24.8678   48.1513 H   0  0  0  0  0  0  0  0  0  0  0  0
  179.8965   23.6026   47.0695 H   0  0  0  0  0  0  0  0  0  0  0  0
  1  2  1  0
  2  3  1  0
  3  4  2  0
  4  5  1  0
  5  6  2  0
  6  7  1  0
  7  8  2  0
  7  9  1  0
  9 10  1  0
 10 11  2  0
 11 12  1  0
 11 13  1  0
 13 14  2  0
 14 15  1  0
 15 16  2  0
  8  3  1  0
 16 10  1  0
 16  6  1  0
  1 17  1  0
  1 18  1  0
  1 19  1  0
  4 20  1  0
  5 21  1  0
  8 22  1  0
  9 23  1  0
 12 24  1  0
 12 25  1  0
 12 26  1  0
 14 27  1  0
 15 28  1  0
M  END
>  <meeko>  (2) 
{"is_sidechain": [false], "free_energy": -6.597, "intermolecular_energy": -7.007, "internal_energy": -0.036}

$$$$
harmine_out
     RDKit          3D

 28 30  0  0  0  0  0  0  0  0999 V2000
  183.3330   22.6740   46.8680 C   0  0  0  0  0  0  0  0  0  0  0  0
  182.5510   21.5090   46.6420 O   0  0  0  0  0  0  0  0  0  0  0  0
  181.2280   21.5720   46.9930 C   0  0  0  0  0  0  0  0  0  0  0  0
  180.6180   22.6140   47.6880 C   0  0  0  0  0  0  0  0  0  0  0  0
  179.2490   22.5710   47.9940 C   0  0  0  0  0  0  0  0  0  0  0  0
  178.4790   21.4590   47.5970 C   0  0  0  0  0  0  0  0  0  0  0  0
  179.1120   20.4310   46.9040 C   0  0  0  0  0  0  0  0  0  0  0  0
  180.4760   20.4600   46.5900 C   0  0  0  0  0  0  0  0  0  0  0  0
  178.1590   19.4790   46.6330 N   0  0  0  0  0  0  0  0  0  0  0  0
  176.9300   19.8550   47.1260 C   0  0  0  0  0  0  0  0  0  0  0  0
  175.6940   19.2000   47.0810 C   0  0  0  0  0  0  0  0  0  0  0  0
  175.4680   17.8690   46.4360 C   0  0  0  0  0  0  0  0  0  0  0  0
  174.6290   19.8160   47.6610 N   0  0  0  0  0  0  0  0  0  0  0  0
  174.7910   21.0180   48.2540 C   0  0  0  0  0  0  0  0  0  0  0  0
  175.9890   21.7090   48.3280 C   0  0  0  0  0  0  0  0  0  0  0  0
  177.1020   21.0960   47.7370 C   0  0  0  0  0  0  0  0  0  0  0  0
  183.4428   22.8376   47.9502 H   0  0  0  0  0  0  0  0  0  0  0  0
  184.3264   22.5425   46.4144 H   0  0  0  0  0  0  0  0  0  0  0  0
  182.8350   23.5436   46.4144 H   0  0  0  0  0  0  0  0  0  0  0  0
  181.2172   23.4818   48.0010 H   0  0  0  0  0  0  0  0  0  0  0  0
  178.7789   23.4014   48.5412 H   0  0  0  0  0  0  0  0  0  0  0  0
  180.9458   19.6308   46.0407 H   0  0  0  0  0  0  0  0  0  0  0  0
  178.3320   18.6390   46.1500 H   0  0  0  0  0  0  0  0  0  0  0  0
  175.3378   17.1021   47.2137 H   0  0  0  0  0  0  0  0  0  0  0  0
  174.5646   17.9136   45.8100 H   0  0  0  0  0  0  0  0  0  0  0  0
  176.3355   17.6129   45.8100 H   0  0  0  0  0  0  0  0  0  0  0  0
  173.9058   21.4831   48.7124 H   0  0  0  0  0  0  0  0  0  0  0  0
  176.0630   22.6877   48.8247 H   0  0  0  0  0  0  0  0  0  0  0  0
  1  2  1  0
  2  3  1  0
  3  4  2  0
  4  5  1  0
  5  6  2  0
  6  7  1  0
  7  8  2  0
  7  9  1  0
  9 10  1  0
 10 11  2  0
 11 12  1  0
 11 13  1  0
 13 14  2  0
 14 15  1  0
 15 16  2  0
  8  3  1  0
 16 10  1  0
 16  6  1  0
  1 17  1  0
  1 18  1  0
  1 19  1  0
  4 20  1  0
  5 21  1  0
  8 22  1  0
  9 23  1  0
 12 24  1  0
 12 25  1  0
 12 26  1  0
 14 27  1  0
 15 28  1  0
M  END
>  <meeko>  (3) 
{"is_sidechain": [false], "free_energy": -6.414, "intermolecular_energy": -6.807, "internal_energy": -0.042}

$$$$
harmine_out
     RDKit          3D

 28 30  0  0  0  0  0  0  0  0999 V2000
  172.5380   23.7430   51.5710 C   0  0  0  0  0  0  0  0  0  0  0  0
  173.3070   24.5810   50.7170 O   0  0  0  0  0  0  0  0  0  0  0  0
  174.2990   23.9810   49.9880 C   0  0  0  0  0  0  0  0  0  0  0  0
  175.5430   24.5360   49.6920 C   0  0  0  0  0  0  0  0  0  0  0  0
  176.4850   23.8270   48.9330 C   0  0  0  0  0  0  0  0  0  0  0  0
  176.1740   22.5350   48.4610 C   0  0  0  0  0  0  0  0  0  0  0  0
  174.9260   22.0020   48.7710 C   0  0  0  0  0  0  0  0  0  0  0  0
  173.9740   22.6970   49.5280 C   0  0  0  0  0  0  0  0  0  0  0  0
  174.8680   20.7510   48.2060 N   0  0  0  0  0  0  0  0  0  0  0  0
  176.0360   20.4550   47.5410 C   0  0  0  0  0  0  0  0  0  0  0  0
  176.4120   19.3090   46.8300 C   0  0  0  0  0  0  0  0  0  0  0  0
  175.5420   18.1050   46.6520 C   0  0  0  0  0  0  0  0  0  0  0  0
  177.6490   19.2900   46.2650 N   0  0  0  0  0  0  0  0  0  0  0  0
  178.4650   20.3580   46.4030 C   0  0  0  0  0  0  0  0  0  0  0  0
  178.1450   21.5140   47.0930 C   0  0  0  0  0  0  0  0  0  0  0  0
  176.8760   21.5590   47.6860 C   0  0  0  0  0  0  0  0  0  0  0  0
  172.7608   23.9858   52.6205 H   0  0  0  0  0  0  0  0  0  0  0  0
  171.4675   23.9048   51.3765 H   0  0  0  0  0  0  0  0  0  0  0  0
  172.7910   22.6903   51.3765 H   0  0  0  0  0  0  0  0  0  0  0  0
  175.7889   25.5435   50.0587 H   0  0  0  0  0  0  0  0  0  0  0  0
  177.4629   24.2769   48.7066 H   0  0  0  0  0  0  0  0  0  0  0  0
  172.9965   22.2469   49.7557 H   0  0  0  0  0  0  0  0  0  0  0  0
  174.0940   20.1470   48.2680 H   0  0  0  0  0  0  0  0  0  0  0  0
  175.2565   17.7099   47.6381 H   0  0  0  0  0  0  0  0  0  0  0  0
  174.6369   18.3859   46.0935 H   0  0  0  0  0  0  0  0  0  0  0  0
  176.0929   17.3339   46.0935 H   0  0  0  0  0  0  0  0  0  0  0  0
  179.4575   20.3046   45.9318 H   0  0  0  0  0  0  0  0  0  0  0  0
  178.8504   22.3544   47.1720 H   0  0  0  0  0  0  0  0  0  0  0  0
  1  2  1  0
  2  3  1  0
  3  4  2  0
  4  5  1  0
  5  6  2  0
  6  7  1  0
  7  8  2  0
  7  9  1  0
  9 10  1  0
 10 11  2  0
 11 12  1  0
 11 13  1  0
 13 14  2  0
 14 15  1  0
 15 16  2  0
  8  3  1  0
 16 10  1  0
 16  6  1  0
  1 17  1  0
  1 18  1  0
  1 19  1  0
  4 20  1  0
  5 21  1  0
  8 22  1  0
  9 23  1  0
 12 24  1  0
 12 25  1  0
 12 26  1  0
 14 27  1  0
 15 28  1  0
M  END
>  <meeko>  (4) 
{"is_sidechain": [false], "free_energy": -6.245, "intermolecular_energy": -6.617, "internal_energy": -0.054}

$$$$
harmine_out
     RDKit          3D

 28 30  0  0  0  0  0  0  0  0999 V2000
  174.5560   22.4260   49.4960 C   0  0  0  0  0  0  0  0  0  0  0  0
  174.4210   21.4750   48.4490 O   0  0  0  0  0  0  0  0  0  0  0  0
  175.5760   21.0410   47.8530 C   0  0  0  0  0  0  0  0  0  0  0  0
  175.6870   19.9570   46.9830 C   0  0  0  0  0  0  0  0  0  0  0  0
  176.9260   19.6020   46.4300 C   0  0  0  0  0  0  0  0  0  0  0  0
  178.0760   20.3490   46.7560 C   0  0  0  0  0  0  0  0  0  0  0  0
  177.9390   21.4270   47.6260 C   0  0  0  0  0  0  0  0  0  0  0  0
  176.7100   21.7940   48.1850 C   0  0  0  0  0  0  0  0  0  0  0  0
  179.1870   21.9830   47.7800 N   0  0  0  0  0  0  0  0  0  0  0  0
  180.1260   21.3030   47.0400 C   0  0  0  0  0  0  0  0  0  0  0  0
  181.5020   21.5180   46.9000 C   0  0  0  0  0  0  0  0  0  0  0  0
  182.2580   22.6140   47.5840 C   0  0  0  0  0  0  0  0  0  0  0  0
  182.1960   20.6750   46.0890 N   0  0  0  0  0  0  0  0  0  0  0  0
  181.5510   19.6730   45.4530 C   0  0  0  0  0  0  0  0  0  0  0  0
  180.1950   19.4160   45.5560 C   0  0  0  0  0  0  0  0  0  0  0  0
  179.4560   20.2700   46.3850 C   0  0  0  0  0  0  0  0  0  0  0  0
  174.4834   21.9148   50.4673 H   0  0  0  0  0  0  0  0  0  0  0  0
  175.5338   22.9235   49.4156 H   0  0  0  0  0  0  0  0  0  0  0  0
  173.7553   23.1760   49.4156 H   0  0  0  0  0  0  0  0  0  0  0  0
  174.7909   19.3726   46.7270 H   0  0  0  0  0  0  0  0  0  0  0  0
  177.0000   18.7445   45.7450 H   0  0  0  0  0  0  0  0  0  0  0  0
  176.6359   22.6527   48.8684 H   0  0  0  0  0  0  0  0  0  0  0  0
  179.3810   22.7650   48.3450 H   0  0  0  0  0  0  0  0  0  0  0  0
  182.1741   22.4924   48.6740 H   0  0  0  0  0  0  0  0  0  0  0  0
  183.3170   22.5676   47.2903 H   0  0  0  0  0  0  0  0  0  0  0  0
  181.8384   23.5875   47.2903 H   0  0  0  0  0  0  0  0  0  0  0  0
  182.1472   19.0129   44.8058 H   0  0  0  0  0  0  0  0  0  0  0  0
  179.7216   18.5837   45.0146 H   0  0  0  0  0  0  0  0  0  0  0  0
  1  2  1  0
  2  3  1  0
  3  4  2  0
  4  5  1  0
  5  6  2  0
  6  7  1  0
  7  8  2  0
  7  9  1  0
  9 10  1  0
 10 11  2  0
 11 12  1  0
 11 13  1  0
 13 14  2  0
 14 15  1  0
 15 16  2  0
  8  3  1  0
 16 10  1  0
 16  6  1  0
  1 17  1  0
  1 18  1  0
  1 19  1  0
  4 20  1  0
  5 21  1  0
  8 22  1  0
  9 23  1  0
 12 24  1  0
 12 25  1  0
 12 26  1  0
 14 27  1  0
 15 28  1  0
M  END
>  <meeko>  (5) 
{"is_sidechain": [false], "free_energy": -6.149, "intermolecular_energy": -6.508, "internal_energy": -0.061}

$$$$
harmine_out
     RDKit          3D

 28 30  0  0  0  0  0  0  0  0999 V2000
  175.7060   17.8630   46.2030 C   0  0  0  0  0  0  0  0  0  0  0  0
  175.2000   18.4180   47.4100 O   0  0  0  0  0  0  0  0  0  0  0  0
  175.9130   19.4460   47.9680 C   0  0  0  0  0  0  0  0  0  0  0  0
  177.0560   20.0330   47.4260 C   0  0  0  0  0  0  0  0  0  0  0  0
  177.7070   21.0850   48.0890 C   0  0  0  0  0  0  0  0  0  0  0  0
  177.2020   21.5550   49.3180 C   0  0  0  0  0  0  0  0  0  0  0  0
  176.0590   20.9530   49.8370 C   0  0  0  0  0  0  0  0  0  0  0  0
  175.3980   19.9030   49.1880 C   0  0  0  0  0  0  0  0  0  0  0  0
  175.7730   21.5830   51.0240 N   0  0  0  0  0  0  0  0  0  0  0  0
  176.6900   22.5730   51.2920 C   0  0  0  0  0  0  0  0  0  0  0  0
  176.7860   23.4550   52.3750 C   0  0  0  0  0  0  0  0  0  0  0  0
  175.8310   23.4810   53.5270 C   0  0  0  0  0  0  0  0  0  0  0  0
  177.8140   24.3450   52.3790 N   0  0  0  0  0  0  0  0  0  0  0  0
  178.6980   24.3540   51.3570 C   0  0  0  0  0  0  0  0  0  0  0  0
  178.6510   23.5060   50.2640 C   0  0  0  0  0  0  0  0  0  0  0  0
  177.6010   22.5780   50.2350 C   0  0  0  0  0  0  0  0  0  0  0  0
  176.4298   17.0692   46.4396 H   0  0  0  0  0  0  0  0  0  0  0  0
  174.8762   17.4401   45.6177 H   0  0  0  0  0  0  0  0  0  0  0  0
  176.2036   18.6503   45.6177 H   0  0  0  0  0  0  0  0  0  0  0  0
  177.4522   19.6671   46.4673 H   0  0  0  0  0  0  0  0  0  0  0  0
  178.6074   21.5407   47.6513 H   0  0  0  0  0  0  0  0  0  0  0  0
  174.4968   19.4483   49.6252 H   0  0  0  0  0  0  0  0  0  0  0  0
  175.0130   21.3560   51.6060 H   0  0  0  0  0  0  0  0  0  0  0  0
  176.3950   23.4656   54.4713 H   0  0  0  0  0  0  0  0  0  0  0  0
  175.2225   24.3960   53.4782 H   0  0  0  0  0  0  0  0  0  0  0  0
  175.1736   22.6004   53.4782 H   0  0  0  0  0  0  0  0  0  0  0  0
  179.5151   25.0894   51.3966 H   0  0  0  0  0  0  0  0  0  0  0  0
  179.3993   23.5577   49.4594 H   0  0  0  0  0  0  0  0  0  0  0  0
  1  2  1  0
  2  3  1  0
  3  4  2  0
  4  5  1  0
  5  6  2  0
  6  7  1  0
  7  8  2  0
  7  9  1  0
  9 10  1  0
 10 11  2  0
 11 12  1  0
 11 13  1  0
 13 14  2  0
 14 15  1  0
 15 16  2  0
  8  3  1  0
 16 10  1  0
 16  6  1  0
  1 17  1  0
  1 18  1  0
  1 19  1  0
  4 20  1  0
  5 21  1  0
  8 22  1  0
  9 23  1  0
 12 24  1  0
 12 25  1  0
 12 26  1  0
 14 27  1  0
 15 28  1  0
M  END
>  <meeko>  (6) 
{"is_sidechain": [false], "free_energy": -6.09, "intermolecular_energy": -6.464, "internal_energy": -0.042}

$$$$
harmine_out
     RDKit          3D

 28 30  0  0  0  0  0  0  0  0999 V2000
  175.5950   18.1180   46.5450 C   0  0  0  0  0  0  0  0  0  0  0  0
  176.6740   19.0410   46.4840 O   0  0  0  0  0  0  0  0  0  0  0  0
  176.5140   20.2290   47.1470 C   0  0  0  0  0  0  0  0  0  0  0  0
  177.3690   21.3260   47.0720 C   0  0  0  0  0  0  0  0  0  0  0  0
  177.1040   22.4970   47.7990 C   0  0  0  0  0  0  0  0  0  0  0  0
  175.9580   22.5670   48.6170 C   0  0  0  0  0  0  0  0  0  0  0  0
  175.1190   21.4570   48.6740 C   0  0  0  0  0  0  0  0  0  0  0  0
  175.3690   20.2820   47.9550 C   0  0  0  0  0  0  0  0  0  0  0  0
  174.0880   21.7730   49.5260 N   0  0  0  0  0  0  0  0  0  0  0  0
  174.2300   23.0480   50.0230 C   0  0  0  0  0  0  0  0  0  0  0  0
  173.4260   23.7720   50.9110 C   0  0  0  0  0  0  0  0  0  0  0  0
  172.1680   23.2480   51.5280 C   0  0  0  0  0  0  0  0  0  0  0  0
  173.8160   25.0350   51.2320 N   0  0  0  0  0  0  0  0  0  0  0  0
  174.9460   25.5460   50.6970 C   0  0  0  0  0  0  0  0  0  0  0  0
  175.7760   24.8750   49.8160 C   0  0  0  0  0  0  0  0  0  0  0  0
  175.3980   23.5710   49.4670 C   0  0  0  0  0  0  0  0  0  0  0  0
  175.3505   17.9088   47.5969 H   0  0  0  0  0  0  0  0  0  0  0  0
  174.7159   18.5479   46.0427 H   0  0  0  0  0  0  0  0  0  0  0  0
  175.8835   17.1829   46.0427 H   0  0  0  0  0  0  0  0  0  0  0  0
  178.2639   21.2739   46.4345 H   0  0  0  0  0  0  0  0  0  0  0  0
  177.7874   23.3562   47.7308 H   0  0  0  0  0  0  0  0  0  0  0  0
  174.6853   19.4229   48.0221 H   0  0  0  0  0  0  0  0  0  0  0  0
  173.3460   21.1660   49.7520 H   0  0  0  0  0  0  0  0  0  0  0  0
  172.2545   23.2840   52.6240 H   0  0  0  0  0  0  0  0  0  0  0  0
  171.3169   23.8664   51.2068 H   0  0  0  0  0  0  0  0  0  0  0  0
  172.0076   22.2082   51.2068 H   0  0  0  0  0  0  0  0  0  0  0  0
  175.2272   26.5704   50.9824 H   0  0  0  0  0  0  0  0  0  0  0  0
  176.6860   25.3412   49.4103 H   0  0  0  0  0  0  0  0  0  0  0  0
  1  2  1  0
  2  3  1  0
  3  4  2  0
  4  5  1  0
  5  6  2  0
  6  7  1  0
  7  8  2  0
  7  9  1  0
  9 10  1  0
 10 11  2  0
 11 12  1  0
 11 13  1  0
 13 14  2  0
 14 15  1  0
 15 16  2  0
  8  3  1  0
 16 10  1  0
 16  6  1  0
  1 17  1  0
  1 18  1  0
  1 19  1  0
  4 20  1  0
  5 21  1  0
  8 22  1  0
  9 23  1  0
 12 24  1  0
 12 25  1  0
 12 26  1  0
 14 27  1  0
 15 28  1  0
M  END
>  <meeko>  (7) 
{"is_sidechain": [false], "free_energy": -5.993, "intermolecular_energy": -6.343, "internal_energy": -0.061}

$$$$
harmine_out
     RDKit          3D

 28 30  0  0  0  0  0  0  0  0999 V2000
  173.9710   23.0120   49.5420 C   0  0  0  0  0  0  0  0  0  0  0  0
  174.3530   21.9520   48.6750 O   0  0  0  0  0  0  0  0  0  0  0  0
  175.6780   21.8760   48.3340 C   0  0  0  0  0  0  0  0  0  0  0  0
  176.6400   22.8560   48.5760 C   0  0  0  0  0  0  0  0  0  0  0  0
  177.9730   22.6680   48.1810 C   0  0  0  0  0  0  0  0  0  0  0  0
  178.3480   21.4740   47.5320 C   0  0  0  0  0  0  0  0  0  0  0  0
  177.3700   20.5110   47.3040 C   0  0  0  0  0  0  0  0  0  0  0  0
  176.0350   20.6830   47.6920 C   0  0  0  0  0  0  0  0  0  0  0  0
  177.9810   19.4570   46.6680 N   0  0  0  0  0  0  0  0  0  0  0  0
  179.3210   19.7030   46.4770 C   0  0  0  0  0  0  0  0  0  0  0  0
  180.3130   18.9180   45.8790 C   0  0  0  0  0  0  0  0  0  0  0  0
  180.0760   17.5610   45.2950 C   0  0  0  0  0  0  0  0  0  0  0  0
  181.5750   19.4230   45.8270 N   0  0  0  0  0  0  0  0  0  0  0  0
  181.8310   20.6450   46.3430 C   0  0  0  0  0  0  0  0  0  0  0  0
  180.8890   21.4620   46.9440 C   0  0  0  0  0  0  0  0  0  0  0  0
  179.5800   20.9660   47.0110 C   0  0  0  0  0  0  0  0  0  0  0  0
  174.0869   22.6904   50.5875 H   0  0  0  0  0  0  0  0  0  0  0  0
  174.6102   23.8874   49.3546 H   0  0  0  0  0  0  0  0  0  0  0  0
  172.9203   23.2784   49.3546 H   0  0  0  0  0  0  0  0  0  0  0  0
  176.3501   23.7882   49.0830 H   0  0  0  0  0  0  0  0  0  0  0  0
  178.7225   23.4490   48.3769 H   0  0  0  0  0  0  0  0  0  0  0  0
  175.2860   19.9012   47.4975 H   0  0  0  0  0  0  0  0  0  0  0  0
  177.5200   18.6340   46.3860 H   0  0  0  0  0  0  0  0  0  0  0  0
  179.9483   16.8297   46.1067 H   0  0  0  0  0  0  0  0  0  0  0  0
  179.1680   17.5824   44.6745 H   0  0  0  0  0  0  0  0  0  0  0  0
  180.9375   17.2733   44.6745 H   0  0  0  0  0  0  0  0  0  0  0  0
  182.8639   21.0182   46.2810 H   0  0  0  0  0  0  0  0  0  0  0  0
  181.1543   22.4500   47.3483 H   0  0  0  0  0  0  0  0  0  0  0  0
  1  2  1  0
  2  3  1  0
  3  4  2  0
  4  5  1  0
  5  6  2  0
  6  7  1  0
  7  8  2  0
  7  9  1  0
  9 10  1  0
 10 11  2  0
 11 12  1  0
 11 13  1  0
 13 14  2  0
 14 15  1  0
 15 16  2  0
  8  3  1  0
 16 10  1  0
 16  6  1  0
  1 17  1  0
  1 18  1  0
  1 19  1  0
  4 20  1  0
  5 21  1  0
  8 22  1  0
  9 23  1  0
 12 24  1  0
 12 25  1  0
 12 26  1  0
 14 27  1  0
 15 28  1  0
M  END
>  <meeko>  (8) 
{"is_sidechain": [false], "free_energy": -5.949, "intermolecular_energy": -6.316, "internal_energy": -0.042}

$$$$
harmine_out
     RDKit          3D

 28 30  0  0  0  0  0  0  0  0999 V2000
  174.0120   26.2870   50.8190 C   0  0  0  0  0  0  0  0  0  0  0  0
  175.2350   25.7250   50.3630 O   0  0  0  0  0  0  0  0  0  0  0  0
  175.1710   24.4880   49.7780 C   0  0  0  0  0  0  0  0  0  0  0  0
  174.0810   23.6200   49.8250 C   0  0  0  0  0  0  0  0  0  0  0  0
  174.1280   22.3720   49.1860 C   0  0  0  0  0  0  0  0  0  0  0  0
  175.2890   21.9880   48.4860 C   0  0  0  0  0  0  0  0  0  0  0  0
  176.3630   22.8730   48.4520 C   0  0  0  0  0  0  0  0  0  0  0  0
  176.3330   24.1220   49.0850 C   0  0  0  0  0  0  0  0  0  0  0  0
  177.3580   22.2740   47.7180 N   0  0  0  0  0  0  0  0  0  0  0  0
  176.9660   21.0320   47.2740 C   0  0  0  0  0  0  0  0  0  0  0  0
  177.6500   20.0850   46.5040 C   0  0  0  0  0  0  0  0  0  0  0  0
  179.0410   20.2670   45.9830 C   0  0  0  0  0  0  0  0  0  0  0  0
  177.0070   18.9230   46.2100 N   0  0  0  0  0  0  0  0  0  0  0  0
  175.7510   18.7190   46.6610 C   0  0  0  0  0  0  0  0  0  0  0  0
  175.0290   19.6200   47.4260 C   0  0  0  0  0  0  0  0  0  0  0  0
  175.6690   20.8260   47.7420 C   0  0  0  0  0  0  0  0  0  0  0  0
  173.9988   26.2931   51.9189 H   0  0  0  0  0  0  0  0  0  0  0  0
  173.9203   27.3176   50.4455 H   0  0  0  0  0  0  0  0  0  0  0  0
  173.1702   25.6854   50.4455 H   0  0  0  0  0  0  0  0  0  0  0  0
  173.1729   23.9174   50.3699 H   0  0  0  0  0  0  0  0  0  0  0  0
  173.2617   21.6957   49.2313 H   0  0  0  0  0  0  0  0  0  0  0  0
  177.1992   24.7984   49.0394 H   0  0  0  0  0  0  0  0  0  0  0  0
  178.2360   22.6800   47.5340 H   0  0  0  0  0  0  0  0  0  0  0  0
  179.7398   20.3584   46.8276 H   0  0  0  0  0  0  0  0  0  0  0  0
  179.3193   19.3976   45.3692 H   0  0  0  0  0  0  0  0  0  0  0  0
  179.0863   21.1787   45.3692 H   0  0  0  0  0  0  0  0  0  0  0  0
  175.2651   17.7668   46.4017 H   0  0  0  0  0  0  0  0  0  0  0  0
  174.0067   19.4004   47.7676 H   0  0  0  0  0  0  0  0  0  0  0  0
  1  2  1  0
  2  3  1  0
  3  4  2  0
  4  5  1  0
  5  6  2  0
  6  7  1  0
  7  8  2  0
  7  9  1  0
  9 10  1  0
 10 11  2  0
 11 12  1  0
 11 13  1  0
 13 14  2  0
 14 15  1  0
 15 16  2  0
  8  3  1  0
 16 10  1  0
 16  6  1  0
  1 17  1  0
  1 18  1  0
  1 19  1  0
  4 20  1  0
  5 21  1  0
  8 22  1  0
  9 23  1  0
 12 24  1  0
 12 25  1  0
 12 26  1  0
 14 27  1  0
 15 28  1  0
M  END
>  <meeko>  (9) 
{"is_sidechain": [false], "free_energy": -5.901, "intermolecular_energy": -6.265, "internal_energy": -0.042}

$$$$
