isatin_out
     RDKit          3D

 16 17  0  0  0  0  0  0  0  0999 V2000
  174.8000   18.5110   46.9870 O   0  0  0  0  0  0  0  0  0  0  0  0
  175.1550   19.6080   47.3590 C   0  0  0  0  0  0  0  0  0  0  0  0
  174.5700   20.4160   48.3140 N   0  0  0  0  0  0  0  0  0  0  0  0
  175.2760   21.6060   48.4590 C   0  0  0  0  0  0  0  0  0  0  0  0
  174.9890   22.6480   49.3150 C   0  0  0  0  0  0  0  0  0  0  0  0
  175.8450   23.7550   49.2900 C   0  0  0  0  0  0  0  0  0  0  0  0
  176.9570   23.8000   48.4220 C   0  0  0  0  0  0  0  0  0  0  0  0
  177.2340   22.7360   47.5610 C   0  0  0  0  0  0  0  0  0  0  0  0
  176.3760   21.6560   47.6050 C   0  0  0  0  0  0  0  0  0  0  0  0
  176.3880   20.4050   46.8450 C   0  0  0  0  0  0  0  0  0  0  0  0
  177.1850   20.0690   46.0020 O   0  0  0  0  0  0  0  0  0  0  0  0
  173.7610   20.1800   48.8240 H   0  0  0  0  0  0  0  0  0  0  0  0
  174.1218   22.6108   49.9907 H   0  0  0  0  0  0  0  0  0  0  0  0
  175.6475   24.6055   49.9591 H   0  0  0  0  0  0  0  0  0  0  0  0
  177.6128   24.6831   48.4237 H   0  0  0  0  0  0  0  0  0  0  0  0
  178.0967   22.7577   46.8789 H   0  0  0  0  0  0  0  0  0  0  0  0
  1  2  2  0
  2  3  1  0
  3  4  1  0
  4  5  2  0
  5  6  1  0
  6  7  2  0
  7  8  1  0
  8  9  2  0
  9 10  1  0
 10 11  2  0
 10  2  1  0
  9  4  1  0
  3 12  1  0
  5 13  1  0
  6 14  1  0
  7 15  1  0
  8 16  1  0
M  END
>  <meeko>  (1) 
{"is_sidechain": [false], "free_energy": -5.33, "intermolecular_energy": -5.33, "internal_energy": 0.0}

$$$$
isatin_out
     RDKit          3D

 16 17  0  0  0  0  0  0  0  0999 V2000
  180.4700   17.7570   45.7750 O   0  0  0  0  0  0  0  0  0  0  0  0
  180.6380   17.1670   44.7310 C   0  0  0  0  0  0  0  0  0  0  0  0
  180.8870   17.6980   43.4810 N   0  0  0  0  0  0  0  0  0  0  0  0
  181.0210   16.6910   42.5300 C   0  0  0  0  0  0  0  0  0  0  0  0
  181.2720   16.8420   41.1830 C   0  0  0  0  0  0  0  0  0  0  0  0
  181.3670   15.6790   40.4110 C   0  0  0  0  0  0  0  0  0  0  0  0
  181.2110   14.4020   40.9920 C   0  0  0  0  0  0  0  0  0  0  0  0
  180.9570   14.2650   42.3590 C   0  0  0  0  0  0  0  0  0  0  0  0
  180.8680   15.4270   43.0970 C   0  0  0  0  0  0  0  0  0  0  0  0
  180.6150   15.6250   44.5260 C   0  0  0  0  0  0  0  0  0  0  0  0
  180.4300   14.7710   45.3610 O   0  0  0  0  0  0  0  0  0  0  0  0
  180.9600   18.6610   43.2880 H   0  0  0  0  0  0  0  0  0  0  0  0
  181.3929   17.8382   40.7325 H   0  0  0  0  0  0  0  0  0  0  0  0
  181.5668   15.7612   39.3324 H   0  0  0  0  0  0  0  0  0  0  0  0
  181.2903   13.5044   40.3612 H   0  0  0  0  0  0  0  0  0  0  0  0
  180.8337   13.2763   42.8252 H   0  0  0  0  0  0  0  0  0  0  0  0
  1  2  2  0
  2  3  1  0
  3  4  1  0
  4  5  2  0
  5  6  1  0
  6  7  2  0
  7  8  1  0
  8  9  2  0
  9 10  1  0
 10 11  2  0
 10  2  1  0
  9  4  1  0
  3 12  1  0
  5 13  1  0
  6 14  1  0
  7 15  1  0
  8 16  1  0
M  END
>  <meeko>  (2) 
{"is_sidechain": [false], "free_energy": -5.309, "intermolecular_energy": -5.309, "internal_energy": 0.0}

$$$$
isatin_out
     RDKit          3D

 16 17  0  0  0  0  0  0  0  0999 V2000
  174.7960   18.2550   46.9560 O   0  0  0  0  0  0  0  0  0  0  0  0
  175.6540   19.1090   46.9930 C   0  0  0  0  0  0  0  0  0  0  0  0
  176.9600   19.0250   46.5510 N   0  0  0  0  0  0  0  0  0  0  0  0
  177.6360   20.2220   46.7680 C   0  0  0  0  0  0  0  0  0  0  0  0
  178.9480   20.5080   46.4570 C   0  0  0  0  0  0  0  0  0  0  0  0
  179.4190   21.7880   46.7680 C   0  0  0  0  0  0  0  0  0  0  0  0
  178.5800   22.7470   47.3760 C   0  0  0  0  0  0  0  0  0  0  0  0
  177.2530   22.4430   47.6850 C   0  0  0  0  0  0  0  0  0  0  0  0
  176.8130   21.1730   47.3680 C   0  0  0  0  0  0  0  0  0  0  0  0
  175.5020   20.5500   47.5570 C   0  0  0  0  0  0  0  0  0  0  0  0
  174.5170   21.0510   48.0470 O   0  0  0  0  0  0  0  0  0  0  0  0
  177.3590   18.2250   46.1380 H   0  0  0  0  0  0  0  0  0  0  0  0
  179.5992   19.7590   45.9828 H   0  0  0  0  0  0  0  0  0  0  0  0
  180.4611   22.0519   46.5348 H   0  0  0  0  0  0  0  0  0  0  0  0
  178.9768   23.7461   47.6091 H   0  0  0  0  0  0  0  0  0  0  0  0
  176.5888   23.1807   48.1589 H   0  0  0  0  0  0  0  0  0  0  0  0
  1  2  2  0
  2  3  1  0
  3  4  1  0
  4  5  2  0
  5  6  1  0
  6  7  2  0
  7  8  1  0
  8  9  2  0
  9 10  1  0
 10 11  2  0
 10  2  1  0
  9  4  1  0
  3 12  1  0
  5 13  1  0
  6 14  1  0
  7 15  1  0
  8 16  1  0
M  END
>  <meeko>  (3) 
{"is_sidechain": [false], "free_energy": -5.197, "intermolecular_energy": -5.197, "internal_energy": 0.0}

$$$$
isatin_out
     RDKit          3D

 16 17  0  0  0  0  0  0  0  0999 V2000
  174.0640   22.2640   49.1440 O   0  0  0  0  0  0  0  0  0  0  0  0
  175.0550   21.8870   48.5600 C   0  0  0  0  0  0  0  0  0  0  0  0
  176.2590   22.5480   48.4090 N   0  0  0  0  0  0  0  0  0  0  0  0
  177.1560   21.7830   47.6680 C   0  0  0  0  0  0  0  0  0  0  0  0
  178.4470   22.1180   47.3190 C   0  0  0  0  0  0  0  0  0  0  0  0
  179.1700   21.1860   46.5650 C   0  0  0  0  0  0  0  0  0  0  0  0
  178.5980   19.9550   46.1800 C   0  0  0  0  0  0  0  0  0  0  0  0
  177.2890   19.6310   46.5420 C   0  0  0  0  0  0  0  0  0  0  0  0
  176.5970   20.5660   47.2850 C   0  0  0  0  0  0  0  0  0  0  0  0
  175.2320   20.5340   47.8150 C   0  0  0  0  0  0  0  0  0  0  0  0
  174.4220   19.6450   47.6960 O   0  0  0  0  0  0  0  0  0  0  0  0
  176.4550   23.4400   48.7750 H   0  0  0  0  0  0  0  0  0  0  0  0
  178.8908   23.0782   47.6206 H   0  0  0  0  0  0  0  0  0  0  0  0
  180.2032   21.4177   46.2672 H   0  0  0  0  0  0  0  0  0  0  0  0
  179.1904   19.2421   45.5876 H   0  0  0  0  0  0  0  0  0  0  0  0
  176.8306   18.6751   46.2487 H   0  0  0  0  0  0  0  0  0  0  0  0
  1  2  2  0
  2  3  1  0
  3  4  1  0
  4  5  2  0
  5  6  1  0
  6  7  2  0
  7  8  1  0
  8  9  2  0
  9 10  1  0
 10 11  2  0
 10  2  1  0
  9  4  1  0
  3 12  1  0
  5 13  1  0
  6 14  1  0
  7 15  1  0
  8 16  1  0
M  END
>  <meeko>  (4) 
{"is_sidechain": [false], "free_energy": -5.194, "intermolecular_energy": -5.194, "internal_energy": 0.0}

$$$$
isatin_out
     RDKit          3D

 16 17  0  0  0  0  0  0  0  0999 V2000
  174.5230   23.0730   51.1260 O   0  0  0  0  0  0  0  0  0  0  0  0
  174.9780   22.4110   50.2210 C   0  0  0  0  0  0  0  0  0  0  0  0
  174.8560   21.0510   50.0120 N   0  0  0  0  0  0  0  0  0  0  0  0
  175.5240   20.6630   48.8550 C   0  0  0  0  0  0  0  0  0  0  0  0
  175.6190   19.3900   48.3340 C   0  0  0  0  0  0  0  0  0  0  0  0
  176.3470   19.2340   47.1490 C   0  0  0  0  0  0  0  0  0  0  0  0
  176.9590   20.3370   46.5160 C   0  0  0  0  0  0  0  0  0  0  0  0
  176.8530   21.6200   47.0570 C   0  0  0  0  0  0  0  0  0  0  0  0
  176.1290   21.7480   48.2250 C   0  0  0  0  0  0  0  0  0  0  0  0
  175.8350   22.9330   49.0320 C   0  0  0  0  0  0  0  0  0  0  0  0
  176.1850   24.0700   48.8180 O   0  0  0  0  0  0  0  0  0  0  0  0
  174.3630   20.4380   50.6050 H   0  0  0  0  0  0  0  0  0  0  0  0
  175.1419   18.5317   48.8297 H   0  0  0  0  0  0  0  0  0  0  0  0
  176.4440   18.2333   46.7027 H   0  0  0  0  0  0  0  0  0  0  0  0
  177.5260   20.1843   45.5858 H   0  0  0  0  0  0  0  0  0  0  0  0
  177.3248   22.4886   46.5745 H   0  0  0  0  0  0  0  0  0  0  0  0
  1  2  2  0
  2  3  1  0
  3  4  1  0
  4  5  2  0
  5  6  1  0
  6  7  2  0
  7  8  1  0
  8  9  2  0
  9 10  1  0
 10 11  2  0
 10  2  1  0
  9  4  1  0
  3 12  1  0
  5 13  1  0
  6 14  1  0
  7 15  1  0
  8 16  1  0
M  END
>  <meeko>  (5) 
{"is_sidechain": [false], "free_energy": -5.103, "intermolecular_energy": -5.103, "internal_energy": 0.0}

$$$$
isatin_out
     RDKit          3D

 16 17  0  0  0  0  0  0  0  0999 V2000
  177.4250   22.7240   52.2490 O   0  0  0  0  0  0  0  0  0  0  0  0
  177.2010   22.0570   51.2630 C   0  0  0  0  0  0  0  0  0  0  0  0
  176.2220   21.1000   51.0850 N   0  0  0  0  0  0  0  0  0  0  0  0
  176.2880   20.5530   49.8070 C   0  0  0  0  0  0  0  0  0  0  0  0
  175.4750   19.5750   49.2740 C   0  0  0  0  0  0  0  0  0  0  0  0
  175.7270   19.1760   47.9570 C   0  0  0  0  0  0  0  0  0  0  0  0
  176.7730   19.7540   47.2060 C   0  0  0  0  0  0  0  0  0  0  0  0
  177.5880   20.7440   47.7590 C   0  0  0  0  0  0  0  0  0  0  0  0
  177.3180   21.1200   49.0600 C   0  0  0  0  0  0  0  0  0  0  0  0
  177.9750   22.1100   49.9150 C   0  0  0  0  0  0  0  0  0  0  0  0
  178.9150   22.8150   49.6300 O   0  0  0  0  0  0  0  0  0  0  0  0
  175.5660   20.8380   51.7710 H   0  0  0  0  0  0  0  0  0  0  0  0
  174.6603   19.1262   49.8613 H   0  0  0  0  0  0  0  0  0  0  0  0
  175.0988   18.3980   47.4986 H   0  0  0  0  0  0  0  0  0  0  0  0
  176.9483   19.4206   46.1725 H   0  0  0  0  0  0  0  0  0  0  0  0
  178.4067   21.2028   47.1852 H   0  0  0  0  0  0  0  0  0  0  0  0
  1  2  2  0
  2  3  1  0
  3  4  1  0
  4  5  2  0
  5  6  1  0
  6  7  2  0
  7  8  1  0
  8  9  2  0
  9 10  1  0
 10 11  2  0
 10  2  1  0
  9  4  1  0
  3 12  1  0
  5 13  1  0
  6 14  1  0
  7 15  1  0
  8 16  1  0
M  END
>  <meeko>  (6) 
{"is_sidechain": [false], "free_energy": -4.981, "intermolecular_energy": -4.981, "internal_energy": 0.0}

$$$$
isatin_out
     RDKit          3D

 16 17  0  0  0  0  0  0  0  0999 V2000
  180.9040   21.1110   46.3300 O   0  0  0  0  0  0  0  0  0  0  0  0
  179.7310   20.8730   46.5140 C   0  0  0  0  0  0  0  0  0  0  0  0
  178.7450   21.7320   46.9580 N   0  0  0  0  0  0  0  0  0  0  0  0
  177.5180   21.0810   47.0400 C   0  0  0  0  0  0  0  0  0  0  0  0
  176.3130   21.6180   47.4420 C   0  0  0  0  0  0  0  0  0  0  0  0
  175.2000   20.7690   47.4450 C   0  0  0  0  0  0  0  0  0  0  0  0
  175.3100   19.4190   47.0520 C   0  0  0  0  0  0  0  0  0  0  0  0
  176.5370   18.8900   46.6460 C   0  0  0  0  0  0  0  0  0  0  0  0
  177.6190   19.7470   46.6520 C   0  0  0  0  0  0  0  0  0  0  0  0
  179.0180   19.5090   46.2900 C   0  0  0  0  0  0  0  0  0  0  0  0
  179.5080   18.4740   45.9030 O   0  0  0  0  0  0  0  0  0  0  0  0
  178.8910   22.6790   47.1860 H   0  0  0  0  0  0  0  0  0  0  0  0
  176.2298   22.6713   47.7480 H   0  0  0  0  0  0  0  0  0  0  0  0
  174.2219   21.1619   47.7596 H   0  0  0  0  0  0  0  0  0  0  0  0
  174.4184   18.7749   47.0654 H   0  0  0  0  0  0  0  0  0  0  0  0
  176.6366   17.8393   46.3359 H   0  0  0  0  0  0  0  0  0  0  0  0
  1  2  2  0
  2  3  1  0
  3  4  1  0
  4  5  2  0
  5  6  1  0
  6  7  2  0
  7  8  1  0
  8  9  2  0
  9 10  1  0
 10 11  2  0
 10  2  1  0
  9  4  1  0
  3 12  1  0
  5 13  1  0
  6 14  1  0
  7 15  1  0
  8 16  1  0
M  END
>  <meeko>  (7) 
{"is_sidechain": [false], "free_energy": -4.926, "intermolecular_energy": -4.926, "internal_energy": 0.0}

$$$$
isatin_out
     RDKit          3D

 16 17  0  0  0  0  0  0  0  0999 V2000
  179.6910   18.3130   45.8130 O   0  0  0  0  0  0  0  0  0  0  0  0
  179.2700   19.3770   46.2090 C   0  0  0  0  0  0  0  0  0  0  0  0
  179.9840   20.5250   46.4910 N   0  0  0  0  0  0  0  0  0  0  0  0
  179.1400   21.5420   46.9250 C   0  0  0  0  0  0  0  0  0  0  0  0
  179.4960   22.8220   47.2950 C   0  0  0  0  0  0  0  0  0  0  0  0
  178.4700   23.6830   47.7010 C   0  0  0  0  0  0  0  0  0  0  0  0
  177.1250   23.2550   47.7290 C   0  0  0  0  0  0  0  0  0  0  0  0
  176.7810   21.9550   47.3520 C   0  0  0  0  0  0  0  0  0  0  0  0
  177.8110   21.1260   46.9550 C   0  0  0  0  0  0  0  0  0  0  0  0
  177.7860   19.7320   46.5080 C   0  0  0  0  0  0  0  0  0  0  0  0
  176.8180   19.0170   46.3970 O   0  0  0  0  0  0  0  0  0  0  0  0
  180.9610   20.6120   46.3980 H   0  0  0  0  0  0  0  0  0  0  0  0
  180.5447   23.1531   47.2719 H   0  0  0  0  0  0  0  0  0  0  0  0
  178.7160   24.7115   48.0037 H   0  0  0  0  0  0  0  0  0  0  0  0
  176.3388   23.9535   48.0515 H   0  0  0  0  0  0  0  0  0  0  0  0
  175.7375   21.6077   47.3705 H   0  0  0  0  0  0  0  0  0  0  0  0
  1  2  2  0
  2  3  1  0
  3  4  1  0
  4  5  2  0
  5  6  1  0
  6  7  2  0
  7  8  1  0
  8  9  2  0
  9 10  1  0
 10 11  2  0
 10  2  1  0
  9  4  1  0
  3 12  1  0
  5 13  1  0
  6 14  1  0
  7 15  1  0
  8 16  1  0
M  END
>  <meeko>  (8) 
{"is_sidechain": [false], "free_energy": -4.872, "intermolecular_energy": -4.872, "internal_energy": 0.0}

$$$$
isatin_out
     RDKit          3D

 16 17  0  0  0  0  0  0  0  0999 V2000
  181.5460   19.2510   46.1160 O   0  0  0  0  0  0  0  0  0  0  0  0
  180.4120   19.6190   46.3240 C   0  0  0  0  0  0  0  0  0  0  0  0
  179.2400   18.9060   46.1660 N   0  0  0  0  0  0  0  0  0  0  0  0
  178.1360   19.6800   46.5100 C   0  0  0  0  0  0  0  0  0  0  0  0
  176.8100   19.3030   46.4770 C   0  0  0  0  0  0  0  0  0  0  0  0
  175.8620   20.2550   46.8710 C   0  0  0  0  0  0  0  0  0  0  0  0
  176.2500   21.5460   47.2850 C   0  0  0  0  0  0  0  0  0  0  0  0
  177.5980   21.9120   47.3120 C   0  0  0  0  0  0  0  0  0  0  0  0
  178.5130   20.9570   46.9200 C   0  0  0  0  0  0  0  0  0  0  0  0
  179.9740   21.0210   46.8360 C   0  0  0  0  0  0  0  0  0  0  0  0
  180.6810   21.9630   47.1070 O   0  0  0  0  0  0  0  0  0  0  0  0
  179.1920   17.9740   45.8510 H   0  0  0  0  0  0  0  0  0  0  0  0
  176.5093   18.2953   46.1543 H   0  0  0  0  0  0  0  0  0  0  0  0
  174.7943   19.9909   46.8574 H   0  0  0  0  0  0  0  0  0  0  0  0
  175.4828   22.2729   47.5900 H   0  0  0  0  0  0  0  0  0  0  0  0
  177.9152   22.9157   47.6312 H   0  0  0  0  0  0  0  0  0  0  0  0
  1  2  2  0
  2  3  1  0
  3  4  1  0
  4  5  2  0
  5  6  1  0
  6  7  2  0
  7  8  1  0
  8  9  2  0
  9 10  1  0
 10 11  2  0
 10  2  1  0
  9  4  1  0
  3 12  1  0
  5 13  1  0
  6 14  1  0
  7 15  1  0
  8 16  1  0
M  END
>  <meeko>  (9) 
{"is_sidechain": [false], "free_energy": -4.87, "intermolecular_energy": -4.87, "internal_energy": 0.0}

$$$$
