kaempferol_maoa_out
     RDKit          3D

 31 33  0  0  0  0  0  0  0  0999 V2000
  174.3820   20.2530   48.1000 O   0  0  0  0  0  0  0  0  0  0  0  0
  175.4250   20.9020   48.0810 C   0  0  0  0  0  0  0  0  0  0  0  0
  176.6460   20.3490   47.4520 C   0  0  0  0  0  0  0  0  0  0  0  0
  176.5460   19.0920   46.8850 O   0  0  0  0  0  0  0  0  0  0  0  0
  177.7650   21.0960   47.4530 C   0  0  0  0  0  0  0  0  0  0  0  0
  179.0370   20.6540   46.8420 C   0  0  0  0  0  0  0  0  0  0  0  0
  180.1990   20.4670   47.6080 C   0  0  0  0  0  0  0  0  0  0  0  0
  181.3980   20.0710   47.0080 C   0  0  0  0  0  0  0  0  0  0  0  0
  181.4420   19.8690   45.6340 C   0  0  0  0  0  0  0  0  0  0  0  0
  182.5890   19.4830   45.0080 O   0  0  0  0  0  0  0  0  0  0  0  0
  180.3100   20.0580   44.8530 C   0  0  0  0  0  0  0  0  0  0  0  0
  179.1110   20.4530   45.4550 C   0  0  0  0  0  0  0  0  0  0  0  0
  177.8450   22.3710   48.0040 O   0  0  0  0  0  0  0  0  0  0  0  0
  176.7320   22.9080   48.6000 C   0  0  0  0  0  0  0  0  0  0  0  0
  176.8590   24.1830   49.1490 C   0  0  0  0  0  0  0  0  0  0  0  0
  175.7610   24.7760   49.7660 C   0  0  0  0  0  0  0  0  0  0  0  0
  175.9270   26.0240   50.2900 O   0  0  0  0  0  0  0  0  0  0  0  0
  174.5370   24.1170   49.8440 C   0  0  0  0  0  0  0  0  0  0  0  0
  174.4160   22.8430   49.2940 C   0  0  0  0  0  0  0  0  0  0  0  0
  173.1910   22.2410   49.3980 O   0  0  0  0  0  0  0  0  0  0  0  0
  175.5140   22.2390   48.6710 C   0  0  0  0  0  0  0  0  0  0  0  0
  177.3180   18.5810   46.7390 H   0  0  0  0  0  0  0  0  0  0  0  0
  180.1654   20.6343   48.6947 H   0  0  0  0  0  0  0  0  0  0  0  0
  182.3001   19.9204   47.6192 H   0  0  0  0  0  0  0  0  0  0  0  0
  183.3970   19.4600   45.4820 H   0  0  0  0  0  0  0  0  0  0  0  0
  180.3558   19.8978   43.7657 H   0  0  0  0  0  0  0  0  0  0  0  0
  178.2160   20.6078   44.8345 H   0  0  0  0  0  0  0  0  0  0  0  0
  177.8195   24.7165   49.0951 H   0  0  0  0  0  0  0  0  0  0  0  0
  175.2130   26.6310   50.2890 H   0  0  0  0  0  0  0  0  0  0  0  0
  173.6765   24.5963   50.3337 H   0  0  0  0  0  0  0  0  0  0  0  0
  172.6560   22.3950   50.1510 H   0  0  0  0  0  0  0  0  0  0  0  0
  1  2  2  0
  2  3  1  0
  3  4  1  0
  3  5  2  0
  5  6  1  0
  6  7  2  0
  7  8  1  0
  8  9  2  0
  9 10  1  0
  9 11  1  0
 11 12  2  0
  5 13  1  0
 13 14  1  0
 14 15  2  0
 15 16  1  0
 16 17  1  0
 16 18  2  0
 18 19  1  0
 19 20  1  0
 19 21  2  0
 21  2  1  0
 12  6  1  0
 21 14  1  0
  4 22  1  0
  7 23  1  0
  8 24  1  0
 10 25  1  0
 11 26  1  0
 12 27  1  0
 15 28  1  0
 17 29  1  0
 18 30  1  0
 20 31  1  0
M  END
>  <meeko>  (1) 
{"is_sidechain": [false], "free_energy": -6.895, "intermolecular_energy": -8.104, "internal_energy": -0.171}

$$$$
kaempferol_maoa_out
     RDKit          3D

 31 33  0  0  0  0  0  0  0  0999 V2000
  178.8380   22.2180   51.8450 O   0  0  0  0  0  0  0  0  0  0  0  0
  178.8350   21.9280   50.6510 C   0  0  0  0  0  0  0  0  0  0  0  0
  180.0600   22.0840   49.8350 C   0  0  0  0  0  0  0  0  0  0  0  0
  181.1900   22.5500   50.4800 O   0  0  0  0  0  0  0  0  0  0  0  0
  180.0110   21.7510   48.5310 C   0  0  0  0  0  0  0  0  0  0  0  0
  181.1740   21.8510   47.6230 C   0  0  0  0  0  0  0  0  0  0  0  0
  182.0880   22.9140   47.7060 C   0  0  0  0  0  0  0  0  0  0  0  0
  183.1680   23.0020   46.8220 C   0  0  0  0  0  0  0  0  0  0  0  0
  183.3330   22.0280   45.8440 C   0  0  0  0  0  0  0  0  0  0  0  0
  184.3710   22.0750   44.9630 O   0  0  0  0  0  0  0  0  0  0  0  0
  182.4370   20.9740   45.7350 C   0  0  0  0  0  0  0  0  0  0  0  0
  181.3580   20.8860   46.6190 C   0  0  0  0  0  0  0  0  0  0  0  0
  178.8740   21.2580   47.9000 O   0  0  0  0  0  0  0  0  0  0  0  0
  177.7210   21.1090   48.6280 C   0  0  0  0  0  0  0  0  0  0  0  0
  176.6020   20.6220   47.9540 C   0  0  0  0  0  0  0  0  0  0  0  0
  175.4060   20.4510   48.6450 C   0  0  0  0  0  0  0  0  0  0  0  0
  174.3360   19.9720   47.9490 O   0  0  0  0  0  0  0  0  0  0  0  0
  175.3080   20.7580   50.0000 C   0  0  0  0  0  0  0  0  0  0  0  0
  176.4290   21.2450   50.6680 C   0  0  0  0  0  0  0  0  0  0  0  0
  176.2770   21.5310   51.9980 O   0  0  0  0  0  0  0  0  0  0  0  0
  177.6360   21.4200   49.9820 C   0  0  0  0  0  0  0  0  0  0  0  0
  181.5450   23.3880   50.2560 H   0  0  0  0  0  0  0  0  0  0  0  0
  181.9526   23.6874   48.4764 H   0  0  0  0  0  0  0  0  0  0  0  0
  183.8815   23.8356   46.8999 H   0  0  0  0  0  0  0  0  0  0  0  0
  185.1620   21.6040   45.1440 H   0  0  0  0  0  0  0  0  0  0  0  0
  182.5755   20.2103   44.9555 H   0  0  0  0  0  0  0  0  0  0  0  0
  180.6458   20.0527   46.5276 H   0  0  0  0  0  0  0  0  0  0  0  0
  176.6639   20.3747   46.8839 H   0  0  0  0  0  0  0  0  0  0  0  0
  174.4240   19.7680   47.0390 H   0  0  0  0  0  0  0  0  0  0  0  0
  174.3576   20.6177   50.5357 H   0  0  0  0  0  0  0  0  0  0  0  0
  176.0740   20.8460   52.6050 H   0  0  0  0  0  0  0  0  0  0  0  0
  1  2  2  0
  2  3  1  0
  3  4  1  0
  3  5  2  0
  5  6  1  0
  6  7  2  0
  7  8  1  0
  8  9  2  0
  9 10  1  0
  9 11  1  0
 11 12  2  0
  5 13  1  0
 13 14  1  0
 14 15  2  0
 15 16  1  0
 16 17  1  0
 16 18  2  0
 18 19  1  0
 19 20  1  0
 19 21  2  0
 21  2  1  0
 12  6  1  0
 21 14  1  0
  4 22  1  0
  7 23  1  0
  8 24  1  0
 10 25  1  0
 11 26  1  0
 12 27  1  0
 15 28  1  0
 17 29  1  0
 18 30  1  0
 20 31  1  0
M  END
>  <meeko>  (2) 
{"is_sidechain": [false], "free_energy": -6.884, "intermolecular_energy": -8.341, "internal_energy": 0.079}

$$$$
kaempferol_maoa_out
     RDKit          3D

 31 33  0  0  0  0  0  0  0  0999 V2000
  178.0360   23.3590   47.8610 O   0  0  0  0  0  0  0  0  0  0  0  0
  176.9530   22.8210   48.0820 C   0  0  0  0  0  0  0  0  0  0  0  0
  175.9220   23.5070   48.8920 C   0  0  0  0  0  0  0  0  0  0  0  0
  176.2310   24.7690   49.3660 O   0  0  0  0  0  0  0  0  0  0  0  0
  174.7500   22.8810   49.1060 C   0  0  0  0  0  0  0  0  0  0  0  0
  173.6420   23.4740   49.8860 C   0  0  0  0  0  0  0  0  0  0  0  0
  173.5960   23.3900   51.2870 C   0  0  0  0  0  0  0  0  0  0  0  0
  172.5280   23.9380   52.0040 C   0  0  0  0  0  0  0  0  0  0  0  0
  171.4940   24.5660   51.3190 C   0  0  0  0  0  0  0  0  0  0  0  0
  170.4340   25.1130   51.9780 O   0  0  0  0  0  0  0  0  0  0  0  0
  171.5110   24.6530   49.9340 C   0  0  0  0  0  0  0  0  0  0  0  0
  172.5800   24.1060   49.2190 C   0  0  0  0  0  0  0  0  0  0  0  0
  174.4410   21.6220   48.6020 O   0  0  0  0  0  0  0  0  0  0  0  0
  175.3790   20.9580   47.8530 C   0  0  0  0  0  0  0  0  0  0  0  0
  175.0330   19.6940   47.3770 C   0  0  0  0  0  0  0  0  0  0  0  0
  175.9460   18.9760   46.6110 C   0  0  0  0  0  0  0  0  0  0  0  0
  175.5680   17.7450   46.1640 O   0  0  0  0  0  0  0  0  0  0  0  0
  177.2030   19.4980   46.3130 C   0  0  0  0  0  0  0  0  0  0  0  0
  177.5430   20.7610   46.7920 C   0  0  0  0  0  0  0  0  0  0  0  0
  178.7900   21.2260   46.4690 O   0  0  0  0  0  0  0  0  0  0  0  0
  176.6310   21.4910   47.5620 C   0  0  0  0  0  0  0  0  0  0  0  0
  176.3180   25.4850   48.7680 H   0  0  0  0  0  0  0  0  0  0  0  0
  174.4110   22.8864   51.8275 H   0  0  0  0  0  0  0  0  0  0  0  0
  172.5061   23.8727   53.1018 H   0  0  0  0  0  0  0  0  0  0  0  0
  169.5600   24.8570   51.7550 H   0  0  0  0  0  0  0  0  0  0  0  0
  170.6869   25.1502   49.4015 H   0  0  0  0  0  0  0  0  0  0  0  0
  172.5897   24.1713   48.1210 H   0  0  0  0  0  0  0  0  0  0  0  0
  174.0452   19.2674   47.6055 H   0  0  0  0  0  0  0  0  0  0  0  0
  175.5390   17.0200   46.7580 H   0  0  0  0  0  0  0  0  0  0  0  0
  177.9172   18.9205   45.7077 H   0  0  0  0  0  0  0  0  0  0  0  0
  178.9130   22.1310   46.2610 H   0  0  0  0  0  0  0  0  0  0  0  0
  1  2  2  0
  2  3  1  0
  3  4  1  0
  3  5  2  0
  5  6  1  0
  6  7  2  0
  7  8  1  0
  8  9  2  0
  9 10  1  0
  9 11  1  0
 11 12  2  0
  5 13  1  0
 13 14  1  0
 14 15  2  0
 15 16  1  0
 16 17  1  0
 16 18  2  0
 18 19  1  0
 19 20  1  0
 19 21  2  0
 21  2  1  0
 12  6  1  0
 21 14  1  0
  4 22  1  0
  7 23  1  0
  8 24  1  0
 10 25  1  0
 11 26  1  0
 12 27  1  0
 15 28  1  0
 17 29  1  0
 18 30  1  0
 20 31  1  0
M  END
>  <meeko>  (3) 
{"is_sidechain": [false], "free_energy": -6.863, "intermolecular_energy": -7.94, "internal_energy": -0.298}

$$$$
kaempferol_maoa_out
     RDKit          3D

 31 33  0  0  0  0  0  0  0  0999 V2000
  181.6150   23.1160   47.7840 O   0  0  0  0  0  0  0  0  0  0  0  0
  180.6590   22.3510   47.6760 C   0  0  0  0  0  0  0  0  0  0  0  0
  179.3860   22.6330   48.3790 C   0  0  0  0  0  0  0  0  0  0  0  0
  179.3290   23.7880   49.1380 O   0  0  0  0  0  0  0  0  0  0  0  0
  178.3650   21.7690   48.2310 C   0  0  0  0  0  0  0  0  0  0  0  0
  177.0450   21.9540   48.8720 C   0  0  0  0  0  0  0  0  0  0  0  0
  176.3700   23.1840   48.8330 C   0  0  0  0  0  0  0  0  0  0  0  0
  175.1330   23.3450   49.4660 C   0  0  0  0  0  0  0  0  0  0  0  0
  174.5700   22.2740   50.1500 C   0  0  0  0  0  0  0  0  0  0  0  0
  173.3670   22.3860   50.7800 O   0  0  0  0  0  0  0  0  0  0  0  0
  175.2230   21.0510   50.2120 C   0  0  0  0  0  0  0  0  0  0  0  0
  176.4590   20.8910   49.5790 C   0  0  0  0  0  0  0  0  0  0  0  0
  178.4260   20.6240   47.4440 O   0  0  0  0  0  0  0  0  0  0  0  0
  179.5940   20.3320   46.7860 C   0  0  0  0  0  0  0  0  0  0  0  0
  179.6160   19.1690   46.0170 C   0  0  0  0  0  0  0  0  0  0  0  0
  180.7750   18.8260   45.3270 C   0  0  0  0  0  0  0  0  0  0  0  0
  180.7550   17.6810   44.5870 O   0  0  0  0  0  0  0  0  0  0  0  0
  181.9140   19.6250   45.3910 C   0  0  0  0  0  0  0  0  0  0  0  0
  181.8860   20.7850   46.1610 C   0  0  0  0  0  0  0  0  0  0  0  0
  183.0320   21.5330   46.1890 O   0  0  0  0  0  0  0  0  0  0  0  0
  180.7260   21.1390   46.8580 C   0  0  0  0  0  0  0  0  0  0  0  0
  178.5140   24.2370   49.2450 H   0  0  0  0  0  0  0  0  0  0  0  0
  176.8199   24.0329   48.2974 H   0  0  0  0  0  0  0  0  0  0  0  0
  174.6099   24.3117   49.4228 H   0  0  0  0  0  0  0  0  0  0  0  0
  172.6260   22.7290   50.3200 H   0  0  0  0  0  0  0  0  0  0  0  0
  174.7695   20.2103   50.7575 H   0  0  0  0  0  0  0  0  0  0  0  0
  176.9781   19.9228   49.6351 H   0  0  0  0  0  0  0  0  0  0  0  0
  178.7243   18.5277   45.9562 H   0  0  0  0  0  0  0  0  0  0  0  0
  180.9450   17.7130   43.6700 H   0  0  0  0  0  0  0  0  0  0  0  0
  182.8238   19.3434   44.8405 H   0  0  0  0  0  0  0  0  0  0  0  0
  183.7050   21.3370   46.8110 H   0  0  0  0  0  0  0  0  0  0  0  0
  1  2  2  0
  2  3  1  0
  3  4  1  0
  3  5  2  0
  5  6  1  0
  6  7  2  0
  7  8  1  0
  8  9  2  0
  9 10  1  0
  9 11  1  0
 11 12  2  0
  5 13  1  0
 13 14  1  0
 14 15  2  0
 15 16  1  0
 16 17  1  0
 16 18  2  0
 18 19  1  0
 19 20  1  0
 19 21  2  0
 21  2  1  0
 12  6  1  0
 21 14  1  0
  4 22  1  0
  7 23  1  0
  8 24  1  0
 10 25  1  0
 11 26  1  0
 12 27  1  0
 15 28  1  0
 17 29  1  0
 18 30  1  0
 20 31  1  0
M  END
>  <meeko>  (4) 
{"is_sidechain": [false], "free_energy": -6.839, "intermolecular_energy": -8.197, "internal_energy": -0.012}

$$$$
kaempferol_maoa_out
     RDKit          3D

 31 33  0  0  0  0  0  0  0  0999 V2000
  179.2640   25.0710   49.4680 O   0  0  0  0  0  0  0  0  0  0  0  0
  179.4650   23.8980   49.1570 C   0  0  0  0  0  0  0  0  0  0  0  0
  178.3390   23.0180   48.7700 C   0  0  0  0  0  0  0  0  0  0  0  0
  177.0750   23.5800   48.7630 O   0  0  0  0  0  0  0  0  0  0  0  0
  178.6050   21.7420   48.4350 C   0  0  0  0  0  0  0  0  0  0  0  0
  177.5650   20.7770   48.0180 C   0  0  0  0  0  0  0  0  0  0  0  0
  176.5340   20.3810   48.8850 C   0  0  0  0  0  0  0  0  0  0  0  0
  175.5740   19.4500   48.4790 C   0  0  0  0  0  0  0  0  0  0  0  0
  175.6470   18.9030   47.2040 C   0  0  0  0  0  0  0  0  0  0  0  0
  174.7320   17.9920   46.7670 O   0  0  0  0  0  0  0  0  0  0  0  0
  176.6620   19.2700   46.3320 C   0  0  0  0  0  0  0  0  0  0  0  0
  177.6210   20.2020   46.7380 C   0  0  0  0  0  0  0  0  0  0  0  0
  179.8850   21.1960   48.4210 O   0  0  0  0  0  0  0  0  0  0  0  0
  180.9480   21.9850   48.7820 C   0  0  0  0  0  0  0  0  0  0  0  0
  182.2110   21.3950   48.7650 C   0  0  0  0  0  0  0  0  0  0  0  0
  183.3250   22.1490   49.1210 C   0  0  0  0  0  0  0  0  0  0  0  0
  184.5410   21.5350   49.0900 O   0  0  0  0  0  0  0  0  0  0  0  0
  183.1990   23.4850   49.4950 C   0  0  0  0  0  0  0  0  0  0  0  0
  181.9350   24.0690   49.5100 C   0  0  0  0  0  0  0  0  0  0  0  0
  181.8690   25.3840   49.8850 O   0  0  0  0  0  0  0  0  0  0  0  0
  180.8090   23.3190   49.1540 C   0  0  0  0  0  0  0  0  0  0  0  0
  176.8150   24.1560   49.4550 H   0  0  0  0  0  0  0  0  0  0  0  0
  176.4812   20.8091   49.8969 H   0  0  0  0  0  0  0  0  0  0  0  0
  174.7664   19.1525   49.1640 H   0  0  0  0  0  0  0  0  0  0  0  0
  174.8460   17.5740   45.9350 H   0  0  0  0  0  0  0  0  0  0  0  0
  176.7116   18.8292   45.3254 H   0  0  0  0  0  0  0  0  0  0  0  0
  178.4282   20.4882   46.0477 H   0  0  0  0  0  0  0  0  0  0  0  0
  182.3261   20.3409   48.4722 H   0  0  0  0  0  0  0  0  0  0  0  0
  185.2880   21.9920   48.7560 H   0  0  0  0  0  0  0  0  0  0  0  0
  184.0867   24.0711   49.7749 H   0  0  0  0  0  0  0  0  0  0  0  0
  182.6560   25.8790   50.0010 H   0  0  0  0  0  0  0  0  0  0  0  0
  1  2  2  0
  2  3  1  0
  3  4  1  0
  3  5  2  0
  5  6  1  0
  6  7  2  0
  7  8  1  0
  8  9  2  0
  9 10  1  0
  9 11  1  0
 11 12  2  0
  5 13  1  0
 13 14  1  0
 14 15  2  0
 15 16  1  0
 16 17  1  0
 16 18  2  0
 18 19  1  0
 19 20  1  0
 19 21  2  0
 21  2  1  0
 12  6  1  0
 21 14  1  0
  4 22  1  0
  7 23  1  0
  8 24  1  0
 10 25  1  0
 11 26  1  0
 12 27  1  0
 15 28  1  0
 17 29  1  0
 18 30  1  0
 20 31  1  0
M  END
>  <meeko>  (5) 
{"is_sidechain": [false], "free_energy": -6.728, "intermolecular_energy": -7.897, "internal_energy": -0.182}

$$$$
kaempferol_maoa_out
     RDKit          3D

 31 33  0  0  0  0  0  0  0  0999 V2000
  178.5550   25.2710   50.3250 O   0  0  0  0  0  0  0  0  0  0  0  0
  178.8550   24.1150   50.0320 C   0  0  0  0  0  0  0  0  0  0  0  0
  177.8770   23.2290   49.3620 C   0  0  0  0  0  0  0  0  0  0  0  0
  176.6350   23.7660   49.0760 O   0  0  0  0  0  0  0  0  0  0  0  0
  178.2500   21.9720   49.0580 C   0  0  0  0  0  0  0  0  0  0  0  0
  177.3640   21.0030   48.3770 C   0  0  0  0  0  0  0  0  0  0  0  0
  177.4790   20.7350   47.0040 C   0  0  0  0  0  0  0  0  0  0  0  0
  176.6150   19.8320   46.3750 C   0  0  0  0  0  0  0  0  0  0  0  0
  175.6250   19.2010   47.1180 C   0  0  0  0  0  0  0  0  0  0  0  0
  174.7630   18.3140   46.5460 O   0  0  0  0  0  0  0  0  0  0  0  0
  175.4850   19.4570   48.4750 C   0  0  0  0  0  0  0  0  0  0  0  0
  176.3490   20.3580   49.1030 C   0  0  0  0  0  0  0  0  0  0  0  0
  179.5120   21.4520   49.3280 O   0  0  0  0  0  0  0  0  0  0  0  0
  180.4380   22.2470   49.9540 C   0  0  0  0  0  0  0  0  0  0  0  0
  181.6860   21.6830   50.2150 C   0  0  0  0  0  0  0  0  0  0  0  0
  182.6640   22.4450   50.8480 C   0  0  0  0  0  0  0  0  0  0  0  0
  183.8700   21.8560   51.0840 O   0  0  0  0  0  0  0  0  0  0  0  0
  182.4170   23.7630   51.2250 C   0  0  0  0  0  0  0  0  0  0  0  0
  181.1680   24.3200   50.9620 C   0  0  0  0  0  0  0  0  0  0  0  0
  180.9790   25.6180   51.3530 O   0  0  0  0  0  0  0  0  0  0  0  0
  180.1790   23.5630   50.3260 C   0  0  0  0  0  0  0  0  0  0  0  0
  176.4800   24.1710   48.2460 H   0  0  0  0  0  0  0  0  0  0  0  0
  178.2581   21.2412   46.4152 H   0  0  0  0  0  0  0  0  0  0  0  0
  176.7188   19.6232   45.3000 H   0  0  0  0  0  0  0  0  0  0  0  0
  174.6850   17.4460   46.8910 H   0  0  0  0  0  0  0  0  0  0  0  0
  174.6971   18.9527   49.0537 H   0  0  0  0  0  0  0  0  0  0  0  0
  176.2331   20.5644   50.1772 H   0  0  0  0  0  0  0  0  0  0  0  0
  181.8963   20.6436   49.9229 H   0  0  0  0  0  0  0  0  0  0  0  0
  184.6270   22.1290   50.6030 H   0  0  0  0  0  0  0  0  0  0  0  0
  183.1979   24.3558   51.7237 H   0  0  0  0  0  0  0  0  0  0  0  0
  180.1170   25.9290   51.5490 H   0  0  0  0  0  0  0  0  0  0  0  0
  1  2  2  0
  2  3  1  0
  3  4  1  0
  3  5  2  0
  5  6  1  0
  6  7  2  0
  7  8  1  0
  8  9  2  0
  9 10  1  0
  9 11  1  0
 11 12  2  0
  5 13  1  0
 13 14  1  0
 14 15  2  0
 15 16  1  0
 16 17  1  0
 16 18  2  0
 18 19  1  0
 19 20  1  0
 19 21  2  0
 21  2  1  0
 12  6  1  0
 21 14  1  0
  4 22  1  0
  7 23  1  0
  8 24  1  0
 10 25  1  0
 11 26  1  0
 12 27  1  0
 15 28  1  0
 17 29  1  0
 18 30  1  0
 20 31  1  0
M  END
>  <meeko>  (6) 
{"is_sidechain": [false], "free_energy": -6.638, "intermolecular_energy": -7.705, "internal_energy": -0.269}

$$$$
kaempferol_maoa_out
     RDKit          3D

 31 33  0  0  0  0  0  0  0  0999 V2000
  174.7790   19.7780   48.2590 O   0  0  0  0  0  0  0  0  0  0  0  0
  175.6620   20.5660   48.5900 C   0  0  0  0  0  0  0  0  0  0  0  0
  175.4420   21.5210   49.7000 C   0  0  0  0  0  0  0  0  0  0  0  0
  174.2170   21.4690   50.3400 O   0  0  0  0  0  0  0  0  0  0  0  0
  176.4380   22.3640   50.0300 C   0  0  0  0  0  0  0  0  0  0  0  0
  176.3370   23.3490   51.1280 C   0  0  0  0  0  0  0  0  0  0  0  0
  176.3880   22.9620   52.4770 C   0  0  0  0  0  0  0  0  0  0  0  0
  176.2680   23.9070   53.5000 C   0  0  0  0  0  0  0  0  0  0  0  0
  176.0870   25.2470   53.1770 C   0  0  0  0  0  0  0  0  0  0  0  0
  175.9660   26.2010   54.1420 O   0  0  0  0  0  0  0  0  0  0  0  0
  176.0230   25.6540   51.8520 C   0  0  0  0  0  0  0  0  0  0  0  0
  176.1450   24.7080   50.8300 C   0  0  0  0  0  0  0  0  0  0  0  0
  177.6750   22.3880   49.3950 O   0  0  0  0  0  0  0  0  0  0  0  0
  177.9070   21.5200   48.3590 C   0  0  0  0  0  0  0  0  0  0  0  0
  179.1560   21.5850   47.7430 C   0  0  0  0  0  0  0  0  0  0  0  0
  179.4460   20.7260   46.6860 C   0  0  0  0  0  0  0  0  0  0  0  0
  180.6780   20.8220   46.1130 O   0  0  0  0  0  0  0  0  0  0  0  0
  178.5070   19.8020   46.2330 C   0  0  0  0  0  0  0  0  0  0  0  0
  177.2610   19.7420   46.8520 C   0  0  0  0  0  0  0  0  0  0  0  0
  176.3770   18.8160   46.3670 O   0  0  0  0  0  0  0  0  0  0  0  0
  176.9610   20.6010   47.9150 C   0  0  0  0  0  0  0  0  0  0  0  0
  173.4280   21.4290   49.8370 H   0  0  0  0  0  0  0  0  0  0  0  0
  176.5242   21.9007   52.7321 H   0  0  0  0  0  0  0  0  0  0  0  0
  176.3164   23.5926   54.5530 H   0  0  0  0  0  0  0  0  0  0  0  0
  175.1390   26.6200   54.2860 H   0  0  0  0  0  0  0  0  0  0  0  0
  175.8769   26.7163   51.6069 H   0  0  0  0  0  0  0  0  0  0  0  0
  176.0900   25.0318   49.7802 H   0  0  0  0  0  0  0  0  0  0  0  0
  179.9073   22.3099   48.0896 H   0  0  0  0  0  0  0  0  0  0  0  0
  181.0930   21.6590   46.0310 H   0  0  0  0  0  0  0  0  0  0  0  0
  178.7467   19.1284   45.3971 H   0  0  0  0  0  0  0  0  0  0  0  0
  176.1550   18.0650   46.8810 H   0  0  0  0  0  0  0  0  0  0  0  0
  1  2  2  0
  2  3  1  0
  3  4  1  0
  3  5  2  0
  5  6  1  0
  6  7  2  0
  7  8  1  0
  8  9  2  0
  9 10  1  0
  9 11  1  0
 11 12  2  0
  5 13  1  0
 13 14  1  0
 14 15  2  0
 15 16  1  0
 16 17  1  0
 16 18  2  0
 18 19  1  0
 19 20  1  0
 19 21  2  0
 21  2  1  0
 12  6  1  0
 21 14  1  0
  4 22  1  0
  7 23  1  0
  8 24  1  0
 10 25  1  0
 11 26  1  0
 12 27  1  0
 15 28  1  0
 17 29  1  0
 18 30  1  0
 20 31  1  0
M  END
>  <meeko>  (7) 
{"is_sidechain": [false], "free_energy": -6.61, "intermolecular_energy": -7.682, "internal_energy": -0.258}

$$$$
kaempferol_maoa_out
     RDKit          3D

 31 33  0  0  0  0  0  0  0  0999 V2000
  180.3710   22.6110   51.8530 O   0  0  0  0  0  0  0  0  0  0  0  0
  179.6140   22.4210   50.9030 C   0  0  0  0  0  0  0  0  0  0  0  0
  178.2280   22.9410   50.9300 C   0  0  0  0  0  0  0  0  0  0  0  0
  177.8430   23.6480   52.0540 O   0  0  0  0  0  0  0  0  0  0  0  0
  177.4350   22.7120   49.8670 C   0  0  0  0  0  0  0  0  0  0  0  0
  176.0390   23.1930   49.7750 C   0  0  0  0  0  0  0  0  0  0  0  0
  175.7300   24.5620   49.7410 C   0  0  0  0  0  0  0  0  0  0  0  0
  174.4030   24.9970   49.6780 C   0  0  0  0  0  0  0  0  0  0  0  0
  173.3760   24.0600   49.6580 C   0  0  0  0  0  0  0  0  0  0  0  0
  172.0690   24.4390   49.5960 O   0  0  0  0  0  0  0  0  0  0  0  0
  173.6550   22.7020   49.7010 C   0  0  0  0  0  0  0  0  0  0  0  0
  174.9830   22.2680   49.7630 C   0  0  0  0  0  0  0  0  0  0  0  0
  177.8430   22.0210   48.7300 O   0  0  0  0  0  0  0  0  0  0  0  0
  179.1190   21.5220   48.6790 C   0  0  0  0  0  0  0  0  0  0  0  0
  179.4840   20.8270   47.5260 C   0  0  0  0  0  0  0  0  0  0  0  0
  180.7680   20.3000   47.4200 C   0  0  0  0  0  0  0  0  0  0  0  0
  181.0830   19.6280   46.2770 O   0  0  0  0  0  0  0  0  0  0  0  0
  181.6960   20.4560   48.4470 C   0  0  0  0  0  0  0  0  0  0  0  0
  181.3260   21.1510   49.5960 C   0  0  0  0  0  0  0  0  0  0  0  0
  182.2770   21.2740   50.5730 O   0  0  0  0  0  0  0  0  0  0  0  0
  180.0380   21.6840   49.7120 C   0  0  0  0  0  0  0  0  0  0  0  0
  177.5680   24.5400   51.9740 H   0  0  0  0  0  0  0  0  0  0  0  0
  176.5431   25.3025   49.7643 H   0  0  0  0  0  0  0  0  0  0  0  0
  174.1731   26.0722   49.6445 H   0  0  0  0  0  0  0  0  0  0  0  0
  171.4310   24.0120   50.1340 H   0  0  0  0  0  0  0  0  0  0  0  0
  172.8348   21.9692   49.6864 H   0  0  0  0  0  0  0  0  0  0  0  0
  175.2024   21.1908   49.8028 H   0  0  0  0  0  0  0  0  0  0  0  0
  178.7622   20.6963   46.7063 H   0  0  0  0  0  0  0  0  0  0  0  0
  181.8090   19.0360   46.2680 H   0  0  0  0  0  0  0  0  0  0  0  0
  182.7081   20.0357   48.3518 H   0  0  0  0  0  0  0  0  0  0  0  0
  183.0980   20.8320   50.4870 H   0  0  0  0  0  0  0  0  0  0  0  0
  1  2  2  0
  2  3  1  0
  3  4  1  0
  3  5  2  0
  5  6  1  0
  6  7  2  0
  7  8  1  0
  8  9  2  0
  9 10  1  0
  9 11  1  0
 11 12  2  0
  5 13  1  0
 13 14  1  0
 14 15  2  0
 15 16  1  0
 16 17  1  0
 16 18  2  0
 18 19  1  0
 19 20  1  0
 19 21  2  0
 21  2  1  0
 12  6  1  0
 21 14  1  0
  4 22  1  0
  7 23  1  0
  8 24  1  0
 10 25  1  0
 11 26  1  0
 12 27  1  0
 15 28  1  0
 17 29  1  0
 18 30  1  0
 20 31  1  0
M  END
>  <meeko>  (8) 
{"is_sidechain": [false], "free_energy": -6.596, "intermolecular_energy": -7.735, "internal_energy": -0.189}

$$$$
kaempferol_maoa_out
     RDKit          3D

 31 33  0  0  0  0  0  0  0  0999 V2000
  176.0630   22.7820   49.7160 O   0  0  0  0  0  0  0  0  0  0  0  0
  176.8700   22.1520   49.0360 C   0  0  0  0  0  0  0  0  0  0  0  0
  178.3010   22.5320   49.0220 C   0  0  0  0  0  0  0  0  0  0  0  0
  178.6750   23.6040   49.8110 O   0  0  0  0  0  0  0  0  0  0  0  0
  179.1500   21.8120   48.2650 C   0  0  0  0  0  0  0  0  0  0  0  0
  180.6010   22.0890   48.1840 C   0  0  0  0  0  0  0  0  0  0  0  0
  181.0940   23.3260   47.7400 C   0  0  0  0  0  0  0  0  0  0  0  0
  182.4690   23.5600   47.6480 C   0  0  0  0  0  0  0  0  0  0  0  0
  183.3590   22.5500   47.9950 C   0  0  0  0  0  0  0  0  0  0  0  0
  184.7070   22.7340   47.9210 O   0  0  0  0  0  0  0  0  0  0  0  0
  182.8970   21.3150   48.4270 C   0  0  0  0  0  0  0  0  0  0  0  0
  181.5220   21.0830   48.5190 C   0  0  0  0  0  0  0  0  0  0  0  0
  178.7660   20.7190   47.4960 O   0  0  0  0  0  0  0  0  0  0  0  0
  177.4460   20.3470   47.4830 C   0  0  0  0  0  0  0  0  0  0  0  0
  177.1020   19.2530   46.6900 C   0  0  0  0  0  0  0  0  0  0  0  0
  175.7760   18.8320   46.6400 C   0  0  0  0  0  0  0  0  0  0  0  0
  175.4830   17.7590   45.8530 O   0  0  0  0  0  0  0  0  0  0  0  0
  174.7860   19.4860   47.3690 C   0  0  0  0  0  0  0  0  0  0  0  0
  175.1350   20.5780   48.1590 C   0  0  0  0  0  0  0  0  0  0  0  0
  174.1240   21.1830   48.8550 O   0  0  0  0  0  0  0  0  0  0  0  0
  176.4650   21.0090   48.2160 C   0  0  0  0  0  0  0  0  0  0  0  0
  179.2140   24.2820   49.4550 H   0  0  0  0  0  0  0  0  0  0  0  0
  180.3884   24.1223   47.4606 H   0  0  0  0  0  0  0  0  0  0  0  0
  182.8437   24.5353   47.3039 H   0  0  0  0  0  0  0  0  0  0  0  0
  185.0560   23.5890   47.7560 H   0  0  0  0  0  0  0  0  0  0  0  0
  183.6101   20.5218   48.6959 H   0  0  0  0  0  0  0  0  0  0  0  0
  181.1571   20.1020   48.8574 H   0  0  0  0  0  0  0  0  0  0  0  0
  177.8728   18.7264   46.1081 H   0  0  0  0  0  0  0  0  0  0  0  0
  174.6890   17.2790   45.9920 H   0  0  0  0  0  0  0  0  0  0  0  0
  173.7415   19.1442   47.3213 H   0  0  0  0  0  0  0  0  0  0  0  0
  174.2430   22.0450   49.2030 H   0  0  0  0  0  0  0  0  0  0  0  0
  1  2  2  0
  2  3  1  0
  3  4  1  0
  3  5  2  0
  5  6  1  0
  6  7  2  0
  7  8  1  0
  8  9  2  0
  9 10  1  0
  9 11  1  0
 11 12  2  0
  5 13  1  0
 13 14  1  0
 14 15  2  0
 15 16  1  0
 16 17  1  0
 16 18  2  0
 18 19  1  0
 19 20  1  0
 19 21  2  0
 21  2  1  0
 12  6  1  0
 21 14  1  0
  4 22  1  0
  7 23  1  0
  8 24  1  0
 10 25  1  0
 11 26  1  0
 12 27  1  0
 15 28  1  0
 17 29  1  0
 18 30  1  0
 20 31  1  0
M  END
>  <meeko>  (9) 
{"is_sidechain": [false], "free_energy": -6.578, "intermolecular_energy": -7.753, "internal_energy": -0.15}

$$$$
