lazabemide_out
     RDKit          3D

 24 24  0  0  0  0  0  0  0  0999 V2000
  181.0750   15.1180   40.4510 N   0  0  0  0  0  0  0  0  0  0  0  0
  180.9060   16.2960   41.3120 C   0  0  0  0  0  0  0  0  0  0  0  0
  181.2930   16.0000   42.7680 C   0  0  0  0  0  0  0  0  0  0  0  0
  181.1960   17.1730   43.6150 N   0  0  0  0  0  0  0  0  0  0  0  0
  180.5250   17.1740   44.8170 C   0  0  0  0  0  0  0  0  0  0  0  0
  180.0160   16.1790   45.3190 O   0  0  0  0  0  0  0  0  0  0  0  0
  180.4420   18.5170   45.4770 C   0  0  0  0  0  0  0  0  0  0  0  0
  179.2390   18.9440   46.0300 C   0  0  0  0  0  0  0  0  0  0  0  0
  179.1970   20.2010   46.6320 C   0  0  0  0  0  0  0  0  0  0  0  0
  180.3490   20.9800   46.6600 C   0  0  0  0  0  0  0  0  0  0  0  0
  180.3370   22.5320   47.3940 Cl  0  0  0  0  0  0  0  0  0  0  0  0
  181.5060   20.4750   46.0820 C   0  0  0  0  0  0  0  0  0  0  0  0
  181.5870   19.2600   45.4860 N   0  0  0  0  0  0  0  0  0  0  0  0
  182.0630   14.9990   40.2290 H   0  0  0  0  0  0  0  0  0  0  0  0
  180.5450   15.2480   39.5900 H   0  0  0  0  0  0  0  0  0  0  0  0
  180.7350   14.2890   40.9390 H   0  0  0  0  0  0  0  0  0  0  0  0
  181.5432   17.1084   40.9326 H   0  0  0  0  0  0  0  0  0  0  0  0
  179.8444   16.5834   41.2927 H   0  0  0  0  0  0  0  0  0  0  0  0
  180.6205   15.2235   43.1614 H   0  0  0  0  0  0  0  0  0  0  0  0
  182.3413   15.6667   42.7754 H   0  0  0  0  0  0  0  0  0  0  0  0
  181.6310   18.0060   43.3170 H   0  0  0  0  0  0  0  0  0  0  0  0
  178.3436   18.3061   45.9933 H   0  0  0  0  0  0  0  0  0  0  0  0
  178.2634   20.5724   47.0797 H   0  0  0  0  0  0  0  0  0  0  0  0
  182.4118   21.0985   46.1093 H   0  0  0  0  0  0  0  0  0  0  0  0
  1  2  1  0
  2  3  1  0
  3  4  1  0
  4  5  1  0
  5  6  2  0
  5  7  1  0
  7  8  2  0
  8  9  1  0
  9 10  2  0
 10 11  1  0
 10 12  1  0
 12 13  2  0
 13  7  1  0
  1 14  1  0
  1 15  1  0
  1 16  1  0
  2 17  1  0
  2 18  1  0
  3 19  1  0
  3 20  1  0
  4 21  1  0
  8 22  1  0
  9 23  1  0
 12 24  1  0
M  CHG  1   1   1
M  END
>  <meeko>  (1) 
{"is_sidechain": [false], "free_energy": -4.878, "intermolecular_energy": -5.876, "internal_energy": -0.134}

$$$$
lazabemide_out
     RDKit          3D

 24 24  0  0  0  0  0  0  0  0999 V2000
  177.3970   25.4290   53.2150 N   0  0  0  0  0  0  0  0  0  0  0  0
  176.0530   24.8870   52.9740 C   0  0  0  0  0  0  0  0  0  0  0  0
  175.9630   23.3980   53.3380 C   0  0  0  0  0  0  0  0  0  0  0  0
  175.9800   22.5420   52.1680 N   0  0  0  0  0  0  0  0  0  0  0  0
  177.1370   22.2170   51.4960 C   0  0  0  0  0  0  0  0  0  0  0  0
  178.2580   22.5510   51.8590 O   0  0  0  0  0  0  0  0  0  0  0  0
  176.9220   21.4200   50.2450 C   0  0  0  0  0  0  0  0  0  0  0  0
  175.9030   20.4750   50.1920 C   0  0  0  0  0  0  0  0  0  0  0  0
  175.7360   19.7480   49.0130 C   0  0  0  0  0  0  0  0  0  0  0  0
  176.5860   19.9900   47.9390 C   0  0  0  0  0  0  0  0  0  0  0  0
  176.4110   19.1170   46.4720 Cl  0  0  0  0  0  0  0  0  0  0  0  0
  177.5780   20.9510   48.0810 C   0  0  0  0  0  0  0  0  0  0  0  0
  177.7740   21.6760   49.2100 N   0  0  0  0  0  0  0  0  0  0  0  0
  178.0650   24.6610   53.2830 H   0  0  0  0  0  0  0  0  0  0  0  0
  177.3980   25.9600   54.0850 H   0  0  0  0  0  0  0  0  0  0  0  0
  177.6600   26.0410   52.4420 H   0  0  0  0  0  0  0  0  0  0  0  0
  175.3290   25.4468   53.5843 H   0  0  0  0  0  0  0  0  0  0  0  0
  175.8308   24.9901   51.9016 H   0  0  0  0  0  0  0  0  0  0  0  0
  176.8189   23.1383   53.9784 H   0  0  0  0  0  0  0  0  0  0  0  0
  175.0074   23.2366   53.8583 H   0  0  0  0  0  0  0  0  0  0  0  0
  175.1260   22.1760   51.8400 H   0  0  0  0  0  0  0  0  0  0  0  0
  175.2456   20.3051   51.0574 H   0  0  0  0  0  0  0  0  0  0  0  0
  174.9410   18.9919   48.9337 H   0  0  0  0  0  0  0  0  0  0  0  0
  178.2452   21.1353   47.2261 H   0  0  0  0  0  0  0  0  0  0  0  0
  1  2  1  0
  2  3  1  0
  3  4  1  0
  4  5  1  0
  5  6  2  0
  5  7  1  0
  7  8  2  0
  8  9  1  0
  9 10  2  0
 10 11  1  0
 10 12  1  0
 12 13  2  0
 13  7  1  0
  1 14  1  0
  1 15  1  0
  1 16  1  0
  2 17  1  0
  2 18  1  0
  3 19  1  0
  3 20  1  0
  4 21  1  0
  8 22  1  0
  9 23  1  0
 12 24  1  0
M  CHG  1   1   1
M  END
>  <meeko>  (2) 
{"is_sidechain": [false], "free_energy": -4.71, "intermolecular_energy": -5.482, "internal_energy": -0.326}

$$$$
lazabemide_out
     RDKit          3D

 24 24  0  0  0  0  0  0  0  0999 V2000
  174.0640   21.9150   50.3540 N   0  0  0  0  0  0  0  0  0  0  0  0
  175.2460   22.7670   50.5400 C   0  0  0  0  0  0  0  0  0  0  0  0
  175.6270   23.5060   49.2490 C   0  0  0  0  0  0  0  0  0  0  0  0
  176.7000   22.8470   48.5310 N   0  0  0  0  0  0  0  0  0  0  0  0
  176.5020   21.7320   47.7490 C   0  0  0  0  0  0  0  0  0  0  0  0
  175.4030   21.2380   47.5240 O   0  0  0  0  0  0  0  0  0  0  0  0
  177.7580   21.1360   47.1920 C   0  0  0  0  0  0  0  0  0  0  0  0
  177.7670   19.8120   46.7650 C   0  0  0  0  0  0  0  0  0  0  0  0
  178.9560   19.2890   46.2570 C   0  0  0  0  0  0  0  0  0  0  0  0
  180.0840   20.1000   46.1940 C   0  0  0  0  0  0  0  0  0  0  0  0
  181.5640   19.4930   45.5730 Cl  0  0  0  0  0  0  0  0  0  0  0  0
  179.9850   21.4100   46.6440 C   0  0  0  0  0  0  0  0  0  0  0  0
  178.8490   21.9540   47.1460 N   0  0  0  0  0  0  0  0  0  0  0  0
  174.3000   20.9510   50.5850 H   0  0  0  0  0  0  0  0  0  0  0  0
  173.7570   21.9690   49.3830 H   0  0  0  0  0  0  0  0  0  0  0  0
  173.3140   22.2370   50.9660 H   0  0  0  0  0  0  0  0  0  0  0  0
  175.0306   23.5081   51.3238 H   0  0  0  0  0  0  0  0  0  0  0  0
  176.0900   22.1220   50.8258 H   0  0  0  0  0  0  0  0  0  0  0  0
  174.7431   23.5551   48.5961 H   0  0  0  0  0  0  0  0  0  0  0  0
  175.9779   24.5103   49.5286 H   0  0  0  0  0  0  0  0  0  0  0  0
  177.6110   23.2140   48.6060 H   0  0  0  0  0  0  0  0  0  0  0  0
  176.8595   19.1934   46.8265 H   0  0  0  0  0  0  0  0  0  0  0  0
  179.0010   18.2462   45.9099 H   0  0  0  0  0  0  0  0  0  0  0  0
  180.8820   22.0444   46.5900 H   0  0  0  0  0  0  0  0  0  0  0  0
  1  2  1  0
  2  3  1  0
  3  4  1  0
  4  5  1  0
  5  6  2  0
  5  7  1  0
  7  8  2  0
  8  9  1  0
  9 10  2  0
 10 11  1  0
 10 12  1  0
 12 13  2  0
 13  7  1  0
  1 14  1  0
  1 15  1  0
  1 16  1  0
  2 17  1  0
  2 18  1  0
  3 19  1  0
  3 20  1  0
  4 21  1  0
  8 22  1  0
  9 23  1  0
 12 24  1  0
M  CHG  1   1   1
M  END
>  <meeko>  (3) 
{"is_sidechain": [false], "free_energy": -4.621, "intermolecular_energy": -5.354, "internal_energy": -0.347}

$$$$
lazabemide_out
     RDKit          3D

 24 24  0  0  0  0  0  0  0  0999 V2000
  175.1200   20.3180   50.3380 N   0  0  0  0  0  0  0  0  0  0  0  0
  174.9730   21.6520   49.7430 C   0  0  0  0  0  0  0  0  0  0  0  0
  174.9690   21.5960   48.2080 C   0  0  0  0  0  0  0  0  0  0  0  0
  176.3070   21.5550   47.6530 N   0  0  0  0  0  0  0  0  0  0  0  0
  176.9870   20.3790   47.4280 C   0  0  0  0  0  0  0  0  0  0  0  0
  176.5060   19.2650   47.6000 O   0  0  0  0  0  0  0  0  0  0  0  0
  178.4000   20.5610   46.9620 C   0  0  0  0  0  0  0  0  0  0  0  0
  178.8070   20.0090   45.7520 C   0  0  0  0  0  0  0  0  0  0  0  0
  180.1310   20.1940   45.3530 C   0  0  0  0  0  0  0  0  0  0  0  0
  180.9920   20.9170   46.1710 C   0  0  0  0  0  0  0  0  0  0  0  0
  182.6270   21.1670   45.7130 Cl  0  0  0  0  0  0  0  0  0  0  0  0
  180.5000   21.4320   47.3630 C   0  0  0  0  0  0  0  0  0  0  0  0
  179.2220   21.2720   47.7860 N   0  0  0  0  0  0  0  0  0  0  0  0
  176.0710   20.2040   50.6870 H   0  0  0  0  0  0  0  0  0  0  0  0
  174.9280   19.6080   49.6310 H   0  0  0  0  0  0  0  0  0  0  0  0
  174.4600   20.2160   51.1100 H   0  0  0  0  0  0  0  0  0  0  0  0
  174.0247   22.0919   50.0855 H   0  0  0  0  0  0  0  0  0  0  0  0
  175.8306   22.2636   50.0601 H   0  0  0  0  0  0  0  0  0  0  0  0
  174.4264   20.6939   47.8889 H   0  0  0  0  0  0  0  0  0  0  0  0
  174.4814   22.5109   47.8404 H   0  0  0  0  0  0  0  0  0  0  0  0
  176.7490   22.4060   47.4260 H   0  0  0  0  0  0  0  0  0  0  0  0
  178.1031   19.4412   45.1258 H   0  0  0  0  0  0  0  0  0  0  0  0
  180.4896   19.7727   44.4022 H   0  0  0  0  0  0  0  0  0  0  0  0
  181.1885   22.0041   48.0023 H   0  0  0  0  0  0  0  0  0  0  0  0
  1  2  1  0
  2  3  1  0
  3  4  1  0
  4  5  1  0
  5  6  2  0
  5  7  1  0
  7  8  2  0
  8  9  1  0
  9 10  2  0
 10 11  1  0
 10 12  1  0
 12 13  2  0
 13  7  1  0
  1 14  1  0
  1 15  1  0
  1 16  1  0
  2 17  1  0
  2 18  1  0
  3 19  1  0
  3 20  1  0
  4 21  1  0
  8 22  1  0
  9 23  1  0
 12 24  1  0
M  CHG  1   1   1
M  END
>  <meeko>  (4) 
{"is_sidechain": [false], "free_energy": -4.621, "intermolecular_energy": -5.383, "internal_energy": -0.317}

$$$$
lazabemide_out
     RDKit          3D

 24 24  0  0  0  0  0  0  0  0999 V2000
  183.4270   21.8690   51.1200 N   0  0  0  0  0  0  0  0  0  0  0  0
  182.5780   22.9520   50.6070 C   0  0  0  0  0  0  0  0  0  0  0  0
  181.2280   23.0150   51.3390 C   0  0  0  0  0  0  0  0  0  0  0  0
  180.1610   22.3880   50.5850 N   0  0  0  0  0  0  0  0  0  0  0  0
  178.8320   22.5250   50.9170 C   0  0  0  0  0  0  0  0  0  0  0  0
  178.4210   23.2410   51.8230 O   0  0  0  0  0  0  0  0  0  0  0  0
  177.8990   21.7010   50.0830 C   0  0  0  0  0  0  0  0  0  0  0  0
  176.7630   21.1410   50.6610 C   0  0  0  0  0  0  0  0  0  0  0  0
  175.9200   20.3760   49.8560 C   0  0  0  0  0  0  0  0  0  0  0  0
  176.2380   20.1980   48.5140 C   0  0  0  0  0  0  0  0  0  0  0  0
  175.2240   19.2640   47.4920 Cl  0  0  0  0  0  0  0  0  0  0  0  0
  177.3930   20.7920   48.0210 C   0  0  0  0  0  0  0  0  0  0  0  0
  178.2380   21.5400   48.7710 N   0  0  0  0  0  0  0  0  0  0  0  0
  183.4730   21.1180   50.4310 H   0  0  0  0  0  0  0  0  0  0  0  0
  183.0320   21.5110   51.9890 H   0  0  0  0  0  0  0  0  0  0  0  0
  184.3650   22.2270   51.2950 H   0  0  0  0  0  0  0  0  0  0  0  0
  183.1017   23.9097   50.7430 H   0  0  0  0  0  0  0  0  0  0  0  0
  182.3808   22.7566   49.5426 H   0  0  0  0  0  0  0  0  0  0  0  0
  181.3264   22.5008   52.3064 H   0  0  0  0  0  0  0  0  0  0  0  0
  180.9672   24.0755   51.4709 H   0  0  0  0  0  0  0  0  0  0  0  0
  180.3970   21.8420   49.8000 H   0  0  0  0  0  0  0  0  0  0  0  0
  176.5363   21.2981   51.7258 H   0  0  0  0  0  0  0  0  0  0  0  0
  175.0131   19.9182   50.2779 H   0  0  0  0  0  0  0  0  0  0  0  0
  177.6361   20.6464   46.9581 H   0  0  0  0  0  0  0  0  0  0  0  0
  1  2  1  0
  2  3  1  0
  3  4  1  0
  4  5  1  0
  5  6  2  0
  5  7  1  0
  7  8  2  0
  8  9  1  0
  9 10  2  0
 10 11  1  0
 10 12  1  0
 12 13  2  0
 13  7  1  0
  1 14  1  0
  1 15  1  0
  1 16  1  0
  2 17  1  0
  2 18  1  0
  3 19  1  0
  3 20  1  0
  4 21  1  0
  8 22  1  0
  9 23  1  0
 12 24  1  0
M  CHG  1   1   1
M  END
>  <meeko>  (5) 
{"is_sidechain": [false], "free_energy": -4.593, "intermolecular_energy": -5.529, "internal_energy": -0.138}

$$$$
lazabemide_out
     RDKit          3D

 24 24  0  0  0  0  0  0  0  0999 V2000
  173.6870   22.2760   50.7270 N   0  0  0  0  0  0  0  0  0  0  0  0
  174.9250   23.0510   50.8780 C   0  0  0  0  0  0  0  0  0  0  0  0
  175.3190   23.7600   49.5730 C   0  0  0  0  0  0  0  0  0  0  0  0
  176.2830   23.0020   48.8010 N   0  0  0  0  0  0  0  0  0  0  0  0
  175.9460   21.8760   48.0840 C   0  0  0  0  0  0  0  0  0  0  0  0
  174.8010   21.4530   47.9680 O   0  0  0  0  0  0  0  0  0  0  0  0
  177.1100   21.1730   47.4540 C   0  0  0  0  0  0  0  0  0  0  0  0
  178.3180   21.8430   47.2900 C   0  0  0  0  0  0  0  0  0  0  0  0
  179.3780   21.1580   46.6960 C   0  0  0  0  0  0  0  0  0  0  0  0
  179.1940   19.8410   46.2900 C   0  0  0  0  0  0  0  0  0  0  0  0
  180.4750   18.9660   45.5560 Cl  0  0  0  0  0  0  0  0  0  0  0  0
  177.9530   19.2510   46.4910 C   0  0  0  0  0  0  0  0  0  0  0  0
  176.8990   19.8830   47.0630 N   0  0  0  0  0  0  0  0  0  0  0  0
  173.3950   22.2900   49.7500 H   0  0  0  0  0  0  0  0  0  0  0  0
  172.9560   22.6880   51.3070 H   0  0  0  0  0  0  0  0  0  0  0  0
  173.8510   21.3130   51.0200 H   0  0  0  0  0  0  0  0  0  0  0  0
  174.7778   23.8071   51.6633 H   0  0  0  0  0  0  0  0  0  0  0  0
  175.7332   22.3544   51.1453 H   0  0  0  0  0  0  0  0  0  0  0  0
  174.4149   23.9060   48.9636 H   0  0  0  0  0  0  0  0  0  0  0  0
  175.7845   24.7200   49.8406 H   0  0  0  0  0  0  0  0  0  0  0  0
  177.2190   23.3060   48.7870 H   0  0  0  0  0  0  0  0  0  0  0  0
  178.4343   22.8858   47.6201 H   0  0  0  0  0  0  0  0  0  0  0  0
  180.3488   21.6543   46.5504 H   0  0  0  0  0  0  0  0  0  0  0  0
  177.8172   18.2087   46.1667 H   0  0  0  0  0  0  0  0  0  0  0  0
  1  2  1  0
  2  3  1  0
  3  4  1  0
  4  5  1  0
  5  6  2  0
  5  7  1  0
  7  8  2  0
  8  9  1  0
  9 10  2  0
 10 11  1  0
 10 12  1  0
 12 13  2  0
 13  7  1  0
  1 14  1  0
  1 15  1  0
  1 16  1  0
  2 17  1  0
  2 18  1  0
  3 19  1  0
  3 20  1  0
  4 21  1  0
  8 22  1  0
  9 23  1  0
 12 24  1  0
M  CHG  1   1   1
M  END
>  <meeko>  (6) 
{"is_sidechain": [false], "free_energy": -4.574, "intermolecular_energy": -5.329, "internal_energy": -0.315}

$$$$
lazabemide_out
     RDKit          3D

 24 24  0  0  0  0  0  0  0  0999 V2000
  183.0530   21.1310   48.4180 N   0  0  0  0  0  0  0  0  0  0  0  0
  183.0640   22.5100   47.9150 C   0  0  0  0  0  0  0  0  0  0  0  0
  181.6790   23.1660   48.0130 C   0  0  0  0  0  0  0  0  0  0  0  0
  180.6100   22.2560   47.6510 N   0  0  0  0  0  0  0  0  0  0  0  0
  179.3390   22.6840   47.3380 C   0  0  0  0  0  0  0  0  0  0  0  0
  179.0100   23.8620   47.2620 O   0  0  0  0  0  0  0  0  0  0  0  0
  178.3540   21.5780   47.1100 C   0  0  0  0  0  0  0  0  0  0  0  0
  178.8030   20.3160   46.7330 C   0  0  0  0  0  0  0  0  0  0  0  0
  177.8570   19.3130   46.5240 C   0  0  0  0  0  0  0  0  0  0  0  0
  176.5080   19.6030   46.6970 C   0  0  0  0  0  0  0  0  0  0  0  0
  175.3150   18.3940   46.4510 Cl  0  0  0  0  0  0  0  0  0  0  0  0
  176.1490   20.8910   47.0740 C   0  0  0  0  0  0  0  0  0  0  0  0
  177.0380   21.8930   47.2840 N   0  0  0  0  0  0  0  0  0  0  0  0
  184.0010   20.7560   48.4020 H   0  0  0  0  0  0  0  0  0  0  0  0
  182.4500   20.5590   47.8260 H   0  0  0  0  0  0  0  0  0  0  0  0
  182.6980   21.1210   49.3740 H   0  0  0  0  0  0  0  0  0  0  0  0
  183.7793   23.0991   48.5077 H   0  0  0  0  0  0  0  0  0  0  0  0
  183.3547   22.4839   46.8544 H   0  0  0  0  0  0  0  0  0  0  0  0
  181.5204   23.5036   49.0478 H   0  0  0  0  0  0  0  0  0  0  0  0
  181.6561   24.0087   47.3063 H   0  0  0  0  0  0  0  0  0  0  0  0
  180.8010   21.2910   47.6270 H   0  0  0  0  0  0  0  0  0  0  0  0
  179.8766   20.1147   46.6032 H   0  0  0  0  0  0  0  0  0  0  0  0
  178.1745   18.3030   46.2254 H   0  0  0  0  0  0  0  0  0  0  0  0
  175.0799   21.1110   47.2103 H   0  0  0  0  0  0  0  0  0  0  0  0
  1  2  1  0
  2  3  1  0
  3  4  1  0
  4  5  1  0
  5  6  2  0
  5  7  1  0
  7  8  2  0
  8  9  1  0
  9 10  2  0
 10 11  1  0
 10 12  1  0
 12 13  2  0
 13  7  1  0
  1 14  1  0
  1 15  1  0
  1 16  1  0
  2 17  1  0
  2 18  1  0
  3 19  1  0
  3 20  1  0
  4 21  1  0
  8 22  1  0
  9 23  1  0
 12 24  1  0
M  CHG  1   1   1
M  END
>  <meeko>  (7) 
{"is_sidechain": [false], "free_energy": -4.557, "intermolecular_energy": -5.469, "internal_energy": -0.154}

$$$$
lazabemide_out
     RDKit          3D

 24 24  0  0  0  0  0  0  0  0999 V2000
  184.0290   21.5070   48.9540 N   0  0  0  0  0  0  0  0  0  0  0  0
  183.2640   22.7310   48.6830 C   0  0  0  0  0  0  0  0  0  0  0  0
  182.5540   22.6720   47.3220 C   0  0  0  0  0  0  0  0  0  0  0  0
  181.1900   22.1940   47.4310 N   0  0  0  0  0  0  0  0  0  0  0  0
  180.8620   20.8570   47.4000 C   0  0  0  0  0  0  0  0  0  0  0  0
  181.6850   19.9500   47.3560 O   0  0  0  0  0  0  0  0  0  0  0  0
  179.3890   20.5810   47.4060 C   0  0  0  0  0  0  0  0  0  0  0  0
  178.8540   19.6550   46.5170 C   0  0  0  0  0  0  0  0  0  0  0  0
  177.4780   19.4270   46.5470 C   0  0  0  0  0  0  0  0  0  0  0  0
  176.6930   20.1270   47.4570 C   0  0  0  0  0  0  0  0  0  0  0  0
  174.9980   19.8730   47.5250 Cl  0  0  0  0  0  0  0  0  0  0  0  0
  177.3120   21.0350   48.3070 C   0  0  0  0  0  0  0  0  0  0  0  0
  178.6440   21.2850   48.3070 N   0  0  0  0  0  0  0  0  0  0  0  0
  184.8410   21.4710   48.3390 H   0  0  0  0  0  0  0  0  0  0  0  0
  183.4380   20.6930   48.7860 H   0  0  0  0  0  0  0  0  0  0  0  0
  184.3380   21.5080   49.9260 H   0  0  0  0  0  0  0  0  0  0  0  0
  182.5094   22.8611   49.4727 H   0  0  0  0  0  0  0  0  0  0  0  0
  183.9677   23.5763   48.6645 H   0  0  0  0  0  0  0  0  0  0  0  0
  182.5407   23.6820   46.8863 H   0  0  0  0  0  0  0  0  0  0  0  0
  183.1071   21.9658   46.6853 H   0  0  0  0  0  0  0  0  0  0  0  0
  180.4660   22.8540   47.5320 H   0  0  0  0  0  0  0  0  0  0  0  0
  179.4995   19.1159   45.8080 H   0  0  0  0  0  0  0  0  0  0  0  0
  177.0191   18.7019   45.8588 H   0  0  0  0  0  0  0  0  0  0  0  0
  176.6831   21.5841   49.0232 H   0  0  0  0  0  0  0  0  0  0  0  0
  1  2  1  0
  2  3  1  0
  3  4  1  0
  4  5  1  0
  5  6  2  0
  5  7  1  0
  7  8  2  0
  8  9  1  0
  9 10  2  0
 10 11  1  0
 10 12  1  0
 12 13  2  0
 13  7  1  0
  1 14  1  0
  1 15  1  0
  1 16  1  0
  2 17  1  0
  2 18  1  0
  3 19  1  0
  3 20  1  0
  4 21  1  0
  8 22  1  0
  9 23  1  0
 12 24  1  0
M  CHG  1   1   1
M  END
>  <meeko>  (8) 
{"is_sidechain": [false], "free_energy": -4.536, "intermolecular_energy": -5.247, "internal_energy": -0.351}

$$$$
lazabemide_out
     RDKit          3D

 24 24  0  0  0  0  0  0  0  0999 V2000
  183.1470   21.6910   51.0850 N   0  0  0  0  0  0  0  0  0  0  0  0
  184.0080   22.6080   50.3270 C   0  0  0  0  0  0  0  0  0  0  0  0
  183.9930   22.2930   48.8230 C   0  0  0  0  0  0  0  0  0  0  0  0
  182.7390   21.7070   48.3940 N   0  0  0  0  0  0  0  0  0  0  0  0
  182.3730   21.6130   47.0700 C   0  0  0  0  0  0  0  0  0  0  0  0
  183.0930   21.9420   46.1340 O   0  0  0  0  0  0  0  0  0  0  0  0
  180.9880   21.0850   46.8470 C   0  0  0  0  0  0  0  0  0  0  0  0
  180.8090   19.8030   46.3370 C   0  0  0  0  0  0  0  0  0  0  0  0
  179.5060   19.3470   46.1380 C   0  0  0  0  0  0  0  0  0  0  0  0
  178.4380   20.1800   46.4530 C   0  0  0  0  0  0  0  0  0  0  0  0
  176.8220   19.6530   46.2230 Cl  0  0  0  0  0  0  0  0  0  0  0  0
  178.7100   21.4460   46.9560 C   0  0  0  0  0  0  0  0  0  0  0  0
  179.9610   21.9270   47.1620 N   0  0  0  0  0  0  0  0  0  0  0  0
  183.6140   21.4240   51.9510 H   0  0  0  0  0  0  0  0  0  0  0  0
  182.9610   20.8590   50.5260 H   0  0  0  0  0  0  0  0  0  0  0  0
  182.2660   22.1570   51.3050 H   0  0  0  0  0  0  0  0  0  0  0  0
  183.6521   23.6377   50.4787 H   0  0  0  0  0  0  0  0  0  0  0  0
  185.0391   22.4883   50.6911 H   0  0  0  0  0  0  0  0  0  0  0  0
  184.1559   23.2268   48.2648 H   0  0  0  0  0  0  0  0  0  0  0  0
  184.7902   21.5612   48.6255 H   0  0  0  0  0  0  0  0  0  0  0  0
  182.1230   21.3590   49.0790 H   0  0  0  0  0  0  0  0  0  0  0  0
  181.6727   19.1655   46.0969 H   0  0  0  0  0  0  0  0  0  0  0  0
  179.3251   18.3391   45.7361 H   0  0  0  0  0  0  0  0  0  0  0  0
  177.8589   22.0979   47.2022 H   0  0  0  0  0  0  0  0  0  0  0  0
  1  2  1  0
  2  3  1  0
  3  4  1  0
  4  5  1  0
  5  6  2  0
  5  7  1  0
  7  8  2  0
  8  9  1  0
  9 10  2  0
 10 11  1  0
 10 12  1  0
 12 13  2  0
 13  7  1  0
  1 14  1  0
  1 15  1  0
  1 16  1  0
  2 17  1  0
  2 18  1  0
  3 19  1  0
  3 20  1  0
  4 21  1  0
  8 22  1  0
  9 23  1  0
 12 24  1  0
M  CHG  1   1   1
M  END
>  <meeko>  (9) 
{"is_sidechain": [false], "free_energy": -4.417, "intermolecular_energy": -5.319, "internal_energy": -0.136}

$$$$
