SAG_pdb_out
     RDKit          3D

 39 40  0  0  0  0  0  0  0  0999 V2000
  176.5970   23.9170   48.7800 C   0  0  0  0  0  0  0  0  0  0  0  0
  176.5160   22.7780   49.7870 C   0  0  2  0  0  0  0  0  0  0  0  0
  177.2070   21.6000   49.2030 N   0  0  0  0  0  0  0  0  0  0  0  0
  178.0190   21.9040   48.2450 C   0  0  0  0  0  0  0  0  0  0  0  0
  178.7980   20.8750   47.5300 C   0  0  0  0  0  0  0  0  0  0  0  0
  180.1950   20.8770   47.5670 C   0  0  0  0  0  0  0  0  0  0  0  0
  180.9170   19.8920   46.8810 C   0  0  0  0  0  0  0  0  0  0  0  0
  180.2420   18.9050   46.1600 C   0  0  0  0  0  0  0  0  0  0  0  0
  180.8190   17.8900   45.4500 O   0  0  0  0  0  0  0  0  0  0  0  0
  181.0800   18.1250   44.0690 C   0  0  0  0  0  0  0  0  0  0  0  0
  181.0480   16.7960   43.3580 C   0  0  0  0  0  0  0  0  0  0  0  0
  180.8480   15.6070   44.0770 C   0  0  0  0  0  0  0  0  0  0  0  0
  180.8000   14.3750   43.4190 C   0  0  0  0  0  0  0  0  0  0  0  0
  180.9440   14.3220   42.0330 C   0  0  0  0  0  0  0  0  0  0  0  0
  181.1280   15.4990   41.3190 C   0  0  0  0  0  0  0  0  0  0  0  0
  181.2580   15.4480   39.9860 F   0  0  0  0  0  0  0  0  0  0  0  0
  181.1780   16.7310   41.9640 C   0  0  0  0  0  0  0  0  0  0  0  0
  178.8440   18.9110   46.1290 C   0  0  0  0  0  0  0  0  0  0  0  0
  178.1180   19.8910   46.8120 C   0  0  0  0  0  0  0  0  0  0  0  0
  175.0500   22.4100   50.0510 C   0  0  0  0  0  0  0  0  0  0  0  0
  174.8240   21.0830   50.2910 N   0  0  0  0  0  0  0  0  0  0  0  0
  174.1310   23.2220   50.0280 O   0  0  0  0  0  0  0  0  0  0  0  0
  176.6652   24.8755   49.3153 H   0  0  0  0  0  0  0  0  0  0  0  0
  177.4881   23.7855   48.1486 H   0  0  0  0  0  0  0  0  0  0  0  0
  175.6963   23.9129   48.1486 H   0  0  0  0  0  0  0  0  0  0  0  0
  176.9849   23.0836   50.7340 H   0  0  0  0  0  0  0  0  0  0  0  0
  178.1326   22.9589   47.9545 H   0  0  0  0  0  0  0  0  0  0  0  0
  180.7283   21.6531   48.1356 H   0  0  0  0  0  0  0  0  0  0  0  0
  182.0166   19.8960   46.9103 H   0  0  0  0  0  0  0  0  0  0  0  0
  180.3104   18.7908   43.6513 H   0  0  0  0  0  0  0  0  0  0  0  0
  182.0618   18.6042   43.9410 H   0  0  0  0  0  0  0  0  0  0  0  0
  180.7278   15.6454   45.1697 H   0  0  0  0  0  0  0  0  0  0  0  0
  180.6489   13.4490   43.9932 H   0  0  0  0  0  0  0  0  0  0  0  0
  180.9121   13.3553   41.5091 H   0  0  0  0  0  0  0  0  0  0  0  0
  181.3194   17.6527   41.3805 H   0  0  0  0  0  0  0  0  0  0  0  0
  178.3094   18.1356   45.5606 H   0  0  0  0  0  0  0  0  0  0  0  0
  177.0184   19.8863   46.7835 H   0  0  0  0  0  0  0  0  0  0  0  0
  175.5790   20.4500   50.3060 H   0  0  0  0  0  0  0  0  0  0  0  0
  173.9080   20.7610   50.4520 H   0  0  0  0  0  0  0  0  0  0  0  0
  1  2  1  0
  2  3  1  0
  3  4  2  0
  4  5  1  0
  5  6  2  0
  6  7  1  0
  7  8  2  0
  8  9  1  0
  9 10  1  0
 10 11  1  0
 11 12  2  0
 12 13  1  0
 13 14  2  0
 14 15  1  0
 15 16  1  0
 15 17  2  0
  8 18  1  0
 18 19  2  0
  2 20  1  0
 20 21  1  0
 20 22  2  0
 19  5  1  0
 17 11  1  0
  1 23  1  0
  1 24  1  0
  1 25  1  0
  2 26  1  1
  4 27  1  0
  6 28  1  0
  7 29  1  0
 10 30  1  0
 10 31  1  0
 12 32  1  0
 13 33  1  0
 14 34  1  0
 17 35  1  0
 18 36  1  0
 19 37  1  0
 21 38  1  0
 21 39  1  0
M  END
>  <meeko>  (1) 
{"is_sidechain": [false], "free_energy": -7.816, "intermolecular_energy": -10.558, "internal_energy": -0.619}

$$$$
SAG_pdb_out
     RDKit          3D

 39 40  0  0  0  0  0  0  0  0999 V2000
  176.6200   23.8380   49.0720 C   0  0  0  0  0  0  0  0  0  0  0  0
  177.5380   23.2480   50.1340 C   0  0  2  0  0  0  0  0  0  0  0  0
  178.1710   22.0290   49.5670 N   0  0  0  0  0  0  0  0  0  0  0  0
  178.3830   22.1050   48.2950 C   0  0  0  0  0  0  0  0  0  0  0  0
  178.9980   20.9950   47.5420 C   0  0  0  0  0  0  0  0  0  0  0  0
  180.3860   20.8770   47.4430 C   0  0  0  0  0  0  0  0  0  0  0  0
  180.9520   19.8170   46.7240 C   0  0  0  0  0  0  0  0  0  0  0  0
  180.1290   18.8750   46.1040 C   0  0  0  0  0  0  0  0  0  0  0  0
  180.5450   17.7970   45.3760 O   0  0  0  0  0  0  0  0  0  0  0  0
  181.1120   18.0550   44.0930 C   0  0  0  0  0  0  0  0  0  0  0  0
  181.0990   16.7660   43.3130 C   0  0  0  0  0  0  0  0  0  0  0  0
  180.9140   15.5370   43.9670 C   0  0  0  0  0  0  0  0  0  0  0  0
  180.8830   14.3420   43.2430 C   0  0  0  0  0  0  0  0  0  0  0  0
  181.0300   14.3650   41.8570 C   0  0  0  0  0  0  0  0  0  0  0  0
  181.1980   15.5810   41.2070 C   0  0  0  0  0  0  0  0  0  0  0  0
  181.3300   15.6030   39.8740 F   0  0  0  0  0  0  0  0  0  0  0  0
  181.2310   16.7770   41.9170 C   0  0  0  0  0  0  0  0  0  0  0  0
  178.7400   19.0010   46.2090 C   0  0  0  0  0  0  0  0  0  0  0  0
  178.1690   20.0560   46.9260 C   0  0  0  0  0  0  0  0  0  0  0  0
  176.7270   22.8530   51.3740 C   0  0  0  0  0  0  0  0  0  0  0  0
  175.5710   22.1700   51.1120 N   0  0  0  0  0  0  0  0  0  0  0  0
  177.0540   23.1400   52.5200 O   0  0  0  0  0  0  0  0  0  0  0  0
  175.7905   24.3711   49.5595 H   0  0  0  0  0  0  0  0  0  0  0  0
  177.1888   24.5401   48.4447 H   0  0  0  0  0  0  0  0  0  0  0  0
  176.2176   23.0290   48.4447 H   0  0  0  0  0  0  0  0  0  0  0  0
  178.2964   23.9899   50.4245 H   0  0  0  0  0  0  0  0  0  0  0  0
  178.0973   23.0219   47.7587 H   0  0  0  0  0  0  0  0  0  0  0  0
  181.0360   21.6183   47.9308 H   0  0  0  0  0  0  0  0  0  0  0  0
  182.0456   19.7265   46.6477 H   0  0  0  0  0  0  0  0  0  0  0  0
  180.5164   18.8159   43.5674 H   0  0  0  0  0  0  0  0  0  0  0  0
  182.1411   18.4293   44.1972 H   0  0  0  0  0  0  0  0  0  0  0  0
  180.7923   15.5147   45.0600 H   0  0  0  0  0  0  0  0  0  0  0  0
  180.7428   13.3846   43.7662 H   0  0  0  0  0  0  0  0  0  0  0  0
  181.0131   13.4272   41.2823 H   0  0  0  0  0  0  0  0  0  0  0  0
  181.3605   17.7304   41.3838 H   0  0  0  0  0  0  0  0  0  0  0  0
  178.0890   18.2606   45.7212 H   0  0  0  0  0  0  0  0  0  0  0  0
  177.0755   20.1457   47.0042 H   0  0  0  0  0  0  0  0  0  0  0  0
  175.3300   21.9500   50.1830 H   0  0  0  0  0  0  0  0  0  0  0  0
  174.9830   21.8960   51.8520 H   0  0  0  0  0  0  0  0  0  0  0  0
  1  2  1  0
  2  3  1  0
  3  4  2  0
  4  5  1  0
  5  6  2  0
  6  7  1  0
  7  8  2  0
  8  9  1  0
  9 10  1  0
 10 11  1  0
 11 12  2  0
 12 13  1  0
 13 14  2  0
 14 15  1  0
 15 16  1  0
 15 17  2  0
  8 18  1  0
 18 19  2  0
  2 20  1  0
 20 21  1  0
 20 22  2  0
 19  5  1  0
 17 11  1  0
  1 23  1  0
  1 24  1  0
  1 25  1  0
  2 26  1  1
  4 27  1  0
  6 28  1  0
  7 29  1  0
 10 30  1  0
 10 31  1  0
 12 32  1  0
 13 33  1  0
 14 34  1  0
 17 35  1  0
 18 36  1  0
 19 37  1  0
 21 38  1  0
 21 39  1  0
M  END
>  <meeko>  (2) 
{"is_sidechain": [false], "free_energy": -7.798, "intermolecular_energy": -10.582, "internal_energy": -0.571}

$$$$
SAG_pdb_out
     RDKit          3D

 39 40  0  0  0  0  0  0  0  0999 V2000
  178.9700   24.2840   49.8330 C   0  0  0  0  0  0  0  0  0  0  0  0
  180.4550   23.9800   49.9660 C   0  0  2  0  0  0  0  0  0  0  0  0
  180.7280   22.7040   49.2550 N   0  0  0  0  0  0  0  0  0  0  0  0
  179.8660   22.4380   48.3310 C   0  0  0  0  0  0  0  0  0  0  0  0
  179.9560   21.2130   47.5130 C   0  0  0  0  0  0  0  0  0  0  0  0
  178.8050   20.5270   47.1180 C   0  0  0  0  0  0  0  0  0  0  0  0
  178.9110   19.3650   46.3420 C   0  0  0  0  0  0  0  0  0  0  0  0
  180.1680   18.8910   45.9620 C   0  0  0  0  0  0  0  0  0  0  0  0
  180.4140   17.7770   45.2100 O   0  0  0  0  0  0  0  0  0  0  0  0
  181.2110   17.9420   44.0400 C   0  0  0  0  0  0  0  0  0  0  0  0
  181.1430   16.6610   43.2490 C   0  0  0  0  0  0  0  0  0  0  0  0
  180.9130   15.4350   43.8940 C   0  0  0  0  0  0  0  0  0  0  0  0
  180.8320   14.2470   43.1600 C   0  0  0  0  0  0  0  0  0  0  0  0
  180.9720   14.2770   41.7740 C   0  0  0  0  0  0  0  0  0  0  0  0
  181.1850   15.4910   41.1320 C   0  0  0  0  0  0  0  0  0  0  0  0
  181.3110   15.5190   39.7990 F   0  0  0  0  0  0  0  0  0  0  0  0
  181.2680   16.6790   41.8520 C   0  0  0  0  0  0  0  0  0  0  0  0
  181.3140   19.5840   46.3630 C   0  0  0  0  0  0  0  0  0  0  0  0
  181.2150   20.7440   47.1360 C   0  0  0  0  0  0  0  0  0  0  0  0
  180.8300   23.8120   51.4440 C   0  0  0  0  0  0  0  0  0  0  0  0
  181.5320   22.6750   51.7340 N   0  0  0  0  0  0  0  0  0  0  0  0
  180.5140   24.6100   52.3200 O   0  0  0  0  0  0  0  0  0  0  0  0
  178.5234   24.3754   50.8341 H   0  0  0  0  0  0  0  0  0  0  0  0
  178.8367   25.2281   49.2844 H   0  0  0  0  0  0  0  0  0  0  0  0
  178.4764   23.4683   49.2844 H   0  0  0  0  0  0  0  0  0  0  0  0
  181.0434   24.8054   49.5389 H   0  0  0  0  0  0  0  0  0  0  0  0
  179.0422   23.1437   48.1487 H   0  0  0  0  0  0  0  0  0  0  0  0
  177.8140   20.8995   47.4165 H   0  0  0  0  0  0  0  0  0  0  0  0
  178.0035   18.8261   46.0321 H   0  0  0  0  0  0  0  0  0  0  0  0
  180.8212   18.7750   43.4366 H   0  0  0  0  0  0  0  0  0  0  0  0
  182.2520   18.1683   44.3142 H   0  0  0  0  0  0  0  0  0  0  0  0
  180.7953   15.4086   44.9874 H   0  0  0  0  0  0  0  0  0  0  0  0
  180.6582   13.2911   43.6759 H   0  0  0  0  0  0  0  0  0  0  0  0
  180.9143   13.3456   41.1916 H   0  0  0  0  0  0  0  0  0  0  0  0
  181.4315   17.6312   41.3261 H   0  0  0  0  0  0  0  0  0  0  0  0
  182.3057   19.2117   46.0665 H   0  0  0  0  0  0  0  0  0  0  0  0
  182.1226   21.2833   47.4449 H   0  0  0  0  0  0  0  0  0  0  0  0
  181.7750   22.0490   51.0140 H   0  0  0  0  0  0  0  0  0  0  0  0
  181.7950   22.4820   52.6640 H   0  0  0  0  0  0  0  0  0  0  0  0
  1  2  1  0
  2  3  1  0
  3  4  2  0
  4  5  1  0
  5  6  2  0
  6  7  1  0
  7  8  2  0
  8  9  1  0
  9 10  1  0
 10 11  1  0
 11 12  2  0
 12 13  1  0
 13 14  2  0
 14 15  1  0
 15 16  1  0
 15 17  2  0
  8 18  1  0
 18 19  2  0
  2 20  1  0
 20 21  1  0
 20 22  2  0
 19  5  1  0
 17 11  1  0
  1 23  1  0
  1 24  1  0
  1 25  1  0
  2 26  1  6
  4 27  1  0
  6 28  1  0
  7 29  1  0
 10 30  1  0
 10 31  1  0
 12 32  1  0
 13 33  1  0
 14 34  1  0
 17 35  1  0
 18 36  1  0
 19 37  1  0
 21 38  1  0
 21 39  1  0
M  END
>  <meeko>  (3) 
{"is_sidechain": [false], "free_energy": -7.533, "intermolecular_energy": -10.202, "internal_energy": -0.591}

$$$$
SAG_pdb_out
     RDKit          3D

 39 40  0  0  0  0  0  0  0  0999 V2000
  180.5600   14.8080   44.3410 C   0  0  0  0  0  0  0  0  0  0  0  0
  181.5390   15.6880   43.5760 C   0  0  2  0  0  0  0  0  0  0  0  0
  181.2720   17.1010   43.9470 N   0  0  0  0  0  0  0  0  0  0  0  0
  180.5320   17.2250   44.9980 C   0  0  0  0  0  0  0  0  0  0  0  0
  180.1470   18.5480   45.5260 C   0  0  0  0  0  0  0  0  0  0  0  0
  181.0960   19.5600   45.6870 C   0  0  0  0  0  0  0  0  0  0  0  0
  180.7120   20.8100   46.1910 C   0  0  0  0  0  0  0  0  0  0  0  0
  179.3790   21.0460   46.5320 C   0  0  0  0  0  0  0  0  0  0  0  0
  178.8700   22.2120   47.0310 O   0  0  0  0  0  0  0  0  0  0  0  0
  178.8790   22.3750   48.4470 C   0  0  0  0  0  0  0  0  0  0  0  0
  177.4570   22.2650   48.9350 C   0  0  0  0  0  0  0  0  0  0  0  0
  176.5920   23.3690   48.8680 C   0  0  0  0  0  0  0  0  0  0  0  0
  175.2670   23.2640   49.3030 C   0  0  0  0  0  0  0  0  0  0  0  0
  174.7940   22.0520   49.8020 C   0  0  0  0  0  0  0  0  0  0  0  0
  175.6440   20.9550   49.8550 C   0  0  0  0  0  0  0  0  0  0  0  0
  175.1860   19.7870   50.3260 F   0  0  0  0  0  0  0  0  0  0  0  0
  176.9650   21.0470   49.4250 C   0  0  0  0  0  0  0  0  0  0  0  0
  178.4360   20.0260   46.3670 C   0  0  0  0  0  0  0  0  0  0  0  0
  178.8130   18.7780   45.8650 C   0  0  0  0  0  0  0  0  0  0  0  0
  181.3280   15.5240   42.0660 C   0  0  0  0  0  0  0  0  0  0  0  0
  181.1870   16.6960   41.3740 N   0  0  0  0  0  0  0  0  0  0  0  0
  181.2590   14.4370   41.5030 O   0  0  0  0  0  0  0  0  0  0  0  0
  180.7118   14.9444   45.4219 H   0  0  0  0  0  0  0  0  0  0  0  0
  179.5300   15.0899   44.0769 H   0  0  0  0  0  0  0  0  0  0  0  0
  180.7309   13.7539   44.0769 H   0  0  0  0  0  0  0  0  0  0  0  0
  182.5712   15.4015   43.8258 H   0  0  0  0  0  0  0  0  0  0  0  0
  180.1790   16.3197   45.5137 H   0  0  0  0  0  0  0  0  0  0  0  0
  182.1465   19.3756   45.4178 H   0  0  0  0  0  0  0  0  0  0  0  0
  181.4611   21.6054   46.3179 H   0  0  0  0  0  0  0  0  0  0  0  0
  179.4948   21.5897   48.9097 H   0  0  0  0  0  0  0  0  0  0  0  0
  179.3023   23.3536   48.7174 H   0  0  0  0  0  0  0  0  0  0  0  0
  176.9601   24.3259   48.4694 H   0  0  0  0  0  0  0  0  0  0  0  0
  174.5994   24.1367   49.2513 H   0  0  0  0  0  0  0  0  0  0  0  0
  173.7547   21.9647   50.1515 H   0  0  0  0  0  0  0  0  0  0  0  0
  177.6216   20.1656   49.4696 H   0  0  0  0  0  0  0  0  0  0  0  0
  177.3851   20.2088   46.6357 H   0  0  0  0  0  0  0  0  0  0  0  0
  178.0639   17.9826   45.7379 H   0  0  0  0  0  0  0  0  0  0  0  0
  181.2470   17.5570   41.8480 H   0  0  0  0  0  0  0  0  0  0  0  0
  181.0290   16.6780   40.4020 H   0  0  0  0  0  0  0  0  0  0  0  0
  1  2  1  0
  2  3  1  0
  3  4  2  0
  4  5  1  0
  5  6  2  0
  6  7  1  0
  7  8  2  0
  8  9  1  0
  9 10  1  0
 10 11  1  0
 11 12  2  0
 12 13  1  0
 13 14  2  0
 14 15  1  0
 15 16  1  0
 15 17  2  0
  8 18  1  0
 18 19  2  0
  2 20  1  0
 20 21  1  0
 20 22  2  0
 19  5  1  0
 17 11  1  0
  1 23  1  0
  1 24  1  0
  1 25  1  0
  2 26  1  6
  4 27  1  0
  6 28  1  0
  7 29  1  0
 10 30  1  0
 10 31  1  0
 12 32  1  0
 13 33  1  0
 14 34  1  0
 17 35  1  0
 18 36  1  0
 19 37  1  0
 21 38  1  0
 21 39  1  0
M  END
>  <meeko>  (4) 
{"is_sidechain": [false], "free_energy": -7.429, "intermolecular_energy": -9.988, "internal_energy": -0.666}

$$$$
SAG_pdb_out
     RDKit          3D

 39 40  0  0  0  0  0  0  0  0999 V2000
  180.2100   24.8760   49.0250 C   0  0  0  0  0  0  0  0  0  0  0  0
  180.1200   23.8180   50.1150 C   0  0  2  0  0  0  0  0  0  0  0  0
  180.2590   22.4850   49.4730 N   0  0  0  0  0  0  0  0  0  0  0  0
  179.8820   22.4690   48.2380 C   0  0  0  0  0  0  0  0  0  0  0  0
  179.9360   21.2380   47.4260 C   0  0  0  0  0  0  0  0  0  0  0  0
  178.7810   20.4910   47.1770 C   0  0  0  0  0  0  0  0  0  0  0  0
  178.8520   19.3250   46.4040 C   0  0  0  0  0  0  0  0  0  0  0  0
  180.0770   18.9080   45.8800 C   0  0  0  0  0  0  0  0  0  0  0  0
  180.2870   17.7960   45.1130 O   0  0  0  0  0  0  0  0  0  0  0  0
  181.2450   17.9000   44.0620 C   0  0  0  0  0  0  0  0  0  0  0  0
  181.1800   16.6320   43.2490 C   0  0  0  0  0  0  0  0  0  0  0  0
  180.9740   15.3930   43.8760 C   0  0  0  0  0  0  0  0  0  0  0  0
  180.8950   14.2170   43.1230 C   0  0  0  0  0  0  0  0  0  0  0  0
  181.0150   14.2730   41.7350 C   0  0  0  0  0  0  0  0  0  0  0  0
  181.2050   15.5000   41.1120 C   0  0  0  0  0  0  0  0  0  0  0  0
  181.3100   15.5530   39.7780 F   0  0  0  0  0  0  0  0  0  0  0  0
  181.2850   16.6760   41.8520 C   0  0  0  0  0  0  0  0  0  0  0  0
  181.2260   19.6620   46.1340 C   0  0  0  0  0  0  0  0  0  0  0  0
  181.1620   20.8260   46.9040 C   0  0  0  0  0  0  0  0  0  0  0  0
  178.7550   23.8910   50.8110 C   0  0  0  0  0  0  0  0  0  0  0  0
  177.9260   24.8770   50.3510 N   0  0  0  0  0  0  0  0  0  0  0  0
  178.4200   23.1520   51.7300 O   0  0  0  0  0  0  0  0  0  0  0  0
  180.2947   25.8711   49.4860 H   0  0  0  0  0  0  0  0  0  0  0  0
  181.0951   24.6847   48.4005 H   0  0  0  0  0  0  0  0  0  0  0  0
  179.3053   24.8370   48.4005 H   0  0  0  0  0  0  0  0  0  0  0  0
  180.9115   23.9835   50.8608 H   0  0  0  0  0  0  0  0  0  0  0  0
  179.5109   23.3973   47.7793 H   0  0  0  0  0  0  0  0  0  0  0  0
  177.8152   20.8192   47.5886 H   0  0  0  0  0  0  0  0  0  0  0  0
  177.9424   18.7378   46.2098 H   0  0  0  0  0  0  0  0  0  0  0  0
  181.0086   18.7650   43.4249 H   0  0  0  0  0  0  0  0  0  0  0  0
  182.2547   18.0385   44.4760 H   0  0  0  0  0  0  0  0  0  0  0  0
  180.8737   15.3466   44.9704 H   0  0  0  0  0  0  0  0  0  0  0  0
  180.7386   13.2505   43.6245 H   0  0  0  0  0  0  0  0  0  0  0  0
  180.9596   13.3514   41.1371 H   0  0  0  0  0  0  0  0  0  0  0  0
  181.4305   17.6392   41.3410 H   0  0  0  0  0  0  0  0  0  0  0  0
  182.1924   19.3350   45.7227 H   0  0  0  0  0  0  0  0  0  0  0  0
  182.0719   21.4132   47.0972 H   0  0  0  0  0  0  0  0  0  0  0  0
  178.2170   25.4580   49.6110 H   0  0  0  0  0  0  0  0  0  0  0  0
  177.0380   25.0030   50.7580 H   0  0  0  0  0  0  0  0  0  0  0  0
  1  2  1  0
  2  3  1  0
  3  4  2  0
  4  5  1  0
  5  6  2  0
  6  7  1  0
  7  8  2  0
  8  9  1  0
  9 10  1  0
 10 11  1  0
 11 12  2  0
 12 13  1  0
 13 14  2  0
 14 15  1  0
 15 16  1  0
 15 17  2  0
  8 18  1  0
 18 19  2  0
  2 20  1  0
 20 21  1  0
 20 22  2  0
 19  5  1  0
 17 11  1  0
  1 23  1  0
  1 24  1  0
  1 25  1  0
  2 26  1  1
  4 27  1  0
  6 28  1  0
  7 29  1  0
 10 30  1  0
 10 31  1  0
 12 32  1  0
 13 33  1  0
 14 34  1  0
 17 35  1  0
 18 36  1  0
 19 37  1  0
 21 38  1  0
 21 39  1  0
M  END
>  <meeko>  (5) 
{"is_sidechain": [false], "free_energy": -7.376, "intermolecular_energy": -9.963, "internal_energy": -0.62}

$$$$
SAG_pdb_out
     RDKit          3D

 39 40  0  0  0  0  0  0  0  0999 V2000
  180.5820   14.7360   44.3570 C   0  0  0  0  0  0  0  0  0  0  0  0
  181.5870   15.5970   43.6070 C   0  0  2  0  0  0  0  0  0  0  0  0
  181.3410   17.0160   43.9750 N   0  0  0  0  0  0  0  0  0  0  0  0
  180.5170   17.1540   44.9590 C   0  0  0  0  0  0  0  0  0  0  0  0
  180.1360   18.4840   45.4720 C   0  0  0  0  0  0  0  0  0  0  0  0
  181.0550   19.5360   45.4920 C   0  0  0  0  0  0  0  0  0  0  0  0
  180.6750   20.7920   45.9830 C   0  0  0  0  0  0  0  0  0  0  0  0
  179.3770   20.9950   46.4540 C   0  0  0  0  0  0  0  0  0  0  0  0
  178.8760   22.1630   46.9570 O   0  0  0  0  0  0  0  0  0  0  0  0
  179.4630   22.6610   48.1560 C   0  0  0  0  0  0  0  0  0  0  0  0
  178.6560   22.1410   49.3180 C   0  0  0  0  0  0  0  0  0  0  0  0
  179.2710   21.8690   50.5500 C   0  0  0  0  0  0  0  0  0  0  0  0
  178.5220   21.4030   51.6350 C   0  0  0  0  0  0  0  0  0  0  0  0
  177.1480   21.2120   51.4980 C   0  0  0  0  0  0  0  0  0  0  0  0
  176.5350   21.4950   50.2840 C   0  0  0  0  0  0  0  0  0  0  0  0
  175.2130   21.3200   50.1570 F   0  0  0  0  0  0  0  0  0  0  0  0
  177.2710   21.9590   49.1980 C   0  0  0  0  0  0  0  0  0  0  0  0
  178.4640   19.9360   46.4300 C   0  0  0  0  0  0  0  0  0  0  0  0
  178.8360   18.6810   45.9400 C   0  0  0  0  0  0  0  0  0  0  0  0
  181.3930   15.4390   42.0930 C   0  0  0  0  0  0  0  0  0  0  0  0
  181.3000   16.6130   41.3990 N   0  0  0  0  0  0  0  0  0  0  0  0
  181.2990   14.3530   41.5310 O   0  0  0  0  0  0  0  0  0  0  0  0
  180.7281   14.8611   45.4401 H   0  0  0  0  0  0  0  0  0  0  0  0
  179.5612   15.0442   44.0867 H   0  0  0  0  0  0  0  0  0  0  0  0
  180.7299   13.6800   44.0867 H   0  0  0  0  0  0  0  0  0  0  0  0
  182.6098   15.2903   43.8711 H   0  0  0  0  0  0  0  0  0  0  0  0
  180.0874   16.2562   45.4275 H   0  0  0  0  0  0  0  0  0  0  0  0
  182.0786   19.3780   45.1216 H   0  0  0  0  0  0  0  0  0  0  0  0
  181.4003   21.6188   45.9973 H   0  0  0  0  0  0  0  0  0  0  0  0
  180.5026   22.3108   48.2366 H   0  0  0  0  0  0  0  0  0  0  0  0
  179.4654   23.7610   48.1531 H   0  0  0  0  0  0  0  0  0  0  0  0
  180.3541   22.0241   50.6633 H   0  0  0  0  0  0  0  0  0  0  0  0
  179.0158   21.1877   52.5941 H   0  0  0  0  0  0  0  0  0  0  0  0
  176.5533   20.8398   52.3453 H   0  0  0  0  0  0  0  0  0  0  0  0
  176.7667   22.1828   48.2464 H   0  0  0  0  0  0  0  0  0  0  0  0
  177.4405   20.0926   46.8013 H   0  0  0  0  0  0  0  0  0  0  0  0
  178.1098   17.8550   45.9233 H   0  0  0  0  0  0  0  0  0  0  0  0
  181.3800   17.4720   41.8720 H   0  0  0  0  0  0  0  0  0  0  0  0
  181.1560   16.5980   40.4250 H   0  0  0  0  0  0  0  0  0  0  0  0
  1  2  1  0
  2  3  1  0
  3  4  2  0
  4  5  1  0
  5  6  2  0
  6  7  1  0
  7  8  2  0
  8  9  1  0
  9 10  1  0
 10 11  1  0
 11 12  2  0
 12 13  1  0
 13 14  2  0
 14 15  1  0
 15 16  1  0
 15 17  2  0
  8 18  1  0
 18 19  2  0
  2 20  1  0
 20 21  1  0
 20 22  2  0
 19  5  1  0
 17 11  1  0
  1 23  1  0
  1 24  1  0
  1 25  1  0
  2 26  1  6
  4 27  1  0
  6 28  1  0
  7 29  1  0
 10 30  1  0
 10 31  1  0
 12 32  1  0
 13 33  1  0
 14 34  1  0
 17 35  1  0
 18 36  1  0
 19 37  1  0
 21 38  1  0
 21 39  1  0
M  END
>  <meeko>  (6) 
{"is_sidechain": [false], "free_energy": -7.346, "intermolecular_energy": -9.794, "internal_energy": -0.747}

$$$$
SAG_pdb_out
     RDKit          3D

 39 40  0  0  0  0  0  0  0  0999 V2000
  175.5490   23.5630   49.2990 C   0  0  0  0  0  0  0  0  0  0  0  0
  177.0340   23.8870   49.2180 C   0  0  2  0  0  0  0  0  0  0  0  0
  177.7580   22.6380   48.8670 N   0  0  0  0  0  0  0  0  0  0  0  0
  178.1390   22.5970   47.6330 C   0  0  0  0  0  0  0  0  0  0  0  0
  178.8690   21.4380   47.0840 C   0  0  0  0  0  0  0  0  0  0  0  0
  180.2530   21.4830   46.8980 C   0  0  0  0  0  0  0  0  0  0  0  0
  180.9280   20.3730   46.3750 C   0  0  0  0  0  0  0  0  0  0  0  0
  180.2190   19.2180   46.0390 C   0  0  0  0  0  0  0  0  0  0  0  0
  180.7490   18.0690   45.5240 O   0  0  0  0  0  0  0  0  0  0  0  0
  181.1980   18.1070   44.1710 C   0  0  0  0  0  0  0  0  0  0  0  0
  181.0300   16.7270   43.5890 C   0  0  0  0  0  0  0  0  0  0  0  0
  181.3110   16.4840   42.2350 C   0  0  0  0  0  0  0  0  0  0  0  0
  181.1740   15.2010   41.6960 C   0  0  0  0  0  0  0  0  0  0  0  0
  180.7600   14.1480   42.5100 C   0  0  0  0  0  0  0  0  0  0  0  0
  180.4950   14.3830   43.8530 C   0  0  0  0  0  0  0  0  0  0  0  0
  180.1070   13.3680   44.6360 F   0  0  0  0  0  0  0  0  0  0  0  0
  180.6290   15.6560   44.4000 C   0  0  0  0  0  0  0  0  0  0  0  0
  178.8340   19.1820   46.2300 C   0  0  0  0  0  0  0  0  0  0  0  0
  178.1550   20.2860   46.7510 C   0  0  0  0  0  0  0  0  0  0  0  0
  177.5410   24.3860   50.5770 C   0  0  0  0  0  0  0  0  0  0  0  0
  177.7470   25.7360   50.6540 N   0  0  0  0  0  0  0  0  0  0  0  0
  177.7750   23.6480   51.5280 O   0  0  0  0  0  0  0  0  0  0  0  0
  175.2452   23.4967   50.3541 H   0  0  0  0  0  0  0  0  0  0  0  0
  174.9728   24.3566   48.8007 H   0  0  0  0  0  0  0  0  0  0  0  0
  175.3558   22.6016   48.8007 H   0  0  0  0  0  0  0  0  0  0  0  0
  177.2034   24.6690   48.4632 H   0  0  0  0  0  0  0  0  0  0  0  0
  177.9132   23.4486   46.9743 H   0  0  0  0  0  0  0  0  0  0  0  0
  180.8134   22.3918   47.1628 H   0  0  0  0  0  0  0  0  0  0  0  0
  182.0176   20.4111   46.2288 H   0  0  0  0  0  0  0  0  0  0  0  0
  180.5984   18.8298   43.5983 H   0  0  0  0  0  0  0  0  0  0  0  0
  182.2525   18.4166   44.1255 H   0  0  0  0  0  0  0  0  0  0  0  0
  181.6426   17.3120   41.5911 H   0  0  0  0  0  0  0  0  0  0  0  0
  181.3923   15.0233   40.6326 H   0  0  0  0  0  0  0  0  0  0  0  0
  180.6439   13.1374   42.0915 H   0  0  0  0  0  0  0  0  0  0  0  0
  180.4205   15.8215   45.4673 H   0  0  0  0  0  0  0  0  0  0  0  0
  178.2726   18.2734   45.9668 H   0  0  0  0  0  0  0  0  0  0  0  0
  177.0655   20.2477   46.8977 H   0  0  0  0  0  0  0  0  0  0  0  0
  177.5510   26.3080   49.8780 H   0  0  0  0  0  0  0  0  0  0  0  0
  178.0900   26.1350   51.4870 H   0  0  0  0  0  0  0  0  0  0  0  0
  1  2  1  0
  2  3  1  0
  3  4  2  0
  4  5  1  0
  5  6  2  0
  6  7  1  0
  7  8  2  0
  8  9  1  0
  9 10  1  0
 10 11  1  0
 11 12  2  0
 12 13  1  0
 13 14  2  0
 14 15  1  0
 15 16  1  0
 15 17  2  0
  8 18  1  0
 18 19  2  0
  2 20  1  0
 20 21  1  0
 20 22  2  0
 19  5  1  0
 17 11  1  0
  1 23  1  0
  1 24  1  0
  1 25  1  0
  2 26  1  6
  4 27  1  0
  6 28  1  0
  7 29  1  0
 10 30  1  0
 10 31  1  0
 12 32  1  0
 13 33  1  0
 14 34  1  0
 17 35  1  0
 18 36  1  0
 19 37  1  0
 21 38  1  0
 21 39  1  0
M  END
>  <meeko>  (7) 
{"is_sidechain": [false], "free_energy": -7.316, "intermolecular_energy": -9.94, "internal_energy": -0.561}

$$$$
SAG_pdb_out
     RDKit          3D

 39 40  0  0  0  0  0  0  0  0999 V2000
  179.5440   24.8060   49.4490 C   0  0  0  0  0  0  0  0  0  0  0  0
  180.8430   24.1760   49.9320 C   0  0  2  0  0  0  0  0  0  0  0  0
  180.9520   22.8250   49.3250 N   0  0  0  0  0  0  0  0  0  0  0  0
  180.4080   22.7430   48.1570 C   0  0  0  0  0  0  0  0  0  0  0  0
  180.4040   21.4830   47.3890 C   0  0  0  0  0  0  0  0  0  0  0  0
  179.2470   20.7060   47.2900 C   0  0  0  0  0  0  0  0  0  0  0  0
  179.2620   19.5120   46.5570 C   0  0  0  0  0  0  0  0  0  0  0  0
  180.4340   19.0970   45.9230 C   0  0  0  0  0  0  0  0  0  0  0  0
  180.5880   17.9600   45.1790 O   0  0  0  0  0  0  0  0  0  0  0  0
  181.4100   18.0460   44.0180 C   0  0  0  0  0  0  0  0  0  0  0  0
  181.1680   16.8130   43.1870 C   0  0  0  0  0  0  0  0  0  0  0  0
  181.2840   16.8600   41.7880 C   0  0  0  0  0  0  0  0  0  0  0  0
  181.0780   15.7130   41.0160 C   0  0  0  0  0  0  0  0  0  0  0  0
  180.7600   14.5060   41.6370 C   0  0  0  0  0  0  0  0  0  0  0  0
  180.6580   14.4540   43.0220 C   0  0  0  0  0  0  0  0  0  0  0  0
  180.3620   13.2920   43.6180 F   0  0  0  0  0  0  0  0  0  0  0  0
  180.8620   15.5890   43.8000 C   0  0  0  0  0  0  0  0  0  0  0  0
  181.5870   19.8810   46.0270 C   0  0  0  0  0  0  0  0  0  0  0  0
  181.5780   21.0730   46.7560 C   0  0  0  0  0  0  0  0  0  0  0  0
  180.8240   24.0330   51.4590 C   0  0  0  0  0  0  0  0  0  0  0  0
  181.4920   22.9420   51.9430 N   0  0  0  0  0  0  0  0  0  0  0  0
  180.2380   24.8080   52.2080 O   0  0  0  0  0  0  0  0  0  0  0  0
  178.9351   25.1013   50.3162 H   0  0  0  0  0  0  0  0  0  0  0  0
  179.7711   25.6941   48.8409 H   0  0  0  0  0  0  0  0  0  0  0  0
  178.9872   24.0778   48.8409 H   0  0  0  0  0  0  0  0  0  0  0  0
  181.6946   24.8092   49.6423 H   0  0  0  0  0  0  0  0  0  0  0  0
  179.9349   23.6361   47.7228 H   0  0  0  0  0  0  0  0  0  0  0  0
  178.3224   21.0324   47.7886 H   0  0  0  0  0  0  0  0  0  0  0  0
  178.3500   18.9017   46.4812 H   0  0  0  0  0  0  0  0  0  0  0  0
  181.1472   18.9440   43.4397 H   0  0  0  0  0  0  0  0  0  0  0  0
  182.4702   18.1138   44.3033 H   0  0  0  0  0  0  0  0  0  0  0  0
  181.5396   17.8094   41.2947 H   0  0  0  0  0  0  0  0  0  0  0  0
  181.1666   15.7627   39.9207 H   0  0  0  0  0  0  0  0  0  0  0  0
  180.5910   13.6011   41.0349 H   0  0  0  0  0  0  0  0  0  0  0  0
  180.7834   15.5267   44.8954 H   0  0  0  0  0  0  0  0  0  0  0  0
  182.5122   19.5555   45.5290 H   0  0  0  0  0  0  0  0  0  0  0  0
  182.4898   21.6838   46.8304 H   0  0  0  0  0  0  0  0  0  0  0  0
  181.9550   22.3340   51.3230 H   0  0  0  0  0  0  0  0  0  0  0  0
  181.5110   22.7670   52.9120 H   0  0  0  0  0  0  0  0  0  0  0  0
  1  2  1  0
  2  3  1  0
  3  4  2  0
  4  5  1  0
  5  6  2  0
  6  7  1  0
  7  8  2  0
  8  9  1  0
  9 10  1  0
 10 11  1  0
 11 12  2  0
 12 13  1  0
 13 14  2  0
 14 15  1  0
 15 16  1  0
 15 17  2  0
  8 18  1  0
 18 19  2  0
  2 20  1  0
 20 21  1  0
 20 22  2  0
 19  5  1  0
 17 11  1  0
  1 23  1  0
  1 24  1  0
  1 25  1  0
  2 26  1  1
  4 27  1  0
  6 28  1  0
  7 29  1  0
 10 30  1  0
 10 31  1  0
 12 32  1  0
 13 33  1  0
 14 34  1  0
 17 35  1  0
 18 36  1  0
 19 37  1  0
 21 38  1  0
 21 39  1  0
M  END
>  <meeko>  (8) 
{"is_sidechain": [false], "free_energy": -7.034, "intermolecular_energy": -9.536, "internal_energy": -0.584}

$$$$
SAG_pdb_out
     RDKit          3D

 39 40  0  0  0  0  0  0  0  0999 V2000
  182.9390   24.6430   50.3030 C   0  0  0  0  0  0  0  0  0  0  0  0
  181.9810   24.8260   49.1340 C   0  0  2  0  0  0  0  0  0  0  0  0
  182.0010   23.5790   48.3260 N   0  0  0  0  0  0  0  0  0  0  0  0
  180.8290   23.0670   48.1450 C   0  0  0  0  0  0  0  0  0  0  0  0
  180.6340   21.8240   47.3740 C   0  0  0  0  0  0  0  0  0  0  0  0
  179.3920   21.5110   46.8170 C   0  0  0  0  0  0  0  0  0  0  0  0
  179.2270   20.3260   46.0890 C   0  0  0  0  0  0  0  0  0  0  0  0
  180.3040   19.4540   45.9180 C   0  0  0  0  0  0  0  0  0  0  0  0
  180.2820   18.2710   45.2350 O   0  0  0  0  0  0  0  0  0  0  0  0
  181.1850   18.1330   44.1400 C   0  0  0  0  0  0  0  0  0  0  0  0
  181.0430   16.7340   43.5970 C   0  0  0  0  0  0  0  0  0  0  0  0
  180.7280   15.6650   44.4520 C   0  0  0  0  0  0  0  0  0  0  0  0
  180.5780   14.3700   43.9480 C   0  0  0  0  0  0  0  0  0  0  0  0
  180.7350   14.1330   42.5830 C   0  0  0  0  0  0  0  0  0  0  0  0
  181.0330   15.1920   41.7340 C   0  0  0  0  0  0  0  0  0  0  0  0
  181.1740   14.9650   40.4220 F   0  0  0  0  0  0  0  0  0  0  0  0
  181.1840   16.4860   42.2250 C   0  0  0  0  0  0  0  0  0  0  0  0
  181.5440   19.7760   46.4790 C   0  0  0  0  0  0  0  0  0  0  0  0
  181.7150   20.9570   47.2060 C   0  0  0  0  0  0  0  0  0  0  0  0
  182.4410   25.9930   48.2520 C   0  0  0  0  0  0  0  0  0  0  0  0
  183.4520   25.6940   47.3810 N   0  0  0  0  0  0  0  0  0  0  0  0
  181.9710   27.1240   48.3220 O   0  0  0  0  0  0  0  0  0  0  0  0
  182.3875   24.7483   51.2489 H   0  0  0  0  0  0  0  0  0  0  0  0
  183.3923   23.6420   50.2524 H   0  0  0  0  0  0  0  0  0  0  0  0
  183.7293   25.4064   50.2524 H   0  0  0  0  0  0  0  0  0  0  0  0
  180.9696   25.0388   49.5106 H   0  0  0  0  0  0  0  0  0  0  0  0
  179.9523   23.5714   48.5774 H   0  0  0  0  0  0  0  0  0  0  0  0
  178.5420   22.1964   46.9503 H   0  0  0  0  0  0  0  0  0  0  0  0
  178.2477   20.0820   45.6514 H   0  0  0  0  0  0  0  0  0  0  0  0
  180.9377   18.8649   43.3569 H   0  0  0  0  0  0  0  0  0  0  0  0
  182.2187   18.3132   44.4702 H   0  0  0  0  0  0  0  0  0  0  0  0
  180.5981   15.8488   45.5287 H   0  0  0  0  0  0  0  0  0  0  0  0
  180.3365   13.5391   44.6272 H   0  0  0  0  0  0  0  0  0  0  0  0
  180.6238   13.1151   42.1811 H   0  0  0  0  0  0  0  0  0  0  0  0
  181.4137   17.3128   41.5368 H   0  0  0  0  0  0  0  0  0  0  0  0
  182.3948   19.0914   46.3464 H   0  0  0  0  0  0  0  0  0  0  0  0
  182.6944   21.2017   47.6428 H   0  0  0  0  0  0  0  0  0  0  0  0
  183.8120   24.7780   47.3420 H   0  0  0  0  0  0  0  0  0  0  0  0
  183.8180   26.3930   46.7920 H   0  0  0  0  0  0  0  0  0  0  0  0
  1  2  1  0
  2  3  1  0
  3  4  2  0
  4  5  1  0
  5  6  2  0
  6  7  1  0
  7  8  2  0
  8  9  1  0
  9 10  1  0
 10 11  1  0
 11 12  2  0
 12 13  1  0
 13 14  2  0
 14 15  1  0
 15 16  1  0
 15 17  2  0
  8 18  1  0
 18 19  2  0
  2 20  1  0
 20 21  1  0
 20 22  2  0
 19  5  1  0
 17 11  1  0
  1 23  1  0
  1 24  1  0
  1 25  1  0
  2 26  1  1
  4 27  1  0
  6 28  1  0
  7 29  1  0
 10 30  1  0
 10 31  1  0
 12 32  1  0
 13 33  1  0
 14 34  1  0
 17 35  1  0
 18 36  1  0
 19 37  1  0
 21 38  1  0
 21 39  1  0
M  END
>  <meeko>  (9) 
{"is_sidechain": [false], "free_energy": -6.99, "intermolecular_energy": -9.519, "internal_energy": -0.541}

$$$$
