VP7_out
     RDKit          3D

 45 48  0  0  0  0  0  0  0  0999 V2000
  180.4950   14.4160   43.4840 C   0  0  0  0  0  0  0  0  0  0  0  0
  181.3090   15.5480   42.8600 C   0  0  0  0  0  0  0  0  0  0  0  0
  180.8620   15.8080   41.4240 C   0  0  0  0  0  0  0  0  0  0  0  0
  182.6780   15.1440   42.8200 O   0  0  0  0  0  0  0  0  0  0  0  0
  181.1950   16.7730   43.6670 C   0  0  0  0  0  0  0  0  0  0  0  0
  181.1020   17.7690   44.3340 C   0  0  0  0  0  0  0  0  0  0  0  0
  180.9880   18.9510   45.1320 C   0  0  0  0  0  0  0  0  0  0  0  0
  182.0580   19.8390   45.2130 C   0  0  0  0  0  0  0  0  0  0  0  0
  181.9710   20.9970   45.9910 C   0  0  0  0  0  0  0  0  0  0  0  0
  180.7740   21.2280   46.6800 C   0  0  0  0  0  0  0  0  0  0  0  0
  180.4250   22.2630   47.5060 N   0  0  0  0  0  0  0  0  0  0  0  0
  179.1490   22.1040   48.0000 C   0  0  0  0  0  0  0  0  0  0  0  0
  178.6330   20.9330   47.4510 C   0  0  0  0  0  0  0  0  0  0  0  0
  179.6790   20.3720   46.6210 C   0  0  0  0  0  0  0  0  0  0  0  0
  179.8010   19.2050   45.8290 C   0  0  0  0  0  0  0  0  0  0  0  0
  177.2870   20.3810   47.6760 C   0  0  0  0  0  0  0  0  0  0  0  0
  176.8800   19.5290   46.7060 N   0  0  0  0  0  0  0  0  0  0  0  0
  175.6930   18.9440   46.8390 C   0  0  0  0  0  0  0  0  0  0  0  0
  175.2850   18.0930   45.8330 N   0  0  0  0  0  0  0  0  0  0  0  0
  174.8530   19.1580   47.8460 N   0  0  0  0  0  0  0  0  0  0  0  0
  175.2730   20.0150   48.7910 C   0  0  0  0  0  0  0  0  0  0  0  0
  176.4880   20.6790   48.7660 C   0  0  0  0  0  0  0  0  0  0  0  0
  176.8340   21.6300   49.8680 C   0  0  0  0  0  0  0  0  0  0  0  0
  177.1770   23.0110   49.3320 C   0  0  0  0  0  0  0  0  0  0  0  0
  178.6430   23.1330   48.9560 C   0  0  0  0  0  0  0  0  0  0  0  0
  180.5469   14.4882   44.5804 H   0  0  0  0  0  0  0  0  0  0  0  0
  179.4467   14.4967   43.1605 H   0  0  0  0  0  0  0  0  0  0  0  0
  180.9051   13.4479   43.1605 H   0  0  0  0  0  0  0  0  0  0  0  0
  179.9112   16.3611   41.4304 H   0  0  0  0  0  0  0  0  0  0  0  0
  181.6279   16.4015   40.9033 H   0  0  0  0  0  0  0  0  0  0  0  0
  180.7248   14.8488   40.9033 H   0  0  0  0  0  0  0  0  0  0  0  0
  183.1580   15.6920   42.1790 H   0  0  0  0  0  0  0  0  0  0  0  0
  182.9834   19.6263   44.6576 H   0  0  0  0  0  0  0  0  0  0  0  0
  182.8128   21.7017   46.0596 H   0  0  0  0  0  0  0  0  0  0  0  0
  181.0130   23.0230   47.7220 H   0  0  0  0  0  0  0  0  0  0  0  0
  178.9619   18.4969   45.7612 H   0  0  0  0  0  0  0  0  0  0  0  0
  175.7930   17.2700   45.6480 H   0  0  0  0  0  0  0  0  0  0  0  0
  174.4850   18.3080   45.3010 H   0  0  0  0  0  0  0  0  0  0  0  0
  174.6051   20.2026   49.6446 H   0  0  0  0  0  0  0  0  0  0  0  0
  175.9740   21.7152   50.5485 H   0  0  0  0  0  0  0  0  0  0  0  0
  177.7163   21.2378   50.3950 H   0  0  0  0  0  0  0  0  0  0  0  0
  176.5649   23.2064   48.4391 H   0  0  0  0  0  0  0  0  0  0  0  0
  176.9705   23.7425   50.1272 H   0  0  0  0  0  0  0  0  0  0  0  0
  178.7948   24.1226   48.5004 H   0  0  0  0  0  0  0  0  0  0  0  0
  179.2074   22.9827   49.8881 H   0  0  0  0  0  0  0  0  0  0  0  0
  1  2  1  0
  2  3  1  0
  2  4  1  0
  2  5  1  0
  5  6  3  0
  6  7  1  0
  7  8  2  0
  8  9  1  0
  9 10  2  0
 10 11  1  0
 11 12  1  0
 12 13  2  0
 13 14  1  0
 14 15  2  0
 13 16  1  0
 16 17  2  0
 17 18  1  0
 18 19  1  0
 18 20  2  0
 20 21  1  0
 21 22  2  0
 22 23  1  0
 23 24  1  0
 24 25  1  0
 15  7  1  0
 22 16  1  0
 14 10  1  0
 25 12  1  0
  1 26  1  0
  1 27  1  0
  1 28  1  0
  3 29  1  0
  3 30  1  0
  3 31  1  0
  4 32  1  0
  8 33  1  0
  9 34  1  0
 11 35  1  0
 15 36  1  0
 19 37  1  0
 19 38  1  0
 21 39  1  0
 23 40  1  0
 23 41  1  0
 24 42  1  0
 24 43  1  0
 25 44  1  0
 25 45  1  0
M  END
>  <meeko>  (1) 
{"is_sidechain": [false], "free_energy": -8.551, "intermolecular_energy": -11.55, "internal_energy": 0.708}

$$$$
VP7_out
     RDKit          3D

 45 48  0  0  0  0  0  0  0  0999 V2000
  180.5810   14.7850   43.3830 C   0  0  0  0  0  0  0  0  0  0  0  0
  181.3520   16.0620   43.0530 C   0  0  0  0  0  0  0  0  0  0  0  0
  181.1180   16.4730   41.6010 C   0  0  0  0  0  0  0  0  0  0  0  0
  182.7460   15.7940   43.2070 O   0  0  0  0  0  0  0  0  0  0  0  0
  180.9690   17.1490   43.9670 C   0  0  0  0  0  0  0  0  0  0  0  0
  180.6560   18.0310   44.7210 C   0  0  0  0  0  0  0  0  0  0  0  0
  180.2870   19.0860   45.6140 C   0  0  0  0  0  0  0  0  0  0  0  0
  179.0260   19.0850   46.2050 C   0  0  0  0  0  0  0  0  0  0  0  0
  178.6420   20.1080   47.0770 C   0  0  0  0  0  0  0  0  0  0  0  0
  179.5700   21.1260   47.3320 C   0  0  0  0  0  0  0  0  0  0  0  0
  179.4560   22.2350   48.1270 N   0  0  0  0  0  0  0  0  0  0  0  0
  180.6010   23.0000   48.0920 C   0  0  0  0  0  0  0  0  0  0  0  0
  181.5110   22.3480   47.2620 C   0  0  0  0  0  0  0  0  0  0  0  0
  180.8420   21.1620   46.7700 C   0  0  0  0  0  0  0  0  0  0  0  0
  181.1980   20.1140   45.8870 C   0  0  0  0  0  0  0  0  0  0  0  0
  182.8810   22.7870   46.9520 C   0  0  0  0  0  0  0  0  0  0  0  0
  183.3990   22.2090   45.8430 N   0  0  0  0  0  0  0  0  0  0  0  0
  184.6190   22.5730   45.4550 C   0  0  0  0  0  0  0  0  0  0  0  0
  185.1400   21.9620   44.3340 N   0  0  0  0  0  0  0  0  0  0  0  0
  185.3890   23.4450   46.0970 N   0  0  0  0  0  0  0  0  0  0  0  0
  184.8580   23.9970   47.2010 C   0  0  0  0  0  0  0  0  0  0  0  0
  183.5990   23.7040   47.6980 C   0  0  0  0  0  0  0  0  0  0  0  0
  183.1280   24.3690   48.9540 C   0  0  0  0  0  0  0  0  0  0  0  0
  181.8460   25.1370   48.6990 C   0  0  0  0  0  0  0  0  0  0  0  0
  180.6120   24.2700   48.8750 C   0  0  0  0  0  0  0  0  0  0  0  0
  180.5117   14.6703   44.4748 H   0  0  0  0  0  0  0  0  0  0  0  0
  179.5692   14.8469   42.9559 H   0  0  0  0  0  0  0  0  0  0  0  0
  181.1069   13.9184   42.9559 H   0  0  0  0  0  0  0  0  0  0  0  0
  180.5739   17.4286   41.5736 H   0  0  0  0  0  0  0  0  0  0  0  0
  182.0863   16.5876   41.0918 H   0  0  0  0  0  0  0  0  0  0  0  0
  180.5253   15.6988   41.0918 H   0  0  0  0  0  0  0  0  0  0  0  0
  183.1120   16.3710   43.8960 H   0  0  0  0  0  0  0  0  0  0  0  0
  178.3230   18.2687   45.9828 H   0  0  0  0  0  0  0  0  0  0  0  0
  177.6470   20.1134   47.5460 H   0  0  0  0  0  0  0  0  0  0  0  0
  178.6560   22.4590   48.6560 H   0  0  0  0  0  0  0  0  0  0  0  0
  182.1915   20.1073   45.4148 H   0  0  0  0  0  0  0  0  0  0  0  0
  185.2790   22.4820   43.5090 H   0  0  0  0  0  0  0  0  0  0  0  0
  185.3730   21.0060   44.3580 H   0  0  0  0  0  0  0  0  0  0  0  0
  185.4656   24.7329   47.7481 H   0  0  0  0  0  0  0  0  0  0  0  0
  182.9447   23.6034   49.7222 H   0  0  0  0  0  0  0  0  0  0  0  0
  183.9019   25.0718   49.2964 H   0  0  0  0  0  0  0  0  0  0  0  0
  181.7910   25.9786   49.4052 H   0  0  0  0  0  0  0  0  0  0  0  0
  181.8652   25.4887   47.6569 H   0  0  0  0  0  0  0  0  0  0  0  0
  180.5290   24.0114   49.9409 H   0  0  0  0  0  0  0  0  0  0  0  0
  179.7685   24.8655   48.4956 H   0  0  0  0  0  0  0  0  0  0  0  0
  1  2  1  0
  2  3  1  0
  2  4  1  0
  2  5  1  0
  5  6  3  0
  6  7  1  0
  7  8  2  0
  8  9  1  0
  9 10  2  0
 10 11  1  0
 11 12  1  0
 12 13  2  0
 13 14  1  0
 14 15  2  0
 13 16  1  0
 16 17  2  0
 17 18  1  0
 18 19  1  0
 18 20  2  0
 20 21  1  0
 21 22  2  0
 22 23  1  0
 23 24  1  0
 24 25  1  0
 15  7  1  0
 22 16  1  0
 14 10  1  0
 25 12  1  0
  1 26  1  0
  1 27  1  0
  1 28  1  0
  3 29  1  0
  3 30  1  0
  3 31  1  0
  4 32  1  0
  8 33  1  0
  9 34  1  0
 11 35  1  0
 15 36  1  0
 19 37  1  0
 19 38  1  0
 21 39  1  0
 23 40  1  0
 23 41  1  0
 24 42  1  0
 24 43  1  0
 25 44  1  0
 25 45  1  0
M  END
>  <meeko>  (2) 
{"is_sidechain": [false], "free_energy": -7.075, "intermolecular_energy": -9.625, "internal_energy": 0.777}

$$$$
VP7_out
     RDKit          3D

 45 48  0  0  0  0  0  0  0  0999 V2000
  173.6010   24.4400   51.7080 C   0  0  0  0  0  0  0  0  0  0  0  0
  172.8230   23.7710   50.5770 C   0  0  0  0  0  0  0  0  0  0  0  0
  172.1360   24.8170   49.7020 C   0  0  0  0  0  0  0  0  0  0  0  0
  171.8030   22.9570   51.1580 O   0  0  0  0  0  0  0  0  0  0  0  0
  173.7110   22.9210   49.7690 C   0  0  0  0  0  0  0  0  0  0  0  0
  174.4400   22.2240   49.1160 C   0  0  0  0  0  0  0  0  0  0  0  0
  175.3140   21.3950   48.3430 C   0  0  0  0  0  0  0  0  0  0  0  0
  174.8040   20.2880   47.6710 C   0  0  0  0  0  0  0  0  0  0  0  0
  175.6390   19.4610   46.9140 C   0  0  0  0  0  0  0  0  0  0  0  0
  177.0000   19.7890   46.8590 C   0  0  0  0  0  0  0  0  0  0  0  0
  178.0270   19.1580   46.2090 N   0  0  0  0  0  0  0  0  0  0  0  0
  179.2270   19.7980   46.4230 C   0  0  0  0  0  0  0  0  0  0  0  0
  178.9690   20.9090   47.2230 C   0  0  0  0  0  0  0  0  0  0  0  0
  177.5500   20.8890   47.5090 C   0  0  0  0  0  0  0  0  0  0  0  0
  176.6780   21.7030   48.2710 C   0  0  0  0  0  0  0  0  0  0  0  0
  179.9530   21.9030   47.6820 C   0  0  0  0  0  0  0  0  0  0  0  0
  179.4040   23.0910   48.0280 N   0  0  0  0  0  0  0  0  0  0  0  0
  180.2070   24.0420   48.4980 C   0  0  0  0  0  0  0  0  0  0  0  0
  179.6350   25.2530   48.8290 N   0  0  0  0  0  0  0  0  0  0  0  0
  181.5240   23.9270   48.6240 N   0  0  0  0  0  0  0  0  0  0  0  0
  182.0480   22.7430   48.2640 C   0  0  0  0  0  0  0  0  0  0  0  0
  181.3150   21.6770   47.7700 C   0  0  0  0  0  0  0  0  0  0  0  0
  182.0180   20.4140   47.3800 C   0  0  0  0  0  0  0  0  0  0  0  0
  181.7170   20.0280   45.9400 C   0  0  0  0  0  0  0  0  0  0  0  0
  180.4510   19.1990   45.8140 C   0  0  0  0  0  0  0  0  0  0  0  0
  173.2054   24.0998   52.6764 H   0  0  0  0  0  0  0  0  0  0  0  0
  174.6646   24.1700   51.6311 H   0  0  0  0  0  0  0  0  0  0  0  0
  173.4934   25.5320   51.6311 H   0  0  0  0  0  0  0  0  0  0  0  0
  171.6448   25.5649   50.3418 H   0  0  0  0  0  0  0  0  0  0  0  0
  172.8849   25.3129   49.0669 H   0  0  0  0  0  0  0  0  0  0  0  0
  171.3834   24.3268   49.0669 H   0  0  0  0  0  0  0  0  0  0  0  0
  172.0790   22.0270   51.1340 H   0  0  0  0  0  0  0  0  0  0  0  0
  173.7297   20.0608   47.7364 H   0  0  0  0  0  0  0  0  0  0  0  0
  175.2419   18.5846   46.3809 H   0  0  0  0  0  0  0  0  0  0  0  0
  177.9200   18.3480   45.6580 H   0  0  0  0  0  0  0  0  0  0  0  0
  177.0724   22.5787   48.8073 H   0  0  0  0  0  0  0  0  0  0  0  0
  178.9380   25.2950   49.5240 H   0  0  0  0  0  0  0  0  0  0  0  0
  179.9240   26.0750   48.3710 H   0  0  0  0  0  0  0  0  0  0  0  0
  183.1350   22.6115   48.3691 H   0  0  0  0  0  0  0  0  0  0  0  0
  183.1026   20.5601   47.4913 H   0  0  0  0  0  0  0  0  0  0  0  0
  181.6615   19.6053   48.0349 H   0  0  0  0  0  0  0  0  0  0  0  0
  181.5983   20.9461   45.3459 H   0  0  0  0  0  0  0  0  0  0  0  0
  182.5553   19.4164   45.5751 H   0  0  0  0  0  0  0  0  0  0  0  0
  180.2543   19.0415   44.7433 H   0  0  0  0  0  0  0  0  0  0  0  0
  180.6418   18.2701   46.3714 H   0  0  0  0  0  0  0  0  0  0  0  0
  1  2  1  0
  2  3  1  0
  2  4  1  0
  2  5  1  0
  5  6  3  0
  6  7  1  0
  7  8  2  0
  8  9  1  0
  9 10  2  0
 10 11  1  0
 11 12  1  0
 12 13  2  0
 13 14  1  0
 14 15  2  0
 13 16  1  0
 16 17  2  0
 17 18  1  0
 18 19  1  0
 18 20  2  0
 20 21  1  0
 21 22  2  0
 22 23  1  0
 23 24  1  0
 24 25  1  0
 15  7  1  0
 22 16  1  0
 14 10  1  0
 25 12  1  0
  1 26  1  0
  1 27  1  0
  1 28  1  0
  3 29  1  0
  3 30  1  0
  3 31  1  0
  4 32  1  0
  8 33  1  0
  9 34  1  0
 11 35  1  0
 15 36  1  0
 19 37  1  0
 19 38  1  0
 21 39  1  0
 23 40  1  0
 23 41  1  0
 24 42  1  0
 24 43  1  0
 25 44  1  0
 25 45  1  0
M  END
>  <meeko>  (3) 
{"is_sidechain": [false], "free_energy": -6.93, "intermolecular_energy": -9.356, "internal_energy": 0.703}

$$$$
VP7_out
     RDKit          3D

 45 48  0  0  0  0  0  0  0  0999 V2000
  175.5540   18.2770   46.9620 C   0  0  0  0  0  0  0  0  0  0  0  0
  175.8420   19.6400   47.5880 C   0  0  0  0  0  0  0  0  0  0  0  0
  175.5590   19.6160   49.0890 C   0  0  0  0  0  0  0  0  0  0  0  0
  174.9620   20.5970   46.9980 O   0  0  0  0  0  0  0  0  0  0  0  0
  177.2320   20.0450   47.3300 C   0  0  0  0  0  0  0  0  0  0  0  0
  178.3670   20.3730   47.1110 C   0  0  0  0  0  0  0  0  0  0  0  0
  179.7200   20.7650   46.8560 C   0  0  0  0  0  0  0  0  0  0  0  0
  180.4780   20.0700   45.9170 C   0  0  0  0  0  0  0  0  0  0  0  0
  181.8030   20.4320   45.6550 C   0  0  0  0  0  0  0  0  0  0  0  0
  182.3330   21.5140   46.3690 C   0  0  0  0  0  0  0  0  0  0  0  0
  183.5840   22.0680   46.3180 N   0  0  0  0  0  0  0  0  0  0  0  0
  183.7070   23.1180   47.2010 C   0  0  0  0  0  0  0  0  0  0  0  0
  182.4770   23.2740   47.8350 C   0  0  0  0  0  0  0  0  0  0  0  0
  181.6090   22.2400   47.3100 C   0  0  0  0  0  0  0  0  0  0  0  0
  180.2720   21.8440   47.5550 C   0  0  0  0  0  0  0  0  0  0  0  0
  182.1340   24.2940   48.8380 C   0  0  0  0  0  0  0  0  0  0  0  0
  180.8050   24.5260   48.9450 N   0  0  0  0  0  0  0  0  0  0  0  0
  180.3900   25.4020   49.8570 C   0  0  0  0  0  0  0  0  0  0  0  0
  179.0340   25.6420   49.9410 N   0  0  0  0  0  0  0  0  0  0  0  0
  181.1910   26.0970   50.6580 N   0  0  0  0  0  0  0  0  0  0  0  0
  182.5060   25.8570   50.5270 C   0  0  0  0  0  0  0  0  0  0  0  0
  183.0560   24.9660   49.6210 C   0  0  0  0  0  0  0  0  0  0  0  0
  184.5420   24.8040   49.5530 C   0  0  0  0  0  0  0  0  0  0  0  0
  185.0680   25.0550   48.1400 C   0  0  0  0  0  0  0  0  0  0  0  0
  185.0340   23.7950   47.2920 C   0  0  0  0  0  0  0  0  0  0  0  0
  175.3970   17.5339   47.7577 H   0  0  0  0  0  0  0  0  0  0  0  0
  174.6501   18.3434   46.3387 H   0  0  0  0  0  0  0  0  0  0  0  0
  176.4075   17.9720   46.3387 H   0  0  0  0  0  0  0  0  0  0  0  0
  176.5064   19.6964   49.6421 H   0  0  0  0  0  0  0  0  0  0  0  0
  174.9075   20.4621   49.3529 H   0  0  0  0  0  0  0  0  0  0  0  0
  175.0593   18.6722   49.3529 H   0  0  0  0  0  0  0  0  0  0  0  0
  174.2070   20.1380   46.5970 H   0  0  0  0  0  0  0  0  0  0  0  0
  180.0286   19.2253   45.3743 H   0  0  0  0  0  0  0  0  0  0  0  0
  182.4071   19.8867   44.9149 H   0  0  0  0  0  0  0  0  0  0  0  0
  184.3060   21.7540   45.7250 H   0  0  0  0  0  0  0  0  0  0  0  0
  179.6661   22.3856   48.2963 H   0  0  0  0  0  0  0  0  0  0  0  0
  178.5640   26.0800   49.1940 H   0  0  0  0  0  0  0  0  0  0  0  0
  178.5370   25.3760   50.7470 H   0  0  0  0  0  0  0  0  0  0  0  0
  183.1943   26.4069   51.1857 H   0  0  0  0  0  0  0  0  0  0  0  0
  185.0118   25.5213   50.2421 H   0  0  0  0  0  0  0  0  0  0  0  0
  184.7901   23.7702   49.8354 H   0  0  0  0  0  0  0  0  0  0  0  0
  184.4451   25.8240   47.6598 H   0  0  0  0  0  0  0  0  0  0  0  0
  186.1143   25.3853   48.2188 H   0  0  0  0  0  0  0  0  0  0  0  0
  185.3480   24.0639   46.2726 H   0  0  0  0  0  0  0  0  0  0  0  0
  185.7054   23.0786   47.7881 H   0  0  0  0  0  0  0  0  0  0  0  0
  1  2  1  0
  2  3  1  0
  2  4  1  0
  2  5  1  0
  5  6  3  0
  6  7  1  0
  7  8  2  0
  8  9  1  0
  9 10  2  0
 10 11  1  0
 11 12  1  0
 12 13  2  0
 13 14  1  0
 14 15  2  0
 13 16  1  0
 16 17  2  0
 17 18  1  0
 18 19  1  0
 18 20  2  0
 20 21  1  0
 21 22  2  0
 22 23  1  0
 23 24  1  0
 24 25  1  0
 15  7  1  0
 22 16  1  0
 14 10  1  0
 25 12  1  0
  1 26  1  0
  1 27  1  0
  1 28  1  0
  3 29  1  0
  3 30  1  0
  3 31  1  0
  4 32  1  0
  8 33  1  0
  9 34  1  0
 11 35  1  0
 15 36  1  0
 19 37  1  0
 19 38  1  0
 21 39  1  0
 23 40  1  0
 23 41  1  0
 24 42  1  0
 24 43  1  0
 25 44  1  0
 25 45  1  0
M  END
>  <meeko>  (4) 
{"is_sidechain": [false], "free_energy": -6.561, "intermolecular_energy": -8.857, "internal_energy": 0.703}

$$$$
VP7_out
     RDKit          3D

 45 48  0  0  0  0  0  0  0  0999 V2000
  180.8310   15.2070   44.0670 C   0  0  0  0  0  0  0  0  0  0  0  0
  181.1960   16.6340   43.6640 C   0  0  0  0  0  0  0  0  0  0  0  0
  180.7980   16.9050   42.2150 C   0  0  0  0  0  0  0  0  0  0  0  0
  182.6140   16.7760   43.7570 O   0  0  0  0  0  0  0  0  0  0  0  0
  180.5570   17.6050   44.5660 C   0  0  0  0  0  0  0  0  0  0  0  0
  180.0380   18.3930   45.3100 C   0  0  0  0  0  0  0  0  0  0  0  0
  179.4230   19.3360   46.1940 C   0  0  0  0  0  0  0  0  0  0  0  0
  178.0730   19.2100   46.5130 C   0  0  0  0  0  0  0  0  0  0  0  0
  177.4500   20.1220   47.3690 C   0  0  0  0  0  0  0  0  0  0  0  0
  178.2320   21.1610   47.8910 C   0  0  0  0  0  0  0  0  0  0  0  0
  177.8820   22.1810   48.7340 N   0  0  0  0  0  0  0  0  0  0  0  0
  178.9520   23.0080   48.9950 C   0  0  0  0  0  0  0  0  0  0  0  0
  180.0540   22.4900   48.3180 C   0  0  0  0  0  0  0  0  0  0  0  0
  179.5840   21.3200   47.6040 C   0  0  0  0  0  0  0  0  0  0  0  0
  180.1840   20.3820   46.7300 C   0  0  0  0  0  0  0  0  0  0  0  0
  181.4220   23.0300   48.3310 C   0  0  0  0  0  0  0  0  0  0  0  0
  182.1880   22.5970   47.3030 N   0  0  0  0  0  0  0  0  0  0  0  0
  183.4300   23.0640   47.2030 C   0  0  0  0  0  0  0  0  0  0  0  0
  184.2040   22.5980   46.1600 N   0  0  0  0  0  0  0  0  0  0  0  0
  183.9930   23.9070   48.0610 N   0  0  0  0  0  0  0  0  0  0  0  0
  183.2180   24.3150   49.0790 C   0  0  0  0  0  0  0  0  0  0  0  0
  181.9110   23.9060   49.2850 C   0  0  0  0  0  0  0  0  0  0  0  0
  181.1560   24.4140   50.4730 C   0  0  0  0  0  0  0  0  0  0  0  0
  179.8930   25.1410   50.0200 C   0  0  0  0  0  0  0  0  0  0  0  0
  178.7140   24.1960   49.8660 C   0  0  0  0  0  0  0  0  0  0  0  0
  180.8112   15.1295   45.1641 H   0  0  0  0  0  0  0  0  0  0  0  0
  179.8393   14.9544   43.6636 H   0  0  0  0  0  0  0  0  0  0  0  0
  181.5796   14.5092   43.6636 H   0  0  0  0  0  0  0  0  0  0  0  0
  179.8889   17.5240   42.1941 H   0  0  0  0  0  0  0  0  0  0  0  0
  181.6147   17.4355   41.7035 H   0  0  0  0  0  0  0  0  0  0  0  0
  180.6037   15.9507   41.7035 H   0  0  0  0  0  0  0  0  0  0  0  0
  182.9800   16.9450   42.8740 H   0  0  0  0  0  0  0  0  0  0  0  0
  177.4894   18.3814   46.0853 H   0  0  0  0  0  0  0  0  0  0  0  0
  176.3841   20.0277   47.6239 H   0  0  0  0  0  0  0  0  0  0  0  0
  176.9790   22.3090   49.1050 H   0  0  0  0  0  0  0  0  0  0  0  0
  181.2492   20.4749   46.4716 H   0  0  0  0  0  0  0  0  0  0  0  0
  184.8240   21.8470   46.3040 H   0  0  0  0  0  0  0  0  0  0  0  0
  184.1360   23.0170   45.2720 H   0  0  0  0  0  0  0  0  0  0  0  0
  183.6517   25.0238   49.7998 H   0  0  0  0  0  0  0  0  0  0  0  0
  180.8770   23.5665   51.1164 H   0  0  0  0  0  0  0  0  0  0  0  0
  181.7937   25.1145   51.0322 H   0  0  0  0  0  0  0  0  0  0  0  0
  179.6380   25.9076   50.7665 H   0  0  0  0  0  0  0  0  0  0  0  0
  180.0959   25.5924   49.0376 H   0  0  0  0  0  0  0  0  0  0  0  0
  178.4381   23.8325   50.8669 H   0  0  0  0  0  0  0  0  0  0  0  0
  177.9226   24.7788   49.3720 H   0  0  0  0  0  0  0  0  0  0  0  0
  1  2  1  0
  2  3  1  0
  2  4  1  0
  2  5  1  0
  5  6  3  0
  6  7  1  0
  7  8  2  0
  8  9  1  0
  9 10  2  0
 10 11  1  0
 11 12  1  0
 12 13  2  0
 13 14  1  0
 14 15  2  0
 13 16  1  0
 16 17  2  0
 17 18  1  0
 18 19  1  0
 18 20  2  0
 20 21  1  0
 21 22  2  0
 22 23  1  0
 23 24  1  0
 24 25  1  0
 15  7  1  0
 22 16  1  0
 14 10  1  0
 25 12  1  0
  1 26  1  0
  1 27  1  0
  1 28  1  0
  3 29  1  0
  3 30  1  0
  3 31  1  0
  4 32  1  0
  8 33  1  0
  9 34  1  0
 11 35  1  0
 15 36  1  0
 19 37  1  0
 19 38  1  0
 21 39  1  0
 23 40  1  0
 23 41  1  0
 24 42  1  0
 24 43  1  0
 25 44  1  0
 25 45  1  0
M  END
>  <meeko>  (5) 
{"is_sidechain": [false], "free_energy": -6.559, "intermolecular_energy": -8.924, "internal_energy": 0.772}

$$$$
VP7_out
     RDKit          3D

 45 48  0  0  0  0  0  0  0  0999 V2000
  184.6990   24.6260   45.0560 C   0  0  0  0  0  0  0  0  0  0  0  0
  184.9690   23.3860   45.9060 C   0  0  0  0  0  0  0  0  0  0  0  0
  185.4400   23.7810   47.3030 C   0  0  0  0  0  0  0  0  0  0  0  0
  186.0210   22.6430   45.2900 O   0  0  0  0  0  0  0  0  0  0  0  0
  183.7670   22.5410   45.9840 C   0  0  0  0  0  0  0  0  0  0  0  0
  182.7840   21.8520   46.0400 C   0  0  0  0  0  0  0  0  0  0  0  0
  181.6100   21.0360   46.1050 C   0  0  0  0  0  0  0  0  0  0  0  0
  181.5780   19.8110   45.4440 C   0  0  0  0  0  0  0  0  0  0  0  0
  180.4400   19.0010   45.4900 C   0  0  0  0  0  0  0  0  0  0  0  0
  179.3410   19.4660   46.2230 C   0  0  0  0  0  0  0  0  0  0  0  0
  178.1170   18.8880   46.4270 N   0  0  0  0  0  0  0  0  0  0  0  0
  177.3060   19.6870   47.2020 C   0  0  0  0  0  0  0  0  0  0  0  0
  178.0410   20.8200   47.5430 C   0  0  0  0  0  0  0  0  0  0  0  0
  179.3330   20.6790   46.9040 C   0  0  0  0  0  0  0  0  0  0  0  0
  180.4990   21.4790   46.8330 C   0  0  0  0  0  0  0  0  0  0  0  0
  177.5860   21.9350   48.3880 C   0  0  0  0  0  0  0  0  0  0  0  0
  178.5970   22.6470   48.9390 N   0  0  0  0  0  0  0  0  0  0  0  0
  178.2880   23.7030   49.6870 C   0  0  0  0  0  0  0  0  0  0  0  0
  179.3290   24.4070   50.2570 N   0  0  0  0  0  0  0  0  0  0  0  0
  177.0510   24.1000   49.9640 N   0  0  0  0  0  0  0  0  0  0  0  0
  176.0640   23.3720   49.4140 C   0  0  0  0  0  0  0  0  0  0  0  0
  176.2600   22.2580   48.6150 C   0  0  0  0  0  0  0  0  0  0  0  0
  175.0760   21.5150   48.0800 C   0  0  0  0  0  0  0  0  0  0  0  0
  175.1220   20.0410   48.4650 C   0  0  0  0  0  0  0  0  0  0  0  0
  175.9180   19.2100   47.4730 C   0  0  0  0  0  0  0  0  0  0  0  0
  184.5114   25.4876   45.7136 H   0  0  0  0  0  0  0  0  0  0  0  0
  185.5732   24.8328   44.4211 H   0  0  0  0  0  0  0  0  0  0  0  0
  183.8180   24.4506   44.4211 H   0  0  0  0  0  0  0  0  0  0  0  0
  184.8258   23.2659   48.0563 H   0  0  0  0  0  0  0  0  0  0  0  0
  186.4940   23.4927   47.4298 H   0  0  0  0  0  0  0  0  0  0  0  0
  185.3397   24.8691   47.4298 H   0  0  0  0  0  0  0  0  0  0  0  0
  185.7450   21.7180   45.1840 H   0  0  0  0  0  0  0  0  0  0  0  0
  182.4600   19.4763   44.8782 H   0  0  0  0  0  0  0  0  0  0  0  0
  180.4086   18.0327   44.9690 H   0  0  0  0  0  0  0  0  0  0  0  0
  177.8490   18.0130   46.0630 H   0  0  0  0  0  0  0  0  0  0  0  0
  180.5321   22.4493   47.3501 H   0  0  0  0  0  0  0  0  0  0  0  0
  180.2610   24.1700   50.0410 H   0  0  0  0  0  0  0  0  0  0  0  0
  179.1410   25.1470   50.8780 H   0  0  0  0  0  0  0  0  0  0  0  0
  175.0277   23.6829   49.6125 H   0  0  0  0  0  0  0  0  0  0  0  0
  174.1582   21.9629   48.4887 H   0  0  0  0  0  0  0  0  0  0  0  0
  175.0907   21.5860   46.9824 H   0  0  0  0  0  0  0  0  0  0  0  0
  175.5877   19.9490   49.4573 H   0  0  0  0  0  0  0  0  0  0  0  0
  174.0893   19.6621   48.4689 H   0  0  0  0  0  0  0  0  0  0  0  0
  175.9828   18.1844   47.8654 H   0  0  0  0  0  0  0  0  0  0  0  0
  175.3807   19.2860   46.5162 H   0  0  0  0  0  0  0  0  0  0  0  0
  1  2  1  0
  2  3  1  0
  2  4  1  0
  2  5  1  0
  5  6  3  0
  6  7  1  0
  7  8  2  0
  8  9  1  0
  9 10  2  0
 10 11  1  0
 11 12  1  0
 12 13  2  0
 13 14  1  0
 14 15  2  0
 13 16  1  0
 16 17  2  0
 17 18  1  0
 18 19  1  0
 18 20  2  0
 20 21  1  0
 21 22  2  0
 22 23  1  0
 23 24  1  0
 24 25  1  0
 15  7  1  0
 22 16  1  0
 14 10  1  0
 25 12  1  0
  1 26  1  0
  1 27  1  0
  1 28  1  0
  3 29  1  0
  3 30  1  0
  3 31  1  0
  4 32  1  0
  8 33  1  0
  9 34  1  0
 11 35  1  0
 15 36  1  0
 19 37  1  0
 19 38  1  0
 21 39  1  0
 23 40  1  0
 23 41  1  0
 24 42  1  0
 24 43  1  0
 25 44  1  0
 25 45  1  0
M  END
>  <meeko>  (6) 
{"is_sidechain": [false], "free_energy": -6.488, "intermolecular_energy": -8.759, "internal_energy": 0.703}

$$$$
VP7_out
     RDKit          3D

 45 48  0  0  0  0  0  0  0  0999 V2000
  180.9240   18.6180   45.0260 C   0  0  0  0  0  0  0  0  0  0  0  0
  181.0290   19.7390   46.0580 C   0  0  0  0  0  0  0  0  0  0  0  0
  181.7230   20.9600   45.4600 C   0  0  0  0  0  0  0  0  0  0  0  0
  181.8320   19.2730   47.1430 O   0  0  0  0  0  0  0  0  0  0  0  0
  179.6970   20.0980   46.5690 C   0  0  0  0  0  0  0  0  0  0  0  0
  178.6070   20.3830   46.9860 C   0  0  0  0  0  0  0  0  0  0  0  0
  177.3100   20.7290   47.4850 C   0  0  0  0  0  0  0  0  0  0  0  0
  176.1730   20.1860   46.8930 C   0  0  0  0  0  0  0  0  0  0  0  0
  174.8960   20.5140   47.3590 C   0  0  0  0  0  0  0  0  0  0  0  0
  174.8080   21.4020   48.4390 C   0  0  0  0  0  0  0  0  0  0  0  0
  173.7020   21.8910   49.0810 N   0  0  0  0  0  0  0  0  0  0  0  0
  174.0500   22.7600   50.0920 C   0  0  0  0  0  0  0  0  0  0  0  0
  175.4420   22.8180   50.1300 C   0  0  0  0  0  0  0  0  0  0  0  0
  175.9180   21.9610   49.0640 C   0  0  0  0  0  0  0  0  0  0  0  0
  177.1960   21.6130   48.5640 C   0  0  0  0  0  0  0  0  0  0  0  0
  176.2590   23.5990   51.0720 C   0  0  0  0  0  0  0  0  0  0  0  0
  177.5360   23.7800   50.6630 N   0  0  0  0  0  0  0  0  0  0  0  0
  178.3440   24.5110   51.4260 C   0  0  0  0  0  0  0  0  0  0  0  0
  179.6480   24.6710   51.0050 N   0  0  0  0  0  0  0  0  0  0  0  0
  178.0000   25.0570   52.5880 N   0  0  0  0  0  0  0  0  0  0  0  0
  176.7300   24.8550   52.9780 C   0  0  0  0  0  0  0  0  0  0  0  0
  175.7960   24.1200   52.2680 C   0  0  0  0  0  0  0  0  0  0  0  0
  174.4160   23.9460   52.8200 C   0  0  0  0  0  0  0  0  0  0  0  0
  173.3800   24.4750   51.8520 C   0  0  0  0  0  0  0  0  0  0  0  0
  172.9470   23.4130   50.8560 C   0  0  0  0  0  0  0  0  0  0  0  0
  180.8334   17.6512   45.5428 H   0  0  0  0  0  0  0  0  0  0  0  0
  180.0372   18.7815   44.3960 H   0  0  0  0  0  0  0  0  0  0  0  0
  181.8257   18.6140   44.3960 H   0  0  0  0  0  0  0  0  0  0  0  0
  182.0905   21.6065   46.2706 H   0  0  0  0  0  0  0  0  0  0  0  0
  182.5702   20.6329   44.8393 H   0  0  0  0  0  0  0  0  0  0  0  0
  181.0085   21.5205   44.8393 H   0  0  0  0  0  0  0  0  0  0  0  0
  182.7650   19.2700   46.8760 H   0  0  0  0  0  0  0  0  0  0  0  0
  176.2805   19.4901   46.0479 H   0  0  0  0  0  0  0  0  0  0  0  0
  173.9934   20.0902   46.8945 H   0  0  0  0  0  0  0  0  0  0  0  0
  172.7750   21.6540   48.8490 H   0  0  0  0  0  0  0  0  0  0  0  0
  178.1003   22.0379   49.0241 H   0  0  0  0  0  0  0  0  0  0  0  0
  179.9910   24.1370   50.2520 H   0  0  0  0  0  0  0  0  0  0  0  0
  180.2350   25.3190   51.4570 H   0  0  0  0  0  0  0  0  0  0  0  0
  176.4097   25.3057   53.9290 H   0  0  0  0  0  0  0  0  0  0  0  0
  174.2308   22.8764   52.9977 H   0  0  0  0  0  0  0  0  0  0  0  0
  174.3391   24.5092   53.7617 H   0  0  0  0  0  0  0  0  0  0  0  0
  172.5000   24.8107   52.4202 H   0  0  0  0  0  0  0  0  0  0  0  0
  173.8288   25.3081   51.2912 H   0  0  0  0  0  0  0  0  0  0  0  0
  172.4080   22.6296   51.4090 H   0  0  0  0  0  0  0  0  0  0  0  0
  172.3298   23.9337   50.1091 H   0  0  0  0  0  0  0  0  0  0  0  0
  1  2  1  0
  2  3  1  0
  2  4  1  0
  2  5  1  0
  5  6  3  0
  6  7  1  0
  7  8  2  0
  8  9  1  0
  9 10  2  0
 10 11  1  0
 11 12  1  0
 12 13  2  0
 13 14  1  0
 14 15  2  0
 13 16  1  0
 16 17  2  0
 17 18  1  0
 18 19  1  0
 18 20  2  0
 20 21  1  0
 21 22  2  0
 22 23  1  0
 23 24  1  0
 24 25  1  0
 15  7  1  0
 22 16  1  0
 14 10  1  0
 25 12  1  0
  1 26  1  0
  1 27  1  0
  1 28  1  0
  3 29  1  0
  3 30  1  0
  3 31  1  0
  4 32  1  0
  8 33  1  0
  9 34  1  0
 11 35  1  0
 15 36  1  0
 19 37  1  0
 19 38  1  0
 21 39  1  0
 23 40  1  0
 23 41  1  0
 24 42  1  0
 24 43  1  0
 25 44  1  0
 25 45  1  0
M  END
>  <meeko>  (7) 
{"is_sidechain": [false], "free_energy": -6.277, "intermolecular_energy": -8.552, "internal_energy": 0.781}

$$$$
VP7_out
     RDKit          3D

 45 48  0  0  0  0  0  0  0  0999 V2000
  181.8470   20.1640   45.9790 C   0  0  0  0  0  0  0  0  0  0  0  0
  181.6370   20.8510   47.3280 C   0  0  0  0  0  0  0  0  0  0  0  0
  182.3480   22.2020   47.3620 C   0  0  0  0  0  0  0  0  0  0  0  0
  182.2190   20.0310   48.3420 O   0  0  0  0  0  0  0  0  0  0  0  0
  180.2020   21.0130   47.6070 C   0  0  0  0  0  0  0  0  0  0  0  0
  179.0280   21.1380   47.8330 C   0  0  0  0  0  0  0  0  0  0  0  0
  177.6310   21.2930   48.1000 C   0  0  0  0  0  0  0  0  0  0  0  0
  176.7330   20.3140   47.6830 C   0  0  0  0  0  0  0  0  0  0  0  0
  175.3630   20.4460   47.9290 C   0  0  0  0  0  0  0  0  0  0  0  0
  174.9330   21.5940   48.6080 C   0  0  0  0  0  0  0  0  0  0  0  0
  173.6680   21.9760   48.9670 N   0  0  0  0  0  0  0  0  0  0  0  0
  173.6750   23.1930   49.6120 C   0  0  0  0  0  0  0  0  0  0  0  0
  175.0010   23.6100   49.7030 C   0  0  0  0  0  0  0  0  0  0  0  0
  175.7970   22.5920   49.0480 C   0  0  0  0  0  0  0  0  0  0  0  0
  177.1770   22.4300   48.7780 C   0  0  0  0  0  0  0  0  0  0  0  0
  175.4880   24.8420   50.3410 C   0  0  0  0  0  0  0  0  0  0  0  0
  176.7880   24.7830   50.7150 N   0  0  0  0  0  0  0  0  0  0  0  0
  177.3340   25.8650   51.2630 C   0  0  0  0  0  0  0  0  0  0  0  0
  178.6540   25.7840   51.6560 N   0  0  0  0  0  0  0  0  0  0  0  0
  176.6880   27.0010   51.5040 N   0  0  0  0  0  0  0  0  0  0  0  0
  175.3970   27.0330   51.1340 C   0  0  0  0  0  0  0  0  0  0  0  0
  174.7210   25.9750   50.5490 C   0  0  0  0  0  0  0  0  0  0  0  0
  173.2730   26.1240   50.2030 C   0  0  0  0  0  0  0  0  0  0  0  0
  172.4310   25.0290   50.8660 C   0  0  0  0  0  0  0  0  0  0  0  0
  172.3600   23.7650   50.0260 C   0  0  0  0  0  0  0  0  0  0  0  0
  182.1650   19.1238   46.1428 H   0  0  0  0  0  0  0  0  0  0  0  0
  180.9047   20.1743   45.4116 H   0  0  0  0  0  0  0  0  0  0  0  0
  182.6225   20.6994   45.4116 H   0  0  0  0  0  0  0  0  0  0  0  0
  182.5080   22.5060   48.4070 H   0  0  0  0  0  0  0  0  0  0  0  0
  183.3189   22.1183   46.8517 H   0  0  0  0  0  0  0  0  0  0  0  0
  181.7293   22.9549   46.8517 H   0  0  0  0  0  0  0  0  0  0  0  0
  181.6140   19.3020   48.5540 H   0  0  0  0  0  0  0  0  0  0  0  0
  177.1063   19.4252   47.1532 H   0  0  0  0  0  0  0  0  0  0  0  0
  174.6485   19.6765   47.6014 H   0  0  0  0  0  0  0  0  0  0  0  0
  172.8570   21.4480   48.7870 H   0  0  0  0  0  0  0  0  0  0  0  0
  177.8938   23.1991   49.1016 H   0  0  0  0  0  0  0  0  0  0  0  0
  178.8790   25.5160   52.5780 H   0  0  0  0  0  0  0  0  0  0  0  0
  179.3720   25.9930   51.0160 H   0  0  0  0  0  0  0  0  0  0  0  0
  174.8378   27.9642   51.3077 H   0  0  0  0  0  0  0  0  0  0  0  0
  172.9205   27.1069   50.5488 H   0  0  0  0  0  0  0  0  0  0  0  0
  173.1640   26.0356   49.1120 H   0  0  0  0  0  0  0  0  0  0  0  0
  172.8775   24.7812   51.8403 H   0  0  0  0  0  0  0  0  0  0  0  0
  171.4071   25.4150   50.9786 H   0  0  0  0  0  0  0  0  0  0  0  0
  171.8265   23.0001   50.6094 H   0  0  0  0  0  0  0  0  0  0  0  0
  171.8484   24.0500   49.0948 H   0  0  0  0  0  0  0  0  0  0  0  0
  1  2  1  0
  2  3  1  0
  2  4  1  0
  2  5  1  0
  5  6  3  0
  6  7  1  0
  7  8  2  0
  8  9  1  0
  9 10  2  0
 10 11  1  0
 11 12  1  0
 12 13  2  0
 13 14  1  0
 14 15  2  0
 13 16  1  0
 16 17  2  0
 17 18  1  0
 18 19  1  0
 18 20  2  0
 20 21  1  0
 21 22  2  0
 22 23  1  0
 23 24  1  0
 24 25  1  0
 15  7  1  0
 22 16  1  0
 14 10  1  0
 25 12  1  0
  1 26  1  0
  1 27  1  0
  1 28  1  0
  3 29  1  0
  3 30  1  0
  3 31  1  0
  4 32  1  0
  8 33  1  0
  9 34  1  0
 11 35  1  0
 15 36  1  0
 19 37  1  0
 19 38  1  0
 21 39  1  0
 23 40  1  0
 23 41  1  0
 24 42  1  0
 24 43  1  0
 25 44  1  0
 25 45  1  0
M  END
>  <meeko>  (8) 
{"is_sidechain": [false], "free_energy": -6.149, "intermolecular_energy": -8.289, "internal_energy": 0.691}

$$$$
VP7_out
     RDKit          3D

 45 48  0  0  0  0  0  0  0  0999 V2000
  185.8430   23.9170   48.4290 C   0  0  0  0  0  0  0  0  0  0  0  0
  185.2270   22.8080   49.2800 C   0  0  0  0  0  0  0  0  0  0  0  0
  184.9150   23.3160   50.6850 C   0  0  0  0  0  0  0  0  0  0  0  0
  186.1850   21.7560   49.4030 O   0  0  0  0  0  0  0  0  0  0  0  0
  184.0140   22.2780   48.6390 C   0  0  0  0  0  0  0  0  0  0  0  0
  183.0260   21.8450   48.1080 C   0  0  0  0  0  0  0  0  0  0  0  0
  181.8470   21.3350   47.4770 C   0  0  0  0  0  0  0  0  0  0  0  0
  181.9440   20.6780   46.2530 C   0  0  0  0  0  0  0  0  0  0  0  0
  180.8050   20.1770   45.6160 C   0  0  0  0  0  0  0  0  0  0  0  0
  179.5720   20.3580   46.2550 C   0  0  0  0  0  0  0  0  0  0  0  0
  178.3170   19.9800   45.8580 N   0  0  0  0  0  0  0  0  0  0  0  0
  177.3620   20.3660   46.7720 C   0  0  0  0  0  0  0  0  0  0  0  0
  178.0230   20.9980   47.8230 C   0  0  0  0  0  0  0  0  0  0  0  0
  179.4310   21.0010   47.4800 C   0  0  0  0  0  0  0  0  0  0  0  0
  180.6030   21.5020   48.0960 C   0  0  0  0  0  0  0  0  0  0  0  0
  177.4060   21.5480   49.0400 C   0  0  0  0  0  0  0  0  0  0  0  0
  178.1940   22.4300   49.6990 N   0  0  0  0  0  0  0  0  0  0  0  0
  177.7080   23.0160   50.7890 C   0  0  0  0  0  0  0  0  0  0  0  0
  178.5300   23.8980   51.4600 N   0  0  0  0  0  0  0  0  0  0  0  0
  176.5070   22.7770   51.3060 N   0  0  0  0  0  0  0  0  0  0  0  0
  175.7470   21.8910   50.6410 C   0  0  0  0  0  0  0  0  0  0  0  0
  176.1400   21.2230   49.4940 C   0  0  0  0  0  0  0  0  0  0  0  0
  175.2100   20.2390   48.8570 C   0  0  0  0  0  0  0  0  0  0  0  0
  174.9140   20.6350   47.4230 C   0  0  0  0  0  0  0  0  0  0  0  0
  175.9350   20.0640   46.4550 C   0  0  0  0  0  0  0  0  0  0  0  0
  186.2714   24.6883   49.0860 H   0  0  0  0  0  0  0  0  0  0  0  0
  186.6357   23.4945   47.7941 H   0  0  0  0  0  0  0  0  0  0  0  0
  185.0654   24.3668   47.7941 H   0  0  0  0  0  0  0  0  0  0  0  0
  185.3397   22.6245   51.4276 H   0  0  0  0  0  0  0  0  0  0  0  0
  185.3555   24.3149   50.8200 H   0  0  0  0  0  0  0  0  0  0  0  0
  183.8249   23.3747   50.8200 H   0  0  0  0  0  0  0  0  0  0  0  0
  186.5260   21.7350   50.3110 H   0  0  0  0  0  0  0  0  0  0  0  0
  182.9297   20.5516   45.7813 H   0  0  0  0  0  0  0  0  0  0  0  0
  180.8746   19.6593   44.6479 H   0  0  0  0  0  0  0  0  0  0  0  0
  178.1210   19.4950   45.0230 H   0  0  0  0  0  0  0  0  0  0  0  0
  180.5358   22.0232   49.0624 H   0  0  0  0  0  0  0  0  0  0  0  0
  179.1700   23.5630   52.1290 H   0  0  0  0  0  0  0  0  0  0  0  0
  178.4770   24.8620   51.2690 H   0  0  0  0  0  0  0  0  0  0  0  0
  174.7418   21.6817   51.0357 H   0  0  0  0  0  0  0  0  0  0  0  0
  175.6754   19.2423   48.8681 H   0  0  0  0  0  0  0  0  0  0  0  0
  174.2668   20.2250   49.4229 H   0  0  0  0  0  0  0  0  0  0  0  0
  173.9165   20.2605   47.1494 H   0  0  0  0  0  0  0  0  0  0  0  0
  174.9580   21.7321   47.3566 H   0  0  0  0  0  0  0  0  0  0  0  0
  175.8150   18.9706   46.4422 H   0  0  0  0  0  0  0  0  0  0  0  0
  175.7333   20.5443   45.4862 H   0  0  0  0  0  0  0  0  0  0  0  0
  1  2  1  0
  2  3  1  0
  2  4  1  0
  2  5  1  0
  5  6  3  0
  6  7  1  0
  7  8  2  0
  8  9  1  0
  9 10  2  0
 10 11  1  0
 11 12  1  0
 12 13  2  0
 13 14  1  0
 14 15  2  0
 13 16  1  0
 16 17  2  0
 17 18  1  0
 18 19  1  0
 18 20  2  0
 20 21  1  0
 21 22  2  0
 22 23  1  0
 23 24  1  0
 24 25  1  0
 15  7  1  0
 22 16  1  0
 14 10  1  0
 25 12  1  0
  1 26  1  0
  1 27  1  0
  1 28  1  0
  3 29  1  0
  3 30  1  0
  3 31  1  0
  4 32  1  0
  8 33  1  0
  9 34  1  0
 11 35  1  0
 15 36  1  0
 19 37  1  0
 19 38  1  0
 21 39  1  0
 23 40  1  0
 23 41  1  0
 24 42  1  0
 24 43  1  0
 25 44  1  0
 25 45  1  0
M  END
>  <meeko>  (9) 
{"is_sidechain": [false], "free_energy": -6.146, "intermolecular_energy": -8.376, "internal_energy": 0.782}

$$$$
