cand_012_out
     RDKit          3D

 40 42  0  0  0  0  0  0  0  0999 V2000
   18.8720  -25.0960   41.7440 C   0  0  0  0  0  0  0  0  0  0  0  0
   19.7070  -25.2590   40.5510 N   0  0  0  0  0  0  0  0  0  0  0  0
   19.5460  -24.1910   39.5570 C   0  0  0  0  0  0  0  0  0  0  0  0
   19.6130  -26.5390   39.9720 C   0  0  0  0  0  0  0  0  0  0  0  0
   18.6550  -26.8400   38.9920 C   0  0  0  0  0  0  0  0  0  0  0  0
   18.5770  -28.1120   38.4170 C   0  0  0  0  0  0  0  0  0  0  0  0
   19.4620  -29.1220   38.7990 C   0  0  0  0  0  0  0  0  0  0  0  0
   19.3870  -30.4840   38.2290 C   0  0  0  0  0  0  0  0  0  0  0  0
   19.0000  -31.4400   39.1620 O   0  0  0  0  0  0  0  0  0  0  0  0
   18.8930  -32.7490   38.7670 C   0  0  0  0  0  0  0  0  0  0  0  0
   18.4900  -33.6710   39.7330 C   0  0  0  0  0  0  0  0  0  0  0  0
   18.3610  -35.0210   39.3950 C   0  0  0  0  0  0  0  0  0  0  0  0
   18.6350  -35.4460   38.0940 C   0  0  0  0  0  0  0  0  0  0  0  0
   19.0380  -34.5230   37.1330 C   0  0  0  0  0  0  0  0  0  0  0  0
   19.2910  -35.0080   35.8780 O   0  0  0  0  0  0  0  0  0  0  0  0
   19.1650  -33.1730   37.4700 C   0  0  0  0  0  0  0  0  0  0  0  0
   19.5860  -32.1700   36.4900 C   0  0  0  0  0  0  0  0  0  0  0  0
   19.8510  -32.4670   35.3270 O   0  0  0  0  0  0  0  0  0  0  0  0
   19.6850  -30.7650   36.9470 C   0  0  0  0  0  0  0  0  0  0  0  0
   20.0980  -29.8280   36.0180 O   0  0  0  0  0  0  0  0  0  0  0  0
   20.4170  -28.8280   39.7840 C   0  0  0  0  0  0  0  0  0  0  0  0
   20.5070  -27.5480   40.3720 C   0  0  0  0  0  0  0  0  0  0  0  0
   21.5550  -27.2830   41.4250 C   0  0  0  0  0  0  0  0  0  0  0  0
   22.3680  -26.2260   41.1370 F   0  0  0  0  0  0  0  0  0  0  0  0
   22.4090  -28.3410   41.5970 F   0  0  0  0  0  0  0  0  0  0  0  0
   21.0390  -27.0510   42.6670 F   0  0  0  0  0  0  0  0  0  0  0  0
   19.4918  -25.2170   42.6447 H   0  0  0  0  0  0  0  0  0  0  0  0
   18.4208  -24.0928   41.7415 H   0  0  0  0  0  0  0  0  0  0  0  0
   18.0766  -25.8558   41.7415 H   0  0  0  0  0  0  0  0  0  0  0  0
   19.4011  -23.2298   40.0718 H   0  0  0  0  0  0  0  0  0  0  0  0
   20.4462  -24.1376   38.9271 H   0  0  0  0  0  0  0  0  0  0  0  0
   18.6700  -24.4053   38.9271 H   0  0  0  0  0  0  0  0  0  0  0  0
   17.9507  -26.0590   38.6694 H   0  0  0  0  0  0  0  0  0  0  0  0
   17.8104  -28.3192   37.6558 H   0  0  0  0  0  0  0  0  0  0  0  0
   18.2742  -33.3364   40.7584 H   0  0  0  0  0  0  0  0  0  0  0  0
   18.0431  -35.7496   40.1553 H   0  0  0  0  0  0  0  0  0  0  0  0
   18.5327  -36.5086   37.8285 H   0  0  0  0  0  0  0  0  0  0  0  0
   19.4890  -34.4170   35.1790 H   0  0  0  0  0  0  0  0  0  0  0  0
   20.0750  -28.9160   36.2320 H   0  0  0  0  0  0  0  0  0  0  0  0
   21.1138  -29.6157   40.1064 H   0  0  0  0  0  0  0  0  0  0  0  0
  1  2  1  0
  2  3  1  0
  2  4  1  0
  4  5  2  0
  5  6  1  0
  6  7  2  0
  7  8  1  0
  8  9  1  0
  9 10  1  0
 10 11  2  0
 11 12  1  0
 12 13  2  0
 13 14  1  0
 14 15  1  0
 14 16  2  0
 16 17  1  0
 17 18  2  0
 17 19  1  0
 19 20  1  0
  7 21  1  0
 21 22  2  0
 22 23  1  0
 23 24  1  0
 23 25  1  0
 23 26  1  0
 22  4  1  0
 19  8  2  0
 16 10  1  0
  1 27  1  0
  1 28  1  0
  1 29  1  0
  3 30  1  0
  3 31  1  0
  3 32  1  0
  5 33  1  0
  6 34  1  0
 11 35  1  0
 12 36  1  0
 13 37  1  0
 15 38  1  0
 20 39  1  0
 21 40  1  0
M  END
>  <meeko>  (1) 
{"is_sidechain": [false], "free_energy": -7.39, "intermolecular_energy": -9.118, "internal_energy": -0.329}

$$$$
cand_012_out
     RDKit          3D

 40 42  0  0  0  0  0  0  0  0999 V2000
   20.2650  -20.8290   49.8430 C   0  0  0  0  0  0  0  0  0  0  0  0
   19.6790  -20.6110   48.5180 N   0  0  0  0  0  0  0  0  0  0  0  0
   18.2540  -20.2610   48.5430 C   0  0  0  0  0  0  0  0  0  0  0  0
   19.9530  -21.6480   47.6070 C   0  0  0  0  0  0  0  0  0  0  0  0
   19.4420  -22.9430   47.7850 C   0  0  0  0  0  0  0  0  0  0  0  0
   19.7130  -23.9650   46.8690 C   0  0  0  0  0  0  0  0  0  0  0  0
   20.4980  -23.7200   45.7390 C   0  0  0  0  0  0  0  0  0  0  0  0
   20.8240  -24.7850   44.7680 C   0  0  0  0  0  0  0  0  0  0  0  0
   22.0300  -25.4180   45.0450 O   0  0  0  0  0  0  0  0  0  0  0  0
   22.4560  -26.4270   44.2190 C   0  0  0  0  0  0  0  0  0  0  0  0
   23.6660  -27.0420   44.5420 C   0  0  0  0  0  0  0  0  0  0  0  0
   24.1570  -28.0760   43.7410 C   0  0  0  0  0  0  0  0  0  0  0  0
   23.4380  -28.4940   42.6200 C   0  0  0  0  0  0  0  0  0  0  0  0
   22.2310  -27.8770   42.3000 C   0  0  0  0  0  0  0  0  0  0  0  0
   21.5790  -28.3360   41.1870 O   0  0  0  0  0  0  0  0  0  0  0  0
   21.7400  -26.8440   43.1020 C   0  0  0  0  0  0  0  0  0  0  0  0
   20.4760  -26.1700   42.8010 C   0  0  0  0  0  0  0  0  0  0  0  0
   19.7890  -26.4760   41.8280 O   0  0  0  0  0  0  0  0  0  0  0  0
   20.0420  -25.0900   43.7160 C   0  0  0  0  0  0  0  0  0  0  0  0
   18.8540  -24.4480   43.4150 O   0  0  0  0  0  0  0  0  0  0  0  0
   21.0170  -22.4290   45.5620 C   0  0  0  0  0  0  0  0  0  0  0  0
   20.7510  -21.3880   46.4780 C   0  0  0  0  0  0  0  0  0  0  0  0
   21.3310  -20.0160   46.2390 C   0  0  0  0  0  0  0  0  0  0  0  0
   20.4110  -19.0110   46.3100 F   0  0  0  0  0  0  0  0  0  0  0  0
   21.8870  -19.8900   44.9920 F   0  0  0  0  0  0  0  0  0  0  0  0
   22.3370  -19.6870   47.1000 F   0  0  0  0  0  0  0  0  0  0  0  0
   19.5326  -20.5565   50.6172 H   0  0  0  0  0  0  0  0  0  0  0  0
   20.5380  -21.8889   49.9533 H   0  0  0  0  0  0  0  0  0  0  0  0
   21.1643  -20.2053   49.9533 H   0  0  0  0  0  0  0  0  0  0  0  0
   17.9151  -20.1778   49.5862 H   0  0  0  0  0  0  0  0  0  0  0  0
   18.1036  -19.2992   48.0308 H   0  0  0  0  0  0  0  0  0  0  0  0
   17.6752  -21.0437   48.0308 H   0  0  0  0  0  0  0  0  0  0  0  0
   18.8154  -23.1588   48.6630 H   0  0  0  0  0  0  0  0  0  0  0  0
   19.3040  -24.9718   47.0399 H   0  0  0  0  0  0  0  0  0  0  0  0
   24.2324  -26.7133   45.4258 H   0  0  0  0  0  0  0  0  0  0  0  0
   25.1112  -28.5612   43.9940 H   0  0  0  0  0  0  0  0  0  0  0  0
   23.8240  -29.3093   41.9904 H   0  0  0  0  0  0  0  0  0  0  0  0
   21.4920  -29.2580   41.0420 H   0  0  0  0  0  0  0  0  0  0  0  0
   18.0830  -24.9500   43.2340 H   0  0  0  0  0  0  0  0  0  0  0  0
   21.6486  -22.2219   44.6855 H   0  0  0  0  0  0  0  0  0  0  0  0
  1  2  1  0
  2  3  1  0
  2  4  1  0
  4  5  2  0
  5  6  1  0
  6  7  2  0
  7  8  1  0
  8  9  1  0
  9 10  1  0
 10 11  2  0
 11 12  1  0
 12 13  2  0
 13 14  1  0
 14 15  1  0
 14 16  2  0
 16 17  1  0
 17 18  2  0
 17 19  1  0
 19 20  1  0
  7 21  1  0
 21 22  2  0
 22 23  1  0
 23 24  1  0
 23 25  1  0
 23 26  1  0
 22  4  1  0
 19  8  2  0
 16 10  1  0
  1 27  1  0
  1 28  1  0
  1 29  1  0
  3 30  1  0
  3 31  1  0
  3 32  1  0
  5 33  1  0
  6 34  1  0
 11 35  1  0
 12 36  1  0
 13 37  1  0
 15 38  1  0
 20 39  1  0
 21 40  1  0
M  END
>  <meeko>  (2) 
{"is_sidechain": [false], "free_energy": -6.894, "intermolecular_energy": -8.235, "internal_energy": -0.6}

$$$$
cand_012_out
     RDKit          3D

 40 42  0  0  0  0  0  0  0  0999 V2000
   19.6700  -23.1970   37.7980 C   0  0  0  0  0  0  0  0  0  0  0  0
   18.9680  -24.0200   38.7870 N   0  0  0  0  0  0  0  0  0  0  0  0
   19.2770  -23.6770   40.1800 C   0  0  0  0  0  0  0  0  0  0  0  0
   19.0780  -25.4020   38.5450 C   0  0  0  0  0  0  0  0  0  0  0  0
   19.9390  -26.2190   39.2960 C   0  0  0  0  0  0  0  0  0  0  0  0
   20.0340  -27.5920   39.0530 C   0  0  0  0  0  0  0  0  0  0  0  0
   19.2630  -28.1960   38.0570 C   0  0  0  0  0  0  0  0  0  0  0  0
   19.3620  -29.6400   37.7600 C   0  0  0  0  0  0  0  0  0  0  0  0
   18.9460  -30.4390   38.8180 O   0  0  0  0  0  0  0  0  0  0  0  0
   18.9890  -31.8030   38.6790 C   0  0  0  0  0  0  0  0  0  0  0  0
   18.5500  -32.5650   39.7620 C   0  0  0  0  0  0  0  0  0  0  0  0
   18.5690  -33.9600   39.6840 C   0  0  0  0  0  0  0  0  0  0  0  0
   19.0250  -34.5900   38.5250 C   0  0  0  0  0  0  0  0  0  0  0  0
   19.4630  -33.8270   37.4470 C   0  0  0  0  0  0  0  0  0  0  0  0
   19.8970  -34.5090   36.3430 O   0  0  0  0  0  0  0  0  0  0  0  0
   19.4430  -32.4320   37.5240 C   0  0  0  0  0  0  0  0  0  0  0  0
   19.8940  -31.5920   36.4130 C   0  0  0  0  0  0  0  0  0  0  0  0
   20.3160  -32.0720   35.3630 O   0  0  0  0  0  0  0  0  0  0  0  0
   19.8290  -30.1240   36.5930 C   0  0  0  0  0  0  0  0  0  0  0  0
   20.2720  -29.3400   35.5440 O   0  0  0  0  0  0  0  0  0  0  0  0
   18.4070  -27.3830   37.2990 C   0  0  0  0  0  0  0  0  0  0  0  0
   18.3010  -25.9950   37.5340 C   0  0  0  0  0  0  0  0  0  0  0  0
   17.3620  -25.1650   36.6930 C   0  0  0  0  0  0  0  0  0  0  0  0
   16.4490  -25.9040   35.9980 F   0  0  0  0  0  0  0  0  0  0  0  0
   18.0180  -24.4370   35.7350 F   0  0  0  0  0  0  0  0  0  0  0  0
   16.6550  -24.2420   37.4050 F   0  0  0  0  0  0  0  0  0  0  0  0
   20.2998  -22.4587   38.3160 H   0  0  0  0  0  0  0  0  0  0  0  0
   20.3019  -23.8402   37.1679 H   0  0  0  0  0  0  0  0  0  0  0  0
   18.9352  -22.6745   37.1679 H   0  0  0  0  0  0  0  0  0  0  0  0
   18.6953  -24.3227   40.8543 H   0  0  0  0  0  0  0  0  0  0  0  0
   20.3510  -23.8267   40.3649 H   0  0  0  0  0  0  0  0  0  0  0  0
   19.0164  -22.6244   40.3649 H   0  0  0  0  0  0  0  0  0  0  0  0
   20.5510  -25.7690   40.0916 H   0  0  0  0  0  0  0  0  0  0  0  0
   20.7237  -28.2040   39.6528 H   0  0  0  0  0  0  0  0  0  0  0  0
   18.1897  -32.0688   40.6752 H   0  0  0  0  0  0  0  0  0  0  0  0
   18.2241  -34.5625   40.5372 H   0  0  0  0  0  0  0  0  0  0  0  0
   19.0381  -35.6882   38.4639 H   0  0  0  0  0  0  0  0  0  0  0  0
   19.3410  -35.1440   35.9360 H   0  0  0  0  0  0  0  0  0  0  0  0
   21.1330  -28.9710   35.5670 H   0  0  0  0  0  0  0  0  0  0  0  0
   17.8027  -27.8389   36.5009 H   0  0  0  0  0  0  0  0  0  0  0  0
  1  2  1  0
  2  3  1  0
  2  4  1  0
  4  5  2  0
  5  6  1  0
  6  7  2  0
  7  8  1  0
  8  9  1  0
  9 10  1  0
 10 11  2  0
 11 12  1  0
 12 13  2  0
 13 14  1  0
 14 15  1  0
 14 16  2  0
 16 17  1  0
 17 18  2  0
 17 19  1  0
 19 20  1  0
  7 21  1  0
 21 22  2  0
 22 23  1  0
 23 24  1  0
 23 25  1  0
 23 26  1  0
 22  4  1  0
 19  8  2  0
 16 10  1  0
  1 27  1  0
  1 28  1  0
  1 29  1  0
  3 30  1  0
  3 31  1  0
  3 32  1  0
  5 33  1  0
  6 34  1  0
 11 35  1  0
 12 36  1  0
 13 37  1  0
 15 38  1  0
 20 39  1  0
 21 40  1  0
M  END
>  <meeko>  (3) 
{"is_sidechain": [false], "free_energy": -6.722, "intermolecular_energy": -8.816, "internal_energy": 0.193}

$$$$
cand_012_out
     RDKit          3D

 40 42  0  0  0  0  0  0  0  0999 V2000
   17.7590  -24.8090   38.9820 C   0  0  0  0  0  0  0  0  0  0  0  0
   19.1300  -25.1200   38.5670 N   0  0  0  0  0  0  0  0  0  0  0  0
   19.7610  -24.0760   37.7510 C   0  0  0  0  0  0  0  0  0  0  0  0
   19.2640  -26.3960   37.9890 C   0  0  0  0  0  0  0  0  0  0  0  0
   19.0290  -26.6190   36.6230 C   0  0  0  0  0  0  0  0  0  0  0  0
   19.1730  -27.8890   36.0570 C   0  0  0  0  0  0  0  0  0  0  0  0
   19.5670  -28.9770   36.8390 C   0  0  0  0  0  0  0  0  0  0  0  0
   19.7030  -30.3370   36.2750 C   0  0  0  0  0  0  0  0  0  0  0  0
   19.2480  -31.3280   37.1380 O   0  0  0  0  0  0  0  0  0  0  0  0
   19.3180  -32.6380   36.7400 C   0  0  0  0  0  0  0  0  0  0  0  0
   18.8400  -33.5980   37.6330 C   0  0  0  0  0  0  0  0  0  0  0  0
   18.8830  -34.9510   37.2890 C   0  0  0  0  0  0  0  0  0  0  0  0
   19.4050  -35.3440   36.0550 C   0  0  0  0  0  0  0  0  0  0  0  0
   19.8820  -34.3830   35.1670 C   0  0  0  0  0  0  0  0  0  0  0  0
   20.3800  -34.8380   33.9760 O   0  0  0  0  0  0  0  0  0  0  0  0
   19.8380  -33.0300   35.5100 C   0  0  0  0  0  0  0  0  0  0  0  0
   20.3290  -31.9890   34.6060 C   0  0  0  0  0  0  0  0  0  0  0  0
   20.8080  -32.2550   33.5060 O   0  0  0  0  0  0  0  0  0  0  0  0
   20.2320  -30.5840   35.0630 C   0  0  0  0  0  0  0  0  0  0  0  0
   20.7140  -29.6090   34.2080 O   0  0  0  0  0  0  0  0  0  0  0  0
   19.7960  -28.7610   38.2060 C   0  0  0  0  0  0  0  0  0  0  0  0
   19.6550  -27.4840   38.7900 C   0  0  0  0  0  0  0  0  0  0  0  0
   19.9160  -27.3050   40.2660 C   0  0  0  0  0  0  0  0  0  0  0  0
   20.8090  -26.3130   40.5480 F   0  0  0  0  0  0  0  0  0  0  0  0
   20.4480  -28.4260   40.8460 F   0  0  0  0  0  0  0  0  0  0  0  0
   18.7940  -27.0380   40.9940 F   0  0  0  0  0  0  0  0  0  0  0  0
   17.7024  -24.7962   40.0805 H   0  0  0  0  0  0  0  0  0  0  0  0
   17.4716  -23.8228   38.5885 H   0  0  0  0  0  0  0  0  0  0  0  0
   17.0742  -25.5746   38.5885 H   0  0  0  0  0  0  0  0  0  0  0  0
   20.2169  -23.3217   38.4092 H   0  0  0  0  0  0  0  0  0  0  0  0
   20.5382  -24.5265   37.1161 H   0  0  0  0  0  0  0  0  0  0  0  0
   19.0009  -23.5973   37.1161 H   0  0  0  0  0  0  0  0  0  0  0  0
   18.7251  -25.7764   35.9845 H   0  0  0  0  0  0  0  0  0  0  0  0
   18.9740  -28.0329   34.9848 H   0  0  0  0  0  0  0  0  0  0  0  0
   18.4301  -33.2897   38.6061 H   0  0  0  0  0  0  0  0  0  0  0  0
   18.5049  -35.7084   37.9915 H   0  0  0  0  0  0  0  0  0  0  0  0
   19.4394  -36.4098   35.7850 H   0  0  0  0  0  0  0  0  0  0  0  0
   20.9720  -34.3050   33.4820 H   0  0  0  0  0  0  0  0  0  0  0  0
   21.3030  -28.9540   34.5290 H   0  0  0  0  0  0  0  0  0  0  0  0
   20.0934  -29.6096   38.8396 H   0  0  0  0  0  0  0  0  0  0  0  0
  1  2  1  0
  2  3  1  0
  2  4  1  0
  4  5  2  0
  5  6  1  0
  6  7  2  0
  7  8  1  0
  8  9  1  0
  9 10  1  0
 10 11  2  0
 11 12  1  0
 12 13  2  0
 13 14  1  0
 14 15  1  0
 14 16  2  0
 16 17  1  0
 17 18  2  0
 17 19  1  0
 19 20  1  0
  7 21  1  0
 21 22  2  0
 22 23  1  0
 23 24  1  0
 23 25  1  0
 23 26  1  0
 22  4  1  0
 19  8  2  0
 16 10  1  0
  1 27  1  0
  1 28  1  0
  1 29  1  0
  3 30  1  0
  3 31  1  0
  3 32  1  0
  5 33  1  0
  6 34  1  0
 11 35  1  0
 12 36  1  0
 13 37  1  0
 15 38  1  0
 20 39  1  0
 21 40  1  0
M  END
>  <meeko>  (4) 
{"is_sidechain": [false], "free_energy": -6.71, "intermolecular_energy": -8.474, "internal_energy": -0.134}

$$$$
cand_012_out
     RDKit          3D

 40 42  0  0  0  0  0  0  0  0999 V2000
   21.3430  -20.5580   49.4480 C   0  0  0  0  0  0  0  0  0  0  0  0
   22.0690  -21.7230   48.9350 N   0  0  0  0  0  0  0  0  0  0  0  0
   23.5290  -21.5820   48.9670 C   0  0  0  0  0  0  0  0  0  0  0  0
   21.6080  -22.1610   47.6790 C   0  0  0  0  0  0  0  0  0  0  0  0
   21.6970  -21.3530   46.5350 C   0  0  0  0  0  0  0  0  0  0  0  0
   21.2440  -21.8010   45.2900 C   0  0  0  0  0  0  0  0  0  0  0  0
   20.6950  -23.0780   45.1490 C   0  0  0  0  0  0  0  0  0  0  0  0
   20.1840  -23.5690   43.8520 C   0  0  0  0  0  0  0  0  0  0  0  0
   20.4210  -24.9250   43.6560 O   0  0  0  0  0  0  0  0  0  0  0  0
   20.0010  -25.5110   42.4890 C   0  0  0  0  0  0  0  0  0  0  0  0
   20.2500  -26.8760   42.3410 C   0  0  0  0  0  0  0  0  0  0  0  0
   19.8470  -27.5340   41.1760 C   0  0  0  0  0  0  0  0  0  0  0  0
   19.1980  -26.8280   40.1620 C   0  0  0  0  0  0  0  0  0  0  0  0
   18.9520  -25.4660   40.3130 C   0  0  0  0  0  0  0  0  0  0  0  0
   18.3110  -24.8350   39.2810 O   0  0  0  0  0  0  0  0  0  0  0  0
   19.3530  -24.8080   41.4790 C   0  0  0  0  0  0  0  0  0  0  0  0
   19.1140  -23.3780   41.6780 C   0  0  0  0  0  0  0  0  0  0  0  0
   18.5540  -22.6860   40.8290 O   0  0  0  0  0  0  0  0  0  0  0  0
   19.5740  -22.7770   42.9510 C   0  0  0  0  0  0  0  0  0  0  0  0
   19.3580  -21.4220   43.1230 O   0  0  0  0  0  0  0  0  0  0  0  0
   20.5980  -23.8870   46.2900 C   0  0  0  0  0  0  0  0  0  0  0  0
   21.0520  -23.4470   47.5530 C   0  0  0  0  0  0  0  0  0  0  0  0
   20.9270  -24.3570   48.7500 C   0  0  0  0  0  0  0  0  0  0  0  0
   22.1200  -24.6560   49.3400 F   0  0  0  0  0  0  0  0  0  0  0  0
   20.3840  -25.5750   48.4300 F   0  0  0  0  0  0  0  0  0  0  0  0
   20.1180  -23.8660   49.7320 F   0  0  0  0  0  0  0  0  0  0  0  0
   21.3534  -20.5746   50.5478 H   0  0  0  0  0  0  0  0  0  0  0  0
   21.8276  -19.6374   49.0906 H   0  0  0  0  0  0  0  0  0  0  0  0
   20.3031  -20.5875   49.0906 H   0  0  0  0  0  0  0  0  0  0  0  0
   23.8714  -21.5489   50.0118 H   0  0  0  0  0  0  0  0  0  0  0  0
   23.9915  -22.4397   48.4566 H   0  0  0  0  0  0  0  0  0  0  0  0
   23.8188  -20.6517   48.4566 H   0  0  0  0  0  0  0  0  0  0  0  0
   22.1322  -20.3463   46.6193 H   0  0  0  0  0  0  0  0  0  0  0  0
   21.3207  -21.1414   44.4131 H   0  0  0  0  0  0  0  0  0  0  0  0
   20.7623  -27.4327   43.1395 H   0  0  0  0  0  0  0  0  0  0  0  0
   20.0416  -28.6102   41.0579 H   0  0  0  0  0  0  0  0  0  0  0  0
   18.8814  -27.3467   39.2451 H   0  0  0  0  0  0  0  0  0  0  0  0
   18.6740  -24.8650   38.4170 H   0  0  0  0  0  0  0  0  0  0  0  0
   18.4830  -21.0850   43.1300 H   0  0  0  0  0  0  0  0  0  0  0  0
   20.1568  -24.8905   46.1992 H   0  0  0  0  0  0  0  0  0  0  0  0
  1  2  1  0
  2  3  1  0
  2  4  1  0
  4  5  2  0
  5  6  1  0
  6  7  2  0
  7  8  1  0
  8  9  1  0
  9 10  1  0
 10 11  2  0
 11 12  1  0
 12 13  2  0
 13 14  1  0
 14 15  1  0
 14 16  2  0
 16 17  1  0
 17 18  2  0
 17 19  1  0
 19 20  1  0
  7 21  1  0
 21 22  2  0
 22 23  1  0
 23 24  1  0
 23 25  1  0
 23 26  1  0
 22  4  1  0
 19  8  2  0
 16 10  1  0
  1 27  1  0
  1 28  1  0
  1 29  1  0
  3 30  1  0
  3 31  1  0
  3 32  1  0
  5 33  1  0
  6 34  1  0
 11 35  1  0
 12 36  1  0
 13 37  1  0
 15 38  1  0
 20 39  1  0
 21 40  1  0
M  END
>  <meeko>  (5) 
{"is_sidechain": [false], "free_energy": -6.566, "intermolecular_energy": -8.216, "internal_energy": -0.214}

$$$$
cand_012_out
     RDKit          3D

 40 42  0  0  0  0  0  0  0  0999 V2000
   16.5900  -27.0310   35.6290 C   0  0  0  0  0  0  0  0  0  0  0  0
   18.0470  -26.8770   35.5750 N   0  0  0  0  0  0  0  0  0  0  0  0
   18.7120  -27.7980   34.6470 C   0  0  0  0  0  0  0  0  0  0  0  0
   18.6560  -26.8730   36.8440 C   0  0  0  0  0  0  0  0  0  0  0  0
   18.9970  -28.0630   37.5060 C   0  0  0  0  0  0  0  0  0  0  0  0
   19.6100  -28.0460   38.7620 C   0  0  0  0  0  0  0  0  0  0  0  0
   19.9120  -26.8370   39.3930 C   0  0  0  0  0  0  0  0  0  0  0  0
   20.5360  -26.7890   40.7330 C   0  0  0  0  0  0  0  0  0  0  0  0
   21.6260  -27.6430   40.8520 O   0  0  0  0  0  0  0  0  0  0  0  0
   22.2970  -27.7000   42.0460 C   0  0  0  0  0  0  0  0  0  0  0  0
   23.3920  -28.5620   42.1170 C   0  0  0  0  0  0  0  0  0  0  0  0
   24.1190  -28.6680   43.3050 C   0  0  0  0  0  0  0  0  0  0  0  0
   23.7510  -27.9130   44.4200 C   0  0  0  0  0  0  0  0  0  0  0  0
   22.6570  -27.0540   44.3470 C   0  0  0  0  0  0  0  0  0  0  0  0
   22.3520  -26.3450   45.4770 O   0  0  0  0  0  0  0  0  0  0  0  0
   21.9310  -26.9480   43.1580 C   0  0  0  0  0  0  0  0  0  0  0  0
   20.7750  -26.0580   43.0380 C   0  0  0  0  0  0  0  0  0  0  0  0
   20.3850  -25.3660   43.9770 O   0  0  0  0  0  0  0  0  0  0  0  0
   20.0770  -26.0140   41.7330 C   0  0  0  0  0  0  0  0  0  0  0  0
   18.9760  -25.1820   41.6350 O   0  0  0  0  0  0  0  0  0  0  0  0
   19.5670  -25.6450   38.7390 C   0  0  0  0  0  0  0  0  0  0  0  0
   18.9470  -25.6470   37.4700 C   0  0  0  0  0  0  0  0  0  0  0  0
   18.5990  -24.3370   36.8080 C   0  0  0  0  0  0  0  0  0  0  0  0
   19.3960  -23.2980   37.1930 F   0  0  0  0  0  0  0  0  0  0  0  0
   17.3250  -23.9230   37.0970 F   0  0  0  0  0  0  0  0  0  0  0  0
   18.6470  -24.3800   35.4450 F   0  0  0  0  0  0  0  0  0  0  0  0
   16.2636  -27.0655   36.6789 H   0  0  0  0  0  0  0  0  0  0  0  0
   16.1122  -26.1784   35.1243 H   0  0  0  0  0  0  0  0  0  0  0  0
   16.3010  -27.9647   35.1243 H   0  0  0  0  0  0  0  0  0  0  0  0
   19.2623  -28.5602   35.2182 H   0  0  0  0  0  0  0  0  0  0  0  0
   17.9580  -28.2880   34.0134 H   0  0  0  0  0  0  0  0  0  0  0  0
   19.4144  -27.2365   34.0134 H   0  0  0  0  0  0  0  0  0  0  0  0
   18.7773  -29.0284   37.0266 H   0  0  0  0  0  0  0  0  0  0  0  0
   19.8574  -28.9955   39.2592 H   0  0  0  0  0  0  0  0  0  0  0  0
   23.6823  -29.1572   41.2387 H   0  0  0  0  0  0  0  0  0  0  0  0
   24.9824  -29.3471   43.3620 H   0  0  0  0  0  0  0  0  0  0  0  0
   24.3243  -27.9964   45.3551 H   0  0  0  0  0  0  0  0  0  0  0  0
   22.8160  -26.5110   46.2740 H   0  0  0  0  0  0  0  0  0  0  0  0
   18.5080  -24.9320   42.4070 H   0  0  0  0  0  0  0  0  0  0  0  0
   19.7850  -24.6837   39.2272 H   0  0  0  0  0  0  0  0  0  0  0  0
  1  2  1  0
  2  3  1  0
  2  4  1  0
  4  5  2  0
  5  6  1  0
  6  7  2  0
  7  8  1  0
  8  9  1  0
  9 10  1  0
 10 11  2  0
 11 12  1  0
 12 13  2  0
 13 14  1  0
 14 15  1  0
 14 16  2  0
 16 17  1  0
 17 18  2  0
 17 19  1  0
 19 20  1  0
  7 21  1  0
 21 22  2  0
 22 23  1  0
 23 24  1  0
 23 25  1  0
 23 26  1  0
 22  4  1  0
 19  8  2  0
 16 10  1  0
  1 27  1  0
  1 28  1  0
  1 29  1  0
  3 30  1  0
  3 31  1  0
  3 32  1  0
  5 33  1  0
  6 34  1  0
 11 35  1  0
 12 36  1  0
 13 37  1  0
 15 38  1  0
 20 39  1  0
 21 40  1  0
M  END
>  <meeko>  (6) 
{"is_sidechain": [false], "free_energy": -6.551, "intermolecular_energy": -8.432, "internal_energy": 0.02}

$$$$
cand_012_out
     RDKit          3D

 40 42  0  0  0  0  0  0  0  0999 V2000
   20.5450  -22.5810   47.2310 C   0  0  0  0  0  0  0  0  0  0  0  0
   19.6820  -21.9740   46.2140 N   0  0  0  0  0  0  0  0  0  0  0  0
   18.3160  -21.6980   46.6740 C   0  0  0  0  0  0  0  0  0  0  0  0
   19.6980  -22.6580   44.9840 C   0  0  0  0  0  0  0  0  0  0  0  0
   19.2060  -23.9670   44.8590 C   0  0  0  0  0  0  0  0  0  0  0  0
   19.2190  -24.6340   43.6300 C   0  0  0  0  0  0  0  0  0  0  0  0
   19.7180  -24.0090   42.4850 C   0  0  0  0  0  0  0  0  0  0  0  0
   19.7690  -24.6990   41.1780 C   0  0  0  0  0  0  0  0  0  0  0  0
   18.9710  -24.0920   40.2150 O   0  0  0  0  0  0  0  0  0  0  0  0
   18.9230  -24.6320   38.9550 C   0  0  0  0  0  0  0  0  0  0  0  0
   18.1190  -23.9830   38.0170 C   0  0  0  0  0  0  0  0  0  0  0  0
   18.0260  -24.4830   36.7160 C   0  0  0  0  0  0  0  0  0  0  0  0
   18.7350  -25.6300   36.3540 C   0  0  0  0  0  0  0  0  0  0  0  0
   19.5360  -26.2750   37.2930 C   0  0  0  0  0  0  0  0  0  0  0  0
   20.2020  -27.3940   36.8710 O   0  0  0  0  0  0  0  0  0  0  0  0
   19.6300  -25.7750   38.5940 C   0  0  0  0  0  0  0  0  0  0  0  0
   20.4590  -26.4230   39.6110 C   0  0  0  0  0  0  0  0  0  0  0  0
   21.1080  -27.4400   39.3710 O   0  0  0  0  0  0  0  0  0  0  0  0
   20.4950  -25.8110   40.9580 C   0  0  0  0  0  0  0  0  0  0  0  0
   21.2690  -26.4390   41.9160 O   0  0  0  0  0  0  0  0  0  0  0  0
   20.2170  -22.7040   42.6070 C   0  0  0  0  0  0  0  0  0  0  0  0
   20.2100  -22.0180   43.8410 C   0  0  0  0  0  0  0  0  0  0  0  0
   20.7570  -20.6150   43.9180 C   0  0  0  0  0  0  0  0  0  0  0  0
   19.8040  -19.6660   44.1500 F   0  0  0  0  0  0  0  0  0  0  0  0
   21.3610  -20.2210   42.7520 F   0  0  0  0  0  0  0  0  0  0  0  0
   21.7140  -20.4490   44.8760 F   0  0  0  0  0  0  0  0  0  0  0  0
   20.1722  -22.3188   48.2321 H   0  0  0  0  0  0  0  0  0  0  0  0
   20.5386  -23.6745   47.1121 H   0  0  0  0  0  0  0  0  0  0  0  0
   21.5720  -22.2053   47.1121 H   0  0  0  0  0  0  0  0  0  0  0  0
   18.2933  -21.6934   47.7738 H   0  0  0  0  0  0  0  0  0  0  0  0
   17.9933  -20.7165   46.2965 H   0  0  0  0  0  0  0  0  0  0  0  0
   17.6375  -22.4772   46.2965 H   0  0  0  0  0  0  0  0  0  0  0  0
   18.8023  -24.4781   45.7455 H   0  0  0  0  0  0  0  0  0  0  0  0
   18.8322  -25.6616   43.5644 H   0  0  0  0  0  0  0  0  0  0  0  0
   17.5597  -23.0796   38.3015 H   0  0  0  0  0  0  0  0  0  0  0  0
   17.3931  -23.9722   35.9754 H   0  0  0  0  0  0  0  0  0  0  0  0
   18.6611  -26.0233   35.3294 H   0  0  0  0  0  0  0  0  0  0  0  0
   19.7210  -28.1530   36.6040 H   0  0  0  0  0  0  0  0  0  0  0  0
   21.4340  -27.3600   41.8550 H   0  0  0  0  0  0  0  0  0  0  0  0
   20.6247  -22.2015   41.7175 H   0  0  0  0  0  0  0  0  0  0  0  0
  1  2  1  0
  2  3  1  0
  2  4  1  0
  4  5  2  0
  5  6  1  0
  6  7  2  0
  7  8  1  0
  8  9  1  0
  9 10  1  0
 10 11  2  0
 11 12  1  0
 12 13  2  0
 13 14  1  0
 14 15  1  0
 14 16  2  0
 16 17  1  0
 17 18  2  0
 17 19  1  0
 19 20  1  0
  7 21  1  0
 21 22  2  0
 22 23  1  0
 23 24  1  0
 23 25  1  0
 23 26  1  0
 22  4  1  0
 19  8  2  0
 16 10  1  0
  1 27  1  0
  1 28  1  0
  1 29  1  0
  3 30  1  0
  3 31  1  0
  3 32  1  0
  5 33  1  0
  6 34  1  0
 11 35  1  0
 12 36  1  0
 13 37  1  0
 15 38  1  0
 20 39  1  0
 21 40  1  0
M  END
>  <meeko>  (7) 
{"is_sidechain": [false], "free_energy": -6.539, "intermolecular_energy": -7.914, "internal_energy": -0.484}

$$$$
cand_012_out
     RDKit          3D

 40 42  0  0  0  0  0  0  0  0999 V2000
   18.4760  -21.7990   43.5160 C   0  0  0  0  0  0  0  0  0  0  0  0
   19.6740  -22.5340   43.1000 N   0  0  0  0  0  0  0  0  0  0  0  0
   20.9120  -21.7510   43.1660 C   0  0  0  0  0  0  0  0  0  0  0  0
   19.5270  -23.1880   41.8620 C   0  0  0  0  0  0  0  0  0  0  0  0
   19.3740  -22.4750   40.6620 C   0  0  0  0  0  0  0  0  0  0  0  0
   19.2380  -23.1350   39.4360 C   0  0  0  0  0  0  0  0  0  0  0  0
   19.2590  -24.5300   39.3710 C   0  0  0  0  0  0  0  0  0  0  0  0
   19.0910  -25.2550   38.0940 C   0  0  0  0  0  0  0  0  0  0  0  0
   17.8870  -24.9640   37.4630 O   0  0  0  0  0  0  0  0  0  0  0  0
   17.6000  -25.5720   36.2670 C   0  0  0  0  0  0  0  0  0  0  0  0
   16.3850  -25.2420   35.6640 C   0  0  0  0  0  0  0  0  0  0  0  0
   16.0330  -25.8270   34.4450 C   0  0  0  0  0  0  0  0  0  0  0  0
   16.8920  -26.7400   33.8320 C   0  0  0  0  0  0  0  0  0  0  0  0
   18.1030  -27.0680   34.4370 C   0  0  0  0  0  0  0  0  0  0  0  0
   18.8970  -27.9700   33.7820 O   0  0  0  0  0  0  0  0  0  0  0  0
   18.4560  -26.4820   35.6550 C   0  0  0  0  0  0  0  0  0  0  0  0
   19.7180  -26.7990   36.3250 C   0  0  0  0  0  0  0  0  0  0  0  0
   20.5250  -27.5970   35.8520 O   0  0  0  0  0  0  0  0  0  0  0  0
   20.0010  -26.1200   37.6100 C   0  0  0  0  0  0  0  0  0  0  0  0
   21.1890  -26.4380   38.2430 O   0  0  0  0  0  0  0  0  0  0  0  0
   19.4040  -25.2460   40.5680 C   0  0  0  0  0  0  0  0  0  0  0  0
   19.5430  -24.5940   41.8120 C   0  0  0  0  0  0  0  0  0  0  0  0
   19.6990  -25.4110   43.0710 C   0  0  0  0  0  0  0  0  0  0  0  0
   20.9840  -25.4790   43.5260 F   0  0  0  0  0  0  0  0  0  0  0  0
   19.3230  -26.7180   42.8990 F   0  0  0  0  0  0  0  0  0  0  0  0
   18.9390  -24.9670   44.1130 F   0  0  0  0  0  0  0  0  0  0  0  0
   18.4272  -21.7691   44.6145 H   0  0  0  0  0  0  0  0  0  0  0  0
   18.5206  -20.7726   43.1228 H   0  0  0  0  0  0  0  0  0  0  0  0
   17.5812  -22.3037   43.1228 H   0  0  0  0  0  0  0  0  0  0  0  0
   21.1821  -21.5802   44.2185 H   0  0  0  0  0  0  0  0  0  0  0  0
   21.7214  -22.3018   42.6645 H   0  0  0  0  0  0  0  0  0  0  0  0
   20.7612  -20.7837   42.6645 H   0  0  0  0  0  0  0  0  0  0  0  0
   19.3608  -21.3754   40.6864 H   0  0  0  0  0  0  0  0  0  0  0  0
   19.1132  -22.5491   38.5134 H   0  0  0  0  0  0  0  0  0  0  0  0
   15.7066  -24.5234   36.1472 H   0  0  0  0  0  0  0  0  0  0  0  0
   15.0767  -25.5673   33.9675 H   0  0  0  0  0  0  0  0  0  0  0  0
   16.6132  -27.2000   32.8725 H   0  0  0  0  0  0  0  0  0  0  0  0
   19.4390  -28.5580   34.2700 H   0  0  0  0  0  0  0  0  0  0  0  0
   21.8690  -26.8770   37.7700 H   0  0  0  0  0  0  0  0  0  0  0  0
   19.4096  -26.3455   40.5365 H   0  0  0  0  0  0  0  0  0  0  0  0
  1  2  1  0
  2  3  1  0
  2  4  1  0
  4  5  2  0
  5  6  1  0
  6  7  2  0
  7  8  1  0
  8  9  1  0
  9 10  1  0
 10 11  2  0
 11 12  1  0
 12 13  2  0
 13 14  1  0
 14 15  1  0
 14 16  2  0
 16 17  1  0
 17 18  2  0
 17 19  1  0
 19 20  1  0
  7 21  1  0
 21 22  2  0
 22 23  1  0
 23 24  1  0
 23 25  1  0
 23 26  1  0
 22  4  1  0
 19  8  2  0
 16 10  1  0
  1 27  1  0
  1 28  1  0
  1 29  1  0
  3 30  1  0
  3 31  1  0
  3 32  1  0
  5 33  1  0
  6 34  1  0
 11 35  1  0
 12 36  1  0
 13 37  1  0
 15 38  1  0
 20 39  1  0
 21 40  1  0
M  END
>  <meeko>  (8) 
{"is_sidechain": [false], "free_energy": -6.482, "intermolecular_energy": -8.0, "internal_energy": -0.327}

$$$$
cand_012_out
     RDKit          3D

 40 42  0  0  0  0  0  0  0  0999 V2000
   18.1600  -21.6620   47.1410 C   0  0  0  0  0  0  0  0  0  0  0  0
   19.4820  -21.7530   46.5150 N   0  0  0  0  0  0  0  0  0  0  0  0
   20.1060  -20.4540   46.2420 C   0  0  0  0  0  0  0  0  0  0  0  0
   19.5120  -22.6020   45.3920 C   0  0  0  0  0  0  0  0  0  0  0  0
   18.8750  -22.2600   44.1880 C   0  0  0  0  0  0  0  0  0  0  0  0
   18.9190  -23.1060   43.0760 C   0  0  0  0  0  0  0  0  0  0  0  0
   19.6110  -24.3180   43.1300 C   0  0  0  0  0  0  0  0  0  0  0  0
   19.6530  -25.2450   41.9790 C   0  0  0  0  0  0  0  0  0  0  0  0
   18.9110  -24.7930   40.8940 O   0  0  0  0  0  0  0  0  0  0  0  0
   18.8610  -25.5590   39.7570 C   0  0  0  0  0  0  0  0  0  0  0  0
   18.1140  -25.0600   38.6890 C   0  0  0  0  0  0  0  0  0  0  0  0
   18.0220  -25.7930   37.5030 C   0  0  0  0  0  0  0  0  0  0  0  0
   18.6740  -27.0210   37.3860 C   0  0  0  0  0  0  0  0  0  0  0  0
   19.4180  -27.5160   38.4540 C   0  0  0  0  0  0  0  0  0  0  0  0
   20.0310  -28.7260   38.2720 O   0  0  0  0  0  0  0  0  0  0  0  0
   19.5110  -26.7840   39.6400 C   0  0  0  0  0  0  0  0  0  0  0  0
   20.2810  -27.2670   40.7870 C   0  0  0  0  0  0  0  0  0  0  0  0
   20.8790  -28.3420   40.7640 O   0  0  0  0  0  0  0  0  0  0  0  0
   20.3220  -26.4130   41.9950 C   0  0  0  0  0  0  0  0  0  0  0  0
   21.0390  -26.8860   43.0780 O   0  0  0  0  0  0  0  0  0  0  0  0
   20.2430  -24.6670   44.3320 C   0  0  0  0  0  0  0  0  0  0  0  0
   20.2070  -23.8220   45.4630 C   0  0  0  0  0  0  0  0  0  0  0  0
   20.9060  -24.2440   46.7320 C   0  0  0  0  0  0  0  0  0  0  0  0
   21.7640  -23.3040   47.2240 F   0  0  0  0  0  0  0  0  0  0  0  0
   21.6780  -25.3630   46.5600 F   0  0  0  0  0  0  0  0  0  0  0  0
   20.0540  -24.5650   47.7480 F   0  0  0  0  0  0  0  0  0  0  0  0
   18.2712  -21.6697   48.2353 H   0  0  0  0  0  0  0  0  0  0  0  0
   17.6700  -20.7280   46.8288 H   0  0  0  0  0  0  0  0  0  0  0  0
   17.5466  -22.5200   46.8288 H   0  0  0  0  0  0  0  0  0  0  0  0
   20.3456  -19.9553   47.1927 H   0  0  0  0  0  0  0  0  0  0  0  0
   21.0298  -20.6052   45.6643 H   0  0  0  0  0  0  0  0  0  0  0  0
   19.4106  -19.8274   45.6643 H   0  0  0  0  0  0  0  0  0  0  0  0
   18.3303  -21.3069   44.1186 H   0  0  0  0  0  0  0  0  0  0  0  0
   18.4034  -22.8142   42.1491 H   0  0  0  0  0  0  0  0  0  0  0  0
   17.5991  -24.0923   38.7806 H   0  0  0  0  0  0  0  0  0  0  0  0
   17.4343  -25.4011   36.6598 H   0  0  0  0  0  0  0  0  0  0  0  0
   18.6005  -27.5971   36.4518 H   0  0  0  0  0  0  0  0  0  0  0  0
   20.6650  -29.0280   38.8920 H   0  0  0  0  0  0  0  0  0  0  0  0
   21.7480  -27.4850   42.9450 H   0  0  0  0  0  0  0  0  0  0  0  0
   20.7811  -25.6243   44.3957 H   0  0  0  0  0  0  0  0  0  0  0  0
  1  2  1  0
  2  3  1  0
  2  4  1  0
  4  5  2  0
  5  6  1  0
  6  7  2  0
  7  8  1  0
  8  9  1  0
  9 10  1  0
 10 11  2  0
 11 12  1  0
 12 13  2  0
 13 14  1  0
 14 15  1  0
 14 16  2  0
 16 17  1  0
 17 18  2  0
 17 19  1  0
 19 20  1  0
  7 21  1  0
 21 22  2  0
 22 23  1  0
 23 24  1  0
 23 25  1  0
 23 26  1  0
 22  4  1  0
 19  8  2  0
 16 10  1  0
  1 27  1  0
  1 28  1  0
  1 29  1  0
  3 30  1  0
  3 31  1  0
  3 32  1  0
  5 33  1  0
  6 34  1  0
 11 35  1  0
 12 36  1  0
 13 37  1  0
 15 38  1  0
 20 39  1  0
 21 40  1  0
M  END
>  <meeko>  (9) 
{"is_sidechain": [false], "free_energy": -6.412, "intermolecular_energy": -8.349, "internal_energy": 0.109}

$$$$
