cand_052_out
     RDKit          3D

 44 46  0  0  0  0  0  0  0  0999 V2000
   20.8650  -34.5970   32.9360 C   0  0  0  0  0  0  0  0  0  0  0  0
   20.0910  -34.9140   34.2060 C   0  0  0  0  0  0  0  0  0  0  0  0
   19.6930  -33.6400   34.9530 C   0  0  0  0  0  0  0  0  0  0  0  0
   19.6120  -33.8850   36.4620 C   0  0  0  0  0  0  0  0  0  0  0  0
   19.4740  -32.5900   37.2330 C   0  0  0  0  0  0  0  0  0  0  0  0
   19.9100  -31.4020   36.6270 C   0  0  0  0  0  0  0  0  0  0  0  0
   19.8160  -30.1770   37.2920 C   0  0  0  0  0  0  0  0  0  0  0  0
   19.2810  -30.1040   38.5810 C   0  0  0  0  0  0  0  0  0  0  0  0
   19.1910  -28.8250   39.3160 C   0  0  0  0  0  0  0  0  0  0  0  0
   20.0580  -28.7660   40.4020 O   0  0  0  0  0  0  0  0  0  0  0  0
   20.0790  -27.6330   41.1740 C   0  0  0  0  0  0  0  0  0  0  0  0
   20.9730  -27.6120   42.2440 C   0  0  0  0  0  0  0  0  0  0  0  0
   21.0440  -26.4880   43.0710 C   0  0  0  0  0  0  0  0  0  0  0  0
   20.2200  -25.3870   42.8280 C   0  0  0  0  0  0  0  0  0  0  0  0
   19.3280  -25.4110   41.7590 C   0  0  0  0  0  0  0  0  0  0  0  0
   18.5510  -24.3000   41.5780 O   0  0  0  0  0  0  0  0  0  0  0  0
   19.2590  -26.5360   40.9320 C   0  0  0  0  0  0  0  0  0  0  0  0
   18.3360  -26.6020   39.7980 C   0  0  0  0  0  0  0  0  0  0  0  0
   17.5740  -25.6760   39.5230 O   0  0  0  0  0  0  0  0  0  0  0  0
   18.3450  -27.8360   38.9770 C   0  0  0  0  0  0  0  0  0  0  0  0
   17.4590  -27.8930   37.9170 O   0  0  0  0  0  0  0  0  0  0  0  0
   18.8580  -31.2940   39.1930 C   0  0  0  0  0  0  0  0  0  0  0  0
   18.9520  -32.5380   38.5400 C   0  0  0  0  0  0  0  0  0  0  0  0
   18.4630  -33.7700   39.2520 C   0  0  0  0  0  0  0  0  0  0  0  0
   21.8531  -34.1923   33.2002 H   0  0  0  0  0  0  0  0  0  0  0  0
   20.9913  -35.5158   32.3446 H   0  0  0  0  0  0  0  0  0  0  0  0
   20.3105  -33.8536   32.3446 H   0  0  0  0  0  0  0  0  0  0  0  0
   19.1808  -35.4715   33.9400 H   0  0  0  0  0  0  0  0  0  0  0  0
   20.7383  -35.5120   34.8643 H   0  0  0  0  0  0  0  0  0  0  0  0
   20.4428  -32.8596   34.7560 H   0  0  0  0  0  0  0  0  0  0  0  0
   18.7011  -33.3237   34.5979 H   0  0  0  0  0  0  0  0  0  0  0  0
   18.7394  -34.5205   36.6736 H   0  0  0  0  0  0  0  0  0  0  0  0
   20.5437  -34.3757   36.7801 H   0  0  0  0  0  0  0  0  0  0  0  0
   20.3326  -31.4357   35.6120 H   0  0  0  0  0  0  0  0  0  0  0  0
   20.1668  -29.2601   36.7957 H   0  0  0  0  0  0  0  0  0  0  0  0
   21.6216  -28.4793   42.4368 H   0  0  0  0  0  0  0  0  0  0  0  0
   21.7498  -26.4703   43.9145 H   0  0  0  0  0  0  0  0  0  0  0  0
   20.2755  -24.5026   43.4797 H   0  0  0  0  0  0  0  0  0  0  0  0
   18.3590  -23.9980   40.7130 H   0  0  0  0  0  0  0  0  0  0  0  0
   16.6310  -27.4580   37.9750 H   0  0  0  0  0  0  0  0  0  0  0  0
   18.4417  -31.2538   40.2104 H   0  0  0  0  0  0  0  0  0  0  0  0
   18.5249  -33.6141   40.3391 H   0  0  0  0  0  0  0  0  0  0  0  0
   17.4185  -33.9670   38.9687 H   0  0  0  0  0  0  0  0  0  0  0  0
   19.0881  -34.6296   38.9687 H   0  0  0  0  0  0  0  0  0  0  0  0
  1  2  1  0
  2  3  1  0
  3  4  1  0
  4  5  1  0
  5  6  2  0
  6  7  1  0
  7  8  2  0
  8  9  1  0
  9 10  1  0
 10 11  1  0
 11 12  2  0
 12 13  1  0
 13 14  2  0
 14 15  1  0
 15 16  1  0
 15 17  2  0
 17 18  1  0
 18 19  2  0
 18 20  1  0
 20 21  1  0
  8 22  1  0
 22 23  2  0
 23 24  1  0
 23  5  1  0
 20  9  2  0
 17 11  1  0
  1 25  1  0
  1 26  1  0
  1 27  1  0
  2 28  1  0
  2 29  1  0
  3 30  1  0
  3 31  1  0
  4 32  1  0
  4 33  1  0
  6 34  1  0
  7 35  1  0
 12 36  1  0
 13 37  1  0
 14 38  1  0
 16 39  1  0
 21 40  1  0
 22 41  1  0
 24 42  1  0
 24 43  1  0
 24 44  1  0
M  END
>  <meeko>  (1) 
{"is_sidechain": [false], "free_energy": -7.999, "intermolecular_energy": -10.337, "internal_energy": -0.529}

$$$$
cand_052_out
     RDKit          3D

 44 46  0  0  0  0  0  0  0  0999 V2000
   19.3090  -23.3450   38.0810 C   0  0  0  0  0  0  0  0  0  0  0  0
   19.1380  -23.0560   39.5640 C   0  0  0  0  0  0  0  0  0  0  0  0
   19.9010  -24.0640   40.4230 C   0  0  0  0  0  0  0  0  0  0  0  0
   18.9510  -25.0880   41.0500 C   0  0  0  0  0  0  0  0  0  0  0  0
   19.0770  -26.4460   40.3930 C   0  0  0  0  0  0  0  0  0  0  0  0
   18.2260  -26.7490   39.3190 C   0  0  0  0  0  0  0  0  0  0  0  0
   18.2890  -27.9890   38.6780 C   0  0  0  0  0  0  0  0  0  0  0  0
   19.2080  -28.9590   39.0890 C   0  0  0  0  0  0  0  0  0  0  0  0
   19.2800  -30.2860   38.4440 C   0  0  0  0  0  0  0  0  0  0  0  0
   18.8560  -31.3150   39.2780 O   0  0  0  0  0  0  0  0  0  0  0  0
   18.8700  -32.6020   38.8040 C   0  0  0  0  0  0  0  0  0  0  0  0
   18.4230  -33.6000   39.6700 C   0  0  0  0  0  0  0  0  0  0  0  0
   18.4140  -34.9340   39.2510 C   0  0  0  0  0  0  0  0  0  0  0  0
   18.8520  -35.2670   37.9680 C   0  0  0  0  0  0  0  0  0  0  0  0
   19.2980  -34.2680   37.1060 C   0  0  0  0  0  0  0  0  0  0  0  0
   19.7140  -34.6640   35.8640 O   0  0  0  0  0  0  0  0  0  0  0  0
   19.3070  -32.9350   37.5260 C   0  0  0  0  0  0  0  0  0  0  0  0
   19.7670  -31.8550   36.6520 C   0  0  0  0  0  0  0  0  0  0  0  0
   20.1750  -32.0690   35.5110 O   0  0  0  0  0  0  0  0  0  0  0  0
   19.7290  -30.4750   37.1890 C   0  0  0  0  0  0  0  0  0  0  0  0
   20.1790  -29.4640   36.3600 O   0  0  0  0  0  0  0  0  0  0  0  0
   20.0490  -28.6600   40.1720 C   0  0  0  0  0  0  0  0  0  0  0  0
   19.9940  -27.4200   40.8350 C   0  0  0  0  0  0  0  0  0  0  0  0
   20.9380  -27.1640   41.9780 C   0  0  0  0  0  0  0  0  0  0  0  0
   19.8653  -24.2852   37.9524 H   0  0  0  0  0  0  0  0  0  0  0  0
   18.3197  -23.4368   37.6089 H   0  0  0  0  0  0  0  0  0  0  0  0
   19.8657  -22.5221   37.6089 H   0  0  0  0  0  0  0  0  0  0  0  0
   19.5169  -22.0456   39.7772 H   0  0  0  0  0  0  0  0  0  0  0  0
   18.0685  -23.1332   39.8095 H   0  0  0  0  0  0  0  0  0  0  0  0
   20.6322  -24.5916   39.7929 H   0  0  0  0  0  0  0  0  0  0  0  0
   20.4086  -23.5185   41.2322 H   0  0  0  0  0  0  0  0  0  0  0  0
   19.1886  -25.1862   42.1195 H   0  0  0  0  0  0  0  0  0  0  0  0
   17.9202  -24.7321   40.9057 H   0  0  0  0  0  0  0  0  0  0  0  0
   17.4981  -25.9987   38.9765 H   0  0  0  0  0  0  0  0  0  0  0  0
   17.6083  -28.2042   37.8411 H   0  0  0  0  0  0  0  0  0  0  0  0
   18.0781  -33.3379   40.6811 H   0  0  0  0  0  0  0  0  0  0  0  0
   18.0615  -35.7218   39.9330 H   0  0  0  0  0  0  0  0  0  0  0  0
   18.8449  -36.3164   37.6384 H   0  0  0  0  0  0  0  0  0  0  0  0
   19.1040  -35.0460   35.2660 H   0  0  0  0  0  0  0  0  0  0  0  0
   19.6670  -28.6870   36.2480 H   0  0  0  0  0  0  0  0  0  0  0  0
   20.7716  -29.4164   40.5122 H   0  0  0  0  0  0  0  0  0  0  0  0
   20.4076  -27.3078   42.9309 H   0  0  0  0  0  0  0  0  0  0  0  0
   21.7834  -27.8653   41.9194 H   0  0  0  0  0  0  0  0  0  0  0  0
   21.3133  -26.1316   41.9194 H   0  0  0  0  0  0  0  0  0  0  0  0
  1  2  1  0
  2  3  1  0
  3  4  1  0
  4  5  1  0
  5  6  2  0
  6  7  1  0
  7  8  2  0
  8  9  1  0
  9 10  1  0
 10 11  1  0
 11 12  2  0
 12 13  1  0
 13 14  2  0
 14 15  1  0
 15 16  1  0
 15 17  2  0
 17 18  1  0
 18 19  2  0
 18 20  1  0
 20 21  1  0
  8 22  1  0
 22 23  2  0
 23 24  1  0
 23  5  1  0
 20  9  2  0
 17 11  1  0
  1 25  1  0
  1 26  1  0
  1 27  1  0
  2 28  1  0
  2 29  1  0
  3 30  1  0
  3 31  1  0
  4 32  1  0
  4 33  1  0
  6 34  1  0
  7 35  1  0
 12 36  1  0
 13 37  1  0
 14 38  1  0
 16 39  1  0
 21 40  1  0
 22 41  1  0
 24 42  1  0
 24 43  1  0
 24 44  1  0
M  END
>  <meeko>  (2) 
{"is_sidechain": [false], "free_energy": -7.813, "intermolecular_energy": -9.904, "internal_energy": -0.723}

$$$$
cand_052_out
     RDKit          3D

 44 46  0  0  0  0  0  0  0  0999 V2000
   19.6710  -35.4700   38.3110 C   0  0  0  0  0  0  0  0  0  0  0  0
   19.8180  -35.4630   36.7970 C   0  0  0  0  0  0  0  0  0  0  0  0
   18.9320  -34.3960   36.1530 C   0  0  0  0  0  0  0  0  0  0  0  0
   19.7700  -33.2380   35.6050 C   0  0  0  0  0  0  0  0  0  0  0  0
   19.6700  -32.0090   36.4820 C   0  0  0  0  0  0  0  0  0  0  0  0
   19.2550  -32.1710   37.8140 C   0  0  0  0  0  0  0  0  0  0  0  0
   19.1360  -31.0740   38.6700 C   0  0  0  0  0  0  0  0  0  0  0  0
   19.4320  -29.7840   38.2210 C   0  0  0  0  0  0  0  0  0  0  0  0
   19.2920  -28.6030   39.0990 C   0  0  0  0  0  0  0  0  0  0  0  0
   20.1940  -28.6080   40.1580 O   0  0  0  0  0  0  0  0  0  0  0  0
   20.1750  -27.5670   41.0510 C   0  0  0  0  0  0  0  0  0  0  0  0
   21.1060  -27.6070   42.0890 C   0  0  0  0  0  0  0  0  0  0  0  0
   21.1380  -26.5780   43.0350 C   0  0  0  0  0  0  0  0  0  0  0  0
   20.2390  -25.5140   42.9430 C   0  0  0  0  0  0  0  0  0  0  0  0
   19.3110  -25.4780   41.9050 C   0  0  0  0  0  0  0  0  0  0  0  0
   18.4590  -24.4070   41.8750 O   0  0  0  0  0  0  0  0  0  0  0  0
   19.2790  -26.5070   40.9590 C   0  0  0  0  0  0  0  0  0  0  0  0
   18.3200  -26.5070   39.8540 C   0  0  0  0  0  0  0  0  0  0  0  0
   17.4930  -25.6090   39.7090 O   0  0  0  0  0  0  0  0  0  0  0  0
   18.3750  -27.6400   38.9000 C   0  0  0  0  0  0  0  0  0  0  0  0
   17.4540  -27.6370   37.8680 O   0  0  0  0  0  0  0  0  0  0  0  0
   19.8330  -29.6200   36.8860 C   0  0  0  0  0  0  0  0  0  0  0  0
   19.9520  -30.7130   36.0080 C   0  0  0  0  0  0  0  0  0  0  0  0
   20.4040  -30.4640   34.5950 C   0  0  0  0  0  0  0  0  0  0  0  0
   20.6666  -35.4226   38.7763 H   0  0  0  0  0  0  0  0  0  0  0  0
   19.0773  -34.5991   38.6258 H   0  0  0  0  0  0  0  0  0  0  0  0
   19.1628  -36.3934   38.6258 H   0  0  0  0  0  0  0  0  0  0  0  0
   20.8679  -35.2581   36.5407 H   0  0  0  0  0  0  0  0  0  0  0  0
   19.5066  -36.4466   36.4154 H   0  0  0  0  0  0  0  0  0  0  0  0
   18.3650  -34.8508   35.3274 H   0  0  0  0  0  0  0  0  0  0  0  0
   18.2499  -34.0002   36.9199 H   0  0  0  0  0  0  0  0  0  0  0  0
   20.8225  -33.5535   35.5525 H   0  0  0  0  0  0  0  0  0  0  0  0
   19.3852  -32.9790   34.6076 H   0  0  0  0  0  0  0  0  0  0  0  0
   19.0199  -33.1781   38.1890 H   0  0  0  0  0  0  0  0  0  0  0  0
   18.8060  -31.2268   39.7081 H   0  0  0  0  0  0  0  0  0  0  0  0
   21.8133  -28.4462   42.1631 H   0  0  0  0  0  0  0  0  0  0  0  0
   21.8728  -26.6069   43.8531 H   0  0  0  0  0  0  0  0  0  0  0  0
   20.2635  -24.7057   43.6887 H   0  0  0  0  0  0  0  0  0  0  0  0
   18.2430  -24.0040   41.0590 H   0  0  0  0  0  0  0  0  0  0  0  0
   17.5690  -28.2130   37.1370 H   0  0  0  0  0  0  0  0  0  0  0  0
   20.0605  -28.6094   36.5160 H   0  0  0  0  0  0  0  0  0  0  0  0
   21.3674  -29.9333   34.6064 H   0  0  0  0  0  0  0  0  0  0  0  0
   20.5209  -31.4250   34.0727 H   0  0  0  0  0  0  0  0  0  0  0  0
   19.6542  -29.8517   34.0727 H   0  0  0  0  0  0  0  0  0  0  0  0
  1  2  1  0
  2  3  1  0
  3  4  1  0
  4  5  1  0
  5  6  2  0
  6  7  1  0
  7  8  2  0
  8  9  1  0
  9 10  1  0
 10 11  1  0
 11 12  2  0
 12 13  1  0
 13 14  2  0
 14 15  1  0
 15 16  1  0
 15 17  2  0
 17 18  1  0
 18 19  2  0
 18 20  1  0
 20 21  1  0
  8 22  1  0
 22 23  2  0
 23 24  1  0
 23  5  1  0
 20  9  2  0
 17 11  1  0
  1 25  1  0
  1 26  1  0
  1 27  1  0
  2 28  1  0
  2 29  1  0
  3 30  1  0
  3 31  1  0
  4 32  1  0
  4 33  1  0
  6 34  1  0
  7 35  1  0
 12 36  1  0
 13 37  1  0
 14 38  1  0
 16 39  1  0
 21 40  1  0
 22 41  1  0
 24 42  1  0
 24 43  1  0
 24 44  1  0
M  END
>  <meeko>  (3) 
{"is_sidechain": [false], "free_energy": -7.572, "intermolecular_energy": -9.912, "internal_energy": -0.403}

$$$$
cand_052_out
     RDKit          3D

 44 46  0  0  0  0  0  0  0  0999 V2000
   19.6390  -24.6100   43.6200 C   0  0  0  0  0  0  0  0  0  0  0  0
   19.2780  -23.8000   42.3850 C   0  0  0  0  0  0  0  0  0  0  0  0
   20.0350  -24.2910   41.1510 C   0  0  0  0  0  0  0  0  0  0  0  0
   19.0890  -24.4900   39.9630 C   0  0  0  0  0  0  0  0  0  0  0  0
   19.1210  -25.9150   39.4530 C   0  0  0  0  0  0  0  0  0  0  0  0
   19.7470  -26.8930   40.2420 C   0  0  0  0  0  0  0  0  0  0  0  0
   19.8160  -28.2230   39.8210 C   0  0  0  0  0  0  0  0  0  0  0  0
   19.2570  -28.6140   38.6010 C   0  0  0  0  0  0  0  0  0  0  0  0
   19.3360  -30.0100   38.1210 C   0  0  0  0  0  0  0  0  0  0  0  0
   18.9250  -30.9330   39.0760 O   0  0  0  0  0  0  0  0  0  0  0  0
   18.9460  -32.2680   38.7610 C   0  0  0  0  0  0  0  0  0  0  0  0
   18.5120  -33.1570   39.7440 C   0  0  0  0  0  0  0  0  0  0  0  0
   18.5100  -34.5310   39.4890 C   0  0  0  0  0  0  0  0  0  0  0  0
   18.9440  -35.0140   38.2530 C   0  0  0  0  0  0  0  0  0  0  0  0
   19.3780  -34.1230   37.2740 C   0  0  0  0  0  0  0  0  0  0  0  0
   19.7900  -34.6640   36.0860 O   0  0  0  0  0  0  0  0  0  0  0  0
   19.3780  -32.7490   37.5300 C   0  0  0  0  0  0  0  0  0  0  0  0
   19.8250  -31.7800   36.5280 C   0  0  0  0  0  0  0  0  0  0  0  0
   20.2280  -32.1270   35.4190 O   0  0  0  0  0  0  0  0  0  0  0  0
   19.7790  -30.3450   36.8960 C   0  0  0  0  0  0  0  0  0  0  0  0
   20.2170  -29.4390   35.9470 O   0  0  0  0  0  0  0  0  0  0  0  0
   18.6440  -27.6340   37.8060 C   0  0  0  0  0  0  0  0  0  0  0  0
   18.5720  -26.2880   38.2110 C   0  0  0  0  0  0  0  0  0  0  0  0
   17.8830  -25.2960   37.3140 C   0  0  0  0  0  0  0  0  0  0  0  0
   19.3831  -24.0359   44.5227 H   0  0  0  0  0  0  0  0  0  0  0  0
   19.0772  -25.5557   43.6154 H   0  0  0  0  0  0  0  0  0  0  0  0
   20.7179  -24.8245   43.6154 H   0  0  0  0  0  0  0  0  0  0  0  0
   18.1973  -23.8914   42.2011 H   0  0  0  0  0  0  0  0  0  0  0  0
   19.5574  -22.7517   42.5664 H   0  0  0  0  0  0  0  0  0  0  0  0
   20.7996  -23.5481   40.8801 H   0  0  0  0  0  0  0  0  0  0  0  0
   20.5011  -25.2581   41.3906 H   0  0  0  0  0  0  0  0  0  0  0  0
   18.0637  -24.2478   40.2795 H   0  0  0  0  0  0  0  0  0  0  0  0
   19.4177  -23.8274   39.1488 H   0  0  0  0  0  0  0  0  0  0  0  0
   20.1903  -26.6073   41.2073 H   0  0  0  0  0  0  0  0  0  0  0  0
   20.3151  -28.9700   40.4557 H   0  0  0  0  0  0  0  0  0  0  0  0
   18.1717  -32.7772   40.7187 H   0  0  0  0  0  0  0  0  0  0  0  0
   18.1661  -35.2329   40.2630 H   0  0  0  0  0  0  0  0  0  0  0  0
   18.9432  -36.0956   38.0527 H   0  0  0  0  0  0  0  0  0  0  0  0
   19.2340  -35.2590   35.6250 H   0  0  0  0  0  0  0  0  0  0  0  0
   20.9510  -29.6490   35.4030 H   0  0  0  0  0  0  0  0  0  0  0  0
   18.2075  -27.9257   36.8393 H   0  0  0  0  0  0  0  0  0  0  0  0
   17.3623  -24.5464   37.9280 H   0  0  0  0  0  0  0  0  0  0  0  0
   18.6291  -24.7958   36.6791 H   0  0  0  0  0  0  0  0  0  0  0  0
   17.1538  -25.8205   36.6791 H   0  0  0  0  0  0  0  0  0  0  0  0
  1  2  1  0
  2  3  1  0
  3  4  1  0
  4  5  1  0
  5  6  2  0
  6  7  1  0
  7  8  2  0
  8  9  1  0
  9 10  1  0
 10 11  1  0
 11 12  2  0
 12 13  1  0
 13 14  2  0
 14 15  1  0
 15 16  1  0
 15 17  2  0
 17 18  1  0
 18 19  2  0
 18 20  1  0
 20 21  1  0
  8 22  1  0
 22 23  2  0
 23 24  1  0
 23  5  1  0
 20  9  2  0
 17 11  1  0
  1 25  1  0
  1 26  1  0
  1 27  1  0
  2 28  1  0
  2 29  1  0
  3 30  1  0
  3 31  1  0
  4 32  1  0
  4 33  1  0
  6 34  1  0
  7 35  1  0
 12 36  1  0
 13 37  1  0
 14 38  1  0
 16 39  1  0
 21 40  1  0
 22 41  1  0
 24 42  1  0
 24 43  1  0
 24 44  1  0
M  END
>  <meeko>  (4) 
{"is_sidechain": [false], "free_energy": -7.269, "intermolecular_energy": -9.504, "internal_energy": -0.419}

$$$$
cand_052_out
     RDKit          3D

 44 46  0  0  0  0  0  0  0  0999 V2000
   19.6310  -29.3860   34.7770 C   0  0  0  0  0  0  0  0  0  0  0  0
   20.0300  -27.9740   35.1740 C   0  0  0  0  0  0  0  0  0  0  0  0
   18.8200  -27.0400   35.2150 C   0  0  0  0  0  0  0  0  0  0  0  0
   17.9890  -27.2650   36.4810 C   0  0  0  0  0  0  0  0  0  0  0  0
   18.8470  -27.2390   37.7280 C   0  0  0  0  0  0  0  0  0  0  0  0
   19.0070  -28.4300   38.4530 C   0  0  0  0  0  0  0  0  0  0  0  0
   19.7790  -28.4670   39.6160 C   0  0  0  0  0  0  0  0  0  0  0  0
   20.4180  -27.3160   40.0850 C   0  0  0  0  0  0  0  0  0  0  0  0
   21.2220  -27.3210   41.3260 C   0  0  0  0  0  0  0  0  0  0  0  0
   22.2050  -28.3060   41.3270 O   0  0  0  0  0  0  0  0  0  0  0  0
   23.0260  -28.4220   42.4190 C   0  0  0  0  0  0  0  0  0  0  0  0
   24.0060  -29.4130   42.3710 C   0  0  0  0  0  0  0  0  0  0  0  0
   24.8750  -29.5870   43.4520 C   0  0  0  0  0  0  0  0  0  0  0  0
   24.7620  -28.7700   44.5790 C   0  0  0  0  0  0  0  0  0  0  0  0
   23.7820  -27.7810   44.6230 C   0  0  0  0  0  0  0  0  0  0  0  0
   23.7260  -27.0180   45.7570 O   0  0  0  0  0  0  0  0  0  0  0  0
   22.9140  -27.6080   43.5420 C   0  0  0  0  0  0  0  0  0  0  0  0
   21.8710  -26.5810   43.5480 C   0  0  0  0  0  0  0  0  0  0  0  0
   21.7040  -25.8280   44.5060 O   0  0  0  0  0  0  0  0  0  0  0  0
   21.0080  -26.4740   42.3480 C   0  0  0  0  0  0  0  0  0  0  0  0
   20.0170  -25.5100   42.3710 O   0  0  0  0  0  0  0  0  0  0  0  0
   20.2470  -26.1220   39.3680 C   0  0  0  0  0  0  0  0  0  0  0  0
   19.4660  -26.0650   38.1980 C   0  0  0  0  0  0  0  0  0  0  0  0
   19.3410  -24.7530   37.4710 C   0  0  0  0  0  0  0  0  0  0  0  0
   19.4611  -29.9873   35.6823 H   0  0  0  0  0  0  0  0  0  0  0  0
   18.7073  -29.3520   34.1807 H   0  0  0  0  0  0  0  0  0  0  0  0
   20.4359  -29.8405   34.1807 H   0  0  0  0  0  0  0  0  0  0  0  0
   20.4947  -28.0008   36.1707 H   0  0  0  0  0  0  0  0  0  0  0  0
   20.7362  -27.5909   34.4227 H   0  0  0  0  0  0  0  0  0  0  0  0
   19.1707  -25.9976   35.1967 H   0  0  0  0  0  0  0  0  0  0  0  0
   18.1869  -27.2519   34.3408 H   0  0  0  0  0  0  0  0  0  0  0  0
   17.2299  -26.4723   36.5544 H   0  0  0  0  0  0  0  0  0  0  0  0
   17.5188  -28.2569   36.4098 H   0  0  0  0  0  0  0  0  0  0  0  0
   18.5165  -29.3489   38.0995 H   0  0  0  0  0  0  0  0  0  0  0  0
   19.8853  -29.4120   40.1688 H   0  0  0  0  0  0  0  0  0  0  0  0
   24.0951  -30.0569   41.4836 H   0  0  0  0  0  0  0  0  0  0  0  0
   25.6486  -30.3682   43.4149 H   0  0  0  0  0  0  0  0  0  0  0  0
   25.4453  -28.9072   45.4300 H   0  0  0  0  0  0  0  0  0  0  0  0
   24.4630  -26.9810   46.3340 H   0  0  0  0  0  0  0  0  0  0  0  0
   19.9260  -24.9160   41.6520 H   0  0  0  0  0  0  0  0  0  0  0  0
   20.7364  -25.2057   39.7299 H   0  0  0  0  0  0  0  0  0  0  0  0
   19.2630  -23.9347   38.2020 H   0  0  0  0  0  0  0  0  0  0  0  0
   20.2284  -24.5975   36.8399 H   0  0  0  0  0  0  0  0  0  0  0  0
   18.4402  -24.7679   36.8399 H   0  0  0  0  0  0  0  0  0  0  0  0
  1  2  1  0
  2  3  1  0
  3  4  1  0
  4  5  1  0
  5  6  2  0
  6  7  1  0
  7  8  2  0
  8  9  1  0
  9 10  1  0
 10 11  1  0
 11 12  2  0
 12 13  1  0
 13 14  2  0
 14 15  1  0
 15 16  1  0
 15 17  2  0
 17 18  1  0
 18 19  2  0
 18 20  1  0
 20 21  1  0
  8 22  1  0
 22 23  2  0
 23 24  1  0
 23  5  1  0
 20  9  2  0
 17 11  1  0
  1 25  1  0
  1 26  1  0
  1 27  1  0
  2 28  1  0
  2 29  1  0
  3 30  1  0
  3 31  1  0
  4 32  1  0
  4 33  1  0
  6 34  1  0
  7 35  1  0
 12 36  1  0
 13 37  1  0
 14 38  1  0
 16 39  1  0
 21 40  1  0
 22 41  1  0
 24 42  1  0
 24 43  1  0
 24 44  1  0
M  END
>  <meeko>  (5) 
{"is_sidechain": [false], "free_energy": -6.948, "intermolecular_energy": -9.193, "internal_energy": -0.316}

$$$$
cand_052_out
     RDKit          3D

 44 46  0  0  0  0  0  0  0  0999 V2000
   24.4180  -29.9260   42.6530 C   0  0  0  0  0  0  0  0  0  0  0  0
   24.1220  -29.0660   43.8710 C   0  0  0  0  0  0  0  0  0  0  0  0
   23.6560  -27.6660   43.4690 C   0  0  0  0  0  0  0  0  0  0  0  0
   22.1710  -27.4650   43.7830 C   0  0  0  0  0  0  0  0  0  0  0  0
   21.4020  -26.9820   42.5720 C   0  0  0  0  0  0  0  0  0  0  0  0
   21.6750  -27.5740   41.3280 C   0  0  0  0  0  0  0  0  0  0  0  0
   21.0050  -27.1650   40.1730 C   0  0  0  0  0  0  0  0  0  0  0  0
   20.0390  -26.1560   40.2280 C   0  0  0  0  0  0  0  0  0  0  0  0
   19.3310  -25.6880   39.0180 C   0  0  0  0  0  0  0  0  0  0  0  0
   19.6410  -24.3740   38.6870 O   0  0  0  0  0  0  0  0  0  0  0  0
   19.0540  -23.8110   37.5820 C   0  0  0  0  0  0  0  0  0  0  0  0
   19.4050  -22.4960   37.2800 C   0  0  0  0  0  0  0  0  0  0  0  0
   18.8410  -21.8620   36.1680 C   0  0  0  0  0  0  0  0  0  0  0  0
   17.9280  -22.5450   35.3630 C   0  0  0  0  0  0  0  0  0  0  0  0
   17.5800  -23.8580   35.6680 C   0  0  0  0  0  0  0  0  0  0  0  0
   16.6790  -24.4670   34.8370 O   0  0  0  0  0  0  0  0  0  0  0  0
   18.1440  -24.4910   36.7790 C   0  0  0  0  0  0  0  0  0  0  0  0
   17.8060  -25.8700   37.1340 C   0  0  0  0  0  0  0  0  0  0  0  0
   17.0050  -26.5340   36.4780 O   0  0  0  0  0  0  0  0  0  0  0  0
   18.4660  -26.4510   38.3270 C   0  0  0  0  0  0  0  0  0  0  0  0
   18.1280  -27.7500   38.6610 O   0  0  0  0  0  0  0  0  0  0  0  0
   19.7760  -25.5550   41.4690 C   0  0  0  0  0  0  0  0  0  0  0  0
   20.4470  -25.9490   42.6410 C   0  0  0  0  0  0  0  0  0  0  0  0
   20.1010  -25.2710   43.9390 C   0  0  0  0  0  0  0  0  0  0  0  0
   24.7598  -30.9192   42.9797 H   0  0  0  0  0  0  0  0  0  0  0  0
   23.5049  -30.0329   42.0489 H   0  0  0  0  0  0  0  0  0  0  0  0
   25.2034  -29.4483   42.0489 H   0  0  0  0  0  0  0  0  0  0  0  0
   23.3324  -29.5484   44.4658 H   0  0  0  0  0  0  0  0  0  0  0  0
   25.0479  -28.9666   44.4564 H   0  0  0  0  0  0  0  0  0  0  0  0
   24.2440  -26.9194   44.0228 H   0  0  0  0  0  0  0  0  0  0  0  0
   23.8017  -27.5484   42.3851 H   0  0  0  0  0  0  0  0  0  0  0  0
   21.7447  -28.4224   44.1172 H   0  0  0  0  0  0  0  0  0  0  0  0
   22.0877  -26.7000   44.5690 H   0  0  0  0  0  0  0  0  0  0  0  0
   22.4286  -28.3726   41.2624 H   0  0  0  0  0  0  0  0  0  0  0  0
   21.2398  -27.6418   39.2099 H   0  0  0  0  0  0  0  0  0  0  0  0
   20.1242  -21.9580   37.9151 H   0  0  0  0  0  0  0  0  0  0  0  0
   19.1171  -20.8247   35.9278 H   0  0  0  0  0  0  0  0  0  0  0  0
   17.4840  -22.0465   34.4887 H   0  0  0  0  0  0  0  0  0  0  0  0
   16.1570  -25.1780   35.1520 H   0  0  0  0  0  0  0  0  0  0  0  0
   17.3830  -27.9150   39.2050 H   0  0  0  0  0  0  0  0  0  0  0  0
   19.0245  -24.7538   41.5267 H   0  0  0  0  0  0  0  0  0  0  0  0
   20.4233  -25.9026   44.7799 H   0  0  0  0  0  0  0  0  0  0  0  0
   20.6134  -24.2991   43.9930 H   0  0  0  0  0  0  0  0  0  0  0  0
   19.0134  -25.1156   43.9930 H   0  0  0  0  0  0  0  0  0  0  0  0
  1  2  1  0
  2  3  1  0
  3  4  1  0
  4  5  1  0
  5  6  2  0
  6  7  1  0
  7  8  2  0
  8  9  1  0
  9 10  1  0
 10 11  1  0
 11 12  2  0
 12 13  1  0
 13 14  2  0
 14 15  1  0
 15 16  1  0
 15 17  2  0
 17 18  1  0
 18 19  2  0
 18 20  1  0
 20 21  1  0
  8 22  1  0
 22 23  2  0
 23 24  1  0
 23  5  1  0
 20  9  2  0
 17 11  1  0
  1 25  1  0
  1 26  1  0
  1 27  1  0
  2 28  1  0
  2 29  1  0
  3 30  1  0
  3 31  1  0
  4 32  1  0
  4 33  1  0
  6 34  1  0
  7 35  1  0
 12 36  1  0
 13 37  1  0
 14 38  1  0
 16 39  1  0
 21 40  1  0
 22 41  1  0
 24 42  1  0
 24 43  1  0
 24 44  1  0
M  END
>  <meeko>  (6) 
{"is_sidechain": [false], "free_energy": -6.916, "intermolecular_energy": -8.812, "internal_energy": -0.656}

$$$$
cand_052_out
     RDKit          3D

 44 46  0  0  0  0  0  0  0  0999 V2000
   20.4120  -34.7240   33.5920 C   0  0  0  0  0  0  0  0  0  0  0  0
   20.0120  -34.9260   35.0450 C   0  0  0  0  0  0  0  0  0  0  0  0
   19.2920  -33.6980   35.6040 C   0  0  0  0  0  0  0  0  0  0  0  0
   19.6460  -33.4710   37.0760 C   0  0  0  0  0  0  0  0  0  0  0  0
   19.5640  -32.0080   37.4530 C   0  0  0  0  0  0  0  0  0  0  0  0
   20.0230  -31.0540   36.5310 C   0  0  0  0  0  0  0  0  0  0  0  0
   19.9820  -29.6890   36.8250 C   0  0  0  0  0  0  0  0  0  0  0  0
   19.4760  -29.2380   38.0480 C   0  0  0  0  0  0  0  0  0  0  0  0
   19.4420  -27.8020   38.3950 C   0  0  0  0  0  0  0  0  0  0  0  0
   18.5390  -27.0820   37.6210 O   0  0  0  0  0  0  0  0  0  0  0  0
   18.4040  -25.7340   37.8380 C   0  0  0  0  0  0  0  0  0  0  0  0
   17.4770  -25.0550   37.0490 C   0  0  0  0  0  0  0  0  0  0  0  0
   17.2920  -23.6790   37.2180 C   0  0  0  0  0  0  0  0  0  0  0  0
   18.0360  -22.9860   38.1750 C   0  0  0  0  0  0  0  0  0  0  0  0
   18.9620  -23.6680   38.9610 C   0  0  0  0  0  0  0  0  0  0  0  0
   19.6570  -22.9280   39.8790 O   0  0  0  0  0  0  0  0  0  0  0  0
   19.1450  -25.0430   38.7920 C   0  0  0  0  0  0  0  0  0  0  0  0
   20.1070  -25.7970   39.5970 C   0  0  0  0  0  0  0  0  0  0  0  0
   20.8030  -25.2570   40.4550 O   0  0  0  0  0  0  0  0  0  0  0  0
   20.2200  -27.2530   39.3450 C   0  0  0  0  0  0  0  0  0  0  0  0
   21.1410  -27.9520   40.1020 O   0  0  0  0  0  0  0  0  0  0  0  0
   19.0300  -30.1930   38.9750 C   0  0  0  0  0  0  0  0  0  0  0  0
   19.0720  -31.5720   38.6990 C   0  0  0  0  0  0  0  0  0  0  0  0
   18.5600  -32.5360   39.7350 C   0  0  0  0  0  0  0  0  0  0  0  0
   21.3931  -34.2286   33.5473 H   0  0  0  0  0  0  0  0  0  0  0  0
   20.4710  -35.7004   33.0888 H   0  0  0  0  0  0  0  0  0  0  0  0
   19.6613  -34.0969   33.0888 H   0  0  0  0  0  0  0  0  0  0  0  0
   19.3416  -35.7954   35.1136 H   0  0  0  0  0  0  0  0  0  0  0  0
   20.9259  -35.0886   35.6352 H   0  0  0  0  0  0  0  0  0  0  0  0
   19.5890  -32.8125   35.0229 H   0  0  0  0  0  0  0  0  0  0  0  0
   18.2075  -33.8657   35.5284 H   0  0  0  0  0  0  0  0  0  0  0  0
   18.9443  -34.0404   37.7031 H   0  0  0  0  0  0  0  0  0  0  0  0
   20.6808  -33.8083   37.2354 H   0  0  0  0  0  0  0  0  0  0  0  0
   20.4214  -31.3868   35.5612 H   0  0  0  0  0  0  0  0  0  0  0  0
   20.3514  -28.9617   36.0871 H   0  0  0  0  0  0  0  0  0  0  0  0
   16.8916  -25.6007   36.2943 H   0  0  0  0  0  0  0  0  0  0  0  0
   16.5599  -23.1424   36.5966 H   0  0  0  0  0  0  0  0  0  0  0  0
   17.8912  -21.9037   38.3080 H   0  0  0  0  0  0  0  0  0  0  0  0
   19.2010  -22.3470   40.4550 H   0  0  0  0  0  0  0  0  0  0  0  0
   20.8510  -28.6100   40.7040 H   0  0  0  0  0  0  0  0  0  0  0  0
   18.6366  -29.8537   39.9446 H   0  0  0  0  0  0  0  0  0  0  0  0
   18.7701  -32.1403   40.7396 H   0  0  0  0  0  0  0  0  0  0  0  0
   17.4746  -32.6649   39.6113 H   0  0  0  0  0  0  0  0  0  0  0  0
   19.0610  -33.5074   39.6113 H   0  0  0  0  0  0  0  0  0  0  0  0
  1  2  1  0
  2  3  1  0
  3  4  1  0
  4  5  1  0
  5  6  2  0
  6  7  1  0
  7  8  2  0
  8  9  1  0
  9 10  1  0
 10 11  1  0
 11 12  2  0
 12 13  1  0
 13 14  2  0
 14 15  1  0
 15 16  1  0
 15 17  2  0
 17 18  1  0
 18 19  2  0
 18 20  1  0
 20 21  1  0
  8 22  1  0
 22 23  2  0
 23 24  1  0
 23  5  1  0
 20  9  2  0
 17 11  1  0
  1 25  1  0
  1 26  1  0
  1 27  1  0
  2 28  1  0
  2 29  1  0
  3 30  1  0
  3 31  1  0
  4 32  1  0
  4 33  1  0
  6 34  1  0
  7 35  1  0
 12 36  1  0
 13 37  1  0
 14 38  1  0
 16 39  1  0
 21 40  1  0
 22 41  1  0
 24 42  1  0
 24 43  1  0
 24 44  1  0
M  END
>  <meeko>  (7) 
{"is_sidechain": [false], "free_energy": -6.912, "intermolecular_energy": -8.943, "internal_energy": -0.519}

$$$$
cand_052_out
     RDKit          3D

 44 46  0  0  0  0  0  0  0  0999 V2000
   18.4930  -35.4040   39.4070 C   0  0  0  0  0  0  0  0  0  0  0  0
   18.5310  -35.4470   37.8880 C   0  0  0  0  0  0  0  0  0  0  0  0
   18.3280  -34.0570   37.2820 C   0  0  0  0  0  0  0  0  0  0  0  0
   19.6690  -33.3850   36.9740 C   0  0  0  0  0  0  0  0  0  0  0  0
   19.6450  -31.9080   37.3040 C   0  0  0  0  0  0  0  0  0  0  0  0
   19.2350  -31.5170   38.5880 C   0  0  0  0  0  0  0  0  0  0  0  0
   19.1840  -30.1690   38.9490 C   0  0  0  0  0  0  0  0  0  0  0  0
   19.5440  -29.1730   38.0370 C   0  0  0  0  0  0  0  0  0  0  0  0
   19.4770  -27.7380   38.3840 C   0  0  0  0  0  0  0  0  0  0  0  0
   18.6240  -27.0210   37.5520 O   0  0  0  0  0  0  0  0  0  0  0  0
   18.4660  -25.6750   37.7640 C   0  0  0  0  0  0  0  0  0  0  0  0
   17.5910  -24.9990   36.9140 C   0  0  0  0  0  0  0  0  0  0  0  0
   17.3850  -23.6260   37.0740 C   0  0  0  0  0  0  0  0  0  0  0  0
   18.0570  -22.9310   38.0810 C   0  0  0  0  0  0  0  0  0  0  0  0
   18.9310  -23.6090   38.9280 C   0  0  0  0  0  0  0  0  0  0  0  0
   19.5570  -22.8670   39.8920 O   0  0  0  0  0  0  0  0  0  0  0  0
   19.1350  -24.9820   38.7670 C   0  0  0  0  0  0  0  0  0  0  0  0
   20.0440  -25.7320   39.6350 C   0  0  0  0  0  0  0  0  0  0  0  0
   20.6770  -25.1900   40.5400 O   0  0  0  0  0  0  0  0  0  0  0  0
   20.1840  -27.1860   39.3880 C   0  0  0  0  0  0  0  0  0  0  0  0
   21.0560  -27.8820   40.2040 O   0  0  0  0  0  0  0  0  0  0  0  0
   19.9400  -29.5630   36.7490 C   0  0  0  0  0  0  0  0  0  0  0  0
   19.9910  -30.9160   36.3660 C   0  0  0  0  0  0  0  0  0  0  0  0
   20.4410  -31.2610   34.9720 C   0  0  0  0  0  0  0  0  0  0  0  0
   19.1701  -36.1702   39.8126 H   0  0  0  0  0  0  0  0  0  0  0  0
   18.8137  -34.4106   39.7538 H   0  0  0  0  0  0  0  0  0  0  0  0
   17.4677  -35.6001   39.7538 H   0  0  0  0  0  0  0  0  0  0  0  0
   19.5073  -35.8381   37.5659 H   0  0  0  0  0  0  0  0  0  0  0  0
   17.7145  -36.0972   37.5408 H   0  0  0  0  0  0  0  0  0  0  0  0
   17.7523  -34.1529   36.3496 H   0  0  0  0  0  0  0  0  0  0  0  0
   17.7866  -33.4355   38.0105 H   0  0  0  0  0  0  0  0  0  0  0  0
   20.4560  -33.8705   37.5698 H   0  0  0  0  0  0  0  0  0  0  0  0
   19.8665  -33.4922   35.8972 H   0  0  0  0  0  0  0  0  0  0  0  0
   18.9492  -32.2849   39.3220 H   0  0  0  0  0  0  0  0  0  0  0  0
   18.8573  -29.8883   39.9611 H   0  0  0  0  0  0  0  0  0  0  0  0
   17.0636  -25.5459   36.1185 H   0  0  0  0  0  0  0  0  0  0  0  0
   16.6928  -23.0926   36.4059 H   0  0  0  0  0  0  0  0  0  0  0  0
   17.8967  -21.8499   38.2055 H   0  0  0  0  0  0  0  0  0  0  0  0
   19.4370  -21.9390   39.9210 H   0  0  0  0  0  0  0  0  0  0  0  0
   21.1020  -27.6820   41.1190 H   0  0  0  0  0  0  0  0  0  0  0  0
   20.2184  -28.7895   36.0181 H   0  0  0  0  0  0  0  0  0  0  0  0
   21.3130  -31.9295   35.0231 H   0  0  0  0  0  0  0  0  0  0  0  0
   19.6230  -31.7656   34.4370 H   0  0  0  0  0  0  0  0  0  0  0  0
   20.7159  -30.3400   34.4370 H   0  0  0  0  0  0  0  0  0  0  0  0
  1  2  1  0
  2  3  1  0
  3  4  1  0
  4  5  1  0
  5  6  2  0
  6  7  1  0
  7  8  2  0
  8  9  1  0
  9 10  1  0
 10 11  1  0
 11 12  2  0
 12 13  1  0
 13 14  2  0
 14 15  1  0
 15 16  1  0
 15 17  2  0
 17 18  1  0
 18 19  2  0
 18 20  1  0
 20 21  1  0
  8 22  1  0
 22 23  2  0
 23 24  1  0
 23  5  1  0
 20  9  2  0
 17 11  1  0
  1 25  1  0
  1 26  1  0
  1 27  1  0
  2 28  1  0
  2 29  1  0
  3 30  1  0
  3 31  1  0
  4 32  1  0
  4 33  1  0
  6 34  1  0
  7 35  1  0
 12 36  1  0
 13 37  1  0
 14 38  1  0
 16 39  1  0
 21 40  1  0
 22 41  1  0
 24 42  1  0
 24 43  1  0
 24 44  1  0
M  END
>  <meeko>  (8) 
{"is_sidechain": [false], "free_energy": -6.904, "intermolecular_energy": -8.874, "internal_energy": -0.578}

$$$$
cand_052_out
     RDKit          3D

 44 46  0  0  0  0  0  0  0  0999 V2000
   22.0950  -23.8230   49.2640 C   0  0  0  0  0  0  0  0  0  0  0  0
   20.8800  -24.5250   49.8500 C   0  0  0  0  0  0  0  0  0  0  0  0
   19.7650  -24.6730   48.8140 C   0  0  0  0  0  0  0  0  0  0  0  0
   19.7110  -23.4600   47.8810 C   0  0  0  0  0  0  0  0  0  0  0  0
   19.7310  -23.8710   46.4250 C   0  0  0  0  0  0  0  0  0  0  0  0
   20.8390  -24.5890   45.9480 C   0  0  0  0  0  0  0  0  0  0  0  0
   20.9190  -24.9890   44.6130 C   0  0  0  0  0  0  0  0  0  0  0  0
   19.8910  -24.6860   43.7150 C   0  0  0  0  0  0  0  0  0  0  0  0
   19.9600  -25.0770   42.2910 C   0  0  0  0  0  0  0  0  0  0  0  0
   19.5690  -24.0550   41.4320 O   0  0  0  0  0  0  0  0  0  0  0  0
   19.5870  -24.2820   40.0800 C   0  0  0  0  0  0  0  0  0  0  0  0
   19.2010  -23.2250   39.2560 C   0  0  0  0  0  0  0  0  0  0  0  0
   19.1940  -23.3890   37.8680 C   0  0  0  0  0  0  0  0  0  0  0  0
   19.5710  -24.6110   37.3070 C   0  0  0  0  0  0  0  0  0  0  0  0
   19.9560  -25.6640   38.1330 C   0  0  0  0  0  0  0  0  0  0  0  0
   20.3130  -26.8330   37.5170 O   0  0  0  0  0  0  0  0  0  0  0  0
   19.9630  -25.4980   39.5200 C   0  0  0  0  0  0  0  0  0  0  0  0
   20.3600  -26.5800   40.4230 C   0  0  0  0  0  0  0  0  0  0  0  0
   20.6990  -27.6860   40.0060 O   0  0  0  0  0  0  0  0  0  0  0  0
   20.3410  -26.2990   41.8780 C   0  0  0  0  0  0  0  0  0  0  0  0
   20.7050  -27.3320   42.7220 O   0  0  0  0  0  0  0  0  0  0  0  0
   18.7890  -23.9570   44.1880 C   0  0  0  0  0  0  0  0  0  0  0  0
   18.6960  -23.5400   45.5290 C   0  0  0  0  0  0  0  0  0  0  0  0
   17.4760  -22.7750   45.9680 C   0  0  0  0  0  0  0  0  0  0  0  0
   22.7340  -23.4538   50.0797 H   0  0  0  0  0  0  0  0  0  0  0  0
   22.6643  -24.5314   48.6442 H   0  0  0  0  0  0  0  0  0  0  0  0
   21.7656  -22.9760   48.6442 H   0  0  0  0  0  0  0  0  0  0  0  0
   21.1785  -25.5245   50.1993 H   0  0  0  0  0  0  0  0  0  0  0  0
   20.4985  -23.9169   50.6835 H   0  0  0  0  0  0  0  0  0  0  0  0
   19.9488  -25.5777   48.2159 H   0  0  0  0  0  0  0  0  0  0  0  0
   18.8043  -24.7472   49.3446 H   0  0  0  0  0  0  0  0  0  0  0  0
   18.7863  -22.8984   48.0800 H   0  0  0  0  0  0  0  0  0  0  0  0
   20.5988  -22.8399   48.0739 H   0  0  0  0  0  0  0  0  0  0  0  0
   21.6580  -24.8407   46.6379 H   0  0  0  0  0  0  0  0  0  0  0  0
   21.7996  -25.5482   44.2640 H   0  0  0  0  0  0  0  0  0  0  0  0
   18.9023  -22.2631   39.6981 H   0  0  0  0  0  0  0  0  0  0  0  0
   18.8914  -22.5553   37.2173 H   0  0  0  0  0  0  0  0  0  0  0  0
   19.5639  -24.7416   36.2148 H   0  0  0  0  0  0  0  0  0  0  0  0
   19.7540  -27.5820   37.5730 H   0  0  0  0  0  0  0  0  0  0  0  0
   21.2390  -27.1580   43.4720 H   0  0  0  0  0  0  0  0  0  0  0  0
   17.9757  -23.7046   43.4916 H   0  0  0  0  0  0  0  0  0  0  0  0
   17.4351  -22.7493   47.0669 H   0  0  0  0  0  0  0  0  0  0  0  0
   17.5279  -21.7474   45.5789 H   0  0  0  0  0  0  0  0  0  0  0  0
   16.5736  -23.2693   45.5789 H   0  0  0  0  0  0  0  0  0  0  0  0
  1  2  1  0
  2  3  1  0
  3  4  1  0
  4  5  1  0
  5  6  2  0
  6  7  1  0
  7  8  2  0
  8  9  1  0
  9 10  1  0
 10 11  1  0
 11 12  2  0
 12 13  1  0
 13 14  2  0
 14 15  1  0
 15 16  1  0
 15 17  2  0
 17 18  1  0
 18 19  2  0
 18 20  1  0
 20 21  1  0
  8 22  1  0
 22 23  2  0
 23 24  1  0
 23  5  1  0
 20  9  2  0
 17 11  1  0
  1 25  1  0
  1 26  1  0
  1 27  1  0
  2 28  1  0
  2 29  1  0
  3 30  1  0
  3 31  1  0
  4 32  1  0
  4 33  1  0
  6 34  1  0
  7 35  1  0
 12 36  1  0
 13 37  1  0
 14 38  1  0
 16 39  1  0
 21 40  1  0
 22 41  1  0
 24 42  1  0
 24 43  1  0
 24 44  1  0
M  END
>  <meeko>  (9) 
{"is_sidechain": [false], "free_energy": -6.7, "intermolecular_energy": -8.745, "internal_energy": -0.442}

$$$$
