cand_022_out
     RDKit          3D

 41 43  0  0  0  0  0  0  0  0999 V2000
   23.0030  -27.7440   43.0470 C   0  0  0  0  0  0  0  0  0  0  0  0
   22.2770  -27.6000   41.7190 C   0  0  0  0  0  0  0  0  0  0  0  0
   20.8970  -26.9660   41.9040 C   0  0  0  0  0  0  0  0  0  0  0  0
   19.9760  -27.2820   40.7450 C   0  0  0  0  0  0  0  0  0  0  0  0
   20.0600  -28.5600   40.1570 C   0  0  0  0  0  0  0  0  0  0  0  0
   19.2570  -28.9250   39.0660 C   0  0  0  0  0  0  0  0  0  0  0  0
   19.3250  -30.2730   38.4660 C   0  0  0  0  0  0  0  0  0  0  0  0
   18.8750  -31.2700   39.3230 O   0  0  0  0  0  0  0  0  0  0  0  0
   18.8830  -32.5720   38.8890 C   0  0  0  0  0  0  0  0  0  0  0  0
   18.4370  -33.5420   39.7880 C   0  0  0  0  0  0  0  0  0  0  0  0
   18.4180  -34.8860   39.4100 C   0  0  0  0  0  0  0  0  0  0  0  0
   18.8450  -35.2600   38.1340 C   0  0  0  0  0  0  0  0  0  0  0  0
   19.2890  -34.2900   37.2390 C   0  0  0  0  0  0  0  0  0  0  0  0
   19.6920  -34.7250   36.0060 O   0  0  0  0  0  0  0  0  0  0  0  0
   19.3090  -32.9450   37.6190 C   0  0  0  0  0  0  0  0  0  0  0  0
   19.7690  -31.8940   36.7090 C   0  0  0  0  0  0  0  0  0  0  0  0
   20.1530  -32.1440   35.5680 O   0  0  0  0  0  0  0  0  0  0  0  0
   19.7570  -30.5010   37.2110 C   0  0  0  0  0  0  0  0  0  0  0  0
   20.1810  -29.5150   36.3380 O   0  0  0  0  0  0  0  0  0  0  0  0
   18.3430  -27.9870   38.5740 C   0  0  0  0  0  0  0  0  0  0  0  0
   18.2510  -26.7140   39.1430 C   0  0  0  0  0  0  0  0  0  0  0  0
   19.0660  -26.3430   40.2220 C   0  0  0  0  0  0  0  0  0  0  0  0
   18.9240  -24.9620   40.8010 C   0  0  0  0  0  0  0  0  0  0  0  0
   22.2895  -27.6025   43.8722 H   0  0  0  0  0  0  0  0  0  0  0  0
   23.4476  -28.7478   43.1148 H   0  0  0  0  0  0  0  0  0  0  0  0
   23.7971  -26.9859   43.1148 H   0  0  0  0  0  0  0  0  0  0  0  0
   22.8763  -26.9645   41.0504 H   0  0  0  0  0  0  0  0  0  0  0  0
   22.1426  -28.6027   41.2870 H   0  0  0  0  0  0  0  0  0  0  0  0
   20.4486  -27.3522   42.8312 H   0  0  0  0  0  0  0  0  0  0  0  0
   21.0247  -25.8745   41.9529 H   0  0  0  0  0  0  0  0  0  0  0  0
   20.7742  -29.2908   40.5643 H   0  0  0  0  0  0  0  0  0  0  0  0
   18.1008  -33.2480   40.7933 H   0  0  0  0  0  0  0  0  0  0  0  0
   18.0664  -35.6510   40.1179 H   0  0  0  0  0  0  0  0  0  0  0  0
   18.8306  -36.3189   37.8365 H   0  0  0  0  0  0  0  0  0  0  0  0
   19.5900  -34.1700   35.2580 H   0  0  0  0  0  0  0  0  0  0  0  0
   19.5530  -29.0160   35.8540 H   0  0  0  0  0  0  0  0  0  0  0  0
   17.6898  -28.2544   37.7303 H   0  0  0  0  0  0  0  0  0  0  0  0
   17.5275  -25.9912   38.7379 H   0  0  0  0  0  0  0  0  0  0  0  0
   18.9302  -25.0225   41.8993 H   0  0  0  0  0  0  0  0  0  0  0  0
   19.7624  -24.3349   40.4635 H   0  0  0  0  0  0  0  0  0  0  0  0
   17.9755  -24.5187   40.4635 H   0  0  0  0  0  0  0  0  0  0  0  0
  1  2  1  0
  2  3  1  0
  3  4  1  0
  4  5  2  0
  5  6  1  0
  6  7  1  0
  7  8  1  0
  8  9  1  0
  9 10  2  0
 10 11  1  0
 11 12  2  0
 12 13  1  0
 13 14  1  0
 13 15  2  0
 15 16  1  0
 16 17  2  0
 16 18  1  0
 18 19  1  0
  6 20  2  0
 20 21  1  0
 21 22  2  0
 22 23  1  0
 22  4  1  0
 18  7  2  0
 15  9  1  0
  1 24  1  0
  1 25  1  0
  1 26  1  0
  2 27  1  0
  2 28  1  0
  3 29  1  0
  3 30  1  0
  5 31  1  0
 10 32  1  0
 11 33  1  0
 12 34  1  0
 14 35  1  0
 19 36  1  0
 20 37  1  0
 21 38  1  0
 23 39  1  0
 23 40  1  0
 23 41  1  0
M  END
>  <meeko>  (1) 
{"is_sidechain": [false], "free_energy": -8.13, "intermolecular_energy": -10.031, "internal_energy": -0.487}

$$$$
cand_022_out
     RDKit          3D

 41 43  0  0  0  0  0  0  0  0999 V2000
   18.4200  -34.9940   39.5310 C   0  0  0  0  0  0  0  0  0  0  0  0
   18.7760  -33.5810   39.0960 C   0  0  0  0  0  0  0  0  0  0  0  0
   19.2170  -33.5420   37.6320 C   0  0  0  0  0  0  0  0  0  0  0  0
   19.4710  -32.1270   37.1610 C   0  0  0  0  0  0  0  0  0  0  0  0
   19.2840  -31.0740   38.0800 C   0  0  0  0  0  0  0  0  0  0  0  0
   19.4780  -29.7340   37.7180 C   0  0  0  0  0  0  0  0  0  0  0  0
   19.3090  -28.6320   38.6870 C   0  0  0  0  0  0  0  0  0  0  0  0
   20.2240  -28.6870   39.7320 O   0  0  0  0  0  0  0  0  0  0  0  0
   20.1780  -27.7210   40.7050 C   0  0  0  0  0  0  0  0  0  0  0  0
   21.1060  -27.8230   41.7430 C   0  0  0  0  0  0  0  0  0  0  0  0
   21.1140  -26.8710   42.7650 C   0  0  0  0  0  0  0  0  0  0  0  0
   20.1970  -25.8180   42.7500 C   0  0  0  0  0  0  0  0  0  0  0  0
   19.2740  -25.7180   41.7120 C   0  0  0  0  0  0  0  0  0  0  0  0
   18.4050  -24.6630   41.7580 O   0  0  0  0  0  0  0  0  0  0  0  0
   19.2650  -26.6720   40.6900 C   0  0  0  0  0  0  0  0  0  0  0  0
   18.3100  -26.6040   39.5820 C   0  0  0  0  0  0  0  0  0  0  0  0
   17.4770  -25.7040   39.4950 O   0  0  0  0  0  0  0  0  0  0  0  0
   18.3790  -27.6680   38.5540 C   0  0  0  0  0  0  0  0  0  0  0  0
   17.4810  -27.5870   37.5050 O   0  0  0  0  0  0  0  0  0  0  0  0
   19.8830  -29.4550   36.4080 C   0  0  0  0  0  0  0  0  0  0  0  0
   20.0680  -30.4850   35.4820 C   0  0  0  0  0  0  0  0  0  0  0  0
   19.8570  -31.8250   35.8400 C   0  0  0  0  0  0  0  0  0  0  0  0
   20.0740  -32.8970   34.8080 C   0  0  0  0  0  0  0  0  0  0  0  0
   18.4066  -35.0470   40.6296 H   0  0  0  0  0  0  0  0  0  0  0  0
   17.4270  -35.2591   39.1390 H   0  0  0  0  0  0  0  0  0  0  0  0
   19.1689  -35.6980   39.1390 H   0  0  0  0  0  0  0  0  0  0  0  0
   17.8945  -32.9351   39.2215 H   0  0  0  0  0  0  0  0  0  0  0  0
   19.6110  -33.2272   39.7185 H   0  0  0  0  0  0  0  0  0  0  0  0
   20.1431  -34.1255   37.5231 H   0  0  0  0  0  0  0  0  0  0  0  0
   18.4085  -33.9672   37.0192 H   0  0  0  0  0  0  0  0  0  0  0  0
   18.9774  -31.3108   39.1095 H   0  0  0  0  0  0  0  0  0  0  0  0
   21.8295  -28.6515   41.7560 H   0  0  0  0  0  0  0  0  0  0  0  0
   21.8444  -26.9509   43.5836 H   0  0  0  0  0  0  0  0  0  0  0  0
   20.2037  -25.0694   43.5560 H   0  0  0  0  0  0  0  0  0  0  0  0
   18.4090  -24.0240   41.0730 H   0  0  0  0  0  0  0  0  0  0  0  0
   16.6780  -27.1150   37.6110 H   0  0  0  0  0  0  0  0  0  0  0  0
   20.0578  -28.4125   36.1035 H   0  0  0  0  0  0  0  0  0  0  0  0
   20.3838  -30.2415   34.4568 H   0  0  0  0  0  0  0  0  0  0  0  0
   20.2681  -33.8560   35.3107 H   0  0  0  0  0  0  0  0  0  0  0  0
   19.1760  -32.9878   34.1792 H   0  0  0  0  0  0  0  0  0  0  0  0
   20.9366  -32.6314   34.1792 H   0  0  0  0  0  0  0  0  0  0  0  0
  1  2  1  0
  2  3  1  0
  3  4  1  0
  4  5  2  0
  5  6  1  0
  6  7  1  0
  7  8  1  0
  8  9  1  0
  9 10  2  0
 10 11  1  0
 11 12  2  0
 12 13  1  0
 13 14  1  0
 13 15  2  0
 15 16  1  0
 16 17  2  0
 16 18  1  0
 18 19  1  0
  6 20  2  0
 20 21  1  0
 21 22  2  0
 22 23  1  0
 22  4  1  0
 18  7  2  0
 15  9  1  0
  1 24  1  0
  1 25  1  0
  1 26  1  0
  2 27  1  0
  2 28  1  0
  3 29  1  0
  3 30  1  0
  5 31  1  0
 10 32  1  0
 11 33  1  0
 12 34  1  0
 14 35  1  0
 19 36  1  0
 20 37  1  0
 21 38  1  0
 23 39  1  0
 23 40  1  0
 23 41  1  0
M  END
>  <meeko>  (2) 
{"is_sidechain": [false], "free_energy": -7.668, "intermolecular_energy": -9.492, "internal_energy": -0.457}

$$$$
cand_022_out
     RDKit          3D

 41 43  0  0  0  0  0  0  0  0999 V2000
   19.7720  -30.9280   32.6690 C   0  0  0  0  0  0  0  0  0  0  0  0
   19.9210  -30.2780   34.0350 C   0  0  0  0  0  0  0  0  0  0  0  0
   20.7060  -31.1720   34.9970 C   0  0  0  0  0  0  0  0  0  0  0  0
   20.0420  -31.2540   36.3540 C   0  0  0  0  0  0  0  0  0  0  0  0
   19.9450  -30.0750   37.1210 C   0  0  0  0  0  0  0  0  0  0  0  0
   19.3630  -30.0690   38.3970 C   0  0  0  0  0  0  0  0  0  0  0  0
   19.2360  -28.8300   39.1900 C   0  0  0  0  0  0  0  0  0  0  0  0
   20.1360  -28.7710   40.2480 O   0  0  0  0  0  0  0  0  0  0  0  0
   20.1260  -27.6700   41.0670 C   0  0  0  0  0  0  0  0  0  0  0  0
   21.0360  -27.6600   42.1250 C   0  0  0  0  0  0  0  0  0  0  0  0
   21.0790  -26.5690   42.9960 C   0  0  0  0  0  0  0  0  0  0  0  0
   20.2130  -25.4890   42.8090 C   0  0  0  0  0  0  0  0  0  0  0  0
   19.3070  -25.5020   41.7520 C   0  0  0  0  0  0  0  0  0  0  0  0
   18.4890  -24.4130   41.6260 O   0  0  0  0  0  0  0  0  0  0  0  0
   19.2640  -26.5950   40.8810 C   0  0  0  0  0  0  0  0  0  0  0  0
   18.3260  -26.6480   39.7580 C   0  0  0  0  0  0  0  0  0  0  0  0
   17.5380  -25.7340   39.5250 O   0  0  0  0  0  0  0  0  0  0  0  0
   18.3550  -27.8540   38.9000 C   0  0  0  0  0  0  0  0  0  0  0  0
   17.4740  -27.8880   37.8340 O   0  0  0  0  0  0  0  0  0  0  0  0
   18.8570  -31.2730   38.8980 C   0  0  0  0  0  0  0  0  0  0  0  0
   18.9490  -32.4520   38.1530 C   0  0  0  0  0  0  0  0  0  0  0  0
   19.5470  -32.4610   36.8840 C   0  0  0  0  0  0  0  0  0  0  0  0
   19.6170  -33.7550   36.1220 C   0  0  0  0  0  0  0  0  0  0  0  0
   19.5278  -31.9932   32.7945 H   0  0  0  0  0  0  0  0  0  0  0  0
   18.9647  -30.4299   32.1120 H   0  0  0  0  0  0  0  0  0  0  0  0
   20.7156  -30.8313   32.1120 H   0  0  0  0  0  0  0  0  0  0  0  0
   20.4531  -29.3221   33.9202 H   0  0  0  0  0  0  0  0  0  0  0  0
   18.9163  -30.1182   34.4534 H   0  0  0  0  0  0  0  0  0  0  0  0
   20.7710  -32.1838   34.5704 H   0  0  0  0  0  0  0  0  0  0  0  0
   21.7066  -30.7352   35.1311 H   0  0  0  0  0  0  0  0  0  0  0  0
   20.3366  -29.1340   36.7073 H   0  0  0  0  0  0  0  0  0  0  0  0
   21.7184  -28.5100   42.2727 H   0  0  0  0  0  0  0  0  0  0  0  0
   21.7958  -26.5602   43.8304 H   0  0  0  0  0  0  0  0  0  0  0  0
   20.2468  -24.6301   43.4954 H   0  0  0  0  0  0  0  0  0  0  0  0
   18.8590  -23.5640   41.4830 H   0  0  0  0  0  0  0  0  0  0  0  0
   16.5500  -27.9100   37.9910 H   0  0  0  0  0  0  0  0  0  0  0  0
   18.3813  -31.2921   39.8896 H   0  0  0  0  0  0  0  0  0  0  0  0
   18.5462  -33.3876   38.5682 H   0  0  0  0  0  0  0  0  0  0  0  0
   19.6625  -34.5955   36.8301 H   0  0  0  0  0  0  0  0  0  0  0  0
   18.7230  -33.8567   35.4891 H   0  0  0  0  0  0  0  0  0  0  0  0
   20.5167  -33.7596   35.4891 H   0  0  0  0  0  0  0  0  0  0  0  0
  1  2  1  0
  2  3  1  0
  3  4  1  0
  4  5  2  0
  5  6  1  0
  6  7  1  0
  7  8  1  0
  8  9  1  0
  9 10  2  0
 10 11  1  0
 11 12  2  0
 12 13  1  0
 13 14  1  0
 13 15  2  0
 15 16  1  0
 16 17  2  0
 16 18  1  0
 18 19  1  0
  6 20  2  0
 20 21  1  0
 21 22  2  0
 22 23  1  0
 22  4  1  0
 18  7  2  0
 15  9  1  0
  1 24  1  0
  1 25  1  0
  1 26  1  0
  2 27  1  0
  2 28  1  0
  3 29  1  0
  3 30  1  0
  5 31  1  0
 10 32  1  0
 11 33  1  0
 12 34  1  0
 14 35  1  0
 19 36  1  0
 20 37  1  0
 21 38  1  0
 23 39  1  0
 23 40  1  0
 23 41  1  0
M  END
>  <meeko>  (3) 
{"is_sidechain": [false], "free_energy": -7.338, "intermolecular_energy": -8.963, "internal_energy": -0.578}

$$$$
cand_022_out
     RDKit          3D

 41 43  0  0  0  0  0  0  0  0999 V2000
   19.3190  -23.4300   37.6470 C   0  0  0  0  0  0  0  0  0  0  0  0
   18.5420  -24.6860   37.2860 C   0  0  0  0  0  0  0  0  0  0  0  0
   17.8130  -25.2600   38.5030 C   0  0  0  0  0  0  0  0  0  0  0  0
   18.6200  -26.3480   39.1770 C   0  0  0  0  0  0  0  0  0  0  0  0
   18.6440  -27.6260   38.5830 C   0  0  0  0  0  0  0  0  0  0  0  0
   19.3490  -28.6940   39.1550 C   0  0  0  0  0  0  0  0  0  0  0  0
   19.3970  -30.0260   38.5200 C   0  0  0  0  0  0  0  0  0  0  0  0
   18.9700  -31.0440   39.3650 O   0  0  0  0  0  0  0  0  0  0  0  0
   18.9650  -32.3340   38.8990 C   0  0  0  0  0  0  0  0  0  0  0  0
   18.5430  -33.3260   39.7860 C   0  0  0  0  0  0  0  0  0  0  0  0
   18.5110  -34.6600   39.3750 C   0  0  0  0  0  0  0  0  0  0  0  0
   18.9000  -35.0040   38.0780 C   0  0  0  0  0  0  0  0  0  0  0  0
   19.3200  -34.0120   37.1950 C   0  0  0  0  0  0  0  0  0  0  0  0
   19.6860  -34.4160   35.9410 O   0  0  0  0  0  0  0  0  0  0  0  0
   19.3520  -32.6760   37.6080 C   0  0  0  0  0  0  0  0  0  0  0  0
   19.7870  -31.6040   36.7110 C   0  0  0  0  0  0  0  0  0  0  0  0
   20.1370  -31.8250   35.5530 O   0  0  0  0  0  0  0  0  0  0  0  0
   19.7920  -30.2240   37.2480 C   0  0  0  0  0  0  0  0  0  0  0  0
   20.1920  -29.2170   36.3880 O   0  0  0  0  0  0  0  0  0  0  0  0
   20.0560  -28.4600   40.3400 C   0  0  0  0  0  0  0  0  0  0  0  0
   20.0390  -27.2010   40.9460 C   0  0  0  0  0  0  0  0  0  0  0  0
   19.3180  -26.1380   40.3820 C   0  0  0  0  0  0  0  0  0  0  0  0
   19.3370  -24.8010   41.0700 C   0  0  0  0  0  0  0  0  0  0  0  0
   19.3768  -23.3365   38.7415 H   0  0  0  0  0  0  0  0  0  0  0  0
   20.3350  -23.4949   37.2303 H   0  0  0  0  0  0  0  0  0  0  0  0
   18.8074  -22.5499   37.2303 H   0  0  0  0  0  0  0  0  0  0  0  0
   17.8029  -24.4390   36.5096 H   0  0  0  0  0  0  0  0  0  0  0  0
   19.2539  -25.4408   36.9208 H   0  0  0  0  0  0  0  0  0  0  0  0
   17.6331  -24.4502   39.2254 H   0  0  0  0  0  0  0  0  0  0  0  0
   16.8650  -25.6994   38.1591 H   0  0  0  0  0  0  0  0  0  0  0  0
   18.0942  -27.7898   37.6445 H   0  0  0  0  0  0  0  0  0  0  0  0
   18.2361  -33.0570   40.8075 H   0  0  0  0  0  0  0  0  0  0  0  0
   18.1788  -35.4418   40.0739 H   0  0  0  0  0  0  0  0  0  0  0  0
   18.8747  -36.0552   37.7551 H   0  0  0  0  0  0  0  0  0  0  0  0
   19.0300  -34.6080   35.3000 H   0  0  0  0  0  0  0  0  0  0  0  0
   20.7310  -28.5180   36.7040 H   0  0  0  0  0  0  0  0  0  0  0  0
   20.6318  -29.2768   40.7997 H   0  0  0  0  0  0  0  0  0  0  0  0
   20.5992  -27.0411   41.8790 H   0  0  0  0  0  0  0  0  0  0  0  0
   19.3349  -24.9494   42.1599 H   0  0  0  0  0  0  0  0  0  0  0  0
   20.2431  -24.2505   40.7767 H   0  0  0  0  0  0  0  0  0  0  0  0
   18.4469  -24.2250   40.7767 H   0  0  0  0  0  0  0  0  0  0  0  0
  1  2  1  0
  2  3  1  0
  3  4  1  0
  4  5  2  0
  5  6  1  0
  6  7  1  0
  7  8  1  0
  8  9  1  0
  9 10  2  0
 10 11  1  0
 11 12  2  0
 12 13  1  0
 13 14  1  0
 13 15  2  0
 15 16  1  0
 16 17  2  0
 16 18  1  0
 18 19  1  0
  6 20  2  0
 20 21  1  0
 21 22  2  0
 22 23  1  0
 22  4  1  0
 18  7  2  0
 15  9  1  0
  1 24  1  0
  1 25  1  0
  1 26  1  0
  2 27  1  0
  2 28  1  0
  3 29  1  0
  3 30  1  0
  5 31  1  0
 10 32  1  0
 11 33  1  0
 12 34  1  0
 14 35  1  0
 19 36  1  0
 20 37  1  0
 21 38  1  0
 23 39  1  0
 23 40  1  0
 23 41  1  0
M  END
>  <meeko>  (4) 
{"is_sidechain": [false], "free_energy": -7.265, "intermolecular_energy": -8.962, "internal_energy": -0.49}

$$$$
cand_022_out
     RDKit          3D

 41 43  0  0  0  0  0  0  0  0999 V2000
   19.3210  -22.2320   37.5450 C   0  0  0  0  0  0  0  0  0  0  0  0
   19.2240  -23.5340   38.3240 C   0  0  0  0  0  0  0  0  0  0  0  0
   19.3800  -24.7470   37.4040 C   0  0  0  0  0  0  0  0  0  0  0  0
   19.4370  -26.0400   38.1880 C   0  0  0  0  0  0  0  0  0  0  0  0
   20.2360  -26.0810   39.3490 C   0  0  0  0  0  0  0  0  0  0  0  0
   20.3600  -27.2460   40.1200 C   0  0  0  0  0  0  0  0  0  0  0  0
   21.1750  -27.2820   41.3510 C   0  0  0  0  0  0  0  0  0  0  0  0
   22.1670  -28.2560   41.3140 O   0  0  0  0  0  0  0  0  0  0  0  0
   22.9980  -28.3980   42.3970 C   0  0  0  0  0  0  0  0  0  0  0  0
   23.9690  -29.3970   42.3230 C   0  0  0  0  0  0  0  0  0  0  0  0
   24.8480  -29.5940   43.3900 C   0  0  0  0  0  0  0  0  0  0  0  0
   24.7580  -28.7920   44.5300 C   0  0  0  0  0  0  0  0  0  0  0  0
   23.7880  -27.7950   44.6000 C   0  0  0  0  0  0  0  0  0  0  0  0
   23.7540  -27.0460   45.7440 O   0  0  0  0  0  0  0  0  0  0  0  0
   22.9070  -27.5990   43.5320 C   0  0  0  0  0  0  0  0  0  0  0  0
   21.8730  -26.5630   43.5670 C   0  0  0  0  0  0  0  0  0  0  0  0
   21.7350  -25.8140   44.5310 O   0  0  0  0  0  0  0  0  0  0  0  0
   20.9860  -26.4430   42.3870 C   0  0  0  0  0  0  0  0  0  0  0  0
   20.0220  -25.4530   42.4250 O   0  0  0  0  0  0  0  0  0  0  0  0
   19.6520  -28.3830   39.7180 C   0  0  0  0  0  0  0  0  0  0  0  0
   18.8590  -28.3620   38.5670 C   0  0  0  0  0  0  0  0  0  0  0  0
   18.7490  -27.2010   37.7870 C   0  0  0  0  0  0  0  0  0  0  0  0
   17.8800  -27.2290   36.5600 C   0  0  0  0  0  0  0  0  0  0  0  0
   19.3839  -21.3881   38.2477 H   0  0  0  0  0  0  0  0  0  0  0  0
   20.2203  -22.2497   36.9118 H   0  0  0  0  0  0  0  0  0  0  0  0
   18.4290  -22.1162   36.9118 H   0  0  0  0  0  0  0  0  0  0  0  0
   20.0188  -23.5565   39.0841 H   0  0  0  0  0  0  0  0  0  0  0  0
   18.2316  -23.5824   38.7960 H   0  0  0  0  0  0  0  0  0  0  0  0
   18.5229  -24.7849   36.7156 H   0  0  0  0  0  0  0  0  0  0  0  0
   20.3249  -24.6390   36.8512 H   0  0  0  0  0  0  0  0  0  0  0  0
   20.7769  -25.1745   39.6585 H   0  0  0  0  0  0  0  0  0  0  0  0
   24.0421  -30.0286   41.4254 H   0  0  0  0  0  0  0  0  0  0  0  0
   25.6129  -30.3824   43.3326 H   0  0  0  0  0  0  0  0  0  0  0  0
   25.4511  -28.9473   45.3699 H   0  0  0  0  0  0  0  0  0  0  0  0
   23.3750  -27.4000   46.5240 H   0  0  0  0  0  0  0  0  0  0  0  0
   20.2540  -24.5820   42.6790 H   0  0  0  0  0  0  0  0  0  0  0  0
   19.7199  -29.3047   40.3145 H   0  0  0  0  0  0  0  0  0  0  0  0
   18.3132  -29.2691   38.2684 H   0  0  0  0  0  0  0  0  0  0  0  0
   16.8224  -27.2631   36.8604 H   0  0  0  0  0  0  0  0  0  0  0  0
   18.0621  -26.3245   35.9610 H   0  0  0  0  0  0  0  0  0  0  0  0
   18.1199  -28.1199   35.9610 H   0  0  0  0  0  0  0  0  0  0  0  0
  1  2  1  0
  2  3  1  0
  3  4  1  0
  4  5  2  0
  5  6  1  0
  6  7  1  0
  7  8  1  0
  8  9  1  0
  9 10  2  0
 10 11  1  0
 11 12  2  0
 12 13  1  0
 13 14  1  0
 13 15  2  0
 15 16  1  0
 16 17  2  0
 16 18  1  0
 18 19  1  0
  6 20  2  0
 20 21  1  0
 21 22  2  0
 22 23  1  0
 22  4  1  0
 18  7  2  0
 15  9  1  0
  1 24  1  0
  1 25  1  0
  1 26  1  0
  2 27  1  0
  2 28  1  0
  3 29  1  0
  3 30  1  0
  5 31  1  0
 10 32  1  0
 11 33  1  0
 12 34  1  0
 14 35  1  0
 19 36  1  0
 20 37  1  0
 21 38  1  0
 23 39  1  0
 23 40  1  0
 23 41  1  0
M  END
>  <meeko>  (5) 
{"is_sidechain": [false], "free_energy": -7.207, "intermolecular_energy": -8.993, "internal_energy": -0.388}

$$$$
cand_022_out
     RDKit          3D

 41 43  0  0  0  0  0  0  0  0999 V2000
   20.1080  -34.0190   33.6700 C   0  0  0  0  0  0  0  0  0  0  0  0
   19.7290  -33.2090   34.8990 C   0  0  0  0  0  0  0  0  0  0  0  0
   19.3060  -34.1160   36.0560 C   0  0  0  0  0  0  0  0  0  0  0  0
   19.2050  -33.3510   37.3580 C   0  0  0  0  0  0  0  0  0  0  0  0
   19.3920  -31.9540   37.3280 C   0  0  0  0  0  0  0  0  0  0  0  0
   19.3350  -31.1760   38.4920 C   0  0  0  0  0  0  0  0  0  0  0  0
   19.5040  -29.7090   38.4580 C   0  0  0  0  0  0  0  0  0  0  0  0
   19.5110  -29.1360   39.7250 O   0  0  0  0  0  0  0  0  0  0  0  0
   19.6610  -27.7770   39.8370 C   0  0  0  0  0  0  0  0  0  0  0  0
   19.6460  -27.2420   41.1270 C   0  0  0  0  0  0  0  0  0  0  0  0
   19.7960  -25.8670   41.3120 C   0  0  0  0  0  0  0  0  0  0  0  0
   19.9600  -25.0250   40.2100 C   0  0  0  0  0  0  0  0  0  0  0  0
   19.9740  -25.5610   38.9240 C   0  0  0  0  0  0  0  0  0  0  0  0
   20.1390  -24.6810   37.8900 O   0  0  0  0  0  0  0  0  0  0  0  0
   19.8240  -26.9380   38.7390 C   0  0  0  0  0  0  0  0  0  0  0  0
   19.8320  -27.5420   37.4050 C   0  0  0  0  0  0  0  0  0  0  0  0
   19.9790  -26.8680   36.3880 O   0  0  0  0  0  0  0  0  0  0  0  0
   19.6580  -29.0090   37.3180 C   0  0  0  0  0  0  0  0  0  0  0  0
   19.6810  -29.5700   36.0540 O   0  0  0  0  0  0  0  0  0  0  0  0
   19.0690  -31.8190   39.7060 C   0  0  0  0  0  0  0  0  0  0  0  0
   18.8860  -33.2040   39.7550 C   0  0  0  0  0  0  0  0  0  0  0  0
   18.9600  -33.9850   38.5920 C   0  0  0  0  0  0  0  0  0  0  0  0
   18.7510  -35.4700   38.6990 C   0  0  0  0  0  0  0  0  0  0  0  0
   20.5548  -34.9740   33.9837 H   0  0  0  0  0  0  0  0  0  0  0  0
   19.2082  -34.2153   33.0684 H   0  0  0  0  0  0  0  0  0  0  0  0
   20.8352  -33.4540   33.0684 H   0  0  0  0  0  0  0  0  0  0  0  0
   20.5954  -32.6085   35.2132 H   0  0  0  0  0  0  0  0  0  0  0  0
   18.8792  -32.5610   34.6383 H   0  0  0  0  0  0  0  0  0  0  0  0
   18.3249  -34.5560   35.8239 H   0  0  0  0  0  0  0  0  0  0  0  0
   20.0700  -34.8982   36.1759 H   0  0  0  0  0  0  0  0  0  0  0  0
   19.5880  -31.4612   36.3643 H   0  0  0  0  0  0  0  0  0  0  0  0
   19.5161  -27.9037   41.9961 H   0  0  0  0  0  0  0  0  0  0  0  0
   19.7850  -25.4455   42.3280 H   0  0  0  0  0  0  0  0  0  0  0  0
   20.0778  -23.9412   40.3569 H   0  0  0  0  0  0  0  0  0  0  0  0
   20.6050  -24.9450   37.1210 H   0  0  0  0  0  0  0  0  0  0  0  0
   19.5250  -29.0350   35.3010 H   0  0  0  0  0  0  0  0  0  0  0  0
   19.0032  -31.2283   40.6316 H   0  0  0  0  0  0  0  0  0  0  0  0
   18.6807  -33.6891   40.7207 H   0  0  0  0  0  0  0  0  0  0  0  0
   18.7103  -35.7591   39.7596 H   0  0  0  0  0  0  0  0  0  0  0  0
   17.8055  -35.7435   38.2079 H   0  0  0  0  0  0  0  0  0  0  0  0
   19.5843  -35.9939   38.2079 H   0  0  0  0  0  0  0  0  0  0  0  0
  1  2  1  0
  2  3  1  0
  3  4  1  0
  4  5  2  0
  5  6  1  0
  6  7  1  0
  7  8  1  0
  8  9  1  0
  9 10  2  0
 10 11  1  0
 11 12  2  0
 12 13  1  0
 13 14  1  0
 13 15  2  0
 15 16  1  0
 16 17  2  0
 16 18  1  0
 18 19  1  0
  6 20  2  0
 20 21  1  0
 21 22  2  0
 22 23  1  0
 22  4  1  0
 18  7  2  0
 15  9  1  0
  1 24  1  0
  1 25  1  0
  1 26  1  0
  2 27  1  0
  2 28  1  0
  3 29  1  0
  3 30  1  0
  5 31  1  0
 10 32  1  0
 11 33  1  0
 12 34  1  0
 14 35  1  0
 19 36  1  0
 20 37  1  0
 21 38  1  0
 23 39  1  0
 23 40  1  0
 23 41  1  0
M  END
>  <meeko>  (6) 
{"is_sidechain": [false], "free_energy": -7.079, "intermolecular_energy": -9.27, "internal_energy": 0.048}

$$$$
cand_022_out
     RDKit          3D

 41 43  0  0  0  0  0  0  0  0999 V2000
   21.4820  -24.7850   46.6910 C   0  0  0  0  0  0  0  0  0  0  0  0
   22.2230  -25.1630   45.4180 C   0  0  0  0  0  0  0  0  0  0  0  0
   22.6570  -26.6300   45.4400 C   0  0  0  0  0  0  0  0  0  0  0  0
   22.7000  -27.2210   44.0470 C   0  0  0  0  0  0  0  0  0  0  0  0
   21.7380  -26.7910   43.1100 C   0  0  0  0  0  0  0  0  0  0  0  0
   21.6960  -27.3060   41.8070 C   0  0  0  0  0  0  0  0  0  0  0  0
   20.7060  -26.8370   40.8160 C   0  0  0  0  0  0  0  0  0  0  0  0
   20.6010  -25.4510   40.7700 O   0  0  0  0  0  0  0  0  0  0  0  0
   19.7160  -24.8820   39.8900 C   0  0  0  0  0  0  0  0  0  0  0  0
   19.6330  -23.4880   39.8880 C   0  0  0  0  0  0  0  0  0  0  0  0
   18.7530  -22.8450   39.0160 C   0  0  0  0  0  0  0  0  0  0  0  0
   17.9560  -23.5930   38.1460 C   0  0  0  0  0  0  0  0  0  0  0  0
   18.0420  -24.9820   38.1500 C   0  0  0  0  0  0  0  0  0  0  0  0
   17.2350  -25.6540   37.2730 O   0  0  0  0  0  0  0  0  0  0  0  0
   18.9220  -25.6270   39.0240 C   0  0  0  0  0  0  0  0  0  0  0  0
   19.0420  -27.0860   39.0610 C   0  0  0  0  0  0  0  0  0  0  0  0
   18.3800  -27.8110   38.3210 O   0  0  0  0  0  0  0  0  0  0  0  0
   19.9990  -27.6690   40.0280 C   0  0  0  0  0  0  0  0  0  0  0  0
   20.1130  -29.0470   40.0450 O   0  0  0  0  0  0  0  0  0  0  0  0
   22.6530  -28.2570   41.4400 C   0  0  0  0  0  0  0  0  0  0  0  0
   23.6100  -28.6990   42.3570 C   0  0  0  0  0  0  0  0  0  0  0  0
   23.6410  -28.1970   43.6670 C   0  0  0  0  0  0  0  0  0  0  0  0
   24.6950  -28.7000   44.6140 C   0  0  0  0  0  0  0  0  0  0  0  0
   22.0767  -25.0884   47.5652 H   0  0  0  0  0  0  0  0  0  0  0  0
   21.3248  -23.6965   46.7143 H   0  0  0  0  0  0  0  0  0  0  0  0
   20.5085  -25.2967   46.7143 H   0  0  0  0  0  0  0  0  0  0  0  0
   21.5601  -24.9987   44.5557 H   0  0  0  0  0  0  0  0  0  0  0  0
   23.1239  -24.5363   45.3425 H   0  0  0  0  0  0  0  0  0  0  0  0
   23.6594  -26.6987   45.8877 H   0  0  0  0  0  0  0  0  0  0  0  0
   21.9223  -27.1966   46.0309 H   0  0  0  0  0  0  0  0  0  0  0  0
   21.0010  -26.0313   43.4095 H   0  0  0  0  0  0  0  0  0  0  0  0
   20.2600  -22.8977   40.5724 H   0  0  0  0  0  0  0  0  0  0  0  0
   18.6869  -21.7470   39.0138 H   0  0  0  0  0  0  0  0  0  0  0  0
   17.2623  -23.0854   37.4596 H   0  0  0  0  0  0  0  0  0  0  0  0
   16.5000  -26.1400   37.5920 H   0  0  0  0  0  0  0  0  0  0  0  0
   20.9590  -29.4480   39.9920 H   0  0  0  0  0  0  0  0  0  0  0  0
   22.6524  -28.6620   40.4173 H   0  0  0  0  0  0  0  0  0  0  0  0
   24.3501  -29.4516   42.0475 H   0  0  0  0  0  0  0  0  0  0  0  0
   24.3625  -28.5413   45.6505 H   0  0  0  0  0  0  0  0  0  0  0  0
   24.8600  -29.7739   44.4422 H   0  0  0  0  0  0  0  0  0  0  0  0
   25.6336  -28.1528   44.4422 H   0  0  0  0  0  0  0  0  0  0  0  0
  1  2  1  0
  2  3  1  0
  3  4  1  0
  4  5  2  0
  5  6  1  0
  6  7  1  0
  7  8  1  0
  8  9  1  0
  9 10  2  0
 10 11  1  0
 11 12  2  0
 12 13  1  0
 13 14  1  0
 13 15  2  0
 15 16  1  0
 16 17  2  0
 16 18  1  0
 18 19  1  0
  6 20  2  0
 20 21  1  0
 21 22  2  0
 22 23  1  0
 22  4  1  0
 18  7  2  0
 15  9  1  0
  1 24  1  0
  1 25  1  0
  1 26  1  0
  2 27  1  0
  2 28  1  0
  3 29  1  0
  3 30  1  0
  5 31  1  0
 10 32  1  0
 11 33  1  0
 12 34  1  0
 14 35  1  0
 19 36  1  0
 20 37  1  0
 21 38  1  0
 23 39  1  0
 23 40  1  0
 23 41  1  0
M  END
>  <meeko>  (7) 
{"is_sidechain": [false], "free_energy": -6.951, "intermolecular_energy": -8.786, "internal_energy": -0.278}

$$$$
cand_022_out
     RDKit          3D

 41 43  0  0  0  0  0  0  0  0999 V2000
   18.4350  -35.2850   39.1770 C   0  0  0  0  0  0  0  0  0  0  0  0
   19.3720  -34.4820   38.2900 C   0  0  0  0  0  0  0  0  0  0  0  0
   19.0690  -34.7090   36.8080 C   0  0  0  0  0  0  0  0  0  0  0  0
   19.5380  -33.5490   35.9570 C   0  0  0  0  0  0  0  0  0  0  0  0
   19.4220  -32.2460   36.4830 C   0  0  0  0  0  0  0  0  0  0  0  0
   19.8130  -31.1170   35.7500 C   0  0  0  0  0  0  0  0  0  0  0  0
   19.7180  -29.7530   36.3100 C   0  0  0  0  0  0  0  0  0  0  0  0
   19.8070  -29.7310   37.6970 O   0  0  0  0  0  0  0  0  0  0  0  0
   19.7330  -28.5250   38.3480 C   0  0  0  0  0  0  0  0  0  0  0  0
   19.8130  -28.5510   39.7410 C   0  0  0  0  0  0  0  0  0  0  0  0
   19.7460  -27.3590   40.4650 C   0  0  0  0  0  0  0  0  0  0  0  0
   19.6000  -26.1410   39.7970 C   0  0  0  0  0  0  0  0  0  0  0  0
   19.5220  -26.1180   38.4070 C   0  0  0  0  0  0  0  0  0  0  0  0
   19.3810  -24.8930   37.8160 O   0  0  0  0  0  0  0  0  0  0  0  0
   19.5880  -27.3120   37.6830 C   0  0  0  0  0  0  0  0  0  0  0  0
   19.5090  -27.3320   36.2210 C   0  0  0  0  0  0  0  0  0  0  0  0
   19.3880  -26.3010   35.5620 O   0  0  0  0  0  0  0  0  0  0  0  0
   19.5820  -28.6500   35.5500 C   0  0  0  0  0  0  0  0  0  0  0  0
   19.5190  -28.6560   34.1680 O   0  0  0  0  0  0  0  0  0  0  0  0
   20.3460  -31.3090   34.4710 C   0  0  0  0  0  0  0  0  0  0  0  0
   20.4630  -32.5930   33.9320 C   0  0  0  0  0  0  0  0  0  0  0  0
   20.0550  -33.7220   34.6580 C   0  0  0  0  0  0  0  0  0  0  0  0
   20.2070  -35.0820   34.0350 C   0  0  0  0  0  0  0  0  0  0  0  0
   18.6685  -35.0849   40.2331 H   0  0  0  0  0  0  0  0  0  0  0  0
   17.3947  -34.9937   38.9699 H   0  0  0  0  0  0  0  0  0  0  0  0
   18.5636  -36.3577   38.9699 H   0  0  0  0  0  0  0  0  0  0  0  0
   19.2537  -33.4128   38.5198 H   0  0  0  0  0  0  0  0  0  0  0  0
   20.4027  -34.8119   38.4871 H   0  0  0  0  0  0  0  0  0  0  0  0
   19.5803  -35.6245   36.4757 H   0  0  0  0  0  0  0  0  0  0  0  0
   17.9792  -34.8016   36.6910 H   0  0  0  0  0  0  0  0  0  0  0  0
   19.0138  -32.1118   37.4956 H   0  0  0  0  0  0  0  0  0  0  0  0
   19.9287  -29.5096   40.2681 H   0  0  0  0  0  0  0  0  0  0  0  0
   19.8083  -27.3791   41.5631 H   0  0  0  0  0  0  0  0  0  0  0  0
   19.5468  -25.2022   40.3677 H   0  0  0  0  0  0  0  0  0  0  0  0
   19.8420  -24.6990   37.0240 H   0  0  0  0  0  0  0  0  0  0  0  0
   18.8360  -29.1270   33.7320 H   0  0  0  0  0  0  0  0  0  0  0  0
   20.6766  -30.4400   33.8832 H   0  0  0  0  0  0  0  0  0  0  0  0
   20.8815  -32.7205   32.9227 H   0  0  0  0  0  0  0  0  0  0  0  0
   20.2918  -35.8407   34.8270 H   0  0  0  0  0  0  0  0  0  0  0  0
   19.3276  -35.2999   33.4111 H   0  0  0  0  0  0  0  0  0  0  0  0
   21.1128  -35.1004   33.4111 H   0  0  0  0  0  0  0  0  0  0  0  0
  1  2  1  0
  2  3  1  0
  3  4  1  0
  4  5  2  0
  5  6  1  0
  6  7  1  0
  7  8  1  0
  8  9  1  0
  9 10  2  0
 10 11  1  0
 11 12  2  0
 12 13  1  0
 13 14  1  0
 13 15  2  0
 15 16  1  0
 16 17  2  0
 16 18  1  0
 18 19  1  0
  6 20  2  0
 20 21  1  0
 21 22  2  0
 22 23  1  0
 22  4  1  0
 18  7  2  0
 15  9  1  0
  1 24  1  0
  1 25  1  0
  1 26  1  0
  2 27  1  0
  2 28  1  0
  3 29  1  0
  3 30  1  0
  5 31  1  0
 10 32  1  0
 11 33  1  0
 12 34  1  0
 14 35  1  0
 19 36  1  0
 20 37  1  0
 21 38  1  0
 23 39  1  0
 23 40  1  0
 23 41  1  0
M  END
>  <meeko>  (8) 
{"is_sidechain": [false], "free_energy": -6.936, "intermolecular_energy": -9.001, "internal_energy": -0.045}

$$$$
cand_022_out
     RDKit          3D

 41 43  0  0  0  0  0  0  0  0999 V2000
   23.7260  -28.5750   43.0450 C   0  0  0  0  0  0  0  0  0  0  0  0
   22.8980  -27.4150   42.5170 C   0  0  0  0  0  0  0  0  0  0  0  0
   21.4150  -27.5900   42.8480 C   0  0  0  0  0  0  0  0  0  0  0  0
   20.5280  -27.0040   41.7710 C   0  0  0  0  0  0  0  0  0  0  0  0
   20.5330  -27.6110   40.4990 C   0  0  0  0  0  0  0  0  0  0  0  0
   19.7560  -27.1160   39.4420 C   0  0  0  0  0  0  0  0  0  0  0  0
   19.7390  -27.7680   38.1160 C   0  0  0  0  0  0  0  0  0  0  0  0
   19.8840  -29.1480   38.1900 O   0  0  0  0  0  0  0  0  0  0  0  0
   19.8860  -29.8780   37.0280 C   0  0  0  0  0  0  0  0  0  0  0  0
   20.0480  -31.2590   37.1480 C   0  0  0  0  0  0  0  0  0  0  0  0
   20.0580  -32.0610   36.0050 C   0  0  0  0  0  0  0  0  0  0  0  0
   19.9040  -31.4840   34.7430 C   0  0  0  0  0  0  0  0  0  0  0  0
   19.7410  -30.1060   34.6260 C   0  0  0  0  0  0  0  0  0  0  0  0
   19.5950  -29.6060   33.3620 O   0  0  0  0  0  0  0  0  0  0  0  0
   19.7330  -29.3030   35.7710 C   0  0  0  0  0  0  0  0  0  0  0  0
   19.5650  -27.8510   35.6920 C   0  0  0  0  0  0  0  0  0  0  0  0
   19.4160  -27.2710   34.6180 O   0  0  0  0  0  0  0  0  0  0  0  0
   19.5780  -27.0910   36.9630 C   0  0  0  0  0  0  0  0  0  0  0  0
   19.4060  -25.7210   36.8780 O   0  0  0  0  0  0  0  0  0  0  0  0
   18.9480  -25.9990   39.6800 C   0  0  0  0  0  0  0  0  0  0  0  0
   18.9350  -25.3820   40.9340 C   0  0  0  0  0  0  0  0  0  0  0  0
   19.7260  -25.8660   41.9860 C   0  0  0  0  0  0  0  0  0  0  0  0
   19.6720  -25.1690   43.3180 C   0  0  0  0  0  0  0  0  0  0  0  0
   23.7164  -28.5616   44.1449 H   0  0  0  0  0  0  0  0  0  0  0  0
   23.2994  -29.5233   42.6861 H   0  0  0  0  0  0  0  0  0  0  0  0
   24.7614  -28.4797   42.6861 H   0  0  0  0  0  0  0  0  0  0  0  0
   23.2586  -26.4813   42.9733 H   0  0  0  0  0  0  0  0  0  0  0  0
   23.0065  -27.3828   41.4228 H   0  0  0  0  0  0  0  0  0  0  0  0
   21.1958  -28.6635   42.9453 H   0  0  0  0  0  0  0  0  0  0  0  0
   21.2087  -27.0586   43.7888 H   0  0  0  0  0  0  0  0  0  0  0  0
   21.1633  -28.4967   40.3310 H   0  0  0  0  0  0  0  0  0  0  0  0
   20.1677  -31.7151   38.1418 H   0  0  0  0  0  0  0  0  0  0  0  0
   20.1874  -33.1493   36.0990 H   0  0  0  0  0  0  0  0  0  0  0  0
   19.9114  -32.1165   33.8431 H   0  0  0  0  0  0  0  0  0  0  0  0
   20.3160  -29.6250   32.7640 H   0  0  0  0  0  0  0  0  0  0  0  0
   19.6610  -25.2650   36.1000 H   0  0  0  0  0  0  0  0  0  0  0  0
   18.3163  -25.6022   38.8717 H   0  0  0  0  0  0  0  0  0  0  0  0
   18.2943  -24.5031   41.0983 H   0  0  0  0  0  0  0  0  0  0  0  0
   19.7298  -25.9147   44.1246 H   0  0  0  0  0  0  0  0  0  0  0  0
   20.5188  -24.4720   43.4017 H   0  0  0  0  0  0  0  0  0  0  0  0
   18.7279  -24.6107   43.4017 H   0  0  0  0  0  0  0  0  0  0  0  0
  1  2  1  0
  2  3  1  0
  3  4  1  0
  4  5  2  0
  5  6  1  0
  6  7  1  0
  7  8  1  0
  8  9  1  0
  9 10  2  0
 10 11  1  0
 11 12  2  0
 12 13  1  0
 13 14  1  0
 13 15  2  0
 15 16  1  0
 16 17  2  0
 16 18  1  0
 18 19  1  0
  6 20  2  0
 20 21  1  0
 21 22  2  0
 22 23  1  0
 22  4  1  0
 18  7  2  0
 15  9  1  0
  1 24  1  0
  1 25  1  0
  1 26  1  0
  2 27  1  0
  2 28  1  0
  3 29  1  0
  3 30  1  0
  5 31  1  0
 10 32  1  0
 11 33  1  0
 12 34  1  0
 14 35  1  0
 19 36  1  0
 20 37  1  0
 21 38  1  0
 23 39  1  0
 23 40  1  0
 23 41  1  0
M  END
>  <meeko>  (9) 
{"is_sidechain": [false], "free_energy": -6.931, "intermolecular_energy": -8.91, "internal_energy": -0.129}

$$$$
