cand_026_out
     RDKit          3D

 41 43  0  0  0  0  0  0  0  0999 V2000
   21.3140  -27.1920   41.8200 C   0  0  0  0  0  0  0  0  0  0  0  0
   20.4720  -27.3280   40.5800 C   0  0  0  0  0  0  0  0  0  0  0  0
   20.3580  -28.6010   39.9860 C   0  0  0  0  0  0  0  0  0  0  0  0
   19.5990  -28.8120   38.8260 C   0  0  0  0  0  0  0  0  0  0  0  0
   19.4870  -30.1710   38.2560 C   0  0  0  0  0  0  0  0  0  0  0  0
   19.0970  -31.1200   39.1940 O   0  0  0  0  0  0  0  0  0  0  0  0
   18.9530  -32.4250   38.7980 C   0  0  0  0  0  0  0  0  0  0  0  0
   18.5460  -33.3410   39.7690 C   0  0  0  0  0  0  0  0  0  0  0  0
   18.3830  -34.6870   39.4330 C   0  0  0  0  0  0  0  0  0  0  0  0
   18.6270  -35.1160   38.1270 C   0  0  0  0  0  0  0  0  0  0  0  0
   19.0330  -34.2000   37.1590 C   0  0  0  0  0  0  0  0  0  0  0  0
   19.2540  -34.6880   35.9010 O   0  0  0  0  0  0  0  0  0  0  0  0
   19.1950  -32.8530   37.4960 C   0  0  0  0  0  0  0  0  0  0  0  0
   19.6200  -31.8580   36.5110 C   0  0  0  0  0  0  0  0  0  0  0  0
   19.8600  -32.1600   35.3440 O   0  0  0  0  0  0  0  0  0  0  0  0
   19.7560  -30.4560   36.9680 C   0  0  0  0  0  0  0  0  0  0  0  0
   20.1700  -29.5270   36.0320 O   0  0  0  0  0  0  0  0  0  0  0  0
   18.9310  -27.7210   38.2660 C   0  0  0  0  0  0  0  0  0  0  0  0
   19.0350  -26.4510   38.8410 C   0  0  0  0  0  0  0  0  0  0  0  0
   19.8020  -26.2290   40.0000 C   0  0  0  0  0  0  0  0  0  0  0  0
   19.8840  -24.8240   40.5870 C   0  0  0  0  0  0  0  0  0  0  0  0
   19.0900  -24.7140   41.8930 C   0  0  0  0  0  0  0  0  0  0  0  0
   19.4280  -23.7640   39.5790 C   0  0  0  0  0  0  0  0  0  0  0  0
   20.6756  -27.2951   42.7098 H   0  0  0  0  0  0  0  0  0  0  0  0
   22.0841  -27.9774   41.8282 H   0  0  0  0  0  0  0  0  0  0  0  0
   21.7977  -26.2041   41.8282 H   0  0  0  0  0  0  0  0  0  0  0  0
   20.8794  -29.4536   40.4456 H   0  0  0  0  0  0  0  0  0  0  0  0
   18.3537  -33.0033   40.7981 H   0  0  0  0  0  0  0  0  0  0  0  0
   18.0622  -35.4095   40.1979 H   0  0  0  0  0  0  0  0  0  0  0  0
   18.4988  -36.1760   37.8626 H   0  0  0  0  0  0  0  0  0  0  0  0
   19.1640  -34.1230   35.1580 H   0  0  0  0  0  0  0  0  0  0  0  0
   21.0780  -29.4570   35.8100 H   0  0  0  0  0  0  0  0  0  0  0  0
   18.3173  -27.8622   37.3641 H   0  0  0  0  0  0  0  0  0  0  0  0
   18.5053  -25.6059   38.3770 H   0  0  0  0  0  0  0  0  0  0  0  0
   20.9420  -24.6320   40.8189 H   0  0  0  0  0  0  0  0  0  0  0  0
   19.7755  -24.8090   42.7480 H   0  0  0  0  0  0  0  0  0  0  0  0
   18.5855  -23.7374   41.9343 H   0  0  0  0  0  0  0  0  0  0  0  0
   18.3390  -25.5167   41.9343 H   0  0  0  0  0  0  0  0  0  0  0  0
   19.0493  -22.8836   40.1188 H   0  0  0  0  0  0  0  0  0  0  0  0
   20.2787  -23.4688   38.9472 H   0  0  0  0  0  0  0  0  0  0  0  0
   18.6286  -24.1786   38.9472 H   0  0  0  0  0  0  0  0  0  0  0  0
  1  2  1  0
  2  3  2  0
  3  4  1  0
  4  5  1  0
  5  6  1  0
  6  7  1  0
  7  8  2  0
  8  9  1  0
  9 10  2  0
 10 11  1  0
 11 12  1  0
 11 13  2  0
 13 14  1  0
 14 15  2  0
 14 16  1  0
 16 17  1  0
  4 18  2  0
 18 19  1  0
 19 20  2  0
 20 21  1  0
 21 22  1  0
 21 23  1  0
 20  2  1  0
 16  5  2  0
 13  7  1  0
  1 24  1  0
  1 25  1  0
  1 26  1  0
  3 27  1  0
  8 28  1  0
  9 29  1  0
 10 30  1  0
 12 31  1  0
 17 32  1  0
 18 33  1  0
 19 34  1  0
 21 35  1  0
 22 36  1  0
 22 37  1  0
 22 38  1  0
 23 39  1  0
 23 40  1  0
 23 41  1  0
M  END
>  <meeko>  (1) 
{"is_sidechain": [false], "free_energy": -7.796, "intermolecular_energy": -9.163, "internal_energy": -0.202}

$$$$
cand_026_out
     RDKit          3D

 41 43  0  0  0  0  0  0  0  0999 V2000
   18.7380  -33.7800   39.2900 C   0  0  0  0  0  0  0  0  0  0  0  0
   19.1020  -32.5320   38.5320 C   0  0  0  0  0  0  0  0  0  0  0  0
   18.9970  -31.2930   39.1960 C   0  0  0  0  0  0  0  0  0  0  0  0
   19.3100  -30.0830   38.5590 C   0  0  0  0  0  0  0  0  0  0  0  0
   19.2100  -28.8110   39.3060 C   0  0  0  0  0  0  0  0  0  0  0  0
   20.0810  -28.7490   40.3880 O   0  0  0  0  0  0  0  0  0  0  0  0
   20.0920  -27.6220   41.1680 C   0  0  0  0  0  0  0  0  0  0  0  0
   20.9920  -27.5980   42.2340 C   0  0  0  0  0  0  0  0  0  0  0  0
   21.0530  -26.4800   43.0690 C   0  0  0  0  0  0  0  0  0  0  0  0
   20.2150  -25.3870   42.8370 C   0  0  0  0  0  0  0  0  0  0  0  0
   19.3190  -25.4130   41.7720 C   0  0  0  0  0  0  0  0  0  0  0  0
   18.5280  -24.3100   41.6030 O   0  0  0  0  0  0  0  0  0  0  0  0
   19.2590  -26.5320   40.9370 C   0  0  0  0  0  0  0  0  0  0  0  0
   18.3310  -26.6000   39.8070 C   0  0  0  0  0  0  0  0  0  0  0  0
   17.5580  -25.6820   39.5430 O   0  0  0  0  0  0  0  0  0  0  0  0
   18.3500  -27.8280   38.9780 C   0  0  0  0  0  0  0  0  0  0  0  0
   17.4620  -27.8870   37.9210 O   0  0  0  0  0  0  0  0  0  0  0  0
   19.7510  -30.1280   37.2360 C   0  0  0  0  0  0  0  0  0  0  0  0
   19.8590  -31.3480   36.5620 C   0  0  0  0  0  0  0  0  0  0  0  0
   19.5390  -32.5660   37.1910 C   0  0  0  0  0  0  0  0  0  0  0  0
   19.6720  -33.8690   36.4120 C   0  0  0  0  0  0  0  0  0  0  0  0
   19.7830  -33.6150   34.9050 C   0  0  0  0  0  0  0  0  0  0  0  0
   18.5200  -34.8320   36.7190 C   0  0  0  0  0  0  0  0  0  0  0  0
   18.7956  -33.5826   40.3706 H   0  0  0  0  0  0  0  0  0  0  0  0
   17.7140  -34.0834   39.0267 H   0  0  0  0  0  0  0  0  0  0  0  0
   19.4384  -34.5863   39.0267 H   0  0  0  0  0  0  0  0  0  0  0  0
   18.6602  -31.2744   40.2430 H   0  0  0  0  0  0  0  0  0  0  0  0
   21.6526  -28.4584   42.4165 H   0  0  0  0  0  0  0  0  0  0  0  0
   21.7617  -26.4603   43.9101 H   0  0  0  0  0  0  0  0  0  0  0  0
   20.2630  -24.5068   43.4950 H   0  0  0  0  0  0  0  0  0  0  0  0
   18.4960  -23.6500   42.2670 H   0  0  0  0  0  0  0  0  0  0  0  0
   16.5540  -27.6960   38.0600 H   0  0  0  0  0  0  0  0  0  0  0  0
   20.0163  -29.1944   36.7183 H   0  0  0  0  0  0  0  0  0  0  0  0
   20.2017  -31.3564   35.5168 H   0  0  0  0  0  0  0  0  0  0  0  0
   20.6057  -34.3470   36.7433 H   0  0  0  0  0  0  0  0  0  0  0  0
   20.2180  -32.6196   34.7320 H   0  0  0  0  0  0  0  0  0  0  0  0
   20.4283  -34.3812   34.4506 H   0  0  0  0  0  0  0  0  0  0  0  0
   18.7824  -33.6619   34.4506 H   0  0  0  0  0  0  0  0  0  0  0  0
   18.4038  -34.9292   37.8085 H   0  0  0  0  0  0  0  0  0  0  0  0
   17.5886  -34.4399   36.2844 H   0  0  0  0  0  0  0  0  0  0  0  0
   18.7407  -35.8181   36.2844 H   0  0  0  0  0  0  0  0  0  0  0  0
  1  2  1  0
  2  3  2  0
  3  4  1  0
  4  5  1  0
  5  6  1  0
  6  7  1  0
  7  8  2  0
  8  9  1  0
  9 10  2  0
 10 11  1  0
 11 12  1  0
 11 13  2  0
 13 14  1  0
 14 15  2  0
 14 16  1  0
 16 17  1  0
  4 18  2  0
 18 19  1  0
 19 20  2  0
 20 21  1  0
 21 22  1  0
 21 23  1  0
 20  2  1  0
 16  5  2  0
 13  7  1  0
  1 24  1  0
  1 25  1  0
  1 26  1  0
  3 27  1  0
  8 28  1  0
  9 29  1  0
 10 30  1  0
 12 31  1  0
 17 32  1  0
 18 33  1  0
 19 34  1  0
 21 35  1  0
 22 36  1  0
 22 37  1  0
 22 38  1  0
 23 39  1  0
 23 40  1  0
 23 41  1  0
M  END
>  <meeko>  (2) 
{"is_sidechain": [false], "free_energy": -7.454, "intermolecular_energy": -9.344, "internal_energy": 0.381}

$$$$
cand_026_out
     RDKit          3D

 41 43  0  0  0  0  0  0  0  0999 V2000
   17.5950  -25.4030   38.6070 C   0  0  0  0  0  0  0  0  0  0  0  0
   18.4510  -26.4510   39.2650 C   0  0  0  0  0  0  0  0  0  0  0  0
   18.5130  -27.7300   38.6760 C   0  0  0  0  0  0  0  0  0  0  0  0
   19.2820  -28.7640   39.2300 C   0  0  0  0  0  0  0  0  0  0  0  0
   19.3370  -30.0800   38.5600 C   0  0  0  0  0  0  0  0  0  0  0  0
   18.9450  -31.1260   39.3890 O   0  0  0  0  0  0  0  0  0  0  0  0
   18.9480  -32.4040   38.8920 C   0  0  0  0  0  0  0  0  0  0  0  0
   18.5330  -33.4190   39.7540 C   0  0  0  0  0  0  0  0  0  0  0  0
   18.5150  -34.7440   39.3130 C   0  0  0  0  0  0  0  0  0  0  0  0
   18.9120  -35.0520   38.0090 C   0  0  0  0  0  0  0  0  0  0  0  0
   19.3260  -34.0370   37.1510 C   0  0  0  0  0  0  0  0  0  0  0  0
   19.7010  -34.4090   35.8900 O   0  0  0  0  0  0  0  0  0  0  0  0
   19.3420  -32.7110   37.5940 C   0  0  0  0  0  0  0  0  0  0  0  0
   19.7710  -31.6140   36.7250 C   0  0  0  0  0  0  0  0  0  0  0  0
   20.1410  -31.8070   35.5680 O   0  0  0  0  0  0  0  0  0  0  0  0
   19.7450  -30.2440   37.2870 C   0  0  0  0  0  0  0  0  0  0  0  0
   20.1630  -29.2180   36.4620 O   0  0  0  0  0  0  0  0  0  0  0  0
   20.0110  -28.4960   40.3900 C   0  0  0  0  0  0  0  0  0  0  0  0
   19.9590  -27.2330   40.9880 C   0  0  0  0  0  0  0  0  0  0  0  0
   19.1830  -26.1930   40.4440 C   0  0  0  0  0  0  0  0  0  0  0  0
   19.1590  -24.8350   41.1350 C   0  0  0  0  0  0  0  0  0  0  0  0
   20.0220  -23.8100   40.3920 C   0  0  0  0  0  0  0  0  0  0  0  0
   19.5840  -24.9420   42.6040 C   0  0  0  0  0  0  0  0  0  0  0  0
   17.0995  -24.7964   39.3793 H   0  0  0  0  0  0  0  0  0  0  0  0
   18.2255  -24.7551   37.9803 H   0  0  0  0  0  0  0  0  0  0  0  0
   16.8343  -25.8914   37.9803 H   0  0  0  0  0  0  0  0  0  0  0  0
   17.9421  -27.9228   37.7557 H   0  0  0  0  0  0  0  0  0  0  0  0
   18.2202  -33.1761   40.7802 H   0  0  0  0  0  0  0  0  0  0  0  0
   18.1883  -35.5453   39.9921 H   0  0  0  0  0  0  0  0  0  0  0  0
   18.8974  -36.0954   37.6609 H   0  0  0  0  0  0  0  0  0  0  0  0
   19.1610  -34.1880   35.1560 H   0  0  0  0  0  0  0  0  0  0  0  0
   20.0760  -28.3270   36.7400 H   0  0  0  0  0  0  0  0  0  0  0  0
   20.6321  -29.2857   40.8378 H   0  0  0  0  0  0  0  0  0  0  0  0
   20.5381  -27.0483   41.9048 H   0  0  0  0  0  0  0  0  0  0  0  0
   18.1181  -24.4801   41.1108 H   0  0  0  0  0  0  0  0  0  0  0  0
   20.5524  -23.1800   41.1212 H   0  0  0  0  0  0  0  0  0  0  0  0
   20.7536  -24.3355   39.7607 H   0  0  0  0  0  0  0  0  0  0  0  0
   19.3795  -23.1786   39.7607 H   0  0  0  0  0  0  0  0  0  0  0  0
   18.7219  -24.7250   43.2519 H   0  0  0  0  0  0  0  0  0  0  0  0
   19.9482  -25.9599   42.8071 H   0  0  0  0  0  0  0  0  0  0  0  0
   20.3868  -24.2179   42.8071 H   0  0  0  0  0  0  0  0  0  0  0  0
  1  2  1  0
  2  3  2  0
  3  4  1  0
  4  5  1  0
  5  6  1  0
  6  7  1  0
  7  8  2  0
  8  9  1  0
  9 10  2  0
 10 11  1  0
 11 12  1  0
 11 13  2  0
 13 14  1  0
 14 15  2  0
 14 16  1  0
 16 17  1  0
  4 18  2  0
 18 19  1  0
 19 20  2  0
 20 21  1  0
 21 22  1  0
 21 23  1  0
 20  2  1  0
 16  5  2  0
 13  7  1  0
  1 24  1  0
  1 25  1  0
  1 26  1  0
  3 27  1  0
  8 28  1  0
  9 29  1  0
 10 30  1  0
 12 31  1  0
 17 32  1  0
 18 33  1  0
 19 34  1  0
 21 35  1  0
 22 36  1  0
 22 37  1  0
 22 38  1  0
 23 39  1  0
 23 40  1  0
 23 41  1  0
M  END
>  <meeko>  (3) 
{"is_sidechain": [false], "free_energy": -7.43, "intermolecular_energy": -8.672, "internal_energy": -0.262}

$$$$
cand_026_out
     RDKit          3D

 41 43  0  0  0  0  0  0  0  0999 V2000
   18.2060  -23.0840   46.6210 C   0  0  0  0  0  0  0  0  0  0  0  0
   19.3720  -23.8720   46.0880 C   0  0  0  0  0  0  0  0  0  0  0  0
   19.3650  -24.2390   44.7280 C   0  0  0  0  0  0  0  0  0  0  0  0
   20.4090  -24.9790   44.1540 C   0  0  0  0  0  0  0  0  0  0  0  0
   20.3690  -25.3170   42.7160 C   0  0  0  0  0  0  0  0  0  0  0  0
   19.9220  -24.2640   41.9250 O   0  0  0  0  0  0  0  0  0  0  0  0
   19.8370  -24.4420   40.5690 C   0  0  0  0  0  0  0  0  0  0  0  0
   19.3970  -23.3550   39.8130 C   0  0  0  0  0  0  0  0  0  0  0  0
   19.2850  -23.4700   38.4250 C   0  0  0  0  0  0  0  0  0  0  0  0
   19.6130  -24.6720   37.7950 C   0  0  0  0  0  0  0  0  0  0  0  0
   20.0510  -25.7560   38.5510 C   0  0  0  0  0  0  0  0  0  0  0  0
   20.3550  -26.9030   37.8700 O   0  0  0  0  0  0  0  0  0  0  0  0
   20.1640  -25.6400   39.9390 C   0  0  0  0  0  0  0  0  0  0  0  0
   20.6200  -26.7540   40.7710 C   0  0  0  0  0  0  0  0  0  0  0  0
   20.9200  -27.8450   40.2910 O   0  0  0  0  0  0  0  0  0  0  0  0
   20.7120  -26.5260   42.2320 C   0  0  0  0  0  0  0  0  0  0  0  0
   21.1320  -27.5890   43.0090 O   0  0  0  0  0  0  0  0  0  0  0  0
   21.4870  -25.3380   44.9660 C   0  0  0  0  0  0  0  0  0  0  0  0
   21.5100  -24.9830   46.3180 C   0  0  0  0  0  0  0  0  0  0  0  0
   20.4610  -24.2490   46.9030 C   0  0  0  0  0  0  0  0  0  0  0  0
   20.5330  -23.8880   48.3830 C   0  0  0  0  0  0  0  0  0  0  0  0
   21.9430  -23.4430   48.7840 C   0  0  0  0  0  0  0  0  0  0  0  0
   20.0530  -25.0420   49.2690 C   0  0  0  0  0  0  0  0  0  0  0  0
   18.2262  -23.0977   47.7207 H   0  0  0  0  0  0  0  0  0  0  0  0
   18.2726  -22.0450   46.2659 H   0  0  0  0  0  0  0  0  0  0  0  0
   17.2668  -23.5333   46.2659 H   0  0  0  0  0  0  0  0  0  0  0  0
   18.5158  -23.9363   44.0977 H   0  0  0  0  0  0  0  0  0  0  0  0
   19.1384  -22.4080   40.3094 H   0  0  0  0  0  0  0  0  0  0  0  0
   18.9383  -22.6133   37.8285 H   0  0  0  0  0  0  0  0  0  0  0  0
   19.5254  -24.7625   36.7022 H   0  0  0  0  0  0  0  0  0  0  0  0
   20.9720  -27.5100   38.2280 H   0  0  0  0  0  0  0  0  0  0  0  0
   21.3790  -27.4480   43.9020 H   0  0  0  0  0  0  0  0  0  0  0  0
   22.3262  -25.9056   44.5376 H   0  0  0  0  0  0  0  0  0  0  0  0
   22.3670  -25.2840   46.9385 H   0  0  0  0  0  0  0  0  0  0  0  0
   19.8528  -23.0382   48.5414 H   0  0  0  0  0  0  0  0  0  0  0  0
   22.0216  -23.4182   49.8809 H   0  0  0  0  0  0  0  0  0  0  0  0
   22.6802  -24.1521   48.3795 H   0  0  0  0  0  0  0  0  0  0  0  0
   22.1396  -22.4391   48.3795 H   0  0  0  0  0  0  0  0  0  0  0  0
   20.1685  -24.7644   50.3271 H   0  0  0  0  0  0  0  0  0  0  0  0
   18.9937  -25.2501   49.0580 H   0  0  0  0  0  0  0  0  0  0  0  0
   20.6522  -25.9400   49.0580 H   0  0  0  0  0  0  0  0  0  0  0  0
  1  2  1  0
  2  3  2  0
  3  4  1  0
  4  5  1  0
  5  6  1  0
  6  7  1  0
  7  8  2  0
  8  9  1  0
  9 10  2  0
 10 11  1  0
 11 12  1  0
 11 13  2  0
 13 14  1  0
 14 15  2  0
 14 16  1  0
 16 17  1  0
  4 18  2  0
 18 19  1  0
 19 20  2  0
 20 21  1  0
 21 22  1  0
 21 23  1  0
 20  2  1  0
 16  5  2  0
 13  7  1  0
  1 24  1  0
  1 25  1  0
  1 26  1  0
  3 27  1  0
  8 28  1  0
  9 29  1  0
 10 30  1  0
 12 31  1  0
 17 32  1  0
 18 33  1  0
 19 34  1  0
 21 35  1  0
 22 36  1  0
 22 37  1  0
 22 38  1  0
 23 39  1  0
 23 40  1  0
 23 41  1  0
M  END
>  <meeko>  (4) 
{"is_sidechain": [false], "free_energy": -7.244, "intermolecular_energy": -8.409, "internal_energy": -0.308}

$$$$
cand_026_out
     RDKit          3D

 41 43  0  0  0  0  0  0  0  0999 V2000
   18.3410  -33.6160   39.7270 C   0  0  0  0  0  0  0  0  0  0  0  0
   18.8520  -32.6800   38.6650 C   0  0  0  0  0  0  0  0  0  0  0  0
   18.9270  -31.3050   38.9650 C   0  0  0  0  0  0  0  0  0  0  0  0
   19.3860  -30.3660   38.0300 C   0  0  0  0  0  0  0  0  0  0  0  0
   19.4720  -28.9380   38.4010 C   0  0  0  0  0  0  0  0  0  0  0  0
   19.6760  -28.7450   39.7630 O   0  0  0  0  0  0  0  0  0  0  0  0
   19.7760  -27.4650   40.2440 C   0  0  0  0  0  0  0  0  0  0  0  0
   19.9950  -27.3190   41.6140 C   0  0  0  0  0  0  0  0  0  0  0  0
   20.1040  -26.0420   42.1700 C   0  0  0  0  0  0  0  0  0  0  0  0
   19.9940  -24.9130   41.3560 C   0  0  0  0  0  0  0  0  0  0  0  0
   19.7750  -25.0610   39.9890 C   0  0  0  0  0  0  0  0  0  0  0  0
   19.6770  -23.9140   39.2500 O   0  0  0  0  0  0  0  0  0  0  0  0
   19.6670  -26.3390   39.4330 C   0  0  0  0  0  0  0  0  0  0  0  0
   19.4370  -26.5400   38.0020 C   0  0  0  0  0  0  0  0  0  0  0  0
   19.3210  -25.5970   37.2230 O   0  0  0  0  0  0  0  0  0  0  0  0
   19.3440  -27.9350   37.5120 C   0  0  0  0  0  0  0  0  0  0  0  0
   19.1140  -28.1130   36.1610 O   0  0  0  0  0  0  0  0  0  0  0  0
   19.7900  -30.8270   36.7760 C   0  0  0  0  0  0  0  0  0  0  0  0
   19.7210  -32.1880   36.4610 C   0  0  0  0  0  0  0  0  0  0  0  0
   19.2540  -33.1350   37.3910 C   0  0  0  0  0  0  0  0  0  0  0  0
   19.1970  -34.6070   36.9970 C   0  0  0  0  0  0  0  0  0  0  0  0
   20.0570  -35.4700   37.9250 C   0  0  0  0  0  0  0  0  0  0  0  0
   19.5960  -34.8150   35.5320 C   0  0  0  0  0  0  0  0  0  0  0  0
   18.5672  -33.2017   40.7206 H   0  0  0  0  0  0  0  0  0  0  0  0
   17.2529  -33.7348   39.6183 H   0  0  0  0  0  0  0  0  0  0  0  0
   18.8295  -34.5956   39.6183 H   0  0  0  0  0  0  0  0  0  0  0  0
   18.6164  -30.9582   39.9616 H   0  0  0  0  0  0  0  0  0  0  0  0
   20.0818  -28.2082   42.2557 H   0  0  0  0  0  0  0  0  0  0  0  0
   20.2767  -25.9259   43.2501 H   0  0  0  0  0  0  0  0  0  0  0  0
   20.0803  -23.9077   41.7942 H   0  0  0  0  0  0  0  0  0  0  0  0
   19.1090  -23.2240   39.5320 H   0  0  0  0  0  0  0  0  0  0  0  0
   19.3310  -28.9270   35.7510 H   0  0  0  0  0  0  0  0  0  0  0  0
   20.1662  -30.1132   36.0284 H   0  0  0  0  0  0  0  0  0  0  0  0
   20.0390  -32.5257   35.4636 H   0  0  0  0  0  0  0  0  0  0  0  0
   18.1516  -34.9307   37.1085 H   0  0  0  0  0  0  0  0  0  0  0  0
   19.8193  -35.2315   38.9722 H   0  0  0  0  0  0  0  0  0  0  0  0
   19.8485  -36.5332   37.7347 H   0  0  0  0  0  0  0  0  0  0  0  0
   21.1209  -35.2652   37.7347 H   0  0  0  0  0  0  0  0  0  0  0  0
   20.5706  -35.3230   35.4860 H   0  0  0  0  0  0  0  0  0  0  0  0
   18.8367  -35.4320   35.0292 H   0  0  0  0  0  0  0  0  0  0  0  0
   19.6671  -33.8392   35.0292 H   0  0  0  0  0  0  0  0  0  0  0  0
  1  2  1  0
  2  3  2  0
  3  4  1  0
  4  5  1  0
  5  6  1  0
  6  7  1  0
  7  8  2  0
  8  9  1  0
  9 10  2  0
 10 11  1  0
 11 12  1  0
 11 13  2  0
 13 14  1  0
 14 15  2  0
 14 16  1  0
 16 17  1  0
  4 18  2  0
 18 19  1  0
 19 20  2  0
 20 21  1  0
 21 22  1  0
 21 23  1  0
 20  2  1  0
 16  5  2  0
 13  7  1  0
  1 24  1  0
  1 25  1  0
  1 26  1  0
  3 27  1  0
  8 28  1  0
  9 29  1  0
 10 30  1  0
 12 31  1  0
 17 32  1  0
 18 33  1  0
 19 34  1  0
 21 35  1  0
 22 36  1  0
 22 37  1  0
 22 38  1  0
 23 39  1  0
 23 40  1  0
 23 41  1  0
M  END
>  <meeko>  (5) 
{"is_sidechain": [false], "free_energy": -7.212, "intermolecular_energy": -8.967, "internal_energy": 0.288}

$$$$
cand_026_out
     RDKit          3D

 41 43  0  0  0  0  0  0  0  0999 V2000
   18.0700  -22.8190   46.8690 C   0  0  0  0  0  0  0  0  0  0  0  0
   19.1660  -23.5780   46.1710 C   0  0  0  0  0  0  0  0  0  0  0  0
   19.0670  -23.7640   44.7780 C   0  0  0  0  0  0  0  0  0  0  0  0
   20.0410  -24.4650   44.0530 C   0  0  0  0  0  0  0  0  0  0  0  0
   19.9070  -24.6110   42.5880 C   0  0  0  0  0  0  0  0  0  0  0  0
   19.9350  -25.9370   42.1710 O   0  0  0  0  0  0  0  0  0  0  0  0
   19.8190  -26.2150   40.8340 C   0  0  0  0  0  0  0  0  0  0  0  0
   19.8380  -27.5600   40.4630 C   0  0  0  0  0  0  0  0  0  0  0  0
   19.7260  -27.9130   39.1160 C   0  0  0  0  0  0  0  0  0  0  0  0
   19.5960  -26.9210   38.1420 C   0  0  0  0  0  0  0  0  0  0  0  0
   19.5770  -25.5800   38.5140 C   0  0  0  0  0  0  0  0  0  0  0  0
   19.4470  -24.6610   37.5100 O   0  0  0  0  0  0  0  0  0  0  0  0
   19.6880  -25.2280   39.8620 C   0  0  0  0  0  0  0  0  0  0  0  0
   19.6740  -23.8300   40.2970 C   0  0  0  0  0  0  0  0  0  0  0  0
   19.5690  -22.9010   39.4990 O   0  0  0  0  0  0  0  0  0  0  0  0
   19.7900  -23.5630   41.7490 C   0  0  0  0  0  0  0  0  0  0  0  0
   19.7880  -22.2400   42.1470 O   0  0  0  0  0  0  0  0  0  0  0  0
   21.1420  -24.9730   44.7450 C   0  0  0  0  0  0  0  0  0  0  0  0
   21.2550  -24.7980   46.1280 C   0  0  0  0  0  0  0  0  0  0  0  0
   20.2770  -24.1040   46.8640 C   0  0  0  0  0  0  0  0  0  0  0  0
   20.4470  -23.9430   48.3710 C   0  0  0  0  0  0  0  0  0  0  0  0
   21.8870  -23.5700   48.7370 C   0  0  0  0  0  0  0  0  0  0  0  0
   19.9990  -25.1990   49.1270 C   0  0  0  0  0  0  0  0  0  0  0  0
   18.1984  -22.9079   47.9579 H   0  0  0  0  0  0  0  0  0  0  0  0
   18.1165  -21.7587   46.5797 H   0  0  0  0  0  0  0  0  0  0  0  0
   17.0939  -23.2355   46.5797 H   0  0  0  0  0  0  0  0  0  0  0  0
   18.2005  -23.3472   44.2437 H   0  0  0  0  0  0  0  0  0  0  0  0
   19.9410  -28.3414   41.2303 H   0  0  0  0  0  0  0  0  0  0  0  0
   19.7402  -28.9730   38.8225 H   0  0  0  0  0  0  0  0  0  0  0  0
   19.5087  -27.1992   37.0813 H   0  0  0  0  0  0  0  0  0  0  0  0
   20.1540  -24.5180   36.9120 H   0  0  0  0  0  0  0  0  0  0  0  0
   20.5050  -21.8980   42.6450 H   0  0  0  0  0  0  0  0  0  0  0  0
   21.9272  -25.5154   44.1979 H   0  0  0  0  0  0  0  0  0  0  0  0
   22.1286  -25.2125   46.6524 H   0  0  0  0  0  0  0  0  0  0  0  0
   19.7946  -23.1140   48.6825 H   0  0  0  0  0  0  0  0  0  0  0  0
   21.9918  -23.5429   49.8317 H   0  0  0  0  0  0  0  0  0  0  0  0
   22.5768  -24.3191   48.3211 H   0  0  0  0  0  0  0  0  0  0  0  0
   22.1264  -22.5802   48.3211 H   0  0  0  0  0  0  0  0  0  0  0  0
   20.0637  -25.0177   50.2100 H   0  0  0  0  0  0  0  0  0  0  0  0
   18.9600  -25.4386   48.8567 H   0  0  0  0  0  0  0  0  0  0  0  0
   20.6519  -26.0420   48.8567 H   0  0  0  0  0  0  0  0  0  0  0  0
  1  2  1  0
  2  3  2  0
  3  4  1  0
  4  5  1  0
  5  6  1  0
  6  7  1  0
  7  8  2  0
  8  9  1  0
  9 10  2  0
 10 11  1  0
 11 12  1  0
 11 13  2  0
 13 14  1  0
 14 15  2  0
 14 16  1  0
 16 17  1  0
  4 18  2  0
 18 19  1  0
 19 20  2  0
 20 21  1  0
 21 22  1  0
 21 23  1  0
 20  2  1  0
 16  5  2  0
 13  7  1  0
  1 24  1  0
  1 25  1  0
  1 26  1  0
  3 27  1  0
  8 28  1  0
  9 29  1  0
 10 30  1  0
 12 31  1  0
 17 32  1  0
 18 33  1  0
 19 34  1  0
 21 35  1  0
 22 36  1  0
 22 37  1  0
 22 38  1  0
 23 39  1  0
 23 40  1  0
 23 41  1  0
M  END
>  <meeko>  (6) 
{"is_sidechain": [false], "free_energy": -7.155, "intermolecular_energy": -8.199, "internal_energy": -0.412}

$$$$
cand_026_out
     RDKit          3D

 41 43  0  0  0  0  0  0  0  0999 V2000
   20.3540  -31.5790   35.5180 C   0  0  0  0  0  0  0  0  0  0  0  0
   19.8630  -31.1310   36.8690 C   0  0  0  0  0  0  0  0  0  0  0  0
   19.8480  -29.7500   37.1500 C   0  0  0  0  0  0  0  0  0  0  0  0
   19.4120  -29.2500   38.3860 C   0  0  0  0  0  0  0  0  0  0  0  0
   19.3880  -27.7910   38.6230 C   0  0  0  0  0  0  0  0  0  0  0  0
   18.5170  -27.1190   37.7740 O   0  0  0  0  0  0  0  0  0  0  0  0
   18.3960  -25.7580   37.8880 C   0  0  0  0  0  0  0  0  0  0  0  0
   17.4990  -25.1270   37.0260 C   0  0  0  0  0  0  0  0  0  0  0  0
   17.3310  -23.7420   37.0870 C   0  0  0  0  0  0  0  0  0  0  0  0
   18.0590  -22.9890   38.0110 C   0  0  0  0  0  0  0  0  0  0  0  0
   18.9540  -23.6210   38.8710 C   0  0  0  0  0  0  0  0  0  0  0  0
   19.6340  -22.8240   39.7500 O   0  0  0  0  0  0  0  0  0  0  0  0
   19.1210  -25.0080   38.8090 C   0  0  0  0  0  0  0  0  0  0  0  0
   20.0510  -25.7110   39.6930 C   0  0  0  0  0  0  0  0  0  0  0  0
   20.7320  -25.1180   40.5270 O   0  0  0  0  0  0  0  0  0  0  0  0
   20.1490  -27.1830   39.5520 C   0  0  0  0  0  0  0  0  0  0  0  0
   21.0390  -27.8350   40.3840 O   0  0  0  0  0  0  0  0  0  0  0  0
   18.9690  -30.1600   39.3470 C   0  0  0  0  0  0  0  0  0  0  0  0
   18.9790  -31.5340   39.0850 C   0  0  0  0  0  0  0  0  0  0  0  0
   19.4230  -32.0440   37.8510 C   0  0  0  0  0  0  0  0  0  0  0  0
   19.4160  -33.5500   37.6160 C   0  0  0  0  0  0  0  0  0  0  0  0
   18.2610  -33.9700   36.7010 C   0  0  0  0  0  0  0  0  0  0  0  0
   19.3750  -34.3270   38.9370 C   0  0  0  0  0  0  0  0  0  0  0  0
   21.1610  -32.3153   35.6468 H   0  0  0  0  0  0  0  0  0  0  0  0
   19.5245  -32.0380   34.9601 H   0  0  0  0  0  0  0  0  0  0  0  0
   20.7352  -30.7110   34.9601 H   0  0  0  0  0  0  0  0  0  0  0  0
   20.1879  -29.0440   36.3780 H   0  0  0  0  0  0  0  0  0  0  0  0
   16.9246  -25.7198   36.2989 H   0  0  0  0  0  0  0  0  0  0  0  0
   16.6247  -23.2436   36.4067 H   0  0  0  0  0  0  0  0  0  0  0  0
   17.9257  -21.8982   38.0595 H   0  0  0  0  0  0  0  0  0  0  0  0
   19.2420  -22.0340   40.0660 H   0  0  0  0  0  0  0  0  0  0  0  0
   21.4670  -28.6160   40.0930 H   0  0  0  0  0  0  0  0  0  0  0  0
   18.6086  -29.7933   40.3195 H   0  0  0  0  0  0  0  0  0  0  0  0
   18.6319  -32.2317   39.8613 H   0  0  0  0  0  0  0  0  0  0  0  0
   20.3584  -33.8015   37.1075 H   0  0  0  0  0  0  0  0  0  0  0  0
   17.4026  -34.2822   37.3139 H   0  0  0  0  0  0  0  0  0  0  0  0
   17.9687  -33.1206   36.0661 H   0  0  0  0  0  0  0  0  0  0  0  0
   18.5826  -34.8088   36.0661 H   0  0  0  0  0  0  0  0  0  0  0  0
   19.4123  -33.6205   39.7793 H   0  0  0  0  0  0  0  0  0  0  0  0
   18.4448  -34.9117   38.9898 H   0  0  0  0  0  0  0  0  0  0  0  0
   20.2385  -35.0063   38.9898 H   0  0  0  0  0  0  0  0  0  0  0  0
  1  2  1  0
  2  3  2  0
  3  4  1  0
  4  5  1  0
  5  6  1  0
  6  7  1  0
  7  8  2  0
  8  9  1  0
  9 10  2  0
 10 11  1  0
 11 12  1  0
 11 13  2  0
 13 14  1  0
 14 15  2  0
 14 16  1  0
 16 17  1  0
  4 18  2  0
 18 19  1  0
 19 20  2  0
 20 21  1  0
 21 22  1  0
 21 23  1  0
 20  2  1  0
 16  5  2  0
 13  7  1  0
  1 24  1  0
  1 25  1  0
  1 26  1  0
  3 27  1  0
  8 28  1  0
  9 29  1  0
 10 30  1  0
 12 31  1  0
 17 32  1  0
 18 33  1  0
 19 34  1  0
 21 35  1  0
 22 36  1  0
 22 37  1  0
 22 38  1  0
 23 39  1  0
 23 40  1  0
 23 41  1  0
M  END
>  <meeko>  (7) 
{"is_sidechain": [false], "free_energy": -7.073, "intermolecular_energy": -8.16, "internal_energy": -0.355}

$$$$
cand_026_out
     RDKit          3D

 41 43  0  0  0  0  0  0  0  0999 V2000
   19.6350  -24.3600   37.3750 C   0  0  0  0  0  0  0  0  0  0  0  0
   19.7370  -25.7200   38.0100 C   0  0  0  0  0  0  0  0  0  0  0  0
   20.4330  -25.8360   39.2310 C   0  0  0  0  0  0  0  0  0  0  0  0
   20.5800  -27.0680   39.8850 C   0  0  0  0  0  0  0  0  0  0  0  0
   21.2940  -27.1350   41.1780 C   0  0  0  0  0  0  0  0  0  0  0  0
   22.2600  -28.1350   41.2110 O   0  0  0  0  0  0  0  0  0  0  0  0
   22.9990  -28.3060   42.3520 C   0  0  0  0  0  0  0  0  0  0  0  0
   23.9660  -29.3120   42.3350 C   0  0  0  0  0  0  0  0  0  0  0  0
   24.7530  -29.5410   43.4670 C   0  0  0  0  0  0  0  0  0  0  0  0
   24.5710  -28.7650   44.6130 C   0  0  0  0  0  0  0  0  0  0  0  0
   23.6060  -27.7620   44.6280 C   0  0  0  0  0  0  0  0  0  0  0  0
   23.4810  -27.0410   45.7830 O   0  0  0  0  0  0  0  0  0  0  0  0
   22.8200  -27.5330   43.4950 C   0  0  0  0  0  0  0  0  0  0  0  0
   21.7930  -26.4900   43.4680 C   0  0  0  0  0  0  0  0  0  0  0  0
   21.5700  -25.7710   44.4390 O   0  0  0  0  0  0  0  0  0  0  0  0
   21.0190  -26.3230   42.2160 C   0  0  0  0  0  0  0  0  0  0  0  0
   20.0450  -25.3430   42.2060 O   0  0  0  0  0  0  0  0  0  0  0  0
   20.0010  -28.1980   39.3040 C   0  0  0  0  0  0  0  0  0  0  0  0
   19.3090  -28.1000   38.0920 C   0  0  0  0  0  0  0  0  0  0  0  0
   19.1650  -26.8700   37.4250 C   0  0  0  0  0  0  0  0  0  0  0  0
   18.4030  -26.8170   36.1060 C   0  0  0  0  0  0  0  0  0  0  0  0
   16.8880  -26.8590   36.3310 C   0  0  0  0  0  0  0  0  0  0  0  0
   18.8440  -27.9340   35.1540 C   0  0  0  0  0  0  0  0  0  0  0  0
   19.5774  -23.5920   38.1604 H   0  0  0  0  0  0  0  0  0  0  0  0
   20.5221  -24.1796   36.7501 H   0  0  0  0  0  0  0  0  0  0  0  0
   18.7309  -24.3140   36.7501 H   0  0  0  0  0  0  0  0  0  0  0  0
   20.8730  -24.9349   39.6832 H   0  0  0  0  0  0  0  0  0  0  0  0
   24.1086  -29.9238   41.4320 H   0  0  0  0  0  0  0  0  0  0  0  0
   25.5162  -30.3331   43.4549 H   0  0  0  0  0  0  0  0  0  0  0  0
   25.1901  -28.9461   45.5040 H   0  0  0  0  0  0  0  0  0  0  0  0
   23.9300  -27.3160   46.5580 H   0  0  0  0  0  0  0  0  0  0  0  0
   19.2080  -25.5100   42.5930 H   0  0  0  0  0  0  0  0  0  0  0  0
   20.0897  -29.1739   39.8037 H   0  0  0  0  0  0  0  0  0  0  0  0
   18.8674  -29.0056   37.6506 H   0  0  0  0  0  0  0  0  0  0  0  0
   18.6474  -25.8555   35.6308 H   0  0  0  0  0  0  0  0  0  0  0  0
   16.6777  -26.8648   37.4107 H   0  0  0  0  0  0  0  0  0  0  0  0
   16.4244  -25.9734   35.8719 H   0  0  0  0  0  0  0  0  0  0  0  0
   16.4742  -27.7690   35.8719 H   0  0  0  0  0  0  0  0  0  0  0  0
   19.1861  -28.8005   35.7389 H   0  0  0  0  0  0  0  0  0  0  0  0
   17.9958  -28.2315   34.5199 H   0  0  0  0  0  0  0  0  0  0  0  0
   19.6666  -27.5718   34.5199 H   0  0  0  0  0  0  0  0  0  0  0  0
  1  2  1  0
  2  3  2  0
  3  4  1  0
  4  5  1  0
  5  6  1  0
  6  7  1  0
  7  8  2  0
  8  9  1  0
  9 10  2  0
 10 11  1  0
 11 12  1  0
 11 13  2  0
 13 14  1  0
 14 15  2  0
 14 16  1  0
 16 17  1  0
  4 18  2  0
 18 19  1  0
 19 20  2  0
 20 21  1  0
 21 22  1  0
 21 23  1  0
 20  2  1  0
 16  5  2  0
 13  7  1  0
  1 24  1  0
  1 25  1  0
  1 26  1  0
  3 27  1  0
  8 28  1  0
  9 29  1  0
 10 30  1  0
 12 31  1  0
 17 32  1  0
 18 33  1  0
 19 34  1  0
 21 35  1  0
 22 36  1  0
 22 37  1  0
 22 38  1  0
 23 39  1  0
 23 40  1  0
 23 41  1  0
M  END
>  <meeko>  (8) 
{"is_sidechain": [false], "free_energy": -6.91, "intermolecular_energy": -7.986, "internal_energy": -0.338}

$$$$
cand_026_out
     RDKit          3D

 41 43  0  0  0  0  0  0  0  0999 V2000
   20.3630  -21.6530   42.8130 C   0  0  0  0  0  0  0  0  0  0  0  0
   20.0690  -23.0880   42.4710 C   0  0  0  0  0  0  0  0  0  0  0  0
   19.7960  -23.4130   41.1270 C   0  0  0  0  0  0  0  0  0  0  0  0
   19.5050  -24.7250   40.7250 C   0  0  0  0  0  0  0  0  0  0  0  0
   19.2530  -25.0200   39.2990 C   0  0  0  0  0  0  0  0  0  0  0  0
   18.1000  -24.4100   38.8160 O   0  0  0  0  0  0  0  0  0  0  0  0
   17.7480  -24.6000   37.5050 C   0  0  0  0  0  0  0  0  0  0  0  0
   16.5920  -23.9570   37.0600 C   0  0  0  0  0  0  0  0  0  0  0  0
   16.1750  -24.1100   35.7360 C   0  0  0  0  0  0  0  0  0  0  0  0
   16.9140  -24.9060   34.8580 C   0  0  0  0  0  0  0  0  0  0  0  0
   18.0670  -25.5460   35.3040 C   0  0  0  0  0  0  0  0  0  0  0  0
   18.7430  -26.3100   34.3920 O   0  0  0  0  0  0  0  0  0  0  0  0
   18.4840  -25.3910   36.6290 C   0  0  0  0  0  0  0  0  0  0  0  0
   19.6900  -26.0470   37.1390 C   0  0  0  0  0  0  0  0  0  0  0  0
   20.3880  -26.7680   36.4300 O   0  0  0  0  0  0  0  0  0  0  0  0
   20.0490  -25.8130   38.5570 C   0  0  0  0  0  0  0  0  0  0  0  0
   21.1820  -26.4460   39.0310 O   0  0  0  0  0  0  0  0  0  0  0  0
   19.5060  -25.7280   41.6960 C   0  0  0  0  0  0  0  0  0  0  0  0
   19.7730  -25.4230   43.0350 C   0  0  0  0  0  0  0  0  0  0  0  0
   20.0560  -24.1080   43.4470 C   0  0  0  0  0  0  0  0  0  0  0  0
   20.3390  -23.8280   44.9180 C   0  0  0  0  0  0  0  0  0  0  0  0
   21.4550  -24.7290   45.4570 C   0  0  0  0  0  0  0  0  0  0  0  0
   19.0730  -23.9590   45.7710 C   0  0  0  0  0  0  0  0  0  0  0  0
   20.3873  -21.5342   43.9063 H   0  0  0  0  0  0  0  0  0  0  0  0
   21.3382  -21.3680   42.3914 H   0  0  0  0  0  0  0  0  0  0  0  0
   19.5785  -21.0074   42.3914 H   0  0  0  0  0  0  0  0  0  0  0  0
   19.8116  -22.6142   40.3709 H   0  0  0  0  0  0  0  0  0  0  0  0
   16.0098  -23.3302   37.7516 H   0  0  0  0  0  0  0  0  0  0  0  0
   15.2641  -23.6034   35.3845 H   0  0  0  0  0  0  0  0  0  0  0  0
   16.5853  -25.0271   33.8153 H   0  0  0  0  0  0  0  0  0  0  0  0
   18.6590  -26.1290   33.4760 H   0  0  0  0  0  0  0  0  0  0  0  0
   21.9020  -25.9410   39.3530 H   0  0  0  0  0  0  0  0  0  0  0  0
   19.2949  -26.7678   41.4056 H   0  0  0  0  0  0  0  0  0  0  0  0
   19.7614  -26.2298   43.7827 H   0  0  0  0  0  0  0  0  0  0  0  0
   20.6839  -22.7857   44.9870 H   0  0  0  0  0  0  0  0  0  0  0  0
   21.4382  -24.7154   46.5568 H   0  0  0  0  0  0  0  0  0  0  0  0
   21.2998  -25.7580   45.1006 H   0  0  0  0  0  0  0  0  0  0  0  0
   22.4282  -24.3604   45.1006 H   0  0  0  0  0  0  0  0  0  0  0  0
   19.3443  -23.9309   46.8366 H   0  0  0  0  0  0  0  0  0  0  0  0
   18.3904  -23.1267   45.5444 H   0  0  0  0  0  0  0  0  0  0  0  0
   18.5753  -24.9134   45.5444 H   0  0  0  0  0  0  0  0  0  0  0  0
  1  2  1  0
  2  3  2  0
  3  4  1  0
  4  5  1  0
  5  6  1  0
  6  7  1  0
  7  8  2  0
  8  9  1  0
  9 10  2  0
 10 11  1  0
 11 12  1  0
 11 13  2  0
 13 14  1  0
 14 15  2  0
 14 16  1  0
 16 17  1  0
  4 18  2  0
 18 19  1  0
 19 20  2  0
 20 21  1  0
 21 22  1  0
 21 23  1  0
 20  2  1  0
 16  5  2  0
 13  7  1  0
  1 24  1  0
  1 25  1  0
  1 26  1  0
  3 27  1  0
  8 28  1  0
  9 29  1  0
 10 30  1  0
 12 31  1  0
 17 32  1  0
 18 33  1  0
 19 34  1  0
 21 35  1  0
 22 36  1  0
 22 37  1  0
 22 38  1  0
 23 39  1  0
 23 40  1  0
 23 41  1  0
M  END
>  <meeko>  (9) 
{"is_sidechain": [false], "free_energy": -6.845, "intermolecular_energy": -7.753, "internal_energy": -0.495}

$$$$
