cand_040_out
     RDKit          3D

 36 38  0  0  0  0  0  0  0  0999 V2000
   19.6060  -23.9750   40.3900 C   0  0  0  0  0  0  0  0  0  0  0  0
   19.0210  -25.0560   40.9210 C   0  0  0  0  0  0  0  0  0  0  0  0
   19.1030  -26.3970   40.3240 C   0  0  0  0  0  0  0  0  0  0  0  0
   18.2740  -26.7240   39.2410 C   0  0  0  0  0  0  0  0  0  0  0  0
   18.3520  -27.9790   38.6300 C   0  0  0  0  0  0  0  0  0  0  0  0
   19.2710  -28.9350   39.0760 C   0  0  0  0  0  0  0  0  0  0  0  0
   19.3210  -30.2650   38.4310 C   0  0  0  0  0  0  0  0  0  0  0  0
   18.8810  -31.2860   39.2650 O   0  0  0  0  0  0  0  0  0  0  0  0
   18.8750  -32.5730   38.7920 C   0  0  0  0  0  0  0  0  0  0  0  0
   18.4400  -33.5680   39.6690 C   0  0  0  0  0  0  0  0  0  0  0  0
   18.4080  -34.9000   39.2490 C   0  0  0  0  0  0  0  0  0  0  0  0
   18.8100  -35.2360   37.9540 C   0  0  0  0  0  0  0  0  0  0  0  0
   19.2430  -34.2400   37.0820 C   0  0  0  0  0  0  0  0  0  0  0  0
   19.6200  -34.6390   35.8290 O   0  0  0  0  0  0  0  0  0  0  0  0
   19.2760  -32.9080   37.5020 C   0  0  0  0  0  0  0  0  0  0  0  0
   19.7240  -31.8320   36.6180 C   0  0  0  0  0  0  0  0  0  0  0  0
   20.0850  -32.0470   35.4620 O   0  0  0  0  0  0  0  0  0  0  0  0
   19.7290  -30.4540   37.1620 C   0  0  0  0  0  0  0  0  0  0  0  0
   20.1410  -29.4440   36.3150 O   0  0  0  0  0  0  0  0  0  0  0  0
   20.0990  -28.6080   40.1600 C   0  0  0  0  0  0  0  0  0  0  0  0
   20.0300  -27.3490   40.7890 C   0  0  0  0  0  0  0  0  0  0  0  0
   20.9570  -27.0600   41.9390 C   0  0  0  0  0  0  0  0  0  0  0  0
   19.5078  -22.9975   40.8849 H   0  0  0  0  0  0  0  0  0  0  0  0
   20.1848  -24.0644   39.4589 H   0  0  0  0  0  0  0  0  0  0  0  0
   18.4491  -24.9344   41.8527 H   0  0  0  0  0  0  0  0  0  0  0  0
   17.5524  -25.9827   38.8672 H   0  0  0  0  0  0  0  0  0  0  0  0
   17.6836  -28.2174   37.7895 H   0  0  0  0  0  0  0  0  0  0  0  0
   18.1231  -33.3039   40.6887 H   0  0  0  0  0  0  0  0  0  0  0  0
   18.0658  -35.6854   39.9390 H   0  0  0  0  0  0  0  0  0  0  0  0
   18.7846  -36.2849   37.6237 H   0  0  0  0  0  0  0  0  0  0  0  0
   20.2570  -34.1440   35.3510 H   0  0  0  0  0  0  0  0  0  0  0  0
   19.5120  -28.8520   35.9500 H   0  0  0  0  0  0  0  0  0  0  0  0
   20.8200  -29.3528   40.5281 H   0  0  0  0  0  0  0  0  0  0  0  0
   20.4263  -27.2254   42.8882 H   0  0  0  0  0  0  0  0  0  0  0  0
   21.8284  -27.7291   41.8846 H   0  0  0  0  0  0  0  0  0  0  0  0
   21.2938  -26.0142   41.8846 H   0  0  0  0  0  0  0  0  0  0  0  0
  1  2  2  0
  2  3  1  0
  3  4  2  0
  4  5  1  0
  5  6  2  0
  6  7  1  0
  7  8  1  0
  8  9  1  0
  9 10  2  0
 10 11  1  0
 11 12  2  0
 12 13  1  0
 13 14  1  0
 13 15  2  0
 15 16  1  0
 16 17  2  0
 16 18  1  0
 18 19  1  0
  6 20  1  0
 20 21  2  0
 21 22  1  0
 21  3  1  0
 18  7  2  0
 15  9  1  0
  1 23  1  0
  1 24  1  0
  2 25  1  0
  4 26  1  0
  5 27  1  0
 10 28  1  0
 11 29  1  0
 12 30  1  0
 14 31  1  0
 19 32  1  0
 20 33  1  0
 22 34  1  0
 22 35  1  0
 22 36  1  0
M  END
>  <meeko>  (1) 
{"is_sidechain": [false], "free_energy": -7.839, "intermolecular_energy": -9.213, "internal_energy": -0.364}

$$$$
cand_040_out
     RDKit          3D

 36 38  0  0  0  0  0  0  0  0999 V2000
   19.6540  -33.6510   34.7670 C   0  0  0  0  0  0  0  0  0  0  0  0
   19.6380  -33.6710   36.1060 C   0  0  0  0  0  0  0  0  0  0  0  0
   19.5400  -32.4600   36.9340 C   0  0  0  0  0  0  0  0  0  0  0  0
   19.9290  -31.2230   36.4010 C   0  0  0  0  0  0  0  0  0  0  0  0
   19.8150  -30.0490   37.1500 C   0  0  0  0  0  0  0  0  0  0  0  0
   19.2950  -30.0780   38.4490 C   0  0  0  0  0  0  0  0  0  0  0  0
   19.2050  -28.8290   39.2340 C   0  0  0  0  0  0  0  0  0  0  0  0
   20.1390  -28.7680   40.2620 O   0  0  0  0  0  0  0  0  0  0  0  0
   20.1660  -27.6610   41.0690 C   0  0  0  0  0  0  0  0  0  0  0  0
   21.1090  -27.6500   42.0990 C   0  0  0  0  0  0  0  0  0  0  0  0
   21.1910  -26.5510   42.9560 C   0  0  0  0  0  0  0  0  0  0  0  0
   20.3300  -25.4640   42.7860 C   0  0  0  0  0  0  0  0  0  0  0  0
   19.3900  -25.4790   41.7590 C   0  0  0  0  0  0  0  0  0  0  0  0
   18.5800  -24.3820   41.6490 O   0  0  0  0  0  0  0  0  0  0  0  0
   19.3080  -26.5780   40.9010 C   0  0  0  0  0  0  0  0  0  0  0  0
   18.3350  -26.6340   39.8090 C   0  0  0  0  0  0  0  0  0  0  0  0
   17.5490  -25.7130   39.5910 O   0  0  0  0  0  0  0  0  0  0  0  0
   18.3240  -27.8480   38.9610 C   0  0  0  0  0  0  0  0  0  0  0  0
   17.4100  -27.8840   37.9250 O   0  0  0  0  0  0  0  0  0  0  0  0
   18.9060  -31.3160   38.9830 C   0  0  0  0  0  0  0  0  0  0  0  0
   19.0190  -32.5080   38.2410 C   0  0  0  0  0  0  0  0  0  0  0  0
   18.5710  -33.8000   38.8710 C   0  0  0  0  0  0  0  0  0  0  0  0
   19.7292  -34.5928   34.2037 H   0  0  0  0  0  0  0  0  0  0  0  0
   19.5920  -32.6927   34.2305 H   0  0  0  0  0  0  0  0  0  0  0  0
   19.7015  -34.6450   36.6132 H   0  0  0  0  0  0  0  0  0  0  0  0
   20.3300  -31.1760   35.3778 H   0  0  0  0  0  0  0  0  0  0  0  0
   20.1374  -29.0919   36.7141 H   0  0  0  0  0  0  0  0  0  0  0  0
   21.7862  -28.5061   42.2349 H   0  0  0  0  0  0  0  0  0  0  0  0
   21.9347  -26.5409   43.7664 H   0  0  0  0  0  0  0  0  0  0  0  0
   20.3946  -24.5985   43.4618 H   0  0  0  0  0  0  0  0  0  0  0  0
   17.8230  -24.3010   42.1950 H   0  0  0  0  0  0  0  0  0  0  0  0
   16.8760  -28.6430   37.7980 H   0  0  0  0  0  0  0  0  0  0  0  0
   18.5031  -31.3566   40.0057 H   0  0  0  0  0  0  0  0  0  0  0  0
   18.6041  -33.7046   39.9664 H   0  0  0  0  0  0  0  0  0  0  0  0
   17.5422  -34.0254   38.5535 H   0  0  0  0  0  0  0  0  0  0  0  0
   19.2394  -34.6139   38.5535 H   0  0  0  0  0  0  0  0  0  0  0  0
  1  2  2  0
  2  3  1  0
  3  4  2  0
  4  5  1  0
  5  6  2  0
  6  7  1  0
  7  8  1  0
  8  9  1  0
  9 10  2  0
 10 11  1  0
 11 12  2  0
 12 13  1  0
 13 14  1  0
 13 15  2  0
 15 16  1  0
 16 17  2  0
 16 18  1  0
 18 19  1  0
  6 20  1  0
 20 21  2  0
 21 22  1  0
 21  3  1  0
 18  7  2  0
 15  9  1  0
  1 23  1  0
  1 24  1  0
  2 25  1  0
  4 26  1  0
  5 27  1  0
 10 28  1  0
 11 29  1  0
 12 30  1  0
 14 31  1  0
 19 32  1  0
 20 33  1  0
 22 34  1  0
 22 35  1  0
 22 36  1  0
M  END
>  <meeko>  (2) 
{"is_sidechain": [false], "free_energy": -7.593, "intermolecular_energy": -8.896, "internal_energy": -0.392}

$$$$
cand_040_out
     RDKit          3D

 36 38  0  0  0  0  0  0  0  0999 V2000
   18.3650  -27.5220   35.3900 C   0  0  0  0  0  0  0  0  0  0  0  0
   17.9030  -27.1420   36.5880 C   0  0  0  0  0  0  0  0  0  0  0  0
   18.7210  -27.1380   37.8090 C   0  0  0  0  0  0  0  0  0  0  0  0
   18.8730  -28.3220   38.5440 C   0  0  0  0  0  0  0  0  0  0  0  0
   19.6720  -28.3590   39.6910 C   0  0  0  0  0  0  0  0  0  0  0  0
   20.3540  -27.2160   40.1240 C   0  0  0  0  0  0  0  0  0  0  0  0
   21.1750  -27.2710   41.3520 C   0  0  0  0  0  0  0  0  0  0  0  0
   22.1680  -28.2420   41.2950 O   0  0  0  0  0  0  0  0  0  0  0  0
   23.0050  -28.4000   42.3690 C   0  0  0  0  0  0  0  0  0  0  0  0
   23.9760  -29.3980   42.2750 C   0  0  0  0  0  0  0  0  0  0  0  0
   24.8620  -29.6100   43.3340 C   0  0  0  0  0  0  0  0  0  0  0  0
   24.7760  -28.8250   44.4860 C   0  0  0  0  0  0  0  0  0  0  0  0
   23.8050  -27.8310   44.5770 C   0  0  0  0  0  0  0  0  0  0  0  0
   23.7780  -27.0990   45.7330 O   0  0  0  0  0  0  0  0  0  0  0  0
   22.9190  -27.6190   43.5180 C   0  0  0  0  0  0  0  0  0  0  0  0
   21.8840  -26.5850   43.5730 C   0  0  0  0  0  0  0  0  0  0  0  0
   21.7510  -25.8500   44.5490 O   0  0  0  0  0  0  0  0  0  0  0  0
   20.9900  -26.4470   42.4010 C   0  0  0  0  0  0  0  0  0  0  0  0
   20.0260  -25.4590   42.4580 O   0  0  0  0  0  0  0  0  0  0  0  0
   20.2020  -26.0320   39.3890 C   0  0  0  0  0  0  0  0  0  0  0  0
   19.3960  -25.9770   38.2330 C   0  0  0  0  0  0  0  0  0  0  0  0
   19.2870  -24.6760   37.4850 C   0  0  0  0  0  0  0  0  0  0  0  0
   17.7013  -27.5022   34.5130 H   0  0  0  0  0  0  0  0  0  0  0  0
   19.4082  -27.8539   35.2828 H   0  0  0  0  0  0  0  0  0  0  0  0
   16.8552  -26.8154   36.6622 H   0  0  0  0  0  0  0  0  0  0  0  0
   18.3563  -29.2352   38.2137 H   0  0  0  0  0  0  0  0  0  0  0  0
   19.7655  -29.2963   40.2590 H   0  0  0  0  0  0  0  0  0  0  0  0
   24.0436  -30.0169   41.3681 H   0  0  0  0  0  0  0  0  0  0  0  0
   25.6281  -30.3959   43.2605 H   0  0  0  0  0  0  0  0  0  0  0  0
   25.4739  -28.9916   45.3198 H   0  0  0  0  0  0  0  0  0  0  0  0
   24.2710  -27.3810   46.4780 H   0  0  0  0  0  0  0  0  0  0  0  0
   19.2120  -25.5710   42.0060 H   0  0  0  0  0  0  0  0  0  0  0  0
   20.7244  -25.1231   39.7222 H   0  0  0  0  0  0  0  0  0  0  0  0
   19.2174  -23.8452   38.2026 H   0  0  0  0  0  0  0  0  0  0  0  0
   20.1770  -24.5409   36.8528 H   0  0  0  0  0  0  0  0  0  0  0  0
   18.3870  -24.6908   36.8528 H   0  0  0  0  0  0  0  0  0  0  0  0
  1  2  2  0
  2  3  1  0
  3  4  2  0
  4  5  1  0
  5  6  2  0
  6  7  1  0
  7  8  1  0
  8  9  1  0
  9 10  2  0
 10 11  1  0
 11 12  2  0
 12 13  1  0
 13 14  1  0
 13 15  2  0
 15 16  1  0
 16 17  2  0
 16 18  1  0
 18 19  1  0
  6 20  1  0
 20 21  2  0
 21 22  1  0
 21  3  1  0
 18  7  2  0
 15  9  1  0
  1 23  1  0
  1 24  1  0
  2 25  1  0
  4 26  1  0
  5 27  1  0
 10 28  1  0
 11 29  1  0
 12 30  1  0
 14 31  1  0
 19 32  1  0
 20 33  1  0
 22 34  1  0
 22 35  1  0
 22 36  1  0
M  END
>  <meeko>  (3) 
{"is_sidechain": [false], "free_energy": -7.057, "intermolecular_energy": -8.412, "internal_energy": -0.247}

$$$$
cand_040_out
     RDKit          3D

 36 38  0  0  0  0  0  0  0  0999 V2000
   19.4910  -23.7990   41.1940 C   0  0  0  0  0  0  0  0  0  0  0  0
   19.0820  -25.0260   41.5410 C   0  0  0  0  0  0  0  0  0  0  0  0
   19.2320  -26.2050   40.6750 C   0  0  0  0  0  0  0  0  0  0  0  0
   18.4380  -26.3250   39.5260 C   0  0  0  0  0  0  0  0  0  0  0  0
   18.5810  -27.4170   38.6640 C   0  0  0  0  0  0  0  0  0  0  0  0
   19.5320  -28.4100   38.9210 C   0  0  0  0  0  0  0  0  0  0  0  0
   19.6510  -29.5690   38.0100 C   0  0  0  0  0  0  0  0  0  0  0  0
   19.8900  -29.1960   36.6920 O   0  0  0  0  0  0  0  0  0  0  0  0
   20.0230  -30.1740   35.7400 C   0  0  0  0  0  0  0  0  0  0  0  0
   20.2450  -29.7550   34.4280 C   0  0  0  0  0  0  0  0  0  0  0  0
   20.3910  -30.7000   33.4100 C   0  0  0  0  0  0  0  0  0  0  0  0
   20.3140  -32.0640   33.7040 C   0  0  0  0  0  0  0  0  0  0  0  0
   20.0910  -32.4780   35.0150 C   0  0  0  0  0  0  0  0  0  0  0  0
   20.0280  -33.8270   35.2320 O   0  0  0  0  0  0  0  0  0  0  0  0
   19.9450  -31.5320   36.0330 C   0  0  0  0  0  0  0  0  0  0  0  0
   19.7090  -31.9260   37.4230 C   0  0  0  0  0  0  0  0  0  0  0  0
   19.6370  -33.1060   37.7610 O   0  0  0  0  0  0  0  0  0  0  0  0
   19.5600  -30.8460   38.4250 C   0  0  0  0  0  0  0  0  0  0  0  0
   19.3520  -31.2290   39.7360 O   0  0  0  0  0  0  0  0  0  0  0  0
   20.3260  -28.2910   40.0710 C   0  0  0  0  0  0  0  0  0  0  0  0
   20.1910  -27.1980   40.9510 C   0  0  0  0  0  0  0  0  0  0  0  0
   21.0840  -27.1260   42.1610 C   0  0  0  0  0  0  0  0  0  0  0  0
   19.3505  -22.9560   41.8866 H   0  0  0  0  0  0  0  0  0  0  0  0
   19.9675  -23.6340   40.2164 H   0  0  0  0  0  0  0  0  0  0  0  0
   18.6091  -25.1589   42.5252 H   0  0  0  0  0  0  0  0  0  0  0  0
   17.6919  -25.5492   39.2991 H   0  0  0  0  0  0  0  0  0  0  0  0
   17.9388  -27.4958   37.7744 H   0  0  0  0  0  0  0  0  0  0  0  0
   20.3050  -28.6815   34.1955 H   0  0  0  0  0  0  0  0  0  0  0  0
   20.5668  -30.3702   32.3754 H   0  0  0  0  0  0  0  0  0  0  0  0
   20.4292  -32.8085   32.9024 H   0  0  0  0  0  0  0  0  0  0  0  0
   20.8160  -34.3230   35.3370 H   0  0  0  0  0  0  0  0  0  0  0  0
   19.9120  -30.9040   40.4140 H   0  0  0  0  0  0  0  0  0  0  0  0
   21.0717  -29.0690   40.2915 H   0  0  0  0  0  0  0  0  0  0  0  0
   20.4707  -27.1754   43.0728 H   0  0  0  0  0  0  0  0  0  0  0  0
   21.7891  -27.9702   42.1471 H   0  0  0  0  0  0  0  0  0  0  0  0
   21.6447  -26.1797   42.1471 H   0  0  0  0  0  0  0  0  0  0  0  0
  1  2  2  0
  2  3  1  0
  3  4  2  0
  4  5  1  0
  5  6  2  0
  6  7  1  0
  7  8  1  0
  8  9  1  0
  9 10  2  0
 10 11  1  0
 11 12  2  0
 12 13  1  0
 13 14  1  0
 13 15  2  0
 15 16  1  0
 16 17  2  0
 16 18  1  0
 18 19  1  0
  6 20  1  0
 20 21  2  0
 21 22  1  0
 21  3  1  0
 18  7  2  0
 15  9  1  0
  1 23  1  0
  1 24  1  0
  2 25  1  0
  4 26  1  0
  5 27  1  0
 10 28  1  0
 11 29  1  0
 12 30  1  0
 14 31  1  0
 19 32  1  0
 20 33  1  0
 22 34  1  0
 22 35  1  0
 22 36  1  0
M  END
>  <meeko>  (4) 
{"is_sidechain": [false], "free_energy": -6.953, "intermolecular_energy": -8.275, "internal_energy": -0.262}

$$$$
cand_040_out
     RDKit          3D

 36 38  0  0  0  0  0  0  0  0999 V2000
   25.3470  -29.7590   44.2780 C   0  0  0  0  0  0  0  0  0  0  0  0
   24.5820  -28.6910   44.5370 C   0  0  0  0  0  0  0  0  0  0  0  0
   23.5870  -28.1590   43.5940 C   0  0  0  0  0  0  0  0  0  0  0  0
   23.5370  -28.6590   42.2850 C   0  0  0  0  0  0  0  0  0  0  0  0
   22.5800  -28.1990   41.3760 C   0  0  0  0  0  0  0  0  0  0  0  0
   21.6380  -27.2370   41.7560 C   0  0  0  0  0  0  0  0  0  0  0  0
   20.6490  -26.7470   40.7720 C   0  0  0  0  0  0  0  0  0  0  0  0
   20.5550  -25.3600   40.7460 O   0  0  0  0  0  0  0  0  0  0  0  0
   19.6750  -24.7710   39.8760 C   0  0  0  0  0  0  0  0  0  0  0  0
   19.6020  -23.3770   39.8950 C   0  0  0  0  0  0  0  0  0  0  0  0
   18.7260  -22.7140   39.0330 C   0  0  0  0  0  0  0  0  0  0  0  0
   17.9230  -23.4430   38.1530 C   0  0  0  0  0  0  0  0  0  0  0  0
   17.9970  -24.8340   38.1370 C   0  0  0  0  0  0  0  0  0  0  0  0
   17.1840  -25.4850   37.2510 O   0  0  0  0  0  0  0  0  0  0  0  0
   18.8740  -25.4970   39.0000 C   0  0  0  0  0  0  0  0  0  0  0  0
   18.9820  -26.9560   39.0160 C   0  0  0  0  0  0  0  0  0  0  0  0
   18.3150  -27.6670   38.2660 O   0  0  0  0  0  0  0  0  0  0  0  0
   19.9350  -27.5630   39.9730 C   0  0  0  0  0  0  0  0  0  0  0  0
   20.0400  -28.9410   39.9700 O   0  0  0  0  0  0  0  0  0  0  0  0
   21.6870  -26.7370   43.0650 C   0  0  0  0  0  0  0  0  0  0  0  0
   22.6480  -27.1880   43.9920 C   0  0  0  0  0  0  0  0  0  0  0  0
   22.6370  -26.6170   45.3850 C   0  0  0  0  0  0  0  0  0  0  0  0
   26.0743  -30.1089   45.0254 H   0  0  0  0  0  0  0  0  0  0  0  0
   25.2482  -30.2865   43.3178 H   0  0  0  0  0  0  0  0  0  0  0  0
   24.7043  -28.1850   45.5060 H   0  0  0  0  0  0  0  0  0  0  0  0
   24.2613  -29.4242   41.9689 H   0  0  0  0  0  0  0  0  0  0  0  0
   22.5674  -28.5977   40.3509 H   0  0  0  0  0  0  0  0  0  0  0  0
   20.2336  -22.8017   40.5880 H   0  0  0  0  0  0  0  0  0  0  0  0
   18.6683  -21.6156   39.0471 H   0  0  0  0  0  0  0  0  0  0  0  0
   17.2336  -22.9199   37.4740 H   0  0  0  0  0  0  0  0  0  0  0  0
   16.4570  -25.9880   37.5630 H   0  0  0  0  0  0  0  0  0  0  0  0
   20.4610  -29.3770   39.2560 H   0  0  0  0  0  0  0  0  0  0  0  0
   20.9578  -25.9744   43.3759 H   0  0  0  0  0  0  0  0  0  0  0  0
   22.6528  -27.4373   46.1177 H   0  0  0  0  0  0  0  0  0  0  0  0
   23.5231  -25.9809   45.5276 H   0  0  0  0  0  0  0  0  0  0  0  0
   21.7271  -26.0155   45.5276 H   0  0  0  0  0  0  0  0  0  0  0  0
  1  2  2  0
  2  3  1  0
  3  4  2  0
  4  5  1  0
  5  6  2  0
  6  7  1  0
  7  8  1  0
  8  9  1  0
  9 10  2  0
 10 11  1  0
 11 12  2  0
 12 13  1  0
 13 14  1  0
 13 15  2  0
 15 16  1  0
 16 17  2  0
 16 18  1  0
 18 19  1  0
  6 20  1  0
 20 21  2  0
 21 22  1  0
 21  3  1  0
 18  7  2  0
 15  9  1  0
  1 23  1  0
  1 24  1  0
  2 25  1  0
  4 26  1  0
  5 27  1  0
 10 28  1  0
 11 29  1  0
 12 30  1  0
 14 31  1  0
 19 32  1  0
 20 33  1  0
 22 34  1  0
 22 35  1  0
 22 36  1  0
M  END
>  <meeko>  (5) 
{"is_sidechain": [false], "free_energy": -6.817, "intermolecular_energy": -8.235, "internal_energy": -0.142}

$$$$
cand_040_out
     RDKit          3D

 36 38  0  0  0  0  0  0  0  0999 V2000
   18.7810  -34.7310   38.9770 C   0  0  0  0  0  0  0  0  0  0  0  0
   19.1990  -33.9450   37.9760 C   0  0  0  0  0  0  0  0  0  0  0  0
   19.2460  -32.4780   38.0640 C   0  0  0  0  0  0  0  0  0  0  0  0
   18.9340  -31.8460   39.2760 C   0  0  0  0  0  0  0  0  0  0  0  0
   19.0030  -30.4560   39.4010 C   0  0  0  0  0  0  0  0  0  0  0  0
   19.4000  -29.6600   38.3210 C   0  0  0  0  0  0  0  0  0  0  0  0
   19.4440  -28.1900   38.4660 C   0  0  0  0  0  0  0  0  0  0  0  0
   18.6840  -27.5290   37.5080 O   0  0  0  0  0  0  0  0  0  0  0  0
   18.6350  -26.1600   37.5280 C   0  0  0  0  0  0  0  0  0  0  0  0
   17.8730  -25.5380   36.5370 C   0  0  0  0  0  0  0  0  0  0  0  0
   17.7800  -24.1450   36.5020 C   0  0  0  0  0  0  0  0  0  0  0  0
   18.4500  -23.3740   37.4550 C   0  0  0  0  0  0  0  0  0  0  0  0
   19.2100  -23.9970   38.4410 C   0  0  0  0  0  0  0  0  0  0  0  0
   19.8380  -23.1830   39.3430 O   0  0  0  0  0  0  0  0  0  0  0  0
   19.3030  -25.3910   38.4770 C   0  0  0  0  0  0  0  0  0  0  0  0
   20.0910  -26.0860   39.4950 C   0  0  0  0  0  0  0  0  0  0  0  0
   20.7020  -25.4770   40.3720 O   0  0  0  0  0  0  0  0  0  0  0  0
   20.1310  -27.5650   39.4410 C   0  0  0  0  0  0  0  0  0  0  0  0
   20.8670  -28.2110   40.4160 O   0  0  0  0  0  0  0  0  0  0  0  0
   19.7120  -30.2920   37.1080 C   0  0  0  0  0  0  0  0  0  0  0  0
   19.6440  -31.6920   36.9650 C   0  0  0  0  0  0  0  0  0  0  0  0
   20.0040  -32.3050   35.6390 C   0  0  0  0  0  0  0  0  0  0  0  0
   18.7690  -35.8236   38.8501 H   0  0  0  0  0  0  0  0  0  0  0  0
   18.4498  -34.2838   39.9259 H   0  0  0  0  0  0  0  0  0  0  0  0
   19.5240  -34.4218   37.0395 H   0  0  0  0  0  0  0  0  0  0  0  0
   18.6304  -32.4534   40.1414 H   0  0  0  0  0  0  0  0  0  0  0  0
   18.7423  -29.9824   40.3590 H   0  0  0  0  0  0  0  0  0  0  0  0
   17.3467  -26.1443   35.7850 H   0  0  0  0  0  0  0  0  0  0  0  0
   17.1783  -23.6542   35.7229 H   0  0  0  0  0  0  0  0  0  0  0  0
   18.3772  -22.2768   37.4263 H   0  0  0  0  0  0  0  0  0  0  0  0
   19.4560  -22.3590   39.5770 H   0  0  0  0  0  0  0  0  0  0  0  0
   21.2300  -29.0580   40.2450 H   0  0  0  0  0  0  0  0  0  0  0  0
   20.0174  -29.6792   36.2470 H   0  0  0  0  0  0  0  0  0  0  0  0
   20.5546  -33.2425   35.8059 H   0  0  0  0  0  0  0  0  0  0  0  0
   19.0858  -32.5151   35.0708 H   0  0  0  0  0  0  0  0  0  0  0  0
   20.6348  -31.6055   35.0708 H   0  0  0  0  0  0  0  0  0  0  0  0
  1  2  2  0
  2  3  1  0
  3  4  2  0
  4  5  1  0
  5  6  2  0
  6  7  1  0
  7  8  1  0
  8  9  1  0
  9 10  2  0
 10 11  1  0
 11 12  2  0
 12 13  1  0
 13 14  1  0
 13 15  2  0
 15 16  1  0
 16 17  2  0
 16 18  1  0
 18 19  1  0
  6 20  1  0
 20 21  2  0
 21 22  1  0
 21  3  1  0
 18  7  2  0
 15  9  1  0
  1 23  1  0
  1 24  1  0
  2 25  1  0
  4 26  1  0
  5 27  1  0
 10 28  1  0
 11 29  1  0
 12 30  1  0
 14 31  1  0
 19 32  1  0
 20 33  1  0
 22 34  1  0
 22 35  1  0
 22 36  1  0
M  END
>  <meeko>  (6) 
{"is_sidechain": [false], "free_energy": -6.72, "intermolecular_energy": -8.037, "internal_energy": -0.226}

$$$$
cand_040_out
     RDKit          3D

 36 38  0  0  0  0  0  0  0  0999 V2000
   23.0480  -26.5200   45.3560 C   0  0  0  0  0  0  0  0  0  0  0  0
   22.4950  -27.4980   44.6270 C   0  0  0  0  0  0  0  0  0  0  0  0
   21.9040  -27.2840   43.2990 C   0  0  0  0  0  0  0  0  0  0  0  0
   20.7660  -26.4750   43.1700 C   0  0  0  0  0  0  0  0  0  0  0  0
   20.2000  -26.2230   41.9160 C   0  0  0  0  0  0  0  0  0  0  0  0
   20.7660  -26.7630   40.7560 C   0  0  0  0  0  0  0  0  0  0  0  0
   20.1390  -26.5040   39.4420 C   0  0  0  0  0  0  0  0  0  0  0  0
   19.9340  -25.1510   39.1990 O   0  0  0  0  0  0  0  0  0  0  0  0
   19.3590  -24.7700   38.0140 C   0  0  0  0  0  0  0  0  0  0  0  0
   19.1570  -23.4020   37.8190 C   0  0  0  0  0  0  0  0  0  0  0  0
   18.5770  -22.9470   36.6330 C   0  0  0  0  0  0  0  0  0  0  0  0
   18.1990  -23.8570   35.6430 C   0  0  0  0  0  0  0  0  0  0  0  0
   18.4010  -25.2200   35.8420 C   0  0  0  0  0  0  0  0  0  0  0  0
   18.0090  -26.0550   34.8320 O   0  0  0  0  0  0  0  0  0  0  0  0
   18.9810  -25.6760   37.0280 C   0  0  0  0  0  0  0  0  0  0  0  0
   19.2110  -27.1000   37.2770 C   0  0  0  0  0  0  0  0  0  0  0  0
   18.9130  -27.9610   36.4510 O   0  0  0  0  0  0  0  0  0  0  0  0
   19.8250  -27.4800   38.5700 C   0  0  0  0  0  0  0  0  0  0  0  0
   20.0500  -28.8260   38.7880 O   0  0  0  0  0  0  0  0  0  0  0  0
   21.9050  -27.5720   40.8840 C   0  0  0  0  0  0  0  0  0  0  0  0
   22.4840  -27.8380   42.1410 C   0  0  0  0  0  0  0  0  0  0  0  0
   23.7120  -28.7050   42.2060 C   0  0  0  0  0  0  0  0  0  0  0  0
   23.4743  -26.7449   46.3448 H   0  0  0  0  0  0  0  0  0  0  0  0
   23.0758  -25.4918   44.9660 H   0  0  0  0  0  0  0  0  0  0  0  0
   22.4826  -28.5155   45.0447 H   0  0  0  0  0  0  0  0  0  0  0  0
   20.3116  -26.0319   44.0684 H   0  0  0  0  0  0  0  0  0  0  0  0
   19.3008  -25.5939   41.8410 H   0  0  0  0  0  0  0  0  0  0  0  0
   19.4541  -22.6844   38.5980 H   0  0  0  0  0  0  0  0  0  0  0  0
   18.4175  -21.8697   36.4781 H   0  0  0  0  0  0  0  0  0  0  0  0
   17.7430  -23.4977   34.7087 H   0  0  0  0  0  0  0  0  0  0  0  0
   18.5820  -26.2170   34.1070 H   0  0  0  0  0  0  0  0  0  0  0  0
   20.1880  -29.1430   39.6600 H   0  0  0  0  0  0  0  0  0  0  0  0
   22.3570  -28.0092   39.9815 H   0  0  0  0  0  0  0  0  0  0  0  0
   23.9747  -28.8904   43.2580 H   0  0  0  0  0  0  0  0  0  0  0  0
   23.5115  -29.6629   41.7038 H   0  0  0  0  0  0  0  0  0  0  0  0
   24.5476  -28.1955   41.7038 H   0  0  0  0  0  0  0  0  0  0  0  0
  1  2  2  0
  2  3  1  0
  3  4  2  0
  4  5  1  0
  5  6  2  0
  6  7  1  0
  7  8  1  0
  8  9  1  0
  9 10  2  0
 10 11  1  0
 11 12  2  0
 12 13  1  0
 13 14  1  0
 13 15  2  0
 15 16  1  0
 16 17  2  0
 16 18  1  0
 18 19  1  0
  6 20  1  0
 20 21  2  0
 21 22  1  0
 21  3  1  0
 18  7  2  0
 15  9  1  0
  1 23  1  0
  1 24  1  0
  2 25  1  0
  4 26  1  0
  5 27  1  0
 10 28  1  0
 11 29  1  0
 12 30  1  0
 14 31  1  0
 19 32  1  0
 20 33  1  0
 22 34  1  0
 22 35  1  0
 22 36  1  0
M  END
>  <meeko>  (7) 
{"is_sidechain": [false], "free_energy": -6.71, "intermolecular_energy": -8.033, "internal_energy": -0.218}

$$$$
cand_040_out
     RDKit          3D

 36 38  0  0  0  0  0  0  0  0999 V2000
   20.5090  -24.6890   49.2920 C   0  0  0  0  0  0  0  0  0  0  0  0
   20.6780  -23.8040   48.3010 C   0  0  0  0  0  0  0  0  0  0  0  0
   20.5660  -24.1500   46.8770 C   0  0  0  0  0  0  0  0  0  0  0  0
   21.5900  -24.8840   46.2600 C   0  0  0  0  0  0  0  0  0  0  0  0
   21.4970  -25.2580   44.9160 C   0  0  0  0  0  0  0  0  0  0  0  0
   20.3710  -24.9220   44.1570 C   0  0  0  0  0  0  0  0  0  0  0  0
   20.3030  -25.3060   42.7310 C   0  0  0  0  0  0  0  0  0  0  0  0
   19.9170  -24.2560   41.9060 O   0  0  0  0  0  0  0  0  0  0  0  0
   19.8140  -24.4760   40.5570 C   0  0  0  0  0  0  0  0  0  0  0  0
   19.4080  -23.3970   39.7690 C   0  0  0  0  0  0  0  0  0  0  0  0
   19.2840  -23.5530   38.3870 C   0  0  0  0  0  0  0  0  0  0  0  0
   19.5650  -24.7860   37.7930 C   0  0  0  0  0  0  0  0  0  0  0  0
   19.9690  -25.8600   38.5820 C   0  0  0  0  0  0  0  0  0  0  0  0
   20.2290  -27.0370   37.9360 O   0  0  0  0  0  0  0  0  0  0  0  0
   20.0930  -25.7040   39.9650 C   0  0  0  0  0  0  0  0  0  0  0  0
   20.5140  -26.8060   40.8310 C   0  0  0  0  0  0  0  0  0  0  0  0
   20.7860  -27.9180   40.3820 O   0  0  0  0  0  0  0  0  0  0  0  0
   20.6060  -26.5400   42.2840 C   0  0  0  0  0  0  0  0  0  0  0  0
   21.0180  -27.5840   43.0910 O   0  0  0  0  0  0  0  0  0  0  0  0
   19.3470  -24.1870   44.7730 C   0  0  0  0  0  0  0  0  0  0  0  0
   19.4280  -23.7990   46.1260 C   0  0  0  0  0  0  0  0  0  0  0  0
   18.2880  -23.0230   46.7280 C   0  0  0  0  0  0  0  0  0  0  0  0
   20.6062  -24.3671   50.3394 H   0  0  0  0  0  0  0  0  0  0  0  0
   20.2730  -25.7377   49.0585 H   0  0  0  0  0  0  0  0  0  0  0  0
   20.9131  -22.7629   48.5670 H   0  0  0  0  0  0  0  0  0  0  0  0
   22.4788  -25.1694   46.8419 H   0  0  0  0  0  0  0  0  0  0  0  0
   22.3182  -25.8226   44.4504 H   0  0  0  0  0  0  0  0  0  0  0  0
   19.1863  -22.4261   40.2361 H   0  0  0  0  0  0  0  0  0  0  0  0
   18.9646  -22.7038   37.7650 H   0  0  0  0  0  0  0  0  0  0  0  0
   19.4673  -24.9081   36.7042 H   0  0  0  0  0  0  0  0  0  0  0  0
   19.6390  -27.7600   38.0220 H   0  0  0  0  0  0  0  0  0  0  0  0
   21.8980  -27.9010   43.0340 H   0  0  0  0  0  0  0  0  0  0  0  0
   18.4597  -23.9067   44.1863 H   0  0  0  0  0  0  0  0  0  0  0  0
   18.3532  -23.0674   47.8252 H   0  0  0  0  0  0  0  0  0  0  0  0
   18.3441  -21.9747   46.3995 H   0  0  0  0  0  0  0  0  0  0  0  0
   17.3333  -23.4596   46.3995 H   0  0  0  0  0  0  0  0  0  0  0  0
  1  2  2  0
  2  3  1  0
  3  4  2  0
  4  5  1  0
  5  6  2  0
  6  7  1  0
  7  8  1  0
  8  9  1  0
  9 10  2  0
 10 11  1  0
 11 12  2  0
 12 13  1  0
 13 14  1  0
 13 15  2  0
 15 16  1  0
 16 17  2  0
 16 18  1  0
 18 19  1  0
  6 20  1  0
 20 21  2  0
 21 22  1  0
 21  3  1  0
 18  7  2  0
 15  9  1  0
  1 23  1  0
  1 24  1  0
  2 25  1  0
  4 26  1  0
  5 27  1  0
 10 28  1  0
 11 29  1  0
 12 30  1  0
 14 31  1  0
 19 32  1  0
 20 33  1  0
 22 34  1  0
 22 35  1  0
 22 36  1  0
M  END
>  <meeko>  (8) 
{"is_sidechain": [false], "free_energy": -6.666, "intermolecular_energy": -8.043, "internal_energy": -0.155}

$$$$
cand_040_out
     RDKit          3D

 36 38  0  0  0  0  0  0  0  0999 V2000
   23.2650  -22.5210   49.8490 C   0  0  0  0  0  0  0  0  0  0  0  0
   22.1090  -23.1520   49.6090 C   0  0  0  0  0  0  0  0  0  0  0  0
   21.5850  -23.3970   48.2580 C   0  0  0  0  0  0  0  0  0  0  0  0
   22.0630  -22.6380   47.1810 C   0  0  0  0  0  0  0  0  0  0  0  0
   21.6110  -22.8710   45.8790 C   0  0  0  0  0  0  0  0  0  0  0  0
   20.6770  -23.8800   45.6170 C   0  0  0  0  0  0  0  0  0  0  0  0
   20.1940  -24.0950   44.2360 C   0  0  0  0  0  0  0  0  0  0  0  0
   20.4480  -25.3790   43.7690 O   0  0  0  0  0  0  0  0  0  0  0  0
   20.0500  -25.7140   42.5000 C   0  0  0  0  0  0  0  0  0  0  0  0
   20.3400  -27.0090   42.0670 C   0  0  0  0  0  0  0  0  0  0  0  0
   19.9610  -27.4150   40.7860 C   0  0  0  0  0  0  0  0  0  0  0  0
   19.2930  -26.5280   39.9380 C   0  0  0  0  0  0  0  0  0  0  0  0
   19.0060  -25.2370   40.3740 C   0  0  0  0  0  0  0  0  0  0  0  0
   18.3490  -24.4210   39.4940 O   0  0  0  0  0  0  0  0  0  0  0  0
   19.3860  -24.8300   41.6560 C   0  0  0  0  0  0  0  0  0  0  0  0
   19.1040  -23.4830   42.1520 C   0  0  0  0  0  0  0  0  0  0  0  0
   18.5130  -22.6480   41.4690 O   0  0  0  0  0  0  0  0  0  0  0  0
   19.5550  -23.1490   43.5230 C   0  0  0  0  0  0  0  0  0  0  0  0
   19.2720  -21.8780   43.9860 O   0  0  0  0  0  0  0  0  0  0  0  0
   20.1980  -24.6400   46.6940 C   0  0  0  0  0  0  0  0  0  0  0  0
   20.6420  -24.4140   48.0120 C   0  0  0  0  0  0  0  0  0  0  0  0
   20.0940  -25.2740   49.1190 C   0  0  0  0  0  0  0  0  0  0  0  0
   23.6035  -22.3681   50.8844 H   0  0  0  0  0  0  0  0  0  0  0  0
   23.8764  -22.1554   49.0108 H   0  0  0  0  0  0  0  0  0  0  0  0
   21.5203  -23.5057   50.4683 H   0  0  0  0  0  0  0  0  0  0  0  0
   22.8052  -21.8468   47.3632 H   0  0  0  0  0  0  0  0  0  0  0  0
   21.9933  -22.2550   45.0517 H   0  0  0  0  0  0  0  0  0  0  0  0
   20.8660  -27.7082   42.7337 H   0  0  0  0  0  0  0  0  0  0  0  0
   20.1888  -28.4353   40.4437 H   0  0  0  0  0  0  0  0  0  0  0  0
   18.9947  -26.8485   38.9289 H   0  0  0  0  0  0  0  0  0  0  0  0
   18.7480  -24.1950   38.6760 H   0  0  0  0  0  0  0  0  0  0  0  0
   18.7170  -21.3100   43.4880 H   0  0  0  0  0  0  0  0  0  0  0  0
   19.4579  -25.4316   46.5052 H   0  0  0  0  0  0  0  0  0  0  0  0
   20.3704  -24.8402   50.0913 H   0  0  0  0  0  0  0  0  0  0  0  0
   18.9981  -25.3225   49.0374 H   0  0  0  0  0  0  0  0  0  0  0  0
   20.5130  -26.2878   49.0374 H   0  0  0  0  0  0  0  0  0  0  0  0
  1  2  2  0
  2  3  1  0
  3  4  2  0
  4  5  1  0
  5  6  2  0
  6  7  1  0
  7  8  1  0
  8  9  1  0
  9 10  2  0
 10 11  1  0
 11 12  2  0
 12 13  1  0
 13 14  1  0
 13 15  2  0
 15 16  1  0
 16 17  2  0
 16 18  1  0
 18 19  1  0
  6 20  1  0
 20 21  2  0
 21 22  1  0
 21  3  1  0
 18  7  2  0
 15  9  1  0
  1 23  1  0
  1 24  1  0
  2 25  1  0
  4 26  1  0
  5 27  1  0
 10 28  1  0
 11 29  1  0
 12 30  1  0
 14 31  1  0
 19 32  1  0
 20 33  1  0
 22 34  1  0
 22 35  1  0
 22 36  1  0
M  END
>  <meeko>  (9) 
{"is_sidechain": [false], "free_energy": -6.639, "intermolecular_energy": -7.874, "internal_energy": -0.293}

$$$$
