cand_025_out
     RDKit          3D

 53 56  0  0  0  0  0  0  0  0999 V2000
   21.9200  -27.6410   43.0070 C   0  0  0  0  0  0  0  0  0  0  0  0
   22.0370  -27.1720   41.5650 C   0  0  0  0  0  0  0  0  0  0  0  0
   20.7770  -27.4520   40.7750 C   0  0  0  0  0  0  0  0  0  0  0  0
   20.6630  -28.6840   40.0990 C   0  0  0  0  0  0  0  0  0  0  0  0
   19.5290  -29.0040   39.3440 C   0  0  0  0  0  0  0  0  0  0  0  0
   19.4140  -30.2830   38.6120 C   0  0  0  0  0  0  0  0  0  0  0  0
   19.0570  -31.3450   39.4340 O   0  0  0  0  0  0  0  0  0  0  0  0
   18.9140  -32.5930   38.8820 C   0  0  0  0  0  0  0  0  0  0  0  0
   18.5390  -33.6260   39.7400 C   0  0  0  0  0  0  0  0  0  0  0  0
   18.3780  -34.9220   39.2430 C   0  0  0  0  0  0  0  0  0  0  0  0
   18.5920  -35.1820   37.8880 C   0  0  0  0  0  0  0  0  0  0  0  0
   18.9660  -34.1490   37.0340 C   0  0  0  0  0  0  0  0  0  0  0  0
   19.1600  -34.4740   35.7190 O   0  0  0  0  0  0  0  0  0  0  0  0
   19.1270  -32.8530   37.5310 C   0  0  0  0  0  0  0  0  0  0  0  0
   19.5190  -31.7380   36.6680 C   0  0  0  0  0  0  0  0  0  0  0  0
   19.7320  -31.8900   35.4670 O   0  0  0  0  0  0  0  0  0  0  0  0
   19.6540  -30.4020   37.2920 C   0  0  0  0  0  0  0  0  0  0  0  0
   20.0370  -29.3600   36.4700 O   0  0  0  0  0  0  0  0  0  0  0  0
   18.5040  -28.0560   39.2550 C   0  0  0  0  0  0  0  0  0  0  0  0
   18.6070  -26.8270   39.9150 C   0  0  0  0  0  0  0  0  0  0  0  0
   19.7400  -26.5020   40.6760 C   0  0  0  0  0  0  0  0  0  0  0  0
   19.8620  -25.2730   41.3510 N   0  0  0  0  0  0  0  0  0  0  0  0
   19.3750  -24.1060   40.5820 C   0  0  0  0  0  0  0  0  0  0  0  0
   19.6830  -22.8040   41.3590 C   0  0  0  0  0  0  0  0  0  0  0  0
   19.0890  -22.8030   42.7170 N   0  0  0  0  0  0  0  0  0  0  0  0
   19.4480  -21.5820   43.4340 C   0  0  0  0  0  0  0  0  0  0  0  0
   19.5610  -23.9990   43.4550 C   0  0  0  0  0  0  0  0  0  0  0  0
   19.2650  -25.3190   42.7040 C   0  0  0  0  0  0  0  0  0  0  0  0
   22.1298  -26.8000   43.6843 H   0  0  0  0  0  0  0  0  0  0  0  0
   20.9013  -28.0137   43.1898 H   0  0  0  0  0  0  0  0  0  0  0  0
   22.6442  -28.4485   43.1898 H   0  0  0  0  0  0  0  0  0  0  0  0
   22.2274  -26.0886   41.5580 H   0  0  0  0  0  0  0  0  0  0  0  0
   22.8637  -27.7237   41.0938 H   0  0  0  0  0  0  0  0  0  0  0  0
   21.4854  -29.4114   40.1667 H   0  0  0  0  0  0  0  0  0  0  0  0
   18.3700  -33.4209   40.8074 H   0  0  0  0  0  0  0  0  0  0  0  0
   18.0826  -35.7376   39.9194 H   0  0  0  0  0  0  0  0  0  0  0  0
   18.4651  -36.2020   37.4961 H   0  0  0  0  0  0  0  0  0  0  0  0
   19.5540  -33.8540   35.1360 H   0  0  0  0  0  0  0  0  0  0  0  0
   19.7590  -28.4860   36.6600 H   0  0  0  0  0  0  0  0  0  0  0  0
   17.6068  -28.2797   38.6592 H   0  0  0  0  0  0  0  0  0  0  0  0
   17.7840  -26.1015   39.8359 H   0  0  0  0  0  0  0  0  0  0  0  0
   19.8786  -24.0763   39.6045 H   0  0  0  0  0  0  0  0  0  0  0  0
   18.2884  -24.1942   40.4352 H   0  0  0  0  0  0  0  0  0  0  0  0
   20.7739  -22.6968   41.4504 H   0  0  0  0  0  0  0  0  0  0  0  0
   19.2414  -21.9665   40.7989 H   0  0  0  0  0  0  0  0  0  0  0  0
   18.0720  -22.8320   42.6400 H   0  0  0  0  0  0  0  0  0  0  0  0
   19.3945  -21.7639   44.5175 H   0  0  0  0  0  0  0  0  0  0  0  0
   20.4716  -21.2847   43.1622 H   0  0  0  0  0  0  0  0  0  0  0  0
   18.7482  -20.7780   43.1622 H   0  0  0  0  0  0  0  0  0  0  0  0
   20.6476  -23.9147   43.6037 H   0  0  0  0  0  0  0  0  0  0  0  0
   19.0210  -24.0332   44.4127 H   0  0  0  0  0  0  0  0  0  0  0  0
   19.6957  -26.1620   43.2643 H   0  0  0  0  0  0  0  0  0  0  0  0
   18.1763  -25.4491   42.6154 H   0  0  0  0  0  0  0  0  0  0  0  0
  1  2  1  0
  2  3  1  0
  3  4  2  0
  4  5  1  0
  5  6  1  0
  6  7  1  0
  7  8  1  0
  8  9  2  0
  9 10  1  0
 10 11  2  0
 11 12  1  0
 12 13  1  0
 12 14  2  0
 14 15  1  0
 15 16  2  0
 15 17  1  0
 17 18  1  0
  5 19  2  0
 19 20  1  0
 20 21  2  0
 21 22  1  0
 22 23  1  0
 23 24  1  0
 24 25  1  0
 25 26  1  0
 25 27  1  0
 27 28  1  0
 21  3  1  0
 28 22  1  0
 17  6  2  0
 14  8  1  0
  1 29  1  0
  1 30  1  0
  1 31  1  0
  2 32  1  0
  2 33  1  0
  4 34  1  0
  9 35  1  0
 10 36  1  0
 11 37  1  0
 13 38  1  0
 18 39  1  0
 19 40  1  0
 20 41  1  0
 23 42  1  0
 23 43  1  0
 24 44  1  0
 24 45  1  0
 25 46  1  0
 26 47  1  0
 26 48  1  0
 26 49  1  0
 27 50  1  0
 27 51  1  0
 28 52  1  0
 28 53  1  0
M  CHG  1  25   1
M  END
>  <meeko>  (1) 
{"is_sidechain": [false], "free_energy": -7.963, "intermolecular_energy": -9.825, "internal_energy": -0.581}

$$$$
cand_025_out
     RDKit          3D

 53 56  0  0  0  0  0  0  0  0999 V2000
   17.9480  -25.2240   37.5230 C   0  0  0  0  0  0  0  0  0  0  0  0
   17.5630  -25.7320   38.9040 C   0  0  0  0  0  0  0  0  0  0  0  0
   18.4970  -26.8180   39.3890 C   0  0  0  0  0  0  0  0  0  0  0  0
   18.5080  -28.0530   38.7080 C   0  0  0  0  0  0  0  0  0  0  0  0
   19.3420  -29.1040   39.1090 C   0  0  0  0  0  0  0  0  0  0  0  0
   19.3410  -30.4090   38.4150 C   0  0  0  0  0  0  0  0  0  0  0  0
   18.9580  -31.4600   39.2410 O   0  0  0  0  0  0  0  0  0  0  0  0
   18.9130  -32.7280   38.7230 C   0  0  0  0  0  0  0  0  0  0  0  0
   18.5090  -33.7500   39.5820 C   0  0  0  0  0  0  0  0  0  0  0  0
   18.4420  -35.0660   39.1180 C   0  0  0  0  0  0  0  0  0  0  0  0
   18.7800  -35.3590   37.7950 C   0  0  0  0  0  0  0  0  0  0  0  0
   19.1830  -34.3370   36.9390 C   0  0  0  0  0  0  0  0  0  0  0  0
   19.4990  -34.6940   35.6570 O   0  0  0  0  0  0  0  0  0  0  0  0
   19.2490  -33.0210   37.4040 C   0  0  0  0  0  0  0  0  0  0  0  0
   19.6660  -31.9180   36.5370 C   0  0  0  0  0  0  0  0  0  0  0  0
   19.9860  -32.0980   35.3640 O   0  0  0  0  0  0  0  0  0  0  0  0
   19.6950  -30.5590   37.1240 C   0  0  0  0  0  0  0  0  0  0  0  0
   20.1030  -29.5270   36.3010 O   0  0  0  0  0  0  0  0  0  0  0  0
   20.1610  -28.9090   40.2260 C   0  0  0  0  0  0  0  0  0  0  0  0
   20.1540  -27.6920   40.9150 C   0  0  0  0  0  0  0  0  0  0  0  0
   19.3230  -26.6350   40.5160 C   0  0  0  0  0  0  0  0  0  0  0  0
   19.3040  -25.4000   41.1930 N   0  0  0  0  0  0  0  0  0  0  0  0
   19.7390  -25.4750   42.6050 C   0  0  0  0  0  0  0  0  0  0  0  0
   19.5480  -24.0970   43.2830 C   0  0  0  0  0  0  0  0  0  0  0  0
   20.2800  -23.0160   42.5820 N   0  0  0  0  0  0  0  0  0  0  0  0
   20.0290  -21.7260   43.2220 C   0  0  0  0  0  0  0  0  0  0  0  0
   19.8560  -22.9840   41.1620 C   0  0  0  0  0  0  0  0  0  0  0  0
   20.0370  -24.3480   40.4540 C   0  0  0  0  0  0  0  0  0  0  0  0
   18.6096  -24.3511   37.6247 H   0  0  0  0  0  0  0  0  0  0  0  0
   18.4722  -26.0193   36.9728 H   0  0  0  0  0  0  0  0  0  0  0  0
   17.0406  -24.9343   36.9728 H   0  0  0  0  0  0  0  0  0  0  0  0
   17.5964  -24.8920   39.6134 H   0  0  0  0  0  0  0  0  0  0  0  0
   16.5510  -26.1582   38.8392 H   0  0  0  0  0  0  0  0  0  0  0  0
   17.8456  -28.1940   37.8412 H   0  0  0  0  0  0  0  0  0  0  0  0
   18.2433  -33.5199   40.6243 H   0  0  0  0  0  0  0  0  0  0  0  0
   18.1228  -35.8720   39.7951 H   0  0  0  0  0  0  0  0  0  0  0  0
   18.7280  -36.3953   37.4297 H   0  0  0  0  0  0  0  0  0  0  0  0
   20.3940  -34.6900   35.3770 H   0  0  0  0  0  0  0  0  0  0  0  0
   20.8550  -29.0150   36.5270 H   0  0  0  0  0  0  0  0  0  0  0  0
   20.8184  -29.7225   40.5666 H   0  0  0  0  0  0  0  0  0  0  0  0
   20.8127  -27.5613   41.7863 H   0  0  0  0  0  0  0  0  0  0  0  0
   19.1374  -26.2292   43.1335 H   0  0  0  0  0  0  0  0  0  0  0  0
   20.8016  -25.7565   42.6446 H   0  0  0  0  0  0  0  0  0  0  0  0
   18.4757  -23.8516   43.2884 H   0  0  0  0  0  0  0  0  0  0  0  0
   19.9507  -24.1671   44.3042 H   0  0  0  0  0  0  0  0  0  0  0  0
   21.2820  -23.2000   42.6320 H   0  0  0  0  0  0  0  0  0  0  0  0
   20.0528  -21.8481   44.3149 H   0  0  0  0  0  0  0  0  0  0  0  0
   20.8043  -21.0080   42.9163 H   0  0  0  0  0  0  0  0  0  0  0  0
   19.0411  -21.3511   42.9163 H   0  0  0  0  0  0  0  0  0  0  0  0
   18.7934  -22.7030   41.1182 H   0  0  0  0  0  0  0  0  0  0  0  0
   20.4919  -22.2526   40.6417 H   0  0  0  0  0  0  0  0  0  0  0  0
   19.6444  -24.2817   39.4286 H   0  0  0  0  0  0  0  0  0  0  0  0
   21.1067  -24.6029   40.4268 H   0  0  0  0  0  0  0  0  0  0  0  0
  1  2  1  0
  2  3  1  0
  3  4  2  0
  4  5  1  0
  5  6  1  0
  6  7  1  0
  7  8  1  0
  8  9  2  0
  9 10  1  0
 10 11  2  0
 11 12  1  0
 12 13  1  0
 12 14  2  0
 14 15  1  0
 15 16  2  0
 15 17  1  0
 17 18  1  0
  5 19  2  0
 19 20  1  0
 20 21  2  0
 21 22  1  0
 22 23  1  0
 23 24  1  0
 24 25  1  0
 25 26  1  0
 25 27  1  0
 27 28  1  0
 21  3  1  0
 28 22  1  0
 17  6  2  0
 14  8  1  0
  1 29  1  0
  1 30  1  0
  1 31  1  0
  2 32  1  0
  2 33  1  0
  4 34  1  0
  9 35  1  0
 10 36  1  0
 11 37  1  0
 13 38  1  0
 18 39  1  0
 19 40  1  0
 20 41  1  0
 23 42  1  0
 23 43  1  0
 24 44  1  0
 24 45  1  0
 25 46  1  0
 26 47  1  0
 26 48  1  0
 26 49  1  0
 27 50  1  0
 27 51  1  0
 28 52  1  0
 28 53  1  0
M  CHG  1  25   1
M  END
>  <meeko>  (2) 
{"is_sidechain": [false], "free_energy": -7.802, "intermolecular_energy": -9.866, "internal_energy": -0.341}

$$$$
cand_025_out
     RDKit          3D

 53 56  0  0  0  0  0  0  0  0999 V2000
   19.3320  -23.4870   38.1400 C   0  0  0  0  0  0  0  0  0  0  0  0
   19.6910  -24.6590   37.2400 C   0  0  0  0  0  0  0  0  0  0  0  0
   19.7600  -25.9620   38.0060 C   0  0  0  0  0  0  0  0  0  0  0  0
   20.4530  -25.9890   39.2330 C   0  0  0  0  0  0  0  0  0  0  0  0
   20.5620  -27.1620   39.9880 C   0  0  0  0  0  0  0  0  0  0  0  0
   21.3090  -27.2030   41.2630 C   0  0  0  0  0  0  0  0  0  0  0  0
   22.2750  -28.2020   41.2920 O   0  0  0  0  0  0  0  0  0  0  0  0
   23.0430  -28.3500   42.4180 C   0  0  0  0  0  0  0  0  0  0  0  0
   24.0110  -29.3550   42.3970 C   0  0  0  0  0  0  0  0  0  0  0  0
   24.8270  -29.5600   43.5130 C   0  0  0  0  0  0  0  0  0  0  0  0
   24.6730  -28.7620   44.6480 C   0  0  0  0  0  0  0  0  0  0  0  0
   23.7070  -27.7590   44.6660 C   0  0  0  0  0  0  0  0  0  0  0  0
   23.6100  -27.0140   45.8090 O   0  0  0  0  0  0  0  0  0  0  0  0
   22.8920  -27.5540   43.5500 C   0  0  0  0  0  0  0  0  0  0  0  0
   21.8640  -26.5120   43.5270 C   0  0  0  0  0  0  0  0  0  0  0  0
   21.6650  -25.7740   44.4900 O   0  0  0  0  0  0  0  0  0  0  0  0
   21.0580  -26.3710   42.2920 C   0  0  0  0  0  0  0  0  0  0  0  0
   20.0830  -25.3920   42.2860 O   0  0  0  0  0  0  0  0  0  0  0  0
   19.9770  -28.3290   39.4860 C   0  0  0  0  0  0  0  0  0  0  0  0
   19.2920  -28.3180   38.2670 C   0  0  0  0  0  0  0  0  0  0  0  0
   19.1780  -27.1450   37.5060 C   0  0  0  0  0  0  0  0  0  0  0  0
   18.4890  -27.1120   36.2790 N   0  0  0  0  0  0  0  0  0  0  0  0
   18.8460  -28.2080   35.3520 C   0  0  0  0  0  0  0  0  0  0  0  0
   18.1370  -27.9940   33.9940 C   0  0  0  0  0  0  0  0  0  0  0  0
   16.6640  -27.9040   34.1320 N   0  0  0  0  0  0  0  0  0  0  0  0
   16.0390  -27.6480   32.8370 C   0  0  0  0  0  0  0  0  0  0  0  0
   16.3320  -26.8250   35.0930 C   0  0  0  0  0  0  0  0  0  0  0  0
   17.0240  -27.0110   36.4640 C   0  0  0  0  0  0  0  0  0  0  0  0
   19.4252  -23.7913   39.1930 H   0  0  0  0  0  0  0  0  0  0  0  0
   20.0143  -22.6479   37.9390 H   0  0  0  0  0  0  0  0  0  0  0  0
   18.2968  -23.1740   37.9390 H   0  0  0  0  0  0  0  0  0  0  0  0
   18.9274  -24.7496   36.4534 H   0  0  0  0  0  0  0  0  0  0  0  0
   20.6846  -24.4649   36.8098 H   0  0  0  0  0  0  0  0  0  0  0  0
   20.9195  -25.0654   39.6062 H   0  0  0  0  0  0  0  0  0  0  0  0
   24.1316  -29.9849   41.5033 H   0  0  0  0  0  0  0  0  0  0  0  0
   25.5913  -30.3509   43.4970 H   0  0  0  0  0  0  0  0  0  0  0  0
   25.3138  -28.9252   45.5270 H   0  0  0  0  0  0  0  0  0  0  0  0
   24.0680  -27.2820   46.5830 H   0  0  0  0  0  0  0  0  0  0  0  0
   19.2800  -25.5330   41.8250 H   0  0  0  0  0  0  0  0  0  0  0  0
   20.0567  -29.2661   40.0566 H   0  0  0  0  0  0  0  0  0  0  0  0
   18.8336  -29.2472   37.8976 H   0  0  0  0  0  0  0  0  0  0  0  0
   19.9352  -28.2168   35.1984 H   0  0  0  0  0  0  0  0  0  0  0  0
   18.5259  -29.1682   35.7827 H   0  0  0  0  0  0  0  0  0  0  0  0
   18.5072  -27.0602   33.5458 H   0  0  0  0  0  0  0  0  0  0  0  0
   18.3612  -28.8635   33.3587 H   0  0  0  0  0  0  0  0  0  0  0  0
   16.3030  -28.7920   34.4840 H   0  0  0  0  0  0  0  0  0  0  0  0
   15.0312  -27.2352   32.9915 H   0  0  0  0  0  0  0  0  0  0  0  0
   16.6480  -26.9269   32.2721 H   0  0  0  0  0  0  0  0  0  0  0  0
   15.9671  -28.5891   32.2721 H   0  0  0  0  0  0  0  0  0  0  0  0
   16.6512  -25.8630   34.6656 H   0  0  0  0  0  0  0  0  0  0  0  0
   15.2456  -26.8550   35.2630 H   0  0  0  0  0  0  0  0  0  0  0  0
   16.7962  -26.1485   37.1076 H   0  0  0  0  0  0  0  0  0  0  0  0
   16.6538  -27.9339   36.9344 H   0  0  0  0  0  0  0  0  0  0  0  0
  1  2  1  0
  2  3  1  0
  3  4  2  0
  4  5  1  0
  5  6  1  0
  6  7  1  0
  7  8  1  0
  8  9  2  0
  9 10  1  0
 10 11  2  0
 11 12  1  0
 12 13  1  0
 12 14  2  0
 14 15  1  0
 15 16  2  0
 15 17  1  0
 17 18  1  0
  5 19  2  0
 19 20  1  0
 20 21  2  0
 21 22  1  0
 22 23  1  0
 23 24  1  0
 24 25  1  0
 25 26  1  0
 25 27  1  0
 27 28  1  0
 21  3  1  0
 28 22  1  0
 17  6  2  0
 14  8  1  0
  1 29  1  0
  1 30  1  0
  1 31  1  0
  2 32  1  0
  2 33  1  0
  4 34  1  0
  9 35  1  0
 10 36  1  0
 11 37  1  0
 13 38  1  0
 18 39  1  0
 19 40  1  0
 20 41  1  0
 23 42  1  0
 23 43  1  0
 24 44  1  0
 24 45  1  0
 25 46  1  0
 26 47  1  0
 26 48  1  0
 26 49  1  0
 27 50  1  0
 27 51  1  0
 28 52  1  0
 28 53  1  0
M  CHG  1  25   1
M  END
>  <meeko>  (3) 
{"is_sidechain": [false], "free_energy": -7.374, "intermolecular_energy": -9.18, "internal_energy": -0.499}

$$$$
cand_025_out
     RDKit          3D

 53 56  0  0  0  0  0  0  0  0999 V2000
   18.1240  -25.2360   37.4380 C   0  0  0  0  0  0  0  0  0  0  0  0
   17.7580  -25.7330   38.8280 C   0  0  0  0  0  0  0  0  0  0  0  0
   18.6270  -26.8930   39.2620 C   0  0  0  0  0  0  0  0  0  0  0  0
   18.6450  -28.0580   38.4670 C   0  0  0  0  0  0  0  0  0  0  0  0
   19.4200  -29.1700   38.8150 C   0  0  0  0  0  0  0  0  0  0  0  0
   19.4240  -30.4040   38.0000 C   0  0  0  0  0  0  0  0  0  0  0  0
   19.9680  -30.2140   36.7350 O   0  0  0  0  0  0  0  0  0  0  0  0
   20.0340  -31.2790   35.8740 C   0  0  0  0  0  0  0  0  0  0  0  0
   20.6010  -31.0470   34.6210 C   0  0  0  0  0  0  0  0  0  0  0  0
   20.6970  -32.0890   33.6950 C   0  0  0  0  0  0  0  0  0  0  0  0
   20.2250  -33.3620   34.0240 C   0  0  0  0  0  0  0  0  0  0  0  0
   19.6600  -33.5910   35.2750 C   0  0  0  0  0  0  0  0  0  0  0  0
   19.2190  -34.8600   35.5310 O   0  0  0  0  0  0  0  0  0  0  0  0
   19.5650  -32.5480   36.2010 C   0  0  0  0  0  0  0  0  0  0  0  0
   18.9780  -32.7460   37.5270 C   0  0  0  0  0  0  0  0  0  0  0  0
   18.5350  -33.8350   37.8860 O   0  0  0  0  0  0  0  0  0  0  0  0
   18.9310  -31.5780   38.4360 C   0  0  0  0  0  0  0  0  0  0  0  0
   18.3630  -31.7730   39.6810 O   0  0  0  0  0  0  0  0  0  0  0  0
   20.1730  -29.1110   39.9920 C   0  0  0  0  0  0  0  0  0  0  0  0
   20.1580  -27.9650   40.7930 C   0  0  0  0  0  0  0  0  0  0  0  0
   19.3850  -26.8460   40.4490 C   0  0  0  0  0  0  0  0  0  0  0  0
   19.3600  -25.6800   41.2390 N   0  0  0  0  0  0  0  0  0  0  0  0
   19.8500  -25.8730   42.6220 C   0  0  0  0  0  0  0  0  0  0  0  0
   19.6490  -24.5710   43.4320 C   0  0  0  0  0  0  0  0  0  0  0  0
   20.3250  -23.4070   42.8100 N   0  0  0  0  0  0  0  0  0  0  0  0
   20.0650  -22.1910   43.5760 C   0  0  0  0  0  0  0  0  0  0  0  0
   19.8470  -23.2570   41.4150 C   0  0  0  0  0  0  0  0  0  0  0  0
   20.0360  -24.5430   40.5760 C   0  0  0  0  0  0  0  0  0  0  0  0
   18.7743  -24.3530   37.5238 H   0  0  0  0  0  0  0  0  0  0  0  0
   18.6544  -26.0304   36.8924 H   0  0  0  0  0  0  0  0  0  0  0  0
   17.2080  -24.9652   36.8924 H   0  0  0  0  0  0  0  0  0  0  0  0
   17.8832  -24.9079   39.5446 H   0  0  0  0  0  0  0  0  0  0  0  0
   16.7150  -26.0813   38.8006 H   0  0  0  0  0  0  0  0  0  0  0  0
   18.0355  -28.0933   37.5520 H   0  0  0  0  0  0  0  0  0  0  0  0
   20.9723  -30.0445   34.3620 H   0  0  0  0  0  0  0  0  0  0  0  0
   21.1443  -31.9069   32.7067 H   0  0  0  0  0  0  0  0  0  0  0  0
   20.2998  -34.1824   33.2951 H   0  0  0  0  0  0  0  0  0  0  0  0
   19.2270  -35.5050   34.8500 H   0  0  0  0  0  0  0  0  0  0  0  0
   17.7560  -32.4740   39.8150 H   0  0  0  0  0  0  0  0  0  0  0  0
   20.7838  -29.9756   40.2909 H   0  0  0  0  0  0  0  0  0  0  0  0
   20.7641  -27.9404   41.7107 H   0  0  0  0  0  0  0  0  0  0  0  0
   19.2886  -26.6904   43.0982 H   0  0  0  0  0  0  0  0  0  0  0  0
   20.9203  -26.1256   42.5976 H   0  0  0  0  0  0  0  0  0  0  0  0
   18.5716  -24.3594   43.4986 H   0  0  0  0  0  0  0  0  0  0  0  0
   20.0927  -24.7237   44.4269 H   0  0  0  0  0  0  0  0  0  0  0  0
   21.3330  -23.5650   42.8070 H   0  0  0  0  0  0  0  0  0  0  0  0
   20.1135  -22.4176   44.6513 H   0  0  0  0  0  0  0  0  0  0  0  0
   20.8212  -21.4320   43.3268 H   0  0  0  0  0  0  0  0  0  0  0  0
   19.0646  -21.8075   43.3268 H   0  0  0  0  0  0  0  0  0  0  0  0
   18.7766  -23.0046   41.4353 H   0  0  0  0  0  0  0  0  0  0  0  0
   20.4442  -22.4627   40.9434 H   0  0  0  0  0  0  0  0  0  0  0  0
   19.6024  -24.3934   39.5762 H   0  0  0  0  0  0  0  0  0  0  0  0
   21.1101  -24.7624   40.4860 H   0  0  0  0  0  0  0  0  0  0  0  0
  1  2  1  0
  2  3  1  0
  3  4  2  0
  4  5  1  0
  5  6  1  0
  6  7  1  0
  7  8  1  0
  8  9  2  0
  9 10  1  0
 10 11  2  0
 11 12  1  0
 12 13  1  0
 12 14  2  0
 14 15  1  0
 15 16  2  0
 15 17  1  0
 17 18  1  0
  5 19  2  0
 19 20  1  0
 20 21  2  0
 21 22  1  0
 22 23  1  0
 23 24  1  0
 24 25  1  0
 25 26  1  0
 25 27  1  0
 27 28  1  0
 21  3  1  0
 28 22  1  0
 17  6  2  0
 14  8  1  0
  1 29  1  0
  1 30  1  0
  1 31  1  0
  2 32  1  0
  2 33  1  0
  4 34  1  0
  9 35  1  0
 10 36  1  0
 11 37  1  0
 13 38  1  0
 18 39  1  0
 19 40  1  0
 20 41  1  0
 23 42  1  0
 23 43  1  0
 24 44  1  0
 24 45  1  0
 25 46  1  0
 26 47  1  0
 26 48  1  0
 26 49  1  0
 27 50  1  0
 27 51  1  0
 28 52  1  0
 28 53  1  0
M  CHG  1  25   1
M  END
>  <meeko>  (4) 
{"is_sidechain": [false], "free_energy": -7.145, "intermolecular_energy": -9.175, "internal_energy": -0.222}

$$$$
cand_025_out
     RDKit          3D

 53 56  0  0  0  0  0  0  0  0999 V2000
   21.2610  -21.1490   43.3030 C   0  0  0  0  0  0  0  0  0  0  0  0
   19.8390  -21.6540   43.1070 C   0  0  0  0  0  0  0  0  0  0  0  0
   19.8080  -23.1000   42.6660 C   0  0  0  0  0  0  0  0  0  0  0  0
   19.5940  -23.3870   41.3030 C   0  0  0  0  0  0  0  0  0  0  0  0
   19.5460  -24.7030   40.8280 C   0  0  0  0  0  0  0  0  0  0  0  0
   19.2960  -25.0110   39.4040 C   0  0  0  0  0  0  0  0  0  0  0  0
   18.1670  -24.3720   38.9030 O   0  0  0  0  0  0  0  0  0  0  0  0
   17.8200  -24.5700   37.5920 C   0  0  0  0  0  0  0  0  0  0  0  0
   16.6900  -23.8980   37.1270 C   0  0  0  0  0  0  0  0  0  0  0  0
   16.2790  -24.0570   35.8010 C   0  0  0  0  0  0  0  0  0  0  0  0
   17.0000  -24.8880   34.9410 C   0  0  0  0  0  0  0  0  0  0  0  0
   18.1290  -25.5580   35.4070 C   0  0  0  0  0  0  0  0  0  0  0  0
   18.7870  -26.3560   34.5120 O   0  0  0  0  0  0  0  0  0  0  0  0
   18.5380  -25.3980   36.7340 C   0  0  0  0  0  0  0  0  0  0  0  0
   19.7180  -26.0830   37.2640 C   0  0  0  0  0  0  0  0  0  0  0  0
   20.3990  -26.8360   36.5710 O   0  0  0  0  0  0  0  0  0  0  0  0
   20.0720  -25.8400   38.6820 C   0  0  0  0  0  0  0  0  0  0  0  0
   21.1800  -26.5030   39.1750 O   0  0  0  0  0  0  0  0  0  0  0  0
   19.6970  -25.7440   41.7500 C   0  0  0  0  0  0  0  0  0  0  0  0
   19.9040  -25.4750   43.1060 C   0  0  0  0  0  0  0  0  0  0  0  0
   19.9560  -24.1580   43.5870 C   0  0  0  0  0  0  0  0  0  0  0  0
   20.1670  -23.8640   44.9480 N   0  0  0  0  0  0  0  0  0  0  0  0
   18.9390  -23.8930   45.7730 C   0  0  0  0  0  0  0  0  0  0  0  0
   19.2670  -23.4250   47.2110 C   0  0  0  0  0  0  0  0  0  0  0  0
   20.3260  -24.2450   47.8460 N   0  0  0  0  0  0  0  0  0  0  0  0
   20.6420  -23.7360   49.1780 C   0  0  0  0  0  0  0  0  0  0  0  0
   21.5320  -24.2320   46.9830 C   0  0  0  0  0  0  0  0  0  0  0  0
   21.2380  -24.6980   45.5370 C   0  0  0  0  0  0  0  0  0  0  0  0
   21.4778  -21.0720   44.3787 H   0  0  0  0  0  0  0  0  0  0  0  0
   21.9672  -21.8513   42.8360 H   0  0  0  0  0  0  0  0  0  0  0  0
   21.3660  -20.1586   42.8360 H   0  0  0  0  0  0  0  0  0  0  0  0
   19.2946  -21.5609   44.0583 H   0  0  0  0  0  0  0  0  0  0  0  0
   19.3684  -21.0479   42.3188 H   0  0  0  0  0  0  0  0  0  0  0  0
   19.4613  -22.5561   40.5945 H   0  0  0  0  0  0  0  0  0  0  0  0
   16.1222  -23.2428   37.8040 H   0  0  0  0  0  0  0  0  0  0  0  0
   15.3873  -23.5274   35.4345 H   0  0  0  0  0  0  0  0  0  0  0  0
   16.6769  -25.0134   33.8970 H   0  0  0  0  0  0  0  0  0  0  0  0
   18.6110  -26.2750   33.5950 H   0  0  0  0  0  0  0  0  0  0  0  0
   21.6570  -27.0930   38.6260 H   0  0  0  0  0  0  0  0  0  0  0  0
   19.6523  -26.7871   41.4037 H   0  0  0  0  0  0  0  0  0  0  0  0
   20.0285  -26.3116   43.8092 H   0  0  0  0  0  0  0  0  0  0  0  0
   18.1865  -23.2223   45.3327 H   0  0  0  0  0  0  0  0  0  0  0  0
   18.5448  -24.9195   45.8045 H   0  0  0  0  0  0  0  0  0  0  0  0
   19.6055  -22.3791   47.1732 H   0  0  0  0  0  0  0  0  0  0  0  0
   18.3536  -23.5323   47.8144 H   0  0  0  0  0  0  0  0  0  0  0  0
   19.9940  -25.2050   47.9480 H   0  0  0  0  0  0  0  0  0  0  0  0
   20.2225  -24.4118   49.9378 H   0  0  0  0  0  0  0  0  0  0  0  0
   21.7338  -23.6802   49.2997 H   0  0  0  0  0  0  0  0  0  0  0  0
   20.2077  -22.7327   49.2997 H   0  0  0  0  0  0  0  0  0  0  0  0
   21.9286  -23.2066   46.9483 H   0  0  0  0  0  0  0  0  0  0  0  0
   22.2581  -24.9351   47.4170 H   0  0  0  0  0  0  0  0  0  0  0  0
   22.1504  -24.6023   44.9301 H   0  0  0  0  0  0  0  0  0  0  0  0
   20.9117  -25.7484   45.5539 H   0  0  0  0  0  0  0  0  0  0  0  0
  1  2  1  0
  2  3  1  0
  3  4  2  0
  4  5  1  0
  5  6  1  0
  6  7  1  0
  7  8  1  0
  8  9  2  0
  9 10  1  0
 10 11  2  0
 11 12  1  0
 12 13  1  0
 12 14  2  0
 14 15  1  0
 15 16  2  0
 15 17  1  0
 17 18  1  0
  5 19  2  0
 19 20  1  0
 20 21  2  0
 21 22  1  0
 22 23  1  0
 23 24  1  0
 24 25  1  0
 25 26  1  0
 25 27  1  0
 27 28  1  0
 21  3  1  0
 28 22  1  0
 17  6  2  0
 14  8  1  0
  1 29  1  0
  1 30  1  0
  1 31  1  0
  2 32  1  0
  2 33  1  0
  4 34  1  0
  9 35  1  0
 10 36  1  0
 11 37  1  0
 13 38  1  0
 18 39  1  0
 19 40  1  0
 20 41  1  0
 23 42  1  0
 23 43  1  0
 24 44  1  0
 24 45  1  0
 25 46  1  0
 26 47  1  0
 26 48  1  0
 26 49  1  0
 27 50  1  0
 27 51  1  0
 28 52  1  0
 28 53  1  0
M  CHG  1  25   1
M  END
>  <meeko>  (5) 
{"is_sidechain": [false], "free_energy": -7.047, "intermolecular_energy": -8.944, "internal_energy": -0.332}

$$$$
cand_025_out
     RDKit          3D

 53 56  0  0  0  0  0  0  0  0999 V2000
   22.5230  -27.7960   41.7690 C   0  0  0  0  0  0  0  0  0  0  0  0
   21.0190  -27.6390   41.9350 C   0  0  0  0  0  0  0  0  0  0  0  0
   20.2950  -27.6790   40.6080 C   0  0  0  0  0  0  0  0  0  0  0  0
   20.2590  -28.8940   39.8940 C   0  0  0  0  0  0  0  0  0  0  0  0
   19.6140  -28.9980   38.6560 C   0  0  0  0  0  0  0  0  0  0  0  0
   19.5940  -30.2630   37.8900 C   0  0  0  0  0  0  0  0  0  0  0  0
   19.9790  -30.0980   36.5650 O   0  0  0  0  0  0  0  0  0  0  0  0
   20.0070  -31.1940   35.7410 C   0  0  0  0  0  0  0  0  0  0  0  0
   20.4140  -30.9860   34.4230 C   0  0  0  0  0  0  0  0  0  0  0  0
   20.4630  -32.0600   33.5300 C   0  0  0  0  0  0  0  0  0  0  0  0
   20.1030  -33.3400   33.9570 C   0  0  0  0  0  0  0  0  0  0  0  0
   19.6970  -33.5450   35.2730 C   0  0  0  0  0  0  0  0  0  0  0  0
   19.3590  -34.8240   35.6230 O   0  0  0  0  0  0  0  0  0  0  0  0
   19.6490  -32.4710   36.1650 C   0  0  0  0  0  0  0  0  0  0  0  0
   19.2280  -32.6420   37.5560 C   0  0  0  0  0  0  0  0  0  0  0  0
   18.8900  -33.7370   38.0030 O   0  0  0  0  0  0  0  0  0  0  0  0
   19.2190  -31.4410   38.4230 C   0  0  0  0  0  0  0  0  0  0  0  0
   18.8080  -31.6130   39.7310 O   0  0  0  0  0  0  0  0  0  0  0  0
   19.0140  -27.8520   38.1240 C   0  0  0  0  0  0  0  0  0  0  0  0
   19.0480  -26.6390   38.8180 C   0  0  0  0  0  0  0  0  0  0  0  0
   19.6910  -26.5290   40.0600 C   0  0  0  0  0  0  0  0  0  0  0  0
   19.7330  -25.3180   40.7770 N   0  0  0  0  0  0  0  0  0  0  0  0
   19.2200  -24.1500   40.0280 C   0  0  0  0  0  0  0  0  0  0  0  0
   19.4410  -22.8620   40.8560 C   0  0  0  0  0  0  0  0  0  0  0  0
   18.8020  -22.9310   42.1920 N   0  0  0  0  0  0  0  0  0  0  0  0
   19.0810  -21.7190   42.9590 C   0  0  0  0  0  0  0  0  0  0  0  0
   19.3040  -24.1280   42.9080 C   0  0  0  0  0  0  0  0  0  0  0  0
   19.0950  -25.4350   42.1070 C   0  0  0  0  0  0  0  0  0  0  0  0
   22.9981  -27.8456   42.7599 H   0  0  0  0  0  0  0  0  0  0  0  0
   22.7360  -28.7213   41.2135 H   0  0  0  0  0  0  0  0  0  0  0  0
   22.9225  -26.9347   41.2135 H   0  0  0  0  0  0  0  0  0  0  0  0
   20.6445  -28.4565   42.5686 H   0  0  0  0  0  0  0  0  0  0  0  0
   20.8287  -26.6587   42.3962 H   0  0  0  0  0  0  0  0  0  0  0  0
   20.7495  -29.7817   40.3199 H   0  0  0  0  0  0  0  0  0  0  0  0
   20.6962  -29.9774   34.0868 H   0  0  0  0  0  0  0  0  0  0  0  0
   20.7851  -31.8971   32.4909 H   0  0  0  0  0  0  0  0  0  0  0  0
   20.1402  -34.1855   33.2543 H   0  0  0  0  0  0  0  0  0  0  0  0
   19.7280  -35.2120   36.3920 H   0  0  0  0  0  0  0  0  0  0  0  0
   18.9540  -32.4300   40.1650 H   0  0  0  0  0  0  0  0  0  0  0  0
   18.5094  -27.9059   37.1480 H   0  0  0  0  0  0  0  0  0  0  0  0
   18.5614  -25.7540   38.3820 H   0  0  0  0  0  0  0  0  0  0  0  0
   19.7552  -24.0657   39.0707 H   0  0  0  0  0  0  0  0  0  0  0  0
   18.1444  -24.2819   39.8393 H   0  0  0  0  0  0  0  0  0  0  0  0
   20.5221  -22.7091   40.9892 H   0  0  0  0  0  0  0  0  0  0  0  0
   18.9800  -22.0277   40.3070 H   0  0  0  0  0  0  0  0  0  0  0  0
   17.7910  -23.0040   42.0790 H   0  0  0  0  0  0  0  0  0  0  0  0
   19.0289  -21.9454   44.0342 H   0  0  0  0  0  0  0  0  0  0  0  0
   20.0873  -21.3511   42.7101 H   0  0  0  0  0  0  0  0  0  0  0  0
   18.3368  -20.9481   42.7101 H   0  0  0  0  0  0  0  0  0  0  0  0
   20.3800  -23.9994   43.0969 H   0  0  0  0  0  0  0  0  0  0  0  0
   18.7341  -24.2179   43.8446 H   0  0  0  0  0  0  0  0  0  0  0  0
   19.5463  -26.2750   42.6554 H   0  0  0  0  0  0  0  0  0  0  0  0
   18.0171  -25.6119   41.9773 H   0  0  0  0  0  0  0  0  0  0  0  0
  1  2  1  0
  2  3  1  0
  3  4  2  0
  4  5  1  0
  5  6  1  0
  6  7  1  0
  7  8  1  0
  8  9  2  0
  9 10  1  0
 10 11  2  0
 11 12  1  0
 12 13  1  0
 12 14  2  0
 14 15  1  0
 15 16  2  0
 15 17  1  0
 17 18  1  0
  5 19  2  0
 19 20  1  0
 20 21  2  0
 21 22  1  0
 22 23  1  0
 23 24  1  0
 24 25  1  0
 25 26  1  0
 25 27  1  0
 27 28  1  0
 21  3  1  0
 28 22  1  0
 17  6  2  0
 14  8  1  0
  1 29  1  0
  1 30  1  0
  1 31  1  0
  2 32  1  0
  2 33  1  0
  4 34  1  0
  9 35  1  0
 10 36  1  0
 11 37  1  0
 13 38  1  0
 18 39  1  0
 19 40  1  0
 20 41  1  0
 23 42  1  0
 23 43  1  0
 24 44  1  0
 24 45  1  0
 25 46  1  0
 26 47  1  0
 26 48  1  0
 26 49  1  0
 27 50  1  0
 27 51  1  0
 28 52  1  0
 28 53  1  0
M  CHG  1  25   1
M  END
>  <meeko>  (6) 
{"is_sidechain": [false], "free_energy": -7.028, "intermolecular_energy": -9.382, "internal_energy": 0.131}

$$$$
cand_025_out
     RDKit          3D

 53 56  0  0  0  0  0  0  0  0999 V2000
   20.7310  -27.0650   42.7240 C   0  0  0  0  0  0  0  0  0  0  0  0
   20.0340  -25.7920   43.1810 C   0  0  0  0  0  0  0  0  0  0  0  0
   19.7430  -24.8600   42.0260 C   0  0  0  0  0  0  0  0  0  0  0  0
   19.5420  -25.4130   40.7450 C   0  0  0  0  0  0  0  0  0  0  0  0
   19.2780  -24.6070   39.6310 C   0  0  0  0  0  0  0  0  0  0  0  0
   19.0910  -25.1790   38.2810 C   0  0  0  0  0  0  0  0  0  0  0  0
   17.9050  -24.7730   37.6810 O   0  0  0  0  0  0  0  0  0  0  0  0
   17.6070  -25.2300   36.4230 C   0  0  0  0  0  0  0  0  0  0  0  0
   16.4150  -24.7850   35.8520 C   0  0  0  0  0  0  0  0  0  0  0  0
   16.0500  -25.2140   34.5740 C   0  0  0  0  0  0  0  0  0  0  0  0
   16.8790  -26.0880   33.8670 C   0  0  0  0  0  0  0  0  0  0  0  0
   18.0690  -26.5300   34.4380 C   0  0  0  0  0  0  0  0  0  0  0  0
   18.8320  -27.3850   33.6910 O   0  0  0  0  0  0  0  0  0  0  0  0
   18.4330  -26.1010   35.7170 C   0  0  0  0  0  0  0  0  0  0  0  0
   19.6750  -26.5410   36.3540 C   0  0  0  0  0  0  0  0  0  0  0  0
   20.4510  -27.3150   35.7980 O   0  0  0  0  0  0  0  0  0  0  0  0
   19.9720  -26.0220   37.7090 C   0  0  0  0  0  0  0  0  0  0  0  0
   21.1410  -26.4550   38.3050 O   0  0  0  0  0  0  0  0  0  0  0  0
   19.2340  -23.2210   39.8130 C   0  0  0  0  0  0  0  0  0  0  0  0
   19.4390  -22.6590   41.0770 C   0  0  0  0  0  0  0  0  0  0  0  0
   19.7020  -23.4610   42.1970 C   0  0  0  0  0  0  0  0  0  0  0  0
   19.9060  -22.9150   43.4790 N   0  0  0  0  0  0  0  0  0  0  0  0
   20.9110  -21.8310   43.5240 C   0  0  0  0  0  0  0  0  0  0  0  0
   21.1520  -21.4040   44.9920 C   0  0  0  0  0  0  0  0  0  0  0  0
   19.9050  -20.9710   45.6670 N   0  0  0  0  0  0  0  0  0  0  0  0
   20.1670  -20.6300   47.0630 C   0  0  0  0  0  0  0  0  0  0  0  0
   18.9010  -22.0590   45.5760 C   0  0  0  0  0  0  0  0  0  0  0  0
   18.6360  -22.5070   44.1190 C   0  0  0  0  0  0  0  0  0  0  0  0
   21.0486  -27.6450   43.6031 H   0  0  0  0  0  0  0  0  0  0  0  0
   20.0364  -27.6665   42.1193 H   0  0  0  0  0  0  0  0  0  0  0  0
   21.6120  -26.8038   42.1193 H   0  0  0  0  0  0  0  0  0  0  0  0
   19.0851  -26.0617   43.6676 H   0  0  0  0  0  0  0  0  0  0  0  0
   20.7044  -25.2692   43.8791 H   0  0  0  0  0  0  0  0  0  0  0  0
   19.5938  -26.5044   40.6175 H   0  0  0  0  0  0  0  0  0  0  0  0
   15.7623  -24.0961   36.4082 H   0  0  0  0  0  0  0  0  0  0  0  0
   15.1094  -24.8635   34.1241 H   0  0  0  0  0  0  0  0  0  0  0  0
   16.5919  -26.4265   32.8605 H   0  0  0  0  0  0  0  0  0  0  0  0
   18.8060  -28.3070   33.8610 H   0  0  0  0  0  0  0  0  0  0  0  0
   21.4320  -27.3360   38.1810 H   0  0  0  0  0  0  0  0  0  0  0  0
   19.0359  -22.5655   38.9521 H   0  0  0  0  0  0  0  0  0  0  0  0
   19.3931  -21.5663   41.1951 H   0  0  0  0  0  0  0  0  0  0  0  0
   21.8551  -22.1893   43.0877 H   0  0  0  0  0  0  0  0  0  0  0  0
   20.5425  -20.9684   42.9494 H   0  0  0  0  0  0  0  0  0  0  0  0
   21.5741  -22.2572   45.5433 H   0  0  0  0  0  0  0  0  0  0  0  0
   21.8429  -20.5481   44.9831 H   0  0  0  0  0  0  0  0  0  0  0  0
   19.5430  -20.1380   45.2040 H   0  0  0  0  0  0  0  0  0  0  0  0
   19.6289  -21.3303   47.7187 H   0  0  0  0  0  0  0  0  0  0  0  0
   21.2469  -20.6986   47.2608 H   0  0  0  0  0  0  0  0  0  0  0  0
   19.8225  -19.6042   47.2608 H   0  0  0  0  0  0  0  0  0  0  0  0
   19.2665  -22.9239   46.1491 H   0  0  0  0  0  0  0  0  0  0  0  0
   17.9546  -21.6724   45.9819 H   0  0  0  0  0  0  0  0  0  0  0  0
   17.9383  -23.3575   44.1200 H   0  0  0  0  0  0  0  0  0  0  0  0
   18.1995  -21.6688   43.5560 H   0  0  0  0  0  0  0  0  0  0  0  0
  1  2  1  0
  2  3  1  0
  3  4  2  0
  4  5  1  0
  5  6  1  0
  6  7  1  0
  7  8  1  0
  8  9  2  0
  9 10  1  0
 10 11  2  0
 11 12  1  0
 12 13  1  0
 12 14  2  0
 14 15  1  0
 15 16  2  0
 15 17  1  0
 17 18  1  0
  5 19  2  0
 19 20  1  0
 20 21  2  0
 21 22  1  0
 22 23  1  0
 23 24  1  0
 24 25  1  0
 25 26  1  0
 25 27  1  0
 27 28  1  0
 21  3  1  0
 28 22  1  0
 17  6  2  0
 14  8  1  0
  1 29  1  0
  1 30  1  0
  1 31  1  0
  2 32  1  0
  2 33  1  0
  4 34  1  0
  9 35  1  0
 10 36  1  0
 11 37  1  0
 13 38  1  0
 18 39  1  0
 19 40  1  0
 20 41  1  0
 23 42  1  0
 23 43  1  0
 24 44  1  0
 24 45  1  0
 25 46  1  0
 26 47  1  0
 26 48  1  0
 26 49  1  0
 27 50  1  0
 27 51  1  0
 28 52  1  0
 28 53  1  0
M  CHG  1  25   1
M  END
>  <meeko>  (7) 
{"is_sidechain": [false], "free_energy": -6.92, "intermolecular_energy": -8.642, "internal_energy": -0.477}

$$$$
cand_025_out
     RDKit          3D

 53 56  0  0  0  0  0  0  0  0999 V2000
   22.1940  -27.6370   41.9470 C   0  0  0  0  0  0  0  0  0  0  0  0
   20.6880  -27.6150   42.1590 C   0  0  0  0  0  0  0  0  0  0  0  0
   20.1450  -26.2050   42.2210 C   0  0  0  0  0  0  0  0  0  0  0  0
   20.1380  -25.5380   43.4630 C   0  0  0  0  0  0  0  0  0  0  0  0
   19.6420  -24.2350   43.5930 C   0  0  0  0  0  0  0  0  0  0  0  0
   19.6080  -23.5400   44.8970 C   0  0  0  0  0  0  0  0  0  0  0  0
   20.8720  -23.3630   45.4490 O   0  0  0  0  0  0  0  0  0  0  0  0
   20.9850  -22.7290   46.6590 C   0  0  0  0  0  0  0  0  0  0  0  0
   22.2730  -22.5590   47.1680 C   0  0  0  0  0  0  0  0  0  0  0  0
   22.4590  -21.9230   48.3980 C   0  0  0  0  0  0  0  0  0  0  0  0
   21.3570  -21.4590   49.1180 C   0  0  0  0  0  0  0  0  0  0  0  0
   20.0720  -21.6290   48.6090 C   0  0  0  0  0  0  0  0  0  0  0  0
   19.0380  -21.1510   49.3660 O   0  0  0  0  0  0  0  0  0  0  0  0
   19.8870  -22.2650   47.3780 C   0  0  0  0  0  0  0  0  0  0  0  0
   18.5540  -22.4650   46.8060 C   0  0  0  0  0  0  0  0  0  0  0  0
   17.5360  -22.0900   47.3840 O   0  0  0  0  0  0  0  0  0  0  0  0
   18.4670  -23.1430   45.4930 C   0  0  0  0  0  0  0  0  0  0  0  0
   17.2040  -23.3380   44.9690 O   0  0  0  0  0  0  0  0  0  0  0  0
   19.1300  -23.6050   42.4550 C   0  0  0  0  0  0  0  0  0  0  0  0
   19.1240  -24.2580   41.2180 C   0  0  0  0  0  0  0  0  0  0  0  0
   19.6220  -25.5630   41.0810 C   0  0  0  0  0  0  0  0  0  0  0  0
   19.6300  -26.2350   39.8440 N   0  0  0  0  0  0  0  0  0  0  0  0
   18.4800  -27.1430   39.6390 C   0  0  0  0  0  0  0  0  0  0  0  0
   18.6630  -27.9260   38.3170 C   0  0  0  0  0  0  0  0  0  0  0  0
   18.8200  -27.0300   37.1460 N   0  0  0  0  0  0  0  0  0  0  0  0
   19.0450  -27.8080   35.9300 C   0  0  0  0  0  0  0  0  0  0  0  0
   19.9540  -26.1060   37.3900 C   0  0  0  0  0  0  0  0  0  0  0  0
   19.7990  -25.3050   38.7050 C   0  0  0  0  0  0  0  0  0  0  0  0
   22.7016  -27.6444   42.9229 H   0  0  0  0  0  0  0  0  0  0  0  0
   22.4717  -28.5393   41.3824 H   0  0  0  0  0  0  0  0  0  0  0  0
   22.4979  -26.7432   41.3824 H   0  0  0  0  0  0  0  0  0  0  0  0
   20.2043  -28.1455   41.3256 H   0  0  0  0  0  0  0  0  0  0  0  0
   20.4731  -28.1043   43.1204 H   0  0  0  0  0  0  0  0  0  0  0  0
   20.5317  -26.0536   44.3514 H   0  0  0  0  0  0  0  0  0  0  0  0
   23.1415  -22.9255   46.6011 H   0  0  0  0  0  0  0  0  0  0  0  0
   23.4743  -21.7879   48.7991 H   0  0  0  0  0  0  0  0  0  0  0  0
   21.5035  -20.9593   50.0870 H   0  0  0  0  0  0  0  0  0  0  0  0
   19.0880  -20.2920   49.7380 H   0  0  0  0  0  0  0  0  0  0  0  0
   17.0950  -23.8180   44.1710 H   0  0  0  0  0  0  0  0  0  0  0  0
   18.7273  -22.5843   42.5332 H   0  0  0  0  0  0  0  0  0  0  0  0
   18.7213  -23.7388   40.3358 H   0  0  0  0  0  0  0  0  0  0  0  0
   18.4194  -27.8515   40.4782 H   0  0  0  0  0  0  0  0  0  0  0  0
   17.5538  -26.5518   39.5871 H   0  0  0  0  0  0  0  0  0  0  0  0
   19.5600  -28.5571   38.4016 H   0  0  0  0  0  0  0  0  0  0  0  0
   17.7580  -28.5307   38.1575 H   0  0  0  0  0  0  0  0  0  0  0  0
   17.9650  -26.4890   37.0180 H   0  0  0  0  0  0  0  0  0  0  0  0
   19.3413  -28.8324   36.1997 H   0  0  0  0  0  0  0  0  0  0  0  0
   18.1188  -27.8382   35.3374 H   0  0  0  0  0  0  0  0  0  0  0  0
   19.8444  -27.3391   35.3374 H   0  0  0  0  0  0  0  0  0  0  0  0
   20.8820  -26.6942   37.4434 H   0  0  0  0  0  0  0  0  0  0  0  0
   19.9779  -25.3830   36.5613 H   0  0  0  0  0  0  0  0  0  0  0  0
   20.6971  -24.6906   38.8659 H   0  0  0  0  0  0  0  0  0  0  0  0
   18.9133  -24.6567   38.6321 H   0  0  0  0  0  0  0  0  0  0  0  0
  1  2  1  0
  2  3  1  0
  3  4  2  0
  4  5  1  0
  5  6  1  0
  6  7  1  0
  7  8  1  0
  8  9  2  0
  9 10  1  0
 10 11  2  0
 11 12  1  0
 12 13  1  0
 12 14  2  0
 14 15  1  0
 15 16  2  0
 15 17  1  0
 17 18  1  0
  5 19  2  0
 19 20  1  0
 20 21  2  0
 21 22  1  0
 22 23  1  0
 23 24  1  0
 24 25  1  0
 25 26  1  0
 25 27  1  0
 27 28  1  0
 21  3  1  0
 28 22  1  0
 17  6  2  0
 14  8  1  0
  1 29  1  0
  1 30  1  0
  1 31  1  0
  2 32  1  0
  2 33  1  0
  4 34  1  0
  9 35  1  0
 10 36  1  0
 11 37  1  0
 13 38  1  0
 18 39  1  0
 19 40  1  0
 20 41  1  0
 23 42  1  0
 23 43  1  0
 24 44  1  0
 24 45  1  0
 25 46  1  0
 26 47  1  0
 26 48  1  0
 26 49  1  0
 27 50  1  0
 27 51  1  0
 28 52  1  0
 28 53  1  0
M  CHG  1  25   1
M  END
>  <meeko>  (8) 
{"is_sidechain": [false], "free_energy": -6.911, "intermolecular_energy": -8.7, "internal_energy": -0.408}

$$$$
cand_025_out
     RDKit          3D

 53 56  0  0  0  0  0  0  0  0999 V2000
   20.6320  -24.3770   47.2020 C   0  0  0  0  0  0  0  0  0  0  0  0
   19.3400  -23.8360   46.6100 C   0  0  0  0  0  0  0  0  0  0  0  0
   19.5070  -23.4270   45.1630 C   0  0  0  0  0  0  0  0  0  0  0  0
   19.5000  -24.4300   44.1720 C   0  0  0  0  0  0  0  0  0  0  0  0
   19.6580  -24.1210   42.8160 C   0  0  0  0  0  0  0  0  0  0  0  0
   19.6760  -25.1700   41.7740 C   0  0  0  0  0  0  0  0  0  0  0  0
   18.8820  -24.8570   40.6780 O   0  0  0  0  0  0  0  0  0  0  0  0
   18.8090  -25.7460   39.6350 C   0  0  0  0  0  0  0  0  0  0  0  0
   18.0130  -25.3840   38.5490 C   0  0  0  0  0  0  0  0  0  0  0  0
   17.8930  -26.2450   37.4540 C   0  0  0  0  0  0  0  0  0  0  0  0
   18.5700  -27.4660   37.4490 C   0  0  0  0  0  0  0  0  0  0  0  0
   19.3650  -27.8240   38.5340 C   0  0  0  0  0  0  0  0  0  0  0  0
   19.9990  -29.0340   38.4630 O   0  0  0  0  0  0  0  0  0  0  0  0
   19.4840  -26.9630   39.6280 C   0  0  0  0  0  0  0  0  0  0  0  0
   20.3090  -27.3010   40.7900 C   0  0  0  0  0  0  0  0  0  0  0  0
   20.9280  -28.3600   40.8600 O   0  0  0  0  0  0  0  0  0  0  0  0
   20.3740  -26.3160   41.8930 C   0  0  0  0  0  0  0  0  0  0  0  0
   21.1450  -26.6510   42.9900 O   0  0  0  0  0  0  0  0  0  0  0  0
   19.8450  -22.7820   42.4590 C   0  0  0  0  0  0  0  0  0  0  0  0
   19.8620  -21.7780   43.4320 C   0  0  0  0  0  0  0  0  0  0  0  0
   19.7010  -22.0810   44.7930 C   0  0  0  0  0  0  0  0  0  0  0  0
   19.7100  -21.0850   45.7880 N   0  0  0  0  0  0  0  0  0  0  0  0
   21.0490  -20.5250   46.0750 C   0  0  0  0  0  0  0  0  0  0  0  0
   20.9600  -19.5460   47.2700 C   0  0  0  0  0  0  0  0  0  0  0  0
   19.9900  -18.4510   47.0330 N   0  0  0  0  0  0  0  0  0  0  0  0
   19.8970  -17.5830   48.2050 C   0  0  0  0  0  0  0  0  0  0  0  0
   18.6660  -19.0350   46.7110 C   0  0  0  0  0  0  0  0  0  0  0  0
   18.7210  -20.0180   45.5170 C   0  0  0  0  0  0  0  0  0  0  0  0
   20.5711  -24.3515   48.3000 H   0  0  0  0  0  0  0  0  0  0  0  0
   20.7828  -25.4139   46.8671 H   0  0  0  0  0  0  0  0  0  0  0  0
   21.4766  -23.7570   46.8671 H   0  0  0  0  0  0  0  0  0  0  0  0
   18.5671  -24.6163   46.6715 H   0  0  0  0  0  0  0  0  0  0  0  0
   19.0509  -22.9434   47.1841 H   0  0  0  0  0  0  0  0  0  0  0  0
   19.3672  -25.4801   44.4716 H   0  0  0  0  0  0  0  0  0  0  0  0
   17.4799  -24.4218   38.5537 H   0  0  0  0  0  0  0  0  0  0  0  0
   17.2653  -25.9605   36.5966 H   0  0  0  0  0  0  0  0  0  0  0  0
   18.4752  -28.1445   36.5884 H   0  0  0  0  0  0  0  0  0  0  0  0
   20.8300  -29.1030   38.0340 H   0  0  0  0  0  0  0  0  0  0  0  0
   20.7760  -26.6190   43.8500 H   0  0  0  0  0  0  0  0  0  0  0  0
   19.9803  -22.5154   41.4004 H   0  0  0  0  0  0  0  0  0  0  0  0
   20.0042  -20.7313   43.1252 H   0  0  0  0  0  0  0  0  0  0  0  0
   21.7417  -21.3427   46.3231 H   0  0  0  0  0  0  0  0  0  0  0  0
   21.4158  -19.9859   45.1891 H   0  0  0  0  0  0  0  0  0  0  0  0
   20.6482  -20.1068   48.1635 H   0  0  0  0  0  0  0  0  0  0  0  0
   21.9524  -19.0912   47.4052 H   0  0  0  0  0  0  0  0  0  0  0  0
   20.3080  -17.8820   46.2480 H   0  0  0  0  0  0  0  0  0  0  0  0
   19.9623  -18.1922   49.1186 H   0  0  0  0  0  0  0  0  0  0  0  0
   20.7224  -16.8560   48.1893 H   0  0  0  0  0  0  0  0  0  0  0  0
   18.9363  -17.0474   48.1893 H   0  0  0  0  0  0  0  0  0  0  0  0
   18.2954  -19.5751   47.5947 H   0  0  0  0  0  0  0  0  0  0  0  0
   17.9977  -18.2078   46.4297 H   0  0  0  0  0  0  0  0  0  0  0  0
   17.7286  -20.4693   45.3701 H   0  0  0  0  0  0  0  0  0  0  0  0
   19.0184  -19.4704   44.6105 H   0  0  0  0  0  0  0  0  0  0  0  0
  1  2  1  0
  2  3  1  0
  3  4  2  0
  4  5  1  0
  5  6  1  0
  6  7  1  0
  7  8  1  0
  8  9  2  0
  9 10  1  0
 10 11  2  0
 11 12  1  0
 12 13  1  0
 12 14  2  0
 14 15  1  0
 15 16  2  0
 15 17  1  0
 17 18  1  0
  5 19  2  0
 19 20  1  0
 20 21  2  0
 21 22  1  0
 22 23  1  0
 23 24  1  0
 24 25  1  0
 25 26  1  0
 25 27  1  0
 27 28  1  0
 21  3  1  0
 28 22  1  0
 17  6  2  0
 14  8  1  0
  1 29  1  0
  1 30  1  0
  1 31  1  0
  2 32  1  0
  2 33  1  0
  4 34  1  0
  9 35  1  0
 10 36  1  0
 11 37  1  0
 13 38  1  0
 18 39  1  0
 19 40  1  0
 20 41  1  0
 23 42  1  0
 23 43  1  0
 24 44  1  0
 24 45  1  0
 25 46  1  0
 26 47  1  0
 26 48  1  0
 26 49  1  0
 27 50  1  0
 27 51  1  0
 28 52  1  0
 28 53  1  0
M  CHG  1  25   1
M  END
>  <meeko>  (9) 
{"is_sidechain": [false], "free_energy": -6.667, "intermolecular_energy": -8.366, "internal_energy": -0.442}

$$$$
