cand_001_out
     RDKit          3D

 45 48  0  0  0  0  0  0  0  0999 V2000
   19.7390  -24.5290   40.2960 C   0  0  0  0  0  0  0  0  0  0  0  0
   19.6600  -25.9490   39.8070 C   0  0  0  0  0  0  0  0  0  0  0  0
   19.5240  -26.1790   38.4290 C   0  0  0  0  0  0  0  0  0  0  0  0
   19.4760  -27.4790   37.9170 C   0  0  0  0  0  0  0  0  0  0  0  0
   19.5760  -28.5850   38.7670 C   0  0  0  0  0  0  0  0  0  0  0  0
   19.5090  -29.9520   38.2090 C   0  0  0  0  0  0  0  0  0  0  0  0
   19.1140  -30.8990   39.1480 O   0  0  0  0  0  0  0  0  0  0  0  0
   19.0110  -32.2120   38.7610 C   0  0  0  0  0  0  0  0  0  0  0  0
   18.6260  -33.1310   39.7380 C   0  0  0  0  0  0  0  0  0  0  0  0
   18.4990  -34.4820   39.4110 C   0  0  0  0  0  0  0  0  0  0  0  0
   18.7560  -34.9140   38.1090 C   0  0  0  0  0  0  0  0  0  0  0  0
   19.1400  -33.9960   37.1360 C   0  0  0  0  0  0  0  0  0  0  0  0
   19.3750  -34.4860   35.8810 O   0  0  0  0  0  0  0  0  0  0  0  0
   19.2670  -32.6430   37.4640 C   0  0  0  0  0  0  0  0  0  0  0  0
   19.6670  -31.6440   36.4710 C   0  0  0  0  0  0  0  0  0  0  0  0
   19.9030  -31.9450   35.3030 O   0  0  0  0  0  0  0  0  0  0  0  0
   19.7810  -30.2380   36.9230 C   0  0  0  0  0  0  0  0  0  0  0  0
   20.1470  -29.3000   35.9740 O   0  0  0  0  0  0  0  0  0  0  0  0
   19.7070  -28.3560   40.1430 C   0  0  0  0  0  0  0  0  0  0  0  0
   19.7620  -27.0520   40.6790 C   0  0  0  0  0  0  0  0  0  0  0  0
   19.9420  -26.8960   42.1780 C   0  0  0  0  0  0  0  0  0  0  0  0
   21.3290  -27.2120   42.6930 C   0  0  0  0  0  0  0  0  0  0  0  0
   21.6830  -26.8840   44.0110 C   0  0  0  0  0  0  0  0  0  0  0  0
   22.9530  -27.1930   44.5040 C   0  0  0  0  0  0  0  0  0  0  0  0
   23.8800  -27.8380   43.6890 C   0  0  0  0  0  0  0  0  0  0  0  0
   23.5380  -28.1800   42.3830 C   0  0  0  0  0  0  0  0  0  0  0  0
   22.2690  -27.8740   41.8890 C   0  0  0  0  0  0  0  0  0  0  0  0
   19.7395  -24.5195   41.3960 H   0  0  0  0  0  0  0  0  0  0  0  0
   20.6644  -24.0643   39.9249 H   0  0  0  0  0  0  0  0  0  0  0  0
   18.8709  -23.9646   39.9249 H   0  0  0  0  0  0  0  0  0  0  0  0
   19.4541  -25.3232   37.7414 H   0  0  0  0  0  0  0  0  0  0  0  0
   19.3583  -27.6335   36.8343 H   0  0  0  0  0  0  0  0  0  0  0  0
   18.4229  -32.7912   40.7643 H   0  0  0  0  0  0  0  0  0  0  0  0
   18.1959  -35.2072   40.1805 H   0  0  0  0  0  0  0  0  0  0  0  0
   18.6552  -35.9788   37.8522 H   0  0  0  0  0  0  0  0  0  0  0  0
   20.2130  -34.8470   35.6690 H   0  0  0  0  0  0  0  0  0  0  0  0
   19.9220  -29.4320   35.0740 H   0  0  0  0  0  0  0  0  0  0  0  0
   19.7687  -29.2171   40.8247 H   0  0  0  0  0  0  0  0  0  0  0  0
   19.7091  -25.8541   42.4428 H   0  0  0  0  0  0  0  0  0  0  0  0
   19.2669  -27.6276   42.6459 H   0  0  0  0  0  0  0  0  0  0  0  0
   20.9538  -26.3791   44.6616 H   0  0  0  0  0  0  0  0  0  0  0  0
   23.2211  -26.9266   45.5370 H   0  0  0  0  0  0  0  0  0  0  0  0
   24.8814  -28.0771   44.0764 H   0  0  0  0  0  0  0  0  0  0  0  0
   24.2690  -28.6920   41.7399 H   0  0  0  0  0  0  0  0  0  0  0  0
   22.0033  -28.1547   40.8591 H   0  0  0  0  0  0  0  0  0  0  0  0
  1  2  1  0
  2  3  2  0
  3  4  1  0
  4  5  2  0
  5  6  1  0
  6  7  1  0
  7  8  1  0
  8  9  2  0
  9 10  1  0
 10 11  2  0
 11 12  1  0
 12 13  1  0
 12 14  2  0
 14 15  1  0
 15 16  2  0
 15 17  1  0
 17 18  1  0
  5 19  1  0
 19 20  2  0
 20 21  1  0
 21 22  1  0
 22 23  2  0
 23 24  1  0
 24 25  2  0
 25 26  1  0
 26 27  2  0
 20  2  1  0
 27 22  1  0
 17  6  2  0
 14  8  1  0
  1 28  1  0
  1 29  1  0
  1 30  1  0
  3 31  1  0
  4 32  1  0
  9 33  1  0
 10 34  1  0
 11 35  1  0
 13 36  1  0
 18 37  1  0
 19 38  1  0
 21 39  1  0
 21 40  1  0
 23 41  1  0
 24 42  1  0
 25 43  1  0
 26 44  1  0
 27 45  1  0
M  END
>  <meeko>  (1) 
{"is_sidechain": [false], "free_energy": -9.687, "intermolecular_energy": -11.952, "internal_energy": -0.125}

$$$$
cand_001_out
     RDKit          3D

 45 48  0  0  0  0  0  0  0  0999 V2000
   19.3590  -24.2630   40.8350 C   0  0  0  0  0  0  0  0  0  0  0  0
   19.4340  -25.5740   40.1010 C   0  0  0  0  0  0  0  0  0  0  0  0
   19.3010  -25.5710   38.7040 C   0  0  0  0  0  0  0  0  0  0  0  0
   19.3940  -26.7560   37.9700 C   0  0  0  0  0  0  0  0  0  0  0  0
   19.6340  -27.9760   38.6100 C   0  0  0  0  0  0  0  0  0  0  0  0
   19.7140  -29.2220   37.8180 C   0  0  0  0  0  0  0  0  0  0  0  0
   19.9340  -28.9870   36.4650 O   0  0  0  0  0  0  0  0  0  0  0  0
   20.0300  -30.0590   35.6140 C   0  0  0  0  0  0  0  0  0  0  0  0
   20.2360  -29.7780   34.2620 C   0  0  0  0  0  0  0  0  0  0  0  0
   20.3450  -30.8230   33.3430 C   0  0  0  0  0  0  0  0  0  0  0  0
   20.2490  -32.1470   33.7740 C   0  0  0  0  0  0  0  0  0  0  0  0
   20.0440  -32.4250   35.1220 C   0  0  0  0  0  0  0  0  0  0  0  0
   19.9600  -33.7440   35.4760 O   0  0  0  0  0  0  0  0  0  0  0  0
   19.9340  -31.3790   36.0430 C   0  0  0  0  0  0  0  0  0  0  0  0
   19.7190  -31.6270   37.4690 C   0  0  0  0  0  0  0  0  0  0  0  0
   19.6310  -32.7640   37.9260 O   0  0  0  0  0  0  0  0  0  0  0  0
   19.6090  -30.4480   38.3590 C   0  0  0  0  0  0  0  0  0  0  0  0
   19.4180  -30.6950   39.7080 O   0  0  0  0  0  0  0  0  0  0  0  0
   19.7620  -27.9810   40.0050 C   0  0  0  0  0  0  0  0  0  0  0  0
   19.6770  -26.7940   40.7640 C   0  0  0  0  0  0  0  0  0  0  0  0
   19.8630  -26.8860   42.2680 C   0  0  0  0  0  0  0  0  0  0  0  0
   21.2750  -27.1900   42.7200 C   0  0  0  0  0  0  0  0  0  0  0  0
   21.6950  -26.8250   44.0090 C   0  0  0  0  0  0  0  0  0  0  0  0
   22.9890  -27.1220   44.4450 C   0  0  0  0  0  0  0  0  0  0  0  0
   23.8730  -27.7930   43.6040 C   0  0  0  0  0  0  0  0  0  0  0  0
   23.4640  -28.1720   42.3270 C   0  0  0  0  0  0  0  0  0  0  0  0
   22.1720  -27.8780   41.8890 C   0  0  0  0  0  0  0  0  0  0  0  0
   19.3696  -24.4487   41.9192 H   0  0  0  0  0  0  0  0  0  0  0  0
   20.2229  -23.6396   40.5613 H   0  0  0  0  0  0  0  0  0  0  0  0
   18.4296  -23.7422   40.5613 H   0  0  0  0  0  0  0  0  0  0  0  0
   19.1208  -24.6213   38.1790 H   0  0  0  0  0  0  0  0  0  0  0  0
   19.2772  -26.7291   36.8766 H   0  0  0  0  0  0  0  0  0  0  0  0
   20.3123  -28.7348   33.9216 H   0  0  0  0  0  0  0  0  0  0  0  0
   20.5068  -30.6027   32.2775 H   0  0  0  0  0  0  0  0  0  0  0  0
   20.3353  -32.9697   33.0490 H   0  0  0  0  0  0  0  0  0  0  0  0
   19.2050  -34.0600   35.9310 H   0  0  0  0  0  0  0  0  0  0  0  0
   20.0760  -31.1460   40.1990 H   0  0  0  0  0  0  0  0  0  0  0  0
   19.9334  -28.9361   40.5231 H   0  0  0  0  0  0  0  0  0  0  0  0
   19.5634  -25.9236   42.7085 H   0  0  0  0  0  0  0  0  0  0  0  0
   19.2440  -27.7312   42.6034 H   0  0  0  0  0  0  0  0  0  0  0  0
   20.9997  -26.3009   44.6813 H   0  0  0  0  0  0  0  0  0  0  0  0
   23.3099  -26.8252   45.4544 H   0  0  0  0  0  0  0  0  0  0  0  0
   24.8924  -28.0235   43.9471 H   0  0  0  0  0  0  0  0  0  0  0  0
   24.1610  -28.7040   41.6628 H   0  0  0  0  0  0  0  0  0  0  0  0
   21.8539  -28.1886   40.8828 H   0  0  0  0  0  0  0  0  0  0  0  0
  1  2  1  0
  2  3  2  0
  3  4  1  0
  4  5  2  0
  5  6  1  0
  6  7  1  0
  7  8  1  0
  8  9  2  0
  9 10  1  0
 10 11  2  0
 11 12  1  0
 12 13  1  0
 12 14  2  0
 14 15  1  0
 15 16  2  0
 15 17  1  0
 17 18  1  0
  5 19  1  0
 19 20  2  0
 20 21  1  0
 21 22  1  0
 22 23  2  0
 23 24  1  0
 24 25  2  0
 25 26  1  0
 26 27  2  0
 20  2  1  0
 27 22  1  0
 17  6  2  0
 14  8  1  0
  1 28  1  0
  1 29  1  0
  1 30  1  0
  3 31  1  0
  4 32  1  0
  9 33  1  0
 10 34  1  0
 11 35  1  0
 13 36  1  0
 18 37  1  0
 19 38  1  0
 21 39  1  0
 21 40  1  0
 23 41  1  0
 24 42  1  0
 25 43  1  0
 26 44  1  0
 27 45  1  0
M  END
>  <meeko>  (2) 
{"is_sidechain": [false], "free_energy": -8.935, "intermolecular_energy": -11.119, "internal_energy": -0.03}

$$$$
cand_001_out
     RDKit          3D

 45 48  0  0  0  0  0  0  0  0999 V2000
   19.6030  -24.1080   42.4290 C   0  0  0  0  0  0  0  0  0  0  0  0
   19.6010  -25.0000   41.2180 C   0  0  0  0  0  0  0  0  0  0  0  0
   19.4270  -24.4170   39.9530 C   0  0  0  0  0  0  0  0  0  0  0  0
   19.4480  -25.1950   38.7930 C   0  0  0  0  0  0  0  0  0  0  0  0
   19.6540  -26.5760   38.8630 C   0  0  0  0  0  0  0  0  0  0  0  0
   19.6580  -27.3850   37.6250 C   0  0  0  0  0  0  0  0  0  0  0  0
   19.8480  -28.7410   37.8670 O   0  0  0  0  0  0  0  0  0  0  0  0
   19.8720  -29.6070   36.8030 C   0  0  0  0  0  0  0  0  0  0  0  0
   20.0800  -30.9570   37.0900 C   0  0  0  0  0  0  0  0  0  0  0  0
   20.1140  -31.8920   36.0540 C   0  0  0  0  0  0  0  0  0  0  0  0
   19.9400  -31.4780   34.7320 C   0  0  0  0  0  0  0  0  0  0  0  0
   19.7330  -30.1310   34.4480 C   0  0  0  0  0  0  0  0  0  0  0  0
   19.5700  -29.7940   33.1320 O   0  0  0  0  0  0  0  0  0  0  0  0
   19.7000  -29.1950   35.4860 C   0  0  0  0  0  0  0  0  0  0  0  0
   19.4840  -27.7700   35.2310 C   0  0  0  0  0  0  0  0  0  0  0  0
   19.3160  -27.3290   34.0970 O   0  0  0  0  0  0  0  0  0  0  0  0
   19.4740  -26.8600   36.4010 C   0  0  0  0  0  0  0  0  0  0  0  0
   19.2570  -25.5170   36.1490 O   0  0  0  0  0  0  0  0  0  0  0  0
   19.8230  -27.1610   40.1250 C   0  0  0  0  0  0  0  0  0  0  0  0
   19.8100  -26.3920   41.3080 C   0  0  0  0  0  0  0  0  0  0  0  0
   20.0360  -27.1020   42.6310 C   0  0  0  0  0  0  0  0  0  0  0  0
   21.4860  -27.2550   43.0360 C   0  0  0  0  0  0  0  0  0  0  0  0
   21.9400  -26.7100   44.2470 C   0  0  0  0  0  0  0  0  0  0  0  0
   23.2710  -26.8660   44.6420 C   0  0  0  0  0  0  0  0  0  0  0  0
   24.1600  -27.5720   43.8360 C   0  0  0  0  0  0  0  0  0  0  0  0
   23.7200  -28.1290   42.6370 C   0  0  0  0  0  0  0  0  0  0  0  0
   22.3900  -27.9760   42.2410 C   0  0  0  0  0  0  0  0  0  0  0  0
   19.6016  -24.7256   43.3393 H   0  0  0  0  0  0  0  0  0  0  0  0
   20.5026  -23.4750   42.4167 H   0  0  0  0  0  0  0  0  0  0  0  0
   18.7063  -23.4710   42.4167 H   0  0  0  0  0  0  0  0  0  0  0  0
   19.2717  -23.3309   39.8739 H   0  0  0  0  0  0  0  0  0  0  0  0
   19.3009  -24.7158   37.8138 H   0  0  0  0  0  0  0  0  0  0  0  0
   20.2170  -31.2838   38.1314 H   0  0  0  0  0  0  0  0  0  0  0  0
   20.2781  -32.9561   36.2794 H   0  0  0  0  0  0  0  0  0  0  0  0
   19.9664  -32.2152   33.9160 H   0  0  0  0  0  0  0  0  0  0  0  0
   19.2450  -28.9470   32.9020 H   0  0  0  0  0  0  0  0  0  0  0  0
   19.6480  -25.1110   35.4010 H   0  0  0  0  0  0  0  0  0  0  0  0
   19.9697  -28.2489   40.1954 H   0  0  0  0  0  0  0  0  0  0  0  0
   19.5207  -26.5306   43.4171 H   0  0  0  0  0  0  0  0  0  0  0  0
   19.6436  -28.1217   42.5033 H   0  0  0  0  0  0  0  0  0  0  0  0
   21.2417  -26.1551   44.8908 H   0  0  0  0  0  0  0  0  0  0  0  0
   23.6170  -26.4305   45.5910 H   0  0  0  0  0  0  0  0  0  0  0  0
   25.2089  -27.6900   44.1455 H   0  0  0  0  0  0  0  0  0  0  0  0
   24.4213  -28.6899   42.0017 H   0  0  0  0  0  0  0  0  0  0  0  0
   22.0475  -28.4249   41.2969 H   0  0  0  0  0  0  0  0  0  0  0  0
  1  2  1  0
  2  3  2  0
  3  4  1  0
  4  5  2  0
  5  6  1  0
  6  7  1  0
  7  8  1  0
  8  9  2  0
  9 10  1  0
 10 11  2  0
 11 12  1  0
 12 13  1  0
 12 14  2  0
 14 15  1  0
 15 16  2  0
 15 17  1  0
 17 18  1  0
  5 19  1  0
 19 20  2  0
 20 21  1  0
 21 22  1  0
 22 23  2  0
 23 24  1  0
 24 25  2  0
 25 26  1  0
 26 27  2  0
 20  2  1  0
 27 22  1  0
 17  6  2  0
 14  8  1  0
  1 28  1  0
  1 29  1  0
  1 30  1  0
  3 31  1  0
  4 32  1  0
  9 33  1  0
 10 34  1  0
 11 35  1  0
 13 36  1  0
 18 37  1  0
 19 38  1  0
 21 39  1  0
 21 40  1  0
 23 41  1  0
 24 42  1  0
 25 43  1  0
 26 44  1  0
 27 45  1  0
M  END
>  <meeko>  (3) 
{"is_sidechain": [false], "free_energy": -8.61, "intermolecular_energy": -10.516, "internal_energy": -0.232}

$$$$
cand_001_out
     RDKit          3D

 45 48  0  0  0  0  0  0  0  0999 V2000
   20.2660  -30.9940   33.2640 C   0  0  0  0  0  0  0  0  0  0  0  0
   20.0690  -30.2150   34.5350 C   0  0  0  0  0  0  0  0  0  0  0  0
   20.0670  -28.8140   34.4720 C   0  0  0  0  0  0  0  0  0  0  0  0
   19.8580  -28.0420   35.6180 C   0  0  0  0  0  0  0  0  0  0  0  0
   19.6330  -28.6500   36.8570 C   0  0  0  0  0  0  0  0  0  0  0  0
   19.4280  -27.8170   38.0610 C   0  0  0  0  0  0  0  0  0  0  0  0
   20.3150  -28.1230   39.0870 O   0  0  0  0  0  0  0  0  0  0  0  0
   20.2350  -27.4220   40.2640 C   0  0  0  0  0  0  0  0  0  0  0  0
   21.1340  -27.7720   41.2720 C   0  0  0  0  0  0  0  0  0  0  0  0
   21.1080  -27.0970   42.4940 C   0  0  0  0  0  0  0  0  0  0  0  0
   20.1830  -26.0740   42.7080 C   0  0  0  0  0  0  0  0  0  0  0  0
   19.2870  -25.7260   41.7010 C   0  0  0  0  0  0  0  0  0  0  0  0
   18.4090  -24.7150   41.9780 O   0  0  0  0  0  0  0  0  0  0  0  0
   19.3140  -26.4030   40.4780 C   0  0  0  0  0  0  0  0  0  0  0  0
   18.3890  -26.0680   39.3930 C   0  0  0  0  0  0  0  0  0  0  0  0
   17.5520  -25.1760   39.5030 O   0  0  0  0  0  0  0  0  0  0  0  0
   18.4950  -26.8510   38.1400 C   0  0  0  0  0  0  0  0  0  0  0  0
   17.6250  -26.5180   37.1160 O   0  0  0  0  0  0  0  0  0  0  0  0
   19.6400  -30.0490   36.9220 C   0  0  0  0  0  0  0  0  0  0  0  0
   19.8440  -30.8460   35.7760 C   0  0  0  0  0  0  0  0  0  0  0  0
   19.8000  -32.3560   35.9310 C   0  0  0  0  0  0  0  0  0  0  0  0
   19.3760  -32.8460   37.2980 C   0  0  0  0  0  0  0  0  0  0  0  0
   18.6620  -34.0490   37.4250 C   0  0  0  0  0  0  0  0  0  0  0  0
   18.2860  -34.5230   38.6840 C   0  0  0  0  0  0  0  0  0  0  0  0
   18.6250  -33.8070   39.8300 C   0  0  0  0  0  0  0  0  0  0  0  0
   19.3440  -32.6180   39.7190 C   0  0  0  0  0  0  0  0  0  0  0  0
   19.7210  -32.1430   38.4620 C   0  0  0  0  0  0  0  0  0  0  0  0
   20.5290  -32.0338   33.5083 H   0  0  0  0  0  0  0  0  0  0  0  0
   19.3358  -30.9792   32.6770 H   0  0  0  0  0  0  0  0  0  0  0  0
   21.0773  -30.5388   32.6770 H   0  0  0  0  0  0  0  0  0  0  0  0
   20.2325  -28.3151   33.5057 H   0  0  0  0  0  0  0  0  0  0  0  0
   19.8706  -26.9445   35.5446 H   0  0  0  0  0  0  0  0  0  0  0  0
   21.8625  -28.5789   41.1041 H   0  0  0  0  0  0  0  0  0  0  0  0
   21.8172  -27.3717   43.2887 H   0  0  0  0  0  0  0  0  0  0  0  0
   20.1620  -25.5433   43.6713 H   0  0  0  0  0  0  0  0  0  0  0  0
   18.6120  -24.0870   42.6430 H   0  0  0  0  0  0  0  0  0  0  0  0
   17.1050  -25.7410   37.1780 H   0  0  0  0  0  0  0  0  0  0  0  0
   19.4820  -30.5400   37.8936 H   0  0  0  0  0  0  0  0  0  0  0  0
   19.0909  -32.7546   35.1905 H   0  0  0  0  0  0  0  0  0  0  0  0
   20.8308  -32.7105   35.7833 H   0  0  0  0  0  0  0  0  0  0  0  0
   18.3966  -34.6229   36.5249 H   0  0  0  0  0  0  0  0  0  0  0  0
   17.7214  -35.4630   38.7707 H   0  0  0  0  0  0  0  0  0  0  0  0
   18.3258  -34.1794   40.8209 H   0  0  0  0  0  0  0  0  0  0  0  0
   19.6146  -32.0533   40.6234 H   0  0  0  0  0  0  0  0  0  0  0  0
   20.2946  -31.2077   38.3831 H   0  0  0  0  0  0  0  0  0  0  0  0
  1  2  1  0
  2  3  2  0
  3  4  1  0
  4  5  2  0
  5  6  1  0
  6  7  1  0
  7  8  1  0
  8  9  2  0
  9 10  1  0
 10 11  2  0
 11 12  1  0
 12 13  1  0
 12 14  2  0
 14 15  1  0
 15 16  2  0
 15 17  1  0
 17 18  1  0
  5 19  1  0
 19 20  2  0
 20 21  1  0
 21 22  1  0
 22 23  2  0
 23 24  1  0
 24 25  2  0
 25 26  1  0
 26 27  2  0
 20  2  1  0
 27 22  1  0
 17  6  2  0
 14  8  1  0
  1 28  1  0
  1 29  1  0
  1 30  1  0
  3 31  1  0
  4 32  1  0
  9 33  1  0
 10 34  1  0
 11 35  1  0
 13 36  1  0
 18 37  1  0
 19 38  1  0
 21 39  1  0
 21 40  1  0
 23 41  1  0
 24 42  1  0
 25 43  1  0
 26 44  1  0
 27 45  1  0
M  END
>  <meeko>  (4) 
{"is_sidechain": [false], "free_energy": -8.578, "intermolecular_energy": -10.963, "internal_energy": 0.254}

$$$$
cand_001_out
     RDKit          3D

 45 48  0  0  0  0  0  0  0  0999 V2000
   20.0070  -23.4430   43.9450 C   0  0  0  0  0  0  0  0  0  0  0  0
   19.7760  -23.9630   42.5530 C   0  0  0  0  0  0  0  0  0  0  0  0
   19.5450  -23.0400   41.5200 C   0  0  0  0  0  0  0  0  0  0  0  0
   19.3550  -23.4670   40.2030 C   0  0  0  0  0  0  0  0  0  0  0  0
   19.4030  -24.8260   39.8790 C   0  0  0  0  0  0  0  0  0  0  0  0
   19.1850  -25.2590   38.4820 C   0  0  0  0  0  0  0  0  0  0  0  0
   18.0300  -24.7230   37.9250 O   0  0  0  0  0  0  0  0  0  0  0  0
   17.7080  -25.0440   36.6300 C   0  0  0  0  0  0  0  0  0  0  0  0
   16.5320  -24.4960   36.1150 C   0  0  0  0  0  0  0  0  0  0  0  0
   16.1480  -24.7800   34.8040 C   0  0  0  0  0  0  0  0  0  0  0  0
   16.9370  -25.6120   34.0080 C   0  0  0  0  0  0  0  0  0  0  0  0
   18.1100  -26.1570   34.5230 C   0  0  0  0  0  0  0  0  0  0  0  0
   18.8360  -26.9620   33.6890 O   0  0  0  0  0  0  0  0  0  0  0  0
   18.4950  -25.8720   35.8370 C   0  0  0  0  0  0  0  0  0  0  0  0
   19.7200  -26.4240   36.4170 C   0  0  0  0  0  0  0  0  0  0  0  0
   20.4710  -27.1570   35.7780 O   0  0  0  0  0  0  0  0  0  0  0  0
   20.0330  -26.0670   37.8200 C   0  0  0  0  0  0  0  0  0  0  0  0
   21.2000  -26.5840   38.3550 O   0  0  0  0  0  0  0  0  0  0  0  0
   19.6280  -25.7480   40.9100 C   0  0  0  0  0  0  0  0  0  0  0  0
   19.8270  -25.3370   42.2450 C   0  0  0  0  0  0  0  0  0  0  0  0
   20.1010  -26.4020   43.2920 C   0  0  0  0  0  0  0  0  0  0  0  0
   21.5410  -26.8570   43.3810 C   0  0  0  0  0  0  0  0  0  0  0  0
   22.3170  -26.5220   44.5020 C   0  0  0  0  0  0  0  0  0  0  0  0
   23.6410  -26.9560   44.6050 C   0  0  0  0  0  0  0  0  0  0  0  0
   24.2010  -27.7360   43.5960 C   0  0  0  0  0  0  0  0  0  0  0  0
   23.4370  -28.0860   42.4840 C   0  0  0  0  0  0  0  0  0  0  0  0
   22.1140  -27.6540   42.3790 C   0  0  0  0  0  0  0  0  0  0  0  0
   19.6736  -24.1935   44.6768 H   0  0  0  0  0  0  0  0  0  0  0  0
   21.0790  -23.2422   44.0882 H   0  0  0  0  0  0  0  0  0  0  0  0
   19.4374  -22.5129   44.0882 H   0  0  0  0  0  0  0  0  0  0  0  0
   19.5132  -21.9650   41.7510 H   0  0  0  0  0  0  0  0  0  0  0  0
   19.1656  -22.7257   39.4127 H   0  0  0  0  0  0  0  0  0  0  0  0
   15.9089  -23.8412   36.7418 H   0  0  0  0  0  0  0  0  0  0  0  0
   15.2220  -24.3476   34.3971 H   0  0  0  0  0  0  0  0  0  0  0  0
   16.6324  -25.8367   32.9752 H   0  0  0  0  0  0  0  0  0  0  0  0
   19.6470  -27.3290   33.9800 H   0  0  0  0  0  0  0  0  0  0  0  0
   21.1700  -27.3530   38.8890 H   0  0  0  0  0  0  0  0  0  0  0  0
   19.6501  -26.8217   40.6720 H   0  0  0  0  0  0  0  0  0  0  0  0
   19.8095  -25.9988   44.2730 H   0  0  0  0  0  0  0  0  0  0  0  0
   19.5181  -27.2851   42.9914 H   0  0  0  0  0  0  0  0  0  0  0  0
   21.8788  -25.9126   45.3061 H   0  0  0  0  0  0  0  0  0  0  0  0
   24.2421  -26.6813   45.4843 H   0  0  0  0  0  0  0  0  0  0  0  0
   25.2443  -28.0752   43.6766 H   0  0  0  0  0  0  0  0  0  0  0  0
   23.8776  -28.7039   41.6877 H   0  0  0  0  0  0  0  0  0  0  0  0
   21.5150  -27.9412   41.5022 H   0  0  0  0  0  0  0  0  0  0  0  0
  1  2  1  0
  2  3  2  0
  3  4  1  0
  4  5  2  0
  5  6  1  0
  6  7  1  0
  7  8  1  0
  8  9  2  0
  9 10  1  0
 10 11  2  0
 11 12  1  0
 12 13  1  0
 12 14  2  0
 14 15  1  0
 15 16  2  0
 15 17  1  0
 17 18  1  0
  5 19  1  0
 19 20  2  0
 20 21  1  0
 21 22  1  0
 22 23  2  0
 23 24  1  0
 24 25  2  0
 25 26  1  0
 26 27  2  0
 20  2  1  0
 27 22  1  0
 17  6  2  0
 14  8  1  0
  1 28  1  0
  1 29  1  0
  1 30  1  0
  3 31  1  0
  4 32  1  0
  9 33  1  0
 10 34  1  0
 11 35  1  0
 13 36  1  0
 18 37  1  0
 19 38  1  0
 21 39  1  0
 21 40  1  0
 23 41  1  0
 24 42  1  0
 25 43  1  0
 26 44  1  0
 27 45  1  0
M  END
>  <meeko>  (5) 
{"is_sidechain": [false], "free_energy": -8.532, "intermolecular_energy": -9.887, "internal_energy": -0.764}

$$$$
cand_001_out
     RDKit          3D

 45 48  0  0  0  0  0  0  0  0999 V2000
   18.0530  -27.5820   36.4450 C   0  0  0  0  0  0  0  0  0  0  0  0
   18.8730  -27.4770   37.7020 C   0  0  0  0  0  0  0  0  0  0  0  0
   18.8980  -28.5700   38.5820 C   0  0  0  0  0  0  0  0  0  0  0  0
   19.6680  -28.5370   39.7480 C   0  0  0  0  0  0  0  0  0  0  0  0
   20.4430  -27.4160   40.0600 C   0  0  0  0  0  0  0  0  0  0  0  0
   21.2400  -27.3940   41.3060 C   0  0  0  0  0  0  0  0  0  0  0  0
   22.2540  -28.3460   41.3140 O   0  0  0  0  0  0  0  0  0  0  0  0
   23.0710  -28.4340   42.4130 C   0  0  0  0  0  0  0  0  0  0  0  0
   24.0650  -29.4130   42.3870 C   0  0  0  0  0  0  0  0  0  0  0  0
   24.9320  -29.5540   43.4710 C   0  0  0  0  0  0  0  0  0  0  0  0
   24.8050  -28.7190   44.5820 C   0  0  0  0  0  0  0  0  0  0  0  0
   23.8130  -27.7430   44.6070 C   0  0  0  0  0  0  0  0  0  0  0  0
   23.7450  -26.9580   45.7250 O   0  0  0  0  0  0  0  0  0  0  0  0
   22.9440  -27.6020   43.5200 C   0  0  0  0  0  0  0  0  0  0  0  0
   21.8880  -26.5890   43.5060 C   0  0  0  0  0  0  0  0  0  0  0  0
   21.7180  -25.8110   44.4420 O   0  0  0  0  0  0  0  0  0  0  0  0
   21.0160  -26.5270   42.3090 C   0  0  0  0  0  0  0  0  0  0  0  0
   20.0290  -25.5570   42.3000 O   0  0  0  0  0  0  0  0  0  0  0  0
   20.4140  -26.3220   39.1850 C   0  0  0  0  0  0  0  0  0  0  0  0
   19.6480  -26.3380   38.0010 C   0  0  0  0  0  0  0  0  0  0  0  0
   19.7030  -25.1230   37.0920 C   0  0  0  0  0  0  0  0  0  0  0  0
   18.6780  -24.0510   37.3920 C   0  0  0  0  0  0  0  0  0  0  0  0
   18.9920  -23.0040   38.2720 C   0  0  0  0  0  0  0  0  0  0  0  0
   18.0620  -21.9960   38.5380 C   0  0  0  0  0  0  0  0  0  0  0  0
   16.8120  -22.0190   37.9230 C   0  0  0  0  0  0  0  0  0  0  0  0
   16.4930  -23.0460   37.0370 C   0  0  0  0  0  0  0  0  0  0  0  0
   17.4210  -24.0530   36.7690 C   0  0  0  0  0  0  0  0  0  0  0  0
   16.9937  -27.7176   36.7085 H   0  0  0  0  0  0  0  0  0  0  0  0
   18.1688  -26.6617   35.8537 H   0  0  0  0  0  0  0  0  0  0  0  0
   18.3970  -28.4434   35.8537 H   0  0  0  0  0  0  0  0  0  0  0  0
   18.3029  -29.4657   38.3507 H   0  0  0  0  0  0  0  0  0  0  0  0
   19.6642  -29.4022   40.4273 H   0  0  0  0  0  0  0  0  0  0  0  0
   24.1649  -30.0730   41.5127 H   0  0  0  0  0  0  0  0  0  0  0  0
   25.7168  -30.3245   43.4499 H   0  0  0  0  0  0  0  0  0  0  0  0
   25.4880  -28.8321   45.4368 H   0  0  0  0  0  0  0  0  0  0  0  0
   24.2110  -27.2050   46.4990 H   0  0  0  0  0  0  0  0  0  0  0  0
   19.9500  -24.9630   43.0200 H   0  0  0  0  0  0  0  0  0  0  0  0
   21.0047  -25.4265   39.4282 H   0  0  0  0  0  0  0  0  0  0  0  0
   20.7029  -24.6738   37.1835 H   0  0  0  0  0  0  0  0  0  0  0  0
   19.4780  -25.4875   36.0788 H   0  0  0  0  0  0  0  0  0  0  0  0
   19.9791  -22.9767   38.7566 H   0  0  0  0  0  0  0  0  0  0  0  0
   18.3169  -21.1831   39.2339 H   0  0  0  0  0  0  0  0  0  0  0  0
   16.0783  -21.2278   38.1365 H   0  0  0  0  0  0  0  0  0  0  0  0
   15.5078  -23.0630   36.5479 H   0  0  0  0  0  0  0  0  0  0  0  0
   17.1645  -24.8561   36.0625 H   0  0  0  0  0  0  0  0  0  0  0  0
  1  2  1  0
  2  3  2  0
  3  4  1  0
  4  5  2  0
  5  6  1  0
  6  7  1  0
  7  8  1  0
  8  9  2  0
  9 10  1  0
 10 11  2  0
 11 12  1  0
 12 13  1  0
 12 14  2  0
 14 15  1  0
 15 16  2  0
 15 17  1  0
 17 18  1  0
  5 19  1  0
 19 20  2  0
 20 21  1  0
 21 22  1  0
 22 23  2  0
 23 24  1  0
 24 25  2  0
 25 26  1  0
 26 27  2  0
 20  2  1  0
 27 22  1  0
 17  6  2  0
 14  8  1  0
  1 28  1  0
  1 29  1  0
  1 30  1  0
  3 31  1  0
  4 32  1  0
  9 33  1  0
 10 34  1  0
 11 35  1  0
 13 36  1  0
 18 37  1  0
 19 38  1  0
 21 39  1  0
 21 40  1  0
 23 41  1  0
 24 42  1  0
 25 43  1  0
 26 44  1  0
 27 45  1  0
M  END
>  <meeko>  (6) 
{"is_sidechain": [false], "free_energy": -8.181, "intermolecular_energy": -9.318, "internal_energy": -0.901}

$$$$
cand_001_out
     RDKit          3D

 45 48  0  0  0  0  0  0  0  0999 V2000
   20.2510  -27.1990   39.6790 C   0  0  0  0  0  0  0  0  0  0  0  0
   20.0780  -25.9520   40.5030 C   0  0  0  0  0  0  0  0  0  0  0  0
   19.8010  -24.7440   39.8450 C   0  0  0  0  0  0  0  0  0  0  0  0
   19.6010  -23.5620   40.5630 C   0  0  0  0  0  0  0  0  0  0  0  0
   19.6610  -23.5570   41.9600 C   0  0  0  0  0  0  0  0  0  0  0  0
   19.4610  -22.2940   42.7020 C   0  0  0  0  0  0  0  0  0  0  0  0
   18.1220  -21.9310   42.7980 O   0  0  0  0  0  0  0  0  0  0  0  0
   17.7950  -20.7770   43.4640 C   0  0  0  0  0  0  0  0  0  0  0  0
   16.4410  -20.4420   43.5240 C   0  0  0  0  0  0  0  0  0  0  0  0
   16.0400  -19.2820   44.1880 C   0  0  0  0  0  0  0  0  0  0  0  0
   16.9900  -18.4560   44.7910 C   0  0  0  0  0  0  0  0  0  0  0  0
   18.3400  -18.7920   44.7310 C   0  0  0  0  0  0  0  0  0  0  0  0
   19.2160  -17.9400   45.3440 O   0  0  0  0  0  0  0  0  0  0  0  0
   18.7410  -19.9540   44.0660 C   0  0  0  0  0  0  0  0  0  0  0  0
   20.1500  -20.3440   43.9790 C   0  0  0  0  0  0  0  0  0  0  0  0
   21.0440  -19.6740   44.4910 O   0  0  0  0  0  0  0  0  0  0  0  0
   20.4700  -21.5900   43.2440 C   0  0  0  0  0  0  0  0  0  0  0  0
   21.8030  -21.9550   43.1800 O   0  0  0  0  0  0  0  0  0  0  0  0
   19.9430  -24.7620   42.6180 C   0  0  0  0  0  0  0  0  0  0  0  0
   20.1430  -25.9660   41.9110 C   0  0  0  0  0  0  0  0  0  0  0  0
   20.4080  -27.2320   42.7060 C   0  0  0  0  0  0  0  0  0  0  0  0
   21.8490  -27.4380   43.1210 C   0  0  0  0  0  0  0  0  0  0  0  0
   22.3250  -26.8760   44.3160 C   0  0  0  0  0  0  0  0  0  0  0  0
   23.6460  -27.0790   44.7200 C   0  0  0  0  0  0  0  0  0  0  0  0
   24.5040  -27.8510   43.9410 C   0  0  0  0  0  0  0  0  0  0  0  0
   24.0410  -28.4250   42.7590 C   0  0  0  0  0  0  0  0  0  0  0  0
   22.7200  -28.2250   42.3530 C   0  0  0  0  0  0  0  0  0  0  0  0
   20.3712  -28.0654   40.3459 H   0  0  0  0  0  0  0  0  0  0  0  0
   19.3645  -27.3450   39.0443 H   0  0  0  0  0  0  0  0  0  0  0  0
   21.1438  -27.0982   39.0443 H   0  0  0  0  0  0  0  0  0  0  0  0
   19.7403  -24.7272   38.7468 H   0  0  0  0  0  0  0  0  0  0  0  0
   19.3942  -22.6258   40.0237 H   0  0  0  0  0  0  0  0  0  0  0  0
   15.6913  -21.0915   43.0485 H   0  0  0  0  0  0  0  0  0  0  0  0
   14.9732  -19.0180   44.2363 H   0  0  0  0  0  0  0  0  0  0  0  0
   16.6727  -17.5411   45.3128 H   0  0  0  0  0  0  0  0  0  0  0  0
   19.4650  -18.0860   46.2360 H   0  0  0  0  0  0  0  0  0  0  0  0
   22.4520  -21.4400   43.6170 H   0  0  0  0  0  0  0  0  0  0  0  0
   20.0102  -24.7689   43.7159 H   0  0  0  0  0  0  0  0  0  0  0  0
   19.7923  -27.1979   43.6169 H   0  0  0  0  0  0  0  0  0  0  0  0
   20.1574  -28.0708   42.0400 H   0  0  0  0  0  0  0  0  0  0  0  0
   21.6512  -26.2702   44.9398 H   0  0  0  0  0  0  0  0  0  0  0  0
   24.0096  -26.6283   45.6553 H   0  0  0  0  0  0  0  0  0  0  0  0
   25.5456  -28.0074   44.2583 H   0  0  0  0  0  0  0  0  0  0  0  0
   24.7175  -29.0370   42.1443 H   0  0  0  0  0  0  0  0  0  0  0  0
   22.3593  -28.6886   41.4230 H   0  0  0  0  0  0  0  0  0  0  0  0
  1  2  1  0
  2  3  2  0
  3  4  1  0
  4  5  2  0
  5  6  1  0
  6  7  1  0
  7  8  1  0
  8  9  2  0
  9 10  1  0
 10 11  2  0
 11 12  1  0
 12 13  1  0
 12 14  2  0
 14 15  1  0
 15 16  2  0
 15 17  1  0
 17 18  1  0
  5 19  1  0
 19 20  2  0
 20 21  1  0
 21 22  1  0
 22 23  2  0
 23 24  1  0
 24 25  2  0
 25 26  1  0
 26 27  2  0
 20  2  1  0
 27 22  1  0
 17  6  2  0
 14  8  1  0
  1 28  1  0
  1 29  1  0
  1 30  1  0
  3 31  1  0
  4 32  1  0
  9 33  1  0
 10 34  1  0
 11 35  1  0
 13 36  1  0
 18 37  1  0
 19 38  1  0
 21 39  1  0
 21 40  1  0
 23 41  1  0
 24 42  1  0
 25 43  1  0
 26 44  1  0
 27 45  1  0
M  END
>  <meeko>  (7) 
{"is_sidechain": [false], "free_energy": -8.174, "intermolecular_energy": -9.195, "internal_energy": -1.015}

$$$$
cand_001_out
     RDKit          3D

 45 48  0  0  0  0  0  0  0  0999 V2000
   19.6910  -24.9030   41.4870 C   0  0  0  0  0  0  0  0  0  0  0  0
   19.6010  -26.1810   40.6990 C   0  0  0  0  0  0  0  0  0  0  0  0
   20.4910  -27.2230   41.0010 C   0  0  0  0  0  0  0  0  0  0  0  0
   20.4310  -28.4420   40.3210 C   0  0  0  0  0  0  0  0  0  0  0  0
   19.4710  -28.6580   39.3280 C   0  0  0  0  0  0  0  0  0  0  0  0
   19.4310  -29.9500   38.6090 C   0  0  0  0  0  0  0  0  0  0  0  0
   19.0640  -31.0120   39.4280 O   0  0  0  0  0  0  0  0  0  0  0  0
   18.9880  -32.2700   38.8860 C   0  0  0  0  0  0  0  0  0  0  0  0
   18.6300  -33.3090   39.7460 C   0  0  0  0  0  0  0  0  0  0  0  0
   18.5320  -34.6140   39.2590 C   0  0  0  0  0  0  0  0  0  0  0  0
   18.7900  -34.8800   37.9130 C   0  0  0  0  0  0  0  0  0  0  0  0
   19.1470  -33.8410   37.0570 C   0  0  0  0  0  0  0  0  0  0  0  0
   19.3850  -34.1720   35.7510 O   0  0  0  0  0  0  0  0  0  0  0  0
   19.2450  -32.5350   37.5450 C   0  0  0  0  0  0  0  0  0  0  0  0
   19.6170  -31.4160   36.6790 C   0  0  0  0  0  0  0  0  0  0  0  0
   19.8520  -31.5680   35.4820 O   0  0  0  0  0  0  0  0  0  0  0  0
   19.7010  -30.0710   37.2970 C   0  0  0  0  0  0  0  0  0  0  0  0
   20.0400  -29.0180   36.4660 O   0  0  0  0  0  0  0  0  0  0  0  0
   18.5840  -27.6170   39.0210 C   0  0  0  0  0  0  0  0  0  0  0  0
   18.6260  -26.3810   39.7000 C   0  0  0  0  0  0  0  0  0  0  0  0
   17.6040  -25.3210   39.3290 C   0  0  0  0  0  0  0  0  0  0  0  0
   18.0350  -24.3750   38.2290 C   0  0  0  0  0  0  0  0  0  0  0  0
   18.7990  -23.2380   38.5370 C   0  0  0  0  0  0  0  0  0  0  0  0
   19.2220  -22.3710   37.5270 C   0  0  0  0  0  0  0  0  0  0  0  0
   18.8940  -22.6320   36.1990 C   0  0  0  0  0  0  0  0  0  0  0  0
   18.1460  -23.7630   35.8780 C   0  0  0  0  0  0  0  0  0  0  0  0
   17.7230  -24.6320   36.8860 C   0  0  0  0  0  0  0  0  0  0  0  0
   19.6748  -25.1334   42.5625 H   0  0  0  0  0  0  0  0  0  0  0  0
   20.6280  -24.3835   41.2374 H   0  0  0  0  0  0  0  0  0  0  0  0
   18.8361  -24.2574   41.2374 H   0  0  0  0  0  0  0  0  0  0  0  0
   21.2481  -27.0777   41.7857 H   0  0  0  0  0  0  0  0  0  0  0  0
   21.1464  -29.2398   40.5695 H   0  0  0  0  0  0  0  0  0  0  0  0
   18.4252  -33.1002   40.8064 H   0  0  0  0  0  0  0  0  0  0  0  0
   18.2511  -35.4336   39.9368 H   0  0  0  0  0  0  0  0  0  0  0  0
   18.7115  -35.9079   37.5294 H   0  0  0  0  0  0  0  0  0  0  0  0
   18.7460  -33.9790   35.0950 H   0  0  0  0  0  0  0  0  0  0  0  0
   20.4000  -29.1880   35.6180 H   0  0  0  0  0  0  0  0  0  0  0  0
   17.8351  -27.7678   38.2295 H   0  0  0  0  0  0  0  0  0  0  0  0
   16.6867  -25.8315   39.0003 H   0  0  0  0  0  0  0  0  0  0  0  0
   17.4614  -24.7031   40.2278 H   0  0  0  0  0  0  0  0  0  0  0  0
   19.0668  -23.0282   39.5831 H   0  0  0  0  0  0  0  0  0  0  0  0
   19.8154  -21.4803   37.7810 H   0  0  0  0  0  0  0  0  0  0  0  0
   19.2248  -21.9466   35.4048 H   0  0  0  0  0  0  0  0  0  0  0  0
   17.8884  -23.9716   34.8291 H   0  0  0  0  0  0  0  0  0  0  0  0
   17.1394  -25.5269   36.6241 H   0  0  0  0  0  0  0  0  0  0  0  0
  1  2  1  0
  2  3  2  0
  3  4  1  0
  4  5  2  0
  5  6  1  0
  6  7  1  0
  7  8  1  0
  8  9  2  0
  9 10  1  0
 10 11  2  0
 11 12  1  0
 12 13  1  0
 12 14  2  0
 14 15  1  0
 15 16  2  0
 15 17  1  0
 17 18  1  0
  5 19  1  0
 19 20  2  0
 20 21  1  0
 21 22  1  0
 22 23  2  0
 23 24  1  0
 24 25  2  0
 25 26  1  0
 26 27  2  0
 20  2  1  0
 27 22  1  0
 17  6  2  0
 14  8  1  0
  1 28  1  0
  1 29  1  0
  1 30  1  0
  3 31  1  0
  4 32  1  0
  9 33  1  0
 10 34  1  0
 11 35  1  0
 13 36  1  0
 18 37  1  0
 19 38  1  0
 21 39  1  0
 21 40  1  0
 23 41  1  0
 24 42  1  0
 25 43  1  0
 26 44  1  0
 27 45  1  0
M  END
>  <meeko>  (8) 
{"is_sidechain": [false], "free_energy": -8.115, "intermolecular_energy": -9.254, "internal_energy": -0.883}

$$$$
cand_001_out
     RDKit          3D

 45 48  0  0  0  0  0  0  0  0999 V2000
   20.1330  -25.9020   39.7210 C   0  0  0  0  0  0  0  0  0  0  0  0
   20.0090  -25.1900   41.0410 C   0  0  0  0  0  0  0  0  0  0  0  0
   19.6390  -23.8370   41.0430 C   0  0  0  0  0  0  0  0  0  0  0  0
   19.4800  -23.1360   42.2410 C   0  0  0  0  0  0  0  0  0  0  0  0
   19.6730  -23.7720   43.4710 C   0  0  0  0  0  0  0  0  0  0  0  0
   19.5130  -23.0100   44.7280 C   0  0  0  0  0  0  0  0  0  0  0  0
   20.6940  -22.4060   45.1470 O   0  0  0  0  0  0  0  0  0  0  0  0
   20.6860  -21.6660   46.3020 C   0  0  0  0  0  0  0  0  0  0  0  0
   21.8960  -21.0900   46.6940 C   0  0  0  0  0  0  0  0  0  0  0  0
   21.9570  -20.3230   47.8580 C   0  0  0  0  0  0  0  0  0  0  0  0
   20.8100  -20.1310   48.6310 C   0  0  0  0  0  0  0  0  0  0  0  0
   19.6040  -20.7060   48.2380 C   0  0  0  0  0  0  0  0  0  0  0  0
   18.5210  -20.4770   49.0410 O   0  0  0  0  0  0  0  0  0  0  0  0
   19.5440  -21.4740   47.0720 C   0  0  0  0  0  0  0  0  0  0  0  0
   18.2970  -22.0960   46.6240 C   0  0  0  0  0  0  0  0  0  0  0  0
   17.2440  -21.9670   47.2450 O   0  0  0  0  0  0  0  0  0  0  0  0
   18.3410  -22.8980   45.3790 C   0  0  0  0  0  0  0  0  0  0  0  0
   17.1540  -23.4700   44.9570 O   0  0  0  0  0  0  0  0  0  0  0  0
   20.0470  -25.1220   43.4700 C   0  0  0  0  0  0  0  0  0  0  0  0
   20.2090  -25.8480   42.2720 C   0  0  0  0  0  0  0  0  0  0  0  0
   20.5810  -27.3170   42.3650 C   0  0  0  0  0  0  0  0  0  0  0  0
   21.9580  -27.5940   42.9280 C   0  0  0  0  0  0  0  0  0  0  0  0
   22.2980  -27.1410   44.2120 C   0  0  0  0  0  0  0  0  0  0  0  0
   23.5580  -27.4110   44.7510 C   0  0  0  0  0  0  0  0  0  0  0  0
   24.4880  -28.1440   44.0180 C   0  0  0  0  0  0  0  0  0  0  0  0
   24.1590  -28.6110   42.7470 C   0  0  0  0  0  0  0  0  0  0  0  0
   22.9010  -28.3420   42.2070 C   0  0  0  0  0  0  0  0  0  0  0  0
   20.3193  -26.9717   39.8974 H   0  0  0  0  0  0  0  0  0  0  0  0
   19.2003  -25.7815   39.1504 H   0  0  0  0  0  0  0  0  0  0  0  0
   20.9700  -25.4733   39.1504 H   0  0  0  0  0  0  0  0  0  0  0  0
   19.4715  -23.3200   40.0867 H   0  0  0  0  0  0  0  0  0  0  0  0
   19.2000  -22.0725   42.2162 H   0  0  0  0  0  0  0  0  0  0  0  0
   22.8001  -21.2407   46.0859 H   0  0  0  0  0  0  0  0  0  0  0  0
   22.9100  -19.8689   48.1672 H   0  0  0  0  0  0  0  0  0  0  0  0
   20.8590  -19.5266   49.5488 H   0  0  0  0  0  0  0  0  0  0  0  0
   17.8770  -21.1470   49.1610 H   0  0  0  0  0  0  0  0  0  0  0  0
   17.1520  -24.0650   44.2340 H   0  0  0  0  0  0  0  0  0  0  0  0
   20.2191  -25.6299   44.4304 H   0  0  0  0  0  0  0  0  0  0  0  0
   19.8422  -27.8159   43.0095 H   0  0  0  0  0  0  0  0  0  0  0  0
   20.5886  -27.6979   41.3331 H   0  0  0  0  0  0  0  0  0  0  0  0
   21.5654  -26.5680   44.7994 H   0  0  0  0  0  0  0  0  0  0  0  0
   23.8160  -27.0443   45.7555 H   0  0  0  0  0  0  0  0  0  0  0  0
   25.4811  -28.3541   44.4418 H   0  0  0  0  0  0  0  0  0  0  0  0
   24.8921  -29.1925   42.1687 H   0  0  0  0  0  0  0  0  0  0  0  0
   22.6459  -28.7201   41.2060 H   0  0  0  0  0  0  0  0  0  0  0  0
  1  2  1  0
  2  3  2  0
  3  4  1  0
  4  5  2  0
  5  6  1  0
  6  7  1  0
  7  8  1  0
  8  9  2  0
  9 10  1  0
 10 11  2  0
 11 12  1  0
 12 13  1  0
 12 14  2  0
 14 15  1  0
 15 16  2  0
 15 17  1  0
 17 18  1  0
  5 19  1  0
 19 20  2  0
 20 21  1  0
 21 22  1  0
 22 23  2  0
 23 24  1  0
 24 25  2  0
 25 26  1  0
 26 27  2  0
 20  2  1  0
 27 22  1  0
 17  6  2  0
 14  8  1  0
  1 28  1  0
  1 29  1  0
  1 30  1  0
  3 31  1  0
  4 32  1  0
  9 33  1  0
 10 34  1  0
 11 35  1  0
 13 36  1  0
 18 37  1  0
 19 38  1  0
 21 39  1  0
 21 40  1  0
 23 41  1  0
 24 42  1  0
 25 43  1  0
 26 44  1  0
 27 45  1  0
M  END
>  <meeko>  (9) 
{"is_sidechain": [false], "free_energy": -8.06, "intermolecular_energy": -9.404, "internal_energy": -0.666}

$$$$
