cand_010_out
     RDKit          3D

 35 37  0  0  0  0  0  0  0  0999 V2000
   17.5100  -25.7210   39.6470 O   0  0  0  0  0  0  0  0  0  0  0  0
   18.3280  -26.6210   39.8320 C   0  0  0  0  0  0  0  0  0  0  0  0
   18.3620  -27.8000   38.9360 C   0  0  0  0  0  0  0  0  0  0  0  0
   17.4550  -27.8260   37.8920 O   0  0  0  0  0  0  0  0  0  0  0  0
   19.2750  -28.7600   39.1720 C   0  0  0  0  0  0  0  0  0  0  0  0
   19.4080  -29.9730   38.3360 C   0  0  0  0  0  0  0  0  0  0  0  0
   19.7700  -29.9010   36.9870 C   0  0  0  0  0  0  0  0  0  0  0  0
   19.8640  -31.0580   36.2090 C   0  0  0  0  0  0  0  0  0  0  0  0
   19.5880  -32.3200   36.7570 C   0  0  0  0  0  0  0  0  0  0  0  0
   19.7080  -33.5480   35.8840 C   0  0  0  0  0  0  0  0  0  0  0  0
   20.0220  -33.2600   34.5880 F   0  0  0  0  0  0  0  0  0  0  0  0
   19.2180  -32.4120   38.1170 C   0  0  0  0  0  0  0  0  0  0  0  0
   18.9070  -33.7450   38.7580 C   0  0  0  0  0  0  0  0  0  0  0  0
   19.9350  -34.6360   38.7050 F   0  0  0  0  0  0  0  0  0  0  0  0
   18.5890  -33.6220   40.0770 F   0  0  0  0  0  0  0  0  0  0  0  0
   17.8450  -34.3670   38.1770 F   0  0  0  0  0  0  0  0  0  0  0  0
   19.1260  -31.2320   38.8850 C   0  0  0  0  0  0  0  0  0  0  0  0
   20.2040  -28.7110   40.2050 O   0  0  0  0  0  0  0  0  0  0  0  0
   20.1900  -27.6370   41.0570 C   0  0  0  0  0  0  0  0  0  0  0  0
   21.1300  -27.6340   42.0880 C   0  0  0  0  0  0  0  0  0  0  0  0
   21.1710  -26.5690   42.9900 C   0  0  0  0  0  0  0  0  0  0  0  0
   20.2740  -25.5070   42.8610 C   0  0  0  0  0  0  0  0  0  0  0  0
   19.3370  -25.5120   41.8310 C   0  0  0  0  0  0  0  0  0  0  0  0
   18.4900  -24.4400   41.7620 O   0  0  0  0  0  0  0  0  0  0  0  0
   19.2960  -26.5780   40.9290 C   0  0  0  0  0  0  0  0  0  0  0  0
   16.5390  -27.9200   38.0710 H   0  0  0  0  0  0  0  0  0  0  0  0
   19.9833  -28.9220   36.5330 H   0  0  0  0  0  0  0  0  0  0  0  0
   20.1585  -30.9784   35.1521 H   0  0  0  0  0  0  0  0  0  0  0  0
   20.4949  -34.1954   36.2983 H   0  0  0  0  0  0  0  0  0  0  0  0
   18.7250  -34.0417   35.8792 H   0  0  0  0  0  0  0  0  0  0  0  0
   18.8255  -31.3015   39.9409 H   0  0  0  0  0  0  0  0  0  0  0  0
   21.8380  -28.4697   42.1901 H   0  0  0  0  0  0  0  0  0  0  0  0
   21.9113  -26.5667   43.8036 H   0  0  0  0  0  0  0  0  0  0  0  0
   20.3074  -24.6680   43.5716 H   0  0  0  0  0  0  0  0  0  0  0  0
   18.6480  -23.7580   41.1390 H   0  0  0  0  0  0  0  0  0  0  0  0
  1  2  2  0
  2  3  1  0
  3  4  1  0
  3  5  2  0
  5  6  1  0
  6  7  2  0
  7  8  1  0
  8  9  2  0
  9 10  1  0
 10 11  1  0
  9 12  1  0
 12 13  1  0
 13 14  1  0
 13 15  1  0
 13 16  1  0
 12 17  2  0
  5 18  1  0
 18 19  1  0
 19 20  2  0
 20 21  1  0
 21 22  2  0
 22 23  1  0
 23 24  1  0
 23 25  2  0
 25  2  1  0
 17  6  1  0
 25 19  1  0
  4 26  1  0
  7 27  1  0
  8 28  1  0
 10 29  1  0
 10 30  1  0
 17 31  1  0
 20 32  1  0
 21 33  1  0
 22 34  1  0
 24 35  1  0
M  END
>  <meeko>  (1) 
{"is_sidechain": [false], "free_energy": -8.361, "intermolecular_energy": -10.316, "internal_energy": -0.324}

$$$$
cand_010_out
     RDKit          3D

 35 37  0  0  0  0  0  0  0  0999 V2000
   20.0200  -32.2760   35.4170 O   0  0  0  0  0  0  0  0  0  0  0  0
   19.6650  -32.0620   36.5750 C   0  0  0  0  0  0  0  0  0  0  0  0
   19.6630  -30.6840   37.1170 C   0  0  0  0  0  0  0  0  0  0  0  0
   20.0580  -29.6700   36.2640 O   0  0  0  0  0  0  0  0  0  0  0  0
   19.2640  -30.4940   38.3880 C   0  0  0  0  0  0  0  0  0  0  0  0
   19.2110  -29.1620   39.0290 C   0  0  0  0  0  0  0  0  0  0  0  0
   18.2150  -28.2330   38.7130 C   0  0  0  0  0  0  0  0  0  0  0  0
   18.1990  -26.9700   39.3110 C   0  0  0  0  0  0  0  0  0  0  0  0
   19.1860  -26.5970   40.2360 C   0  0  0  0  0  0  0  0  0  0  0  0
   19.1290  -25.2250   40.8660 C   0  0  0  0  0  0  0  0  0  0  0  0
   20.0240  -24.3460   40.3270 F   0  0  0  0  0  0  0  0  0  0  0  0
   20.2010  -27.5220   40.5650 C   0  0  0  0  0  0  0  0  0  0  0  0
   21.2910  -27.1730   41.5520 C   0  0  0  0  0  0  0  0  0  0  0  0
   20.8310  -26.6290   42.7140 F   0  0  0  0  0  0  0  0  0  0  0  0
   22.0270  -28.2600   41.9160 F   0  0  0  0  0  0  0  0  0  0  0  0
   22.1820  -26.2740   41.0490 F   0  0  0  0  0  0  0  0  0  0  0  0
   20.2030  -28.7910   39.9490 C   0  0  0  0  0  0  0  0  0  0  0  0
   18.8400  -31.5160   39.2290 O   0  0  0  0  0  0  0  0  0  0  0  0
   18.8400  -32.8040   38.7590 C   0  0  0  0  0  0  0  0  0  0  0  0
   18.4200  -33.8000   39.6400 C   0  0  0  0  0  0  0  0  0  0  0  0
   18.3940  -35.1330   39.2240 C   0  0  0  0  0  0  0  0  0  0  0  0
   18.7880  -35.4690   37.9270 C   0  0  0  0  0  0  0  0  0  0  0  0
   19.2070  -34.4730   37.0490 C   0  0  0  0  0  0  0  0  0  0  0  0
   19.5780  -34.8720   35.7940 O   0  0  0  0  0  0  0  0  0  0  0  0
   19.2330  -33.1400   37.4660 C   0  0  0  0  0  0  0  0  0  0  0  0
   20.2560  -29.8620   35.3680 H   0  0  0  0  0  0  0  0  0  0  0  0
   17.4346  -28.4994   37.9850 H   0  0  0  0  0  0  0  0  0  0  0  0
   17.4012  -26.2580   39.0528 H   0  0  0  0  0  0  0  0  0  0  0  0
   18.1156  -24.8196   40.7290 H   0  0  0  0  0  0  0  0  0  0  0  0
   19.3877  -25.3432   41.9286 H   0  0  0  0  0  0  0  0  0  0  0  0
   21.0012  -29.5065   40.1958 H   0  0  0  0  0  0  0  0  0  0  0  0
   18.1094  -33.5360   40.6617 H   0  0  0  0  0  0  0  0  0  0  0  0
   18.0629  -35.9190   39.9186 H   0  0  0  0  0  0  0  0  0  0  0  0
   18.7673  -36.5189   37.5996 H   0  0  0  0  0  0  0  0  0  0  0  0
   19.2400  -34.4250   35.0420 H   0  0  0  0  0  0  0  0  0  0  0  0
  1  2  2  0
  2  3  1  0
  3  4  1  0
  3  5  2  0
  5  6  1  0
  6  7  2  0
  7  8  1  0
  8  9  2  0
  9 10  1  0
 10 11  1  0
  9 12  1  0
 12 13  1  0
 13 14  1  0
 13 15  1  0
 13 16  1  0
 12 17  2  0
  5 18  1  0
 18 19  1  0
 19 20  2  0
 20 21  1  0
 21 22  2  0
 22 23  1  0
 23 24  1  0
 23 25  2  0
 25  2  1  0
 17  6  1  0
 25 19  1  0
  4 26  1  0
  7 27  1  0
  8 28  1  0
 10 29  1  0
 10 30  1  0
 17 31  1  0
 20 32  1  0
 21 33  1  0
 22 34  1  0
 24 35  1  0
M  END
>  <meeko>  (2) 
{"is_sidechain": [false], "free_energy": -8.119, "intermolecular_energy": -9.854, "internal_energy": -0.488}

$$$$
cand_010_out
     RDKit          3D

 35 37  0  0  0  0  0  0  0  0999 V2000
   17.5200  -25.7260   39.6850 O   0  0  0  0  0  0  0  0  0  0  0  0
   18.3440  -26.6320   39.7990 C   0  0  0  0  0  0  0  0  0  0  0  0
   18.3660  -27.7530   38.8310 C   0  0  0  0  0  0  0  0  0  0  0  0
   17.4390  -27.7190   37.8050 O   0  0  0  0  0  0  0  0  0  0  0  0
   19.2870  -28.7210   38.9910 C   0  0  0  0  0  0  0  0  0  0  0  0
   19.4080  -29.8800   38.0800 C   0  0  0  0  0  0  0  0  0  0  0  0
   19.1290  -31.1820   38.5050 C   0  0  0  0  0  0  0  0  0  0  0  0
   19.2760  -32.2660   37.6350 C   0  0  0  0  0  0  0  0  0  0  0  0
   19.7150  -32.0770   36.3160 C   0  0  0  0  0  0  0  0  0  0  0  0
   19.8540  -33.2740   35.4040 C   0  0  0  0  0  0  0  0  0  0  0  0
   19.1170  -34.3490   35.8080 F   0  0  0  0  0  0  0  0  0  0  0  0
   20.0040  -30.7690   35.8700 C   0  0  0  0  0  0  0  0  0  0  0  0
   20.4840  -30.5070   34.4600 C   0  0  0  0  0  0  0  0  0  0  0  0
   21.5950  -31.2160   34.1150 F   0  0  0  0  0  0  0  0  0  0  0  0
   19.5400  -30.8150   33.5280 F   0  0  0  0  0  0  0  0  0  0  0  0
   20.7980  -29.1990   34.2520 F   0  0  0  0  0  0  0  0  0  0  0  0
   19.8530  -29.6880   36.7640 C   0  0  0  0  0  0  0  0  0  0  0  0
   20.2340  -28.7310   40.0080 O   0  0  0  0  0  0  0  0  0  0  0  0
   20.2320  -27.7120   40.9250 C   0  0  0  0  0  0  0  0  0  0  0  0
   21.1910  -27.7690   41.9370 C   0  0  0  0  0  0  0  0  0  0  0  0
   21.2450  -26.7610   42.9020 C   0  0  0  0  0  0  0  0  0  0  0  0
   20.3420  -25.6970   42.8550 C   0  0  0  0  0  0  0  0  0  0  0  0
   19.3860  -25.6420   41.8450 C   0  0  0  0  0  0  0  0  0  0  0  0
   18.5340  -24.5720   41.8570 O   0  0  0  0  0  0  0  0  0  0  0  0
   19.3320  -26.6510   40.8790 C   0  0  0  0  0  0  0  0  0  0  0  0
   17.0170  -26.9120   37.5820 H   0  0  0  0  0  0  0  0  0  0  0  0
   18.7896  -31.3557   39.5368 H   0  0  0  0  0  0  0  0  0  0  0  0
   19.0443  -33.2813   37.9894 H   0  0  0  0  0  0  0  0  0  0  0  0
   19.5249  -32.9843   34.3952 H   0  0  0  0  0  0  0  0  0  0  0  0
   20.9111  -33.5777   35.4240 H   0  0  0  0  0  0  0  0  0  0  0  0
   20.0900  -28.6702   36.4206 H   0  0  0  0  0  0  0  0  0  0  0  0
   21.9032  -28.6065   41.9746 H   0  0  0  0  0  0  0  0  0  0  0  0
   22.0002  -26.8053   43.7005 H   0  0  0  0  0  0  0  0  0  0  0  0
   20.3862  -24.9033   43.6153 H   0  0  0  0  0  0  0  0  0  0  0  0
   17.7730  -24.5860   42.4050 H   0  0  0  0  0  0  0  0  0  0  0  0
  1  2  2  0
  2  3  1  0
  3  4  1  0
  3  5  2  0
  5  6  1  0
  6  7  2  0
  7  8  1  0
  8  9  2  0
  9 10  1  0
 10 11  1  0
  9 12  1  0
 12 13  1  0
 13 14  1  0
 13 15  1  0
 13 16  1  0
 12 17  2  0
  5 18  1  0
 18 19  1  0
 19 20  2  0
 20 21  1  0
 21 22  2  0
 22 23  1  0
 23 24  1  0
 23 25  2  0
 25  2  1  0
 17  6  1  0
 25 19  1  0
  4 26  1  0
  7 27  1  0
  8 28  1  0
 10 29  1  0
 10 30  1  0
 17 31  1  0
 20 32  1  0
 21 33  1  0
 22 34  1  0
 24 35  1  0
M  END
>  <meeko>  (3) 
{"is_sidechain": [false], "free_energy": -7.902, "intermolecular_energy": -9.73, "internal_energy": -0.344}

$$$$
cand_010_out
     RDKit          3D

 35 37  0  0  0  0  0  0  0  0999 V2000
   19.1460  -25.7850   36.7200 O   0  0  0  0  0  0  0  0  0  0  0  0
   19.4280  -26.7930   37.3650 C   0  0  0  0  0  0  0  0  0  0  0  0
   19.3810  -28.1300   36.7290 C   0  0  0  0  0  0  0  0  0  0  0  0
   19.0240  -28.1810   35.3940 O   0  0  0  0  0  0  0  0  0  0  0  0
   19.7010  -29.2060   37.4700 C   0  0  0  0  0  0  0  0  0  0  0  0
   19.6990  -30.5850   36.9370 C   0  0  0  0  0  0  0  0  0  0  0  0
   20.0210  -30.8590   35.6040 C   0  0  0  0  0  0  0  0  0  0  0  0
   19.9870  -32.1680   35.1140 C   0  0  0  0  0  0  0  0  0  0  0  0
   19.6210  -33.2390   35.9430 C   0  0  0  0  0  0  0  0  0  0  0  0
   19.6030  -34.6400   35.3770 C   0  0  0  0  0  0  0  0  0  0  0  0
   20.7070  -35.3700   35.7090 F   0  0  0  0  0  0  0  0  0  0  0  0
   19.2900  -32.9810   37.2910 C   0  0  0  0  0  0  0  0  0  0  0  0
   18.8850  -34.0960   38.2280 C   0  0  0  0  0  0  0  0  0  0  0  0
   17.9860  -34.9680   37.6920 F   0  0  0  0  0  0  0  0  0  0  0  0
   19.9470  -34.8510   38.6220 F   0  0  0  0  0  0  0  0  0  0  0  0
   18.3140  -33.6320   39.3740 F   0  0  0  0  0  0  0  0  0  0  0  0
   19.3270  -31.6530   37.7670 C   0  0  0  0  0  0  0  0  0  0  0  0
   20.0890  -29.1420   38.8040 O   0  0  0  0  0  0  0  0  0  0  0  0
   20.1330  -27.9190   39.4230 C   0  0  0  0  0  0  0  0  0  0  0  0
   20.5130  -27.9030   40.7650 C   0  0  0  0  0  0  0  0  0  0  0  0
   20.5810  -26.6900   41.4550 C   0  0  0  0  0  0  0  0  0  0  0  0
   20.2680  -25.4960   40.8030 C   0  0  0  0  0  0  0  0  0  0  0  0
   19.8890  -25.5150   39.4630 C   0  0  0  0  0  0  0  0  0  0  0  0
   19.5980  -24.3090   38.8860 O   0  0  0  0  0  0  0  0  0  0  0  0
   19.8210  -26.7280   38.7730 C   0  0  0  0  0  0  0  0  0  0  0  0
   18.7040  -27.4110   34.9650 H   0  0  0  0  0  0  0  0  0  0  0  0
   20.3044  -30.0348   34.9330 H   0  0  0  0  0  0  0  0  0  0  0  0
   20.2509  -32.3609   34.0637 H   0  0  0  0  0  0  0  0  0  0  0  0
   18.7124  -35.1599   35.7599 H   0  0  0  0  0  0  0  0  0  0  0  0
   19.5901  -34.5486   34.2809 H   0  0  0  0  0  0  0  0  0  0  0  0
   19.0576  -31.4504   38.8141 H   0  0  0  0  0  0  0  0  0  0  0  0
   20.7587  -28.8438   41.2792 H   0  0  0  0  0  0  0  0  0  0  0  0
   20.8815  -26.6758   42.5131 H   0  0  0  0  0  0  0  0  0  0  0  0
   20.3206  -24.5413   41.3469 H   0  0  0  0  0  0  0  0  0  0  0  0
   19.8900  -24.1250   38.0150 H   0  0  0  0  0  0  0  0  0  0  0  0
  1  2  2  0
  2  3  1  0
  3  4  1  0
  3  5  2  0
  5  6  1  0
  6  7  2  0
  7  8  1  0
  8  9  2  0
  9 10  1  0
 10 11  1  0
  9 12  1  0
 12 13  1  0
 13 14  1  0
 13 15  1  0
 13 16  1  0
 12 17  2  0
  5 18  1  0
 18 19  1  0
 19 20  2  0
 20 21  1  0
 21 22  2  0
 22 23  1  0
 23 24  1  0
 23 25  2  0
 25  2  1  0
 17  6  1  0
 25 19  1  0
  4 26  1  0
  7 27  1  0
  8 28  1  0
 10 29  1  0
 10 30  1  0
 17 31  1  0
 20 32  1  0
 21 33  1  0
 22 34  1  0
 24 35  1  0
M  END
>  <meeko>  (4) 
{"is_sidechain": [false], "free_energy": -7.494, "intermolecular_energy": -9.523, "internal_energy": -0.047}

$$$$
cand_010_out
     RDKit          3D

 35 37  0  0  0  0  0  0  0  0999 V2000
   20.0030  -32.1570   35.3460 O   0  0  0  0  0  0  0  0  0  0  0  0
   19.6900  -31.8550   36.4960 C   0  0  0  0  0  0  0  0  0  0  0  0
   19.7190  -30.4410   36.9360 C   0  0  0  0  0  0  0  0  0  0  0  0
   20.0930  -29.4960   35.9970 O   0  0  0  0  0  0  0  0  0  0  0  0
   19.3660  -30.1550   38.2020 C   0  0  0  0  0  0  0  0  0  0  0  0
   19.3470  -28.7800   38.7450 C   0  0  0  0  0  0  0  0  0  0  0  0
   19.8140  -28.4890   40.0300 C   0  0  0  0  0  0  0  0  0  0  0  0
   19.7620  -27.1860   40.5330 C   0  0  0  0  0  0  0  0  0  0  0  0
   19.2310  -26.1380   39.7670 C   0  0  0  0  0  0  0  0  0  0  0  0
   19.1990  -24.7410   40.3440 C   0  0  0  0  0  0  0  0  0  0  0  0
   20.1530  -23.9190   39.8200 F   0  0  0  0  0  0  0  0  0  0  0  0
   18.7510  -26.4130   38.4680 C   0  0  0  0  0  0  0  0  0  0  0  0
   18.1650  -25.3230   37.5990 C   0  0  0  0  0  0  0  0  0  0  0  0
   17.2650  -24.5290   38.2420 F   0  0  0  0  0  0  0  0  0  0  0  0
   19.1190  -24.4840   37.1100 F   0  0  0  0  0  0  0  0  0  0  0  0
   17.5130  -25.8180   36.5110 F   0  0  0  0  0  0  0  0  0  0  0  0
   18.8090  -27.7350   37.9780 C   0  0  0  0  0  0  0  0  0  0  0  0
   18.9620  -31.1080   39.1300 O   0  0  0  0  0  0  0  0  0  0  0  0
   18.9350  -32.4270   38.7550 C   0  0  0  0  0  0  0  0  0  0  0  0
   18.5370  -33.3520   39.7220 C   0  0  0  0  0  0  0  0  0  0  0  0
   18.4860  -34.7110   39.4050 C   0  0  0  0  0  0  0  0  0  0  0  0
   18.8320  -35.1450   38.1240 C   0  0  0  0  0  0  0  0  0  0  0  0
   19.2280  -34.2200   37.1610 C   0  0  0  0  0  0  0  0  0  0  0  0
   19.5520  -34.7130   35.9270 O   0  0  0  0  0  0  0  0  0  0  0  0
   19.2800  -32.8600   37.4780 C   0  0  0  0  0  0  0  0  0  0  0  0
   20.2640  -29.7570   35.1130 H   0  0  0  0  0  0  0  0  0  0  0  0
   20.2276  -29.2956   40.6531 H   0  0  0  0  0  0  0  0  0  0  0  0
   20.1430  -26.9795   41.5441 H   0  0  0  0  0  0  0  0  0  0  0  0
   18.2107  -24.3023   40.1418 H   0  0  0  0  0  0  0  0  0  0  0  0
   19.4008  -24.8289   41.4218 H   0  0  0  0  0  0  0  0  0  0  0  0
   18.4234  -27.9517   36.9709 H   0  0  0  0  0  0  0  0  0  0  0  0
   18.2641  -33.0110   40.7316 H   0  0  0  0  0  0  0  0  0  0  0  0
   18.1726  -35.4409   40.1660 H   0  0  0  0  0  0  0  0  0  0  0  0
   18.7919  -36.2158   37.8756 H   0  0  0  0  0  0  0  0  0  0  0  0
   18.9240  -34.6820   35.2310 H   0  0  0  0  0  0  0  0  0  0  0  0
  1  2  2  0
  2  3  1  0
  3  4  1  0
  3  5  2  0
  5  6  1  0
  6  7  2  0
  7  8  1  0
  8  9  2  0
  9 10  1  0
 10 11  1  0
  9 12  1  0
 12 13  1  0
 13 14  1  0
 13 15  1  0
 13 16  1  0
 12 17  2  0
  5 18  1  0
 18 19  1  0
 19 20  2  0
 20 21  1  0
 21 22  2  0
 22 23  1  0
 23 24  1  0
 23 25  2  0
 25  2  1  0
 17  6  1  0
 25 19  1  0
  4 26  1  0
  7 27  1  0
  8 28  1  0
 10 29  1  0
 10 30  1  0
 17 31  1  0
 20 32  1  0
 21 33  1  0
 22 34  1  0
 24 35  1  0
M  END
>  <meeko>  (5) 
{"is_sidechain": [false], "free_energy": -7.392, "intermolecular_energy": -9.315, "internal_energy": -0.13}

$$$$
cand_010_out
     RDKit          3D

 35 37  0  0  0  0  0  0  0  0999 V2000
   21.7110  -25.7440   44.5540 O   0  0  0  0  0  0  0  0  0  0  0  0
   21.8290  -26.5080   43.5970 C   0  0  0  0  0  0  0  0  0  0  0  0
   20.9020  -26.4170   42.4450 C   0  0  0  0  0  0  0  0  0  0  0  0
   19.9260  -25.4380   42.4960 O   0  0  0  0  0  0  0  0  0  0  0  0
   21.0680  -27.2700   41.4180 C   0  0  0  0  0  0  0  0  0  0  0  0
   20.2100  -27.2620   40.2140 C   0  0  0  0  0  0  0  0  0  0  0  0
   19.6720  -28.4400   39.6860 C   0  0  0  0  0  0  0  0  0  0  0  0
   18.8840  -28.4130   38.5310 C   0  0  0  0  0  0  0  0  0  0  0  0
   18.6210  -27.2060   37.8660 C   0  0  0  0  0  0  0  0  0  0  0  0
   17.7600  -27.2180   36.6250 C   0  0  0  0  0  0  0  0  0  0  0  0
   18.4550  -27.5100   35.4870 F   0  0  0  0  0  0  0  0  0  0  0  0
   19.1590  -26.0070   38.3830 C   0  0  0  0  0  0  0  0  0  0  0  0
   18.9100  -24.6790   37.7050 C   0  0  0  0  0  0  0  0  0  0  0  0
   19.0300  -24.7200   36.3490 F   0  0  0  0  0  0  0  0  0  0  0  0
   17.6610  -24.1980   37.9550 F   0  0  0  0  0  0  0  0  0  0  0  0
   19.7710  -23.7110   38.1250 F   0  0  0  0  0  0  0  0  0  0  0  0
   19.9530  -26.0550   39.5470 C   0  0  0  0  0  0  0  0  0  0  0  0
   22.0700  -28.2320   41.3610 O   0  0  0  0  0  0  0  0  0  0  0  0
   22.9380  -28.3460   42.4170 C   0  0  0  0  0  0  0  0  0  0  0  0
   23.9190  -29.3340   42.3250 C   0  0  0  0  0  0  0  0  0  0  0  0
   24.8370  -29.5020   43.3650 C   0  0  0  0  0  0  0  0  0  0  0  0
   24.7720  -28.6840   44.4950 C   0  0  0  0  0  0  0  0  0  0  0  0
   23.7920  -27.7000   44.5840 C   0  0  0  0  0  0  0  0  0  0  0  0
   23.7870  -26.9330   45.7170 O   0  0  0  0  0  0  0  0  0  0  0  0
   22.8740  -27.5310   43.5440 C   0  0  0  0  0  0  0  0  0  0  0  0
   19.1330  -25.5910   42.9720 H   0  0  0  0  0  0  0  0  0  0  0  0
   19.8711  -29.3997   40.1854 H   0  0  0  0  0  0  0  0  0  0  0  0
   18.4646  -29.3511   38.1385 H   0  0  0  0  0  0  0  0  0  0  0  0
   16.9708  -27.9731   36.7552 H   0  0  0  0  0  0  0  0  0  0  0  0
   17.3493  -26.2047   36.5043 H   0  0  0  0  0  0  0  0  0  0  0  0
   20.3819  -25.1223   39.9422 H   0  0  0  0  0  0  0  0  0  0  0  0
   23.9696  -29.9793   41.4356 H   0  0  0  0  0  0  0  0  0  0  0  0
   25.6118  -30.2795   43.2935 H   0  0  0  0  0  0  0  0  0  0  0  0
   25.4945  -28.8173   45.3137 H   0  0  0  0  0  0  0  0  0  0  0  0
   23.4490  -26.0590   45.6890 H   0  0  0  0  0  0  0  0  0  0  0  0
  1  2  2  0
  2  3  1  0
  3  4  1  0
  3  5  2  0
  5  6  1  0
  6  7  2  0
  7  8  1  0
  8  9  2  0
  9 10  1  0
 10 11  1  0
  9 12  1  0
 12 13  1  0
 13 14  1  0
 13 15  1  0
 13 16  1  0
 12 17  2  0
  5 18  1  0
 18 19  1  0
 19 20  2  0
 20 21  1  0
 21 22  2  0
 22 23  1  0
 23 24  1  0
 23 25  2  0
 25  2  1  0
 17  6  1  0
 25 19  1  0
  4 26  1  0
  7 27  1  0
  8 28  1  0
 10 29  1  0
 10 30  1  0
 17 31  1  0
 20 32  1  0
 21 33  1  0
 22 34  1  0
 24 35  1  0
M  END
>  <meeko>  (6) 
{"is_sidechain": [false], "free_energy": -7.111, "intermolecular_energy": -8.974, "internal_energy": -0.123}

$$$$
cand_010_out
     RDKit          3D

 35 37  0  0  0  0  0  0  0  0999 V2000
   18.7070  -33.9090   38.0600 O   0  0  0  0  0  0  0  0  0  0  0  0
   19.0540  -32.8050   37.6450 C   0  0  0  0  0  0  0  0  0  0  0  0
   18.9520  -31.6100   38.5150 C   0  0  0  0  0  0  0  0  0  0  0  0
   18.4690  -31.8020   39.7960 O   0  0  0  0  0  0  0  0  0  0  0  0
   19.3460  -30.4210   38.0220 C   0  0  0  0  0  0  0  0  0  0  0  0
   19.2990  -29.1660   38.8030 C   0  0  0  0  0  0  0  0  0  0  0  0
   18.3280  -28.1890   38.5670 C   0  0  0  0  0  0  0  0  0  0  0  0
   18.3180  -26.9980   39.2990 C   0  0  0  0  0  0  0  0  0  0  0  0
   19.2870  -26.7480   40.2830 C   0  0  0  0  0  0  0  0  0  0  0  0
   19.2370  -25.4520   41.0580 C   0  0  0  0  0  0  0  0  0  0  0  0
   20.1340  -24.5240   40.6150 F   0  0  0  0  0  0  0  0  0  0  0  0
   20.2770  -27.7230   40.5330 C   0  0  0  0  0  0  0  0  0  0  0  0
   21.3470  -27.5060   41.5790 C   0  0  0  0  0  0  0  0  0  0  0  0
   20.8600  -27.1670   42.8050 F   0  0  0  0  0  0  0  0  0  0  0  0
   22.1100  -28.6160   41.7750 F   0  0  0  0  0  0  0  0  0  0  0  0
   22.2150  -26.5140   41.2360 F   0  0  0  0  0  0  0  0  0  0  0  0
   20.2730  -28.9170   39.7820 C   0  0  0  0  0  0  0  0  0  0  0  0
   19.8590  -30.2430   36.7420 O   0  0  0  0  0  0  0  0  0  0  0  0
   19.9570  -31.3290   35.9110 C   0  0  0  0  0  0  0  0  0  0  0  0
   20.4630  -31.1020   34.6310 C   0  0  0  0  0  0  0  0  0  0  0  0
   20.5910  -32.1660   33.7340 C   0  0  0  0  0  0  0  0  0  0  0  0
   20.2120  -33.4540   34.1180 C   0  0  0  0  0  0  0  0  0  0  0  0
   19.7070  -33.6770   35.3960 C   0  0  0  0  0  0  0  0  0  0  0  0
   19.3570  -34.9630   35.7060 O   0  0  0  0  0  0  0  0  0  0  0  0
   19.5790  -32.6130   36.2930 C   0  0  0  0  0  0  0  0  0  0  0  0
   19.0660  -31.9120   40.5100 H   0  0  0  0  0  0  0  0  0  0  0  0
   17.5622  -28.3592   37.7959 H   0  0  0  0  0  0  0  0  0  0  0  0
   17.5397  -26.2463   39.1010 H   0  0  0  0  0  0  0  0  0  0  0  0
   18.2250  -25.0302   40.9683 H   0  0  0  0  0  0  0  0  0  0  0  0
   19.4974  -25.6854   42.1009 H   0  0  0  0  0  0  0  0  0  0  0  0
   21.0520  -29.6710   39.9682 H   0  0  0  0  0  0  0  0  0  0  0  0
   20.7607  -30.0873   34.3282 H   0  0  0  0  0  0  0  0  0  0  0  0
   20.9906  -31.9887   32.7246 H   0  0  0  0  0  0  0  0  0  0  0  0
   20.3123  -34.2912   33.4116 H   0  0  0  0  0  0  0  0  0  0  0  0
   18.7950  -35.1320   36.4370 H   0  0  0  0  0  0  0  0  0  0  0  0
  1  2  2  0
  2  3  1  0
  3  4  1  0
  3  5  2  0
  5  6  1  0
  6  7  2  0
  7  8  1  0
  8  9  2  0
  9 10  1  0
 10 11  1  0
  9 12  1  0
 12 13  1  0
 13 14  1  0
 13 15  1  0
 13 16  1  0
 12 17  2  0
  5 18  1  0
 18 19  1  0
 19 20  2  0
 20 21  1  0
 21 22  2  0
 22 23  1  0
 23 24  1  0
 23 25  2  0
 25  2  1  0
 17  6  1  0
 25 19  1  0
  4 26  1  0
  7 27  1  0
  8 28  1  0
 10 29  1  0
 10 30  1  0
 17 31  1  0
 20 32  1  0
 21 33  1  0
 22 34  1  0
 24 35  1  0
M  END
>  <meeko>  (7) 
{"is_sidechain": [false], "free_energy": -7.065, "intermolecular_energy": -8.529, "internal_energy": -0.512}

$$$$
cand_010_out
     RDKit          3D

 35 37  0  0  0  0  0  0  0  0999 V2000
   20.8960  -31.6180   33.7670 O   0  0  0  0  0  0  0  0  0  0  0  0
   20.3760  -31.5990   34.8810 C   0  0  0  0  0  0  0  0  0  0  0  0
   20.2690  -30.3300   35.6380 C   0  0  0  0  0  0  0  0  0  0  0  0
   20.7620  -29.1900   35.0310 O   0  0  0  0  0  0  0  0  0  0  0  0
   19.6900  -30.3540   36.8530 C   0  0  0  0  0  0  0  0  0  0  0  0
   19.5200  -29.1470   37.6910 C   0  0  0  0  0  0  0  0  0  0  0  0
   19.6010  -29.2030   39.0850 C   0  0  0  0  0  0  0  0  0  0  0  0
   19.4100  -28.0550   39.8600 C   0  0  0  0  0  0  0  0  0  0  0  0
   19.1230  -26.8200   39.2600 C   0  0  0  0  0  0  0  0  0  0  0  0
   18.9310  -25.6000   40.1320 C   0  0  0  0  0  0  0  0  0  0  0  0
   20.0820  -25.1800   40.7330 F   0  0  0  0  0  0  0  0  0  0  0  0
   19.0350  -26.7450   37.8520 C   0  0  0  0  0  0  0  0  0  0  0  0
   18.7260  -25.4410   37.1530 C   0  0  0  0  0  0  0  0  0  0  0  0
   19.5900  -24.4330   37.4570 F   0  0  0  0  0  0  0  0  0  0  0  0
   18.7580  -25.5620   35.7970 F   0  0  0  0  0  0  0  0  0  0  0  0
   17.4840  -24.9700   37.4540 F   0  0  0  0  0  0  0  0  0  0  0  0
   19.2270  -27.9150   37.0880 C   0  0  0  0  0  0  0  0  0  0  0  0
   19.1700  -31.5000   37.4430 O   0  0  0  0  0  0  0  0  0  0  0  0
   19.2630  -32.6910   36.7700 C   0  0  0  0  0  0  0  0  0  0  0  0
   18.7410  -33.8190   37.4050 C   0  0  0  0  0  0  0  0  0  0  0  0
   18.8020  -35.0640   36.7740 C   0  0  0  0  0  0  0  0  0  0  0  0
   19.3830  -35.1800   35.5100 C   0  0  0  0  0  0  0  0  0  0  0  0
   19.9030  -34.0530   34.8780 C   0  0  0  0  0  0  0  0  0  0  0  0
   20.4560  -34.2380   33.6410 O   0  0  0  0  0  0  0  0  0  0  0  0
   19.8420  -32.8080   35.5100 C   0  0  0  0  0  0  0  0  0  0  0  0
   21.2320  -28.5560   35.5370 H   0  0  0  0  0  0  0  0  0  0  0  0
   19.8177  -30.1619   39.5786 H   0  0  0  0  0  0  0  0  0  0  0  0
   19.4859  -28.1212   40.9554 H   0  0  0  0  0  0  0  0  0  0  0  0
   18.5445  -24.7814   39.5071 H   0  0  0  0  0  0  0  0  0  0  0  0
   18.2285  -25.8780   40.9315 H   0  0  0  0  0  0  0  0  0  0  0  0
   19.1449  -27.8599   35.9925 H   0  0  0  0  0  0  0  0  0  0  0  0
   18.2823  -33.7279   38.4006 H   0  0  0  0  0  0  0  0  0  0  0  0
   18.3917  -35.9539   37.2738 H   0  0  0  0  0  0  0  0  0  0  0  0
   19.4301  -36.1605   35.0136 H   0  0  0  0  0  0  0  0  0  0  0  0
   21.2340  -33.7730   33.4020 H   0  0  0  0  0  0  0  0  0  0  0  0
  1  2  2  0
  2  3  1  0
  3  4  1  0
  3  5  2  0
  5  6  1  0
  6  7  2  0
  7  8  1  0
  8  9  2  0
  9 10  1  0
 10 11  1  0
  9 12  1  0
 12 13  1  0
 13 14  1  0
 13 15  1  0
 13 16  1  0
 12 17  2  0
  5 18  1  0
 18 19  1  0
 19 20  2  0
 20 21  1  0
 21 22  2  0
 22 23  1  0
 23 24  1  0
 23 25  2  0
 25  2  1  0
 17  6  1  0
 25 19  1  0
  4 26  1  0
  7 27  1  0
  8 28  1  0
 10 29  1  0
 10 30  1  0
 17 31  1  0
 20 32  1  0
 21 33  1  0
 22 34  1  0
 24 35  1  0
M  END
>  <meeko>  (8) 
{"is_sidechain": [false], "free_energy": -7.043, "intermolecular_energy": -8.988, "internal_energy": -0.026}

$$$$
cand_010_out
     RDKit          3D

 35 37  0  0  0  0  0  0  0  0999 V2000
   18.8920  -28.7910   37.4220 O   0  0  0  0  0  0  0  0  0  0  0  0
   19.1970  -27.7860   38.0630 C   0  0  0  0  0  0  0  0  0  0  0  0
   19.8080  -27.9090   39.4060 C   0  0  0  0  0  0  0  0  0  0  0  0
   20.0270  -29.1880   39.8850 O   0  0  0  0  0  0  0  0  0  0  0  0
   20.1290  -26.7840   40.0720 C   0  0  0  0  0  0  0  0  0  0  0  0
   20.7530  -26.7880   41.4120 C   0  0  0  0  0  0  0  0  0  0  0  0
   20.2480  -26.0130   42.4610 C   0  0  0  0  0  0  0  0  0  0  0  0
   20.8690  -26.0110   43.7130 C   0  0  0  0  0  0  0  0  0  0  0  0
   22.0200  -26.7780   43.9480 C   0  0  0  0  0  0  0  0  0  0  0  0
   22.6580  -26.7550   45.3180 C   0  0  0  0  0  0  0  0  0  0  0  0
   22.2880  -25.6760   46.0670 F   0  0  0  0  0  0  0  0  0  0  0  0
   22.5460  -27.5650   42.8990 C   0  0  0  0  0  0  0  0  0  0  0  0
   23.7850  -28.4080   43.0960 C   0  0  0  0  0  0  0  0  0  0  0  0
   23.6620  -29.3520   44.0710 F   0  0  0  0  0  0  0  0  0  0  0  0
   24.1340  -29.0840   41.9660 F   0  0  0  0  0  0  0  0  0  0  0  0
   24.8730  -27.6630   43.4350 F   0  0  0  0  0  0  0  0  0  0  0  0
   21.9070  -27.5520   41.6420 C   0  0  0  0  0  0  0  0  0  0  0  0
   19.9320  -25.5030   39.5700 O   0  0  0  0  0  0  0  0  0  0  0  0
   19.3600  -25.3570   38.3320 C   0  0  0  0  0  0  0  0  0  0  0  0
   19.1680  -24.0540   37.8730 C   0  0  0  0  0  0  0  0  0  0  0  0
   18.5920  -23.8340   36.6200 C   0  0  0  0  0  0  0  0  0  0  0  0
   18.2080  -24.9170   35.8270 C   0  0  0  0  0  0  0  0  0  0  0  0
   18.3990  -26.2170   36.2870 C   0  0  0  0  0  0  0  0  0  0  0  0
   18.0020  -27.2310   35.4600 O   0  0  0  0  0  0  0  0  0  0  0  0
   18.9760  -26.4370   37.5410 C   0  0  0  0  0  0  0  0  0  0  0  0
   19.3310  -29.6580   40.3030 H   0  0  0  0  0  0  0  0  0  0  0  0
   19.3509  -25.3974   42.2986 H   0  0  0  0  0  0  0  0  0  0  0  0
   20.4495  -25.3995   44.5255 H   0  0  0  0  0  0  0  0  0  0  0  0
   22.3657  -27.6696   45.8548 H   0  0  0  0  0  0  0  0  0  0  0  0
   23.7461  -26.6915   45.1700 H   0  0  0  0  0  0  0  0  0  0  0  0
   22.3234  -28.1555   40.8220 H   0  0  0  0  0  0  0  0  0  0  0  0
   19.4700  -23.2003   38.4975 H   0  0  0  0  0  0  0  0  0  0  0  0
   18.4407  -22.8065   36.2575 H   0  0  0  0  0  0  0  0  0  0  0  0
   17.7550  -24.7433   34.8398 H   0  0  0  0  0  0  0  0  0  0  0  0
   18.6430  -27.7720   35.0410 H   0  0  0  0  0  0  0  0  0  0  0  0
  1  2  2  0
  2  3  1  0
  3  4  1  0
  3  5  2  0
  5  6  1  0
  6  7  2  0
  7  8  1  0
  8  9  2  0
  9 10  1  0
 10 11  1  0
  9 12  1  0
 12 13  1  0
 13 14  1  0
 13 15  1  0
 13 16  1  0
 12 17  2  0
  5 18  1  0
 18 19  1  0
 19 20  2  0
 20 21  1  0
 21 22  2  0
 22 23  1  0
 23 24  1  0
 23 25  2  0
 25  2  1  0
 17  6  1  0
 25 19  1  0
  4 26  1  0
  7 27  1  0
  8 28  1  0
 10 29  1  0
 10 30  1  0
 17 31  1  0
 20 32  1  0
 21 33  1  0
 22 34  1  0
 24 35  1  0
M  END
>  <meeko>  (9) 
{"is_sidechain": [false], "free_energy": -6.875, "intermolecular_energy": -8.646, "internal_energy": -0.16}

$$$$
