cand_047_out
     RDKit          3D

 38 40  0  0  0  0  0  0  0  0999 V2000
   21.1790  -27.0200   41.7320 C   0  0  0  0  0  0  0  0  0  0  0  0
   20.1310  -27.3720   40.7110 C   0  0  0  0  0  0  0  0  0  0  0  0
   20.1670  -28.6500   40.1190 C   0  0  0  0  0  0  0  0  0  0  0  0
   19.2240  -29.0410   39.1570 C   0  0  0  0  0  0  0  0  0  0  0  0
   19.2730  -30.3740   38.5180 C   0  0  0  0  0  0  0  0  0  0  0  0
   18.8890  -31.3990   39.3740 O   0  0  0  0  0  0  0  0  0  0  0  0
   18.8870  -32.6880   38.9070 C   0  0  0  0  0  0  0  0  0  0  0  0
   18.4790  -33.6830   39.7960 C   0  0  0  0  0  0  0  0  0  0  0  0
   18.4550  -35.0180   39.3850 C   0  0  0  0  0  0  0  0  0  0  0  0
   18.8410  -35.3570   38.0860 C   0  0  0  0  0  0  0  0  0  0  0  0
   19.2490  -34.3620   37.2010 C   0  0  0  0  0  0  0  0  0  0  0  0
   19.6140  -34.7630   35.9460 O   0  0  0  0  0  0  0  0  0  0  0  0
   19.2700  -33.0260   37.6140 C   0  0  0  0  0  0  0  0  0  0  0  0
   19.6920  -31.9500   36.7150 C   0  0  0  0  0  0  0  0  0  0  0  0
   20.0530  -32.1690   35.5610 O   0  0  0  0  0  0  0  0  0  0  0  0
   19.6710  -30.5670   37.2460 C   0  0  0  0  0  0  0  0  0  0  0  0
   20.0840  -29.5590   36.3940 O   0  0  0  0  0  0  0  0  0  0  0  0
   18.2440  -28.1220   38.7720 C   0  0  0  0  0  0  0  0  0  0  0  0
   18.1980  -26.8480   39.3460 C   0  0  0  0  0  0  0  0  0  0  0  0
   19.1380  -26.4570   40.3140 C   0  0  0  0  0  0  0  0  0  0  0  0
   19.0200  -25.0740   40.9120 C   0  0  0  0  0  0  0  0  0  0  0  0
   19.4990  -23.9930   39.9570 C   0  0  0  0  0  0  0  0  0  0  0  0
   20.0610  -22.9880   40.6840 F   0  0  0  0  0  0  0  0  0  0  0  0
   20.7673  -27.1583   42.7426 H   0  0  0  0  0  0  0  0  0  0  0  0
   22.0538  -27.6736   41.5998 H   0  0  0  0  0  0  0  0  0  0  0  0
   21.4819  -25.9708   41.5998 H   0  0  0  0  0  0  0  0  0  0  0  0
   20.9536  -29.3583   40.4184 H   0  0  0  0  0  0  0  0  0  0  0  0
   18.1765  -33.4165   40.8195 H   0  0  0  0  0  0  0  0  0  0  0  0
   18.1319  -35.8028   40.0848 H   0  0  0  0  0  0  0  0  0  0  0  0
   18.8227  -36.4082   37.7626 H   0  0  0  0  0  0  0  0  0  0  0  0
   20.1560  -34.2100   35.4170 H   0  0  0  0  0  0  0  0  0  0  0  0
   19.5090  -28.8440   36.2030 H   0  0  0  0  0  0  0  0  0  0  0  0
   17.5020  -28.4036   38.0103 H   0  0  0  0  0  0  0  0  0  0  0  0
   17.4143  -26.1415   39.0351 H   0  0  0  0  0  0  0  0  0  0  0  0
   17.9655  -24.8846   41.1613 H   0  0  0  0  0  0  0  0  0  0  0  0
   19.6559  -25.0384   41.8088 H   0  0  0  0  0  0  0  0  0  0  0  0
   20.2453  -24.4128   39.2665 H   0  0  0  0  0  0  0  0  0  0  0  0
   18.6512  -23.6053   39.3731 H   0  0  0  0  0  0  0  0  0  0  0  0
  1  2  1  0
  2  3  2  0
  3  4  1  0
  4  5  1  0
  5  6  1  0
  6  7  1  0
  7  8  2  0
  8  9  1  0
  9 10  2  0
 10 11  1  0
 11 12  1  0
 11 13  2  0
 13 14  1  0
 14 15  2  0
 14 16  1  0
 16 17  1  0
  4 18  2  0
 18 19  1  0
 19 20  2  0
 20 21  1  0
 21 22  1  0
 22 23  1  0
 20  2  1  0
 16  5  2  0
 13  7  1  0
  1 24  1  0
  1 25  1  0
  1 26  1  0
  3 27  1  0
  8 28  1  0
  9 29  1  0
 10 30  1  0
 12 31  1  0
 17 32  1  0
 18 33  1  0
 19 34  1  0
 21 35  1  0
 21 36  1  0
 22 37  1  0
 22 38  1  0
M  END
>  <meeko>  (1) 
{"is_sidechain": [false], "free_energy": -7.642, "intermolecular_energy": -9.429, "internal_energy": -0.401}

$$$$
cand_047_out
     RDKit          3D

 38 40  0  0  0  0  0  0  0  0999 V2000
   20.4790  -31.1730   34.9680 C   0  0  0  0  0  0  0  0  0  0  0  0
   19.9120  -31.2360   36.3600 C   0  0  0  0  0  0  0  0  0  0  0  0
   19.8030  -30.0430   37.1000 C   0  0  0  0  0  0  0  0  0  0  0  0
   19.2900  -30.0310   38.4050 C   0  0  0  0  0  0  0  0  0  0  0  0
   19.1950  -28.7830   39.1920 C   0  0  0  0  0  0  0  0  0  0  0  0
   20.1000  -28.7370   40.2460 O   0  0  0  0  0  0  0  0  0  0  0  0
   20.1190  -27.6320   41.0570 C   0  0  0  0  0  0  0  0  0  0  0  0
   21.0530  -27.6220   42.0930 C   0  0  0  0  0  0  0  0  0  0  0  0
   21.1250  -26.5270   42.9570 C   0  0  0  0  0  0  0  0  0  0  0  0
   20.2610  -25.4430   42.7860 C   0  0  0  0  0  0  0  0  0  0  0  0
   19.3280  -25.4550   41.7520 C   0  0  0  0  0  0  0  0  0  0  0  0
   18.5130  -24.3630   41.6410 O   0  0  0  0  0  0  0  0  0  0  0  0
   19.2590  -26.5520   40.8870 C   0  0  0  0  0  0  0  0  0  0  0  0
   18.2940  -26.6050   39.7870 C   0  0  0  0  0  0  0  0  0  0  0  0
   17.4960  -25.6940   39.5770 O   0  0  0  0  0  0  0  0  0  0  0  0
   18.3060  -27.8070   38.9220 C   0  0  0  0  0  0  0  0  0  0  0  0
   17.3820  -27.8540   37.8950 O   0  0  0  0  0  0  0  0  0  0  0  0
   18.9000  -31.2450   38.9780 C   0  0  0  0  0  0  0  0  0  0  0  0
   19.0080  -32.4390   38.2600 C   0  0  0  0  0  0  0  0  0  0  0  0
   19.5160  -32.4510   36.9510 C   0  0  0  0  0  0  0  0  0  0  0  0
   19.5850  -33.7710   36.2180 C   0  0  0  0  0  0  0  0  0  0  0  0
   19.0110  -34.9140   37.0400 C   0  0  0  0  0  0  0  0  0  0  0  0
   20.0140  -35.4680   37.7760 F   0  0  0  0  0  0  0  0  0  0  0  0
   21.5710  -31.0517   35.0220 H   0  0  0  0  0  0  0  0  0  0  0  0
   20.2395  -32.1033   34.4321 H   0  0  0  0  0  0  0  0  0  0  0  0
   20.0411  -30.3180   34.4321 H   0  0  0  0  0  0  0  0  0  0  0  0
   20.1284  -29.0968   36.6430 H   0  0  0  0  0  0  0  0  0  0  0  0
   21.7326  -28.4762   42.2294 H   0  0  0  0  0  0  0  0  0  0  0  0
   21.8628  -26.5183   43.7728 H   0  0  0  0  0  0  0  0  0  0  0  0
   20.3173  -24.5810   43.4670 H   0  0  0  0  0  0  0  0  0  0  0  0
   17.9110  -24.2990   40.9260 H   0  0  0  0  0  0  0  0  0  0  0  0
   16.7400  -28.5350   37.8730 H   0  0  0  0  0  0  0  0  0  0  0  0
   18.5042  -31.2606   40.0042 H   0  0  0  0  0  0  0  0  0  0  0  0
   18.6905  -33.3830   38.7270 H   0  0  0  0  0  0  0  0  0  0  0  0
   19.0143  -33.6866   35.2814 H   0  0  0  0  0  0  0  0  0  0  0  0
   20.6442  -33.9940   36.0222 H   0  0  0  0  0  0  0  0  0  0  0  0
   18.2277  -34.5310   37.7106 H   0  0  0  0  0  0  0  0  0  0  0  0
   18.5718  -35.6714   36.3741 H   0  0  0  0  0  0  0  0  0  0  0  0
  1  2  1  0
  2  3  2  0
  3  4  1  0
  4  5  1  0
  5  6  1  0
  6  7  1  0
  7  8  2  0
  8  9  1  0
  9 10  2  0
 10 11  1  0
 11 12  1  0
 11 13  2  0
 13 14  1  0
 14 15  2  0
 14 16  1  0
 16 17  1  0
  4 18  2  0
 18 19  1  0
 19 20  2  0
 20 21  1  0
 21 22  1  0
 22 23  1  0
 20  2  1  0
 16  5  2  0
 13  7  1  0
  1 24  1  0
  1 25  1  0
  1 26  1  0
  3 27  1  0
  8 28  1  0
  9 29  1  0
 10 30  1  0
 12 31  1  0
 17 32  1  0
 18 33  1  0
 19 34  1  0
 21 35  1  0
 21 36  1  0
 22 37  1  0
 22 38  1  0
M  END
>  <meeko>  (2) 
{"is_sidechain": [false], "free_energy": -7.579, "intermolecular_energy": -9.331, "internal_energy": -0.421}

$$$$
cand_047_out
     RDKit          3D

 38 40  0  0  0  0  0  0  0  0999 V2000
   18.5410  -33.8250   39.2390 C   0  0  0  0  0  0  0  0  0  0  0  0
   18.9790  -32.5730   38.5290 C   0  0  0  0  0  0  0  0  0  0  0  0
   18.9070  -31.3460   39.2170 C   0  0  0  0  0  0  0  0  0  0  0  0
   19.2940  -30.1400   38.6140 C   0  0  0  0  0  0  0  0  0  0  0  0
   19.1980  -28.8480   39.3270 C   0  0  0  0  0  0  0  0  0  0  0  0
   20.0710  -28.7600   40.4050 O   0  0  0  0  0  0  0  0  0  0  0  0
   20.0870  -27.6110   41.1530 C   0  0  0  0  0  0  0  0  0  0  0  0
   20.9890  -27.5590   42.2160 C   0  0  0  0  0  0  0  0  0  0  0  0
   21.0540  -26.4180   43.0200 C   0  0  0  0  0  0  0  0  0  0  0  0
   20.2170  -25.3310   42.7610 C   0  0  0  0  0  0  0  0  0  0  0  0
   19.3170  -25.3850   41.7000 C   0  0  0  0  0  0  0  0  0  0  0  0
   18.5260  -24.2870   41.5040 O   0  0  0  0  0  0  0  0  0  0  0  0
   19.2530  -26.5270   40.8960 C   0  0  0  0  0  0  0  0  0  0  0  0
   18.3210  -26.6250   39.7710 C   0  0  0  0  0  0  0  0  0  0  0  0
   17.5470  -25.7140   39.4850 O   0  0  0  0  0  0  0  0  0  0  0  0
   18.3370  -27.8750   38.9750 C   0  0  0  0  0  0  0  0  0  0  0  0
   17.4440  -27.9630   37.9230 O   0  0  0  0  0  0  0  0  0  0  0  0
   19.7400  -30.1720   37.2900 C   0  0  0  0  0  0  0  0  0  0  0  0
   19.8120  -31.3800   36.5910 C   0  0  0  0  0  0  0  0  0  0  0  0
   19.4310  -32.5890   37.1960 C   0  0  0  0  0  0  0  0  0  0  0  0
   19.5530  -33.8640   36.3950 C   0  0  0  0  0  0  0  0  0  0  0  0
   19.7310  -33.5940   34.9090 C   0  0  0  0  0  0  0  0  0  0  0  0
   19.4150  -34.7250   34.2200 F   0  0  0  0  0  0  0  0  0  0  0  0
   18.5959  -33.6682   40.3264 H   0  0  0  0  0  0  0  0  0  0  0  0
   17.5057  -34.0645   38.9549 H   0  0  0  0  0  0  0  0  0  0  0  0
   19.2012  -34.6577   38.9549 H   0  0  0  0  0  0  0  0  0  0  0  0
   18.5380  -31.3332   40.2532 H   0  0  0  0  0  0  0  0  0  0  0  0
   21.6483  -28.4153   42.4210 H   0  0  0  0  0  0  0  0  0  0  0  0
   21.7654  -26.3762   43.8579 H   0  0  0  0  0  0  0  0  0  0  0  0
   20.2685  -24.4331   43.3943 H   0  0  0  0  0  0  0  0  0  0  0  0
   17.7400  -24.1810   42.0040 H   0  0  0  0  0  0  0  0  0  0  0  0
   16.5400  -27.7580   38.0590 H   0  0  0  0  0  0  0  0  0  0  0  0
   20.0374  -29.2369   36.7930 H   0  0  0  0  0  0  0  0  0  0  0  0
   20.1724  -31.3841   35.5517 H   0  0  0  0  0  0  0  0  0  0  0  0
   20.4236  -34.4292   36.7591 H   0  0  0  0  0  0  0  0  0  0  0  0
   18.6219  -34.4351   36.5253 H   0  0  0  0  0  0  0  0  0  0  0  0
   19.0665  -32.7739   34.5994 H   0  0  0  0  0  0  0  0  0  0  0  0
   20.7725  -33.3070   34.7018 H   0  0  0  0  0  0  0  0  0  0  0  0
  1  2  1  0
  2  3  2  0
  3  4  1  0
  4  5  1  0
  5  6  1  0
  6  7  1  0
  7  8  2  0
  8  9  1  0
  9 10  2  0
 10 11  1  0
 11 12  1  0
 11 13  2  0
 13 14  1  0
 14 15  2  0
 14 16  1  0
 16 17  1  0
  4 18  2  0
 18 19  1  0
 19 20  2  0
 20 21  1  0
 21 22  1  0
 22 23  1  0
 20  2  1  0
 16  5  2  0
 13  7  1  0
  1 24  1  0
  1 25  1  0
  1 26  1  0
  3 27  1  0
  8 28  1  0
  9 29  1  0
 10 30  1  0
 12 31  1  0
 17 32  1  0
 18 33  1  0
 19 34  1  0
 21 35  1  0
 21 36  1  0
 22 37  1  0
 22 38  1  0
M  END
>  <meeko>  (3) 
{"is_sidechain": [false], "free_energy": -7.478, "intermolecular_energy": -9.309, "internal_energy": -0.318}

$$$$
cand_047_out
     RDKit          3D

 38 40  0  0  0  0  0  0  0  0999 V2000
   19.5520  -24.7580   37.3010 C   0  0  0  0  0  0  0  0  0  0  0  0
   19.5710  -26.0240   38.1140 C   0  0  0  0  0  0  0  0  0  0  0  0
   20.3280  -26.0520   39.3020 C   0  0  0  0  0  0  0  0  0  0  0  0
   20.3940  -27.2000   40.1050 C   0  0  0  0  0  0  0  0  0  0  0  0
   21.2050  -27.2400   41.3400 C   0  0  0  0  0  0  0  0  0  0  0  0
   22.1800  -28.2300   41.3160 O   0  0  0  0  0  0  0  0  0  0  0  0
   23.0050  -28.3750   42.4010 C   0  0  0  0  0  0  0  0  0  0  0  0
   23.9790  -29.3720   42.3270 C   0  0  0  0  0  0  0  0  0  0  0  0
   24.8520  -29.5730   43.3990 C   0  0  0  0  0  0  0  0  0  0  0  0
   24.7490  -28.7810   44.5440 C   0  0  0  0  0  0  0  0  0  0  0  0
   23.7760  -27.7880   44.6160 C   0  0  0  0  0  0  0  0  0  0  0  0
   23.7290  -27.0490   45.7660 O   0  0  0  0  0  0  0  0  0  0  0  0
   22.9040  -27.5860   43.5420 C   0  0  0  0  0  0  0  0  0  0  0  0
   21.8670  -26.5530   43.5760 C   0  0  0  0  0  0  0  0  0  0  0  0
   21.7080  -25.8210   44.5510 O   0  0  0  0  0  0  0  0  0  0  0  0
   20.9990  -26.4140   42.3830 C   0  0  0  0  0  0  0  0  0  0  0  0
   20.0140  -25.4440   42.4310 O   0  0  0  0  0  0  0  0  0  0  0  0
   19.7020  -28.3420   39.6900 C   0  0  0  0  0  0  0  0  0  0  0  0
   18.9520  -28.3330   38.5110 C   0  0  0  0  0  0  0  0  0  0  0  0
   18.8800  -27.1820   37.7100 C   0  0  0  0  0  0  0  0  0  0  0  0
   18.0330  -27.2280   36.4600 C   0  0  0  0  0  0  0  0  0  0  0  0
   18.8130  -27.7320   35.2570 C   0  0  0  0  0  0  0  0  0  0  0  0
   20.1440  -27.6590   35.5390 F   0  0  0  0  0  0  0  0  0  0  0  0
   19.5390  -23.8892   37.9756 H   0  0  0  0  0  0  0  0  0  0  0  0
   20.4496  -24.7162   36.6665 H   0  0  0  0  0  0  0  0  0  0  0  0
   18.6535  -24.7431   36.6665 H   0  0  0  0  0  0  0  0  0  0  0  0
   20.8808  -25.1513   39.6072 H   0  0  0  0  0  0  0  0  0  0  0  0
   24.0591  -29.9983   41.4263 H   0  0  0  0  0  0  0  0  0  0  0  0
   25.6218  -30.3566   43.3408 H   0  0  0  0  0  0  0  0  0  0  0  0
   25.4358  -28.9414   45.3882 H   0  0  0  0  0  0  0  0  0  0  0  0
   22.9080  -26.7250   46.0810 H   0  0  0  0  0  0  0  0  0  0  0  0
   19.6070  -25.2310   43.2470 H   0  0  0  0  0  0  0  0  0  0  0  0
   19.7485  -29.2574   40.2982 H   0  0  0  0  0  0  0  0  0  0  0  0
   18.4103  -29.2405   38.2061 H   0  0  0  0  0  0  0  0  0  0  0  0
   17.1791  -27.8989   36.6351 H   0  0  0  0  0  0  0  0  0  0  0  0
   17.6983  -26.2034   36.2407 H   0  0  0  0  0  0  0  0  0  0  0  0
   18.5357  -28.7754   35.0465 H   0  0  0  0  0  0  0  0  0  0  0  0
   18.5819  -27.1165   34.3751 H   0  0  0  0  0  0  0  0  0  0  0  0
  1  2  1  0
  2  3  2  0
  3  4  1  0
  4  5  1  0
  5  6  1  0
  6  7  1  0
  7  8  2  0
  8  9  1  0
  9 10  2  0
 10 11  1  0
 11 12  1  0
 11 13  2  0
 13 14  1  0
 14 15  2  0
 14 16  1  0
 16 17  1  0
  4 18  2  0
 18 19  1  0
 19 20  2  0
 20 21  1  0
 21 22  1  0
 22 23  1  0
 20  2  1  0
 16  5  2  0
 13  7  1  0
  1 24  1  0
  1 25  1  0
  1 26  1  0
  3 27  1  0
  8 28  1  0
  9 29  1  0
 10 30  1  0
 12 31  1  0
 17 32  1  0
 18 33  1  0
 19 34  1  0
 21 35  1  0
 21 36  1  0
 22 37  1  0
 22 38  1  0
M  END
>  <meeko>  (4) 
{"is_sidechain": [false], "free_energy": -7.051, "intermolecular_energy": -8.658, "internal_energy": -0.442}

$$$$
cand_047_out
     RDKit          3D

 38 40  0  0  0  0  0  0  0  0999 V2000
   23.7340  -28.7370   42.0980 C   0  0  0  0  0  0  0  0  0  0  0  0
   22.4910  -27.8900   42.0770 C   0  0  0  0  0  0  0  0  0  0  0  0
   21.8940  -27.5960   40.8360 C   0  0  0  0  0  0  0  0  0  0  0  0
   20.7370  -26.8090   40.7430 C   0  0  0  0  0  0  0  0  0  0  0  0
   20.1210  -26.4810   39.4400 C   0  0  0  0  0  0  0  0  0  0  0  0
   19.9400  -25.1150   39.2550 O   0  0  0  0  0  0  0  0  0  0  0  0
   19.3790  -24.6730   38.0850 C   0  0  0  0  0  0  0  0  0  0  0  0
   19.2300  -23.2930   37.9360 C   0  0  0  0  0  0  0  0  0  0  0  0
   18.6630  -22.7760   36.7680 C   0  0  0  0  0  0  0  0  0  0  0  0
   18.2450  -23.6380   35.7520 C   0  0  0  0  0  0  0  0  0  0  0  0
   18.3930  -25.0140   35.9040 C   0  0  0  0  0  0  0  0  0  0  0  0
   17.9620  -25.8000   34.8720 O   0  0  0  0  0  0  0  0  0  0  0  0
   18.9620  -25.5300   37.0720 C   0  0  0  0  0  0  0  0  0  0  0  0
   19.1360  -26.9700   37.2720 C   0  0  0  0  0  0  0  0  0  0  0  0
   18.7860  -27.7920   36.4280 O   0  0  0  0  0  0  0  0  0  0  0  0
   19.7570  -27.4150   38.5410 C   0  0  0  0  0  0  0  0  0  0  0  0
   19.9050  -28.7780   38.7260 O   0  0  0  0  0  0  0  0  0  0  0  0
   20.1880  -26.2930   41.9210 C   0  0  0  0  0  0  0  0  0  0  0  0
   20.7710  -26.5700   43.1600 C   0  0  0  0  0  0  0  0  0  0  0  0
   21.9260  -27.3640   43.2540 C   0  0  0  0  0  0  0  0  0  0  0  0
   22.4950  -27.6450   44.6250 C   0  0  0  0  0  0  0  0  0  0  0  0
   23.3490  -26.4980   45.1390 C   0  0  0  0  0  0  0  0  0  0  0  0
   24.3930  -26.3150   44.2840 F   0  0  0  0  0  0  0  0  0  0  0  0
   24.0250  -28.9353   43.1401 H   0  0  0  0  0  0  0  0  0  0  0  0
   23.5372  -29.6897   41.5846 H   0  0  0  0  0  0  0  0  0  0  0  0
   24.5487  -28.2053   41.5846 H   0  0  0  0  0  0  0  0  0  0  0  0
   22.3468  -27.9939   39.9159 H   0  0  0  0  0  0  0  0  0  0  0  0
   19.5583  -22.6138   38.7365 H   0  0  0  0  0  0  0  0  0  0  0  0
   18.5458  -21.6888   36.6488 H   0  0  0  0  0  0  0  0  0  0  0  0
   17.7993  -23.2303   34.8327 H   0  0  0  0  0  0  0  0  0  0  0  0
   18.0170  -26.7330   34.9400 H   0  0  0  0  0  0  0  0  0  0  0  0
   19.4990  -29.3770   38.1310 H   0  0  0  0  0  0  0  0  0  0  0  0
   19.2879  -25.6626   41.8716 H   0  0  0  0  0  0  0  0  0  0  0  0
   20.3190  -26.1604   44.0754 H   0  0  0  0  0  0  0  0  0  0  0  0
   21.6638  -27.8096   45.3264 H   0  0  0  0  0  0  0  0  0  0  0  0
   23.1366  -28.5352   44.5480 H   0  0  0  0  0  0  0  0  0  0  0  0
   22.7452  -25.5798   45.1881 H   0  0  0  0  0  0  0  0  0  0  0  0
   23.7251  -26.7321   46.1458 H   0  0  0  0  0  0  0  0  0  0  0  0
  1  2  1  0
  2  3  2  0
  3  4  1  0
  4  5  1  0
  5  6  1  0
  6  7  1  0
  7  8  2  0
  8  9  1  0
  9 10  2  0
 10 11  1  0
 11 12  1  0
 11 13  2  0
 13 14  1  0
 14 15  2  0
 14 16  1  0
 16 17  1  0
  4 18  2  0
 18 19  1  0
 19 20  2  0
 20 21  1  0
 21 22  1  0
 22 23  1  0
 20  2  1  0
 16  5  2  0
 13  7  1  0
  1 24  1  0
  1 25  1  0
  1 26  1  0
  3 27  1  0
  8 28  1  0
  9 29  1  0
 10 30  1  0
 12 31  1  0
 17 32  1  0
 18 33  1  0
 19 34  1  0
 21 35  1  0
 21 36  1  0
 22 37  1  0
 22 38  1  0
M  END
>  <meeko>  (5) 
{"is_sidechain": [false], "free_energy": -6.861, "intermolecular_energy": -8.45, "internal_energy": -0.416}

$$$$
cand_047_out
     RDKit          3D

 38 40  0  0  0  0  0  0  0  0999 V2000
   18.1730  -23.0700   46.7420 C   0  0  0  0  0  0  0  0  0  0  0  0
   19.3540  -23.8010   46.1640 C   0  0  0  0  0  0  0  0  0  0  0  0
   19.3120  -24.1880   44.8100 C   0  0  0  0  0  0  0  0  0  0  0  0
   20.3750  -24.8770   44.2080 C   0  0  0  0  0  0  0  0  0  0  0  0
   20.3240  -25.3030   42.7930 C   0  0  0  0  0  0  0  0  0  0  0  0
   19.9220  -24.2850   41.9360 O   0  0  0  0  0  0  0  0  0  0  0  0
   19.8340  -24.5450   40.5930 C   0  0  0  0  0  0  0  0  0  0  0  0
   19.4410  -23.4900   39.7680 C   0  0  0  0  0  0  0  0  0  0  0  0
   19.3300  -23.6880   38.3890 C   0  0  0  0  0  0  0  0  0  0  0  0
   19.6080  -24.9400   37.8370 C   0  0  0  0  0  0  0  0  0  0  0  0
   19.9990  -25.9910   38.6630 C   0  0  0  0  0  0  0  0  0  0  0  0
   20.2550  -27.1900   38.0570 O   0  0  0  0  0  0  0  0  0  0  0  0
   20.1120  -25.7910   40.0420 C   0  0  0  0  0  0  0  0  0  0  0  0
   20.5190  -26.8700   40.9450 C   0  0  0  0  0  0  0  0  0  0  0  0
   20.7740  -28.0000   40.5360 O   0  0  0  0  0  0  0  0  0  0  0  0
   20.6170  -26.5530   42.3890 C   0  0  0  0  0  0  0  0  0  0  0  0
   20.9890  -27.5820   43.2350 O   0  0  0  0  0  0  0  0  0  0  0  0
   21.4870  -25.1990   44.9910 C   0  0  0  0  0  0  0  0  0  0  0  0
   21.5420  -24.8280   46.3380 C   0  0  0  0  0  0  0  0  0  0  0  0
   20.4810  -24.1330   46.9390 C   0  0  0  0  0  0  0  0  0  0  0  0
   20.6110  -23.7400   48.3930 C   0  0  0  0  0  0  0  0  0  0  0  0
   20.5630  -24.9450   49.3190 C   0  0  0  0  0  0  0  0  0  0  0  0
   19.6860  -25.8530   48.8070 F   0  0  0  0  0  0  0  0  0  0  0  0
   18.2240  -23.1015   47.8404 H   0  0  0  0  0  0  0  0  0  0  0  0
   18.1884  -22.0233   46.4041 H   0  0  0  0  0  0  0  0  0  0  0  0
   17.2431  -23.5507   46.4041 H   0  0  0  0  0  0  0  0  0  0  0  0
   18.4231  -23.9436   44.2099 H   0  0  0  0  0  0  0  0  0  0  0  0
   19.2190  -22.5042   40.2026 H   0  0  0  0  0  0  0  0  0  0  0  0
   19.0232  -22.8564   37.7376 H   0  0  0  0  0  0  0  0  0  0  0  0
   19.5184  -25.0960   36.7518 H   0  0  0  0  0  0  0  0  0  0  0  0
   20.6840  -27.2110   37.2240 H   0  0  0  0  0  0  0  0  0  0  0  0
   20.6290  -27.6310   44.0980 H   0  0  0  0  0  0  0  0  0  0  0  0
   22.3273  -25.7498   44.5431 H   0  0  0  0  0  0  0  0  0  0  0  0
   22.4295  -25.0845   46.9352 H   0  0  0  0  0  0  0  0  0  0  0  0
   21.5706  -23.2214   48.5356 H   0  0  0  0  0  0  0  0  0  0  0  0
   19.7623  -23.0867   48.6439 H   0  0  0  0  0  0  0  0  0  0  0  0
   21.5634  -25.3965   49.3915 H   0  0  0  0  0  0  0  0  0  0  0  0
   20.2382  -24.6342   50.3230 H   0  0  0  0  0  0  0  0  0  0  0  0
  1  2  1  0
  2  3  2  0
  3  4  1  0
  4  5  1  0
  5  6  1  0
  6  7  1  0
  7  8  2  0
  8  9  1  0
  9 10  2  0
 10 11  1  0
 11 12  1  0
 11 13  2  0
 13 14  1  0
 14 15  2  0
 14 16  1  0
 16 17  1  0
  4 18  2  0
 18 19  1  0
 19 20  2  0
 20 21  1  0
 21 22  1  0
 22 23  1  0
 20  2  1  0
 16  5  2  0
 13  7  1  0
  1 24  1  0
  1 25  1  0
  1 26  1  0
  3 27  1  0
  8 28  1  0
  9 29  1  0
 10 30  1  0
 12 31  1  0
 17 32  1  0
 18 33  1  0
 19 34  1  0
 21 35  1  0
 21 36  1  0
 22 37  1  0
 22 38  1  0
M  END
>  <meeko>  (6) 
{"is_sidechain": [false], "free_energy": -6.779, "intermolecular_energy": -8.44, "internal_energy": -0.326}

$$$$
cand_047_out
     RDKit          3D

 38 40  0  0  0  0  0  0  0  0999 V2000
   21.0440  -27.2020   42.1810 C   0  0  0  0  0  0  0  0  0  0  0  0
   20.1700  -27.2580   40.9580 C   0  0  0  0  0  0  0  0  0  0  0  0
   20.2790  -28.3690   40.0990 C   0  0  0  0  0  0  0  0  0  0  0  0
   19.4980  -28.4820   38.9390 C   0  0  0  0  0  0  0  0  0  0  0  0
   19.6260  -29.6370   38.0250 C   0  0  0  0  0  0  0  0  0  0  0  0
   19.9170  -29.2630   36.7180 O   0  0  0  0  0  0  0  0  0  0  0  0
   20.0650  -30.2380   35.7660 C   0  0  0  0  0  0  0  0  0  0  0  0
   20.3720  -29.8180   34.4710 C   0  0  0  0  0  0  0  0  0  0  0  0
   20.5340  -30.7610   33.4530 C   0  0  0  0  0  0  0  0  0  0  0  0
   20.3870  -32.1220   33.7300 C   0  0  0  0  0  0  0  0  0  0  0  0
   20.0800  -32.5380   35.0220 C   0  0  0  0  0  0  0  0  0  0  0  0
   19.9490  -33.8850   35.2240 O   0  0  0  0  0  0  0  0  0  0  0  0
   19.9190  -31.5940   36.0410 C   0  0  0  0  0  0  0  0  0  0  0  0
   19.5960  -31.9900   37.4130 C   0  0  0  0  0  0  0  0  0  0  0  0
   19.4440  -33.1660   37.7330 O   0  0  0  0  0  0  0  0  0  0  0  0
   19.4550  -30.9130   38.4200 C   0  0  0  0  0  0  0  0  0  0  0  0
   19.1370  -31.2950   39.7110 O   0  0  0  0  0  0  0  0  0  0  0  0
   18.6100  -27.4480   38.6320 C   0  0  0  0  0  0  0  0  0  0  0  0
   18.4940  -26.3350   39.4700 C   0  0  0  0  0  0  0  0  0  0  0  0
   19.2700  -26.2240   40.6350 C   0  0  0  0  0  0  0  0  0  0  0  0
   19.0820  -25.0080   41.5110 C   0  0  0  0  0  0  0  0  0  0  0  0
   19.8190  -23.7920   40.9730 C   0  0  0  0  0  0  0  0  0  0  0  0
   18.9030  -22.9010   40.5030 F   0  0  0  0  0  0  0  0  0  0  0  0
   20.4156  -27.2423   43.0829 H   0  0  0  0  0  0  0  0  0  0  0  0
   21.7352  -28.0577   42.1772 H   0  0  0  0  0  0  0  0  0  0  0  0
   21.6203  -26.2651   42.1772 H   0  0  0  0  0  0  0  0  0  0  0  0
   20.9943  -29.1680   40.3438 H   0  0  0  0  0  0  0  0  0  0  0  0
   20.4863  -28.7461   34.2521 H   0  0  0  0  0  0  0  0  0  0  0  0
   20.7776  -30.4312   32.4323 H   0  0  0  0  0  0  0  0  0  0  0  0
   20.5137  -32.8641   32.9280 H   0  0  0  0  0  0  0  0  0  0  0  0
   20.1460  -34.2540   36.0620 H   0  0  0  0  0  0  0  0  0  0  0  0
   19.7930  -31.2750   40.3790 H   0  0  0  0  0  0  0  0  0  0  0  0
   17.9958  -27.5103   37.7216 H   0  0  0  0  0  0  0  0  0  0  0  0
   17.7845  -25.5346   39.2130 H   0  0  0  0  0  0  0  0  0  0  0  0
   18.0085  -24.7750   41.5676 H   0  0  0  0  0  0  0  0  0  0  0  0
   19.4946  -25.2405   42.5038 H   0  0  0  0  0  0  0  0  0  0  0  0
   20.4069  -23.3286   41.7790 H   0  0  0  0  0  0  0  0  0  0  0  0
   20.4996  -24.0933   40.1631 H   0  0  0  0  0  0  0  0  0  0  0  0
  1  2  1  0
  2  3  2  0
  3  4  1  0
  4  5  1  0
  5  6  1  0
  6  7  1  0
  7  8  2  0
  8  9  1  0
  9 10  2  0
 10 11  1  0
 11 12  1  0
 11 13  2  0
 13 14  1  0
 14 15  2  0
 14 16  1  0
 16 17  1  0
  4 18  2  0
 18 19  1  0
 19 20  2  0
 20 21  1  0
 21 22  1  0
 22 23  1  0
 20  2  1  0
 16  5  2  0
 13  7  1  0
  1 24  1  0
  1 25  1  0
  1 26  1  0
  3 27  1  0
  8 28  1  0
  9 29  1  0
 10 30  1  0
 12 31  1  0
 17 32  1  0
 18 33  1  0
 19 34  1  0
 21 35  1  0
 21 36  1  0
 22 37  1  0
 22 38  1  0
M  END
>  <meeko>  (7) 
{"is_sidechain": [false], "free_energy": -6.776, "intermolecular_energy": -8.444, "internal_energy": -0.317}

$$$$
cand_047_out
     RDKit          3D

 38 40  0  0  0  0  0  0  0  0999 V2000
   20.1710  -31.6850   35.5190 C   0  0  0  0  0  0  0  0  0  0  0  0
   19.7520  -31.1890   36.8760 C   0  0  0  0  0  0  0  0  0  0  0  0
   19.7560  -29.8020   37.1200 C   0  0  0  0  0  0  0  0  0  0  0  0
   19.3830  -29.2720   38.3630 C   0  0  0  0  0  0  0  0  0  0  0  0
   19.4080  -27.8170   38.6280 C   0  0  0  0  0  0  0  0  0  0  0  0
   18.5380  -27.1040   37.8110 O   0  0  0  0  0  0  0  0  0  0  0  0
   18.4600  -25.7430   37.9530 C   0  0  0  0  0  0  0  0  0  0  0  0
   17.5630  -25.0690   37.1230 C   0  0  0  0  0  0  0  0  0  0  0  0
   17.4360  -23.6810   37.2160 C   0  0  0  0  0  0  0  0  0  0  0  0
   18.2070  -22.9680   38.1360 C   0  0  0  0  0  0  0  0  0  0  0  0
   19.1020  -23.6420   38.9620 C   0  0  0  0  0  0  0  0  0  0  0  0
   19.8260  -22.8830   39.8390 O   0  0  0  0  0  0  0  0  0  0  0  0
   19.2270  -25.0310   38.8700 C   0  0  0  0  0  0  0  0  0  0  0  0
   20.1560  -25.7780   39.7200 C   0  0  0  0  0  0  0  0  0  0  0  0
   20.8740  -25.2210   40.5480 O   0  0  0  0  0  0  0  0  0  0  0  0
   20.2080  -27.2490   39.5500 C   0  0  0  0  0  0  0  0  0  0  0  0
   21.0980  -27.9440   40.3480 O   0  0  0  0  0  0  0  0  0  0  0  0
   19.0210  -30.1580   39.3820 C   0  0  0  0  0  0  0  0  0  0  0  0
   19.0180  -31.5370   39.1590 C   0  0  0  0  0  0  0  0  0  0  0  0
   19.3850  -32.0680   37.9120 C   0  0  0  0  0  0  0  0  0  0  0  0
   19.3390  -33.5680   37.7280 C   0  0  0  0  0  0  0  0  0  0  0  0
   18.3380  -34.2300   38.6600 C   0  0  0  0  0  0  0  0  0  0  0  0
   19.0210  -34.8650   39.6520 F   0  0  0  0  0  0  0  0  0  0  0  0
   20.8768  -32.5205   35.6359 H   0  0  0  0  0  0  0  0  0  0  0  0
   19.2852  -32.0282   34.9644 H   0  0  0  0  0  0  0  0  0  0  0  0
   20.6574  -30.8690   34.9644 H   0  0  0  0  0  0  0  0  0  0  0  0
   20.0596  -29.1170   36.3146 H   0  0  0  0  0  0  0  0  0  0  0  0
   16.9568  -25.6300   36.3965 H   0  0  0  0  0  0  0  0  0  0  0  0
   16.7278  -23.1492   36.5637 H   0  0  0  0  0  0  0  0  0  0  0  0
   18.1073  -21.8749   38.2080 H   0  0  0  0  0  0  0  0  0  0  0  0
   20.5630  -22.3900   39.5340 H   0  0  0  0  0  0  0  0  0  0  0  0
   20.9720  -28.8600   40.5010 H   0  0  0  0  0  0  0  0  0  0  0  0
   18.7357  -29.7654   40.3691 H   0  0  0  0  0  0  0  0  0  0  0  0
   18.7238  -32.2169   39.9722 H   0  0  0  0  0  0  0  0  0  0  0  0
   19.0550  -33.7889   36.6885 H   0  0  0  0  0  0  0  0  0  0  0  0
   20.3361  -33.9680   37.9641 H   0  0  0  0  0  0  0  0  0  0  0  0
   17.6765  -33.4667   39.0956 H   0  0  0  0  0  0  0  0  0  0  0  0
   17.7272  -34.9545   38.1014 H   0  0  0  0  0  0  0  0  0  0  0  0
  1  2  1  0
  2  3  2  0
  3  4  1  0
  4  5  1  0
  5  6  1  0
  6  7  1  0
  7  8  2  0
  8  9  1  0
  9 10  2  0
 10 11  1  0
 11 12  1  0
 11 13  2  0
 13 14  1  0
 14 15  2  0
 14 16  1  0
 16 17  1  0
  4 18  2  0
 18 19  1  0
 19 20  2  0
 20 21  1  0
 21 22  1  0
 22 23  1  0
 20  2  1  0
 16  5  2  0
 13  7  1  0
  1 24  1  0
  1 25  1  0
  1 26  1  0
  3 27  1  0
  8 28  1  0
  9 29  1  0
 10 30  1  0
 12 31  1  0
 17 32  1  0
 18 33  1  0
 19 34  1  0
 21 35  1  0
 21 36  1  0
 22 37  1  0
 22 38  1  0
M  END
>  <meeko>  (8) 
{"is_sidechain": [false], "free_energy": -6.682, "intermolecular_energy": -8.314, "internal_energy": -0.331}

$$$$
cand_047_out
     RDKit          3D

 38 40  0  0  0  0  0  0  0  0999 V2000
   17.6950  -22.4640   46.7140 C   0  0  0  0  0  0  0  0  0  0  0  0
   18.8110  -23.2470   46.0800 C   0  0  0  0  0  0  0  0  0  0  0  0
   18.7830  -23.4590   44.6880 C   0  0  0  0  0  0  0  0  0  0  0  0
   19.7880  -24.1860   44.0340 C   0  0  0  0  0  0  0  0  0  0  0  0
   19.7490  -24.4280   42.5760 C   0  0  0  0  0  0  0  0  0  0  0  0
   19.8000  -25.7780   42.2500 O   0  0  0  0  0  0  0  0  0  0  0  0
   19.7700  -26.1440   40.9290 C   0  0  0  0  0  0  0  0  0  0  0  0
   19.8080  -27.5100   40.6490 C   0  0  0  0  0  0  0  0  0  0  0  0
   19.7820  -27.9500   39.3230 C   0  0  0  0  0  0  0  0  0  0  0  0
   19.7190  -27.0250   38.2790 C   0  0  0  0  0  0  0  0  0  0  0  0
   19.6820  -25.6620   38.5620 C   0  0  0  0  0  0  0  0  0  0  0  0
   19.6220  -24.8100   37.4930 O   0  0  0  0  0  0  0  0  0  0  0  0
   19.7070  -25.2230   39.8890 C   0  0  0  0  0  0  0  0  0  0  0  0
   19.6700  -23.7990   40.2290 C   0  0  0  0  0  0  0  0  0  0  0  0
   19.6220  -22.9240   39.3670 O   0  0  0  0  0  0  0  0  0  0  0  0
   19.6920  -23.4380   41.6650 C   0  0  0  0  0  0  0  0  0  0  0  0
   19.6690  -22.0900   41.9760 O   0  0  0  0  0  0  0  0  0  0  0  0
   20.8260  -24.7240   44.8000 C   0  0  0  0  0  0  0  0  0  0  0  0
   20.8670  -24.5280   46.1830 C   0  0  0  0  0  0  0  0  0  0  0  0
   19.8640  -23.7950   46.8380 C   0  0  0  0  0  0  0  0  0  0  0  0
   19.9760  -23.6000   48.3330 C   0  0  0  0  0  0  0  0  0  0  0  0
   20.6270  -24.7890   49.0200 C   0  0  0  0  0  0  0  0  0  0  0  0
   19.7390  -25.8220   49.0350 F   0  0  0  0  0  0  0  0  0  0  0  0
   17.7808  -22.5242   47.8090 H   0  0  0  0  0  0  0  0  0  0  0  0
   17.7597  -21.4122   46.3984 H   0  0  0  0  0  0  0  0  0  0  0  0
   16.7280  -22.8827   46.3984 H   0  0  0  0  0  0  0  0  0  0  0  0
   17.9519  -23.0439   44.0990 H   0  0  0  0  0  0  0  0  0  0  0  0
   19.8584  -28.2396   41.4707 H   0  0  0  0  0  0  0  0  0  0  0  0
   19.8112  -29.0270   39.1013 H   0  0  0  0  0  0  0  0  0  0  0  0
   19.6986  -27.3721   37.2354 H   0  0  0  0  0  0  0  0  0  0  0  0
   19.3150  -23.9330   37.6110 H   0  0  0  0  0  0  0  0  0  0  0  0
   19.4280  -21.4640   41.3230 H   0  0  0  0  0  0  0  0  0  0  0  0
   21.6187  -25.3077   44.3092 H   0  0  0  0  0  0  0  0  0  0  0  0
   21.6964  -24.9538   46.7667 H   0  0  0  0  0  0  0  0  0  0  0  0
   20.5814  -22.7027   48.5288 H   0  0  0  0  0  0  0  0  0  0  0  0
   18.9584  -23.4924   48.7366 H   0  0  0  0  0  0  0  0  0  0  0  0
   21.5315  -25.0858   48.4689 H   0  0  0  0  0  0  0  0  0  0  0  0
   20.9087  -24.5206   50.0489 H   0  0  0  0  0  0  0  0  0  0  0  0
  1  2  1  0
  2  3  2  0
  3  4  1  0
  4  5  1  0
  5  6  1  0
  6  7  1  0
  7  8  2  0
  8  9  1  0
  9 10  2  0
 10 11  1  0
 11 12  1  0
 11 13  2  0
 13 14  1  0
 14 15  2  0
 14 16  1  0
 16 17  1  0
  4 18  2  0
 18 19  1  0
 19 20  2  0
 20 21  1  0
 21 22  1  0
 22 23  1  0
 20  2  1  0
 16  5  2  0
 13  7  1  0
  1 24  1  0
  1 25  1  0
  1 26  1  0
  3 27  1  0
  8 28  1  0
  9 29  1  0
 10 30  1  0
 12 31  1  0
 17 32  1  0
 18 33  1  0
 19 34  1  0
 21 35  1  0
 21 36  1  0
 22 37  1  0
 22 38  1  0
M  END
>  <meeko>  (9) 
{"is_sidechain": [false], "free_energy": -6.668, "intermolecular_energy": -8.271, "internal_energy": -0.357}

$$$$
