cand_032_out
     RDKit          3D

 43 45  0  0  0  0  0  0  0  0999 V2000
   21.8820  -27.2880   43.5560 C   0  0  0  0  0  0  0  0  0  0  0  0
   20.6820  -27.2190   42.6210 C   0  0  0  0  0  0  0  0  0  0  0  0
   21.1130  -26.8390   41.2620 N   0  0  0  0  0  0  0  0  0  0  0  0
   22.4830  -27.2380   40.9110 C   0  0  0  0  0  0  0  0  0  0  0  0
   20.1940  -27.2450   40.2660 C   0  0  0  0  0  0  0  0  0  0  0  0
   20.2000  -28.5560   39.7490 C   0  0  0  0  0  0  0  0  0  0  0  0
   19.2890  -28.9680   38.7650 C   0  0  0  0  0  0  0  0  0  0  0  0
   19.3110  -30.3370   38.2110 C   0  0  0  0  0  0  0  0  0  0  0  0
   18.8930  -31.2970   39.1260 O   0  0  0  0  0  0  0  0  0  0  0  0
   18.8660  -32.6140   38.7410 C   0  0  0  0  0  0  0  0  0  0  0  0
   18.4270  -33.5410   39.6860 C   0  0  0  0  0  0  0  0  0  0  0  0
   18.3770  -34.8980   39.3590 C   0  0  0  0  0  0  0  0  0  0  0  0
   18.7660  -35.3270   38.0880 C   0  0  0  0  0  0  0  0  0  0  0  0
   19.2030  -34.3990   37.1470 C   0  0  0  0  0  0  0  0  0  0  0  0
   19.5690  -34.8860   35.9220 O   0  0  0  0  0  0  0  0  0  0  0  0
   19.2530  -33.0410   37.4740 C   0  0  0  0  0  0  0  0  0  0  0  0
   19.7060  -32.0330   36.5150 C   0  0  0  0  0  0  0  0  0  0  0  0
   20.0700  -32.3320   35.3790 O   0  0  0  0  0  0  0  0  0  0  0  0
   19.7140  -30.6200   36.9580 C   0  0  0  0  0  0  0  0  0  0  0  0
   20.1570  -29.6780   36.0480 O   0  0  0  0  0  0  0  0  0  0  0  0
   18.3700  -28.0330   38.2790 C   0  0  0  0  0  0  0  0  0  0  0  0
   18.3510  -26.7290   38.7770 C   0  0  0  0  0  0  0  0  0  0  0  0
   19.2580  -26.3200   39.7720 C   0  0  0  0  0  0  0  0  0  0  0  0
   19.2110  -24.9060   40.2980 C   0  0  0  0  0  0  0  0  0  0  0  0
   20.4330  -24.3030   40.3610 F   0  0  0  0  0  0  0  0  0  0  0  0
   18.4570  -24.0770   39.5090 F   0  0  0  0  0  0  0  0  0  0  0  0
   18.6580  -24.7980   41.5400 F   0  0  0  0  0  0  0  0  0  0  0  0
   21.5352  -27.2681   44.5997 H   0  0  0  0  0  0  0  0  0  0  0  0
   22.4372  -28.2196   43.3718 H   0  0  0  0  0  0  0  0  0  0  0  0
   22.5404  -26.4262   43.3718 H   0  0  0  0  0  0  0  0  0  0  0  0
   20.1932  -28.2038   42.5846 H   0  0  0  0  0  0  0  0  0  0  0  0
   19.9778  -26.4625   42.9977 H   0  0  0  0  0  0  0  0  0  0  0  0
   23.0627  -27.4068   41.8305 H   0  0  0  0  0  0  0  0  0  0  0  0
   22.4548  -28.1652   40.3199 H   0  0  0  0  0  0  0  0  0  0  0  0
   22.9571  -26.4406   40.3199 H   0  0  0  0  0  0  0  0  0  0  0  0
   20.9399  -29.2765   40.1277 H   0  0  0  0  0  0  0  0  0  0  0  0
   18.1206  -33.2040   40.6873 H   0  0  0  0  0  0  0  0  0  0  0  0
   18.0307  -35.6299   40.1036 H   0  0  0  0  0  0  0  0  0  0  0  0
   18.7271  -36.3959   37.8312 H   0  0  0  0  0  0  0  0  0  0  0  0
   20.0310  -35.6990   35.8600 H   0  0  0  0  0  0  0  0  0  0  0  0
   20.8220  -29.0660   36.2940 H   0  0  0  0  0  0  0  0  0  0  0  0
   17.6551  -28.3278   37.4967 H   0  0  0  0  0  0  0  0  0  0  0  0
   17.6159  -26.0104   38.3857 H   0  0  0  0  0  0  0  0  0  0  0  0
  1  2  1  0
  2  3  1  0
  3  4  1  0
  3  5  1  0
  5  6  2  0
  6  7  1  0
  7  8  1  0
  8  9  1  0
  9 10  1  0
 10 11  2  0
 11 12  1  0
 12 13  2  0
 13 14  1  0
 14 15  1  0
 14 16  2  0
 16 17  1  0
 17 18  2  0
 17 19  1  0
 19 20  1  0
  7 21  2  0
 21 22  1  0
 22 23  2  0
 23 24  1  0
 24 25  1  0
 24 26  1  0
 24 27  1  0
 23  5  1  0
 19  8  2  0
 16 10  1  0
  1 28  1  0
  1 29  1  0
  1 30  1  0
  2 31  1  0
  2 32  1  0
  4 33  1  0
  4 34  1  0
  4 35  1  0
  6 36  1  0
 11 37  1  0
 12 38  1  0
 13 39  1  0
 15 40  1  0
 20 41  1  0
 21 42  1  0
 22 43  1  0
M  END
>  <meeko>  (1) 
{"is_sidechain": [false], "free_energy": -7.612, "intermolecular_energy": -9.837, "internal_energy": -0.579}

$$$$
cand_032_out
     RDKit          3D

 43 45  0  0  0  0  0  0  0  0999 V2000
   18.5160  -34.4370   39.5640 C   0  0  0  0  0  0  0  0  0  0  0  0
   19.6540  -33.7620   38.8100 C   0  0  0  0  0  0  0  0  0  0  0  0
   19.2500  -33.4810   37.4180 N   0  0  0  0  0  0  0  0  0  0  0  0
   17.8850  -33.8990   37.0730 C   0  0  0  0  0  0  0  0  0  0  0  0
   19.4800  -32.1360   37.0450 C   0  0  0  0  0  0  0  0  0  0  0  0
   19.3080  -31.0790   37.9600 C   0  0  0  0  0  0  0  0  0  0  0  0
   19.5400  -29.7430   37.6000 C   0  0  0  0  0  0  0  0  0  0  0  0
   19.3400  -28.6340   38.5560 C   0  0  0  0  0  0  0  0  0  0  0  0
   20.2060  -28.6930   39.6420 O   0  0  0  0  0  0  0  0  0  0  0  0
   20.1260  -27.7230   40.6080 C   0  0  0  0  0  0  0  0  0  0  0  0
   21.0240  -27.8130   41.6720 C   0  0  0  0  0  0  0  0  0  0  0  0
   20.9950  -26.8580   42.6910 C   0  0  0  0  0  0  0  0  0  0  0  0
   20.0690  -25.8140   42.6460 C   0  0  0  0  0  0  0  0  0  0  0  0
   19.1740  -25.7260   41.5820 C   0  0  0  0  0  0  0  0  0  0  0  0
   18.2950  -24.6790   41.6000 O   0  0  0  0  0  0  0  0  0  0  0  0
   19.2040  -26.6810   40.5630 C   0  0  0  0  0  0  0  0  0  0  0  0
   18.2820  -26.6270   39.4270 C   0  0  0  0  0  0  0  0  0  0  0  0
   17.4340  -25.7420   39.3190 O   0  0  0  0  0  0  0  0  0  0  0  0
   18.4000  -27.6830   38.3960 C   0  0  0  0  0  0  0  0  0  0  0  0
   17.5150  -27.6290   37.3350 O   0  0  0  0  0  0  0  0  0  0  0  0
   19.9320  -29.4690   36.2860 C   0  0  0  0  0  0  0  0  0  0  0  0
   20.1040  -30.5030   35.3650 C   0  0  0  0  0  0  0  0  0  0  0  0
   19.8830  -31.8430   35.7300 C   0  0  0  0  0  0  0  0  0  0  0  0
   20.0850  -32.9440   34.7170 C   0  0  0  0  0  0  0  0  0  0  0  0
   18.9710  -33.2200   33.9780 F   0  0  0  0  0  0  0  0  0  0  0  0
   21.0460  -32.6330   33.7900 F   0  0  0  0  0  0  0  0  0  0  0  0
   20.4960  -34.1250   35.2590 F   0  0  0  0  0  0  0  0  0  0  0  0
   18.6836  -34.3376   40.6466 H   0  0  0  0  0  0  0  0  0  0  0  0
   17.5630  -33.9580   39.2950 H   0  0  0  0  0  0  0  0  0  0  0  0
   18.4794  -35.5030   39.2950 H   0  0  0  0  0  0  0  0  0  0  0  0
   19.9113  -32.8171   39.3111 H   0  0  0  0  0  0  0  0  0  0  0  0
   20.5255  -34.4331   38.8014 H   0  0  0  0  0  0  0  0  0  0  0  0
   17.3113  -34.0747   37.9949 H   0  0  0  0  0  0  0  0  0  0  0  0
   17.3977  -33.1089   36.4828 H   0  0  0  0  0  0  0  0  0  0  0  0
   17.9237  -34.8265   36.4828 H   0  0  0  0  0  0  0  0  0  0  0  0
   18.9826  -31.3075   38.9856 H   0  0  0  0  0  0  0  0  0  0  0  0
   21.7540  -28.6351   41.7084 H   0  0  0  0  0  0  0  0  0  0  0  0
   21.7027  -26.9286   43.5301 H   0  0  0  0  0  0  0  0  0  0  0  0
   20.0462  -25.0625   43.4490 H   0  0  0  0  0  0  0  0  0  0  0  0
   18.5730  -23.8370   41.9030 H   0  0  0  0  0  0  0  0  0  0  0  0
   17.8340  -27.6750   36.4570 H   0  0  0  0  0  0  0  0  0  0  0  0
   20.1065  -28.4283   35.9754 H   0  0  0  0  0  0  0  0  0  0  0  0
   20.4173  -30.2663   34.3375 H   0  0  0  0  0  0  0  0  0  0  0  0
  1  2  1  0
  2  3  1  0
  3  4  1  0
  3  5  1  0
  5  6  2  0
  6  7  1  0
  7  8  1  0
  8  9  1  0
  9 10  1  0
 10 11  2  0
 11 12  1  0
 12 13  2  0
 13 14  1  0
 14 15  1  0
 14 16  2  0
 16 17  1  0
 17 18  2  0
 17 19  1  0
 19 20  1  0
  7 21  2  0
 21 22  1  0
 22 23  2  0
 23 24  1  0
 24 25  1  0
 24 26  1  0
 24 27  1  0
 23  5  1  0
 19  8  2  0
 16 10  1  0
  1 28  1  0
  1 29  1  0
  1 30  1  0
  2 31  1  0
  2 32  1  0
  4 33  1  0
  4 34  1  0
  4 35  1  0
  6 36  1  0
 11 37  1  0
 12 38  1  0
 13 39  1  0
 15 40  1  0
 20 41  1  0
 21 42  1  0
 22 43  1  0
M  END
>  <meeko>  (2) 
{"is_sidechain": [false], "free_energy": -7.184, "intermolecular_energy": -9.708, "internal_energy": -0.154}

$$$$
cand_032_out
     RDKit          3D

 43 45  0  0  0  0  0  0  0  0999 V2000
   19.4170  -23.4060   37.8560 C   0  0  0  0  0  0  0  0  0  0  0  0
   19.7800  -24.8590   37.5830 C   0  0  0  0  0  0  0  0  0  0  0  0
   18.6180  -25.7340   37.8370 N   0  0  0  0  0  0  0  0  0  0  0  0
   17.6200  -25.7670   36.7590 C   0  0  0  0  0  0  0  0  0  0  0  0
   18.9940  -27.0410   38.2230 C   0  0  0  0  0  0  0  0  0  0  0  0
   19.1800  -28.0640   37.2730 C   0  0  0  0  0  0  0  0  0  0  0  0
   19.5590  -29.3620   37.6470 C   0  0  0  0  0  0  0  0  0  0  0  0
   19.7340  -30.4390   36.6500 C   0  0  0  0  0  0  0  0  0  0  0  0
   19.3290  -31.6830   37.1210 O   0  0  0  0  0  0  0  0  0  0  0  0
   19.4390  -32.7730   36.2940 C   0  0  0  0  0  0  0  0  0  0  0  0
   19.0070  -33.9980   36.8020 C   0  0  0  0  0  0  0  0  0  0  0  0
   19.0940  -35.1480   36.0140 C   0  0  0  0  0  0  0  0  0  0  0  0
   19.6110  -35.0720   34.7190 C   0  0  0  0  0  0  0  0  0  0  0  0
   20.0400  -33.8470   34.2150 C   0  0  0  0  0  0  0  0  0  0  0  0
   20.5360  -33.8440   32.9400 O   0  0  0  0  0  0  0  0  0  0  0  0
   19.9540  -32.6970   35.0040 C   0  0  0  0  0  0  0  0  0  0  0  0
   20.3940  -31.3900   34.5130 C   0  0  0  0  0  0  0  0  0  0  0  0
   20.8660  -31.2430   33.3870 O   0  0  0  0  0  0  0  0  0  0  0  0
   20.2520  -30.2320   35.4250 C   0  0  0  0  0  0  0  0  0  0  0  0
   20.6840  -29.0050   34.9550 O   0  0  0  0  0  0  0  0  0  0  0  0
   19.7310  -29.6370   39.0070 C   0  0  0  0  0  0  0  0  0  0  0  0
   19.5470  -28.6370   39.9640 C   0  0  0  0  0  0  0  0  0  0  0  0
   19.1800  -27.3320   39.5860 C   0  0  0  0  0  0  0  0  0  0  0  0
   18.9960  -26.2670   40.6400 C   0  0  0  0  0  0  0  0  0  0  0  0
   17.8370  -25.5590   40.5070 F   0  0  0  0  0  0  0  0  0  0  0  0
   18.9400  -26.7870   41.9070 F   0  0  0  0  0  0  0  0  0  0  0  0
   20.0080  -25.3540   40.6850 F   0  0  0  0  0  0  0  0  0  0  0  0
   19.3746  -23.2365   38.9420 H   0  0  0  0  0  0  0  0  0  0  0  0
   20.1784  -22.7481   37.4116 H   0  0  0  0  0  0  0  0  0  0  0  0
   18.4357  -23.1835   37.4116 H   0  0  0  0  0  0  0  0  0  0  0  0
   20.0909  -24.9643   36.5331 H   0  0  0  0  0  0  0  0  0  0  0  0
   20.6027  -25.1538   38.2510 H   0  0  0  0  0  0  0  0  0  0  0  0
   16.6105  -25.8004   37.1948 H   0  0  0  0  0  0  0  0  0  0  0  0
   17.7215  -24.8650   36.1376 H   0  0  0  0  0  0  0  0  0  0  0  0
   17.7809  -26.6603   36.1376 H   0  0  0  0  0  0  0  0  0  0  0  0
   19.0237  -27.8389   36.2077 H   0  0  0  0  0  0  0  0  0  0  0  0
   18.5985  -34.0584   37.8215 H   0  0  0  0  0  0  0  0  0  0  0  0
   18.7548  -36.1149   36.4141 H   0  0  0  0  0  0  0  0  0  0  0  0
   19.6792  -35.9778   34.0986 H   0  0  0  0  0  0  0  0  0  0  0  0
   20.4480  -33.0800   32.4040 H   0  0  0  0  0  0  0  0  0  0  0  0
   21.2860  -28.4970   35.4600 H   0  0  0  0  0  0  0  0  0  0  0  0
   20.0140  -30.6509   39.3262 H   0  0  0  0  0  0  0  0  0  0  0  0
   19.6910  -28.8726   41.0288 H   0  0  0  0  0  0  0  0  0  0  0  0
  1  2  1  0
  2  3  1  0
  3  4  1  0
  3  5  1  0
  5  6  2  0
  6  7  1  0
  7  8  1  0
  8  9  1  0
  9 10  1  0
 10 11  2  0
 11 12  1  0
 12 13  2  0
 13 14  1  0
 14 15  1  0
 14 16  2  0
 16 17  1  0
 17 18  2  0
 17 19  1  0
 19 20  1  0
  7 21  2  0
 21 22  1  0
 22 23  2  0
 23 24  1  0
 24 25  1  0
 24 26  1  0
 24 27  1  0
 23  5  1  0
 19  8  2  0
 16 10  1  0
  1 28  1  0
  1 29  1  0
  1 30  1  0
  2 31  1  0
  2 32  1  0
  4 33  1  0
  4 34  1  0
  4 35  1  0
  6 36  1  0
 11 37  1  0
 12 38  1  0
 13 39  1  0
 15 40  1  0
 20 41  1  0
 21 42  1  0
 22 43  1  0
M  END
>  <meeko>  (3) 
{"is_sidechain": [false], "free_energy": -6.958, "intermolecular_energy": -9.323, "internal_energy": -0.248}

$$$$
cand_032_out
     RDKit          3D

 43 45  0  0  0  0  0  0  0  0999 V2000
   19.3120  -22.6100   37.6580 C   0  0  0  0  0  0  0  0  0  0  0  0
   19.6320  -24.0910   37.8100 C   0  0  0  0  0  0  0  0  0  0  0  0
   18.6100  -24.7530   38.6440 N   0  0  0  0  0  0  0  0  0  0  0  0
   17.3250  -24.9940   37.9740 C   0  0  0  0  0  0  0  0  0  0  0  0
   19.0900  -25.9310   39.2620 C   0  0  0  0  0  0  0  0  0  0  0  0
   19.0650  -27.1730   38.5980 C   0  0  0  0  0  0  0  0  0  0  0  0
   19.5440  -28.3450   39.2020 C   0  0  0  0  0  0  0  0  0  0  0  0
   19.4980  -29.6500   38.5110 C   0  0  0  0  0  0  0  0  0  0  0  0
   19.1980  -30.7050   39.3660 O   0  0  0  0  0  0  0  0  0  0  0  0
   19.1240  -31.9750   38.8530 C   0  0  0  0  0  0  0  0  0  0  0  0
   18.8050  -33.0000   39.7440 C   0  0  0  0  0  0  0  0  0  0  0  0
   18.7170  -34.3170   39.2870 C   0  0  0  0  0  0  0  0  0  0  0  0
   18.9460  -34.6090   37.9410 C   0  0  0  0  0  0  0  0  0  0  0  0
   19.2640  -33.5830   37.0540 C   0  0  0  0  0  0  0  0  0  0  0  0
   19.4760  -33.9370   35.7500 O   0  0  0  0  0  0  0  0  0  0  0  0
   19.3530  -32.2660   37.5110 C   0  0  0  0  0  0  0  0  0  0  0  0
   19.6830  -31.1580   36.6140 C   0  0  0  0  0  0  0  0  0  0  0  0
   19.9060  -31.3340   35.4170 O   0  0  0  0  0  0  0  0  0  0  0  0
   19.7450  -29.7980   37.1960 C   0  0  0  0  0  0  0  0  0  0  0  0
   20.0720  -28.7610   36.3410 O   0  0  0  0  0  0  0  0  0  0  0  0
   20.0380  -28.2650   40.5080 C   0  0  0  0  0  0  0  0  0  0  0  0
   20.0680  -27.0430   41.1830 C   0  0  0  0  0  0  0  0  0  0  0  0
   19.5980  -25.8660   40.5720 C   0  0  0  0  0  0  0  0  0  0  0  0
   19.6490  -24.5570   41.3210 C   0  0  0  0  0  0  0  0  0  0  0  0
   18.4500  -23.9070   41.3720 F   0  0  0  0  0  0  0  0  0  0  0  0
   20.0110  -24.7170   42.6330 F   0  0  0  0  0  0  0  0  0  0  0  0
   20.5530  -23.6680   40.8190 F   0  0  0  0  0  0  0  0  0  0  0  0
   19.2131  -22.1522   38.6533 H   0  0  0  0  0  0  0  0  0  0  0  0
   20.1238  -22.1143   37.1054 H   0  0  0  0  0  0  0  0  0  0  0  0
   18.3680  -22.4937   37.1054 H   0  0  0  0  0  0  0  0  0  0  0  0
   19.6502  -24.5622   36.8162 H   0  0  0  0  0  0  0  0  0  0  0  0
   20.6134  -24.1970   38.2954 H   0  0  0  0  0  0  0  0  0  0  0  0
   16.5394  -25.1413   38.7297 H   0  0  0  0  0  0  0  0  0  0  0  0
   17.0712  -24.1278   37.3453 H   0  0  0  0  0  0  0  0  0  0  0  0
   17.4023  -25.8933   37.3453 H   0  0  0  0  0  0  0  0  0  0  0  0
   18.6585  -27.2254   37.5772 H   0  0  0  0  0  0  0  0  0  0  0  0
   18.6231  -32.7715   40.8045 H   0  0  0  0  0  0  0  0  0  0  0  0
   18.4667  -35.1259   39.9891 H   0  0  0  0  0  0  0  0  0  0  0  0
   18.8755  -35.6464   37.5820 H   0  0  0  0  0  0  0  0  0  0  0  0
   18.7630  -33.9420   35.1430 H   0  0  0  0  0  0  0  0  0  0  0  0
   20.1100  -28.9110   35.4180 H   0  0  0  0  0  0  0  0  0  0  0  0
   20.4062  -29.1730   41.0080 H   0  0  0  0  0  0  0  0  0  0  0  0
   20.4651  -26.9999   42.2079 H   0  0  0  0  0  0  0  0  0  0  0  0
  1  2  1  0
  2  3  1  0
  3  4  1  0
  3  5  1  0
  5  6  2  0
  6  7  1  0
  7  8  1  0
  8  9  1  0
  9 10  1  0
 10 11  2  0
 11 12  1  0
 12 13  2  0
 13 14  1  0
 14 15  1  0
 14 16  2  0
 16 17  1  0
 17 18  2  0
 17 19  1  0
 19 20  1  0
  7 21  2  0
 21 22  1  0
 22 23  2  0
 23 24  1  0
 24 25  1  0
 24 26  1  0
 24 27  1  0
 23  5  1  0
 19  8  2  0
 16 10  1  0
  1 28  1  0
  1 29  1  0
  1 30  1  0
  2 31  1  0
  2 32  1  0
  4 33  1  0
  4 34  1  0
  4 35  1  0
  6 36  1  0
 11 37  1  0
 12 38  1  0
 13 39  1  0
 15 40  1  0
 20 41  1  0
 21 42  1  0
 22 43  1  0
M  END
>  <meeko>  (4) 
{"is_sidechain": [false], "free_energy": -6.844, "intermolecular_energy": -9.091, "internal_energy": -0.333}

$$$$
cand_032_out
     RDKit          3D

 43 45  0  0  0  0  0  0  0  0999 V2000
   18.3270  -22.3140   34.0810 C   0  0  0  0  0  0  0  0  0  0  0  0
   18.0160  -23.7590   34.4440 C   0  0  0  0  0  0  0  0  0  0  0  0
   17.5740  -23.8510   35.8500 N   0  0  0  0  0  0  0  0  0  0  0  0
   16.1640  -24.2210   36.0340 C   0  0  0  0  0  0  0  0  0  0  0  0
   18.4210  -24.6660   36.6350 C   0  0  0  0  0  0  0  0  0  0  0  0
   18.5630  -26.0440   36.3760 C   0  0  0  0  0  0  0  0  0  0  0  0
   19.4050  -26.8590   37.1470 C   0  0  0  0  0  0  0  0  0  0  0  0
   19.5370  -28.3080   36.8860 C   0  0  0  0  0  0  0  0  0  0  0  0
   19.2720  -29.0860   38.0070 O   0  0  0  0  0  0  0  0  0  0  0  0
   19.3590  -30.4510   37.9030 C   0  0  0  0  0  0  0  0  0  0  0  0
   19.0700  -31.1930   39.0490 C   0  0  0  0  0  0  0  0  0  0  0  0
   19.1420  -32.5870   39.0130 C   0  0  0  0  0  0  0  0  0  0  0  0
   19.5020  -33.2390   37.8310 C   0  0  0  0  0  0  0  0  0  0  0  0
   19.7890  -32.4960   36.6890 C   0  0  0  0  0  0  0  0  0  0  0  0
   20.1350  -33.1970   35.5660 O   0  0  0  0  0  0  0  0  0  0  0  0
   19.7170  -31.1010   36.7260 C   0  0  0  0  0  0  0  0  0  0  0  0
   20.0100  -30.2820   35.5490 C   0  0  0  0  0  0  0  0  0  0  0  0
   20.3400  -30.7810   34.4740 O   0  0  0  0  0  0  0  0  0  0  0  0
   19.8970  -28.8120   35.6910 C   0  0  0  0  0  0  0  0  0  0  0  0
   20.1900  -28.0480   34.5760 O   0  0  0  0  0  0  0  0  0  0  0  0
   20.1000  -26.2770   38.2110 C   0  0  0  0  0  0  0  0  0  0  0  0
   19.9690  -24.9140   38.4850 C   0  0  0  0  0  0  0  0  0  0  0  0
   19.1340  -24.0960   37.7040 C   0  0  0  0  0  0  0  0  0  0  0  0
   19.0170  -22.6230   38.0170 C   0  0  0  0  0  0  0  0  0  0  0  0
   17.7290  -22.1930   38.1560 F   0  0  0  0  0  0  0  0  0  0  0  0
   19.6230  -22.2890   39.1990 F   0  0  0  0  0  0  0  0  0  0  0  0
   19.6010  -21.8140   37.0880 F   0  0  0  0  0  0  0  0  0  0  0  0
   18.4540  -21.7241   35.0007 H   0  0  0  0  0  0  0  0  0  0  0  0
   19.2539  -22.2758   33.4900 H   0  0  0  0  0  0  0  0  0  0  0  0
   17.4979  -21.8978   33.4900 H   0  0  0  0  0  0  0  0  0  0  0  0
   17.2172  -24.1342   33.7873 H   0  0  0  0  0  0  0  0  0  0  0  0
   18.9256  -24.3639   34.3148 H   0  0  0  0  0  0  0  0  0  0  0  0
   15.9378  -24.2804   37.1088 H   0  0  0  0  0  0  0  0  0  0  0  0
   15.5214  -23.4611   35.5655 H   0  0  0  0  0  0  0  0  0  0  0  0
   15.9773  -25.1986   35.5655 H   0  0  0  0  0  0  0  0  0  0  0  0
   17.9977  -26.4930   35.5460 H   0  0  0  0  0  0  0  0  0  0  0  0
   18.7858  -30.6802   39.9797 H   0  0  0  0  0  0  0  0  0  0  0  0
   18.9150  -33.1724   39.9162 H   0  0  0  0  0  0  0  0  0  0  0  0
   19.5586  -34.3372   37.8026 H   0  0  0  0  0  0  0  0  0  0  0  0
   20.6730  -32.7980   34.9110 H   0  0  0  0  0  0  0  0  0  0  0  0
   19.6190  -27.3520   34.3220 H   0  0  0  0  0  0  0  0  0  0  0  0
   20.7561  -26.8984   38.8382 H   0  0  0  0  0  0  0  0  0  0  0  0
   20.5274  -24.4739   39.3243 H   0  0  0  0  0  0  0  0  0  0  0  0
  1  2  1  0
  2  3  1  0
  3  4  1  0
  3  5  1  0
  5  6  2  0
  6  7  1  0
  7  8  1  0
  8  9  1  0
  9 10  1  0
 10 11  2  0
 11 12  1  0
 12 13  2  0
 13 14  1  0
 14 15  1  0
 14 16  2  0
 16 17  1  0
 17 18  2  0
 17 19  1  0
 19 20  1  0
  7 21  2  0
 21 22  1  0
 22 23  2  0
 23 24  1  0
 24 25  1  0
 24 26  1  0
 24 27  1  0
 23  5  1  0
 19  8  2  0
 16 10  1  0
  1 28  1  0
  1 29  1  0
  1 30  1  0
  2 31  1  0
  2 32  1  0
  4 33  1  0
  4 34  1  0
  4 35  1  0
  6 36  1  0
 11 37  1  0
 12 38  1  0
 13 39  1  0
 15 40  1  0
 20 41  1  0
 21 42  1  0
 22 43  1  0
M  END
>  <meeko>  (5) 
{"is_sidechain": [false], "free_energy": -6.621, "intermolecular_energy": -8.476, "internal_energy": -0.66}

$$$$
cand_032_out
     RDKit          3D

 43 45  0  0  0  0  0  0  0  0999 V2000
   16.5350  -23.5660   36.6890 C   0  0  0  0  0  0  0  0  0  0  0  0
   17.2690  -24.2590   37.8280 C   0  0  0  0  0  0  0  0  0  0  0  0
   18.6160  -24.6750   37.3920 N   0  0  0  0  0  0  0  0  0  0  0  0
   19.6460  -23.6310   37.4800 C   0  0  0  0  0  0  0  0  0  0  0  0
   19.0470  -25.8690   38.0160 C   0  0  0  0  0  0  0  0  0  0  0  0
   19.7280  -25.8490   39.2500 C   0  0  0  0  0  0  0  0  0  0  0  0
   20.1540  -27.0290   39.8790 C   0  0  0  0  0  0  0  0  0  0  0  0
   20.8850  -27.0040   41.1620 C   0  0  0  0  0  0  0  0  0  0  0  0
   21.9330  -27.9170   41.2050 O   0  0  0  0  0  0  0  0  0  0  0  0
   22.6960  -27.9990   42.3430 C   0  0  0  0  0  0  0  0  0  0  0  0
   23.7460  -28.9170   42.3360 C   0  0  0  0  0  0  0  0  0  0  0  0
   24.5600  -29.0530   43.4630 C   0  0  0  0  0  0  0  0  0  0  0  0
   24.3240  -28.2700   44.5950 C   0  0  0  0  0  0  0  0  0  0  0  0
   23.2760  -27.3540   44.5980 C   0  0  0  0  0  0  0  0  0  0  0  0
   23.1000  -26.6200   45.7390 O   0  0  0  0  0  0  0  0  0  0  0  0
   22.4620  -27.2190   43.4710 C   0  0  0  0  0  0  0  0  0  0  0  0
   21.3490  -26.2680   43.4320 C   0  0  0  0  0  0  0  0  0  0  0  0
   21.0740  -25.5490   44.3900 O   0  0  0  0  0  0  0  0  0  0  0  0
   20.5520  -26.1970   42.1860 C   0  0  0  0  0  0  0  0  0  0  0  0
   19.4950  -25.3050   42.1660 O   0  0  0  0  0  0  0  0  0  0  0  0
   19.9060  -28.2480   39.2400 C   0  0  0  0  0  0  0  0  0  0  0  0
   19.2360  -28.2860   38.0160 C   0  0  0  0  0  0  0  0  0  0  0  0
   18.7990  -27.1040   37.3920 C   0  0  0  0  0  0  0  0  0  0  0  0
   18.0690  -27.1740   36.0730 C   0  0  0  0  0  0  0  0  0  0  0  0
   18.4190  -26.1860   35.1990 F   0  0  0  0  0  0  0  0  0  0  0  0
   18.3210  -28.3390   35.3960 F   0  0  0  0  0  0  0  0  0  0  0  0
   16.7110  -27.1290   36.1900 F   0  0  0  0  0  0  0  0  0  0  0  0
   15.7938  -22.8662   37.1025 H   0  0  0  0  0  0  0  0  0  0  0  0
   17.2569  -23.0124   36.0707 H   0  0  0  0  0  0  0  0  0  0  0  0
   16.0238  -24.3185   36.0707 H   0  0  0  0  0  0  0  0  0  0  0  0
   17.3606  -23.5646   38.6762 H   0  0  0  0  0  0  0  0  0  0  0  0
   16.6998  -25.1505   38.1302 H   0  0  0  0  0  0  0  0  0  0  0  0
   19.8594  -23.4147   38.5372 H   0  0  0  0  0  0  0  0  0  0  0  0
   20.5642  -23.9791   36.9843 H   0  0  0  0  0  0  0  0  0  0  0  0
   19.2855  -22.7176   36.9843 H   0  0  0  0  0  0  0  0  0  0  0  0
   19.9311  -24.8819   39.7332 H   0  0  0  0  0  0  0  0  0  0  0  0
   23.9329  -29.5331   41.4441 H   0  0  0  0  0  0  0  0  0  0  0  0
   25.3877  -29.7775   43.4588 H   0  0  0  0  0  0  0  0  0  0  0  0
   24.9650  -28.3769   45.4825 H   0  0  0  0  0  0  0  0  0  0  0  0
   23.5100  -25.7810   45.8250 H   0  0  0  0  0  0  0  0  0  0  0  0
   18.8100  -25.4050   41.5370 H   0  0  0  0  0  0  0  0  0  0  0  0
   20.2421  -29.1858   39.7064 H   0  0  0  0  0  0  0  0  0  0  0  0
   19.0469  -29.2556   37.5321 H   0  0  0  0  0  0  0  0  0  0  0  0
  1  2  1  0
  2  3  1  0
  3  4  1  0
  3  5  1  0
  5  6  2  0
  6  7  1  0
  7  8  1  0
  8  9  1  0
  9 10  1  0
 10 11  2  0
 11 12  1  0
 12 13  2  0
 13 14  1  0
 14 15  1  0
 14 16  2  0
 16 17  1  0
 17 18  2  0
 17 19  1  0
 19 20  1  0
  7 21  2  0
 21 22  1  0
 22 23  2  0
 23 24  1  0
 24 25  1  0
 24 26  1  0
 24 27  1  0
 23  5  1  0
 19  8  2  0
 16 10  1  0
  1 28  1  0
  1 29  1  0
  1 30  1  0
  2 31  1  0
  2 32  1  0
  4 33  1  0
  4 34  1  0
  4 35  1  0
  6 36  1  0
 11 37  1  0
 12 38  1  0
 13 39  1  0
 15 40  1  0
 20 41  1  0
 21 42  1  0
 22 43  1  0
M  END
>  <meeko>  (6) 
{"is_sidechain": [false], "free_energy": -6.496, "intermolecular_energy": -8.661, "internal_energy": -0.314}

$$$$
cand_032_out
     RDKit          3D

 43 45  0  0  0  0  0  0  0  0999 V2000
   18.3990  -22.4230   34.2420 C   0  0  0  0  0  0  0  0  0  0  0  0
   18.1350  -23.8880   34.5630 C   0  0  0  0  0  0  0  0  0  0  0  0
   17.6840  -24.0330   35.9610 N   0  0  0  0  0  0  0  0  0  0  0  0
   16.2700  -24.3980   36.1210 C   0  0  0  0  0  0  0  0  0  0  0  0
   18.5190  -24.8870   36.7180 C   0  0  0  0  0  0  0  0  0  0  0  0
   18.6600  -26.2520   36.3970 C   0  0  0  0  0  0  0  0  0  0  0  0
   19.4910  -27.1040   37.1400 C   0  0  0  0  0  0  0  0  0  0  0  0
   19.6210  -28.5400   36.8140 C   0  0  0  0  0  0  0  0  0  0  0  0
   19.7440  -28.7750   35.4490 O   0  0  0  0  0  0  0  0  0  0  0  0
   19.8710  -30.0680   35.0070 C   0  0  0  0  0  0  0  0  0  0  0  0
   20.0060  -30.2570   33.6320 C   0  0  0  0  0  0  0  0  0  0  0  0
   20.1380  -31.5480   33.1150 C   0  0  0  0  0  0  0  0  0  0  0  0
   20.1350  -32.6490   33.9740 C   0  0  0  0  0  0  0  0  0  0  0  0
   20.0000  -32.4570   35.3470 C   0  0  0  0  0  0  0  0  0  0  0  0
   20.0050  -33.5780   36.1300 O   0  0  0  0  0  0  0  0  0  0  0  0
   19.8680  -31.1650   35.8630 C   0  0  0  0  0  0  0  0  0  0  0  0
   19.7250  -30.9190   37.2980 C   0  0  0  0  0  0  0  0  0  0  0  0
   19.7060  -31.8360   38.1180 O   0  0  0  0  0  0  0  0  0  0  0  0
   19.5990  -29.5130   37.7440 C   0  0  0  0  0  0  0  0  0  0  0  0
   19.4500  -29.2930   39.1010 O   0  0  0  0  0  0  0  0  0  0  0  0
   20.1750  -26.5740   38.2370 C   0  0  0  0  0  0  0  0  0  0  0  0
   20.0460  -25.2250   38.5720 C   0  0  0  0  0  0  0  0  0  0  0  0
   19.2220  -24.3680   37.8200 C   0  0  0  0  0  0  0  0  0  0  0  0
   19.1060  -22.9110   38.1980 C   0  0  0  0  0  0  0  0  0  0  0  0
   19.6550  -22.0610   37.2820 F   0  0  0  0  0  0  0  0  0  0  0  0
   17.8030  -22.5010   38.3120 F   0  0  0  0  0  0  0  0  0  0  0  0
   19.6700  -22.6060   39.4010 F   0  0  0  0  0  0  0  0  0  0  0  0
   18.5013  -21.8551   35.1785 H   0  0  0  0  0  0  0  0  0  0  0  0
   19.3271  -22.3371   33.6578 H   0  0  0  0  0  0  0  0  0  0  0  0
   17.5593  -22.0185   33.6578 H   0  0  0  0  0  0  0  0  0  0  0  0
   17.3557  -24.2725   33.8886 H   0  0  0  0  0  0  0  0  0  0  0  0
   19.0661  -24.4576   34.4265 H   0  0  0  0  0  0  0  0  0  0  0  0
   16.0265  -24.4609   37.1919 H   0  0  0  0  0  0  0  0  0  0  0  0
   15.6379  -23.6336   35.6455 H   0  0  0  0  0  0  0  0  0  0  0  0
   16.0869  -25.3729   35.6455 H   0  0  0  0  0  0  0  0  0  0  0  0
   18.1034  -26.6605   35.5407 H   0  0  0  0  0  0  0  0  0  0  0  0
   20.0085  -29.3901   32.9549 H   0  0  0  0  0  0  0  0  0  0  0  0
   20.2444  -31.6974   32.0304 H   0  0  0  0  0  0  0  0  0  0  0  0
   20.2390  -33.6657   33.5672 H   0  0  0  0  0  0  0  0  0  0  0  0
   19.5940  -34.3640   35.8270 H   0  0  0  0  0  0  0  0  0  0  0  0
   18.8410  -29.8050   39.5940 H   0  0  0  0  0  0  0  0  0  0  0  0
   20.8215  -27.2261   38.8426 H   0  0  0  0  0  0  0  0  0  0  0  0
   20.5968  -24.8263   39.4367 H   0  0  0  0  0  0  0  0  0  0  0  0
  1  2  1  0
  2  3  1  0
  3  4  1  0
  3  5  1  0
  5  6  2  0
  6  7  1  0
  7  8  1  0
  8  9  1  0
  9 10  1  0
 10 11  2  0
 11 12  1  0
 12 13  2  0
 13 14  1  0
 14 15  1  0
 14 16  2  0
 16 17  1  0
 17 18  2  0
 17 19  1  0
 19 20  1  0
  7 21  2  0
 21 22  1  0
 22 23  2  0
 23 24  1  0
 24 25  1  0
 24 26  1  0
 24 27  1  0
 23  5  1  0
 19  8  2  0
 16 10  1  0
  1 28  1  0
  1 29  1  0
  1 30  1  0
  2 31  1  0
  2 32  1  0
  4 33  1  0
  4 34  1  0
  4 35  1  0
  6 36  1  0
 11 37  1  0
 12 38  1  0
 13 39  1  0
 15 40  1  0
 20 41  1  0
 21 42  1  0
 22 43  1  0
M  END
>  <meeko>  (7) 
{"is_sidechain": [false], "free_energy": -6.479, "intermolecular_energy": -8.528, "internal_energy": -0.424}

$$$$
cand_032_out
     RDKit          3D

 43 45  0  0  0  0  0  0  0  0999 V2000
   21.1810  -20.2180   44.0640 C   0  0  0  0  0  0  0  0  0  0  0  0
   20.8410  -21.2070   42.9580 C   0  0  0  0  0  0  0  0  0  0  0  0
   19.6710  -22.0210   43.3400 N   0  0  0  0  0  0  0  0  0  0  0  0
   18.3680  -21.3850   43.1030 C   0  0  0  0  0  0  0  0  0  0  0  0
   19.7090  -23.3230   42.7900 C   0  0  0  0  0  0  0  0  0  0  0  0
   19.4810  -23.5490   41.4180 C   0  0  0  0  0  0  0  0  0  0  0  0
   19.5230  -24.8370   40.8620 C   0  0  0  0  0  0  0  0  0  0  0  0
   19.2640  -25.0720   39.4270 C   0  0  0  0  0  0  0  0  0  0  0  0
   18.1140  -24.4370   38.9730 O   0  0  0  0  0  0  0  0  0  0  0  0
   17.7550  -24.5740   37.6560 C   0  0  0  0  0  0  0  0  0  0  0  0
   16.6030  -23.9070   37.2410 C   0  0  0  0  0  0  0  0  0  0  0  0
   16.1800  -24.0070   35.9130 C   0  0  0  0  0  0  0  0  0  0  0  0
   16.9110  -24.7720   35.0010 C   0  0  0  0  0  0  0  0  0  0  0  0
   18.0620  -25.4350   35.4190 C   0  0  0  0  0  0  0  0  0  0  0  0
   18.7300  -26.1670   34.4750 O   0  0  0  0  0  0  0  0  0  0  0  0
   18.4840  -25.3360   36.7470 C   0  0  0  0  0  0  0  0  0  0  0  0
   19.6870  -26.0170   37.2280 C   0  0  0  0  0  0  0  0  0  0  0  0
   20.3800  -26.7140   36.4880 O   0  0  0  0  0  0  0  0  0  0  0  0
   20.0520  -25.8410   38.6520 C   0  0  0  0  0  0  0  0  0  0  0  0
   21.1830  -26.5000   39.0970 O   0  0  0  0  0  0  0  0  0  0  0  0
   19.7780  -25.9180   41.7120 C   0  0  0  0  0  0  0  0  0  0  0  0
   20.0020  -25.7140   43.0750 C   0  0  0  0  0  0  0  0  0  0  0  0
   19.9720  -24.4210   43.6280 C   0  0  0  0  0  0  0  0  0  0  0  0
   20.2260  -24.2270   45.1040 C   0  0  0  0  0  0  0  0  0  0  0  0
   19.1110  -23.8870   45.8120 F   0  0  0  0  0  0  0  0  0  0  0  0
   20.6860  -25.3670   45.7100 F   0  0  0  0  0  0  0  0  0  0  0  0
   21.1690  -23.2830   45.3820 F   0  0  0  0  0  0  0  0  0  0  0  0
   21.0179  -20.6924   45.0430 H   0  0  0  0  0  0  0  0  0  0  0  0
   22.2347  -19.9154   43.9741 H   0  0  0  0  0  0  0  0  0  0  0  0
   20.5360  -19.3315   43.9741 H   0  0  0  0  0  0  0  0  0  0  0  0
   20.6126  -20.6543   42.0347 H   0  0  0  0  0  0  0  0  0  0  0  0
   21.7019  -21.8723   42.7961 H   0  0  0  0  0  0  0  0  0  0  0  0
   17.8925  -21.1529   44.0674 H   0  0  0  0  0  0  0  0  0  0  0  0
   18.5119  -20.4558   42.5321 H   0  0  0  0  0  0  0  0  0  0  0  0
   17.7240  -22.0701   42.5321 H   0  0  0  0  0  0  0  0  0  0  0  0
   19.2639  -22.6915   40.7641 H   0  0  0  0  0  0  0  0  0  0  0  0
   16.0279  -23.3028   37.9581 H   0  0  0  0  0  0  0  0  0  0  0  0
   15.2702  -23.4827   35.5853 H   0  0  0  0  0  0  0  0  0  0  0  0
   16.5783  -24.8505   33.9555 H   0  0  0  0  0  0  0  0  0  0  0  0
   19.6640  -26.2280   34.5040 H   0  0  0  0  0  0  0  0  0  0  0  0
   21.2180  -26.8320   39.9720 H   0  0  0  0  0  0  0  0  0  0  0  0
   19.8023  -26.9388   41.3028 H   0  0  0  0  0  0  0  0  0  0  0  0
   20.2049  -26.5772   43.7259 H   0  0  0  0  0  0  0  0  0  0  0  0
  1  2  1  0
  2  3  1  0
  3  4  1  0
  3  5  1  0
  5  6  2  0
  6  7  1  0
  7  8  1  0
  8  9  1  0
  9 10  1  0
 10 11  2  0
 11 12  1  0
 12 13  2  0
 13 14  1  0
 14 15  1  0
 14 16  2  0
 16 17  1  0
 17 18  2  0
 17 19  1  0
 19 20  1  0
  7 21  2  0
 21 22  1  0
 22 23  2  0
 23 24  1  0
 24 25  1  0
 24 26  1  0
 24 27  1  0
 23  5  1  0
 19  8  2  0
 16 10  1  0
  1 28  1  0
  1 29  1  0
  1 30  1  0
  2 31  1  0
  2 32  1  0
  4 33  1  0
  4 34  1  0
  4 35  1  0
  6 36  1  0
 11 37  1  0
 12 38  1  0
 13 39  1  0
 15 40  1  0
 20 41  1  0
 21 42  1  0
 22 43  1  0
M  END
>  <meeko>  (8) 
{"is_sidechain": [false], "free_energy": -6.45, "intermolecular_energy": -8.46, "internal_energy": -0.455}

$$$$
cand_032_out
     RDKit          3D

 43 45  0  0  0  0  0  0  0  0999 V2000
   21.0930  -18.7000   43.5890 C   0  0  0  0  0  0  0  0  0  0  0  0
   21.0830  -20.2190   43.4830 C   0  0  0  0  0  0  0  0  0  0  0  0
   19.8240  -20.7620   44.0270 N   0  0  0  0  0  0  0  0  0  0  0  0
   18.6050  -20.0820   43.5670 C   0  0  0  0  0  0  0  0  0  0  0  0
   19.7180  -22.1630   43.8610 C   0  0  0  0  0  0  0  0  0  0  0  0
   19.7780  -22.7600   42.5860 C   0  0  0  0  0  0  0  0  0  0  0  0
   19.6790  -24.1480   42.4140 C   0  0  0  0  0  0  0  0  0  0  0  0
   19.7220  -24.7700   41.0740 C   0  0  0  0  0  0  0  0  0  0  0  0
   18.8400  -24.1800   40.1760 O   0  0  0  0  0  0  0  0  0  0  0  0
   18.7780  -24.6630   38.8930 C   0  0  0  0  0  0  0  0  0  0  0  0
   17.8900  -24.0320   38.0220 C   0  0  0  0  0  0  0  0  0  0  0  0
   17.7750  -24.4750   36.7020 C   0  0  0  0  0  0  0  0  0  0  0  0
   18.5490  -25.5480   36.2540 C   0  0  0  0  0  0  0  0  0  0  0  0
   19.4360  -26.1750   37.1260 C   0  0  0  0  0  0  0  0  0  0  0  0
   20.1620  -27.2190   36.6230 O   0  0  0  0  0  0  0  0  0  0  0  0
   19.5490  -25.7310   38.4460 C   0  0  0  0  0  0  0  0  0  0  0  0
   20.4680  -26.3620   39.3950 C   0  0  0  0  0  0  0  0  0  0  0  0
   21.1780  -27.3150   39.0790 O   0  0  0  0  0  0  0  0  0  0  0  0
   20.5190  -25.8120   40.7690 C   0  0  0  0  0  0  0  0  0  0  0  0
   21.3800  -26.4240   41.6610 O   0  0  0  0  0  0  0  0  0  0  0  0
   19.4960  -24.9460   43.5470 C   0  0  0  0  0  0  0  0  0  0  0  0
   19.4310  -24.3720   44.8180 C   0  0  0  0  0  0  0  0  0  0  0  0
   19.5410  -22.9810   44.9910 C   0  0  0  0  0  0  0  0  0  0  0  0
   19.4760  -22.3860   46.3770 C   0  0  0  0  0  0  0  0  0  0  0  0
   18.4300  -21.5280   46.5570 F   0  0  0  0  0  0  0  0  0  0  0  0
   19.3120  -23.3390   47.3490 F   0  0  0  0  0  0  0  0  0  0  0  0
   20.6030  -21.7110   46.7420 F   0  0  0  0  0  0  0  0  0  0  0  0
   21.0949  -18.4064   44.6491 H   0  0  0  0  0  0  0  0  0  0  0  0
   21.9938  -18.3040   43.0972 H   0  0  0  0  0  0  0  0  0  0  0  0
   20.1975  -18.2922   43.0972 H   0  0  0  0  0  0  0  0  0  0  0  0
   21.1769  -20.5096   42.4262 H   0  0  0  0  0  0  0  0  0  0  0  0
   21.9266  -20.6236   44.0615 H   0  0  0  0  0  0  0  0  0  0  0  0
   18.0174  -19.7542   44.4372 H   0  0  0  0  0  0  0  0  0  0  0  0
   18.8802  -19.2071   42.9597 H   0  0  0  0  0  0  0  0  0  0  0  0
   18.0051  -20.7758   42.9597 H   0  0  0  0  0  0  0  0  0  0  0  0
   19.9061  -22.1193   41.7011 H   0  0  0  0  0  0  0  0  0  0  0  0
   17.2808  -23.1864   38.3740 H   0  0  0  0  0  0  0  0  0  0  0  0
   17.0742  -23.9783   36.0148 H   0  0  0  0  0  0  0  0  0  0  0  0
   18.4583  -25.8971   35.2148 H   0  0  0  0  0  0  0  0  0  0  0  0
   19.7390  -28.0290   36.4180 H   0  0  0  0  0  0  0  0  0  0  0  0
   21.0710  -27.1150   42.2110 H   0  0  0  0  0  0  0  0  0  0  0  0
   19.4023  -26.0364   43.4361 H   0  0  0  0  0  0  0  0  0  0  0  0
   19.2916  -25.0178   45.6975 H   0  0  0  0  0  0  0  0  0  0  0  0
  1  2  1  0
  2  3  1  0
  3  4  1  0
  3  5  1  0
  5  6  2  0
  6  7  1  0
  7  8  1  0
  8  9  1  0
  9 10  1  0
 10 11  2  0
 11 12  1  0
 12 13  2  0
 13 14  1  0
 14 15  1  0
 14 16  2  0
 16 17  1  0
 17 18  2  0
 17 19  1  0
 19 20  1  0
  7 21  2  0
 21 22  1  0
 22 23  2  0
 23 24  1  0
 24 25  1  0
 24 26  1  0
 24 27  1  0
 23  5  1  0
 19  8  2  0
 16 10  1  0
  1 28  1  0
  1 29  1  0
  1 30  1  0
  2 31  1  0
  2 32  1  0
  4 33  1  0
  4 34  1  0
  4 35  1  0
  6 36  1  0
 11 37  1  0
 12 38  1  0
 13 39  1  0
 15 40  1  0
 20 41  1  0
 21 42  1  0
 22 43  1  0
M  END
>  <meeko>  (9) 
{"is_sidechain": [false], "free_energy": -6.439, "intermolecular_energy": -8.421, "internal_energy": -0.48}

$$$$
