cand_042_out
     RDKit          3D

 38 40  0  0  0  0  0  0  0  0999 V2000
   19.6570  -24.0010   40.1070 C   0  0  0  0  0  0  0  0  0  0  0  0
   19.0900  -25.0970   40.9960 C   0  0  0  0  0  0  0  0  0  0  0  0
   19.1830  -26.4590   40.3450 C   0  0  0  0  0  0  0  0  0  0  0  0
   18.2850  -26.7670   39.3100 C   0  0  0  0  0  0  0  0  0  0  0  0
   18.3150  -28.0120   38.6770 C   0  0  0  0  0  0  0  0  0  0  0  0
   19.2460  -28.9820   39.0550 C   0  0  0  0  0  0  0  0  0  0  0  0
   19.2840  -30.3160   38.4190 C   0  0  0  0  0  0  0  0  0  0  0  0
   18.8800  -31.3350   39.2740 O   0  0  0  0  0  0  0  0  0  0  0  0
   18.8680  -32.6250   38.8110 C   0  0  0  0  0  0  0  0  0  0  0  0
   18.4420  -33.6130   39.6990 C   0  0  0  0  0  0  0  0  0  0  0  0
   18.4070  -34.9490   39.2900 C   0  0  0  0  0  0  0  0  0  0  0  0
   18.7980  -35.2960   37.9950 C   0  0  0  0  0  0  0  0  0  0  0  0
   19.2230  -34.3070   37.1120 C   0  0  0  0  0  0  0  0  0  0  0  0
   19.5930  -34.7160   35.8600 O   0  0  0  0  0  0  0  0  0  0  0  0
   19.2570  -32.9700   37.5200 C   0  0  0  0  0  0  0  0  0  0  0  0
   19.6970  -31.9010   36.6230 C   0  0  0  0  0  0  0  0  0  0  0  0
   20.0630  -32.1280   35.4710 O   0  0  0  0  0  0  0  0  0  0  0  0
   19.6880  -30.5180   37.1510 C   0  0  0  0  0  0  0  0  0  0  0  0
   20.1180  -29.5180   36.2980 O   0  0  0  0  0  0  0  0  0  0  0  0
   20.1340  -28.6810   40.1010 C   0  0  0  0  0  0  0  0  0  0  0  0
   20.1120  -27.4350   40.7550 C   0  0  0  0  0  0  0  0  0  0  0  0
   21.1060  -27.1760   41.8540 C   0  0  0  0  0  0  0  0  0  0  0  0
   20.0722  -23.1983   40.7341 H   0  0  0  0  0  0  0  0  0  0  0  0
   20.4521  -24.4187   39.4719 H   0  0  0  0  0  0  0  0  0  0  0  0
   18.8567  -23.5933   39.4719 H   0  0  0  0  0  0  0  0  0  0  0  0
   19.6537  -25.1155   41.9404 H   0  0  0  0  0  0  0  0  0  0  0  0
   18.0268  -24.8761   41.1717 H   0  0  0  0  0  0  0  0  0  0  0  0
   17.5464  -26.0161   38.9928 H   0  0  0  0  0  0  0  0  0  0  0  0
   17.5977  -28.2307   37.8722 H   0  0  0  0  0  0  0  0  0  0  0  0
   18.1341  -33.3410   40.7194 H   0  0  0  0  0  0  0  0  0  0  0  0
   18.0709  -35.7286   39.9894 H   0  0  0  0  0  0  0  0  0  0  0  0
   18.7703  -36.3476   37.6736 H   0  0  0  0  0  0  0  0  0  0  0  0
   19.2560  -35.5170   35.5100 H   0  0  0  0  0  0  0  0  0  0  0  0
   20.9970  -29.5210   35.9780 H   0  0  0  0  0  0  0  0  0  0  0  0
   20.8657  -29.4390   40.4172 H   0  0  0  0  0  0  0  0  0  0  0  0
   20.6151  -27.3039   42.8300 H   0  0  0  0  0  0  0  0  0  0  0  0
   21.9413  -27.8865   41.7678 H   0  0  0  0  0  0  0  0  0  0  0  0
   21.4884  -26.1482   41.7678 H   0  0  0  0  0  0  0  0  0  0  0  0
  1  2  1  0
  2  3  1  0
  3  4  2  0
  4  5  1  0
  5  6  2  0
  6  7  1  0
  7  8  1  0
  8  9  1  0
  9 10  2  0
 10 11  1  0
 11 12  2  0
 12 13  1  0
 13 14  1  0
 13 15  2  0
 15 16  1  0
 16 17  2  0
 16 18  1  0
 18 19  1  0
  6 20  1  0
 20 21  2  0
 21 22  1  0
 21  3  1  0
 18  7  2  0
 15  9  1  0
  1 23  1  0
  1 24  1  0
  1 25  1  0
  2 26  1  0
  2 27  1  0
  4 28  1  0
  5 29  1  0
 10 30  1  0
 11 31  1  0
 12 32  1  0
 14 33  1  0
 19 34  1  0
 20 35  1  0
 22 36  1  0
 22 37  1  0
 22 38  1  0
M  END
>  <meeko>  (1) 
{"is_sidechain": [false], "free_energy": -7.835, "intermolecular_energy": -9.209, "internal_energy": -0.418}

$$$$
cand_042_out
     RDKit          3D

 38 40  0  0  0  0  0  0  0  0999 V2000
   19.7220  -33.5610   34.7070 C   0  0  0  0  0  0  0  0  0  0  0  0
   19.6710  -33.8240   36.2040 C   0  0  0  0  0  0  0  0  0  0  0  0
   19.5170  -32.5470   36.9990 C   0  0  0  0  0  0  0  0  0  0  0  0
   19.9410  -31.3420   36.4150 C   0  0  0  0  0  0  0  0  0  0  0  0
   19.8350  -30.1310   37.1030 C   0  0  0  0  0  0  0  0  0  0  0  0
   19.2960  -30.0880   38.3910 C   0  0  0  0  0  0  0  0  0  0  0  0
   19.1930  -28.8240   39.1520 C   0  0  0  0  0  0  0  0  0  0  0  0
   20.0720  -28.7680   40.2270 O   0  0  0  0  0  0  0  0  0  0  0  0
   20.0800  -27.6490   41.0180 C   0  0  0  0  0  0  0  0  0  0  0  0
   20.9880  -27.6290   42.0780 C   0  0  0  0  0  0  0  0  0  0  0  0
   21.0480  -26.5180   42.9240 C   0  0  0  0  0  0  0  0  0  0  0  0
   20.2000  -25.4290   42.7110 C   0  0  0  0  0  0  0  0  0  0  0  0
   19.2960  -25.4520   41.6520 C   0  0  0  0  0  0  0  0  0  0  0  0
   18.4940  -24.3530   41.5020 O   0  0  0  0  0  0  0  0  0  0  0  0
   19.2360  -26.5630   40.8050 C   0  0  0  0  0  0  0  0  0  0  0  0
   18.3010  -26.6270   39.6830 C   0  0  0  0  0  0  0  0  0  0  0  0
   17.5180  -25.7110   39.4350 O   0  0  0  0  0  0  0  0  0  0  0  0
   18.3230  -27.8450   38.8420 C   0  0  0  0  0  0  0  0  0  0  0  0
   17.4260  -27.9000   37.7910 O   0  0  0  0  0  0  0  0  0  0  0  0
   18.8860  -31.2950   38.9820 C   0  0  0  0  0  0  0  0  0  0  0  0
   18.9940  -32.5240   38.3060 C   0  0  0  0  0  0  0  0  0  0  0  0
   18.5170  -33.7740   38.9940 C   0  0  0  0  0  0  0  0  0  0  0  0
   19.9286  -32.4954   34.5288 H   0  0  0  0  0  0  0  0  0  0  0  0
   20.5188  -34.1697   34.2547 H   0  0  0  0  0  0  0  0  0  0  0  0
   18.7554  -33.8277   34.2547 H   0  0  0  0  0  0  0  0  0  0  0  0
   18.8163  -34.4820   36.4200 H   0  0  0  0  0  0  0  0  0  0  0  0
   20.6204  -34.2950   36.4986 H   0  0  0  0  0  0  0  0  0  0  0  0
   20.3634  -31.3521   35.3994 H   0  0  0  0  0  0  0  0  0  0  0  0
   20.1795  -29.2017   36.6257 H   0  0  0  0  0  0  0  0  0  0  0  0
   21.6556  -28.4867   42.2473 H   0  0  0  0  0  0  0  0  0  0  0  0
   21.7642  -26.5014   43.7588 H   0  0  0  0  0  0  0  0  0  0  0  0
   20.2460  -24.5555   43.3779 H   0  0  0  0  0  0  0  0  0  0  0  0
   18.7940  -23.5130   41.7870 H   0  0  0  0  0  0  0  0  0  0  0  0
   17.0270  -27.1140   37.4730 H   0  0  0  0  0  0  0  0  0  0  0  0
   18.4696  -31.2785   40.0000 H   0  0  0  0  0  0  0  0  0  0  0  0
   18.5698  -33.6355   40.0840 H   0  0  0  0  0  0  0  0  0  0  0  0
   17.4771  -33.9800   38.7005 H   0  0  0  0  0  0  0  0  0  0  0  0
   19.1553  -34.6204   38.7005 H   0  0  0  0  0  0  0  0  0  0  0  0
  1  2  1  0
  2  3  1  0
  3  4  2  0
  4  5  1  0
  5  6  2  0
  6  7  1  0
  7  8  1  0
  8  9  1  0
  9 10  2  0
 10 11  1  0
 11 12  2  0
 12 13  1  0
 13 14  1  0
 13 15  2  0
 15 16  1  0
 16 17  2  0
 16 18  1  0
 18 19  1  0
  6 20  1  0
 20 21  2  0
 21 22  1  0
 21  3  1  0
 18  7  2  0
 15  9  1  0
  1 23  1  0
  1 24  1  0
  1 25  1  0
  2 26  1  0
  2 27  1  0
  4 28  1  0
  5 29  1  0
 10 30  1  0
 11 31  1  0
 12 32  1  0
 14 33  1  0
 19 34  1  0
 20 35  1  0
 22 36  1  0
 22 37  1  0
 22 38  1  0
M  END
>  <meeko>  (2) 
{"is_sidechain": [false], "free_energy": -7.573, "intermolecular_energy": -8.915, "internal_energy": -0.404}

$$$$
cand_042_out
     RDKit          3D

 38 40  0  0  0  0  0  0  0  0999 V2000
   19.5250  -24.7690   42.1010 C   0  0  0  0  0  0  0  0  0  0  0  0
   19.3940  -24.7260   40.5860 C   0  0  0  0  0  0  0  0  0  0  0  0
   19.3630  -26.1110   39.9800 C   0  0  0  0  0  0  0  0  0  0  0  0
   19.9870  -27.1590   40.6760 C   0  0  0  0  0  0  0  0  0  0  0  0
   20.0010  -28.4580   40.1630 C   0  0  0  0  0  0  0  0  0  0  0  0
   19.3860  -28.7490   38.9420 C   0  0  0  0  0  0  0  0  0  0  0  0
   19.4060  -30.1090   38.3640 C   0  0  0  0  0  0  0  0  0  0  0  0
   18.9750  -31.0830   39.2570 O   0  0  0  0  0  0  0  0  0  0  0  0
   18.9440  -32.3910   38.8490 C   0  0  0  0  0  0  0  0  0  0  0  0
   18.4910  -33.3330   39.7730 C   0  0  0  0  0  0  0  0  0  0  0  0
   18.4350  -34.6840   39.4220 C   0  0  0  0  0  0  0  0  0  0  0  0
   18.8330  -35.0920   38.1470 C   0  0  0  0  0  0  0  0  0  0  0  0
   19.2840  -34.1500   37.2260 C   0  0  0  0  0  0  0  0  0  0  0  0
   19.6580  -34.6180   35.9970 O   0  0  0  0  0  0  0  0  0  0  0  0
   19.3390  -32.7980   37.5780 C   0  0  0  0  0  0  0  0  0  0  0  0
   19.8060  -31.7760   36.6410 C   0  0  0  0  0  0  0  0  0  0  0  0
   20.1800  -32.0580   35.5040 O   0  0  0  0  0  0  0  0  0  0  0  0
   19.8180  -30.3720   37.1100 C   0  0  0  0  0  0  0  0  0  0  0  0
   20.2740  -29.4170   36.2200 O   0  0  0  0  0  0  0  0  0  0  0  0
   18.7750  -27.6980   38.2380 C   0  0  0  0  0  0  0  0  0  0  0  0
   18.7590  -26.3830   38.7370 C   0  0  0  0  0  0  0  0  0  0  0  0
   18.0700  -25.3120   37.9360 C   0  0  0  0  0  0  0  0  0  0  0  0
   18.5753  -24.4573   42.5602 H   0  0  0  0  0  0  0  0  0  0  0  0
   19.7671  -25.7938   42.4192 H   0  0  0  0  0  0  0  0  0  0  0  0
   20.3273  -24.0871   42.4192 H   0  0  0  0  0  0  0  0  0  0  0  0
   18.4620  -24.2033   40.3249 H   0  0  0  0  0  0  0  0  0  0  0  0
   20.2720  -24.1991   40.1841 H   0  0  0  0  0  0  0  0  0  0  0  0
   20.4728  -26.9534   41.6412 H   0  0  0  0  0  0  0  0  0  0  0  0
   20.5011  -29.2602   40.7256 H   0  0  0  0  0  0  0  0  0  0  0  0
   18.1780  -33.0121   40.7775 H   0  0  0  0  0  0  0  0  0  0  0  0
   18.0773  -35.4268   40.1502 H   0  0  0  0  0  0  0  0  0  0  0  0
   18.7903  -36.1559   37.8707 H   0  0  0  0  0  0  0  0  0  0  0  0
   20.3500  -34.1970   35.5260 H   0  0  0  0  0  0  0  0  0  0  0  0
   20.6580  -29.6780   35.4070 H   0  0  0  0  0  0  0  0  0  0  0  0
   18.2962  -27.9091   37.2704 H   0  0  0  0  0  0  0  0  0  0  0  0
   17.6033  -24.5866   38.6187 H   0  0  0  0  0  0  0  0  0  0  0  0
   18.8068  -24.7972   37.3018 H   0  0  0  0  0  0  0  0  0  0  0  0
   17.2961  -25.7691   37.3018 H   0  0  0  0  0  0  0  0  0  0  0  0
  1  2  1  0
  2  3  1  0
  3  4  2  0
  4  5  1  0
  5  6  2  0
  6  7  1  0
  7  8  1  0
  8  9  1  0
  9 10  2  0
 10 11  1  0
 11 12  2  0
 12 13  1  0
 13 14  1  0
 13 15  2  0
 15 16  1  0
 16 17  2  0
 16 18  1  0
 18 19  1  0
  6 20  1  0
 20 21  2  0
 21 22  1  0
 21  3  1  0
 18  7  2  0
 15  9  1  0
  1 23  1  0
  1 24  1  0
  1 25  1  0
  2 26  1  0
  2 27  1  0
  4 28  1  0
  5 29  1  0
 10 30  1  0
 11 31  1  0
 12 32  1  0
 14 33  1  0
 19 34  1  0
 20 35  1  0
 22 36  1  0
 22 37  1  0
 22 38  1  0
M  END
>  <meeko>  (3) 
{"is_sidechain": [false], "free_energy": -7.28, "intermolecular_energy": -8.795, "internal_energy": -0.18}

$$$$
cand_042_out
     RDKit          3D

 38 40  0  0  0  0  0  0  0  0999 V2000
   18.7230  -27.5750   35.2790 C   0  0  0  0  0  0  0  0  0  0  0  0
   17.9420  -27.1730   36.5200 C   0  0  0  0  0  0  0  0  0  0  0  0
   18.8100  -27.1650   37.7590 C   0  0  0  0  0  0  0  0  0  0  0  0
   18.9260  -28.3520   38.5010 C   0  0  0  0  0  0  0  0  0  0  0  0
   19.7040  -28.4050   39.6590 C   0  0  0  0  0  0  0  0  0  0  0  0
   20.3950  -27.2750   40.1060 C   0  0  0  0  0  0  0  0  0  0  0  0
   21.2070  -27.2960   41.3410 C   0  0  0  0  0  0  0  0  0  0  0  0
   22.1890  -28.2800   41.3270 O   0  0  0  0  0  0  0  0  0  0  0  0
   23.0140  -28.4090   42.4130 C   0  0  0  0  0  0  0  0  0  0  0  0
   23.9950  -29.4000   42.3490 C   0  0  0  0  0  0  0  0  0  0  0  0
   24.8690  -29.5860   43.4230 C   0  0  0  0  0  0  0  0  0  0  0  0
   24.7630  -28.7820   44.5600 C   0  0  0  0  0  0  0  0  0  0  0  0
   23.7830  -27.7930   44.6200 C   0  0  0  0  0  0  0  0  0  0  0  0
   23.7340  -27.0430   45.7630 O   0  0  0  0  0  0  0  0  0  0  0  0
   22.9090  -27.6070   43.5450 C   0  0  0  0  0  0  0  0  0  0  0  0
   21.8670  -26.5810   43.5680 C   0  0  0  0  0  0  0  0  0  0  0  0
   21.7060  -25.8380   44.5360 O   0  0  0  0  0  0  0  0  0  0  0  0
   20.9980  -26.4600   42.3750 C   0  0  0  0  0  0  0  0  0  0  0  0
   20.0090  -25.4940   42.4140 O   0  0  0  0  0  0  0  0  0  0  0  0
   20.2680  -26.0840   39.3730 C   0  0  0  0  0  0  0  0  0  0  0  0
   19.4810  -26.0110   38.2080 C   0  0  0  0  0  0  0  0  0  0  0  0
   19.4060  -24.7060   37.4650 C   0  0  0  0  0  0  0  0  0  0  0  0
   19.6640  -28.0594   35.5789 H   0  0  0  0  0  0  0  0  0  0  0  0
   18.1240  -28.2768   34.6801 H   0  0  0  0  0  0  0  0  0  0  0  0
   18.9461  -26.6797   34.6801 H   0  0  0  0  0  0  0  0  0  0  0  0
   17.5298  -26.1644   36.3688 H   0  0  0  0  0  0  0  0  0  0  0  0
   17.1413  -27.9119   36.6713 H   0  0  0  0  0  0  0  0  0  0  0  0
   18.3951  -29.2546   38.1641 H   0  0  0  0  0  0  0  0  0  0  0  0
   19.7740  -29.3454   40.2254 H   0  0  0  0  0  0  0  0  0  0  0  0
   24.0798  -30.0338   41.4539 H   0  0  0  0  0  0  0  0  0  0  0  0
   25.6419  -30.3671   43.3730 H   0  0  0  0  0  0  0  0  0  0  0  0
   25.4510  -28.9289   45.4056 H   0  0  0  0  0  0  0  0  0  0  0  0
   24.3960  -27.1430   46.4180 H   0  0  0  0  0  0  0  0  0  0  0  0
   20.2360  -24.5880   42.3600 H   0  0  0  0  0  0  0  0  0  0  0  0
   20.7977  -25.1839   39.7184 H   0  0  0  0  0  0  0  0  0  0  0  0
   19.3583  -23.8761   38.1854 H   0  0  0  0  0  0  0  0  0  0  0  0
   20.2991  -24.5920   36.8330 H   0  0  0  0  0  0  0  0  0  0  0  0
   18.5057  -24.6951   36.8330 H   0  0  0  0  0  0  0  0  0  0  0  0
  1  2  1  0
  2  3  1  0
  3  4  2  0
  4  5  1  0
  5  6  2  0
  6  7  1  0
  7  8  1  0
  8  9  1  0
  9 10  2  0
 10 11  1  0
 11 12  2  0
 12 13  1  0
 13 14  1  0
 13 15  2  0
 15 16  1  0
 16 17  2  0
 16 18  1  0
 18 19  1  0
  6 20  1  0
 20 21  2  0
 21 22  1  0
 21  3  1  0
 18  7  2  0
 15  9  1  0
  1 23  1  0
  1 24  1  0
  1 25  1  0
  2 26  1  0
  2 27  1  0
  4 28  1  0
  5 29  1  0
 10 30  1  0
 11 31  1  0
 12 32  1  0
 14 33  1  0
 19 34  1  0
 20 35  1  0
 22 36  1  0
 22 37  1  0
 22 38  1  0
M  END
>  <meeko>  (4) 
{"is_sidechain": [false], "free_energy": -7.035, "intermolecular_energy": -8.445, "internal_energy": -0.241}

$$$$
cand_042_out
     RDKit          3D

 38 40  0  0  0  0  0  0  0  0999 V2000
   19.5470  -23.7390   40.9600 C   0  0  0  0  0  0  0  0  0  0  0  0
   19.0560  -25.0320   41.5950 C   0  0  0  0  0  0  0  0  0  0  0  0
   19.2450  -26.2200   40.6780 C   0  0  0  0  0  0  0  0  0  0  0  0
   18.4270  -26.3230   39.5410 C   0  0  0  0  0  0  0  0  0  0  0  0
   18.5470  -27.4020   38.6630 C   0  0  0  0  0  0  0  0  0  0  0  0
   19.4920  -28.4060   38.8910 C   0  0  0  0  0  0  0  0  0  0  0  0
   19.6240  -29.5710   37.9910 C   0  0  0  0  0  0  0  0  0  0  0  0
   19.8930  -29.2110   36.6760 O   0  0  0  0  0  0  0  0  0  0  0  0
   20.0400  -30.1960   35.7340 C   0  0  0  0  0  0  0  0  0  0  0  0
   20.3230  -29.7900   34.4300 C   0  0  0  0  0  0  0  0  0  0  0  0
   20.4840  -30.7440   33.4220 C   0  0  0  0  0  0  0  0  0  0  0  0
   20.3600  -32.1030   33.7180 C   0  0  0  0  0  0  0  0  0  0  0  0
   20.0780  -32.5050   35.0210 C   0  0  0  0  0  0  0  0  0  0  0  0
   19.9700  -33.8520   35.2410 O   0  0  0  0  0  0  0  0  0  0  0  0
   19.9180  -31.5510   36.0300 C   0  0  0  0  0  0  0  0  0  0  0  0
   19.6210  -31.9310   37.4100 C   0  0  0  0  0  0  0  0  0  0  0  0
   19.4900  -33.1070   37.7480 O   0  0  0  0  0  0  0  0  0  0  0  0
   19.4780  -30.8440   38.4050 C   0  0  0  0  0  0  0  0  0  0  0  0
   19.1840  -31.2150   39.7040 O   0  0  0  0  0  0  0  0  0  0  0  0
   20.2990  -28.3110   40.0360 C   0  0  0  0  0  0  0  0  0  0  0  0
   20.1860  -27.2350   40.9360 C   0  0  0  0  0  0  0  0  0  0  0  0
   21.0980  -27.1910   42.1310 C   0  0  0  0  0  0  0  0  0  0  0  0
   19.8189  -23.0229   41.7495 H   0  0  0  0  0  0  0  0  0  0  0  0
   20.4281  -23.9486   40.3358 H   0  0  0  0  0  0  0  0  0  0  0  0
   18.7488  -23.3109   40.3358 H   0  0  0  0  0  0  0  0  0  0  0  0
   19.6181  -25.2074   42.5241 H   0  0  0  0  0  0  0  0  0  0  0  0
   17.9798  -24.9251   41.7958 H   0  0  0  0  0  0  0  0  0  0  0  0
   17.6800  -25.5412   39.3390 H   0  0  0  0  0  0  0  0  0  0  0  0
   17.8906  -27.4624   37.7823 H   0  0  0  0  0  0  0  0  0  0  0  0
   20.4194  -28.7196   34.1954 H   0  0  0  0  0  0  0  0  0  0  0  0
   20.7087  -30.4241   32.3938 H   0  0  0  0  0  0  0  0  0  0  0  0
   20.4848  -32.8540   32.9240 H   0  0  0  0  0  0  0  0  0  0  0  0
   20.6020  -34.2910   35.7740 H   0  0  0  0  0  0  0  0  0  0  0  0
   18.3070  -31.4390   39.9410 H   0  0  0  0  0  0  0  0  0  0  0  0
   21.0399  -29.0993   40.2351 H   0  0  0  0  0  0  0  0  0  0  0  0
   20.4972  -27.2200   43.0520 H   0  0  0  0  0  0  0  0  0  0  0  0
   21.7752  -28.0575   42.1075 H   0  0  0  0  0  0  0  0  0  0  0  0
   21.6886  -26.2633   42.1075 H   0  0  0  0  0  0  0  0  0  0  0  0
  1  2  1  0
  2  3  1  0
  3  4  2  0
  4  5  1  0
  5  6  2  0
  6  7  1  0
  7  8  1  0
  8  9  1  0
  9 10  2  0
 10 11  1  0
 11 12  2  0
 12 13  1  0
 13 14  1  0
 13 15  2  0
 15 16  1  0
 16 17  2  0
 16 18  1  0
 18 19  1  0
  6 20  1  0
 20 21  2  0
 21 22  1  0
 21  3  1  0
 18  7  2  0
 15  9  1  0
  1 23  1  0
  1 24  1  0
  1 25  1  0
  2 26  1  0
  2 27  1  0
  4 28  1  0
  5 29  1  0
 10 30  1  0
 11 31  1  0
 12 32  1  0
 14 33  1  0
 19 34  1  0
 20 35  1  0
 22 36  1  0
 22 37  1  0
 22 38  1  0
M  END
>  <meeko>  (5) 
{"is_sidechain": [false], "free_energy": -6.883, "intermolecular_energy": -8.234, "internal_energy": -0.273}

$$$$
cand_042_out
     RDKit          3D

 38 40  0  0  0  0  0  0  0  0999 V2000
   25.2640  -30.0230   44.0780 C   0  0  0  0  0  0  0  0  0  0  0  0
   24.6290  -28.7350   44.5800 C   0  0  0  0  0  0  0  0  0  0  0  0
   23.5860  -28.2070   43.6210 C   0  0  0  0  0  0  0  0  0  0  0  0
   23.5550  -28.7250   42.3160 C   0  0  0  0  0  0  0  0  0  0  0  0
   22.6210  -28.2700   41.3820 C   0  0  0  0  0  0  0  0  0  0  0  0
   21.6880  -27.2890   41.7270 C   0  0  0  0  0  0  0  0  0  0  0  0
   20.7040  -26.7720   40.7520 C   0  0  0  0  0  0  0  0  0  0  0  0
   20.6100  -25.3850   40.7620 O   0  0  0  0  0  0  0  0  0  0  0  0
   19.7330  -24.7730   39.9050 C   0  0  0  0  0  0  0  0  0  0  0  0
   19.6820  -23.3790   39.9390 C   0  0  0  0  0  0  0  0  0  0  0  0
   18.8090  -22.6920   39.0920 C   0  0  0  0  0  0  0  0  0  0  0  0
   17.9860  -23.3990   38.2120 C   0  0  0  0  0  0  0  0  0  0  0  0
   18.0400  -24.7910   38.1800 C   0  0  0  0  0  0  0  0  0  0  0  0
   17.2070  -25.4200   37.2950 O   0  0  0  0  0  0  0  0  0  0  0  0
   18.9150  -25.4770   39.0270 C   0  0  0  0  0  0  0  0  0  0  0  0
   19.0010  -26.9380   39.0250 C   0  0  0  0  0  0  0  0  0  0  0  0
   18.3050  -27.6300   38.2840 O   0  0  0  0  0  0  0  0  0  0  0  0
   19.9660  -27.5670   39.9560 C   0  0  0  0  0  0  0  0  0  0  0  0
   20.0300  -28.9490   39.9540 O   0  0  0  0  0  0  0  0  0  0  0  0
   21.7280  -26.7590   43.0270 C   0  0  0  0  0  0  0  0  0  0  0  0
   22.6670  -27.2000   43.9780 C   0  0  0  0  0  0  0  0  0  0  0  0
   22.6390  -26.6010   45.3570 C   0  0  0  0  0  0  0  0  0  0  0  0
   25.5684  -30.6404   44.9360 H   0  0  0  0  0  0  0  0  0  0  0  0
   24.5358  -30.5771   43.4675 H   0  0  0  0  0  0  0  0  0  0  0  0
   26.1470  -29.7828   43.4675 H   0  0  0  0  0  0  0  0  0  0  0  0
   24.1519  -28.9295   45.5519 H   0  0  0  0  0  0  0  0  0  0  0  0
   25.4218  -27.9779   44.6706 H   0  0  0  0  0  0  0  0  0  0  0  0
   24.2777  -29.5014   42.0246 H   0  0  0  0  0  0  0  0  0  0  0  0
   22.6202  -28.6884   40.3647 H   0  0  0  0  0  0  0  0  0  0  0  0
   20.3288  -22.8214   40.6323 H   0  0  0  0  0  0  0  0  0  0  0  0
   18.7696  -21.5930   39.1180 H   0  0  0  0  0  0  0  0  0  0  0  0
   17.2973  -22.8583   37.5462 H   0  0  0  0  0  0  0  0  0  0  0  0
   17.2340  -26.3520   37.2100 H   0  0  0  0  0  0  0  0  0  0  0  0
   19.4150  -29.4460   39.4520 H   0  0  0  0  0  0  0  0  0  0  0  0
   21.0062  -25.9784   43.3094 H   0  0  0  0  0  0  0  0  0  0  0  0
   22.6766  -27.4050   46.1068 H   0  0  0  0  0  0  0  0  0  0  0  0
   23.5071  -25.9380   45.4865 H   0  0  0  0  0  0  0  0  0  0  0  0
   21.7128  -26.0219   45.4865 H   0  0  0  0  0  0  0  0  0  0  0  0
  1  2  1  0
  2  3  1  0
  3  4  2  0
  4  5  1  0
  5  6  2  0
  6  7  1  0
  7  8  1  0
  8  9  1  0
  9 10  2  0
 10 11  1  0
 11 12  2  0
 12 13  1  0
 13 14  1  0
 13 15  2  0
 15 16  1  0
 16 17  2  0
 16 18  1  0
 18 19  1  0
  6 20  1  0
 20 21  2  0
 21 22  1  0
 21  3  1  0
 18  7  2  0
 15  9  1  0
  1 23  1  0
  1 24  1  0
  1 25  1  0
  2 26  1  0
  2 27  1  0
  4 28  1  0
  5 29  1  0
 10 30  1  0
 11 31  1  0
 12 32  1  0
 14 33  1  0
 19 34  1  0
 20 35  1  0
 22 36  1  0
 22 37  1  0
 22 38  1  0
M  END
>  <meeko>  (6) 
{"is_sidechain": [false], "free_energy": -6.838, "intermolecular_energy": -8.279, "internal_energy": -0.176}

$$$$
cand_042_out
     RDKit          3D

 38 40  0  0  0  0  0  0  0  0999 V2000
   18.6350  -34.5760   39.2020 C   0  0  0  0  0  0  0  0  0  0  0  0
   19.2610  -33.9670   37.9570 C   0  0  0  0  0  0  0  0  0  0  0  0
   19.3320  -32.4580   38.0380 C   0  0  0  0  0  0  0  0  0  0  0  0
   19.0330  -31.8410   39.2630 C   0  0  0  0  0  0  0  0  0  0  0  0
   19.0710  -30.4510   39.3970 C   0  0  0  0  0  0  0  0  0  0  0  0
   19.4140  -29.6390   38.3130 C   0  0  0  0  0  0  0  0  0  0  0  0
   19.4390  -28.1640   38.4200 C   0  0  0  0  0  0  0  0  0  0  0  0
   18.6980  -27.5370   37.4250 O   0  0  0  0  0  0  0  0  0  0  0  0
   18.6360  -26.1680   37.4070 C   0  0  0  0  0  0  0  0  0  0  0  0
   17.8700  -25.5820   36.3990 C   0  0  0  0  0  0  0  0  0  0  0  0
   17.7650  -24.1910   36.3230 C   0  0  0  0  0  0  0  0  0  0  0  0
   18.4280  -23.3870   37.2530 C   0  0  0  0  0  0  0  0  0  0  0  0
   19.1910  -23.9750   38.2580 C   0  0  0  0  0  0  0  0  0  0  0  0
   19.8140  -23.1300   39.1350 O   0  0  0  0  0  0  0  0  0  0  0  0
   19.2950  -25.3670   38.3350 C   0  0  0  0  0  0  0  0  0  0  0  0
   20.0870  -26.0250   39.3740 C   0  0  0  0  0  0  0  0  0  0  0  0
   20.7040  -25.3860   40.2240 O   0  0  0  0  0  0  0  0  0  0  0  0
   20.1250  -27.5050   39.3720 C   0  0  0  0  0  0  0  0  0  0  0  0
   20.8870  -28.1150   40.3520 O   0  0  0  0  0  0  0  0  0  0  0  0
   19.6970  -30.2550   37.0830 C   0  0  0  0  0  0  0  0  0  0  0  0
   19.6560  -31.6530   36.9280 C   0  0  0  0  0  0  0  0  0  0  0  0
   19.9890  -32.2440   35.5860 C   0  0  0  0  0  0  0  0  0  0  0  0
   19.0926  -34.1308   40.0978 H   0  0  0  0  0  0  0  0  0  0  0  0
   17.5535  -34.3751   39.2044 H   0  0  0  0  0  0  0  0  0  0  0  0
   18.8061  -35.6626   39.2044 H   0  0  0  0  0  0  0  0  0  0  0  0
   20.2800  -34.3647   37.8412 H   0  0  0  0  0  0  0  0  0  0  0  0
   18.6301  -34.2315   37.0956 H   0  0  0  0  0  0  0  0  0  0  0  0
   18.7647  -32.4616   40.1307 H   0  0  0  0  0  0  0  0  0  0  0  0
   18.8283  -29.9909   40.3662 H   0  0  0  0  0  0  0  0  0  0  0  0
   17.3493  -26.2145   35.6649 H   0  0  0  0  0  0  0  0  0  0  0  0
   17.1594  -23.7284   35.5298 H   0  0  0  0  0  0  0  0  0  0  0  0
   18.3474  -22.2917   37.1914 H   0  0  0  0  0  0  0  0  0  0  0  0
   19.6990  -22.2040   39.0550 H   0  0  0  0  0  0  0  0  0  0  0  0
   21.0600  -27.6690   41.1560 H   0  0  0  0  0  0  0  0  0  0  0  0
   19.9577  -29.6279   36.2177 H   0  0  0  0  0  0  0  0  0  0  0  0
   20.5246  -33.1945   35.7266 H   0  0  0  0  0  0  0  0  0  0  0  0
   19.0605  -32.4258   35.0248 H   0  0  0  0  0  0  0  0  0  0  0  0
   20.6255  -31.5440   35.0248 H   0  0  0  0  0  0  0  0  0  0  0  0
  1  2  1  0
  2  3  1  0
  3  4  2  0
  4  5  1  0
  5  6  2  0
  6  7  1  0
  7  8  1  0
  8  9  1  0
  9 10  2  0
 10 11  1  0
 11 12  2  0
 12 13  1  0
 13 14  1  0
 13 15  2  0
 15 16  1  0
 16 17  2  0
 16 18  1  0
 18 19  1  0
  6 20  1  0
 20 21  2  0
 21 22  1  0
 21  3  1  0
 18  7  2  0
 15  9  1  0
  1 23  1  0
  1 24  1  0
  1 25  1  0
  2 26  1  0
  2 27  1  0
  4 28  1  0
  5 29  1  0
 10 30  1  0
 11 31  1  0
 12 32  1  0
 14 33  1  0
 19 34  1  0
 20 35  1  0
 22 36  1  0
 22 37  1  0
 22 38  1  0
M  END
>  <meeko>  (7) 
{"is_sidechain": [false], "free_energy": -6.75, "intermolecular_energy": -8.108, "internal_energy": -0.243}

$$$$
cand_042_out
     RDKit          3D

 38 40  0  0  0  0  0  0  0  0999 V2000
   20.2650  -24.8950   49.2830 C   0  0  0  0  0  0  0  0  0  0  0  0
   20.6220  -23.7470   48.3500 C   0  0  0  0  0  0  0  0  0  0  0  0
   20.5000  -24.1410   46.8950 C   0  0  0  0  0  0  0  0  0  0  0  0
   21.5500  -24.8650   46.3090 C   0  0  0  0  0  0  0  0  0  0  0  0
   21.5000  -25.2480   44.9670 C   0  0  0  0  0  0  0  0  0  0  0  0
   20.3960  -24.9250   44.1730 C   0  0  0  0  0  0  0  0  0  0  0  0
   20.3270  -25.2970   42.7440 C   0  0  0  0  0  0  0  0  0  0  0  0
   19.9190  -24.2460   41.9310 O   0  0  0  0  0  0  0  0  0  0  0  0
   19.8120  -24.4540   40.5810 C   0  0  0  0  0  0  0  0  0  0  0  0
   19.4140  -23.3680   39.8010 C   0  0  0  0  0  0  0  0  0  0  0  0
   19.2840  -23.5130   38.4180 C   0  0  0  0  0  0  0  0  0  0  0  0
   19.5510  -24.7440   37.8150 C   0  0  0  0  0  0  0  0  0  0  0  0
   19.9490  -25.8260   38.5960 C   0  0  0  0  0  0  0  0  0  0  0  0
   20.1940  -27.0020   37.9410 O   0  0  0  0  0  0  0  0  0  0  0  0
   20.0800  -25.6810   39.9800 C   0  0  0  0  0  0  0  0  0  0  0  0
   20.4950  -26.7920   40.8350 C   0  0  0  0  0  0  0  0  0  0  0  0
   20.7410  -27.9080   40.3800 O   0  0  0  0  0  0  0  0  0  0  0  0
   20.6110  -26.5310   42.2880 C   0  0  0  0  0  0  0  0  0  0  0  0
   20.9920  -27.5930   43.0890 O   0  0  0  0  0  0  0  0  0  0  0  0
   19.3520  -24.1870   44.7550 C   0  0  0  0  0  0  0  0  0  0  0  0
   19.3900  -23.7860   46.1040 C   0  0  0  0  0  0  0  0  0  0  0  0
   18.2270  -23.0140   46.6640 C   0  0  0  0  0  0  0  0  0  0  0  0
   20.3678  -24.5644   50.3271 H   0  0  0  0  0  0  0  0  0  0  0  0
   19.2269  -25.2085   49.0981 H   0  0  0  0  0  0  0  0  0  0  0  0
   20.9422  -25.7419   49.0981 H   0  0  0  0  0  0  0  0  0  0  0  0
   19.9433  -22.9043   48.5479 H   0  0  0  0  0  0  0  0  0  0  0  0
   21.6689  -23.4676   48.5399 H   0  0  0  0  0  0  0  0  0  0  0  0
   22.4263  -25.1350   46.9166 H   0  0  0  0  0  0  0  0  0  0  0  0
   22.3386  -25.8100   44.5300 H   0  0  0  0  0  0  0  0  0  0  0  0
   19.2027  -22.3981   40.2749 H   0  0  0  0  0  0  0  0  0  0  0  0
   18.9709  -22.6565   37.8029 H   0  0  0  0  0  0  0  0  0  0  0  0
   19.4472  -24.8586   36.7259 H   0  0  0  0  0  0  0  0  0  0  0  0
   19.6590  -27.7520   38.1090 H   0  0  0  0  0  0  0  0  0  0  0  0
   20.8120  -27.5750   44.0080 H   0  0  0  0  0  0  0  0  0  0  0  0
   18.4813  -23.9151   44.1402 H   0  0  0  0  0  0  0  0  0  0  0  0
   18.2652  -23.0394   47.7630 H   0  0  0  0  0  0  0  0  0  0  0  0
   18.2793  -21.9707   46.3193 H   0  0  0  0  0  0  0  0  0  0  0  0
   17.2859  -23.4673   46.3193 H   0  0  0  0  0  0  0  0  0  0  0  0
  1  2  1  0
  2  3  1  0
  3  4  2  0
  4  5  1  0
  5  6  2  0
  6  7  1  0
  7  8  1  0
  8  9  1  0
  9 10  2  0
 10 11  1  0
 11 12  2  0
 12 13  1  0
 13 14  1  0
 13 15  2  0
 15 16  1  0
 16 17  2  0
 16 18  1  0
 18 19  1  0
  6 20  1  0
 20 21  2  0
 21 22  1  0
 21  3  1  0
 18  7  2  0
 15  9  1  0
  1 23  1  0
  1 24  1  0
  1 25  1  0
  2 26  1  0
  2 27  1  0
  4 28  1  0
  5 29  1  0
 10 30  1  0
 11 31  1  0
 12 32  1  0
 14 33  1  0
 19 34  1  0
 20 35  1  0
 22 36  1  0
 22 37  1  0
 22 38  1  0
M  END
>  <meeko>  (8) 
{"is_sidechain": [false], "free_energy": -6.711, "intermolecular_energy": -8.098, "internal_energy": -0.208}

$$$$
cand_042_out
     RDKit          3D

 38 40  0  0  0  0  0  0  0  0999 V2000
   23.4300  -22.4120   49.7910 C   0  0  0  0  0  0  0  0  0  0  0  0
   22.0630  -23.0780   49.8010 C   0  0  0  0  0  0  0  0  0  0  0  0
   21.5690  -23.3780   48.4030 C   0  0  0  0  0  0  0  0  0  0  0  0
   22.0640  -22.6050   47.3400 C   0  0  0  0  0  0  0  0  0  0  0  0
   21.6380  -22.8270   46.0280 C   0  0  0  0  0  0  0  0  0  0  0  0
   20.7110  -23.8320   45.7400 C   0  0  0  0  0  0  0  0  0  0  0  0
   20.2250  -24.0740   44.3650 C   0  0  0  0  0  0  0  0  0  0  0  0
   20.5210  -25.3500   43.9030 O   0  0  0  0  0  0  0  0  0  0  0  0
   20.1270  -25.7070   42.6400 C   0  0  0  0  0  0  0  0  0  0  0  0
   20.4330  -27.0030   42.2220 C   0  0  0  0  0  0  0  0  0  0  0  0
   20.0610  -27.4300   40.9460 C   0  0  0  0  0  0  0  0  0  0  0  0
   19.3830  -26.5630   40.0860 C   0  0  0  0  0  0  0  0  0  0  0  0
   19.0790  -25.2700   40.5060 C   0  0  0  0  0  0  0  0  0  0  0  0
   18.4150  -24.4720   39.6140 O   0  0  0  0  0  0  0  0  0  0  0  0
   19.4510  -24.8430   41.7840 C   0  0  0  0  0  0  0  0  0  0  0  0
   19.1500  -23.4940   42.2630 C   0  0  0  0  0  0  0  0  0  0  0  0
   18.5630  -22.6700   41.5630 O   0  0  0  0  0  0  0  0  0  0  0  0
   19.5810  -23.1430   43.6360 C   0  0  0  0  0  0  0  0  0  0  0  0
   19.3030  -21.8610   44.0730 O   0  0  0  0  0  0  0  0  0  0  0  0
   20.2040  -24.5950   46.8050 C   0  0  0  0  0  0  0  0  0  0  0  0
   20.6160  -24.3790   48.1330 C   0  0  0  0  0  0  0  0  0  0  0  0
   20.0440  -25.2480   49.2190 C   0  0  0  0  0  0  0  0  0  0  0  0
   23.7657  -22.2484   50.8257 H   0  0  0  0  0  0  0  0  0  0  0  0
   24.1499  -23.0603   49.2701 H   0  0  0  0  0  0  0  0  0  0  0  0
   23.3632  -21.4455   49.2701 H   0  0  0  0  0  0  0  0  0  0  0  0
   22.1313  -24.0208   50.3635 H   0  0  0  0  0  0  0  0  0  0  0  0
   21.3505  -22.3847   50.2718 H   0  0  0  0  0  0  0  0  0  0  0  0
   22.7988  -21.8122   47.5436 H   0  0  0  0  0  0  0  0  0  0  0  0
   22.0365  -22.2042   45.2135 H   0  0  0  0  0  0  0  0  0  0  0  0
   20.9669  -27.6875   42.8975 H   0  0  0  0  0  0  0  0  0  0  0  0
   20.3024  -28.4516   40.6171 H   0  0  0  0  0  0  0  0  0  0  0  0
   19.0901  -26.9000   39.0807 H   0  0  0  0  0  0  0  0  0  0  0  0
   17.9000  -23.7530   39.9230 H   0  0  0  0  0  0  0  0  0  0  0  0
   19.7070  -21.5330   44.8510 H   0  0  0  0  0  0  0  0  0  0  0  0
   19.4651  -25.3824   46.5952 H   0  0  0  0  0  0  0  0  0  0  0  0
   20.3163  -24.8343   50.2012 H   0  0  0  0  0  0  0  0  0  0  0  0
   18.9485  -25.2788   49.1251 H   0  0  0  0  0  0  0  0  0  0  0  0
   20.4489  -26.2665   49.1251 H   0  0  0  0  0  0  0  0  0  0  0  0
  1  2  1  0
  2  3  1  0
  3  4  2  0
  4  5  1  0
  5  6  2  0
  6  7  1  0
  7  8  1  0
  8  9  1  0
  9 10  2  0
 10 11  1  0
 11 12  2  0
 12 13  1  0
 13 14  1  0
 13 15  2  0
 15 16  1  0
 16 17  2  0
 16 18  1  0
 18 19  1  0
  6 20  1  0
 20 21  2  0
 21 22  1  0
 21  3  1  0
 18  7  2  0
 15  9  1  0
  1 23  1  0
  1 24  1  0
  1 25  1  0
  2 26  1  0
  2 27  1  0
  4 28  1  0
  5 29  1  0
 10 30  1  0
 11 31  1  0
 12 32  1  0
 14 33  1  0
 19 34  1  0
 20 35  1  0
 22 36  1  0
 22 37  1  0
 22 38  1  0
M  END
>  <meeko>  (9) 
{"is_sidechain": [false], "free_energy": -6.673, "intermolecular_energy": -7.953, "internal_energy": -0.308}

$$$$
