cand_045_out
     RDKit          3D

 35 37  0  0  0  0  0  0  0  0999 V2000
  182.0440   15.1930   42.7900 C   0  0  0  0  0  0  0  0  0  0  0  0
  181.3360   16.1730   43.6850 C   0  0  0  0  0  0  0  0  0  0  0  0
  181.6450   17.5370   43.5890 C   0  0  0  0  0  0  0  0  0  0  0  0
  181.0080   18.4770   44.4040 C   0  0  0  0  0  0  0  0  0  0  0  0
  180.0500   18.0770   45.3420 C   0  0  0  0  0  0  0  0  0  0  0  0
  179.3430   19.0530   46.1990 C   0  0  0  0  0  0  0  0  0  0  0  0
  177.9630   18.8910   46.1760 O   0  0  0  0  0  0  0  0  0  0  0  0
  177.1830   19.7280   46.9330 C   0  0  0  0  0  0  0  0  0  0  0  0
  175.8030   19.5340   46.8730 C   0  0  0  0  0  0  0  0  0  0  0  0
  174.9520   20.3510   47.6190 C   0  0  0  0  0  0  0  0  0  0  0  0
  175.4800   21.3630   48.4240 C   0  0  0  0  0  0  0  0  0  0  0  0
  176.8590   21.5540   48.4820 C   0  0  0  0  0  0  0  0  0  0  0  0
  177.3100   22.5610   49.2910 O   0  0  0  0  0  0  0  0  0  0  0  0
  177.7100   20.7350   47.7350 C   0  0  0  0  0  0  0  0  0  0  0  0
  179.1630   20.9010   47.7680 C   0  0  0  0  0  0  0  0  0  0  0  0
  179.7050   21.7640   48.4560 O   0  0  0  0  0  0  0  0  0  0  0  0
  179.9770   19.9840   46.9360 C   0  0  0  0  0  0  0  0  0  0  0  0
  181.3500   20.1400   46.9870 O   0  0  0  0  0  0  0  0  0  0  0  0
  179.7330   16.7130   45.4300 C   0  0  0  0  0  0  0  0  0  0  0  0
  180.3630   15.7530   44.6150 C   0  0  0  0  0  0  0  0  0  0  0  0
  179.9870   14.3000   44.7610 C   0  0  0  0  0  0  0  0  0  0  0  0
  180.8400   13.5900   45.5550 F   0  0  0  0  0  0  0  0  0  0  0  0
  182.5779   14.4539   43.4054 H   0  0  0  0  0  0  0  0  0  0  0  0
  181.3079   14.6782   42.1551 H   0  0  0  0  0  0  0  0  0  0  0  0
  182.7639   15.7302   42.1551 H   0  0  0  0  0  0  0  0  0  0  0  0
  182.3994   17.8722   42.8620 H   0  0  0  0  0  0  0  0  0  0  0  0
  181.2626   19.5427   44.3069 H   0  0  0  0  0  0  0  0  0  0  0  0
  175.3859   18.7381   46.2385 H   0  0  0  0  0  0  0  0  0  0  0  0
  173.8637   20.1976   47.5729 H   0  0  0  0  0  0  0  0  0  0  0  0
  174.8089   22.0075   49.0107 H   0  0  0  0  0  0  0  0  0  0  0  0
  178.2250   22.6350   49.4800 H   0  0  0  0  0  0  0  0  0  0  0  0
  181.7980   20.0820   47.8080 H   0  0  0  0  0  0  0  0  0  0  0  0
  178.9728   16.3852   46.1543 H   0  0  0  0  0  0  0  0  0  0  0  0
  178.9788   14.2443   45.1974 H   0  0  0  0  0  0  0  0  0  0  0  0
  180.0349   13.8530   43.7571 H   0  0  0  0  0  0  0  0  0  0  0  0
  1  2  1  0
  2  3  2  0
  3  4  1  0
  4  5  2  0
  5  6  1  0
  6  7  1  0
  7  8  1  0
  8  9  2  0
  9 10  1  0
 10 11  2  0
 11 12  1  0
 12 13  1  0
 12 14  2  0
 14 15  1  0
 15 16  2  0
 15 17  1  0
 17 18  1  0
  5 19  1  0
 19 20  2  0
 20 21  1  0
 21 22  1  0
 20  2  1  0
 17  6  2  0
 14  8  1  0
  1 23  1  0
  1 24  1  0
  1 25  1  0
  3 26  1  0
  4 27  1  0
  9 28  1  0
 10 29  1  0
 11 30  1  0
 13 31  1  0
 18 32  1  0
 19 33  1  0
 21 34  1  0
 21 35  1  0
M  END
>  <meeko>  (1) 
{"is_sidechain": [false], "free_energy": -7.63, "intermolecular_energy": -8.968, "internal_energy": -0.225}

$$$$
cand_045_out
     RDKit          3D

 35 37  0  0  0  0  0  0  0  0999 V2000
  171.7130   24.8780   49.5020 C   0  0  0  0  0  0  0  0  0  0  0  0
  173.1190   24.3490   49.5790 C   0  0  0  0  0  0  0  0  0  0  0  0
  173.3650   23.0070   49.2560 C   0  0  0  0  0  0  0  0  0  0  0  0
  174.6590   22.4800   49.3170 C   0  0  0  0  0  0  0  0  0  0  0  0
  175.7380   23.2780   49.7080 C   0  0  0  0  0  0  0  0  0  0  0  0
  177.1200   22.7520   49.7560 C   0  0  0  0  0  0  0  0  0  0  0  0
  177.5410   22.2300   48.5390 O   0  0  0  0  0  0  0  0  0  0  0  0
  178.8070   21.7130   48.4410 C   0  0  0  0  0  0  0  0  0  0  0  0
  179.1850   21.1920   47.2030 C   0  0  0  0  0  0  0  0  0  0  0  0
  180.4610   20.6510   47.0340 C   0  0  0  0  0  0  0  0  0  0  0  0
  181.3590   20.6300   48.1030 C   0  0  0  0  0  0  0  0  0  0  0  0
  180.9790   21.1510   49.3380 C   0  0  0  0  0  0  0  0  0  0  0  0
  181.9080   21.1000   50.3420 O   0  0  0  0  0  0  0  0  0  0  0  0
  179.7030   21.6930   49.5060 C   0  0  0  0  0  0  0  0  0  0  0  0
  179.2640   22.2510   50.7850 C   0  0  0  0  0  0  0  0  0  0  0  0
  179.9990   22.2760   51.7710 O   0  0  0  0  0  0  0  0  0  0  0  0
  177.8890   22.7980   50.8590 C   0  0  0  0  0  0  0  0  0  0  0  0
  177.4920   23.3380   52.0690 O   0  0  0  0  0  0  0  0  0  0  0  0
  175.4930   24.6240   50.0210 C   0  0  0  0  0  0  0  0  0  0  0  0
  174.1970   25.1720   49.9630 C   0  0  0  0  0  0  0  0  0  0  0  0
  173.9930   26.6230   50.3180 C   0  0  0  0  0  0  0  0  0  0  0  0
  175.0250   27.4310   49.9390 F   0  0  0  0  0  0  0  0  0  0  0  0
  171.3206   25.0256   50.5190 H   0  0  0  0  0  0  0  0  0  0  0  0
  171.7114   25.8382   48.9654 H   0  0  0  0  0  0  0  0  0  0  0  0
  171.0788   24.1570   48.9654 H   0  0  0  0  0  0  0  0  0  0  0  0
  172.5293   22.3602   48.9506 H   0  0  0  0  0  0  0  0  0  0  0  0
  174.8296   21.4255   49.0543 H   0  0  0  0  0  0  0  0  0  0  0  0
  178.4779   21.2075   46.3605 H   0  0  0  0  0  0  0  0  0  0  0  0
  180.7591   20.2409   46.0578 H   0  0  0  0  0  0  0  0  0  0  0  0
  182.3641   20.2031   47.9704 H   0  0  0  0  0  0  0  0  0  0  0  0
  182.7080   20.6280   50.2160 H   0  0  0  0  0  0  0  0  0  0  0  0
  177.2730   22.7730   52.7840 H   0  0  0  0  0  0  0  0  0  0  0  0
  176.3343   25.2670   50.3191 H   0  0  0  0  0  0  0  0  0  0  0  0
  173.0760   26.9759   49.8234 H   0  0  0  0  0  0  0  0  0  0  0  0
  173.9268   26.6793   51.4146 H   0  0  0  0  0  0  0  0  0  0  0  0
  1  2  1  0
  2  3  2  0
  3  4  1  0
  4  5  2  0
  5  6  1  0
  6  7  1  0
  7  8  1  0
  8  9  2  0
  9 10  1  0
 10 11  2  0
 11 12  1  0
 12 13  1  0
 12 14  2  0
 14 15  1  0
 15 16  2  0
 15 17  1  0
 17 18  1  0
  5 19  1  0
 19 20  2  0
 20 21  1  0
 21 22  1  0
 20  2  1  0
 17  6  2  0
 14  8  1  0
  1 23  1  0
  1 24  1  0
  1 25  1  0
  3 26  1  0
  4 27  1  0
  9 28  1  0
 10 29  1  0
 11 30  1  0
 13 31  1  0
 18 32  1  0
 19 33  1  0
 21 34  1  0
 21 35  1  0
M  END
>  <meeko>  (2) 
{"is_sidechain": [false], "free_energy": -7.2, "intermolecular_energy": -8.461, "internal_energy": -0.226}

$$$$
cand_045_out
     RDKit          3D

 35 37  0  0  0  0  0  0  0  0999 V2000
  177.6350   20.7360   46.1710 C   0  0  0  0  0  0  0  0  0  0  0  0
  176.8100   21.2570   47.3160 C   0  0  0  0  0  0  0  0  0  0  0  0
  176.9470   22.5960   47.7070 C   0  0  0  0  0  0  0  0  0  0  0  0
  176.1980   23.1150   48.7670 C   0  0  0  0  0  0  0  0  0  0  0  0
  175.2970   22.3080   49.4690 C   0  0  0  0  0  0  0  0  0  0  0  0
  174.4740   22.8380   50.5770 C   0  0  0  0  0  0  0  0  0  0  0  0
  175.2250   23.1540   51.7040 O   0  0  0  0  0  0  0  0  0  0  0  0
  174.5870   23.6630   52.8050 C   0  0  0  0  0  0  0  0  0  0  0  0
  175.3780   23.9580   53.9160 C   0  0  0  0  0  0  0  0  0  0  0  0
  174.7920   24.4790   55.0710 C   0  0  0  0  0  0  0  0  0  0  0  0
  173.4140   24.7050   55.1160 C   0  0  0  0  0  0  0  0  0  0  0  0
  172.6270   24.4090   54.0050 C   0  0  0  0  0  0  0  0  0  0  0  0
  171.2850   24.6550   54.1160 O   0  0  0  0  0  0  0  0  0  0  0  0
  173.2140   23.8880   52.8500 C   0  0  0  0  0  0  0  0  0  0  0  0
  172.4240   23.5650   51.6620 C   0  0  0  0  0  0  0  0  0  0  0  0
  171.2080   23.7410   51.6210 O   0  0  0  0  0  0  0  0  0  0  0  0
  173.1430   23.0130   50.4900 C   0  0  0  0  0  0  0  0  0  0  0  0
  172.3880   22.7270   49.3670 O   0  0  0  0  0  0  0  0  0  0  0  0
  175.1530   20.9700   49.0700 C   0  0  0  0  0  0  0  0  0  0  0  0
  175.8970   20.4320   48.0030 C   0  0  0  0  0  0  0  0  0  0  0  0
  175.7050   18.9840   47.6260 C   0  0  0  0  0  0  0  0  0  0  0  0
  174.7680   18.7920   46.6530 F   0  0  0  0  0  0  0  0  0  0  0  0
  178.5035   20.1875   46.5646 H   0  0  0  0  0  0  0  0  0  0  0  0
  177.0228   20.0604   45.5556 H   0  0  0  0  0  0  0  0  0  0  0  0
  177.9819   21.5791   45.5556 H   0  0  0  0  0  0  0  0  0  0  0  0
  177.6538   23.2475   47.1723 H   0  0  0  0  0  0  0  0  0  0  0  0
  176.3187   24.1705   49.0523 H   0  0  0  0  0  0  0  0  0  0  0  0
  176.4630   23.7801   53.8818 H   0  0  0  0  0  0  0  0  0  0  0  0
  175.4158   24.7118   55.9466 H   0  0  0  0  0  0  0  0  0  0  0  0
  172.9518   25.1154   56.0259 H   0  0  0  0  0  0  0  0  0  0  0  0
  170.6740   24.1530   53.6140 H   0  0  0  0  0  0  0  0  0  0  0  0
  171.8390   21.9680   49.3530 H   0  0  0  0  0  0  0  0  0  0  0  0
  174.4403   20.3251   49.6050 H   0  0  0  0  0  0  0  0  0  0  0  0
  176.6661   18.5881   47.2661 H   0  0  0  0  0  0  0  0  0  0  0  0
  175.3474   18.4614   48.5255 H   0  0  0  0  0  0  0  0  0  0  0  0
  1  2  1  0
  2  3  2  0
  3  4  1  0
  4  5  2  0
  5  6  1  0
  6  7  1  0
  7  8  1  0
  8  9  2  0
  9 10  1  0
 10 11  2  0
 11 12  1  0
 12 13  1  0
 12 14  2  0
 14 15  1  0
 15 16  2  0
 15 17  1  0
 17 18  1  0
  5 19  1  0
 19 20  2  0
 20 21  1  0
 21 22  1  0
 20  2  1  0
 17  6  2  0
 14  8  1  0
  1 23  1  0
  1 24  1  0
  1 25  1  0
  3 26  1  0
  4 27  1  0
  9 28  1  0
 10 29  1  0
 11 30  1  0
 13 31  1  0
 18 32  1  0
 19 33  1  0
 21 34  1  0
 21 35  1  0
M  END
>  <meeko>  (3) 
{"is_sidechain": [false], "free_energy": -7.161, "intermolecular_energy": -8.282, "internal_energy": -0.36}

$$$$
cand_045_out
     RDKit          3D

 35 37  0  0  0  0  0  0  0  0999 V2000
  181.3950   20.7910   45.9240 C   0  0  0  0  0  0  0  0  0  0  0  0
  180.3580   21.1990   46.9350 C   0  0  0  0  0  0  0  0  0  0  0  0
  180.5980   22.3130   47.7520 C   0  0  0  0  0  0  0  0  0  0  0  0
  179.6590   22.7230   48.7030 C   0  0  0  0  0  0  0  0  0  0  0  0
  178.4580   22.0250   48.8670 C   0  0  0  0  0  0  0  0  0  0  0  0
  177.4360   22.4510   49.8480 C   0  0  0  0  0  0  0  0  0  0  0  0
  176.3080   22.9980   49.2490 O   0  0  0  0  0  0  0  0  0  0  0  0
  175.2770   23.4300   50.0430 C   0  0  0  0  0  0  0  0  0  0  0  0
  174.1680   23.9800   49.3990 C   0  0  0  0  0  0  0  0  0  0  0  0
  173.0830   24.4390   50.1490 C   0  0  0  0  0  0  0  0  0  0  0  0
  173.1080   24.3490   51.5420 C   0  0  0  0  0  0  0  0  0  0  0  0
  174.2170   23.8000   52.1820 C   0  0  0  0  0  0  0  0  0  0  0  0
  174.1750   23.7410   53.5490 O   0  0  0  0  0  0  0  0  0  0  0  0
  175.3010   23.3400   51.4310 C   0  0  0  0  0  0  0  0  0  0  0  0
  176.4840   22.7560   52.0630 C   0  0  0  0  0  0  0  0  0  0  0  0
  176.5780   22.6370   53.2840 O   0  0  0  0  0  0  0  0  0  0  0  0
  177.5820   22.3030   51.1780 C   0  0  0  0  0  0  0  0  0  0  0  0
  178.6880   21.7380   51.7860 O   0  0  0  0  0  0  0  0  0  0  0  0
  178.2140   20.9160   48.0420 C   0  0  0  0  0  0  0  0  0  0  0  0
  179.1480   20.4920   47.0780 C   0  0  0  0  0  0  0  0  0  0  0  0
  178.8330   19.2880   46.2260 C   0  0  0  0  0  0  0  0  0  0  0  0
  177.5270   18.8990   46.2870 F   0  0  0  0  0  0  0  0  0  0  0  0
  182.2962   20.4364   46.4457 H   0  0  0  0  0  0  0  0  0  0  0  0
  180.9947   19.9834   45.2936 H   0  0  0  0  0  0  0  0  0  0  0  0
  181.6523   21.6549   45.2936 H   0  0  0  0  0  0  0  0  0  0  0  0
  181.5388   22.8724   47.6430 H   0  0  0  0  0  0  0  0  0  0  0  0
  179.8667   23.6035   49.3287 H   0  0  0  0  0  0  0  0  0  0  0  0
  174.1484   24.0520   48.3015 H   0  0  0  0  0  0  0  0  0  0  0  0
  172.2081   24.8717   49.6418 H   0  0  0  0  0  0  0  0  0  0  0  0
  172.2538   24.7109   52.1330 H   0  0  0  0  0  0  0  0  0  0  0  0
  173.3810   23.9460   54.0020 H   0  0  0  0  0  0  0  0  0  0  0  0
  178.8090   20.8090   51.7670 H   0  0  0  0  0  0  0  0  0  0  0  0
  177.2688   20.3641   48.1516 H   0  0  0  0  0  0  0  0  0  0  0  0
  179.0748   19.5297   45.1805 H   0  0  0  0  0  0  0  0  0  0  0  0
  179.4352   18.4534   46.6142 H   0  0  0  0  0  0  0  0  0  0  0  0
  1  2  1  0
  2  3  2  0
  3  4  1  0
  4  5  2  0
  5  6  1  0
  6  7  1  0
  7  8  1  0
  8  9  2  0
  9 10  1  0
 10 11  2  0
 11 12  1  0
 12 13  1  0
 12 14  2  0
 14 15  1  0
 15 16  2  0
 15 17  1  0
 17 18  1  0
  5 19  1  0
 19 20  2  0
 20 21  1  0
 21 22  1  0
 20  2  1  0
 17  6  2  0
 14  8  1  0
  1 23  1  0
  1 24  1  0
  1 25  1  0
  3 26  1  0
  4 27  1  0
  9 28  1  0
 10 29  1  0
 11 30  1  0
 13 31  1  0
 18 32  1  0
 19 33  1  0
 21 34  1  0
 21 35  1  0
M  END
>  <meeko>  (4) 
{"is_sidechain": [false], "free_energy": -7.134, "intermolecular_energy": -8.233, "internal_energy": -0.377}

$$$$
cand_045_out
     RDKit          3D

 35 37  0  0  0  0  0  0  0  0999 V2000
  185.0820   23.4450   48.0410 C   0  0  0  0  0  0  0  0  0  0  0  0
  183.6470   23.0650   48.2880 C   0  0  0  0  0  0  0  0  0  0  0  0
  183.3540   21.7940   48.8000 C   0  0  0  0  0  0  0  0  0  0  0  0
  182.0330   21.4050   49.0420 C   0  0  0  0  0  0  0  0  0  0  0  0
  180.9710   22.2740   48.7710 C   0  0  0  0  0  0  0  0  0  0  0  0
  179.5660   21.8970   49.0420 C   0  0  0  0  0  0  0  0  0  0  0  0
  178.8710   21.5450   47.8910 O   0  0  0  0  0  0  0  0  0  0  0  0
  177.5570   21.1670   47.9990 C   0  0  0  0  0  0  0  0  0  0  0  0
  176.8960   20.8300   46.8180 C   0  0  0  0  0  0  0  0  0  0  0  0
  175.5570   20.4360   46.8560 C   0  0  0  0  0  0  0  0  0  0  0  0
  174.8790   20.3790   48.0760 C   0  0  0  0  0  0  0  0  0  0  0  0
  175.5420   20.7160   49.2540 C   0  0  0  0  0  0  0  0  0  0  0  0
  174.8200   20.6380   50.4140 O   0  0  0  0  0  0  0  0  0  0  0  0
  176.8820   21.1100   49.2140 C   0  0  0  0  0  0  0  0  0  0  0  0
  177.6160   21.4710   50.4280 C   0  0  0  0  0  0  0  0  0  0  0  0
  177.0910   21.4400   51.5390 O   0  0  0  0  0  0  0  0  0  0  0  0
  179.0320   21.8790   50.2770 C   0  0  0  0  0  0  0  0  0  0  0  0
  179.7190   22.2020   51.4320 O   0  0  0  0  0  0  0  0  0  0  0  0
  181.2660   23.5500   48.2680 C   0  0  0  0  0  0  0  0  0  0  0  0
  182.5910   23.9590   48.0210 C   0  0  0  0  0  0  0  0  0  0  0  0
  182.8460   25.3410   47.4720 C   0  0  0  0  0  0  0  0  0  0  0  0
  183.2450   25.3460   46.1670 F   0  0  0  0  0  0  0  0  0  0  0  0
  185.5962   23.5812   49.0038 H   0  0  0  0  0  0  0  0  0  0  0  0
  185.5793   22.6476   47.4693 H   0  0  0  0  0  0  0  0  0  0  0  0
  185.1195   24.3840   47.4693 H   0  0  0  0  0  0  0  0  0  0  0  0
  184.1741   21.0930   49.0144 H   0  0  0  0  0  0  0  0  0  0  0  0
  181.8266   20.4045   49.4500 H   0  0  0  0  0  0  0  0  0  0  0  0
  177.4293   20.8746   45.8570 H   0  0  0  0  0  0  0  0  0  0  0  0
  175.0357   20.1703   45.9246 H   0  0  0  0  0  0  0  0  0  0  0  0
  173.8241   20.0688   48.1065 H   0  0  0  0  0  0  0  0  0  0  0  0
  175.2010   20.2520   51.1770 H   0  0  0  0  0  0  0  0  0  0  0  0
  180.3540   21.6080   51.7810 H   0  0  0  0  0  0  0  0  0  0  0  0
  180.4418   24.2486   48.0613 H   0  0  0  0  0  0  0  0  0  0  0  0
  181.9170   25.9244   47.5537 H   0  0  0  0  0  0  0  0  0  0  0  0
  183.6666   25.7757   48.0616 H   0  0  0  0  0  0  0  0  0  0  0  0
  1  2  1  0
  2  3  2  0
  3  4  1  0
  4  5  2  0
  5  6  1  0
  6  7  1  0
  7  8  1  0
  8  9  2  0
  9 10  1  0
 10 11  2  0
 11 12  1  0
 12 13  1  0
 12 14  2  0
 14 15  1  0
 15 16  2  0
 15 17  1  0
 17 18  1  0
  5 19  1  0
 19 20  2  0
 20 21  1  0
 21 22  1  0
 20  2  1  0
 17  6  2  0
 14  8  1  0
  1 23  1  0
  1 24  1  0
  1 25  1  0
  3 26  1  0
  4 27  1  0
  9 28  1  0
 10 29  1  0
 11 30  1  0
 13 31  1  0
 18 32  1  0
 19 33  1  0
 21 34  1  0
 21 35  1  0
M  END
>  <meeko>  (5) 
{"is_sidechain": [false], "free_energy": -7.109, "intermolecular_energy": -8.184, "internal_energy": -0.397}

$$$$
cand_045_out
     RDKit          3D

 35 37  0  0  0  0  0  0  0  0999 V2000
  169.9510   25.1050   51.9810 C   0  0  0  0  0  0  0  0  0  0  0  0
  171.1620   24.5590   51.2750 C   0  0  0  0  0  0  0  0  0  0  0  0
  171.2600   24.6870   49.8830 C   0  0  0  0  0  0  0  0  0  0  0  0
  172.3700   24.1910   49.1920 C   0  0  0  0  0  0  0  0  0  0  0  0
  173.4080   23.5490   49.8750 C   0  0  0  0  0  0  0  0  0  0  0  0
  174.6050   23.0390   49.1720 C   0  0  0  0  0  0  0  0  0  0  0  0
  174.4240   21.7620   48.6540 O   0  0  0  0  0  0  0  0  0  0  0  0
  175.4540   21.1690   47.9710 C   0  0  0  0  0  0  0  0  0  0  0  0
  175.2310   19.8840   47.4760 C   0  0  0  0  0  0  0  0  0  0  0  0
  176.2380   19.2240   46.7710 C   0  0  0  0  0  0  0  0  0  0  0  0
  177.4700   19.8480   46.5610 C   0  0  0  0  0  0  0  0  0  0  0  0
  177.6910   21.1310   47.0570 C   0  0  0  0  0  0  0  0  0  0  0  0
  178.9180   21.6840   46.8150 O   0  0  0  0  0  0  0  0  0  0  0  0
  176.6810   21.7910   47.7620 C   0  0  0  0  0  0  0  0  0  0  0  0
  176.8710   23.1390   48.2980 C   0  0  0  0  0  0  0  0  0  0  0  0
  177.9240   23.7570   48.1500 O   0  0  0  0  0  0  0  0  0  0  0  0
  175.7400   23.7490   49.0350 C   0  0  0  0  0  0  0  0  0  0  0  0
  175.9250   25.0300   49.5230 O   0  0  0  0  0  0  0  0  0  0  0  0
  173.3150   23.4320   51.2700 C   0  0  0  0  0  0  0  0  0  0  0  0
  172.2050   23.9270   51.9810 C   0  0  0  0  0  0  0  0  0  0  0  0
  172.1570   23.7640   53.4800 C   0  0  0  0  0  0  0  0  0  0  0  0
  173.3860   23.7730   54.0720 F   0  0  0  0  0  0  0  0  0  0  0  0
  170.0995   25.0380   53.0689 H   0  0  0  0  0  0  0  0  0  0  0  0
  169.8031   26.1569   51.6952 H   0  0  0  0  0  0  0  0  0  0  0  0
  169.0648   24.5193   51.6952 H   0  0  0  0  0  0  0  0  0  0  0  0
  170.4524   25.1846   49.3260 H   0  0  0  0  0  0  0  0  0  0  0  0
  172.4273   24.3070   48.0996 H   0  0  0  0  0  0  0  0  0  0  0  0
  174.2616   19.3912   47.6414 H   0  0  0  0  0  0  0  0  0  0  0  0
  176.0616   18.2111   46.3801 H   0  0  0  0  0  0  0  0  0  0  0  0
  178.2639   19.3275   46.0053 H   0  0  0  0  0  0  0  0  0  0  0  0
  179.6820   21.1410   46.8040 H   0  0  0  0  0  0  0  0  0  0  0  0
  175.2410   25.4510   50.0040 H   0  0  0  0  0  0  0  0  0  0  0  0
  174.1299   22.9411   51.8223 H   0  0  0  0  0  0  0  0  0  0  0  0
  171.5630   24.5890   53.9002 H   0  0  0  0  0  0  0  0  0  0  0  0
  171.7098   22.7796   53.6823 H   0  0  0  0  0  0  0  0  0  0  0  0
  1  2  1  0
  2  3  2  0
  3  4  1  0
  4  5  2  0
  5  6  1  0
  6  7  1  0
  7  8  1  0
  8  9  2  0
  9 10  1  0
 10 11  2  0
 11 12  1  0
 12 13  1  0
 12 14  2  0
 14 15  1  0
 15 16  2  0
 15 17  1  0
 17 18  1  0
  5 19  1  0
 19 20  2  0
 20 21  1  0
 21 22  1  0
 20  2  1  0
 17  6  2  0
 14  8  1  0
  1 23  1  0
  1 24  1  0
  1 25  1  0
  3 26  1  0
  4 27  1  0
  9 28  1  0
 10 29  1  0
 11 30  1  0
 13 31  1  0
 18 32  1  0
 19 33  1  0
 21 34  1  0
 21 35  1  0
M  END
>  <meeko>  (6) 
{"is_sidechain": [false], "free_energy": -7.098, "intermolecular_energy": -8.149, "internal_energy": -0.418}

$$$$
cand_045_out
     RDKit          3D

 35 37  0  0  0  0  0  0  0  0999 V2000
  176.4750   18.5420   46.2480 C   0  0  0  0  0  0  0  0  0  0  0  0
  176.3670   19.5960   47.3160 C   0  0  0  0  0  0  0  0  0  0  0  0
  175.2980   19.5450   48.2220 C   0  0  0  0  0  0  0  0  0  0  0  0
  175.1630   20.5070   49.2280 C   0  0  0  0  0  0  0  0  0  0  0  0
  176.0890   21.5480   49.3500 C   0  0  0  0  0  0  0  0  0  0  0  0
  175.9840   22.5630   50.4200 C   0  0  0  0  0  0  0  0  0  0  0  0
  175.5040   23.7840   49.9610 O   0  0  0  0  0  0  0  0  0  0  0  0
  175.3510   24.8150   50.8520 C   0  0  0  0  0  0  0  0  0  0  0  0
  174.8740   26.0250   50.3460 C   0  0  0  0  0  0  0  0  0  0  0  0
  174.6940   27.1150   51.1990 C   0  0  0  0  0  0  0  0  0  0  0  0
  174.9930   26.9970   52.5580 C   0  0  0  0  0  0  0  0  0  0  0  0
  175.4690   25.7880   53.0610 C   0  0  0  0  0  0  0  0  0  0  0  0
  175.7400   25.7400   54.4010 O   0  0  0  0  0  0  0  0  0  0  0  0
  175.6470   24.6970   52.2060 C   0  0  0  0  0  0  0  0  0  0  0  0
  176.1440   23.4100   52.6930 C   0  0  0  0  0  0  0  0  0  0  0  0
  176.4220   23.2250   53.8760 O   0  0  0  0  0  0  0  0  0  0  0  0
  176.3020   22.3180   51.7050 C   0  0  0  0  0  0  0  0  0  0  0  0
  176.7570   21.1010   52.1790 O   0  0  0  0  0  0  0  0  0  0  0  0
  177.1640   21.5920   48.4490 C   0  0  0  0  0  0  0  0  0  0  0  0
  177.3160   20.6310   47.4320 C   0  0  0  0  0  0  0  0  0  0  0  0
  178.4880   20.7350   46.4870 C   0  0  0  0  0  0  0  0  0  0  0  0
  179.0500   21.9770   46.4470 F   0  0  0  0  0  0  0  0  0  0  0  0
  176.5764   17.5527   46.7181 H   0  0  0  0  0  0  0  0  0  0  0  0
  175.5703   18.5598   45.6225 H   0  0  0  0  0  0  0  0  0  0  0  0
  177.3573   18.7429   45.6225 H   0  0  0  0  0  0  0  0  0  0  0  0
  174.5556   18.7374   48.1403 H   0  0  0  0  0  0  0  0  0  0  0  0
  174.3193   20.4442   49.9310 H   0  0  0  0  0  0  0  0  0  0  0  0
  174.6400   26.1196   49.2754 H   0  0  0  0  0  0  0  0  0  0  0  0
  174.3162   28.0681   50.8003 H   0  0  0  0  0  0  0  0  0  0  0  0
  174.8530   27.8567   53.2299 H   0  0  0  0  0  0  0  0  0  0  0  0
  175.3010   26.3230   54.9890 H   0  0  0  0  0  0  0  0  0  0  0  0
  177.5430   20.7280   51.8330 H   0  0  0  0  0  0  0  0  0  0  0  0
  177.9068   22.3982   48.5399 H   0  0  0  0  0  0  0  0  0  0  0  0
  179.2567   20.0158   46.8062 H   0  0  0  0  0  0  0  0  0  0  0  0
  178.1075   20.5210   45.4773 H   0  0  0  0  0  0  0  0  0  0  0  0
  1  2  1  0
  2  3  2  0
  3  4  1  0
  4  5  2  0
  5  6  1  0
  6  7  1  0
  7  8  1  0
  8  9  2  0
  9 10  1  0
 10 11  2  0
 11 12  1  0
 12 13  1  0
 12 14  2  0
 14 15  1  0
 15 16  2  0
 15 17  1  0
 17 18  1  0
  5 19  1  0
 19 20  2  0
 20 21  1  0
 21 22  1  0
 20  2  1  0
 17  6  2  0
 14  8  1  0
  1 23  1  0
  1 24  1  0
  1 25  1  0
  3 26  1  0
  4 27  1  0
  9 28  1  0
 10 29  1  0
 11 30  1  0
 13 31  1  0
 18 32  1  0
 19 33  1  0
 21 34  1  0
 21 35  1  0
M  END
>  <meeko>  (7) 
{"is_sidechain": [false], "free_energy": -7.088, "intermolecular_energy": -8.168, "internal_energy": -0.388}

$$$$
cand_045_out
     RDKit          3D

 35 37  0  0  0  0  0  0  0  0999 V2000
  180.8500   19.4240   45.1280 C   0  0  0  0  0  0  0  0  0  0  0  0
  179.9510   20.0310   46.1710 C   0  0  0  0  0  0  0  0  0  0  0  0
  178.6340   19.5680   46.2930 C   0  0  0  0  0  0  0  0  0  0  0  0
  177.7690   20.1080   47.2500 C   0  0  0  0  0  0  0  0  0  0  0  0
  178.1960   21.1310   48.1030 C   0  0  0  0  0  0  0  0  0  0  0  0
  177.3090   21.7020   49.1400 C   0  0  0  0  0  0  0  0  0  0  0  0
  176.0510   22.0330   48.6520 O   0  0  0  0  0  0  0  0  0  0  0  0
  175.1250   22.5670   49.5100 C   0  0  0  0  0  0  0  0  0  0  0  0
  173.8780   22.8920   48.9760 C   0  0  0  0  0  0  0  0  0  0  0  0
  172.8890   23.4400   49.7950 C   0  0  0  0  0  0  0  0  0  0  0  0
  173.1480   23.6640   51.1490 C   0  0  0  0  0  0  0  0  0  0  0  0
  174.3940   23.3390   51.6800 C   0  0  0  0  0  0  0  0  0  0  0  0
  174.5800   23.5840   53.0140 O   0  0  0  0  0  0  0  0  0  0  0  0
  175.3820   22.7900   50.8600 C   0  0  0  0  0  0  0  0  0  0  0  0
  176.7030   22.4340   51.3770 C   0  0  0  0  0  0  0  0  0  0  0  0
  177.0050   22.5950   52.5580 O   0  0  0  0  0  0  0  0  0  0  0  0
  177.6820   21.8630   50.4230 C   0  0  0  0  0  0  0  0  0  0  0  0
  178.9220   21.5140   50.9270 O   0  0  0  0  0  0  0  0  0  0  0  0
  179.5180   21.5860   47.9870 C   0  0  0  0  0  0  0  0  0  0  0  0
  180.4030   21.0520   47.0310 C   0  0  0  0  0  0  0  0  0  0  0  0
  181.8100   21.5880   46.9470 C   0  0  0  0  0  0  0  0  0  0  0  0
  182.6980   20.9220   47.7410 F   0  0  0  0  0  0  0  0  0  0  0  0
  181.6648   18.8739   45.6214 H   0  0  0  0  0  0  0  0  0  0  0  0
  180.2686   18.7329   44.5001 H   0  0  0  0  0  0  0  0  0  0  0  0
  181.2738   20.2216   44.5001 H   0  0  0  0  0  0  0  0  0  0  0  0
  178.2758   18.7691   45.6271 H   0  0  0  0  0  0  0  0  0  0  0  0
  176.7415   19.7240   47.3328 H   0  0  0  0  0  0  0  0  0  0  0  0
  173.6738   22.7165   47.9095 H   0  0  0  0  0  0  0  0  0  0  0  0
  171.9055   23.6954   49.3737 H   0  0  0  0  0  0  0  0  0  0  0  0
  172.3695   24.0962   51.7948 H   0  0  0  0  0  0  0  0  0  0  0  0
  174.8240   24.4410   53.3030 H   0  0  0  0  0  0  0  0  0  0  0  0
  179.1840   20.6150   50.9470 H   0  0  0  0  0  0  0  0  0  0  0  0
  179.8723   22.3804   48.6603 H   0  0  0  0  0  0  0  0  0  0  0  0
  182.1500   21.5097   45.9038 H   0  0  0  0  0  0  0  0  0  0  0  0
  181.7796   22.6291   47.3008 H   0  0  0  0  0  0  0  0  0  0  0  0
  1  2  1  0
  2  3  2  0
  3  4  1  0
  4  5  2  0
  5  6  1  0
  6  7  1  0
  7  8  1  0
  8  9  2  0
  9 10  1  0
 10 11  2  0
 11 12  1  0
 12 13  1  0
 12 14  2  0
 14 15  1  0
 15 16  2  0
 15 17  1  0
 17 18  1  0
  5 19  1  0
 19 20  2  0
 20 21  1  0
 21 22  1  0
 20  2  1  0
 17  6  2  0
 14  8  1  0
  1 23  1  0
  1 24  1  0
  1 25  1  0
  3 26  1  0
  4 27  1  0
  9 28  1  0
 10 29  1  0
 11 30  1  0
 13 31  1  0
 18 32  1  0
 19 33  1  0
 21 34  1  0
 21 35  1  0
M  END
>  <meeko>  (8) 
{"is_sidechain": [false], "free_energy": -7.039, "intermolecular_energy": -8.365, "internal_energy": -0.133}

$$$$
cand_045_out
     RDKit          3D

 35 37  0  0  0  0  0  0  0  0999 V2000
  177.1090   20.2640   46.0990 C   0  0  0  0  0  0  0  0  0  0  0  0
  178.4140   20.7650   46.6550 C   0  0  0  0  0  0  0  0  0  0  0  0
  179.5710   19.9920   46.4900 C   0  0  0  0  0  0  0  0  0  0  0  0
  180.8020   20.4240   46.9930 C   0  0  0  0  0  0  0  0  0  0  0  0
  180.9060   21.6370   47.6820 C   0  0  0  0  0  0  0  0  0  0  0  0
  182.2000   22.1290   48.2020 C   0  0  0  0  0  0  0  0  0  0  0  0
  182.8980   22.8950   47.2760 O   0  0  0  0  0  0  0  0  0  0  0  0
  184.1140   23.4210   47.6300 C   0  0  0  0  0  0  0  0  0  0  0  0
  184.7830   24.1760   46.6660 C   0  0  0  0  0  0  0  0  0  0  0  0
  186.0250   24.7410   46.9620 C   0  0  0  0  0  0  0  0  0  0  0  0
  186.5980   24.5500   48.2210 C   0  0  0  0  0  0  0  0  0  0  0  0
  185.9280   23.7960   49.1820 C   0  0  0  0  0  0  0  0  0  0  0  0
  186.5450   23.6510   50.3940 O   0  0  0  0  0  0  0  0  0  0  0  0
  184.6840   23.2320   48.8850 C   0  0  0  0  0  0  0  0  0  0  0  0
  183.9460   22.4350   49.8650 C   0  0  0  0  0  0  0  0  0  0  0  0
  184.3810   22.2270   50.9960 O   0  0  0  0  0  0  0  0  0  0  0  0
  182.6380   21.8770   49.4490 C   0  0  0  0  0  0  0  0  0  0  0  0
  181.9430   21.1380   50.3890 O   0  0  0  0  0  0  0  0  0  0  0  0
  179.7490   22.4160   47.8370 C   0  0  0  0  0  0  0  0  0  0  0  0
  178.5030   21.9960   47.3350 C   0  0  0  0  0  0  0  0  0  0  0  0
  177.2920   22.8720   47.5400 C   0  0  0  0  0  0  0  0  0  0  0  0
  177.5000   24.1800   47.2120 F   0  0  0  0  0  0  0  0  0  0  0  0
  176.4331   20.0045   46.9271 H   0  0  0  0  0  0  0  0  0  0  0  0
  176.6479   21.0491   45.4817 H   0  0  0  0  0  0  0  0  0  0  0  0
  177.2917   19.3721   45.4817 H   0  0  0  0  0  0  0  0  0  0  0  0
  179.5100   19.0316   45.9572 H   0  0  0  0  0  0  0  0  0  0  0  0
  181.6982   19.8035   46.8454 H   0  0  0  0  0  0  0  0  0  0  0  0
  184.3324   24.3259   45.6738 H   0  0  0  0  0  0  0  0  0  0  0  0
  186.5525   25.3371   46.2028 H   0  0  0  0  0  0  0  0  0  0  0  0
  187.5770   24.9942   48.4537 H   0  0  0  0  0  0  0  0  0  0  0  0
  186.9720   22.8440   50.6080 H   0  0  0  0  0  0  0  0  0  0  0  0
  182.3860   20.8060   51.1440 H   0  0  0  0  0  0  0  0  0  0  0  0
  179.8177   23.3791   48.3641 H   0  0  0  0  0  0  0  0  0  0  0  0
  176.4729   22.4836   46.9170 H   0  0  0  0  0  0  0  0  0  0  0  0
  177.0524   22.8436   48.6132 H   0  0  0  0  0  0  0  0  0  0  0  0
  1  2  1  0
  2  3  2  0
  3  4  1  0
  4  5  2  0
  5  6  1  0
  6  7  1  0
  7  8  1  0
  8  9  2  0
  9 10  1  0
 10 11  2  0
 11 12  1  0
 12 13  1  0
 12 14  2  0
 14 15  1  0
 15 16  2  0
 15 17  1  0
 17 18  1  0
  5 19  1  0
 19 20  2  0
 20 21  1  0
 21 22  1  0
 20  2  1  0
 17  6  2  0
 14  8  1  0
  1 23  1  0
  1 24  1  0
  1 25  1  0
  3 26  1  0
  4 27  1  0
  9 28  1  0
 10 29  1  0
 11 30  1  0
 13 31  1  0
 18 32  1  0
 19 33  1  0
 21 34  1  0
 21 35  1  0
M  END
>  <meeko>  (9) 
{"is_sidechain": [false], "free_energy": -7.006, "intermolecular_energy": -8.03, "internal_energy": -0.43}

$$$$
