cand_017_out
     RDKit          3D

 38 40  0  0  0  0  0  0  0  0999 V2000
  178.8590   13.5900   45.0100 C   0  0  0  0  0  0  0  0  0  0  0  0
  180.3220   14.0080   45.0390 C   0  0  0  0  0  0  0  0  0  0  0  0
  180.5100   15.4420   44.5930 C   0  0  0  0  0  0  0  0  0  0  0  0
  180.0270   16.4670   45.4320 C   0  0  0  0  0  0  0  0  0  0  0  0
  180.1650   17.8210   45.0970 C   0  0  0  0  0  0  0  0  0  0  0  0
  179.6790   18.8960   45.9890 C   0  0  0  0  0  0  0  0  0  0  0  0
  178.2970   18.8960   46.1310 O   0  0  0  0  0  0  0  0  0  0  0  0
  177.7140   19.8440   46.9330 C   0  0  0  0  0  0  0  0  0  0  0  0
  176.3220   19.8180   47.0340 C   0  0  0  0  0  0  0  0  0  0  0  0
  175.6640   20.7540   47.8360 C   0  0  0  0  0  0  0  0  0  0  0  0
  176.3970   21.7140   48.5350 C   0  0  0  0  0  0  0  0  0  0  0  0
  177.7860   21.7380   48.4330 C   0  0  0  0  0  0  0  0  0  0  0  0
  178.4420   22.7040   49.1450 O   0  0  0  0  0  0  0  0  0  0  0  0
  178.4430   20.8020   47.6300 C   0  0  0  0  0  0  0  0  0  0  0  0
  179.9000   20.7910   47.4940 C   0  0  0  0  0  0  0  0  0  0  0  0
  180.6160   21.6000   48.0830 O   0  0  0  0  0  0  0  0  0  0  0  0
  180.4990   19.7620   46.6130 C   0  0  0  0  0  0  0  0  0  0  0  0
  181.8780   19.7540   46.5010 O   0  0  0  0  0  0  0  0  0  0  0  0
  180.8190   18.1470   43.9060 C   0  0  0  0  0  0  0  0  0  0  0  0
  181.3090   17.1450   43.0640 C   0  0  0  0  0  0  0  0  0  0  0  0
  181.1670   15.7860   43.3920 C   0  0  0  0  0  0  0  0  0  0  0  0
  181.6950   14.7430   42.4330 C   0  0  0  0  0  0  0  0  0  0  0  0
  183.0520   14.7730   42.3030 F   0  0  0  0  0  0  0  0  0  0  0  0
  181.2090   14.8730   41.1650 F   0  0  0  0  0  0  0  0  0  0  0  0
  178.4875   13.4839   46.0399 H   0  0  0  0  0  0  0  0  0  0  0  0
  178.2693   14.3556   44.4846 H   0  0  0  0  0  0  0  0  0  0  0  0
  178.7627   12.6284   44.4846 H   0  0  0  0  0  0  0  0  0  0  0  0
  180.7013   13.9028   46.0662 H   0  0  0  0  0  0  0  0  0  0  0  0
  180.8748   13.3600   44.3429 H   0  0  0  0  0  0  0  0  0  0  0  0
  179.5286   16.1969   46.3746 H   0  0  0  0  0  0  0  0  0  0  0  0
  175.7439   19.0616   46.4829 H   0  0  0  0  0  0  0  0  0  0  0  0
  174.5671   20.7342   47.9165 H   0  0  0  0  0  0  0  0  0  0  0  0
  175.8784   22.4510   49.1659 H   0  0  0  0  0  0  0  0  0  0  0  0
  178.5470   23.5620   48.7840 H   0  0  0  0  0  0  0  0  0  0  0  0
  182.2960   20.2600   45.8340 H   0  0  0  0  0  0  0  0  0  0  0  0
  180.9495   19.2033   43.6283 H   0  0  0  0  0  0  0  0  0  0  0  0
  181.8147   17.4250   42.1281 H   0  0  0  0  0  0  0  0  0  0  0  0
  181.3568   13.8008   42.8890 H   0  0  0  0  0  0  0  0  0  0  0  0
  1  2  1  0
  2  3  1  0
  3  4  2  0
  4  5  1  0
  5  6  1  0
  6  7  1  0
  7  8  1  0
  8  9  2  0
  9 10  1  0
 10 11  2  0
 11 12  1  0
 12 13  1  0
 12 14  2  0
 14 15  1  0
 15 16  2  0
 15 17  1  0
 17 18  1  0
  5 19  2  0
 19 20  1  0
 20 21  2  0
 21 22  1  0
 22 23  1  0
 22 24  1  0
 21  3  1  0
 17  6  2  0
 14  8  1  0
  1 25  1  0
  1 26  1  0
  1 27  1  0
  2 28  1  0
  2 29  1  0
  4 30  1  0
  9 31  1  0
 10 32  1  0
 11 33  1  0
 13 34  1  0
 18 35  1  0
 19 36  1  0
 20 37  1  0
 22 38  1  0
M  END
>  <meeko>  (1) 
{"is_sidechain": [false], "free_energy": -7.744, "intermolecular_energy": -9.555, "internal_energy": -0.535}

$$$$
cand_017_out
     RDKit          3D

 38 40  0  0  0  0  0  0  0  0999 V2000
  175.5130   18.3280   47.0620 C   0  0  0  0  0  0  0  0  0  0  0  0
  176.7420   18.8090   46.3020 C   0  0  0  0  0  0  0  0  0  0  0  0
  177.4980   19.8760   47.0630 C   0  0  0  0  0  0  0  0  0  0  0  0
  176.8070   20.5940   48.0610 C   0  0  0  0  0  0  0  0  0  0  0  0
  177.4330   21.5950   48.8170 C   0  0  0  0  0  0  0  0  0  0  0  0
  176.7150   22.3300   49.8800 C   0  0  0  0  0  0  0  0  0  0  0  0
  175.6790   23.1150   49.3880 O   0  0  0  0  0  0  0  0  0  0  0  0
  174.9300   23.8510   50.2690 C   0  0  0  0  0  0  0  0  0  0  0  0
  173.9100   24.6390   49.7310 C   0  0  0  0  0  0  0  0  0  0  0  0
  173.1080   25.4120   50.5740 C   0  0  0  0  0  0  0  0  0  0  0  0
  173.3260   25.3980   51.9520 C   0  0  0  0  0  0  0  0  0  0  0  0
  174.3430   24.6130   52.4870 C   0  0  0  0  0  0  0  0  0  0  0  0
  174.5000   24.6460   53.8460 O   0  0  0  0  0  0  0  0  0  0  0  0
  175.1450   23.8390   51.6440 C   0  0  0  0  0  0  0  0  0  0  0  0
  176.2260   23.0000   52.1640 C   0  0  0  0  0  0  0  0  0  0  0  0
  176.4750   22.9290   53.3660 O   0  0  0  0  0  0  0  0  0  0  0  0
  177.0230   22.2250   51.1860 C   0  0  0  0  0  0  0  0  0  0  0  0
  178.0330   21.4260   51.6890 O   0  0  0  0  0  0  0  0  0  0  0  0
  178.7840   21.8620   48.5750 C   0  0  0  0  0  0  0  0  0  0  0  0
  179.4850   21.1570   47.5930 C   0  0  0  0  0  0  0  0  0  0  0  0
  178.8600   20.1580   46.8280 C   0  0  0  0  0  0  0  0  0  0  0  0
  179.6610   19.4430   45.7640 C   0  0  0  0  0  0  0  0  0  0  0  0
  180.8320   18.9250   46.2310 F   0  0  0  0  0  0  0  0  0  0  0  0
  180.0150   20.2450   44.7180 F   0  0  0  0  0  0  0  0  0  0  0  0
  175.6991   18.4008   48.1437 H   0  0  0  0  0  0  0  0  0  0  0  0
  174.6488   18.9543   46.7956 H   0  0  0  0  0  0  0  0  0  0  0  0
  175.3035   17.2815   46.7956 H   0  0  0  0  0  0  0  0  0  0  0  0
  177.4114   17.9530   46.1313 H   0  0  0  0  0  0  0  0  0  0  0  0
  176.4036   19.2457   45.3508 H   0  0  0  0  0  0  0  0  0  0  0  0
  175.7486   20.3624   48.2513 H   0  0  0  0  0  0  0  0  0  0  0  0
  173.7384   24.6509   48.6445 H   0  0  0  0  0  0  0  0  0  0  0  0
  172.3040   26.0322   50.1511 H   0  0  0  0  0  0  0  0  0  0  0  0
  172.6943   26.0072   52.6152 H   0  0  0  0  0  0  0  0  0  0  0  0
  173.8360   25.0260   54.3850 H   0  0  0  0  0  0  0  0  0  0  0  0
  178.1570   21.3550   52.6150 H   0  0  0  0  0  0  0  0  0  0  0  0
  179.3002   22.6348   49.1635 H   0  0  0  0  0  0  0  0  0  0  0  0
  180.5457   21.3885   47.4157 H   0  0  0  0  0  0  0  0  0  0  0  0
  178.9739   18.6486   45.4371 H   0  0  0  0  0  0  0  0  0  0  0  0
  1  2  1  0
  2  3  1  0
  3  4  2  0
  4  5  1  0
  5  6  1  0
  6  7  1  0
  7  8  1  0
  8  9  2  0
  9 10  1  0
 10 11  2  0
 11 12  1  0
 12 13  1  0
 12 14  2  0
 14 15  1  0
 15 16  2  0
 15 17  1  0
 17 18  1  0
  5 19  2  0
 19 20  1  0
 20 21  2  0
 21 22  1  0
 22 23  1  0
 22 24  1  0
 21  3  1  0
 17  6  2  0
 14  8  1  0
  1 25  1  0
  1 26  1  0
  1 27  1  0
  2 28  1  0
  2 29  1  0
  4 30  1  0
  9 31  1  0
 10 32  1  0
 11 33  1  0
 13 34  1  0
 18 35  1  0
 19 36  1  0
 20 37  1  0
 22 38  1  0
M  END
>  <meeko>  (2) 
{"is_sidechain": [false], "free_energy": -7.518, "intermolecular_energy": -9.287, "internal_energy": -0.524}

$$$$
cand_017_out
     RDKit          3D

 38 40  0  0  0  0  0  0  0  0999 V2000
  178.9090   13.7010   45.1210 C   0  0  0  0  0  0  0  0  0  0  0  0
  180.3820   14.0070   44.8910 C   0  0  0  0  0  0  0  0  0  0  0  0
  180.5900   15.3860   44.3030 C   0  0  0  0  0  0  0  0  0  0  0  0
  180.4020   16.5010   45.1460 C   0  0  0  0  0  0  0  0  0  0  0  0
  180.5790   17.8130   44.6840 C   0  0  0  0  0  0  0  0  0  0  0  0
  180.4060   18.9800   45.5750 C   0  0  0  0  0  0  0  0  0  0  0  0
  181.5460   19.7710   45.6560 O   0  0  0  0  0  0  0  0  0  0  0  0
  181.5210   20.8890   46.4510 C   0  0  0  0  0  0  0  0  0  0  0  0
  182.6930   21.6450   46.5170 C   0  0  0  0  0  0  0  0  0  0  0  0
  182.7350   22.7970   47.3060 C   0  0  0  0  0  0  0  0  0  0  0  0
  181.6080   23.1910   48.0280 C   0  0  0  0  0  0  0  0  0  0  0  0
  180.4400   22.4350   47.9610 C   0  0  0  0  0  0  0  0  0  0  0  0
  179.3730   22.8800   48.6930 O   0  0  0  0  0  0  0  0  0  0  0  0
  180.3980   21.2830   47.1720 C   0  0  0  0  0  0  0  0  0  0  0  0
  179.1930   20.4590   47.0740 C   0  0  0  0  0  0  0  0  0  0  0  0
  178.1580   20.7440   47.6740 O   0  0  0  0  0  0  0  0  0  0  0  0
  179.2550   19.2530   46.2160 C   0  0  0  0  0  0  0  0  0  0  0  0
  178.1060   18.4890   46.1200 O   0  0  0  0  0  0  0  0  0  0  0  0
  180.9710   18.0010   43.3560 C   0  0  0  0  0  0  0  0  0  0  0  0
  181.1660   16.9080   42.5070 C   0  0  0  0  0  0  0  0  0  0  0  0
  180.9830   15.5920   42.9640 C   0  0  0  0  0  0  0  0  0  0  0  0
  181.1860   14.4480   41.9970 C   0  0  0  0  0  0  0  0  0  0  0  0
  182.4970   14.1220   41.8180 F   0  0  0  0  0  0  0  0  0  0  0  0
  180.7040   14.7010   40.7450 F   0  0  0  0  0  0  0  0  0  0  0  0
  178.7076   13.6592   46.2016 H   0  0  0  0  0  0  0  0  0  0  0  0
  178.2947   14.4907   44.6638 H   0  0  0  0  0  0  0  0  0  0  0  0
  178.6601   12.7320   44.6638 H   0  0  0  0  0  0  0  0  0  0  0  0
  180.9114   13.9478   45.8534 H   0  0  0  0  0  0  0  0  0  0  0  0
  180.7742   13.2698   44.1749 H   0  0  0  0  0  0  0  0  0  0  0  0
  180.1088   16.3371   46.1935 H   0  0  0  0  0  0  0  0  0  0  0  0
  183.5819   21.3339   45.9486 H   0  0  0  0  0  0  0  0  0  0  0  0
  183.6574   23.3940   47.3581 H   0  0  0  0  0  0  0  0  0  0  0  0
  181.6418   24.0979   48.6496 H   0  0  0  0  0  0  0  0  0  0  0  0
  179.1670   23.7930   48.7150 H   0  0  0  0  0  0  0  0  0  0  0  0
  177.3170   18.8700   45.7890 H   0  0  0  0  0  0  0  0  0  0  0  0
  181.1279   19.0207   42.9745 H   0  0  0  0  0  0  0  0  0  0  0  0
  181.4678   17.0810   41.4635 H   0  0  0  0  0  0  0  0  0  0  0  0
  180.6314   13.6268   42.4745 H   0  0  0  0  0  0  0  0  0  0  0  0
  1  2  1  0
  2  3  1  0
  3  4  2  0
  4  5  1  0
  5  6  1  0
  6  7  1  0
  7  8  1  0
  8  9  2  0
  9 10  1  0
 10 11  2  0
 11 12  1  0
 12 13  1  0
 12 14  2  0
 14 15  1  0
 15 16  2  0
 15 17  1  0
 17 18  1  0
  5 19  2  0
 19 20  1  0
 20 21  2  0
 21 22  1  0
 22 23  1  0
 22 24  1  0
 21  3  1  0
 17  6  2  0
 14  8  1  0
  1 25  1  0
  1 26  1  0
  1 27  1  0
  2 28  1  0
  2 29  1  0
  4 30  1  0
  9 31  1  0
 10 32  1  0
 11 33  1  0
 13 34  1  0
 18 35  1  0
 19 36  1  0
 20 37  1  0
 22 38  1  0
M  END
>  <meeko>  (3) 
{"is_sidechain": [false], "free_energy": -7.518, "intermolecular_energy": -9.306, "internal_energy": -0.505}

$$$$
cand_017_out
     RDKit          3D

 38 40  0  0  0  0  0  0  0  0999 V2000
  175.0750   18.5850   46.9060 C   0  0  0  0  0  0  0  0  0  0  0  0
  175.9490   18.9290   48.1050 C   0  0  0  0  0  0  0  0  0  0  0  0
  176.0110   20.4210   48.3510 C   0  0  0  0  0  0  0  0  0  0  0  0
  175.1830   20.9630   49.3550 C   0  0  0  0  0  0  0  0  0  0  0  0
  175.1830   22.3330   49.6520 C   0  0  0  0  0  0  0  0  0  0  0  0
  174.3320   22.8960   50.7220 C   0  0  0  0  0  0  0  0  0  0  0  0
  175.0520   23.2440   51.8580 O   0  0  0  0  0  0  0  0  0  0  0  0
  174.3830   23.7790   52.9290 C   0  0  0  0  0  0  0  0  0  0  0  0
  175.1430   24.0980   54.0560 C   0  0  0  0  0  0  0  0  0  0  0  0
  174.5240   24.6490   55.1800 C   0  0  0  0  0  0  0  0  0  0  0  0
  173.1470   24.8800   55.1780 C   0  0  0  0  0  0  0  0  0  0  0  0
  172.3910   24.5600   54.0540 C   0  0  0  0  0  0  0  0  0  0  0  0
  171.0480   24.8130   54.1190 O   0  0  0  0  0  0  0  0  0  0  0  0
  173.0110   24.0090   52.9290 C   0  0  0  0  0  0  0  0  0  0  0  0
  172.2540   23.6580   51.7260 C   0  0  0  0  0  0  0  0  0  0  0  0
  171.0400   23.8380   51.6440 O   0  0  0  0  0  0  0  0  0  0  0  0
  173.0040   23.0720   50.5910 C   0  0  0  0  0  0  0  0  0  0  0  0
  172.2810   22.7570   49.4550 O   0  0  0  0  0  0  0  0  0  0  0  0
  176.0470   23.1670   48.9370 C   0  0  0  0  0  0  0  0  0  0  0  0
  176.8780   22.6470   47.9410 C   0  0  0  0  0  0  0  0  0  0  0  0
  176.8770   21.2750   47.6350 C   0  0  0  0  0  0  0  0  0  0  0  0
  177.7800   20.7710   46.5330 C   0  0  0  0  0  0  0  0  0  0  0  0
  178.7950   21.6300   46.2350 F   0  0  0  0  0  0  0  0  0  0  0  0
  177.1310   20.5580   45.3510 F   0  0  0  0  0  0  0  0  0  0  0  0
  174.1049   18.2032   47.2569 H   0  0  0  0  0  0  0  0  0  0  0  0
  174.9155   19.4874   46.2976 H   0  0  0  0  0  0  0  0  0  0  0  0
  175.5734   17.8159   46.2976 H   0  0  0  0  0  0  0  0  0  0  0  0
  175.5354   18.4385   48.9985 H   0  0  0  0  0  0  0  0  0  0  0  0
  176.9694   18.5764   47.8943 H   0  0  0  0  0  0  0  0  0  0  0  0
  174.5190   20.2928   49.9206 H   0  0  0  0  0  0  0  0  0  0  0  0
  176.2278   23.9156   54.0585 H   0  0  0  0  0  0  0  0  0  0  0  0
  175.1220   24.9014   56.0681 H   0  0  0  0  0  0  0  0  0  0  0  0
  172.6602   25.3144   56.0637 H   0  0  0  0  0  0  0  0  0  0  0  0
  170.4620   24.1540   54.4350 H   0  0  0  0  0  0  0  0  0  0  0  0
  171.6660   23.3710   49.1060 H   0  0  0  0  0  0  0  0  0  0  0  0
  176.0732   24.2437   49.1605 H   0  0  0  0  0  0  0  0  0  0  0  0
  177.5449   23.3235   47.3865 H   0  0  0  0  0  0  0  0  0  0  0  0
  178.1633   19.8272   46.9481 H   0  0  0  0  0  0  0  0  0  0  0  0
  1  2  1  0
  2  3  1  0
  3  4  2  0
  4  5  1  0
  5  6  1  0
  6  7  1  0
  7  8  1  0
  8  9  2  0
  9 10  1  0
 10 11  2  0
 11 12  1  0
 12 13  1  0
 12 14  2  0
 14 15  1  0
 15 16  2  0
 15 17  1  0
 17 18  1  0
  5 19  2  0
 19 20  1  0
 20 21  2  0
 21 22  1  0
 22 23  1  0
 22 24  1  0
 21  3  1  0
 17  6  2  0
 14  8  1  0
  1 25  1  0
  1 26  1  0
  1 27  1  0
  2 28  1  0
  2 29  1  0
  4 30  1  0
  9 31  1  0
 10 32  1  0
 11 33  1  0
 13 34  1  0
 18 35  1  0
 19 36  1  0
 20 37  1  0
 22 38  1  0
M  END
>  <meeko>  (4) 
{"is_sidechain": [false], "free_energy": -7.447, "intermolecular_energy": -9.135, "internal_energy": -0.588}

$$$$
cand_017_out
     RDKit          3D

 38 40  0  0  0  0  0  0  0  0999 V2000
  179.3320   23.7980   48.0410 C   0  0  0  0  0  0  0  0  0  0  0  0
  177.9830   23.7640   47.3350 C   0  0  0  0  0  0  0  0  0  0  0  0
  177.0240   22.7960   47.9930 C   0  0  0  0  0  0  0  0  0  0  0  0
  176.1970   23.2810   49.0270 C   0  0  0  0  0  0  0  0  0  0  0  0
  175.2760   22.4540   49.6850 C   0  0  0  0  0  0  0  0  0  0  0  0
  174.3920   22.9700   50.7520 C   0  0  0  0  0  0  0  0  0  0  0  0
  175.0890   23.3580   51.8900 O   0  0  0  0  0  0  0  0  0  0  0  0
  174.3890   23.8550   52.9590 C   0  0  0  0  0  0  0  0  0  0  0  0
  175.1260   24.2170   54.0870 C   0  0  0  0  0  0  0  0  0  0  0  0
  174.4740   24.7330   55.2100 C   0  0  0  0  0  0  0  0  0  0  0  0
  173.0870   24.8860   55.2040 C   0  0  0  0  0  0  0  0  0  0  0  0
  172.3530   24.5240   54.0780 C   0  0  0  0  0  0  0  0  0  0  0  0
  170.9980   24.7010   54.1400 O   0  0  0  0  0  0  0  0  0  0  0  0
  173.0050   24.0080   52.9550 C   0  0  0  0  0  0  0  0  0  0  0  0
  172.2730   23.6140   51.7510 C   0  0  0  0  0  0  0  0  0  0  0  0
  171.0510   23.7250   51.6660 O   0  0  0  0  0  0  0  0  0  0  0  0
  173.0570   23.0710   50.6180 C   0  0  0  0  0  0  0  0  0  0  0  0
  172.3560   22.7140   49.4810 O   0  0  0  0  0  0  0  0  0  0  0  0
  175.1750   21.1200   49.2800 C   0  0  0  0  0  0  0  0  0  0  0  0
  175.9830   20.6230   48.2540 C   0  0  0  0  0  0  0  0  0  0  0  0
  176.9120   21.4470   47.5960 C   0  0  0  0  0  0  0  0  0  0  0  0
  177.7770   20.8510   46.5090 C   0  0  0  0  0  0  0  0  0  0  0  0
  177.0590   20.3790   45.4500 F   0  0  0  0  0  0  0  0  0  0  0  0
  178.5310   19.7950   46.9300 F   0  0  0  0  0  0  0  0  0  0  0  0
  179.1762   23.7941   49.1299 H   0  0  0  0  0  0  0  0  0  0  0  0
  179.9197   22.9144   47.7515 H   0  0  0  0  0  0  0  0  0  0  0  0
  179.8745   24.7101   47.7515 H   0  0  0  0  0  0  0  0  0  0  0  0
  177.5434   24.7720   47.3601 H   0  0  0  0  0  0  0  0  0  0  0  0
  178.1488   23.4283   46.3007 H   0  0  0  0  0  0  0  0  0  0  0  0
  176.2767   24.3368   49.3253 H   0  0  0  0  0  0  0  0  0  0  0  0
  176.2194   24.0963   54.0923 H   0  0  0  0  0  0  0  0  0  0  0  0
  175.0546   25.0188   56.0995 H   0  0  0  0  0  0  0  0  0  0  0  0
  172.5742   25.2923   56.0883 H   0  0  0  0  0  0  0  0  0  0  0  0
  170.6070   25.0520   54.9150 H   0  0  0  0  0  0  0  0  0  0  0  0
  171.4480   22.4900   49.5410 H   0  0  0  0  0  0  0  0  0  0  0  0
  174.4519   20.4545   49.7741 H   0  0  0  0  0  0  0  0  0  0  0  0
  175.8903   19.5682   47.9561 H   0  0  0  0  0  0  0  0  0  0  0  0
  178.4143   21.6983   46.2158 H   0  0  0  0  0  0  0  0  0  0  0  0
  1  2  1  0
  2  3  1  0
  3  4  2  0
  4  5  1  0
  5  6  1  0
  6  7  1  0
  7  8  1  0
  8  9  2  0
  9 10  1  0
 10 11  2  0
 11 12  1  0
 12 13  1  0
 12 14  2  0
 14 15  1  0
 15 16  2  0
 15 17  1  0
 17 18  1  0
  5 19  2  0
 19 20  1  0
 20 21  2  0
 21 22  1  0
 22 23  1  0
 22 24  1  0
 21  3  1  0
 17  6  2  0
 14  8  1  0
  1 25  1  0
  1 26  1  0
  1 27  1  0
  2 28  1  0
  2 29  1  0
  4 30  1  0
  9 31  1  0
 10 32  1  0
 11 33  1  0
 13 34  1  0
 18 35  1  0
 19 36  1  0
 20 37  1  0
 22 38  1  0
M  END
>  <meeko>  (5) 
{"is_sidechain": [false], "free_energy": -7.358, "intermolecular_energy": -9.072, "internal_energy": -0.541}

$$$$
cand_017_out
     RDKit          3D

 38 40  0  0  0  0  0  0  0  0999 V2000
  175.3190   27.0640   50.9370 C   0  0  0  0  0  0  0  0  0  0  0  0
  174.1880   26.4460   50.1280 C   0  0  0  0  0  0  0  0  0  0  0  0
  174.4410   24.9850   49.8230 C   0  0  0  0  0  0  0  0  0  0  0  0
  175.7680   24.5140   49.8900 C   0  0  0  0  0  0  0  0  0  0  0  0
  176.0910   23.1750   49.6290 C   0  0  0  0  0  0  0  0  0  0  0  0
  177.4790   22.6770   49.7240 C   0  0  0  0  0  0  0  0  0  0  0  0
  177.8960   22.0180   48.5740 O   0  0  0  0  0  0  0  0  0  0  0  0
  179.1670   21.5040   48.5280 C   0  0  0  0  0  0  0  0  0  0  0  0
  179.5380   20.8360   47.3600 C   0  0  0  0  0  0  0  0  0  0  0  0
  180.8200   20.2910   47.2470 C   0  0  0  0  0  0  0  0  0  0  0  0
  181.7270   20.4130   48.3000 C   0  0  0  0  0  0  0  0  0  0  0  0
  181.3540   21.0800   49.4640 C   0  0  0  0  0  0  0  0  0  0  0  0
  182.2930   21.1640   50.4560 O   0  0  0  0  0  0  0  0  0  0  0  0
  180.0730   21.6250   49.5770 C   0  0  0  0  0  0  0  0  0  0  0  0
  179.6390   22.3330   50.7830 C   0  0  0  0  0  0  0  0  0  0  0  0
  180.3830   22.4890   51.7500 O   0  0  0  0  0  0  0  0  0  0  0  0
  178.2580   22.8670   50.8050 C   0  0  0  0  0  0  0  0  0  0  0  0
  177.8640   23.5450   51.9440 O   0  0  0  0  0  0  0  0  0  0  0  0
  175.0530   22.2920   49.3140 C   0  0  0  0  0  0  0  0  0  0  0  0
  173.7310   22.7400   49.2470 C   0  0  0  0  0  0  0  0  0  0  0  0
  173.4050   24.0830   49.5020 C   0  0  0  0  0  0  0  0  0  0  0  0
  171.9610   24.5180   49.3930 C   0  0  0  0  0  0  0  0  0  0  0  0
  171.2580   24.3380   50.5470 F   0  0  0  0  0  0  0  0  0  0  0  0
  171.2600   23.8430   48.4360 F   0  0  0  0  0  0  0  0  0  0  0  0
  175.1077   26.9485   52.0103 H   0  0  0  0  0  0  0  0  0  0  0  0
  176.2641   26.5569   50.6927 H   0  0  0  0  0  0  0  0  0  0  0  0
  175.4028   28.1333   50.6927 H   0  0  0  0  0  0  0  0  0  0  0  0
  173.2531   26.5323   50.7012 H   0  0  0  0  0  0  0  0  0  0  0  0
  174.1201   26.9857   49.1719 H   0  0  0  0  0  0  0  0  0  0  0  0
  176.5722   25.2164   50.1543 H   0  0  0  0  0  0  0  0  0  0  0  0
  178.8227   20.7387   46.5300 H   0  0  0  0  0  0  0  0  0  0  0  0
  181.1142   19.7652   46.3267 H   0  0  0  0  0  0  0  0  0  0  0  0
  182.7355   19.9828   48.2108 H   0  0  0  0  0  0  0  0  0  0  0  0
  182.9720   21.8070   50.4050 H   0  0  0  0  0  0  0  0  0  0  0  0
  177.3640   24.3340   51.8690 H   0  0  0  0  0  0  0  0  0  0  0  0
  175.2797   21.2338   49.1169 H   0  0  0  0  0  0  0  0  0  0  0  0
  172.9318   22.0292   48.9902 H   0  0  0  0  0  0  0  0  0  0  0  0
  172.0477   25.5848   49.1393 H   0  0  0  0  0  0  0  0  0  0  0  0
  1  2  1  0
  2  3  1  0
  3  4  2  0
  4  5  1  0
  5  6  1  0
  6  7  1  0
  7  8  1  0
  8  9  2  0
  9 10  1  0
 10 11  2  0
 11 12  1  0
 12 13  1  0
 12 14  2  0
 14 15  1  0
 15 16  2  0
 15 17  1  0
 17 18  1  0
  5 19  2  0
 19 20  1  0
 20 21  2  0
 21 22  1  0
 22 23  1  0
 22 24  1  0
 21  3  1  0
 17  6  2  0
 14  8  1  0
  1 25  1  0
  1 26  1  0
  1 27  1  0
  2 28  1  0
  2 29  1  0
  4 30  1  0
  9 31  1  0
 10 32  1  0
 11 33  1  0
 13 34  1  0
 18 35  1  0
 19 36  1  0
 20 37  1  0
 22 38  1  0
M  END
>  <meeko>  (6) 
{"is_sidechain": [false], "free_energy": -7.327, "intermolecular_energy": -9.161, "internal_energy": -0.414}

$$$$
cand_017_out
     RDKit          3D

 38 40  0  0  0  0  0  0  0  0999 V2000
  179.7970   20.5250   47.1190 C   0  0  0  0  0  0  0  0  0  0  0  0
  178.5080   21.0470   46.4990 C   0  0  0  0  0  0  0  0  0  0  0  0
  177.3310   20.9120   47.4400 C   0  0  0  0  0  0  0  0  0  0  0  0
  177.2130   21.8430   48.4920 C   0  0  0  0  0  0  0  0  0  0  0  0
  176.1500   21.7940   49.4050 C   0  0  0  0  0  0  0  0  0  0  0  0
  176.0140   22.7860   50.4930 C   0  0  0  0  0  0  0  0  0  0  0  0
  175.5260   24.0090   50.0510 O   0  0  0  0  0  0  0  0  0  0  0  0
  175.3510   25.0210   50.9600 C   0  0  0  0  0  0  0  0  0  0  0  0
  174.8750   26.2380   50.4710 C   0  0  0  0  0  0  0  0  0  0  0  0
  174.6720   27.3100   51.3440 C   0  0  0  0  0  0  0  0  0  0  0  0
  174.9470   27.1640   52.7050 C   0  0  0  0  0  0  0  0  0  0  0  0
  175.4210   25.9490   53.1910 C   0  0  0  0  0  0  0  0  0  0  0  0
  175.6680   25.8750   54.5350 O   0  0  0  0  0  0  0  0  0  0  0  0
  175.6240   24.8770   52.3180 C   0  0  0  0  0  0  0  0  0  0  0  0
  176.1230   23.5840   52.7860 C   0  0  0  0  0  0  0  0  0  0  0  0
  176.3800   23.3750   53.9710 O   0  0  0  0  0  0  0  0  0  0  0  0
  176.3110   22.5150   51.7780 C   0  0  0  0  0  0  0  0  0  0  0  0
  176.7700   21.2930   52.2340 O   0  0  0  0  0  0  0  0  0  0  0  0
  175.1800   20.8000   49.2420 C   0  0  0  0  0  0  0  0  0  0  0  0
  175.2790   19.8720   48.2030 C   0  0  0  0  0  0  0  0  0  0  0  0
  176.3460   19.9130   47.2890 C   0  0  0  0  0  0  0  0  0  0  0  0
  176.4150   18.8700   46.1970 C   0  0  0  0  0  0  0  0  0  0  0  0
  175.4360   17.9270   46.2940 F   0  0  0  0  0  0  0  0  0  0  0  0
  177.5870   18.1710   46.1850 F   0  0  0  0  0  0  0  0  0  0  0  0
  179.7160   20.5578   48.2155 H   0  0  0  0  0  0  0  0  0  0  0  0
  179.9660   19.4876   46.7947 H   0  0  0  0  0  0  0  0  0  0  0  0
  180.6402   21.1525   46.7947 H   0  0  0  0  0  0  0  0  0  0  0  0
  178.6404   22.1093   46.2461 H   0  0  0  0  0  0  0  0  0  0  0  0
  178.2958   20.4476   45.6014 H   0  0  0  0  0  0  0  0  0  0  0  0
  177.9752   22.6288   48.5995 H   0  0  0  0  0  0  0  0  0  0  0  0
  174.6596   26.3535   49.3985 H   0  0  0  0  0  0  0  0  0  0  0  0
  174.2954   28.2691   50.9589 H   0  0  0  0  0  0  0  0  0  0  0  0
  174.7893   28.0082   53.3923 H   0  0  0  0  0  0  0  0  0  0  0  0
  175.4020   25.1190   55.0200 H   0  0  0  0  0  0  0  0  0  0  0  0
  176.5830   21.0200   53.1100 H   0  0  0  0  0  0  0  0  0  0  0  0
  174.3306   20.7485   49.9390 H   0  0  0  0  0  0  0  0  0  0  0  0
  174.5078   19.0947   48.0980 H   0  0  0  0  0  0  0  0  0  0  0  0
  176.3044   19.4698   45.2816 H   0  0  0  0  0  0  0  0  0  0  0  0
  1  2  1  0
  2  3  1  0
  3  4  2  0
  4  5  1  0
  5  6  1  0
  6  7  1  0
  7  8  1  0
  8  9  2  0
  9 10  1  0
 10 11  2  0
 11 12  1  0
 12 13  1  0
 12 14  2  0
 14 15  1  0
 15 16  2  0
 15 17  1  0
 17 18  1  0
  5 19  2  0
 19 20  1  0
 20 21  2  0
 21 22  1  0
 22 23  1  0
 22 24  1  0
 21  3  1  0
 17  6  2  0
 14  8  1  0
  1 25  1  0
  1 26  1  0
  1 27  1  0
  2 28  1  0
  2 29  1  0
  4 30  1  0
  9 31  1  0
 10 32  1  0
 11 33  1  0
 13 34  1  0
 18 35  1  0
 19 36  1  0
 20 37  1  0
 22 38  1  0
M  END
>  <meeko>  (7) 
{"is_sidechain": [false], "free_energy": -7.319, "intermolecular_energy": -8.986, "internal_energy": -0.58}

$$$$
cand_017_out
     RDKit          3D

 38 40  0  0  0  0  0  0  0  0999 V2000
  180.8340   18.4450   44.7940 C   0  0  0  0  0  0  0  0  0  0  0  0
  179.6930   18.5580   45.7960 C   0  0  0  0  0  0  0  0  0  0  0  0
  179.6830   19.9000   46.4940 C   0  0  0  0  0  0  0  0  0  0  0  0
  180.9000   20.3860   47.0150 C   0  0  0  0  0  0  0  0  0  0  0  0
  180.9820   21.6220   47.6710 C   0  0  0  0  0  0  0  0  0  0  0  0
  182.2630   22.1420   48.1950 C   0  0  0  0  0  0  0  0  0  0  0  0
  182.9350   22.9430   47.2800 O   0  0  0  0  0  0  0  0  0  0  0  0
  184.1400   23.4910   47.6390 C   0  0  0  0  0  0  0  0  0  0  0  0
  184.7890   24.2760   46.6840 C   0  0  0  0  0  0  0  0  0  0  0  0
  186.0190   24.8650   46.9860 C   0  0  0  0  0  0  0  0  0  0  0  0
  186.5990   24.6690   48.2400 C   0  0  0  0  0  0  0  0  0  0  0  0
  185.9510   23.8860   49.1910 C   0  0  0  0  0  0  0  0  0  0  0  0
  186.5750   23.7370   50.3990 O   0  0  0  0  0  0  0  0  0  0  0  0
  184.7200   23.2970   48.8890 C   0  0  0  0  0  0  0  0  0  0  0  0
  184.0050   22.4650   49.8580 C   0  0  0  0  0  0  0  0  0  0  0  0
  184.4470   22.2520   50.9860 O   0  0  0  0  0  0  0  0  0  0  0  0
  182.7110   21.8800   49.4370 C   0  0  0  0  0  0  0  0  0  0  0  0
  182.0380   21.1070   50.3650 O   0  0  0  0  0  0  0  0  0  0  0  0
  179.8190   22.3900   47.7870 C   0  0  0  0  0  0  0  0  0  0  0  0
  178.6040   21.9260   47.2730 C   0  0  0  0  0  0  0  0  0  0  0  0
  178.5170   20.6850   46.6200 C   0  0  0  0  0  0  0  0  0  0  0  0
  177.1740   20.2230   46.1050 C   0  0  0  0  0  0  0  0  0  0  0  0
  176.2270   21.2030   46.1200 F   0  0  0  0  0  0  0  0  0  0  0  0
  176.6380   19.1940   46.8240 F   0  0  0  0  0  0  0  0  0  0  0  0
  181.7879   18.3505   45.3336 H   0  0  0  0  0  0  0  0  0  0  0  0
  180.6807   17.5576   44.1623 H   0  0  0  0  0  0  0  0  0  0  0  0
  180.8577   19.3452   44.1623 H   0  0  0  0  0  0  0  0  0  0  0  0
  178.7390   18.4271   45.2642 H   0  0  0  0  0  0  0  0  0  0  0  0
  179.8328   17.7787   46.5597 H   0  0  0  0  0  0  0  0  0  0  0  0
  181.8101   19.7783   46.9035 H   0  0  0  0  0  0  0  0  0  0  0  0
  184.3323   24.4304   45.6952 H   0  0  0  0  0  0  0  0  0  0  0  0
  186.5310   25.4840   46.2345 H   0  0  0  0  0  0  0  0  0  0  0  0
  187.5678   25.1331   48.4768 H   0  0  0  0  0  0  0  0  0  0  0  0
  186.4030   24.3410   51.0930 H   0  0  0  0  0  0  0  0  0  0  0  0
  181.2090   21.3910   50.6970 H   0  0  0  0  0  0  0  0  0  0  0  0
  179.8603   23.3687   48.2875 H   0  0  0  0  0  0  0  0  0  0  0  0
  177.7003   22.5436   47.3819 H   0  0  0  0  0  0  0  0  0  0  0  0
  177.4062   19.9061   45.0775 H   0  0  0  0  0  0  0  0  0  0  0  0
  1  2  1  0
  2  3  1  0
  3  4  2  0
  4  5  1  0
  5  6  1  0
  6  7  1  0
  7  8  1  0
  8  9  2  0
  9 10  1  0
 10 11  2  0
 11 12  1  0
 12 13  1  0
 12 14  2  0
 14 15  1  0
 15 16  2  0
 15 17  1  0
 17 18  1  0
  5 19  2  0
 19 20  1  0
 20 21  2  0
 21 22  1  0
 22 23  1  0
 22 24  1  0
 21  3  1  0
 17  6  2  0
 14  8  1  0
  1 25  1  0
  1 26  1  0
  1 27  1  0
  2 28  1  0
  2 29  1  0
  4 30  1  0
  9 31  1  0
 10 32  1  0
 11 33  1  0
 13 34  1  0
 18 35  1  0
 19 36  1  0
 20 37  1  0
 22 38  1  0
M  END
>  <meeko>  (8) 
{"is_sidechain": [false], "free_energy": -7.316, "intermolecular_energy": -8.899, "internal_energy": -0.662}

$$$$
cand_017_out
     RDKit          3D

 38 40  0  0  0  0  0  0  0  0999 V2000
  182.4020   21.0710   48.2050 C   0  0  0  0  0  0  0  0  0  0  0  0
  181.4310   21.8240   47.3070 C   0  0  0  0  0  0  0  0  0  0  0  0
  180.0080   21.3380   47.4770 C   0  0  0  0  0  0  0  0  0  0  0  0
  179.2240   21.9240   48.4920 C   0  0  0  0  0  0  0  0  0  0  0  0
  177.8950   21.5380   48.7140 C   0  0  0  0  0  0  0  0  0  0  0  0
  177.0660   22.1700   49.7620 C   0  0  0  0  0  0  0  0  0  0  0  0
  175.9950   22.8880   49.2440 O   0  0  0  0  0  0  0  0  0  0  0  0
  175.1440   23.5270   50.1100 C   0  0  0  0  0  0  0  0  0  0  0  0
  174.0920   24.2500   49.5460 C   0  0  0  0  0  0  0  0  0  0  0  0
  173.1870   24.9220   50.3720 C   0  0  0  0  0  0  0  0  0  0  0  0
  173.3360   24.8710   51.7580 C   0  0  0  0  0  0  0  0  0  0  0  0
  174.3860   24.1490   52.3180 C   0  0  0  0  0  0  0  0  0  0  0  0
  174.4710   24.1410   53.6840 O   0  0  0  0  0  0  0  0  0  0  0  0
  175.2910   23.4770   51.4930 C   0  0  0  0  0  0  0  0  0  0  0  0
  176.4090   22.7080   52.0390 C   0  0  0  0  0  0  0  0  0  0  0  0
  176.6020   22.6090   53.2500 O   0  0  0  0  0  0  0  0  0  0  0  0
  177.3160   22.0380   51.0780 C   0  0  0  0  0  0  0  0  0  0  0  0
  178.3610   21.3030   51.6060 O   0  0  0  0  0  0  0  0  0  0  0  0
  177.3420   20.5560   47.8860 C   0  0  0  0  0  0  0  0  0  0  0  0
  178.1030   19.9670   46.8730 C   0  0  0  0  0  0  0  0  0  0  0  0
  179.4380   20.3470   46.6500 C   0  0  0  0  0  0  0  0  0  0  0  0
  180.2200   19.6610   45.5550 C   0  0  0  0  0  0  0  0  0  0  0  0
  180.0150   20.2090   44.3240 F   0  0  0  0  0  0  0  0  0  0  0  0
  179.9160   18.3370   45.4150 F   0  0  0  0  0  0  0  0  0  0  0  0
  182.1524   21.2646   49.2587 H   0  0  0  0  0  0  0  0  0  0  0  0
  182.3273   19.9923   48.0027 H   0  0  0  0  0  0  0  0  0  0  0  0
  183.4281   21.4118   48.0027 H   0  0  0  0  0  0  0  0  0  0  0  0
  181.4730   22.8943   47.5573 H   0  0  0  0  0  0  0  0  0  0  0  0
  181.7277   21.6476   46.2626 H   0  0  0  0  0  0  0  0  0  0  0  0
  179.6674   22.7053   49.1268 H   0  0  0  0  0  0  0  0  0  0  0  0
  173.9753   24.2909   48.4530 H   0  0  0  0  0  0  0  0  0  0  0  0
  172.3567   25.4915   49.9290 H   0  0  0  0  0  0  0  0  0  0  0  0
  172.6242   25.4010   52.4080 H   0  0  0  0  0  0  0  0  0  0  0  0
  174.6900   24.9270   54.1450 H   0  0  0  0  0  0  0  0  0  0  0  0
  178.6770   20.5470   51.1540 H   0  0  0  0  0  0  0  0  0  0  0  0
  176.2975   20.2442   48.0337 H   0  0  0  0  0  0  0  0  0  0  0  0
  177.6492   19.1917   46.2383 H   0  0  0  0  0  0  0  0  0  0  0  0
  181.2615   19.7934   45.8832 H   0  0  0  0  0  0  0  0  0  0  0  0
  1  2  1  0
  2  3  1  0
  3  4  2  0
  4  5  1  0
  5  6  1  0
  6  7  1  0
  7  8  1  0
  8  9  2  0
  9 10  1  0
 10 11  2  0
 11 12  1  0
 12 13  1  0
 12 14  2  0
 14 15  1  0
 15 16  2  0
 15 17  1  0
 17 18  1  0
  5 19  2  0
 19 20  1  0
 20 21  2  0
 21 22  1  0
 22 23  1  0
 22 24  1  0
 21  3  1  0
 17  6  2  0
 14  8  1  0
  1 25  1  0
  1 26  1  0
  1 27  1  0
  2 28  1  0
  2 29  1  0
  4 30  1  0
  9 31  1  0
 10 32  1  0
 11 33  1  0
 13 34  1  0
 18 35  1  0
 19 36  1  0
 20 37  1  0
 22 38  1  0
M  END
>  <meeko>  (9) 
{"is_sidechain": [false], "free_energy": -7.312, "intermolecular_energy": -8.982, "internal_energy": -0.575}

$$$$
