cand_037_out
     RDKit          3D

 35 37  0  0  0  0  0  0  0  0999 V2000
  179.9930   14.1770   44.8950 C   0  0  0  0  0  0  0  0  0  0  0  0
  180.3800   15.6170   44.6950 C   0  0  0  0  0  0  0  0  0  0  0  0
  179.7630   16.6050   45.4850 C   0  0  0  0  0  0  0  0  0  0  0  0
  180.0790   17.9650   45.3440 C   0  0  0  0  0  0  0  0  0  0  0  0
  179.3920   18.9710   46.1810 C   0  0  0  0  0  0  0  0  0  0  0  0
  178.0090   18.8270   46.1740 O   0  0  0  0  0  0  0  0  0  0  0  0
  177.2470   19.6960   46.9120 C   0  0  0  0  0  0  0  0  0  0  0  0
  175.8620   19.5230   46.8650 C   0  0  0  0  0  0  0  0  0  0  0  0
  175.0300   20.3740   47.5940 C   0  0  0  0  0  0  0  0  0  0  0  0
  175.5790   21.3970   48.3700 C   0  0  0  0  0  0  0  0  0  0  0  0
  176.9610   21.5670   48.4160 C   0  0  0  0  0  0  0  0  0  0  0  0
  177.4320   22.5870   49.1960 O   0  0  0  0  0  0  0  0  0  0  0  0
  177.7940   20.7160   47.6850 C   0  0  0  0  0  0  0  0  0  0  0  0
  179.2510   20.8600   47.7050 C   0  0  0  0  0  0  0  0  0  0  0  0
  179.8100   21.7300   48.3680 O   0  0  0  0  0  0  0  0  0  0  0  0
  180.0450   19.9120   46.8890 C   0  0  0  0  0  0  0  0  0  0  0  0
  181.4200   20.0480   46.9260 O   0  0  0  0  0  0  0  0  0  0  0  0
  181.0160   18.3310   44.3730 C   0  0  0  0  0  0  0  0  0  0  0  0
  181.6290   17.3640   43.5720 C   0  0  0  0  0  0  0  0  0  0  0  0
  181.3130   16.0040   43.7120 C   0  0  0  0  0  0  0  0  0  0  0  0
  182.0150   14.9950   42.8380 C   0  0  0  0  0  0  0  0  0  0  0  0
  181.2160   14.4720   41.8650 F   0  0  0  0  0  0  0  0  0  0  0  0
  179.9345   13.9592   45.9716 H   0  0  0  0  0  0  0  0  0  0  0  0
  179.0134   13.9926   44.4298 H   0  0  0  0  0  0  0  0  0  0  0  0
  180.7481   13.5264   44.4298 H   0  0  0  0  0  0  0  0  0  0  0  0
  179.0140   16.3034   46.2320 H   0  0  0  0  0  0  0  0  0  0  0  0
  175.4277   18.7176   46.2546 H   0  0  0  0  0  0  0  0  0  0  0  0
  173.9390   20.2385   47.5572 H   0  0  0  0  0  0  0  0  0  0  0  0
  174.9218   22.0671   48.9436 H   0  0  0  0  0  0  0  0  0  0  0  0
  177.7400   22.4100   50.0630 H   0  0  0  0  0  0  0  0  0  0  0  0
  181.9680   19.3280   46.6830 H   0  0  0  0  0  0  0  0  0  0  0  0
  181.2735   19.3919   44.2381 H   0  0  0  0  0  0  0  0  0  0  0  0
  182.3703   17.6735   42.8205 H   0  0  0  0  0  0  0  0  0  0  0  0
  182.8731   15.4874   42.3571 H   0  0  0  0  0  0  0  0  0  0  0  0
  182.3234   14.1622   43.4871 H   0  0  0  0  0  0  0  0  0  0  0  0
  1  2  1  0
  2  3  2  0
  3  4  1  0
  4  5  1  0
  5  6  1  0
  6  7  1  0
  7  8  2  0
  8  9  1  0
  9 10  2  0
 10 11  1  0
 11 12  1  0
 11 13  2  0
 13 14  1  0
 14 15  2  0
 14 16  1  0
 16 17  1  0
  4 18  2  0
 18 19  1  0
 19 20  2  0
 20 21  1  0
 21 22  1  0
 20  2  1  0
 16  5  2  0
 13  7  1  0
  1 23  1  0
  1 24  1  0
  1 25  1  0
  3 26  1  0
  8 27  1  0
  9 28  1  0
 10 29  1  0
 12 30  1  0
 17 31  1  0
 18 32  1  0
 19 33  1  0
 21 34  1  0
 21 35  1  0
M  END
>  <meeko>  (1) 
{"is_sidechain": [false], "free_energy": -7.664, "intermolecular_energy": -9.008, "internal_energy": -0.21}

$$$$
cand_037_out
     RDKit          3D

 35 37  0  0  0  0  0  0  0  0999 V2000
  174.2780   26.4330   50.1110 C   0  0  0  0  0  0  0  0  0  0  0  0
  174.5290   24.9670   49.8850 C   0  0  0  0  0  0  0  0  0  0  0  0
  175.8470   24.4800   49.9670 C   0  0  0  0  0  0  0  0  0  0  0  0
  176.1450   23.1240   49.7630 C   0  0  0  0  0  0  0  0  0  0  0  0
  177.5460   22.6590   49.8390 C   0  0  0  0  0  0  0  0  0  0  0  0
  177.9460   21.9620   48.7040 O   0  0  0  0  0  0  0  0  0  0  0  0
  179.2260   21.4730   48.6420 C   0  0  0  0  0  0  0  0  0  0  0  0
  179.5800   20.7670   47.4900 C   0  0  0  0  0  0  0  0  0  0  0  0
  180.8680   20.2450   47.3630 C   0  0  0  0  0  0  0  0  0  0  0  0
  181.8030   20.4280   48.3840 C   0  0  0  0  0  0  0  0  0  0  0  0
  181.4480   21.1340   49.5310 C   0  0  0  0  0  0  0  0  0  0  0  0
  182.4120   21.2770   50.4910 O   0  0  0  0  0  0  0  0  0  0  0  0
  180.1580   21.6550   49.6590 C   0  0  0  0  0  0  0  0  0  0  0  0
  179.7430   22.4020   50.8480 C   0  0  0  0  0  0  0  0  0  0  0  0
  180.5090   22.6120   51.7850 O   0  0  0  0  0  0  0  0  0  0  0  0
  178.3510   22.9070   50.8890 C   0  0  0  0  0  0  0  0  0  0  0  0
  177.9740   23.6230   52.0100 O   0  0  0  0  0  0  0  0  0  0  0  0
  175.0970   22.2540   49.4490 C   0  0  0  0  0  0  0  0  0  0  0  0
  173.7840   22.7230   49.3530 C   0  0  0  0  0  0  0  0  0  0  0  0
  173.4850   24.0800   49.5560 C   0  0  0  0  0  0  0  0  0  0  0  0
  172.0510   24.5360   49.4590 C   0  0  0  0  0  0  0  0  0  0  0  0
  171.4420   24.1680   48.2960 F   0  0  0  0  0  0  0  0  0  0  0  0
  174.2431   26.6367   51.1914 H   0  0  0  0  0  0  0  0  0  0  0  0
  175.0889   27.0187   49.6534 H   0  0  0  0  0  0  0  0  0  0  0  0
  173.3184   26.7155   49.6534 H   0  0  0  0  0  0  0  0  0  0  0  0
  176.6639   25.1799   50.1968 H   0  0  0  0  0  0  0  0  0  0  0  0
  178.8450   20.6227   46.6844 H   0  0  0  0  0  0  0  0  0  0  0  0
  181.1474   19.6881   46.4565 H   0  0  0  0  0  0  0  0  0  0  0  0
  182.8177   20.0155   48.2826 H   0  0  0  0  0  0  0  0  0  0  0  0
  182.2490   21.8130   51.2420 H   0  0  0  0  0  0  0  0  0  0  0  0
  177.6950   24.5140   51.9250 H   0  0  0  0  0  0  0  0  0  0  0  0
  175.3080   21.1885   49.2755 H   0  0  0  0  0  0  0  0  0  0  0  0
  172.9730   22.0190   49.1150 H   0  0  0  0  0  0  0  0  0  0  0  0
  171.4895   24.1012   50.2991 H   0  0  0  0  0  0  0  0  0  0  0  0
  172.0579   25.6356   49.4874 H   0  0  0  0  0  0  0  0  0  0  0  0
  1  2  1  0
  2  3  2  0
  3  4  1  0
  4  5  1  0
  5  6  1  0
  6  7  1  0
  7  8  2  0
  8  9  1  0
  9 10  2  0
 10 11  1  0
 11 12  1  0
 11 13  2  0
 13 14  1  0
 14 15  2  0
 14 16  1  0
 16 17  1  0
  4 18  2  0
 18 19  1  0
 19 20  2  0
 20 21  1  0
 21 22  1  0
 20  2  1  0
 16  5  2  0
 13  7  1  0
  1 23  1  0
  1 24  1  0
  1 25  1  0
  3 26  1  0
  8 27  1  0
  9 28  1  0
 10 29  1  0
 12 30  1  0
 17 31  1  0
 18 32  1  0
 19 33  1  0
 21 34  1  0
 21 35  1  0
M  END
>  <meeko>  (2) 
{"is_sidechain": [false], "free_energy": -7.391, "intermolecular_energy": -8.743, "internal_energy": -0.155}

$$$$
cand_037_out
     RDKit          3D

 35 37  0  0  0  0  0  0  0  0999 V2000
  179.9930   13.8750   44.8800 C   0  0  0  0  0  0  0  0  0  0  0  0
  180.4280   15.2110   44.3410 C   0  0  0  0  0  0  0  0  0  0  0  0
  180.2530   16.3570   45.1380 C   0  0  0  0  0  0  0  0  0  0  0  0
  180.6350   17.6310   44.6910 C   0  0  0  0  0  0  0  0  0  0  0  0
  180.4140   18.8120   45.5530 C   0  0  0  0  0  0  0  0  0  0  0  0
  181.5430   19.6160   45.6670 O   0  0  0  0  0  0  0  0  0  0  0  0
  181.4760   20.7470   46.4380 C   0  0  0  0  0  0  0  0  0  0  0  0
  182.6360   21.5180   46.5360 C   0  0  0  0  0  0  0  0  0  0  0  0
  182.6350   22.6830   47.3050 C   0  0  0  0  0  0  0  0  0  0  0  0
  181.4760   23.0800   47.9740 C   0  0  0  0  0  0  0  0  0  0  0  0
  180.3190   22.3110   47.8750 C   0  0  0  0  0  0  0  0  0  0  0  0
  179.2200   22.7570   48.5550 O   0  0  0  0  0  0  0  0  0  0  0  0
  180.3210   21.1430   47.1070 C   0  0  0  0  0  0  0  0  0  0  0  0
  179.1270   20.3060   46.9760 C   0  0  0  0  0  0  0  0  0  0  0  0
  178.0680   20.5910   47.5280 O   0  0  0  0  0  0  0  0  0  0  0  0
  179.2350   19.0840   46.1440 C   0  0  0  0  0  0  0  0  0  0  0  0
  178.0990   18.3080   46.0160 O   0  0  0  0  0  0  0  0  0  0  0  0
  181.1810   17.7480   43.4090 C   0  0  0  0  0  0  0  0  0  0  0  0
  181.3510   16.6210   42.6000 C   0  0  0  0  0  0  0  0  0  0  0  0
  180.9690   15.3470   43.0470 C   0  0  0  0  0  0  0  0  0  0  0  0
  181.1890   14.1580   42.1460 C   0  0  0  0  0  0  0  0  0  0  0  0
  181.1800   14.4740   40.8200 F   0  0  0  0  0  0  0  0  0  0  0  0
  180.0020   13.9027   45.9796 H   0  0  0  0  0  0  0  0  0  0  0  0
  178.9755   13.6509   44.5272 H   0  0  0  0  0  0  0  0  0  0  0  0
  180.6835   13.0948   44.5272 H   0  0  0  0  0  0  0  0  0  0  0  0
  179.8052   16.2516   46.1372 H   0  0  0  0  0  0  0  0  0  0  0  0
  183.5496   21.2077   46.0078 H   0  0  0  0  0  0  0  0  0  0  0  0
  183.5494   23.2894   47.3839 H   0  0  0  0  0  0  0  0  0  0  0  0
  181.4764   23.9990   48.5786 H   0  0  0  0  0  0  0  0  0  0  0  0
  179.0900   23.6760   48.6830 H   0  0  0  0  0  0  0  0  0  0  0  0
  177.9190   17.6340   46.6410 H   0  0  0  0  0  0  0  0  0  0  0  0
  181.4799   18.7376   43.0332 H   0  0  0  0  0  0  0  0  0  0  0  0
  181.7907   16.7345   41.5981 H   0  0  0  0  0  0  0  0  0  0  0  0
  182.1635   13.7105   42.3911 H   0  0  0  0  0  0  0  0  0  0  0  0
  180.3558   13.4610   42.3192 H   0  0  0  0  0  0  0  0  0  0  0  0
  1  2  1  0
  2  3  2  0
  3  4  1  0
  4  5  1  0
  5  6  1  0
  6  7  1  0
  7  8  2  0
  8  9  1  0
  9 10  2  0
 10 11  1  0
 11 12  1  0
 11 13  2  0
 13 14  1  0
 14 15  2  0
 14 16  1  0
 16 17  1  0
  4 18  2  0
 18 19  1  0
 19 20  2  0
 20 21  1  0
 21 22  1  0
 20  2  1  0
 16  5  2  0
 13  7  1  0
  1 23  1  0
  1 24  1  0
  1 25  1  0
  3 26  1  0
  8 27  1  0
  9 28  1  0
 10 29  1  0
 12 30  1  0
 17 31  1  0
 18 32  1  0
 19 33  1  0
 21 34  1  0
 21 35  1  0
M  END
>  <meeko>  (3) 
{"is_sidechain": [false], "free_energy": -7.224, "intermolecular_energy": -8.587, "internal_energy": -0.114}

$$$$
cand_037_out
     RDKit          3D

 35 37  0  0  0  0  0  0  0  0999 V2000
  178.6400   20.7730   46.5950 C   0  0  0  0  0  0  0  0  0  0  0  0
  177.4120   20.6980   47.4610 C   0  0  0  0  0  0  0  0  0  0  0  0
  177.2400   21.6480   48.4840 C   0  0  0  0  0  0  0  0  0  0  0  0
  176.1180   21.6290   49.3260 C   0  0  0  0  0  0  0  0  0  0  0  0
  175.9870   22.6350   50.4020 C   0  0  0  0  0  0  0  0  0  0  0  0
  175.4660   23.8430   49.9510 O   0  0  0  0  0  0  0  0  0  0  0  0
  175.2900   24.8650   50.8480 C   0  0  0  0  0  0  0  0  0  0  0  0
  174.7780   26.0650   50.3500 C   0  0  0  0  0  0  0  0  0  0  0  0
  174.5740   27.1450   51.2100 C   0  0  0  0  0  0  0  0  0  0  0  0
  174.8800   27.0270   52.5670 C   0  0  0  0  0  0  0  0  0  0  0  0
  175.3890   25.8300   53.0630 C   0  0  0  0  0  0  0  0  0  0  0  0
  175.6660   25.7830   54.4010 O   0  0  0  0  0  0  0  0  0  0  0  0
  175.5950   24.7490   52.2010 C   0  0  0  0  0  0  0  0  0  0  0  0
  176.1300   23.4730   52.6800 C   0  0  0  0  0  0  0  0  0  0  0  0
  176.4160   23.2890   53.8600 O   0  0  0  0  0  0  0  0  0  0  0  0
  176.3180   22.3910   51.6840 C   0  0  0  0  0  0  0  0  0  0  0  0
  176.8090   21.1860   52.1500 O   0  0  0  0  0  0  0  0  0  0  0  0
  175.1680   20.6190   49.1440 C   0  0  0  0  0  0  0  0  0  0  0  0
  175.3300   19.6600   48.1400 C   0  0  0  0  0  0  0  0  0  0  0  0
  176.4530   19.6780   47.2970 C   0  0  0  0  0  0  0  0  0  0  0  0
  176.5740   18.6340   46.2160 C   0  0  0  0  0  0  0  0  0  0  0  0
  175.5700   17.7120   46.2390 F   0  0  0  0  0  0  0  0  0  0  0  0
  179.5351   20.8277   47.2320 H   0  0  0  0  0  0  0  0  0  0  0  0
  178.6961   19.8766   45.9599 H   0  0  0  0  0  0  0  0  0  0  0  0
  178.5866   21.6696   45.9599 H   0  0  0  0  0  0  0  0  0  0  0  0
  178.0047   22.4256   48.6275 H   0  0  0  0  0  0  0  0  0  0  0  0
  174.5358   26.1589   49.2811 H   0  0  0  0  0  0  0  0  0  0  0  0
  174.1715   28.0907   50.8180 H   0  0  0  0  0  0  0  0  0  0  0  0
  174.7190   27.8791   53.2437 H   0  0  0  0  0  0  0  0  0  0  0  0
  175.9190   26.5620   54.8550 H   0  0  0  0  0  0  0  0  0  0  0  0
  176.2480   20.4370   52.1920 H   0  0  0  0  0  0  0  0  0  0  0  0
  174.2842   20.5788   49.7976 H   0  0  0  0  0  0  0  0  0  0  0  0
  174.5663   18.8794   48.0082 H   0  0  0  0  0  0  0  0  0  0  0  0
  176.5604   19.1401   45.2394 H   0  0  0  0  0  0  0  0  0  0  0  0
  177.5157   18.0931   46.3909 H   0  0  0  0  0  0  0  0  0  0  0  0
  1  2  1  0
  2  3  2  0
  3  4  1  0
  4  5  1  0
  5  6  1  0
  6  7  1  0
  7  8  2  0
  8  9  1  0
  9 10  2  0
 10 11  1  0
 11 12  1  0
 11 13  2  0
 13 14  1  0
 14 15  2  0
 14 16  1  0
 16 17  1  0
  4 18  2  0
 18 19  1  0
 19 20  2  0
 20 21  1  0
 21 22  1  0
 20  2  1  0
 16  5  2  0
 13  7  1  0
  1 23  1  0
  1 24  1  0
  1 25  1  0
  3 26  1  0
  8 27  1  0
  9 28  1  0
 10 29  1  0
 12 30  1  0
 17 31  1  0
 18 32  1  0
 19 33  1  0
 21 34  1  0
 21 35  1  0
M  END
>  <meeko>  (4) 
{"is_sidechain": [false], "free_energy": -7.143, "intermolecular_energy": -8.219, "internal_energy": -0.387}

$$$$
cand_037_out
     RDKit          3D

 35 37  0  0  0  0  0  0  0  0999 V2000
  182.7880   25.3040   47.2900 C   0  0  0  0  0  0  0  0  0  0  0  0
  182.5540   23.9420   47.8850 C   0  0  0  0  0  0  0  0  0  0  0  0
  181.2360   23.5400   48.1710 C   0  0  0  0  0  0  0  0  0  0  0  0
  180.9540   22.2840   48.7290 C   0  0  0  0  0  0  0  0  0  0  0  0
  179.5560   21.9090   49.0330 C   0  0  0  0  0  0  0  0  0  0  0  0
  178.8270   21.5790   47.8960 O   0  0  0  0  0  0  0  0  0  0  0  0
  177.5130   21.2100   48.0350 C   0  0  0  0  0  0  0  0  0  0  0  0
  176.8150   20.9010   46.8660 C   0  0  0  0  0  0  0  0  0  0  0  0
  175.4750   20.5170   46.9370 C   0  0  0  0  0  0  0  0  0  0  0  0
  174.8320   20.4410   48.1740 C   0  0  0  0  0  0  0  0  0  0  0  0
  175.5310   20.7490   49.3390 C   0  0  0  0  0  0  0  0  0  0  0  0
  174.8410   20.6540   50.5170 O   0  0  0  0  0  0  0  0  0  0  0  0
  176.8720   21.1350   49.2680 C   0  0  0  0  0  0  0  0  0  0  0  0
  177.6430   21.4680   50.4670 C   0  0  0  0  0  0  0  0  0  0  0  0
  177.1510   21.4190   51.5910 O   0  0  0  0  0  0  0  0  0  0  0  0
  179.0570   21.8730   50.2820 C   0  0  0  0  0  0  0  0  0  0  0  0
  179.7790   22.1710   51.4220 O   0  0  0  0  0  0  0  0  0  0  0  0
  182.0240   21.4320   49.0230 C   0  0  0  0  0  0  0  0  0  0  0  0
  183.3390   21.8210   48.7560 C   0  0  0  0  0  0  0  0  0  0  0  0
  183.6220   23.0780   48.1980 C   0  0  0  0  0  0  0  0  0  0  0  0
  185.0560   23.4450   47.9100 C   0  0  0  0  0  0  0  0  0  0  0  0
  185.3750   23.3850   46.5860 F   0  0  0  0  0  0  0  0  0  0  0  0
  182.9145   26.0401   48.0976 H   0  0  0  0  0  0  0  0  0  0  0  0
  183.6955   25.2817   46.6687 H   0  0  0  0  0  0  0  0  0  0  0  0
  181.9251   25.5859   46.6687 H   0  0  0  0  0  0  0  0  0  0  0  0
  180.4061   24.2278   47.9516 H   0  0  0  0  0  0  0  0  0  0  0  0
  177.3203   20.9601   45.8907 H   0  0  0  0  0  0  0  0  0  0  0  0
  174.9243   20.2737   46.0164 H   0  0  0  0  0  0  0  0  0  0  0  0
  173.7758   20.1386   48.2285 H   0  0  0  0  0  0  0  0  0  0  0  0
  175.2490   20.2710   51.2680 H   0  0  0  0  0  0  0  0  0  0  0  0
  179.6520   22.9930   51.8550 H   0  0  0  0  0  0  0  0  0  0  0  0
  181.8279   20.4457   49.4689 H   0  0  0  0  0  0  0  0  0  0  0  0
  184.1651   21.1322   48.9864 H   0  0  0  0  0  0  0  0  0  0  0  0
  185.2312   24.4714   48.2646 H   0  0  0  0  0  0  0  0  0  0  0  0
  185.6896   22.7115   48.4301 H   0  0  0  0  0  0  0  0  0  0  0  0
  1  2  1  0
  2  3  2  0
  3  4  1  0
  4  5  1  0
  5  6  1  0
  6  7  1  0
  7  8  2  0
  8  9  1  0
  9 10  2  0
 10 11  1  0
 11 12  1  0
 11 13  2  0
 13 14  1  0
 14 15  2  0
 14 16  1  0
 16 17  1  0
  4 18  2  0
 18 19  1  0
 19 20  2  0
 20 21  1  0
 21 22  1  0
 20  2  1  0
 16  5  2  0
 13  7  1  0
  1 23  1  0
  1 24  1  0
  1 25  1  0
  3 26  1  0
  8 27  1  0
  9 28  1  0
 10 29  1  0
 12 30  1  0
 17 31  1  0
 18 32  1  0
 19 33  1  0
 21 34  1  0
 21 35  1  0
M  END
>  <meeko>  (5) 
{"is_sidechain": [false], "free_energy": -7.101, "intermolecular_energy": -8.175, "internal_energy": -0.382}

$$$$
cand_037_out
     RDKit          3D

 35 37  0  0  0  0  0  0  0  0999 V2000
  178.7830   19.3020   46.2310 C   0  0  0  0  0  0  0  0  0  0  0  0
  179.1240   20.4960   47.0810 C   0  0  0  0  0  0  0  0  0  0  0  0
  178.2020   20.9270   48.0520 C   0  0  0  0  0  0  0  0  0  0  0  0
  178.4610   22.0350   48.8730 C   0  0  0  0  0  0  0  0  0  0  0  0
  177.4550   22.4660   49.8680 C   0  0  0  0  0  0  0  0  0  0  0  0
  176.3320   23.0430   49.2860 O   0  0  0  0  0  0  0  0  0  0  0  0
  175.3190   23.4870   50.0960 C   0  0  0  0  0  0  0  0  0  0  0  0
  174.2160   24.0720   49.4700 C   0  0  0  0  0  0  0  0  0  0  0  0
  173.1500   24.5430   50.2370 C   0  0  0  0  0  0  0  0  0  0  0  0
  173.1830   24.4300   51.6280 C   0  0  0  0  0  0  0  0  0  0  0  0
  174.2830   23.8460   52.2510 C   0  0  0  0  0  0  0  0  0  0  0  0
  174.2500   23.7660   53.6160 O   0  0  0  0  0  0  0  0  0  0  0  0
  175.3520   23.3750   51.4830 C   0  0  0  0  0  0  0  0  0  0  0  0
  176.5270   22.7540   52.0960 C   0  0  0  0  0  0  0  0  0  0  0  0
  176.6280   22.6120   53.3120 O   0  0  0  0  0  0  0  0  0  0  0  0
  177.6090   22.2950   51.1940 C   0  0  0  0  0  0  0  0  0  0  0  0
  178.7080   21.6980   51.7830 O   0  0  0  0  0  0  0  0  0  0  0  0
  179.6600   22.7300   48.6910 C   0  0  0  0  0  0  0  0  0  0  0  0
  180.5820   22.3220   47.7230 C   0  0  0  0  0  0  0  0  0  0  0  0
  180.3230   21.2140   46.9010 C   0  0  0  0  0  0  0  0  0  0  0  0
  181.3560   20.8000   45.8830 C   0  0  0  0  0  0  0  0  0  0  0  0
  182.5910   21.3260   46.1210 F   0  0  0  0  0  0  0  0  0  0  0  0
  178.5391   18.4478   46.8797 H   0  0  0  0  0  0  0  0  0  0  0  0
  177.9167   19.5393   45.5960 H   0  0  0  0  0  0  0  0  0  0  0  0
  179.6440   19.0461   45.5960 H   0  0  0  0  0  0  0  0  0  0  0  0
  177.2541   20.3817   48.1707 H   0  0  0  0  0  0  0  0  0  0  0  0
  174.1878   24.1612   48.3740 H   0  0  0  0  0  0  0  0  0  0  0  0
  172.2814   25.0045   49.7445 H   0  0  0  0  0  0  0  0  0  0  0  0
  172.3414   24.8017   52.2310 H   0  0  0  0  0  0  0  0  0  0  0  0
  173.5510   24.1670   54.0920 H   0  0  0  0  0  0  0  0  0  0  0  0
  178.7470   20.7650   51.8630 H   0  0  0  0  0  0  0  0  0  0  0  0
  179.8804   23.6076   49.3164 H   0  0  0  0  0  0  0  0  0  0  0  0
  181.5241   22.8771   47.6036 H   0  0  0  0  0  0  0  0  0  0  0  0
  181.4361   19.7030   45.8937 H   0  0  0  0  0  0  0  0  0  0  0  0
  181.0223   21.1827   44.9072 H   0  0  0  0  0  0  0  0  0  0  0  0
  1  2  1  0
  2  3  2  0
  3  4  1  0
  4  5  1  0
  5  6  1  0
  6  7  1  0
  7  8  2  0
  8  9  1  0
  9 10  2  0
 10 11  1  0
 11 12  1  0
 11 13  2  0
 13 14  1  0
 14 15  2  0
 14 16  1  0
 16 17  1  0
  4 18  2  0
 18 19  1  0
 19 20  2  0
 20 21  1  0
 21 22  1  0
 20  2  1  0
 16  5  2  0
 13  7  1  0
  1 23  1  0
  1 24  1  0
  1 25  1  0
  3 26  1  0
  8 27  1  0
  9 28  1  0
 10 29  1  0
 12 30  1  0
 17 31  1  0
 18 32  1  0
 19 33  1  0
 21 34  1  0
 21 35  1  0
M  END
>  <meeko>  (6) 
{"is_sidechain": [false], "free_energy": -7.058, "intermolecular_energy": -8.141, "internal_energy": -0.365}

$$$$
cand_037_out
     RDKit          3D

 35 37  0  0  0  0  0  0  0  0999 V2000
  177.9160   23.8080   47.3470 C   0  0  0  0  0  0  0  0  0  0  0  0
  176.9740   22.8330   47.9990 C   0  0  0  0  0  0  0  0  0  0  0  0
  176.1130   23.2900   49.0140 C   0  0  0  0  0  0  0  0  0  0  0  0
  175.2150   22.4290   49.6610 C   0  0  0  0  0  0  0  0  0  0  0  0
  174.3420   22.9480   50.7360 C   0  0  0  0  0  0  0  0  0  0  0  0
  175.0490   23.3170   51.8750 O   0  0  0  0  0  0  0  0  0  0  0  0
  174.3610   23.8160   52.9510 C   0  0  0  0  0  0  0  0  0  0  0  0
  175.1090   24.1600   54.0780 C   0  0  0  0  0  0  0  0  0  0  0  0
  174.4700   24.6760   55.2070 C   0  0  0  0  0  0  0  0  0  0  0  0
  173.0840   24.8490   55.2100 C   0  0  0  0  0  0  0  0  0  0  0  0
  172.3400   24.5060   54.0840 C   0  0  0  0  0  0  0  0  0  0  0  0
  170.9880   24.7010   54.1540 O   0  0  0  0  0  0  0  0  0  0  0  0
  172.9800   23.9880   52.9550 C   0  0  0  0  0  0  0  0  0  0  0  0
  172.2350   23.6140   51.7510 C   0  0  0  0  0  0  0  0  0  0  0  0
  171.0160   23.7430   51.6730 O   0  0  0  0  0  0  0  0  0  0  0  0
  173.0070   23.0680   50.6100 C   0  0  0  0  0  0  0  0  0  0  0  0
  172.2960   22.7310   49.4730 O   0  0  0  0  0  0  0  0  0  0  0  0
  175.2040   21.0810   49.2910 C   0  0  0  0  0  0  0  0  0  0  0  0
  176.0600   20.6080   48.2930 C   0  0  0  0  0  0  0  0  0  0  0  0
  176.9600   21.4690   47.6450 C   0  0  0  0  0  0  0  0  0  0  0  0
  177.8510   20.9160   46.5620 C   0  0  0  0  0  0  0  0  0  0  0  0
  177.1630   20.4490   45.4810 F   0  0  0  0  0  0  0  0  0  0  0  0
  178.4579   24.3689   48.1227 H   0  0  0  0  0  0  0  0  0  0  0  0
  178.6354   23.2600   46.7208 H   0  0  0  0  0  0  0  0  0  0  0  0
  177.3435   24.5081   46.7208 H   0  0  0  0  0  0  0  0  0  0  0  0
  176.1453   24.3497   49.3073 H   0  0  0  0  0  0  0  0  0  0  0  0
  176.2006   24.0247   54.0767 H   0  0  0  0  0  0  0  0  0  0  0  0
  175.0591   24.9468   56.0957 H   0  0  0  0  0  0  0  0  0  0  0  0
  172.5812   25.2554   56.1000 H   0  0  0  0  0  0  0  0  0  0  0  0
  170.6430   25.5690   54.2270 H   0  0  0  0  0  0  0  0  0  0  0  0
  172.4640   23.1770   48.6670 H   0  0  0  0  0  0  0  0  0  0  0  0
  174.5141   20.3852   49.7909 H   0  0  0  0  0  0  0  0  0  0  0  0
  176.0283   19.5453   48.0108 H   0  0  0  0  0  0  0  0  0  0  0  0
  178.5283   21.7149   46.2258 H   0  0  0  0  0  0  0  0  0  0  0  0
  178.3959   20.0634   46.9934 H   0  0  0  0  0  0  0  0  0  0  0  0
  1  2  1  0
  2  3  2  0
  3  4  1  0
  4  5  1  0
  5  6  1  0
  6  7  1  0
  7  8  2  0
  8  9  1  0
  9 10  2  0
 10 11  1  0
 11 12  1  0
 11 13  2  0
 13 14  1  0
 14 15  2  0
 14 16  1  0
 16 17  1  0
  4 18  2  0
 18 19  1  0
 19 20  2  0
 20 21  1  0
 21 22  1  0
 20  2  1  0
 16  5  2  0
 13  7  1  0
  1 23  1  0
  1 24  1  0
  1 25  1  0
  3 26  1  0
  8 27  1  0
  9 28  1  0
 10 29  1  0
 12 30  1  0
 17 31  1  0
 18 32  1  0
 19 33  1  0
 21 34  1  0
 21 35  1  0
M  END
>  <meeko>  (7) 
{"is_sidechain": [false], "free_energy": -7.052, "intermolecular_energy": -8.135, "internal_energy": -0.364}

$$$$
cand_037_out
     RDKit          3D

 35 37  0  0  0  0  0  0  0  0999 V2000
  181.4000   21.7250   47.4100 C   0  0  0  0  0  0  0  0  0  0  0  0
  179.9620   21.2980   47.5230 C   0  0  0  0  0  0  0  0  0  0  0  0
  179.1510   21.8860   48.5110 C   0  0  0  0  0  0  0  0  0  0  0  0
  177.8040   21.5280   48.6680 C   0  0  0  0  0  0  0  0  0  0  0  0
  176.9940   22.1560   49.7330 C   0  0  0  0  0  0  0  0  0  0  0  0
  175.8910   22.8440   49.2380 O   0  0  0  0  0  0  0  0  0  0  0  0
  175.0520   23.4740   50.1200 C   0  0  0  0  0  0  0  0  0  0  0  0
  173.9650   24.1650   49.5790 C   0  0  0  0  0  0  0  0  0  0  0  0
  173.0720   24.8270   50.4220 C   0  0  0  0  0  0  0  0  0  0  0  0
  173.2620   24.8000   51.8050 C   0  0  0  0  0  0  0  0  0  0  0  0
  174.3450   24.1100   52.3430 C   0  0  0  0  0  0  0  0  0  0  0  0
  174.4710   24.1240   53.7050 O   0  0  0  0  0  0  0  0  0  0  0  0
  175.2410   23.4480   51.4990 C   0  0  0  0  0  0  0  0  0  0  0  0
  176.3930   22.7120   52.0230 C   0  0  0  0  0  0  0  0  0  0  0  0
  176.6240   22.6360   53.2270 O   0  0  0  0  0  0  0  0  0  0  0  0
  177.2860   22.0510   51.0430 C   0  0  0  0  0  0  0  0  0  0  0  0
  178.3630   21.3470   51.5490 O   0  0  0  0  0  0  0  0  0  0  0  0
  177.2760   20.5430   47.8270 C   0  0  0  0  0  0  0  0  0  0  0  0
  178.0710   19.9400   46.8480 C   0  0  0  0  0  0  0  0  0  0  0  0
  179.4190   20.2980   46.6910 C   0  0  0  0  0  0  0  0  0  0  0  0
  180.2310   19.6340   45.6080 C   0  0  0  0  0  0  0  0  0  0  0  0
  180.1090   20.2370   44.3910 F   0  0  0  0  0  0  0  0  0  0  0  0
  181.8252   21.8513   48.4166 H   0  0  0  0  0  0  0  0  0  0  0  0
  181.9688   20.9570   46.8654 H   0  0  0  0  0  0  0  0  0  0  0  0
  181.4575   22.6790   46.8654 H   0  0  0  0  0  0  0  0  0  0  0  0
  179.5846   22.6461   49.1775 H   0  0  0  0  0  0  0  0  0  0  0  0
  173.8134   24.1871   48.4897 H   0  0  0  0  0  0  0  0  0  0  0  0
  172.2163   25.3715   49.9962 H   0  0  0  0  0  0  0  0  0  0  0  0
  172.5573   25.3229   52.4683 H   0  0  0  0  0  0  0  0  0  0  0  0
  174.2510   24.8960   54.1880 H   0  0  0  0  0  0  0  0  0  0  0  0
  178.2270   20.5180   51.9650 H   0  0  0  0  0  0  0  0  0  0  0  0
  176.2244   20.2397   47.9371 H   0  0  0  0  0  0  0  0  0  0  0  0
  177.6337   19.1737   46.1911 H   0  0  0  0  0  0  0  0  0  0  0  0
  181.2904   19.6566   45.9034 H   0  0  0  0  0  0  0  0  0  0  0  0
  179.8503   18.6076   45.5007 H   0  0  0  0  0  0  0  0  0  0  0  0
  1  2  1  0
  2  3  2  0
  3  4  1  0
  4  5  1  0
  5  6  1  0
  6  7  1  0
  7  8  2  0
  8  9  1  0
  9 10  2  0
 10 11  1  0
 11 12  1  0
 11 13  2  0
 13 14  1  0
 14 15  2  0
 14 16  1  0
 16 17  1  0
  4 18  2  0
 18 19  1  0
 19 20  2  0
 20 21  1  0
 21 22  1  0
 20  2  1  0
 16  5  2  0
 13  7  1  0
  1 23  1  0
  1 24  1  0
  1 25  1  0
  3 26  1  0
  8 27  1  0
  9 28  1  0
 10 29  1  0
 12 30  1  0
 17 31  1  0
 18 32  1  0
 19 33  1  0
 21 34  1  0
 21 35  1  0
M  END
>  <meeko>  (8) 
{"is_sidechain": [false], "free_energy": -7.023, "intermolecular_energy": -8.188, "internal_energy": -0.277}

$$$$
cand_037_out
     RDKit          3D

 35 37  0  0  0  0  0  0  0  0999 V2000
  172.1520   23.7040   53.4930 C   0  0  0  0  0  0  0  0  0  0  0  0
  172.1890   23.8710   51.9990 C   0  0  0  0  0  0  0  0  0  0  0  0
  173.2970   23.3810   51.2840 C   0  0  0  0  0  0  0  0  0  0  0  0
  173.3910   23.5090   49.8910 C   0  0  0  0  0  0  0  0  0  0  0  0
  174.5840   22.9970   49.1820 C   0  0  0  0  0  0  0  0  0  0  0  0
  174.4050   21.7110   48.6840 O   0  0  0  0  0  0  0  0  0  0  0  0
  175.4350   21.1150   48.0030 C   0  0  0  0  0  0  0  0  0  0  0  0
  175.2170   19.8180   47.5330 C   0  0  0  0  0  0  0  0  0  0  0  0
  176.2240   19.1540   46.8300 C   0  0  0  0  0  0  0  0  0  0  0  0
  177.4480   19.7850   46.5950 C   0  0  0  0  0  0  0  0  0  0  0  0
  177.6620   21.0790   47.0630 C   0  0  0  0  0  0  0  0  0  0  0  0
  178.8820   21.6380   46.7980 O   0  0  0  0  0  0  0  0  0  0  0  0
  176.6550   21.7430   47.7690 C   0  0  0  0  0  0  0  0  0  0  0  0
  176.8390   23.1030   48.2790 C   0  0  0  0  0  0  0  0  0  0  0  0
  177.8830   23.7270   48.1070 O   0  0  0  0  0  0  0  0  0  0  0  0
  175.7110   23.7150   49.0200 C   0  0  0  0  0  0  0  0  0  0  0  0
  175.8900   25.0040   49.4850 O   0  0  0  0  0  0  0  0  0  0  0  0
  172.3580   24.1650   49.2130 C   0  0  0  0  0  0  0  0  0  0  0  0
  171.2560   24.6680   49.9090 C   0  0  0  0  0  0  0  0  0  0  0  0
  171.1610   24.5400   51.3030 C   0  0  0  0  0  0  0  0  0  0  0  0
  169.9430   25.0830   52.0080 C   0  0  0  0  0  0  0  0  0  0  0  0
  170.0510   26.4010   52.3380 F   0  0  0  0  0  0  0  0  0  0  0  0
  172.3659   24.6692   53.9753 H   0  0  0  0  0  0  0  0  0  0  0  0
  171.1546   23.3546   53.7983 H   0  0  0  0  0  0  0  0  0  0  0  0
  172.9084   22.9660   53.7983 H   0  0  0  0  0  0  0  0  0  0  0  0
  174.1111   22.8843   51.8323 H   0  0  0  0  0  0  0  0  0  0  0  0
  174.2533   19.3204   47.7165 H   0  0  0  0  0  0  0  0  0  0  0  0
  176.0533   18.1321   46.4605 H   0  0  0  0  0  0  0  0  0  0  0  0
  178.2410   19.2609   46.0415 H   0  0  0  0  0  0  0  0  0  0  0  0
  178.9350   22.5120   46.4640 H   0  0  0  0  0  0  0  0  0  0  0  0
  175.1870   25.6220   49.4360 H   0  0  0  0  0  0  0  0  0  0  0  0
  172.4140   24.2860   48.1211 H   0  0  0  0  0  0  0  0  0  0  0  0
  170.4502   25.1723   49.3555 H   0  0  0  0  0  0  0  0  0  0  0  0
  169.0731   24.9594   51.3462 H   0  0  0  0  0  0  0  0  0  0  0  0
  169.8341   24.5210   52.9473 H   0  0  0  0  0  0  0  0  0  0  0  0
  1  2  1  0
  2  3  2  0
  3  4  1  0
  4  5  1  0
  5  6  1  0
  6  7  1  0
  7  8  2  0
  8  9  1  0
  9 10  2  0
 10 11  1  0
 11 12  1  0
 11 13  2  0
 13 14  1  0
 14 15  2  0
 14 16  1  0
 16 17  1  0
  4 18  2  0
 18 19  1  0
 19 20  2  0
 20 21  1  0
 21 22  1  0
 20  2  1  0
 16  5  2  0
 13  7  1  0
  1 23  1  0
  1 24  1  0
  1 25  1  0
  3 26  1  0
  8 27  1  0
  9 28  1  0
 10 29  1  0
 12 30  1  0
 17 31  1  0
 18 32  1  0
 19 33  1  0
 21 34  1  0
 21 35  1  0
M  END
>  <meeko>  (9) 
{"is_sidechain": [false], "free_energy": -6.966, "intermolecular_energy": -7.959, "internal_energy": -0.438}

$$$$
