03_receptors/7Q8Y/native_9IV.pdb
 OpenBabel09242623243D

 37 40  0  0  1  0  0  0  0  0999 V2000
   22.7940  -27.0010   43.4930 N   0  0  0  0  0  0  0  0  0  0  0  0
   18.7540  -22.4440   36.2060 C   0  0  0  0  0  0  0  0  0  0  0  0
   25.2900  -30.0450   44.4870 N   0  0  0  0  0  0  0  0  0  0  0  0
   19.1930  -22.6660   38.5530 C   0  0  0  0  0  0  0  0  0  0  0  0
   18.5420  -23.8940   38.5540 C   0  0  0  0  0  0  0  0  0  0  0  0
   19.3430  -25.4540   40.1750 C   0  0  0  0  0  0  0  0  0  0  0  0
   17.2140  -25.9360   37.3590 Cl  0  0  0  0  0  0  0  0  0  0  0  0
   18.0180  -24.3960   37.3660 C   0  0  0  0  0  0  0  0  0  0  0  0
   19.3020  -21.9540   37.3730 C   0  0  0  0  0  0  0  0  0  0  0  0
   18.1190  -23.6730   36.1930 C   0  0  0  0  0  0  0  0  0  0  0  0
   18.3500  -24.5910   39.7310 O   0  0  0  0  0  0  0  0  0  0  0  0
   20.3410  -25.9070   39.3230 C   0  0  0  0  0  0  0  0  0  0  0  0
   21.2680  -26.8270   39.7790 C   0  0  0  0  0  0  0  0  0  0  0  0
   21.2250  -27.2740   41.0940 C   0  0  0  0  0  0  0  0  0  0  0  0
   20.2320  -26.8000   41.9420 C   0  0  0  0  0  0  0  0  0  0  0  0
   19.2810  -25.9080   41.4770 C   0  0  0  0  0  0  0  0  0  0  0  0
   22.1940  -28.1730   41.5660 N   0  0  0  0  0  0  0  0  0  0  0  0
   22.9310  -28.0910   42.7050 C   0  0  0  0  0  0  0  0  0  0  0  0
   23.7990  -29.1590   43.0660 C   0  0  1  0  0  0  0  0  0  0  0  0
   24.3000  -30.3690   42.4980 C   0  0  0  0  0  0  0  0  0  0  0  0
   25.1970  -30.8710   43.3880 C   0  0  0  0  0  0  0  0  0  0  0  0
   24.4570  -28.9810   44.2910 C   0  0  0  0  0  0  0  0  0  0  0  0
   24.3250  -27.9130   45.1110 N   0  0  0  0  0  0  0  0  0  0  0  0
   23.4930  -26.9870   44.6340 C   0  0  0  0  0  0  0  0  0  0  0  0
   18.8180  -21.8905   35.3373 H   0  0  0  0  0  0  0  0  0  0  0  0
   19.5921  -22.2885   39.4267 H   0  0  0  0  0  0  0  0  0  0  0  0
   19.7973  -21.0487   37.3653 H   0  0  0  0  0  0  0  0  0  0  0  0
   17.7245  -24.0462   35.3155 H   0  0  0  0  0  0  0  0  0  0  0  0
   20.3912  -25.5587   38.3529 H   0  0  0  0  0  0  0  0  0  0  0  0
   21.9952  -27.1832   39.1393 H   0  0  0  0  0  0  0  0  0  0  0  0
   20.2031  -27.1147   42.9244 H   0  0  0  0  0  0  0  0  0  0  0  0
   18.5272  -25.5831   42.1025 H   0  0  0  0  0  0  0  0  0  0  0  0
   22.3607  -28.9619   41.0012 H   0  0  0  0  0  0  0  0  0  0  0  0
   23.0670  -29.2633   42.2925 H   0  0  0  0  0  0  0  0  0  0  0  0
   24.0337  -30.7816   41.5903 H   0  0  0  0  0  0  0  0  0  0  0  0
   25.7311  -31.7446   43.2590 H   0  0  0  0  0  0  0  0  0  0  0  0
   23.3720  -26.1481   45.2228 H   0  0  0  0  0  0  0  0  0  0  0  0
  1 24  1  0  0  0  0
  2  9  1  0  0  0  0
  2 25  1  0  0  0  0
  4  5  1  0  0  0  0
  4 26  1  0  0  0  0
  5 11  1  0  0  0  0
  6 16  1  0  0  0  0
  7  8  1  0  0  0  0
  8  5  2  0  0  0  0
  9  4  2  0  0  0  0
  9 27  1  0  0  0  0
 10  2  2  0  0  0  0
 10  8  1  0  0  0  0
 10 28  1  0  0  0  0
 11  6  1  0  0  0  0
 12 13  1  0  0  0  0
 12  6  2  0  0  0  0
 12 29  1  0  0  0  0
 13 14  2  0  0  0  0
 13 30  1  0  0  0  0
 14 17  1  0  0  0  0
 14 15  1  0  0  0  0
 15 31  1  0  0  0  0
 16 15  2  0  0  0  0
 16 32  1  0  0  0  0
 17 18  1  0  0  0  0
 17 33  1  0  0  0  0
 18 19  1  0  0  0  0
 18  1  2  0  0  0  0
 19 22  1  0  0  0  0
 19 34  1  1  0  0  0
 20 19  1  0  0  0  0
 20 21  2  0  0  0  0
 20 35  1  0  0  0  0
 21  3  1  0  0  0  0
 21 36  1  0  0  0  0
 22  3  2  0  0  0  0
 22 23  1  0  0  0  0
 24 23  2  0  0  0  0
 24 37  1  0  0  0  0
M  END
$$$$
