clorgyline_out
     RDKit          3D

 33 33  0  0  0  0  0  0  0  0999 V2000
   47.1960  159.8040   31.5920 C   0  0  0  0  0  0  0  0  0  0  0  0
   48.2020  160.0080   30.9690 C   0  0  0  0  0  0  0  0  0  0  0  0
   49.4350  160.2630   30.2050 C   0  0  0  0  0  0  0  0  0  0  0  0
   50.6840  159.9860   30.9380 N   0  0  2  0  0  0  0  0  0  0  0  0
   51.1540  161.1700   31.6590 C   0  0  0  0  0  0  0  0  0  0  0  0
   51.7170  159.4120   30.0590 C   0  0  0  0  0  0  0  0  0  0  0  0
   51.4140  157.9560   29.6750 C   0  0  0  0  0  0  0  0  0  0  0  0
   52.5410  157.3450   28.8440 C   0  0  0  0  0  0  0  0  0  0  0  0
   52.1980  155.9980   28.5250 O   0  0  0  0  0  0  0  0  0  0  0  0
   52.6680  155.4730   27.3510 C   0  0  0  0  0  0  0  0  0  0  0  0
   53.1790  156.2310   26.2920 C   0  0  0  0  0  0  0  0  0  0  0  0
   53.6330  155.6020   25.1280 C   0  0  0  0  0  0  0  0  0  0  0  0
   53.5750  154.2150   25.0150 C   0  0  0  0  0  0  0  0  0  0  0  0
   54.1340  153.4510   23.5790 Cl  0  0  0  0  0  0  0  0  0  0  0  0
   53.0680  153.4450   26.0560 C   0  0  0  0  0  0  0  0  0  0  0  0
   52.6150  154.0740   27.2170 C   0  0  0  0  0  0  0  0  0  0  0  0
   51.9940  153.0750   28.4880 Cl  0  0  0  0  0  0  0  0  0  0  0  0
   46.2744  159.6171   32.1627 H   0  0  0  0  0  0  0  0  0  0  0  0
   49.4179  159.6294   29.3060 H   0  0  0  0  0  0  0  0  0  0  0  0
   49.4415  161.3391   29.9769 H   0  0  0  0  0  0  0  0  0  0  0  0
   50.4780  159.2750   31.6420 H   0  0  0  0  0  0  0  0  0  0  0  0
   51.0833  160.9918   32.7422 H   0  0  0  0  0  0  0  0  0  0  0  0
   52.2007  161.3726   31.3883 H   0  0  0  0  0  0  0  0  0  0  0  0
   50.5312  162.0354   31.3883 H   0  0  0  0  0  0  0  0  0  0  0  0
   51.7749  160.0150   29.1409 H   0  0  0  0  0  0  0  0  0  0  0  0
   52.6699  159.4233   30.6085 H   0  0  0  0  0  0  0  0  0  0  0  0
   51.2869  157.3641   30.5934 H   0  0  0  0  0  0  0  0  0  0  0  0
   50.4961  157.9449   29.0690 H   0  0  0  0  0  0  0  0  0  0  0  0
   52.6720  157.9227   27.9171 H   0  0  0  0  0  0  0  0  0  0  0  0
   53.4807  157.3663   29.4154 H   0  0  0  0  0  0  0  0  0  0  0  0
   53.2240  157.3269   26.3751 H   0  0  0  0  0  0  0  0  0  0  0  0
   54.0365  156.2039   24.3004 H   0  0  0  0  0  0  0  0  0  0  0  0
   53.0243  152.3496   25.9654 H   0  0  0  0  0  0  0  0  0  0  0  0
  1  2  3  0
  2  3  1  0
  3  4  1  0
  4  5  1  0
  4  6  1  0
  6  7  1  0
  7  8  1  0
  8  9  1  0
  9 10  1  0
 10 11  2  0
 11 12  1  0
 12 13  2  0
 13 14  1  0
 13 15  1  0
 15 16  2  0
 16 17  1  0
 16 10  1  0
  1 18  1  0
  3 19  1  0
  3 20  1  0
  4 21  1  1
  5 22  1  0
  5 23  1  0
  5 24  1  0
  6 25  1  0
  6 26  1  0
  7 27  1  0
  7 28  1  0
  8 29  1  0
  8 30  1  0
 11 31  1  0
 12 32  1  0
 15 33  1  0
M  CHG  1   4   1
M  END
>  <meeko>  (1) 
{"is_sidechain": [false], "free_energy": -7.915, "intermolecular_energy": -10.691, "internal_energy": -0.343}

$$$$
clorgyline_out
     RDKit          3D

 33 33  0  0  0  0  0  0  0  0999 V2000
   54.9420  154.3740   24.0970 C   0  0  0  0  0  0  0  0  0  0  0  0
   54.2260  154.8900   24.9110 C   0  0  0  0  0  0  0  0  0  0  0  0
   53.3440  155.5220   25.9080 C   0  0  0  0  0  0  0  0  0  0  0  0
   53.1270  154.7280   27.1310 N   0  0  2  0  0  0  0  0  0  0  0  0
   52.4450  153.4670   26.8360 C   0  0  0  0  0  0  0  0  0  0  0  0
   52.4430  155.5100   28.1750 C   0  0  0  0  0  0  0  0  0  0  0  0
   52.6450  157.0220   27.9990 C   0  0  0  0  0  0  0  0  0  0  0  0
   52.4020  157.7810   29.3030 C   0  0  0  0  0  0  0  0  0  0  0  0
   51.3950  158.7650   29.0810 O   0  0  0  0  0  0  0  0  0  0  0  0
   50.8910  159.4300   30.1670 C   0  0  0  0  0  0  0  0  0  0  0  0
   51.5010  160.5340   30.7730 C   0  0  0  0  0  0  0  0  0  0  0  0
   50.9100  161.1450   31.8850 C   0  0  0  0  0  0  0  0  0  0  0  0
   49.7110  160.6530   32.3970 C   0  0  0  0  0  0  0  0  0  0  0  0
   48.9940  161.4100   33.7650 Cl  0  0  0  0  0  0  0  0  0  0  0  0
   49.0920  159.5550   31.8100 C   0  0  0  0  0  0  0  0  0  0  0  0
   49.6830  158.9460   30.7000 C   0  0  0  0  0  0  0  0  0  0  0  0
   48.8750  157.5850   30.0010 Cl  0  0  0  0  0  0  0  0  0  0  0  0
   55.5980  153.9012   23.3512 H   0  0  0  0  0  0  0  0  0  0  0  0
   53.7904  156.4843   26.1991 H   0  0  0  0  0  0  0  0  0  0  0  0
   52.3598  155.6285   25.4284 H   0  0  0  0  0  0  0  0  0  0  0  0
   54.0440  154.4850   27.5090 H   0  0  0  0  0  0  0  0  0  0  0  0
   52.1747  152.9672   27.7779 H   0  0  0  0  0  0  0  0  0  0  0  0
   51.5339  153.6703   26.2542 H   0  0  0  0  0  0  0  0  0  0  0  0
   53.1139  152.8158   26.2542 H   0  0  0  0  0  0  0  0  0  0  0  0
   51.3660  155.2900   28.1329 H   0  0  0  0  0  0  0  0  0  0  0  0
   52.8745  155.2242   29.1456 H   0  0  0  0  0  0  0  0  0  0  0  0
   53.6768  157.2073   27.6658 H   0  0  0  0  0  0  0  0  0  0  0  0
   51.9194  157.3801   27.2538 H   0  0  0  0  0  0  0  0  0  0  0  0
   52.0684  157.0799   30.0822 H   0  0  0  0  0  0  0  0  0  0  0  0
   53.3327  158.2664   29.6319 H   0  0  0  0  0  0  0  0  0  0  0  0
   52.4491  160.9234   30.3737 H   0  0  0  0  0  0  0  0  0  0  0  0
   51.3925  162.0145   32.3552 H   0  0  0  0  0  0  0  0  0  0  0  0
   48.1453  159.1691   32.2160 H   0  0  0  0  0  0  0  0  0  0  0  0
  1  2  3  0
  2  3  1  0
  3  4  1  0
  4  5  1  0
  4  6  1  0
  6  7  1  0
  7  8  1  0
  8  9  1  0
  9 10  1  0
 10 11  2  0
 11 12  1  0
 12 13  2  0
 13 14  1  0
 13 15  1  0
 15 16  2  0
 16 17  1  0
 16 10  1  0
  1 18  1  0
  3 19  1  0
  3 20  1  0
  4 21  1  1
  5 22  1  0
  5 23  1  0
  5 24  1  0
  6 25  1  0
  6 26  1  0
  7 27  1  0
  7 28  1  0
  8 29  1  0
  8 30  1  0
 11 31  1  0
 12 32  1  0
 15 33  1  0
M  CHG  1   4   1
M  END
>  <meeko>  (2) 
{"is_sidechain": [false], "free_energy": -7.877, "intermolecular_energy": -10.596, "internal_energy": -0.387}

$$$$
clorgyline_out
     RDKit          3D

 33 33  0  0  0  0  0  0  0  0999 V2000
   48.8260  161.4140   33.4840 C   0  0  0  0  0  0  0  0  0  0  0  0
   49.7560  161.1320   32.7790 C   0  0  0  0  0  0  0  0  0  0  0  0
   50.8980  160.7830   31.9170 C   0  0  0  0  0  0  0  0  0  0  0  0
   50.5360  160.1170   30.6530 N   0  0  2  0  0  0  0  0  0  0  0  0
   49.4280  159.1800   30.8410 C   0  0  0  0  0  0  0  0  0  0  0  0
   51.7050  159.4890   30.0120 C   0  0  0  0  0  0  0  0  0  0  0  0
   51.4670  158.0070   29.6880 C   0  0  0  0  0  0  0  0  0  0  0  0
   52.5760  157.4360   28.8050 C   0  0  0  0  0  0  0  0  0  0  0  0
   52.3010  156.0590   28.5560 O   0  0  0  0  0  0  0  0  0  0  0  0
   52.7160  155.5240   27.3660 C   0  0  0  0  0  0  0  0  0  0  0  0
   53.2010  156.2710   26.2870 C   0  0  0  0  0  0  0  0  0  0  0  0
   53.5990  155.6320   25.1070 C   0  0  0  0  0  0  0  0  0  0  0  0
   53.5090  154.2460   25.0000 C   0  0  0  0  0  0  0  0  0  0  0  0
   53.9980  153.4700   23.5440 Cl  0  0  0  0  0  0  0  0  0  0  0  0
   53.0270  153.4870   26.0600 C   0  0  0  0  0  0  0  0  0  0  0  0
   52.6300  154.1260   27.2370 C   0  0  0  0  0  0  0  0  0  0  0  0
   52.0390  153.1400   28.5320 Cl  0  0  0  0  0  0  0  0  0  0  0  0
   47.9739  161.6724   34.1299 H   0  0  0  0  0  0  0  0  0  0  0  0
   51.4388  161.7094   31.6733 H   0  0  0  0  0  0  0  0  0  0  0  0
   51.5059  160.0627   32.4841 H   0  0  0  0  0  0  0  0  0  0  0  0
   50.2080  160.8370   30.0070 H   0  0  0  0  0  0  0  0  0  0  0  0
   49.2521  159.0312   31.9166 H   0  0  0  0  0  0  0  0  0  0  0  0
   48.5195  159.5880   30.3739 H   0  0  0  0  0  0  0  0  0  0  0  0
   49.6794  158.2164   30.3739 H   0  0  0  0  0  0  0  0  0  0  0  0
   51.9255  160.0244   29.0767 H   0  0  0  0  0  0  0  0  0  0  0  0
   52.5471  159.5478   30.7173 H   0  0  0  0  0  0  0  0  0  0  0  0
   51.4316  157.4377   30.6286 H   0  0  0  0  0  0  0  0  0  0  0  0
   50.5163  157.9241   29.1409 H   0  0  0  0  0  0  0  0  0  0  0  0
   52.6095  157.9846   27.8522 H   0  0  0  0  0  0  0  0  0  0  0  0
   53.5472  157.5379   29.3114 H   0  0  0  0  0  0  0  0  0  0  0  0
   53.2699  157.3660   26.3664 H   0  0  0  0  0  0  0  0  0  0  0  0
   53.9831  156.2246   24.2636 H   0  0  0  0  0  0  0  0  0  0  0  0
   52.9588  152.3926   25.9728 H   0  0  0  0  0  0  0  0  0  0  0  0
  1  2  3  0
  2  3  1  0
  3  4  1  0
  4  5  1  0
  4  6  1  0
  6  7  1  0
  7  8  1  0
  8  9  1  0
  9 10  1  0
 10 11  2  0
 11 12  1  0
 12 13  2  0
 13 14  1  0
 13 15  1  0
 15 16  2  0
 16 17  1  0
 16 10  1  0
  1 18  1  0
  3 19  1  0
  3 20  1  0
  4 21  1  6
  5 22  1  0
  5 23  1  0
  5 24  1  0
  6 25  1  0
  6 26  1  0
  7 27  1  0
  7 28  1  0
  8 29  1  0
  8 30  1  0
 11 31  1  0
 12 32  1  0
 15 33  1  0
M  CHG  1   4   1
M  END
>  <meeko>  (3) 
{"is_sidechain": [false], "free_energy": -7.742, "intermolecular_energy": -10.565, "internal_energy": -0.236}

$$$$
clorgyline_out
     RDKit          3D

 33 33  0  0  0  0  0  0  0  0999 V2000
   54.2480  153.2520   23.3840 C   0  0  0  0  0  0  0  0  0  0  0  0
   53.8990  153.4860   24.5090 C   0  0  0  0  0  0  0  0  0  0  0  0
   53.4740  153.7730   25.8900 C   0  0  0  0  0  0  0  0  0  0  0  0
   52.8980  155.1150   26.0920 N   0  0  2  0  0  0  0  0  0  0  0  0
   53.6990  156.1450   25.4300 C   0  0  0  0  0  0  0  0  0  0  0  0
   52.6740  155.4040   27.5190 C   0  0  0  0  0  0  0  0  0  0  0  0
   52.7540  156.9060   27.8300 C   0  0  0  0  0  0  0  0  0  0  0  0
   52.5020  157.1910   29.3100 C   0  0  0  0  0  0  0  0  0  0  0  0
   52.0870  158.5470   29.4530 O   0  0  0  0  0  0  0  0  0  0  0  0
   50.8390  158.7900   29.9620 C   0  0  0  0  0  0  0  0  0  0  0  0
   49.7710  157.8880   29.9070 C   0  0  0  0  0  0  0  0  0  0  0  0
   48.5290  158.2310   30.4530 C   0  0  0  0  0  0  0  0  0  0  0  0
   48.3480  159.4750   31.0520 C   0  0  0  0  0  0  0  0  0  0  0  0
   46.8170  159.8870   31.7190 Cl  0  0  0  0  0  0  0  0  0  0  0  0
   49.3970  160.3860   31.1140 C   0  0  0  0  0  0  0  0  0  0  0  0
   50.6360  160.0430   30.5680 C   0  0  0  0  0  0  0  0  0  0  0  0
   51.9140  161.2070   30.6700 Cl  0  0  0  0  0  0  0  0  0  0  0  0
   54.5677  153.0377   22.3535 H   0  0  0  0  0  0  0  0  0  0  0  0
   52.7167  153.0286   26.1770 H   0  0  0  0  0  0  0  0  0  0  0  0
   54.3818  153.7286   26.5096 H   0  0  0  0  0  0  0  0  0  0  0  0
   51.9790  155.1270   25.6490 H   0  0  0  0  0  0  0  0  0  0  0  0
   54.1878  156.7735   26.1890 H   0  0  0  0  0  0  0  0  0  0  0  0
   54.4647  155.6666   24.8017 H   0  0  0  0  0  0  0  0  0  0  0  0
   53.0467  156.7693   24.8017 H   0  0  0  0  0  0  0  0  0  0  0  0
   51.6763  155.0370   27.8017 H   0  0  0  0  0  0  0  0  0  0  0  0
   53.4655  154.8994   28.0924 H   0  0  0  0  0  0  0  0  0  0  0  0
   53.7558  157.2727   27.5619 H   0  0  0  0  0  0  0  0  0  0  0  0
   51.9767  157.4192   27.2448 H   0  0  0  0  0  0  0  0  0  0  0  0
   51.7143  156.5218   29.6864 H   0  0  0  0  0  0  0  0  0  0  0  0
   53.4236  157.0198   29.8856 H   0  0  0  0  0  0  0  0  0  0  0  0
   49.9081  156.9051   29.4326 H   0  0  0  0  0  0  0  0  0  0  0  0
   47.6939  157.5164   30.4089 H   0  0  0  0  0  0  0  0  0  0  0  0
   49.2523  161.3677   31.5887 H   0  0  0  0  0  0  0  0  0  0  0  0
  1  2  3  0
  2  3  1  0
  3  4  1  0
  4  5  1  0
  4  6  1  0
  6  7  1  0
  7  8  1  0
  8  9  1  0
  9 10  1  0
 10 11  2  0
 11 12  1  0
 12 13  2  0
 13 14  1  0
 13 15  1  0
 15 16  2  0
 16 17  1  0
 16 10  1  0
  1 18  1  0
  3 19  1  0
  3 20  1  0
  4 21  1  6
  5 22  1  0
  5 23  1  0
  5 24  1  0
  6 25  1  0
  6 26  1  0
  7 27  1  0
  7 28  1  0
  8 29  1  0
  8 30  1  0
 11 31  1  0
 12 32  1  0
 15 33  1  0
M  CHG  1   4   1
M  END
>  <meeko>  (4) 
{"is_sidechain": [false], "free_energy": -7.451, "intermolecular_energy": -10.122, "internal_energy": -0.285}

$$$$
clorgyline_out
     RDKit          3D

 33 33  0  0  0  0  0  0  0  0999 V2000
   49.0020  160.9460   33.3510 C   0  0  0  0  0  0  0  0  0  0  0  0
   49.7830  160.5910   32.5100 C   0  0  0  0  0  0  0  0  0  0  0  0
   50.7410  160.1520   31.4810 C   0  0  0  0  0  0  0  0  0  0  0  0
   50.1260  159.6570   30.2360 N   0  0  2  0  0  0  0  0  0  0  0  0
   49.3700  160.7100   29.5580 C   0  0  0  0  0  0  0  0  0  0  0  0
   49.3220  158.4440   30.4690 C   0  0  0  0  0  0  0  0  0  0  0  0
   50.0780  157.1610   30.0920 C   0  0  0  0  0  0  0  0  0  0  0  0
   51.4130  157.4700   29.4140 C   0  0  0  0  0  0  0  0  0  0  0  0
   52.1670  156.2640   29.3130 O   0  0  0  0  0  0  0  0  0  0  0  0
   52.5200  155.8270   28.0640 C   0  0  0  0  0  0  0  0  0  0  0  0
   52.9210  156.6620   27.0170 C   0  0  0  0  0  0  0  0  0  0  0  0
   53.2590  156.1200   25.7710 C   0  0  0  0  0  0  0  0  0  0  0  0
   53.1930  154.7430   25.5680 C   0  0  0  0  0  0  0  0  0  0  0  0
   53.6090  154.0870   24.0330 Cl  0  0  0  0  0  0  0  0  0  0  0  0
   52.7930  153.8970   26.5970 C   0  0  0  0  0  0  0  0  0  0  0  0
   52.4560  154.4400   27.8390 C   0  0  0  0  0  0  0  0  0  0  0  0
   51.9670  153.3490   29.0910 Cl  0  0  0  0  0  0  0  0  0  0  0  0
   48.2869  161.2710   34.1210 H   0  0  0  0  0  0  0  0  0  0  0  0
   51.3868  161.0057   31.2279 H   0  0  0  0  0  0  0  0  0  0  0  0
   51.2928  159.3040   31.9127 H   0  0  0  0  0  0  0  0  0  0  0  0
   50.8810  159.3840   29.6060 H   0  0  0  0  0  0  0  0  0  0  0  0
   48.9002  161.3644   30.3070 H   0  0  0  0  0  0  0  0  0  0  0  0
   50.0503  161.3025   28.9286 H   0  0  0  0  0  0  0  0  0  0  0  0
   48.5911  160.2549   28.9286 H   0  0  0  0  0  0  0  0  0  0  0  0
   49.0545  158.3965   31.5349 H   0  0  0  0  0  0  0  0  0  0  0  0
   48.4273  158.5063   29.8321 H   0  0  0  0  0  0  0  0  0  0  0  0
   50.2684  156.5780   31.0052 H   0  0  0  0  0  0  0  0  0  0  0  0
   49.4571  156.5926   29.3838 H   0  0  0  0  0  0  0  0  0  0  0  0
   51.2314  157.8778   28.4086 H   0  0  0  0  0  0  0  0  0  0  0  0
   51.9703  158.2108   30.0062 H   0  0  0  0  0  0  0  0  0  0  0  0
   52.9712  157.7498   27.1727 H   0  0  0  0  0  0  0  0  0  0  0  0
   53.5769  156.7817   24.9518 H   0  0  0  0  0  0  0  0  0  0  0  0
   52.7425  152.8103   26.4342 H   0  0  0  0  0  0  0  0  0  0  0  0
  1  2  3  0
  2  3  1  0
  3  4  1  0
  4  5  1  0
  4  6  1  0
  6  7  1  0
  7  8  1  0
  8  9  1  0
  9 10  1  0
 10 11  2  0
 11 12  1  0
 12 13  2  0
 13 14  1  0
 13 15  1  0
 15 16  2  0
 16 17  1  0
 16 10  1  0
  1 18  1  0
  3 19  1  0
  3 20  1  0
  4 21  1  6
  5 22  1  0
  5 23  1  0
  5 24  1  0
  6 25  1  0
  6 26  1  0
  7 27  1  0
  7 28  1  0
  8 29  1  0
  8 30  1  0
 11 31  1  0
 12 32  1  0
 15 33  1  0
M  CHG  1   4   1
M  END
>  <meeko>  (5) 
{"is_sidechain": [false], "free_energy": -7.364, "intermolecular_energy": -9.888, "internal_energy": -0.402}

$$$$
clorgyline_out
     RDKit          3D

 33 33  0  0  0  0  0  0  0  0999 V2000
   47.2640  159.7750   31.5490 C   0  0  0  0  0  0  0  0  0  0  0  0
   48.2620  159.9400   30.9020 C   0  0  0  0  0  0  0  0  0  0  0  0
   49.4870  160.1480   30.1110 C   0  0  0  0  0  0  0  0  0  0  0  0
   50.6580  159.3810   30.5740 N   0  0  2  0  0  0  0  0  0  0  0  0
   51.8910  160.1590   30.4440 C   0  0  0  0  0  0  0  0  0  0  0  0
   50.7470  158.0670   29.9150 C   0  0  0  0  0  0  0  0  0  0  0  0
   52.1170  157.8330   29.2610 C   0  0  0  0  0  0  0  0  0  0  0  0
   52.2180  156.4380   28.6450 C   0  0  0  0  0  0  0  0  0  0  0  0
   52.8470  156.5440   27.3690 O   0  0  0  0  0  0  0  0  0  0  0  0
   53.0580  155.3940   26.6570 C   0  0  0  0  0  0  0  0  0  0  0  0
   52.6200  154.1260   27.0510 C   0  0  0  0  0  0  0  0  0  0  0  0
   52.8890  153.0070   26.2550 C   0  0  0  0  0  0  0  0  0  0  0  0
   53.5990  153.1510   25.0650 C   0  0  0  0  0  0  0  0  0  0  0  0
   53.9260  151.7680   24.0940 Cl  0  0  0  0  0  0  0  0  0  0  0  0
   54.0450  154.4030   24.6580 C   0  0  0  0  0  0  0  0  0  0  0  0
   53.7760  155.5190   25.4530 C   0  0  0  0  0  0  0  0  0  0  0  0
   54.3480  157.0580   24.9050 Cl  0  0  0  0  0  0  0  0  0  0  0  0
   46.3498  159.6238   32.1417 H   0  0  0  0  0  0  0  0  0  0  0  0
   49.2767  159.8575   29.0711 H   0  0  0  0  0  0  0  0  0  0  0  0
   49.7496  161.2107   30.2193 H   0  0  0  0  0  0  0  0  0  0  0  0
   50.5310  159.1950   31.5700 H   0  0  0  0  0  0  0  0  0  0  0  0
   52.2778  160.4030   31.4444 H   0  0  0  0  0  0  0  0  0  0  0  0
   52.6402  159.5697   29.8949 H   0  0  0  0  0  0  0  0  0  0  0  0
   51.6816  161.0889   29.8949 H   0  0  0  0  0  0  0  0  0  0  0  0
   50.5754  157.2823   30.6665 H   0  0  0  0  0  0  0  0  0  0  0  0
   49.9862  158.0371   29.1211 H   0  0  0  0  0  0  0  0  0  0  0  0
   52.2678  158.5834   28.4710 H   0  0  0  0  0  0  0  0  0  0  0  0
   52.8885  157.9207   30.0401 H   0  0  0  0  0  0  0  0  0  0  0  0
   52.8165  155.7872   29.2994 H   0  0  0  0  0  0  0  0  0  0  0  0
   51.2130  156.0055   28.5318 H   0  0  0  0  0  0  0  0  0  0  0  0
   52.0613  154.0075   27.9911 H   0  0  0  0  0  0  0  0  0  0  0  0
   52.5394  152.0125   26.5692 H   0  0  0  0  0  0  0  0  0  0  0  0
   54.6050  154.5137   23.7177 H   0  0  0  0  0  0  0  0  0  0  0  0
  1  2  3  0
  2  3  1  0
  3  4  1  0
  4  5  1  0
  4  6  1  0
  6  7  1  0
  7  8  1  0
  8  9  1  0
  9 10  1  0
 10 11  2  0
 11 12  1  0
 12 13  2  0
 13 14  1  0
 13 15  1  0
 15 16  2  0
 16 17  1  0
 16 10  1  0
  1 18  1  0
  3 19  1  0
  3 20  1  0
  4 21  1  1
  5 22  1  0
  5 23  1  0
  5 24  1  0
  6 25  1  0
  6 26  1  0
  7 27  1  0
  7 28  1  0
  8 29  1  0
  8 30  1  0
 11 31  1  0
 12 32  1  0
 15 33  1  0
M  CHG  1   4   1
M  END
>  <meeko>  (6) 
{"is_sidechain": [false], "free_energy": -7.36, "intermolecular_energy": -9.983, "internal_energy": -0.301}

$$$$
clorgyline_out
     RDKit          3D

 33 33  0  0  0  0  0  0  0  0999 V2000
   54.0880  156.3740   25.0900 C   0  0  0  0  0  0  0  0  0  0  0  0
   53.2990  155.7460   25.7440 C   0  0  0  0  0  0  0  0  0  0  0  0
   52.3340  154.9730   26.5430 C   0  0  0  0  0  0  0  0  0  0  0  0
   52.6860  154.8300   27.9670 N   0  0  2  0  0  0  0  0  0  0  0  0
   52.2320  153.5460   28.5040 C   0  0  0  0  0  0  0  0  0  0  0  0
   52.2120  155.9750   28.7650 C   0  0  0  0  0  0  0  0  0  0  0  0
   51.1680  155.5640   29.8130 C   0  0  0  0  0  0  0  0  0  0  0  0
   49.9500  156.4860   29.7900 C   0  0  0  0  0  0  0  0  0  0  0  0
   50.3980  157.8390   29.7580 O   0  0  0  0  0  0  0  0  0  0  0  0
   49.8150  158.7320   30.6170 C   0  0  0  0  0  0  0  0  0  0  0  0
   48.5240  158.6030   31.1390 C   0  0  0  0  0  0  0  0  0  0  0  0
   48.0130  159.5730   32.0080 C   0  0  0  0  0  0  0  0  0  0  0  0
   48.7890  160.6770   32.3560 C   0  0  0  0  0  0  0  0  0  0  0  0
   48.1510  161.8640   33.4250 Cl  0  0  0  0  0  0  0  0  0  0  0  0
   50.0730  160.8240   31.8460 C   0  0  0  0  0  0  0  0  0  0  0  0
   50.5820  159.8550   30.9780 C   0  0  0  0  0  0  0  0  0  0  0  0
   52.1870  160.0790   30.3690 Cl  0  0  0  0  0  0  0  0  0  0  0  0
   54.8101  156.9487   24.4915 H   0  0  0  0  0  0  0  0  0  0  0  0
   51.3575  155.4755   26.4805 H   0  0  0  0  0  0  0  0  0  0  0  0
   52.3264  153.9568   26.1219 H   0  0  0  0  0  0  0  0  0  0  0  0
   53.7040  154.8350   28.0360 H   0  0  0  0  0  0  0  0  0  0  0  0
   52.2451  153.5831   29.6033 H   0  0  0  0  0  0  0  0  0  0  0  0
   51.2081  153.3445   28.1561 H   0  0  0  0  0  0  0  0  0  0  0  0
   52.9016  152.7457   28.1561 H   0  0  0  0  0  0  0  0  0  0  0  0
   53.0721  156.4265   29.2810 H   0  0  0  0  0  0  0  0  0  0  0  0
   51.7350  156.6891   28.0776 H   0  0  0  0  0  0  0  0  0  0  0  0
   50.8399  154.5349   29.6047 H   0  0  0  0  0  0  0  0  0  0  0  0
   51.6336  155.6361   30.8070 H   0  0  0  0  0  0  0  0  0  0  0  0
   49.3443  156.2760   28.8961 H   0  0  0  0  0  0  0  0  0  0  0  0
   49.3364  156.3168   30.6872 H   0  0  0  0  0  0  0  0  0  0  0  0
   47.9072  157.7344   30.8649 H   0  0  0  0  0  0  0  0  0  0  0  0
   46.9977  159.4642   32.4170 H   0  0  0  0  0  0  0  0  0  0  0  0
   50.6836  161.6960   32.1233 H   0  0  0  0  0  0  0  0  0  0  0  0
  1  2  3  0
  2  3  1  0
  3  4  1  0
  4  5  1  0
  4  6  1  0
  6  7  1  0
  7  8  1  0
  8  9  1  0
  9 10  1  0
 10 11  2  0
 11 12  1  0
 12 13  2  0
 13 14  1  0
 13 15  1  0
 15 16  2  0
 16 17  1  0
 16 10  1  0
  1 18  1  0
  3 19  1  0
  3 20  1  0
  4 21  1  6
  5 22  1  0
  5 23  1  0
  5 24  1  0
  6 25  1  0
  6 26  1  0
  7 27  1  0
  7 28  1  0
  8 29  1  0
  8 30  1  0
 11 31  1  0
 12 32  1  0
 15 33  1  0
M  CHG  1   4   1
M  END
>  <meeko>  (7) 
{"is_sidechain": [false], "free_energy": -7.346, "intermolecular_energy": -9.847, "internal_energy": -0.419}

$$$$
clorgyline_out
     RDKit          3D

 33 33  0  0  0  0  0  0  0  0999 V2000
   47.8100  160.1110   31.8940 C   0  0  0  0  0  0  0  0  0  0  0  0
   48.1500  159.2750   31.1020 C   0  0  0  0  0  0  0  0  0  0  0  0
   48.5680  158.2520   30.1280 C   0  0  0  0  0  0  0  0  0  0  0  0
   49.9060  157.6810   30.3690 N   0  0  2  0  0  0  0  0  0  0  0  0
   50.9630  158.6410   30.0460 C   0  0  0  0  0  0  0  0  0  0  0  0
   50.0820  156.3920   29.6780 C   0  0  0  0  0  0  0  0  0  0  0  0
   51.4750  155.7890   29.9120 C   0  0  0  0  0  0  0  0  0  0  0  0
   51.6510  154.4660   29.1690 C   0  0  0  0  0  0  0  0  0  0  0  0
   51.1940  154.6280   27.8280 O   0  0  0  0  0  0  0  0  0  0  0  0
   52.0690  154.3570   26.8110 C   0  0  0  0  0  0  0  0  0  0  0  0
   52.2280  153.1020   26.2150 C   0  0  0  0  0  0  0  0  0  0  0  0
   53.1540  152.9220   25.1810 C   0  0  0  0  0  0  0  0  0  0  0  0
   53.9280  153.9940   24.7430 C   0  0  0  0  0  0  0  0  0  0  0  0
   55.0640  153.7620   23.4730 Cl  0  0  0  0  0  0  0  0  0  0  0  0
   53.7860  155.2490   25.3240 C   0  0  0  0  0  0  0  0  0  0  0  0
   52.8620  155.4270   26.3560 C   0  0  0  0  0  0  0  0  0  0  0  0
   52.7180  157.0070   27.0480 Cl  0  0  0  0  0  0  0  0  0  0  0  0
   47.4985  160.8769   32.6196 H   0  0  0  0  0  0  0  0  0  0  0  0
   47.8354  157.4320   30.1569 H   0  0  0  0  0  0  0  0  0  0  0  0
   48.6167  158.7552   29.1510 H   0  0  0  0  0  0  0  0  0  0  0  0
   49.9830  157.4840   31.3680 H   0  0  0  0  0  0  0  0  0  0  0  0
   51.3971  159.0353   30.9766 H   0  0  0  0  0  0  0  0  0  0  0  0
   51.7469  158.1397   29.4593 H   0  0  0  0  0  0  0  0  0  0  0  0
   50.5392  159.4694   29.4593 H   0  0  0  0  0  0  0  0  0  0  0  0
   49.3244  155.6859   30.0487 H   0  0  0  0  0  0  0  0  0  0  0  0
   49.9708  156.5716   28.5985 H   0  0  0  0  0  0  0  0  0  0  0  0
   52.2354  156.5005   29.5577 H   0  0  0  0  0  0  0  0  0  0  0  0
   51.5876  155.5947   30.9888 H   0  0  0  0  0  0  0  0  0  0  0  0
   52.7138  154.1823   29.1657 H   0  0  0  0  0  0  0  0  0  0  0  0
   51.0708  153.6764   29.6689 H   0  0  0  0  0  0  0  0  0  0  0  0
   51.6220  152.2516   26.5607 H   0  0  0  0  0  0  0  0  0  0  0  0
   53.2706  151.9330   24.7138 H   0  0  0  0  0  0  0  0  0  0  0  0
   54.3962  156.0946   24.9739 H   0  0  0  0  0  0  0  0  0  0  0  0
  1  2  3  0
  2  3  1  0
  3  4  1  0
  4  5  1  0
  4  6  1  0
  6  7  1  0
  7  8  1  0
  8  9  1  0
  9 10  1  0
 10 11  2  0
 11 12  1  0
 12 13  2  0
 13 14  1  0
 13 15  1  0
 15 16  2  0
 16 17  1  0
 16 10  1  0
  1 18  1  0
  3 19  1  0
  3 20  1  0
  4 21  1  1
  5 22  1  0
  5 23  1  0
  5 24  1  0
  6 25  1  0
  6 26  1  0
  7 27  1  0
  7 28  1  0
  8 29  1  0
  8 30  1  0
 11 31  1  0
 12 32  1  0
 15 33  1  0
M  CHG  1   4   1
M  END
>  <meeko>  (8) 
{"is_sidechain": [false], "free_energy": -7.118, "intermolecular_energy": -9.594, "internal_energy": -0.364}

$$$$
clorgyline_out
     RDKit          3D

 33 33  0  0  0  0  0  0  0  0999 V2000
   53.7780  156.6240   25.5130 C   0  0  0  0  0  0  0  0  0  0  0  0
   53.4450  155.4960   25.2700 C   0  0  0  0  0  0  0  0  0  0  0  0
   53.0400  154.1120   24.9690 C   0  0  0  0  0  0  0  0  0  0  0  0
   53.2160  153.1620   26.0820 N   0  0  2  0  0  0  0  0  0  0  0  0
   53.8920  151.9420   25.6410 C   0  0  0  0  0  0  0  0  0  0  0  0
   51.9430  152.8860   26.7700 C   0  0  0  0  0  0  0  0  0  0  0  0
   51.9000  153.4890   28.1820 C   0  0  0  0  0  0  0  0  0  0  0  0
   51.1680  154.8300   28.2020 C   0  0  0  0  0  0  0  0  0  0  0  0
   51.3700  155.4450   29.4720 O   0  0  0  0  0  0  0  0  0  0  0  0
   50.7630  156.6490   29.7100 C   0  0  0  0  0  0  0  0  0  0  0  0
   49.4310  156.8000   30.1090 C   0  0  0  0  0  0  0  0  0  0  0  0
   48.8980  158.0760   30.3230 C   0  0  0  0  0  0  0  0  0  0  0  0
   49.6930  159.2050   30.1370 C   0  0  0  0  0  0  0  0  0  0  0  0
   49.0280  160.7690   30.4020 Cl  0  0  0  0  0  0  0  0  0  0  0  0
   51.0180  159.0760   29.7380 C   0  0  0  0  0  0  0  0  0  0  0  0
   51.5490  157.8010   29.5240 C   0  0  0  0  0  0  0  0  0  0  0  0
   53.2050  157.6880   29.0310 Cl  0  0  0  0  0  0  0  0  0  0  0  0
   54.0830  157.6572   25.7356 H   0  0  0  0  0  0  0  0  0  0  0  0
   51.9760  154.1195   24.6902 H   0  0  0  0  0  0  0  0  0  0  0  0
   53.6979  153.7655   24.1584 H   0  0  0  0  0  0  0  0  0  0  0  0
   53.8250  153.6030   26.7720 H   0  0  0  0  0  0  0  0  0  0  0  0
   54.2130  151.3627   26.5193 H   0  0  0  0  0  0  0  0  0  0  0  0
   53.2001  151.3376   25.0360 H   0  0  0  0  0  0  0  0  0  0  0  0
   54.7713  152.2082   25.0360 H   0  0  0  0  0  0  0  0  0  0  0  0
   51.1209  153.3139   26.1776 H   0  0  0  0  0  0  0  0  0  0  0  0
   51.8431  151.7949   26.8672 H   0  0  0  0  0  0  0  0  0  0  0  0
   51.3802  152.7891   28.8528 H   0  0  0  0  0  0  0  0  0  0  0  0
   52.9349  153.6584   28.5141 H   0  0  0  0  0  0  0  0  0  0  0  0
   51.5659  155.4802   27.4090 H   0  0  0  0  0  0  0  0  0  0  0  0
   50.0931  154.6715   28.0303 H   0  0  0  0  0  0  0  0  0  0  0  0
   48.7994  155.9114   30.2553 H   0  0  0  0  0  0  0  0  0  0  0  0
   47.8501  158.1879   30.6384 H   0  0  0  0  0  0  0  0  0  0  0  0
   51.6431  159.9693   29.5920 H   0  0  0  0  0  0  0  0  0  0  0  0
  1  2  3  0
  2  3  1  0
  3  4  1  0
  4  5  1  0
  4  6  1  0
  6  7  1  0
  7  8  1  0
  8  9  1  0
  9 10  1  0
 10 11  2  0
 11 12  1  0
 12 13  2  0
 13 14  1  0
 13 15  1  0
 15 16  2  0
 16 17  1  0
 16 10  1  0
  1 18  1  0
  3 19  1  0
  3 20  1  0
  4 21  1  1
  5 22  1  0
  5 23  1  0
  5 24  1  0
  6 25  1  0
  6 26  1  0
  7 27  1  0
  7 28  1  0
  8 29  1  0
  8 30  1  0
 11 31  1  0
 12 32  1  0
 15 33  1  0
M  CHG  1   4   1
M  END
>  <meeko>  (9) 
{"is_sidechain": [false], "free_energy": -6.94, "intermolecular_energy": -9.097, "internal_energy": -0.621}

$$$$
