DTQ_out
     RDKit          3D

 37 39  0  0  0  0  0  0  0  0999 V2000
   54.2660  153.1310   24.2500 C   0  0  0  0  0  0  0  0  0  0  0  0
   53.0920  153.9370   24.2430 O   0  0  0  0  0  0  0  0  0  0  0  0
   52.9010  154.7320   25.3450 C   0  0  0  0  0  0  0  0  0  0  0  0
   52.3740  154.0440   26.4470 C   0  0  0  0  0  0  0  0  0  0  0  0
   52.1170  154.6640   27.6600 C   0  0  0  0  0  0  0  0  0  0  0  0
   51.5860  153.9420   28.6520 N   0  0  0  0  0  0  0  0  0  0  0  0
   51.3280  154.5830   29.7960 C   0  0  0  0  0  0  0  0  0  0  0  0
   51.5700  155.8710   30.0510 N   0  0  0  0  0  0  0  0  0  0  0  0
   52.1370  156.5750   29.0540 C   0  0  0  0  0  0  0  0  0  0  0  0
   52.4030  157.9250   29.3750 N   0  0  0  0  0  0  0  0  0  0  0  0
   51.4820  158.8490   29.9360 C   0  0  0  0  0  0  0  0  0  0  0  0
   51.8690  160.0990   30.4380 C   0  0  0  0  0  0  0  0  0  0  0  0
   50.9280  160.9530   31.0210 C   0  0  0  0  0  0  0  0  0  0  0  0
   49.5970  160.5580   31.1240 C   0  0  0  0  0  0  0  0  0  0  0  0
   49.2160  159.3060   30.6550 C   0  0  0  0  0  0  0  0  0  0  0  0
   47.9060  158.9530   30.7860 O   0  0  0  0  0  0  0  0  0  0  0  0
   50.1460  158.4470   30.0750 C   0  0  0  0  0  0  0  0  0  0  0  0
   52.4180  156.0230   27.7900 C   0  0  0  0  0  0  0  0  0  0  0  0
   52.9530  156.7270   26.6760 C   0  0  0  0  0  0  0  0  0  0  0  0
   53.2240  156.0870   25.4630 C   0  0  0  0  0  0  0  0  0  0  0  0
   53.7940  156.7140   24.3900 O   0  0  0  0  0  0  0  0  0  0  0  0
   55.2150  156.7950   24.3520 C   0  0  0  0  0  0  0  0  0  0  0  0
   54.5641  152.9264   25.2889 H   0  0  0  0  0  0  0  0  0  0  0  0
   54.0620  152.1816   23.7333 H   0  0  0  0  0  0  0  0  0  0  0  0
   55.0787  153.6625   23.7333 H   0  0  0  0  0  0  0  0  0  0  0  0
   52.1560  152.9706   26.3452 H   0  0  0  0  0  0  0  0  0  0  0  0
   50.8727  153.9929   30.6050 H   0  0  0  0  0  0  0  0  0  0  0  0
   53.3120  158.2560   29.1940 H   0  0  0  0  0  0  0  0  0  0  0  0
   52.9219  160.4108   30.3728 H   0  0  0  0  0  0  0  0  0  0  0  0
   51.2396  161.9380   31.3987 H   0  0  0  0  0  0  0  0  0  0  0  0
   48.8523  161.2316   31.5732 H   0  0  0  0  0  0  0  0  0  0  0  0
   47.5270  158.3310   30.1950 H   0  0  0  0  0  0  0  0  0  0  0  0
   49.8322  157.4523   29.7256 H   0  0  0  0  0  0  0  0  0  0  0  0
   53.1590  157.8033   26.7714 H   0  0  0  0  0  0  0  0  0  0  0  0
   55.6086  156.8174   25.3789 H   0  0  0  0  0  0  0  0  0  0  0  0
   55.6182  155.9184   23.8239 H   0  0  0  0  0  0  0  0  0  0  0  0
   55.5160  157.7118   23.8239 H   0  0  0  0  0  0  0  0  0  0  0  0
  1  2  1  0
  2  3  1  0
  3  4  2  0
  4  5  1  0
  5  6  2  0
  6  7  1  0
  7  8  2  0
  8  9  1  0
  9 10  1  0
 10 11  1  0
 11 12  2  0
 12 13  1  0
 13 14  2  0
 14 15  1  0
 15 16  1  0
 15 17  2  0
  9 18  2  0
 18 19  1  0
 19 20  2  0
 20 21  1  0
 21 22  1  0
 20  3  1  0
 18  5  1  0
 17 11  1  0
  1 23  1  0
  1 24  1  0
  1 25  1  0
  4 26  1  0
  7 27  1  0
 10 28  1  0
 12 29  1  0
 13 30  1  0
 14 31  1  0
 16 32  1  0
 17 33  1  0
 19 34  1  0
 22 35  1  0
 22 36  1  0
 22 37  1  0
M  END
>  <meeko>  (1) 
{"is_sidechain": [false], "free_energy": -8.585, "intermolecular_energy": -10.843, "internal_energy": -0.161}

$$$$
DTQ_out
     RDKit          3D

 37 39  0  0  0  0  0  0  0  0999 V2000
   54.6560  152.9380   24.6670 C   0  0  0  0  0  0  0  0  0  0  0  0
   53.5320  153.7810   24.4400 O   0  0  0  0  0  0  0  0  0  0  0  0
   53.1700  154.5960   25.4820 C   0  0  0  0  0  0  0  0  0  0  0  0
   52.7070  153.8960   26.6050 C   0  0  0  0  0  0  0  0  0  0  0  0
   52.3020  154.5350   27.7670 C   0  0  0  0  0  0  0  0  0  0  0  0
   51.8450  153.7940   28.7820 N   0  0  0  0  0  0  0  0  0  0  0  0
   51.4390  154.4490   29.8750 C   0  0  0  0  0  0  0  0  0  0  0  0
   51.4650  155.7720   30.0560 N   0  0  0  0  0  0  0  0  0  0  0  0
   51.9600  156.4990   29.0390 C   0  0  0  0  0  0  0  0  0  0  0  0
   51.9980  157.8910   29.2840 N   0  0  0  0  0  0  0  0  0  0  0  0
   51.0840  158.6230   30.0870 C   0  0  0  0  0  0  0  0  0  0  0  0
   49.7270  158.2850   30.1960 C   0  0  0  0  0  0  0  0  0  0  0  0
   48.8600  159.0660   30.9650 C   0  0  0  0  0  0  0  0  0  0  0  0
   49.3350  160.2020   31.6150 C   0  0  0  0  0  0  0  0  0  0  0  0
   50.6720  160.5580   31.4830 C   0  0  0  0  0  0  0  0  0  0  0  0
   51.0940  161.6840   32.1250 O   0  0  0  0  0  0  0  0  0  0  0  0
   51.5440  159.7870   30.7180 C   0  0  0  0  0  0  0  0  0  0  0  0
   52.3810  155.9290   27.8230 C   0  0  0  0  0  0  0  0  0  0  0  0
   52.8490  156.6450   26.6870 C   0  0  0  0  0  0  0  0  0  0  0  0
   53.2720  155.9900   25.5270 C   0  0  0  0  0  0  0  0  0  0  0  0
   53.7850  156.6380   24.4370 O   0  0  0  0  0  0  0  0  0  0  0  0
   55.1940  156.8430   24.3960 C   0  0  0  0  0  0  0  0  0  0  0  0
   54.8132  152.8201   25.7493 H   0  0  0  0  0  0  0  0  0  0  0  0
   54.4729  151.9527   24.2136 H   0  0  0  0  0  0  0  0  0  0  0  0
   55.5506  153.3897   24.2136 H   0  0  0  0  0  0  0  0  0  0  0  0
   52.6633  152.7977   26.5627 H   0  0  0  0  0  0  0  0  0  0  0  0
   51.0466  153.8406   30.7032 H   0  0  0  0  0  0  0  0  0  0  0  0
   52.7260  158.3990   28.8600 H   0  0  0  0  0  0  0  0  0  0  0  0
   49.3421  157.3978   29.6718 H   0  0  0  0  0  0  0  0  0  0  0  0
   47.8010  158.7829   31.0569 H   0  0  0  0  0  0  0  0  0  0  0  0
   48.6570  160.8133   32.2286 H   0  0  0  0  0  0  0  0  0  0  0  0
   51.9030  161.6780   32.5980 H   0  0  0  0  0  0  0  0  0  0  0  0
   52.5952  160.0920   30.6089 H   0  0  0  0  0  0  0  0  0  0  0  0
   52.8789  157.7440   26.7221 H   0  0  0  0  0  0  0  0  0  0  0  0
   55.5862  156.9001   25.4221 H   0  0  0  0  0  0  0  0  0  0  0  0
   55.6712  156.0048   23.8671 H   0  0  0  0  0  0  0  0  0  0  0  0
   55.4126  157.7824   23.8671 H   0  0  0  0  0  0  0  0  0  0  0  0
  1  2  1  0
  2  3  1  0
  3  4  2  0
  4  5  1  0
  5  6  2  0
  6  7  1  0
  7  8  2  0
  8  9  1  0
  9 10  1  0
 10 11  1  0
 11 12  2  0
 12 13  1  0
 13 14  2  0
 14 15  1  0
 15 16  1  0
 15 17  2  0
  9 18  2  0
 18 19  1  0
 19 20  2  0
 20 21  1  0
 21 22  1  0
 20  3  1  0
 18  5  1  0
 17 11  1  0
  1 23  1  0
  1 24  1  0
  1 25  1  0
  4 26  1  0
  7 27  1  0
 10 28  1  0
 12 29  1  0
 13 30  1  0
 14 31  1  0
 16 32  1  0
 17 33  1  0
 19 34  1  0
 22 35  1  0
 22 36  1  0
 22 37  1  0
M  END
>  <meeko>  (2) 
{"is_sidechain": [false], "free_energy": -8.482, "intermolecular_energy": -10.654, "internal_energy": -0.221}

$$$$
DTQ_out
     RDKit          3D

 37 39  0  0  0  0  0  0  0  0999 V2000
   48.5330  161.6710   33.2210 C   0  0  0  0  0  0  0  0  0  0  0  0
   49.4070  161.9650   32.1370 O   0  0  0  0  0  0  0  0  0  0  0  0
   49.9930  160.8870   31.5250 C   0  0  0  0  0  0  0  0  0  0  0  0
   49.0920  159.8550   31.2260 C   0  0  0  0  0  0  0  0  0  0  0  0
   49.4840  158.6830   30.5970 C   0  0  0  0  0  0  0  0  0  0  0  0
   48.5660  157.7350   30.3750 N   0  0  0  0  0  0  0  0  0  0  0  0
   48.9880  156.6090   29.7910 C   0  0  0  0  0  0  0  0  0  0  0  0
   50.2350  156.3480   29.3900 N   0  0  0  0  0  0  0  0  0  0  0  0
   51.1370  157.3250   29.5890 C   0  0  0  0  0  0  0  0  0  0  0  0
   52.4370  157.0210   29.1230 N   0  0  0  0  0  0  0  0  0  0  0  0
   52.7520  156.2340   27.9840 C   0  0  0  0  0  0  0  0  0  0  0  0
   52.9810  156.7880   26.7160 C   0  0  0  0  0  0  0  0  0  0  0  0
   53.2440  155.9650   25.6180 C   0  0  0  0  0  0  0  0  0  0  0  0
   53.2630  154.5810   25.7710 C   0  0  0  0  0  0  0  0  0  0  0  0
   53.0060  154.0280   27.0200 C   0  0  0  0  0  0  0  0  0  0  0  0
   53.0210  152.6680   27.1250 O   0  0  0  0  0  0  0  0  0  0  0  0
   52.7400  154.8390   28.1200 C   0  0  0  0  0  0  0  0  0  0  0  0
   50.8240  158.5390   30.2300 C   0  0  0  0  0  0  0  0  0  0  0  0
   51.7430  159.5810   30.5300 C   0  0  0  0  0  0  0  0  0  0  0  0
   51.3350  160.7660   31.1490 C   0  0  0  0  0  0  0  0  0  0  0  0
   52.1750  161.8170   31.3990 O   0  0  0  0  0  0  0  0  0  0  0  0
   53.3240  161.9530   30.5700 C   0  0  0  0  0  0  0  0  0  0  0  0
   49.0565  161.8471   34.1723 H   0  0  0  0  0  0  0  0  0  0  0  0
   47.6471  162.3206   33.1643 H   0  0  0  0  0  0  0  0  0  0  0  0
   48.2198  160.6181   33.1643 H   0  0  0  0  0  0  0  0  0  0  0  0
   48.0342  159.9798   31.5008 H   0  0  0  0  0  0  0  0  0  0  0  0
   48.2369  155.8227   29.6249 H   0  0  0  0  0  0  0  0  0  0  0  0
   53.1930  157.3890   29.6340 H   0  0  0  0  0  0  0  0  0  0  0  0
   52.9533  157.8798   26.5849 H   0  0  0  0  0  0  0  0  0  0  0  0
   53.4364  156.4110   24.6311 H   0  0  0  0  0  0  0  0  0  0  0  0
   53.4796  153.9308   24.9106 H   0  0  0  0  0  0  0  0  0  0  0  0
   53.5560  152.2550   27.7740 H   0  0  0  0  0  0  0  0  0  0  0  0
   52.5201  154.3843   29.0972 H   0  0  0  0  0  0  0  0  0  0  0  0
   52.8035  159.4514   30.2681 H   0  0  0  0  0  0  0  0  0  0  0  0
   54.2198  162.0590   31.1995 H   0  0  0  0  0  0  0  0  0  0  0  0
   53.4256  161.0606   29.9349 H   0  0  0  0  0  0  0  0  0  0  0  0
   53.2145  162.8445   29.9349 H   0  0  0  0  0  0  0  0  0  0  0  0
  1  2  1  0
  2  3  1  0
  3  4  2  0
  4  5  1  0
  5  6  2  0
  6  7  1  0
  7  8  2  0
  8  9  1  0
  9 10  1  0
 10 11  1  0
 11 12  2  0
 12 13  1  0
 13 14  2  0
 14 15  1  0
 15 16  1  0
 15 17  2  0
  9 18  2  0
 18 19  1  0
 19 20  2  0
 20 21  1  0
 21 22  1  0
 20  3  1  0
 18  5  1  0
 17 11  1  0
  1 23  1  0
  1 24  1  0
  1 25  1  0
  4 26  1  0
  7 27  1  0
 10 28  1  0
 12 29  1  0
 13 30  1  0
 14 31  1  0
 16 32  1  0
 17 33  1  0
 19 34  1  0
 22 35  1  0
 22 36  1  0
 22 37  1  0
M  END
>  <meeko>  (3) 
{"is_sidechain": [false], "free_energy": -8.22, "intermolecular_energy": -10.238, "internal_energy": -0.306}

$$$$
DTQ_out
     RDKit          3D

 37 39  0  0  0  0  0  0  0  0999 V2000
   54.3370  149.8850   24.7630 C   0  0  0  0  0  0  0  0  0  0  0  0
   53.7550  151.0710   24.2320 O   0  0  0  0  0  0  0  0  0  0  0  0
   53.4000  152.0300   25.1460 C   0  0  0  0  0  0  0  0  0  0  0  0
   53.7950  153.3250   24.7800 C   0  0  0  0  0  0  0  0  0  0  0  0
   53.5230  154.4360   25.5640 C   0  0  0  0  0  0  0  0  0  0  0  0
   53.9610  155.6320   25.1570 N   0  0  0  0  0  0  0  0  0  0  0  0
   53.7020  156.6740   25.9530 C   0  0  0  0  0  0  0  0  0  0  0  0
   53.0290  156.6380   27.1060 N   0  0  0  0  0  0  0  0  0  0  0  0
   52.5650  155.4330   27.4830 C   0  0  0  0  0  0  0  0  0  0  0  0
   51.8330  155.4440   28.6920 N   0  0  0  0  0  0  0  0  0  0  0  0
   51.2560  156.5860   29.3090 C   0  0  0  0  0  0  0  0  0  0  0  0
   49.9140  156.6350   29.7130 C   0  0  0  0  0  0  0  0  0  0  0  0
   49.3850  157.8000   30.2760 C   0  0  0  0  0  0  0  0  0  0  0  0
   50.1840  158.9300   30.4220 C   0  0  0  0  0  0  0  0  0  0  0  0
   51.5050  158.8940   29.9940 C   0  0  0  0  0  0  0  0  0  0  0  0
   52.2510  160.0260   30.1440 O   0  0  0  0  0  0  0  0  0  0  0  0
   52.0430  157.7390   29.4300 C   0  0  0  0  0  0  0  0  0  0  0  0
   52.8090  154.2550   26.7510 C   0  0  0  0  0  0  0  0  0  0  0  0
   52.4050  152.9450   27.1270 C   0  0  0  0  0  0  0  0  0  0  0  0
   52.6690  151.8340   26.3220 C   0  0  0  0  0  0  0  0  0  0  0  0
   52.2450  150.5670   26.6180 O   0  0  0  0  0  0  0  0  0  0  0  0
   51.5360  150.3780   27.8380 C   0  0  0  0  0  0  0  0  0  0  0  0
   54.3165  149.9268   25.8620 H   0  0  0  0  0  0  0  0  0  0  0  0
   53.7658  149.0103   24.4186 H   0  0  0  0  0  0  0  0  0  0  0  0
   55.3784  149.8016   24.4186 H   0  0  0  0  0  0  0  0  0  0  0  0
   54.3412  153.4647   23.8354 H   0  0  0  0  0  0  0  0  0  0  0  0
   54.0791  157.6547   25.6274 H   0  0  0  0  0  0  0  0  0  0  0  0
   51.7110  154.5810   29.1480 H   0  0  0  0  0  0  0  0  0  0  0  0
   49.2729  155.7502   29.5859 H   0  0  0  0  0  0  0  0  0  0  0  0
   48.3354  157.8236   30.6042 H   0  0  0  0  0  0  0  0  0  0  0  0
   49.7725  159.8450   30.8730 H   0  0  0  0  0  0  0  0  0  0  0  0
   52.9300  160.2240   29.5290 H   0  0  0  0  0  0  0  0  0  0  0  0
   53.0857  157.7323   29.0797 H   0  0  0  0  0  0  0  0  0  0  0  0
   51.8700  152.8021   28.0775 H   0  0  0  0  0  0  0  0  0  0  0  0
   52.2121  150.5582   28.6867 H   0  0  0  0  0  0  0  0  0  0  0  0
   50.6927  151.0827   27.8850 H   0  0  0  0  0  0  0  0  0  0  0  0
   51.1554  149.3470   27.8850 H   0  0  0  0  0  0  0  0  0  0  0  0
  1  2  1  0
  2  3  1  0
  3  4  2  0
  4  5  1  0
  5  6  2  0
  6  7  1  0
  7  8  2  0
  8  9  1  0
  9 10  1  0
 10 11  1  0
 11 12  2  0
 12 13  1  0
 13 14  2  0
 14 15  1  0
 15 16  1  0
 15 17  2  0
  9 18  2  0
 18 19  1  0
 19 20  2  0
 20 21  1  0
 21 22  1  0
 20  3  1  0
 18  5  1  0
 17 11  1  0
  1 23  1  0
  1 24  1  0
  1 25  1  0
  4 26  1  0
  7 27  1  0
 10 28  1  0
 12 29  1  0
 13 30  1  0
 14 31  1  0
 16 32  1  0
 17 33  1  0
 19 34  1  0
 22 35  1  0
 22 36  1  0
 22 37  1  0
M  END
>  <meeko>  (4) 
{"is_sidechain": [false], "free_energy": -7.739, "intermolecular_energy": -10.606, "internal_energy": 0.67}

$$$$
DTQ_out
     RDKit          3D

 37 39  0  0  0  0  0  0  0  0999 V2000
   49.9180  161.5370   32.9640 C   0  0  0  0  0  0  0  0  0  0  0  0
   49.3850  161.2680   31.6720 O   0  0  0  0  0  0  0  0  0  0  0  0
   49.7720  160.0850   31.0950 C   0  0  0  0  0  0  0  0  0  0  0  0
   51.0950  160.0950   30.6290 C   0  0  0  0  0  0  0  0  0  0  0  0
   51.6800  158.9940   30.0240 C   0  0  0  0  0  0  0  0  0  0  0  0
   52.9380  159.0970   29.5810 N   0  0  0  0  0  0  0  0  0  0  0  0
   53.4580  158.0220   28.9790 C   0  0  0  0  0  0  0  0  0  0  0  0
   52.8470  156.8480   28.7960 N   0  0  0  0  0  0  0  0  0  0  0  0
   51.5960  156.7510   29.2790 C   0  0  0  0  0  0  0  0  0  0  0  0
   50.9980  155.4840   29.0920 N   0  0  0  0  0  0  0  0  0  0  0  0
   51.4330  154.4800   28.1860 C   0  0  0  0  0  0  0  0  0  0  0  0
   51.5950  153.1380   28.5590 C   0  0  0  0  0  0  0  0  0  0  0  0
   52.0690  152.1980   27.6400 C   0  0  0  0  0  0  0  0  0  0  0  0
   52.4040  152.5930   26.3470 C   0  0  0  0  0  0  0  0  0  0  0  0
   52.2740  153.9280   25.9840 C   0  0  0  0  0  0  0  0  0  0  0  0
   52.6250  154.2760   24.7130 O   0  0  0  0  0  0  0  0  0  0  0  0
   51.8050  154.8730   26.8930 C   0  0  0  0  0  0  0  0  0  0  0  0
   50.9260  157.8250   29.8950 C   0  0  0  0  0  0  0  0  0  0  0  0
   49.5850  157.8070   30.3650 C   0  0  0  0  0  0  0  0  0  0  0  0
   49.0090  158.9180   30.9900 C   0  0  0  0  0  0  0  0  0  0  0  0
   47.7440  158.9210   31.5100 O   0  0  0  0  0  0  0  0  0  0  0  0
   46.8600  159.9540   31.0850 C   0  0  0  0  0  0  0  0  0  0  0  0
   49.2148  161.1821   33.7319 H   0  0  0  0  0  0  0  0  0  0  0  0
   50.8802  161.0166   33.0793 H   0  0  0  0  0  0  0  0  0  0  0  0
   50.0709  162.6202   33.0793 H   0  0  0  0  0  0  0  0  0  0  0  0
   51.6909  161.0118   30.7484 H   0  0  0  0  0  0  0  0  0  0  0  0
   54.4861  158.1129   28.5985 H   0  0  0  0  0  0  0  0  0  0  0  0
   50.2080  155.2770   29.6410 H   0  0  0  0  0  0  0  0  0  0  0  0
   51.3470  152.8227   29.5832 H   0  0  0  0  0  0  0  0  0  0  0  0
   52.1777  151.1448   27.9381 H   0  0  0  0  0  0  0  0  0  0  0  0
   52.7687  151.8537   25.6187 H   0  0  0  0  0  0  0  0  0  0  0  0
   52.2590  153.8150   23.9840 H   0  0  0  0  0  0  0  0  0  0  0  0
   51.7264  155.9292   26.5959 H   0  0  0  0  0  0  0  0  0  0  0  0
   48.9839  156.8951   30.2338 H   0  0  0  0  0  0  0  0  0  0  0  0
   46.4313  160.4550   31.9655 H   0  0  0  0  0  0  0  0  0  0  0  0
   47.4154  160.6863   30.4807 H   0  0  0  0  0  0  0  0  0  0  0  0
   46.0507  159.5184   30.4807 H   0  0  0  0  0  0  0  0  0  0  0  0
  1  2  1  0
  2  3  1  0
  3  4  2  0
  4  5  1  0
  5  6  2  0
  6  7  1  0
  7  8  2  0
  8  9  1  0
  9 10  1  0
 10 11  1  0
 11 12  2  0
 12 13  1  0
 13 14  2  0
 14 15  1  0
 15 16  1  0
 15 17  2  0
  9 18  2  0
 18 19  1  0
 19 20  2  0
 20 21  1  0
 21 22  1  0
 20  3  1  0
 18  5  1  0
 17 11  1  0
  1 23  1  0
  1 24  1  0
  1 25  1  0
  4 26  1  0
  7 27  1  0
 10 28  1  0
 12 29  1  0
 13 30  1  0
 14 31  1  0
 16 32  1  0
 17 33  1  0
 19 34  1  0
 22 35  1  0
 22 36  1  0
 22 37  1  0
M  END
>  <meeko>  (5) 
{"is_sidechain": [false], "free_energy": -6.967, "intermolecular_energy": -9.287, "internal_energy": 0.326}

$$$$
DTQ_out
     RDKit          3D

 37 39  0  0  0  0  0  0  0  0999 V2000
   53.6380  148.3270   24.5900 C   0  0  0  0  0  0  0  0  0  0  0  0
   54.5950  149.3200   24.9460 O   0  0  0  0  0  0  0  0  0  0  0  0
   54.1010  150.5800   25.1670 C   0  0  0  0  0  0  0  0  0  0  0  0
   54.8370  151.5890   24.5290 C   0  0  0  0  0  0  0  0  0  0  0  0
   54.4960  152.9300   24.6180 C   0  0  0  0  0  0  0  0  0  0  0  0
   55.2690  153.8320   24.0030 N   0  0  0  0  0  0  0  0  0  0  0  0
   54.9220  155.1170   24.1360 C   0  0  0  0  0  0  0  0  0  0  0  0
   53.8650  155.5830   24.8070 N   0  0  0  0  0  0  0  0  0  0  0  0
   53.0800  154.6600   25.3890 C   0  0  0  0  0  0  0  0  0  0  0  0
   51.9570  155.1940   26.0620 N   0  0  0  0  0  0  0  0  0  0  0  0
   51.9350  155.6780   27.3970 C   0  0  0  0  0  0  0  0  0  0  0  0
   51.1370  155.1080   28.4000 C   0  0  0  0  0  0  0  0  0  0  0  0
   51.1190  155.6510   29.6870 C   0  0  0  0  0  0  0  0  0  0  0  0
   51.8810  156.7790   29.9800 C   0  0  0  0  0  0  0  0  0  0  0  0
   52.6480  157.3650   28.9800 C   0  0  0  0  0  0  0  0  0  0  0  0
   53.3710  158.4750   29.3050 O   0  0  0  0  0  0  0  0  0  0  0  0
   52.6720  156.8320   27.6930 C   0  0  0  0  0  0  0  0  0  0  0  0
   53.3630  153.2820   25.3550 C   0  0  0  0  0  0  0  0  0  0  0  0
   52.6120  152.2640   26.0050 C   0  0  0  0  0  0  0  0  0  0  0  0
   52.9540  150.9130   25.8940 C   0  0  0  0  0  0  0  0  0  0  0  0
   52.2240  149.9000   26.4520 O   0  0  0  0  0  0  0  0  0  0  0  0
   51.4740  150.1960   27.6250 C   0  0  0  0  0  0  0  0  0  0  0  0
   53.2118  147.8847   25.5025 H   0  0  0  0  0  0  0  0  0  0  0  0
   52.8349  148.7879   23.9963 H   0  0  0  0  0  0  0  0  0  0  0  0
   54.1283  147.5414   23.9963 H   0  0  0  0  0  0  0  0  0  0  0  0
   55.7186  151.3057   23.9352 H   0  0  0  0  0  0  0  0  0  0  0  0
   55.5682  155.8605   23.6465 H   0  0  0  0  0  0  0  0  0  0  0  0
   51.1120  155.2350   25.5590 H   0  0  0  0  0  0  0  0  0  0  0  0
   50.5204  154.2263   28.1713 H   0  0  0  0  0  0  0  0  0  0  0  0
   50.5018  155.1867   30.4703 H   0  0  0  0  0  0  0  0  0  0  0  0
   51.8760  157.2030   30.9950 H   0  0  0  0  0  0  0  0  0  0  0  0
   53.7950  158.9700   28.6320 H   0  0  0  0  0  0  0  0  0  0  0  0
   53.2704  157.3179   26.9083 H   0  0  0  0  0  0  0  0  0  0  0  0
   51.7389  152.5472   26.6112 H   0  0  0  0  0  0  0  0  0  0  0  0
   52.0758  149.9585   28.5146 H   0  0  0  0  0  0  0  0  0  0  0  0
   51.2130  151.2646   27.6334 H   0  0  0  0  0  0  0  0  0  0  0  0
   50.5536  149.5937   27.6334 H   0  0  0  0  0  0  0  0  0  0  0  0
  1  2  1  0
  2  3  1  0
  3  4  2  0
  4  5  1  0
  5  6  2  0
  6  7  1  0
  7  8  2  0
  8  9  1  0
  9 10  1  0
 10 11  1  0
 11 12  2  0
 12 13  1  0
 13 14  2  0
 14 15  1  0
 15 16  1  0
 15 17  2  0
  9 18  2  0
 18 19  1  0
 19 20  2  0
 20 21  1  0
 21 22  1  0
 20  3  1  0
 18  5  1  0
 17 11  1  0
  1 23  1  0
  1 24  1  0
  1 25  1  0
  4 26  1  0
  7 27  1  0
 10 28  1  0
 12 29  1  0
 13 30  1  0
 14 31  1  0
 16 32  1  0
 17 33  1  0
 19 34  1  0
 22 35  1  0
 22 36  1  0
 22 37  1  0
M  END
>  <meeko>  (6) 
{"is_sidechain": [false], "free_energy": -6.581, "intermolecular_energy": -8.43, "internal_energy": -0.045}

$$$$
DTQ_out
     RDKit          3D

 37 39  0  0  0  0  0  0  0  0999 V2000
   51.0000  159.1480   29.4750 C   0  0  0  0  0  0  0  0  0  0  0  0
   52.1220  158.2920   29.6690 O   0  0  0  0  0  0  0  0  0  0  0  0
   52.1910  157.1940   28.8510 C   0  0  0  0  0  0  0  0  0  0  0  0
   53.0250  157.3770   27.7380 C   0  0  0  0  0  0  0  0  0  0  0  0
   53.2380  156.3830   26.7960 C   0  0  0  0  0  0  0  0  0  0  0  0
   54.0250  156.6500   25.7470 N   0  0  0  0  0  0  0  0  0  0  0  0
   54.1840  155.6740   24.8460 C   0  0  0  0  0  0  0  0  0  0  0  0
   53.6490  154.4520   24.9050 N   0  0  0  0  0  0  0  0  0  0  0  0
   52.8890  154.1890   25.9830 C   0  0  0  0  0  0  0  0  0  0  0  0
   52.3670  152.8760   26.0200 N   0  0  0  0  0  0  0  0  0  0  0  0
   53.0490  151.6950   25.6240 C   0  0  0  0  0  0  0  0  0  0  0  0
   54.3090  151.7140   25.0080 C   0  0  0  0  0  0  0  0  0  0  0  0
   54.9160  150.5240   24.5970 C   0  0  0  0  0  0  0  0  0  0  0  0
   54.2630  149.3080   24.7800 C   0  0  0  0  0  0  0  0  0  0  0  0
   53.0010  149.2890   25.3610 C   0  0  0  0  0  0  0  0  0  0  0  0
   52.3900  148.0790   25.5100 O   0  0  0  0  0  0  0  0  0  0  0  0
   52.3860  150.4690   25.7720 C   0  0  0  0  0  0  0  0  0  0  0  0
   52.6140  155.1470   26.9780 C   0  0  0  0  0  0  0  0  0  0  0  0
   51.7680  154.9540   28.1040 C   0  0  0  0  0  0  0  0  0  0  0  0
   51.5730  155.9570   29.0580 C   0  0  0  0  0  0  0  0  0  0  0  0
   50.8170  155.7910   30.1860 O   0  0  0  0  0  0  0  0  0  0  0  0
   49.4400  156.1480   30.1140 C   0  0  0  0  0  0  0  0  0  0  0  0
   50.5989  159.4540   30.4525 H   0  0  0  0  0  0  0  0  0  0  0  0
   51.3121  160.0396   28.9114 H   0  0  0  0  0  0  0  0  0  0  0  0
   50.2226  158.6114   28.9114 H   0  0  0  0  0  0  0  0  0  0  0  0
   53.5290  158.3461   27.6080 H   0  0  0  0  0  0  0  0  0  0  0  0
   54.8153  155.8995   23.9739 H   0  0  0  0  0  0  0  0  0  0  0  0
   51.4470  152.7700   26.3530 H   0  0  0  0  0  0  0  0  0  0  0  0
   54.8234  152.6729   24.8471 H   0  0  0  0  0  0  0  0  0  0  0  0
   55.9109  150.5482   24.1284 H   0  0  0  0  0  0  0  0  0  0  0  0
   54.7428  148.3690   24.4668 H   0  0  0  0  0  0  0  0  0  0  0  0
   51.9390  147.8780   26.3060 H   0  0  0  0  0  0  0  0  0  0  0  0
   51.3788  150.4388   26.2133 H   0  0  0  0  0  0  0  0  0  0  0  0
   51.2532  153.9898   28.2279 H   0  0  0  0  0  0  0  0  0  0  0  0
   49.0348  156.2531   31.1312 H   0  0  0  0  0  0  0  0  0  0  0  0
   49.3363  157.1027   29.5776 H   0  0  0  0  0  0  0  0  0  0  0  0
   48.8855  155.3639   29.5776 H   0  0  0  0  0  0  0  0  0  0  0  0
  1  2  1  0
  2  3  1  0
  3  4  2  0
  4  5  1  0
  5  6  2  0
  6  7  1  0
  7  8  2  0
  8  9  1  0
  9 10  1  0
 10 11  1  0
 11 12  2  0
 12 13  1  0
 13 14  2  0
 14 15  1  0
 15 16  1  0
 15 17  2  0
  9 18  2  0
 18 19  1  0
 19 20  2  0
 20 21  1  0
 21 22  1  0
 20  3  1  0
 18  5  1  0
 17 11  1  0
  1 23  1  0
  1 24  1  0
  1 25  1  0
  4 26  1  0
  7 27  1  0
 10 28  1  0
 12 29  1  0
 13 30  1  0
 14 31  1  0
 16 32  1  0
 17 33  1  0
 19 34  1  0
 22 35  1  0
 22 36  1  0
 22 37  1  0
M  END
>  <meeko>  (7) 
{"is_sidechain": [false], "free_energy": -6.419, "intermolecular_energy": -8.5, "internal_energy": 0.231}

$$$$
DTQ_out
     RDKit          3D

 37 39  0  0  0  0  0  0  0  0999 V2000
   51.4500  154.5010   30.2210 C   0  0  0  0  0  0  0  0  0  0  0  0
   50.9570  155.3640   29.2020 O   0  0  0  0  0  0  0  0  0  0  0  0
   51.0580  156.7090   29.4500 C   0  0  0  0  0  0  0  0  0  0  0  0
   49.9960  157.2200   30.2100 C   0  0  0  0  0  0  0  0  0  0  0  0
   49.9170  158.5550   30.5780 C   0  0  0  0  0  0  0  0  0  0  0  0
   48.8540  158.9670   31.2780 N   0  0  0  0  0  0  0  0  0  0  0  0
   48.8020  160.2660   31.5890 C   0  0  0  0  0  0  0  0  0  0  0  0
   49.7200  161.1880   31.2860 N   0  0  0  0  0  0  0  0  0  0  0  0
   50.7980  160.7490   30.6130 C   0  0  0  0  0  0  0  0  0  0  0  0
   51.7590  161.7500   30.3390 N   0  0  0  0  0  0  0  0  0  0  0  0
   53.0840  161.7970   30.8460 C   0  0  0  0  0  0  0  0  0  0  0  0
   53.4150  161.3990   32.1500 C   0  0  0  0  0  0  0  0  0  0  0  0
   54.7280  161.5070   32.6140 C   0  0  0  0  0  0  0  0  0  0  0  0
   55.7190  162.0310   31.7880 C   0  0  0  0  0  0  0  0  0  0  0  0
   55.3890  162.4560   30.5070 C   0  0  0  0  0  0  0  0  0  0  0  0
   56.3860  162.9750   29.7350 O   0  0  0  0  0  0  0  0  0  0  0  0
   54.0820  162.3540   30.0360 C   0  0  0  0  0  0  0  0  0  0  0  0
   50.9490  159.4140   30.1920 C   0  0  0  0  0  0  0  0  0  0  0  0
   52.0290  158.9030   29.4220 C   0  0  0  0  0  0  0  0  0  0  0  0
   52.1080  157.5520   29.0720 C   0  0  0  0  0  0  0  0  0  0  0  0
   53.1590  157.0090   28.3850 O   0  0  0  0  0  0  0  0  0  0  0  0
   52.9370  156.6320   27.0300 C   0  0  0  0  0  0  0  0  0  0  0  0
   51.2087  154.9234   31.2076 H   0  0  0  0  0  0  0  0  0  0  0  0
   50.9813  153.5109   30.1214 H   0  0  0  0  0  0  0  0  0  0  0  0
   52.5410  154.4019   30.1214 H   0  0  0  0  0  0  0  0  0  0  0  0
   49.1949  156.5359   30.5264 H   0  0  0  0  0  0  0  0  0  0  0  0
   47.9187  160.6086   32.1480 H   0  0  0  0  0  0  0  0  0  0  0  0
   51.4840  162.4810   29.7400 H   0  0  0  0  0  0  0  0  0  0  0  0
   52.6337  160.9984   32.8127 H   0  0  0  0  0  0  0  0  0  0  0  0
   54.9794  161.1778   33.6330 H   0  0  0  0  0  0  0  0  0  0  0  0
   56.7559  162.1080   32.1471 H   0  0  0  0  0  0  0  0  0  0  0  0
   56.2750  163.0380   28.8070 H   0  0  0  0  0  0  0  0  0  0  0  0
   53.8331  162.7116   29.0260 H   0  0  0  0  0  0  0  0  0  0  0  0
   52.8236  159.5888   29.0929 H   0  0  0  0  0  0  0  0  0  0  0  0
   52.3790  155.6845   26.9997 H   0  0  0  0  0  0  0  0  0  0  0  0
   52.3563  157.4159   26.5217 H   0  0  0  0  0  0  0  0  0  0  0  0
   53.9042  156.5044   26.5217 H   0  0  0  0  0  0  0  0  0  0  0  0
  1  2  1  0
  2  3  1  0
  3  4  2  0
  4  5  1  0
  5  6  2  0
  6  7  1  0
  7  8  2  0
  8  9  1  0
  9 10  1  0
 10 11  1  0
 11 12  2  0
 12 13  1  0
 13 14  2  0
 14 15  1  0
 15 16  1  0
 15 17  2  0
  9 18  2  0
 18 19  1  0
 19 20  2  0
 20 21  1  0
 21 22  1  0
 20  3  1  0
 18  5  1  0
 17 11  1  0
  1 23  1  0
  1 24  1  0
  1 25  1  0
  4 26  1  0
  7 27  1  0
 10 28  1  0
 12 29  1  0
 13 30  1  0
 14 31  1  0
 16 32  1  0
 17 33  1  0
 19 34  1  0
 22 35  1  0
 22 36  1  0
 22 37  1  0
M  END
>  <meeko>  (8) 
{"is_sidechain": [false], "free_energy": -6.271, "intermolecular_energy": -7.555, "internal_energy": -0.527}

$$$$
