DTQ_out
     RDKit          3D

 37 39  0  0  0  0  0  0  0  0999 V2000
   54.3010  153.1030   24.2470 C   0  0  0  0  0  0  0  0  0  0  0  0
   53.1040  153.8740   24.2510 O   0  0  0  0  0  0  0  0  0  0  0  0
   52.9200  154.6970   25.3330 C   0  0  0  0  0  0  0  0  0  0  0  0
   52.3850  154.0400   26.4500 C   0  0  0  0  0  0  0  0  0  0  0  0
   52.1340  154.6930   27.6480 C   0  0  0  0  0  0  0  0  0  0  0  0
   51.5940  154.0000   28.6560 N   0  0  0  0  0  0  0  0  0  0  0  0
   51.3420  154.6710   29.7850 C   0  0  0  0  0  0  0  0  0  0  0  0
   51.5980  155.9620   30.0090 N   0  0  0  0  0  0  0  0  0  0  0  0
   52.1730  156.6350   28.9960 C   0  0  0  0  0  0  0  0  0  0  0  0
   52.4540  157.9900   29.2850 N   0  0  0  0  0  0  0  0  0  0  0  0
   51.6040  158.8900   29.9810 C   0  0  0  0  0  0  0  0  0  0  0  0
   50.2180  158.7040   30.0800 C   0  0  0  0  0  0  0  0  0  0  0  0
   49.4200  159.6440   30.7390 C   0  0  0  0  0  0  0  0  0  0  0  0
   49.9970  160.7870   31.2860 C   0  0  0  0  0  0  0  0  0  0  0  0
   51.3660  160.9900   31.1620 C   0  0  0  0  0  0  0  0  0  0  0  0
   51.8900  162.1270   31.7020 O   0  0  0  0  0  0  0  0  0  0  0  0
   52.1690  160.0600   30.5060 C   0  0  0  0  0  0  0  0  0  0  0  0
   52.4490  156.0500   27.7460 C   0  0  0  0  0  0  0  0  0  0  0  0
   52.9930  156.7220   26.6160 C   0  0  0  0  0  0  0  0  0  0  0  0
   53.2580  156.0510   25.4190 C   0  0  0  0  0  0  0  0  0  0  0  0
   53.8360  156.6450   24.3310 O   0  0  0  0  0  0  0  0  0  0  0  0
   55.2520  156.7950   24.3370 C   0  0  0  0  0  0  0  0  0  0  0  0
   54.6117  152.9029   25.2831 H   0  0  0  0  0  0  0  0  0  0  0  0
   54.1217  152.1502   23.7274 H   0  0  0  0  0  0  0  0  0  0  0  0
   55.0944  153.6603   23.7274 H   0  0  0  0  0  0  0  0  0  0  0  0
   52.1557  152.9669   26.3737 H   0  0  0  0  0  0  0  0  0  0  0  0
   50.8798  154.1054   30.6074 H   0  0  0  0  0  0  0  0  0  0  0  0
   53.3200  158.3420   28.9760 H   0  0  0  0  0  0  0  0  0  0  0  0
   49.7544  157.8110   29.6355 H   0  0  0  0  0  0  0  0  0  0  0  0
   48.3357  159.4805   30.8254 H   0  0  0  0  0  0  0  0  0  0  0  0
   49.3733  161.5243   31.8127 H   0  0  0  0  0  0  0  0  0  0  0  0
   52.4160  162.6960   31.1750 H   0  0  0  0  0  0  0  0  0  0  0  0
   53.2483  160.2442   30.3999 H   0  0  0  0  0  0  0  0  0  0  0  0
   53.2107  157.7979   26.6863 H   0  0  0  0  0  0  0  0  0  0  0  0
   55.6123  156.8332   25.3756 H   0  0  0  0  0  0  0  0  0  0  0  0
   55.7134  155.9407   23.8200 H   0  0  0  0  0  0  0  0  0  0  0  0
   55.5242  157.7270   23.8200 H   0  0  0  0  0  0  0  0  0  0  0  0
  1  2  1  0
  2  3  1  0
  3  4  2  0
  4  5  1  0
  5  6  2  0
  6  7  1  0
  7  8  2  0
  8  9  1  0
  9 10  1  0
 10 11  1  0
 11 12  2  0
 12 13  1  0
 13 14  2  0
 14 15  1  0
 15 16  1  0
 15 17  2  0
  9 18  2  0
 18 19  1  0
 19 20  2  0
 20 21  1  0
 21 22  1  0
 20  3  1  0
 18  5  1  0
 17 11  1  0
  1 23  1  0
  1 24  1  0
  1 25  1  0
  4 26  1  0
  7 27  1  0
 10 28  1  0
 12 29  1  0
 13 30  1  0
 14 31  1  0
 16 32  1  0
 17 33  1  0
 19 34  1  0
 22 35  1  0
 22 36  1  0
 22 37  1  0
M  END
>  <meeko>  (1) 
{"is_sidechain": [false], "free_energy": -9.072, "intermolecular_energy": -11.458, "internal_energy": -0.262}

$$$$
DTQ_out
     RDKit          3D

 37 39  0  0  0  0  0  0  0  0999 V2000
   54.2680  153.1470   24.2000 C   0  0  0  0  0  0  0  0  0  0  0  0
   53.0810  153.9330   24.2180 O   0  0  0  0  0  0  0  0  0  0  0  0
   52.8990  154.7230   25.3240 C   0  0  0  0  0  0  0  0  0  0  0  0
   52.3780  154.0320   26.4270 C   0  0  0  0  0  0  0  0  0  0  0  0
   52.1310  154.6480   27.6440 C   0  0  0  0  0  0  0  0  0  0  0  0
   51.6040  153.9220   28.6370 N   0  0  0  0  0  0  0  0  0  0  0  0
   51.3550  154.5590   29.7860 C   0  0  0  0  0  0  0  0  0  0  0  0
   51.6020  155.8460   30.0440 N   0  0  0  0  0  0  0  0  0  0  0  0
   52.1640  156.5520   29.0470 C   0  0  0  0  0  0  0  0  0  0  0  0
   52.4360  157.9000   29.3710 N   0  0  0  0  0  0  0  0  0  0  0  0
   51.5140  158.8300   29.9220 C   0  0  0  0  0  0  0  0  0  0  0  0
   51.8990  160.0890   30.4030 C   0  0  0  0  0  0  0  0  0  0  0  0
   50.9580  160.9490   30.9770 C   0  0  0  0  0  0  0  0  0  0  0  0
   49.6290  160.5510   31.0920 C   0  0  0  0  0  0  0  0  0  0  0  0
   49.2500  159.2920   30.6450 C   0  0  0  0  0  0  0  0  0  0  0  0
   47.9420  158.9360   30.7880 O   0  0  0  0  0  0  0  0  0  0  0  0
   50.1800  158.4260   30.0740 C   0  0  0  0  0  0  0  0  0  0  0  0
   52.4350  156.0040   27.7780 C   0  0  0  0  0  0  0  0  0  0  0  0
   52.9640  156.7120   26.6640 C   0  0  0  0  0  0  0  0  0  0  0  0
   53.2260  156.0770   25.4470 C   0  0  0  0  0  0  0  0  0  0  0  0
   53.7910  156.7070   24.3720 O   0  0  0  0  0  0  0  0  0  0  0  0
   55.2110  156.8070   24.3380 C   0  0  0  0  0  0  0  0  0  0  0  0
   54.5846  152.9373   25.2324 H   0  0  0  0  0  0  0  0  0  0  0  0
   54.0724  152.1993   23.6769 H   0  0  0  0  0  0  0  0  0  0  0  0
   55.0641  153.6971   23.6769 H   0  0  0  0  0  0  0  0  0  0  0  0
   52.1567  152.9596   26.3227 H   0  0  0  0  0  0  0  0  0  0  0  0
   50.9038  153.9668   30.5957 H   0  0  0  0  0  0  0  0  0  0  0  0
   53.3490  158.2250   29.2010 H   0  0  0  0  0  0  0  0  0  0  0  0
   52.9505  160.4031   30.3282 H   0  0  0  0  0  0  0  0  0  0  0  0
   51.2680  161.9408   31.3380 H   0  0  0  0  0  0  0  0  0  0  0  0
   48.8841  161.2291   31.5339 H   0  0  0  0  0  0  0  0  0  0  0  0
   47.6840  158.3700   31.4890 H   0  0  0  0  0  0  0  0  0  0  0  0
   49.8676  157.4248   29.7423 H   0  0  0  0  0  0  0  0  0  0  0  0
   53.1724  157.7876   26.7628 H   0  0  0  0  0  0  0  0  0  0  0  0
   55.6014  156.8345   25.3660 H   0  0  0  0  0  0  0  0  0  0  0  0
   55.6274  155.9360   23.8108 H   0  0  0  0  0  0  0  0  0  0  0  0
   55.5012  157.7278   23.8108 H   0  0  0  0  0  0  0  0  0  0  0  0
  1  2  1  0
  2  3  1  0
  3  4  2  0
  4  5  1  0
  5  6  2  0
  6  7  1  0
  7  8  2  0
  8  9  1  0
  9 10  1  0
 10 11  1  0
 11 12  2  0
 12 13  1  0
 13 14  2  0
 14 15  1  0
 15 16  1  0
 15 17  2  0
  9 18  2  0
 18 19  1  0
 19 20  2  0
 20 21  1  0
 21 22  1  0
 20  3  1  0
 18  5  1  0
 17 11  1  0
  1 23  1  0
  1 24  1  0
  1 25  1  0
  4 26  1  0
  7 27  1  0
 10 28  1  0
 12 29  1  0
 13 30  1  0
 14 31  1  0
 16 32  1  0
 17 33  1  0
 19 34  1  0
 22 35  1  0
 22 36  1  0
 22 37  1  0
M  END
>  <meeko>  (2) 
{"is_sidechain": [false], "free_energy": -8.934, "intermolecular_energy": -11.383, "internal_energy": -0.163}

$$$$
DTQ_out
     RDKit          3D

 37 39  0  0  0  0  0  0  0  0999 V2000
   48.1970  160.6000   32.3290 C   0  0  0  0  0  0  0  0  0  0  0  0
   49.2830  160.9720   31.4870 O   0  0  0  0  0  0  0  0  0  0  0  0
   49.9550  159.9420   30.8790 C   0  0  0  0  0  0  0  0  0  0  0  0
   49.1680  158.7970   30.6860 C   0  0  0  0  0  0  0  0  0  0  0  0
   49.6570  157.6510   30.0790 C   0  0  0  0  0  0  0  0  0  0  0  0
   48.8480  156.5920   29.9610 N   0  0  0  0  0  0  0  0  0  0  0  0
   49.3650  155.4960   29.3950 C   0  0  0  0  0  0  0  0  0  0  0  0
   50.6060  155.3660   28.9170 N   0  0  0  0  0  0  0  0  0  0  0  0
   51.3940  156.4510   29.0120 C   0  0  0  0  0  0  0  0  0  0  0  0
   52.6870  156.2810   28.4670 N   0  0  0  0  0  0  0  0  0  0  0  0
   53.0120  155.5290   27.3070 C   0  0  0  0  0  0  0  0  0  0  0  0
   53.2380  156.1220   26.0560 C   0  0  0  0  0  0  0  0  0  0  0  0
   53.5110  155.3330   24.9350 C   0  0  0  0  0  0  0  0  0  0  0  0
   53.5420  153.9450   25.0500 C   0  0  0  0  0  0  0  0  0  0  0  0
   53.2870  153.3540   26.2810 C   0  0  0  0  0  0  0  0  0  0  0  0
   53.3150  151.9920   26.3480 O   0  0  0  0  0  0  0  0  0  0  0  0
   53.0120  154.1310   27.4040 C   0  0  0  0  0  0  0  0  0  0  0  0
   50.9780  157.6490   29.6250 C   0  0  0  0  0  0  0  0  0  0  0  0
   51.7810  158.8060   29.8160 C   0  0  0  0  0  0  0  0  0  0  0  0
   51.2730  159.9630   30.4140 C   0  0  0  0  0  0  0  0  0  0  0  0
   51.9940  161.1170   30.5620 O   0  0  0  0  0  0  0  0  0  0  0  0
   51.8100  161.8590   31.7630 C   0  0  0  0  0  0  0  0  0  0  0  0
   48.4976  160.7030   33.3821 H   0  0  0  0  0  0  0  0  0  0  0  0
   47.3361  161.2545   32.1277 H   0  0  0  0  0  0  0  0  0  0  0  0
   47.9182  159.5551   32.1277 H   0  0  0  0  0  0  0  0  0  0  0  0
   48.1231  158.8091   31.0295 H   0  0  0  0  0  0  0  0  0  0  0  0
   48.7063  154.6186   29.3155 H   0  0  0  0  0  0  0  0  0  0  0  0
   53.4300  156.7240   28.9350 H   0  0  0  0  0  0  0  0  0  0  0  0
   53.2001  157.2168   25.9564 H   0  0  0  0  0  0  0  0  0  0  0  0
   53.7015  155.8083   23.9614 H   0  0  0  0  0  0  0  0  0  0  0  0
   53.7668  153.3214   24.1722 H   0  0  0  0  0  0  0  0  0  0  0  0
   53.5190  151.5670   27.1570 H   0  0  0  0  0  0  0  0  0  0  0  0
   52.7947  153.6469   28.3675 H   0  0  0  0  0  0  0  0  0  0  0  0
   52.8298  158.7907   29.4846 H   0  0  0  0  0  0  0  0  0  0  0  0
   51.9732  161.2009   32.6292 H   0  0  0  0  0  0  0  0  0  0  0  0
   52.5291  162.6909   31.7939 H   0  0  0  0  0  0  0  0  0  0  0  0
   50.7856  162.2585   31.7939 H   0  0  0  0  0  0  0  0  0  0  0  0
  1  2  1  0
  2  3  1  0
  3  4  2  0
  4  5  1  0
  5  6  2  0
  6  7  1  0
  7  8  2  0
  8  9  1  0
  9 10  1  0
 10 11  1  0
 11 12  2  0
 12 13  1  0
 13 14  2  0
 14 15  1  0
 15 16  1  0
 15 17  2  0
  9 18  2  0
 18 19  1  0
 19 20  2  0
 20 21  1  0
 21 22  1  0
 20  3  1  0
 18  5  1  0
 17 11  1  0
  1 23  1  0
  1 24  1  0
  1 25  1  0
  4 26  1  0
  7 27  1  0
 10 28  1  0
 12 29  1  0
 13 30  1  0
 14 31  1  0
 16 32  1  0
 17 33  1  0
 19 34  1  0
 22 35  1  0
 22 36  1  0
 22 37  1  0
M  END
>  <meeko>  (3) 
{"is_sidechain": [false], "free_energy": -7.255, "intermolecular_energy": -9.883, "internal_energy": 0.458}

$$$$
DTQ_out
     RDKit          3D

 37 39  0  0  0  0  0  0  0  0999 V2000
   54.1130  151.8720   24.1080 C   0  0  0  0  0  0  0  0  0  0  0  0
   53.3840  151.5380   25.2840 O   0  0  0  0  0  0  0  0  0  0  0  0
   53.0450  152.5860   26.1010 C   0  0  0  0  0  0  0  0  0  0  0  0
   53.4910  153.8300   25.6300 C   0  0  0  0  0  0  0  0  0  0  0  0
   53.2420  155.0150   26.3050 C   0  0  0  0  0  0  0  0  0  0  0  0
   53.7300  156.1550   25.8030 N   0  0  0  0  0  0  0  0  0  0  0  0
   53.4910  157.2720   26.4980 C   0  0  0  0  0  0  0  0  0  0  0  0
   52.7950  157.3620   27.6340 N   0  0  0  0  0  0  0  0  0  0  0  0
   52.2830  156.2110   28.1060 C   0  0  0  0  0  0  0  0  0  0  0  0
   51.5290  156.3550   29.2930 N   0  0  0  0  0  0  0  0  0  0  0  0
   51.0090  157.5710   29.8110 C   0  0  0  0  0  0  0  0  0  0  0  0
   49.6470  157.7590   30.0870 C   0  0  0  0  0  0  0  0  0  0  0  0
   49.1810  158.9910   30.5540 C   0  0  0  0  0  0  0  0  0  0  0  0
   50.0660  160.0510   30.7300 C   0  0  0  0  0  0  0  0  0  0  0  0
   51.4110  159.8770   30.4260 C   0  0  0  0  0  0  0  0  0  0  0  0
   52.2420  160.9430   30.6010 O   0  0  0  0  0  0  0  0  0  0  0  0
   51.8850  158.6540   29.9590 C   0  0  0  0  0  0  0  0  0  0  0  0
   52.5000  154.9650   27.4870 C   0  0  0  0  0  0  0  0  0  0  0  0
   52.0440  153.7080   27.9700 C   0  0  0  0  0  0  0  0  0  0  0  0
   52.2850  152.5210   27.2730 C   0  0  0  0  0  0  0  0  0  0  0  0
   51.8120  151.3010   27.6710 O   0  0  0  0  0  0  0  0  0  0  0  0
   51.1790  151.2230   28.9440 C   0  0  0  0  0  0  0  0  0  0  0  0
   55.0798  152.3149   24.3893 H   0  0  0  0  0  0  0  0  0  0  0  0
   54.2854  150.9631   23.5129 H   0  0  0  0  0  0  0  0  0  0  0  0
   53.5372  152.5961   23.5129 H   0  0  0  0  0  0  0  0  0  0  0  0
   54.0599  153.8665   24.6893 H   0  0  0  0  0  0  0  0  0  0  0  0
   53.9079  158.2068   26.0951 H   0  0  0  0  0  0  0  0  0  0  0  0
   51.3460  155.5360   29.8080 H   0  0  0  0  0  0  0  0  0  0  0  0
   48.9399  156.9303   29.9347 H   0  0  0  0  0  0  0  0  0  0  0  0
   48.1132  159.1233   30.7829 H   0  0  0  0  0  0  0  0  0  0  0  0
   49.7036  161.0188   31.1068 H   0  0  0  0  0  0  0  0  0  0  0  0
   52.6690  161.3300   29.8610 H   0  0  0  0  0  0  0  0  0  0  0  0
   52.9492  158.5380   29.7058 H   0  0  0  0  0  0  0  0  0  0  0  0
   51.4867  153.6687   28.9175 H   0  0  0  0  0  0  0  0  0  0  0  0
   51.9363  151.3163   29.7364 H   0  0  0  0  0  0  0  0  0  0  0  0
   50.4460  152.0376   29.0396 H   0  0  0  0  0  0  0  0  0  0  0  0
   50.6657  150.2548   29.0396 H   0  0  0  0  0  0  0  0  0  0  0  0
  1  2  1  0
  2  3  1  0
  3  4  2  0
  4  5  1  0
  5  6  2  0
  6  7  1  0
  7  8  2  0
  8  9  1  0
  9 10  1  0
 10 11  1  0
 11 12  2  0
 12 13  1  0
 13 14  2  0
 14 15  1  0
 15 16  1  0
 15 17  2  0
  9 18  2  0
 18 19  1  0
 19 20  2  0
 20 21  1  0
 21 22  1  0
 20  3  1  0
 18  5  1  0
 17 11  1  0
  1 23  1  0
  1 24  1  0
  1 25  1  0
  4 26  1  0
  7 27  1  0
 10 28  1  0
 12 29  1  0
 13 30  1  0
 14 31  1  0
 16 32  1  0
 17 33  1  0
 19 34  1  0
 22 35  1  0
 22 36  1  0
 22 37  1  0
M  END
>  <meeko>  (4) 
{"is_sidechain": [false], "free_energy": -6.708, "intermolecular_energy": -8.876, "internal_energy": 0.142}

$$$$
DTQ_out
     RDKit          3D

 37 39  0  0  0  0  0  0  0  0999 V2000
   49.6000  161.4950   33.3590 C   0  0  0  0  0  0  0  0  0  0  0  0
   49.3220  161.4180   31.9650 O   0  0  0  0  0  0  0  0  0  0  0  0
   49.6750  160.2470   31.3440 C   0  0  0  0  0  0  0  0  0  0  0  0
   50.9800  160.2560   30.8320 C   0  0  0  0  0  0  0  0  0  0  0  0
   51.5310  159.1650   30.1780 C   0  0  0  0  0  0  0  0  0  0  0  0
   52.7740  159.2670   29.6930 N   0  0  0  0  0  0  0  0  0  0  0  0
   53.2600  158.2030   29.0450 C   0  0  0  0  0  0  0  0  0  0  0  0
   52.6300  157.0400   28.8540 N   0  0  0  0  0  0  0  0  0  0  0  0
   51.3960  156.9430   29.3780 C   0  0  0  0  0  0  0  0  0  0  0  0
   50.7780  155.6870   29.1800 N   0  0  0  0  0  0  0  0  0  0  0  0
   51.2730  154.6300   28.3720 C   0  0  0  0  0  0  0  0  0  0  0  0
   51.5990  153.3670   28.8870 C   0  0  0  0  0  0  0  0  0  0  0  0
   52.1260  152.3750   28.0560 C   0  0  0  0  0  0  0  0  0  0  0  0
   52.3500  152.6410   26.7080 C   0  0  0  0  0  0  0  0  0  0  0  0
   52.0590  153.9020   26.2010 C   0  0  0  0  0  0  0  0  0  0  0  0
   52.3050  154.1250   24.8790 O   0  0  0  0  0  0  0  0  0  0  0  0
   51.5350  154.8980   27.0210 C   0  0  0  0  0  0  0  0  0  0  0  0
   50.7600  158.0080   30.0460 C   0  0  0  0  0  0  0  0  0  0  0  0
   49.4360  157.9910   30.5630 C   0  0  0  0  0  0  0  0  0  0  0  0
   48.8960  159.0910   31.2360 C   0  0  0  0  0  0  0  0  0  0  0  0
   47.6500  159.0940   31.8010 O   0  0  0  0  0  0  0  0  0  0  0  0
   46.6670  159.9490   31.2250 C   0  0  0  0  0  0  0  0  0  0  0  0
   48.6929  161.2438   33.9282 H   0  0  0  0  0  0  0  0  0  0  0  0
   50.4007  160.7848   33.6130 H   0  0  0  0  0  0  0  0  0  0  0  0
   49.9212  162.5159   33.6130 H   0  0  0  0  0  0  0  0  0  0  0  0
   51.5899  161.1633   30.9538 H   0  0  0  0  0  0  0  0  0  0  0  0
   54.2746  158.2936   28.6298 H   0  0  0  0  0  0  0  0  0  0  0  0
   49.9250  155.5310   29.6460 H   0  0  0  0  0  0  0  0  0  0  0  0
   51.4384  153.1554   29.9545 H   0  0  0  0  0  0  0  0  0  0  0  0
   52.3641  151.3830   28.4673 H   0  0  0  0  0  0  0  0  0  0  0  0
   52.7544  151.8588   26.0488 H   0  0  0  0  0  0  0  0  0  0  0  0
   52.7490  154.9050   24.6100 H   0  0  0  0  0  0  0  0  0  0  0  0
   51.3264  155.8961   26.6084 H   0  0  0  0  0  0  0  0  0  0  0  0
   48.8204  157.0891   30.4301 H   0  0  0  0  0  0  0  0  0  0  0  0
   46.0976  160.4443   32.0253 H   0  0  0  0  0  0  0  0  0  0  0  0
   47.1616  160.7092   30.6025 H   0  0  0  0  0  0  0  0  0  0  0  0
   45.9827  159.3538   30.6025 H   0  0  0  0  0  0  0  0  0  0  0  0
  1  2  1  0
  2  3  1  0
  3  4  2  0
  4  5  1  0
  5  6  2  0
  6  7  1  0
  7  8  2  0
  8  9  1  0
  9 10  1  0
 10 11  1  0
 11 12  2  0
 12 13  1  0
 13 14  2  0
 14 15  1  0
 15 16  1  0
 15 17  2  0
  9 18  2  0
 18 19  1  0
 19 20  2  0
 20 21  1  0
 21 22  1  0
 20  3  1  0
 18  5  1  0
 17 11  1  0
  1 23  1  0
  1 24  1  0
  1 25  1  0
  4 26  1  0
  7 27  1  0
 10 28  1  0
 12 29  1  0
 13 30  1  0
 14 31  1  0
 16 32  1  0
 17 33  1  0
 19 34  1  0
 22 35  1  0
 22 36  1  0
 22 37  1  0
M  END
>  <meeko>  (5) 
{"is_sidechain": [false], "free_energy": -6.672, "intermolecular_energy": -8.725, "internal_energy": 0.035}

$$$$
