quercetin_maoa_out
     RDKit          3D

 32 34  0  0  0  0  0  0  0  0999 V2000
   52.1510  152.8760   28.8030 O   0  0  0  0  0  0  0  0  0  0  0  0
   52.2730  154.0440   28.4420 C   0  0  0  0  0  0  0  0  0  0  0  0
   51.7220  155.1450   29.2650 C   0  0  0  0  0  0  0  0  0  0  0  0
   51.0640  154.7920   30.4290 O   0  0  0  0  0  0  0  0  0  0  0  0
   51.8740  156.4110   28.8300 C   0  0  0  0  0  0  0  0  0  0  0  0
   51.3490  157.5890   29.5570 C   0  0  0  0  0  0  0  0  0  0  0  0
   50.0260  157.5770   30.0360 C   0  0  0  0  0  0  0  0  0  0  0  0
   49.4920  158.6830   30.7050 C   0  0  0  0  0  0  0  0  0  0  0  0
   50.2830  159.8050   30.8910 C   0  0  0  0  0  0  0  0  0  0  0  0
   49.7640  160.8840   31.5450 O   0  0  0  0  0  0  0  0  0  0  0  0
   51.5910  159.8380   30.4200 C   0  0  0  0  0  0  0  0  0  0  0  0
   52.3160  160.9780   30.6370 O   0  0  0  0  0  0  0  0  0  0  0  0
   52.1280  158.7430   29.7490 C   0  0  0  0  0  0  0  0  0  0  0  0
   52.5160  156.7490   27.6440 O   0  0  0  0  0  0  0  0  0  0  0  0
   53.0430  155.7510   26.8650 C   0  0  0  0  0  0  0  0  0  0  0  0
   53.6880  156.1370   25.6900 C   0  0  0  0  0  0  0  0  0  0  0  0
   54.2410  155.1650   24.8600 C   0  0  0  0  0  0  0  0  0  0  0  0
   54.8610  155.5840   23.7210 O   0  0  0  0  0  0  0  0  0  0  0  0
   54.1610  153.8130   25.1840 C   0  0  0  0  0  0  0  0  0  0  0  0
   53.5160  153.4350   26.3600 C   0  0  0  0  0  0  0  0  0  0  0  0
   53.4660  152.0930   26.6300 O   0  0  0  0  0  0  0  0  0  0  0  0
   52.9580  154.4030   27.1990 C   0  0  0  0  0  0  0  0  0  0  0  0
   51.5560  154.5530   31.1900 H   0  0  0  0  0  0  0  0  0  0  0  0
   49.4023  156.6841   29.8819 H   0  0  0  0  0  0  0  0  0  0  0  0
   48.4576  158.6623   31.0786 H   0  0  0  0  0  0  0  0  0  0  0  0
   49.1500  161.4440   31.1130 H   0  0  0  0  0  0  0  0  0  0  0  0
   52.7960  161.3700   29.9330 H   0  0  0  0  0  0  0  0  0  0  0  0
   53.1599  158.7808   29.3698 H   0  0  0  0  0  0  0  0  0  0  0  0
   53.7593  157.2012   25.4210 H   0  0  0  0  0  0  0  0  0  0  0  0
   55.7970  155.6110   23.6810 H   0  0  0  0  0  0  0  0  0  0  0  0
   54.6010  153.0538   24.5207 H   0  0  0  0  0  0  0  0  0  0  0  0
   53.1140  151.7920   27.4450 H   0  0  0  0  0  0  0  0  0  0  0  0
  1  2  2  0
  2  3  1  0
  3  4  1  0
  3  5  2  0
  5  6  1  0
  6  7  2  0
  7  8  1  0
  8  9  2  0
  9 10  1  0
  9 11  1  0
 11 12  1  0
 11 13  2  0
  5 14  1  0
 14 15  1  0
 15 16  2  0
 16 17  1  0
 17 18  1  0
 17 19  2  0
 19 20  1  0
 20 21  1  0
 20 22  2  0
 22  2  1  0
 13  6  1  0
 22 15  1  0
  4 23  1  0
  7 24  1  0
  8 25  1  0
 10 26  1  0
 12 27  1  0
 13 28  1  0
 16 29  1  0
 18 30  1  0
 19 31  1  0
 21 32  1  0
M  END
>  <meeko>  (1) 
{"is_sidechain": [false], "free_energy": -10.159, "intermolecular_energy": -12.237, "internal_energy": -0.007}

$$$$
quercetin_maoa_out
     RDKit          3D

 32 34  0  0  0  0  0  0  0  0999 V2000
   52.4100  160.7250   30.4550 O   0  0  0  0  0  0  0  0  0  0  0  0
   51.6790  159.7510   30.2870 C   0  0  0  0  0  0  0  0  0  0  0  0
   52.2120  158.5060   29.6910 C   0  0  0  0  0  0  0  0  0  0  0  0
   53.5470  158.5040   29.3290 O   0  0  0  0  0  0  0  0  0  0  0  0
   51.3760  157.4640   29.5210 C   0  0  0  0  0  0  0  0  0  0  0  0
   51.7910  156.1770   28.9190 C   0  0  0  0  0  0  0  0  0  0  0  0
   51.4670  154.9700   29.5670 C   0  0  0  0  0  0  0  0  0  0  0  0
   51.8640  153.7390   29.0370 C   0  0  0  0  0  0  0  0  0  0  0  0
   52.5910  153.7140   27.8590 C   0  0  0  0  0  0  0  0  0  0  0  0
   52.9780  152.5140   27.3390 O   0  0  0  0  0  0  0  0  0  0  0  0
   52.9260  154.8970   27.2060 C   0  0  0  0  0  0  0  0  0  0  0  0
   53.6460  154.8000   26.0470 O   0  0  0  0  0  0  0  0  0  0  0  0
   52.5380  156.1270   27.7300 C   0  0  0  0  0  0  0  0  0  0  0  0
   50.0300  157.4890   29.8680 O   0  0  0  0  0  0  0  0  0  0  0  0
   49.5090  158.6260   30.4300 C   0  0  0  0  0  0  0  0  0  0  0  0
   48.1570  158.6030   30.7720 C   0  0  0  0  0  0  0  0  0  0  0  0
   47.5750  159.7310   31.3440 C   0  0  0  0  0  0  0  0  0  0  0  0
   46.2510  159.6670   31.6630 O   0  0  0  0  0  0  0  0  0  0  0  0
   48.3200  160.8830   31.5800 C   0  0  0  0  0  0  0  0  0  0  0  0
   49.6710  160.8990   31.2370 C   0  0  0  0  0  0  0  0  0  0  0  0
   50.3560  162.0570   31.4910 O   0  0  0  0  0  0  0  0  0  0  0  0
   50.2640  159.7720   30.6620 C   0  0  0  0  0  0  0  0  0  0  0  0
   53.9620  159.3010   29.0630 H   0  0  0  0  0  0  0  0  0  0  0  0
   50.8926  154.9960   30.5048 H   0  0  0  0  0  0  0  0  0  0  0  0
   51.6020  152.8016   29.5496 H   0  0  0  0  0  0  0  0  0  0  0  0
   52.7470  152.2860   26.4610 H   0  0  0  0  0  0  0  0  0  0  0  0
   53.2150  154.5780   25.2450 H   0  0  0  0  0  0  0  0  0  0  0  0
   52.8157  157.0580   27.2142 H   0  0  0  0  0  0  0  0  0  0  0  0
   47.5550  157.7003   30.5911 H   0  0  0  0  0  0  0  0  0  0  0  0
   45.6170  159.4960   30.9940 H   0  0  0  0  0  0  0  0  0  0  0  0
   47.8489  161.7688   32.0311 H   0  0  0  0  0  0  0  0  0  0  0  0
   49.9740  162.7180   32.0350 H   0  0  0  0  0  0  0  0  0  0  0  0
  1  2  2  0
  2  3  1  0
  3  4  1  0
  3  5  2  0
  5  6  1  0
  6  7  2  0
  7  8  1  0
  8  9  2  0
  9 10  1  0
  9 11  1  0
 11 12  1  0
 11 13  2  0
  5 14  1  0
 14 15  1  0
 15 16  2  0
 16 17  1  0
 17 18  1  0
 17 19  2  0
 19 20  1  0
 20 21  1  0
 20 22  2  0
 22  2  1  0
 13  6  1  0
 22 15  1  0
  4 23  1  0
  7 24  1  0
  8 25  1  0
 10 26  1  0
 12 27  1  0
 13 28  1  0
 16 29  1  0
 18 30  1  0
 19 31  1  0
 21 32  1  0
M  END
>  <meeko>  (2) 
{"is_sidechain": [false], "free_energy": -9.844, "intermolecular_energy": -11.819, "internal_energy": -0.047}

$$$$
quercetin_maoa_out
     RDKit          3D

 32 34  0  0  0  0  0  0  0  0999 V2000
   52.1740  152.9100   28.8800 O   0  0  0  0  0  0  0  0  0  0  0  0
   52.2770  154.0740   28.4970 C   0  0  0  0  0  0  0  0  0  0  0  0
   51.7120  155.1810   29.3000 C   0  0  0  0  0  0  0  0  0  0  0  0
   51.0630  154.8400   30.4740 O   0  0  0  0  0  0  0  0  0  0  0  0
   51.8440  156.4400   28.8420 C   0  0  0  0  0  0  0  0  0  0  0  0
   51.3040  157.6240   29.5480 C   0  0  0  0  0  0  0  0  0  0  0  0
   52.1050  158.7730   29.6930 C   0  0  0  0  0  0  0  0  0  0  0  0
   51.6340  159.8990   30.3740 C   0  0  0  0  0  0  0  0  0  0  0  0
   50.3600  159.8750   30.9170 C   0  0  0  0  0  0  0  0  0  0  0  0
   49.8980  160.9730   31.5820 O   0  0  0  0  0  0  0  0  0  0  0  0
   49.5550  158.7470   30.7900 C   0  0  0  0  0  0  0  0  0  0  0  0
   48.3080  158.7910   31.3510 O   0  0  0  0  0  0  0  0  0  0  0  0
   50.0190  157.6200   30.1170 C   0  0  0  0  0  0  0  0  0  0  0  0
   52.4770  156.7660   27.6480 O   0  0  0  0  0  0  0  0  0  0  0  0
   53.0180  155.7620   26.8860 C   0  0  0  0  0  0  0  0  0  0  0  0
   53.6540  156.1360   25.7020 C   0  0  0  0  0  0  0  0  0  0  0  0
   54.2190  155.1570   24.8890 C   0  0  0  0  0  0  0  0  0  0  0  0
   54.8290  155.5640   23.7410 O   0  0  0  0  0  0  0  0  0  0  0  0
   54.1600  153.8100   25.2380 C   0  0  0  0  0  0  0  0  0  0  0  0
   53.5240  153.4440   26.4230 C   0  0  0  0  0  0  0  0  0  0  0  0
   53.4950  152.1080   26.7170 O   0  0  0  0  0  0  0  0  0  0  0  0
   52.9540  154.4190   27.2460 C   0  0  0  0  0  0  0  0  0  0  0  0
   51.4880  154.9710   31.2990 H   0  0  0  0  0  0  0  0  0  0  0  0
   53.1176  158.7846   29.2634 H   0  0  0  0  0  0  0  0  0  0  0  0
   52.2669  160.7927   30.4774 H   0  0  0  0  0  0  0  0  0  0  0  0
   50.0920  161.8310   31.2610 H   0  0  0  0  0  0  0  0  0  0  0  0
   47.7180  158.0700   31.2390 H   0  0  0  0  0  0  0  0  0  0  0  0
   49.3810  156.7281   30.0308 H   0  0  0  0  0  0  0  0  0  0  0  0
   53.7087  157.1960   25.4130 H   0  0  0  0  0  0  0  0  0  0  0  0
   54.8390  156.4730   23.5130 H   0  0  0  0  0  0  0  0  0  0  0  0
   54.6092  153.0453   24.5873 H   0  0  0  0  0  0  0  0  0  0  0  0
   54.0780  151.5180   26.2790 H   0  0  0  0  0  0  0  0  0  0  0  0
  1  2  2  0
  2  3  1  0
  3  4  1  0
  3  5  2  0
  5  6  1  0
  6  7  2  0
  7  8  1  0
  8  9  2  0
  9 10  1  0
  9 11  1  0
 11 12  1  0
 11 13  2  0
  5 14  1  0
 14 15  1  0
 15 16  2  0
 16 17  1  0
 17 18  1  0
 17 19  2  0
 19 20  1  0
 20 21  1  0
 20 22  2  0
 22  2  1  0
 13  6  1  0
 22 15  1  0
  4 23  1  0
  7 24  1  0
  8 25  1  0
 10 26  1  0
 12 27  1  0
 13 28  1  0
 16 29  1  0
 18 30  1  0
 19 31  1  0
 21 32  1  0
M  END
>  <meeko>  (3) 
{"is_sidechain": [false], "free_energy": -9.668, "intermolecular_energy": -11.652, "internal_energy": -0.002}

$$$$
quercetin_maoa_out
     RDKit          3D

 32 34  0  0  0  0  0  0  0  0999 V2000
   47.5930  158.3700   30.5540 O   0  0  0  0  0  0  0  0  0  0  0  0
   48.8060  158.3460   30.3550 C   0  0  0  0  0  0  0  0  0  0  0  0
   49.4390  157.1710   29.7150 C   0  0  0  0  0  0  0  0  0  0  0  0
   48.6100  156.1180   29.3740 O   0  0  0  0  0  0  0  0  0  0  0  0
   50.7710  157.1850   29.5190 C   0  0  0  0  0  0  0  0  0  0  0  0
   51.5160  156.0610   28.9080 C   0  0  0  0  0  0  0  0  0  0  0  0
   51.4750  154.7900   29.5130 C   0  0  0  0  0  0  0  0  0  0  0  0
   52.1860  153.7130   28.9750 C   0  0  0  0  0  0  0  0  0  0  0  0
   52.9430  153.9080   27.8310 C   0  0  0  0  0  0  0  0  0  0  0  0
   53.6360  152.8590   27.3030 O   0  0  0  0  0  0  0  0  0  0  0  0
   53.0000  155.1580   27.2220 C   0  0  0  0  0  0  0  0  0  0  0  0
   53.7670  155.2810   26.0950 O   0  0  0  0  0  0  0  0  0  0  0  0
   52.2990  156.2360   27.7540 C   0  0  0  0  0  0  0  0  0  0  0  0
   51.5960  158.2400   29.8900 O   0  0  0  0  0  0  0  0  0  0  0  0
   51.0370  159.3470   30.4780 C   0  0  0  0  0  0  0  0  0  0  0  0
   51.9000  160.3860   30.8230 C   0  0  0  0  0  0  0  0  0  0  0  0
   51.3880  161.5330   31.4240 C   0  0  0  0  0  0  0  0  0  0  0  0
   52.2650  162.5240   31.7470 O   0  0  0  0  0  0  0  0  0  0  0  0
   50.0260  161.6590   31.6870 C   0  0  0  0  0  0  0  0  0  0  0  0
   49.1690  160.6170   31.3380 C   0  0  0  0  0  0  0  0  0  0  0  0
   47.8410  160.7930   31.6190 O   0  0  0  0  0  0  0  0  0  0  0  0
   49.6750  159.4620   30.7350 C   0  0  0  0  0  0  0  0  0  0  0  0
   48.9190  155.2360   29.4450 H   0  0  0  0  0  0  0  0  0  0  0  0
   50.8745  154.6423   30.4227 H   0  0  0  0  0  0  0  0  0  0  0  0
   52.1449  152.7235   29.4538 H   0  0  0  0  0  0  0  0  0  0  0  0
   53.3120  151.9850   27.4000 H   0  0  0  0  0  0  0  0  0  0  0  0
   54.2570  154.5460   25.7800 H   0  0  0  0  0  0  0  0  0  0  0  0
   52.3576  157.2232   27.2723 H   0  0  0  0  0  0  0  0  0  0  0  0
   52.9781  160.3003   30.6218 H   0  0  0  0  0  0  0  0  0  0  0  0
   53.1580  162.3150   31.9390 H   0  0  0  0  0  0  0  0  0  0  0  0
   49.6322  162.5687   32.1638 H   0  0  0  0  0  0  0  0  0  0  0  0
   47.5210  160.6410   32.4860 H   0  0  0  0  0  0  0  0  0  0  0  0
  1  2  2  0
  2  3  1  0
  3  4  1  0
  3  5  2  0
  5  6  1  0
  6  7  2  0
  7  8  1  0
  8  9  2  0
  9 10  1  0
  9 11  1  0
 11 12  1  0
 11 13  2  0
  5 14  1  0
 14 15  1  0
 15 16  2  0
 16 17  1  0
 17 18  1  0
 17 19  2  0
 19 20  1  0
 20 21  1  0
 20 22  2  0
 22  2  1  0
 13  6  1  0
 22 15  1  0
  4 23  1  0
  7 24  1  0
  8 25  1  0
 10 26  1  0
 12 27  1  0
 13 28  1  0
 16 29  1  0
 18 30  1  0
 19 31  1  0
 21 32  1  0
M  END
>  <meeko>  (4) 
{"is_sidechain": [false], "free_energy": -8.597, "intermolecular_energy": -10.214, "internal_energy": -0.148}

$$$$
quercetin_maoa_out
     RDKit          3D

 32 34  0  0  0  0  0  0  0  0999 V2000
   47.7940  158.4880   31.0150 O   0  0  0  0  0  0  0  0  0  0  0  0
   48.9770  158.5340   30.6850 C   0  0  0  0  0  0  0  0  0  0  0  0
   49.6000  157.3990   29.9660 C   0  0  0  0  0  0  0  0  0  0  0  0
   48.7970  156.3030   29.7050 O   0  0  0  0  0  0  0  0  0  0  0  0
   50.8990  157.4900   29.6260 C   0  0  0  0  0  0  0  0  0  0  0  0
   51.6330  156.4130   28.9230 C   0  0  0  0  0  0  0  0  0  0  0  0
   52.4150  156.7260   27.7950 C   0  0  0  0  0  0  0  0  0  0  0  0
   53.1020  155.7300   27.0950 C   0  0  0  0  0  0  0  0  0  0  0  0
   53.0030  154.4160   27.5220 C   0  0  0  0  0  0  0  0  0  0  0  0
   53.6730  153.4420   26.8410 O   0  0  0  0  0  0  0  0  0  0  0  0
   52.2310  154.0850   28.6310 C   0  0  0  0  0  0  0  0  0  0  0  0
   52.1770  152.7680   28.9970 O   0  0  0  0  0  0  0  0  0  0  0  0
   51.5410  155.0710   29.3300 C   0  0  0  0  0  0  0  0  0  0  0  0
   51.7000  158.5880   29.9170 O   0  0  0  0  0  0  0  0  0  0  0  0
   51.1490  159.6580   30.5750 C   0  0  0  0  0  0  0  0  0  0  0  0
   51.9860  160.7420   30.8360 C   0  0  0  0  0  0  0  0  0  0  0  0
   51.4790  161.8550   31.5030 C   0  0  0  0  0  0  0  0  0  0  0  0
   52.3310  162.8920   31.7390 O   0  0  0  0  0  0  0  0  0  0  0  0
   50.1500  161.9020   31.9140 C   0  0  0  0  0  0  0  0  0  0  0  0
   49.3190  160.8160   31.6490 C   0  0  0  0  0  0  0  0  0  0  0  0
   48.0220  160.9150   32.0750 O   0  0  0  0  0  0  0  0  0  0  0  0
   49.8180  159.6940   30.9800 C   0  0  0  0  0  0  0  0  0  0  0  0
   49.0140  155.7210   29.0040 H   0  0  0  0  0  0  0  0  0  0  0  0
   52.4866  157.7710   27.4591 H   0  0  0  0  0  0  0  0  0  0  0  0
   53.7130  155.9862   26.2169 H   0  0  0  0  0  0  0  0  0  0  0  0
   54.1570  153.6570   26.0680 H   0  0  0  0  0  0  0  0  0  0  0  0
   52.4570  152.1030   28.3980 H   0  0  0  0  0  0  0  0  0  0  0  0
   50.9245  154.8003   30.1998 H   0  0  0  0  0  0  0  0  0  0  0  0
   53.0387  160.7186   30.5177 H   0  0  0  0  0  0  0  0  0  0  0  0
   52.2110  163.7070   31.2910 H   0  0  0  0  0  0  0  0  0  0  0  0
   49.7609  162.7855   32.4413 H   0  0  0  0  0  0  0  0  0  0  0  0
   47.6790  161.7450   32.3430 H   0  0  0  0  0  0  0  0  0  0  0  0
  1  2  2  0
  2  3  1  0
  3  4  1  0
  3  5  2  0
  5  6  1  0
  6  7  2  0
  7  8  1  0
  8  9  2  0
  9 10  1  0
  9 11  1  0
 11 12  1  0
 11 13  2  0
  5 14  1  0
 14 15  1  0
 15 16  2  0
 16 17  1  0
 17 18  1  0
 17 19  2  0
 19 20  1  0
 20 21  1  0
 20 22  2  0
 22  2  1  0
 13  6  1  0
 22 15  1  0
  4 23  1  0
  7 24  1  0
  8 25  1  0
 10 26  1  0
 12 27  1  0
 13 28  1  0
 16 29  1  0
 18 30  1  0
 19 31  1  0
 21 32  1  0
M  END
>  <meeko>  (5) 
{"is_sidechain": [false], "free_energy": -8.44, "intermolecular_energy": -10.137, "internal_energy": -0.036}

$$$$
quercetin_maoa_out
     RDKit          3D

 32 34  0  0  0  0  0  0  0  0999 V2000
   48.4520  157.4500   30.8310 O   0  0  0  0  0  0  0  0  0  0  0  0
   49.5530  157.7270   30.3580 C   0  0  0  0  0  0  0  0  0  0  0  0
   50.2350  156.7850   29.4420 C   0  0  0  0  0  0  0  0  0  0  0  0
   49.5850  155.5960   29.1640 O   0  0  0  0  0  0  0  0  0  0  0  0
   51.4400  157.1270   28.9490 C   0  0  0  0  0  0  0  0  0  0  0  0
   52.2240  156.2590   28.0410 C   0  0  0  0  0  0  0  0  0  0  0  0
   52.8280  156.8160   26.8980 C   0  0  0  0  0  0  0  0  0  0  0  0
   53.5550  156.0200   26.0080 C   0  0  0  0  0  0  0  0  0  0  0  0
   53.6750  154.6630   26.2590 C   0  0  0  0  0  0  0  0  0  0  0  0
   54.3850  153.8850   25.3920 O   0  0  0  0  0  0  0  0  0  0  0  0
   53.0810  154.0930   27.3810 C   0  0  0  0  0  0  0  0  0  0  0  0
   53.2390  152.7470   27.5680 O   0  0  0  0  0  0  0  0  0  0  0  0
   52.3520  154.8780   28.2690 C   0  0  0  0  0  0  0  0  0  0  0  0
   52.0930  158.3160   29.2560 O   0  0  0  0  0  0  0  0  0  0  0  0
   51.4820  159.2110   30.0960 C   0  0  0  0  0  0  0  0  0  0  0  0
   52.1660  160.3960   30.3680 C   0  0  0  0  0  0  0  0  0  0  0  0
   51.5940  161.3400   31.2150 C   0  0  0  0  0  0  0  0  0  0  0  0
   52.2970  162.4830   31.4560 O   0  0  0  0  0  0  0  0  0  0  0  0
   50.3480  161.1220   31.7980 C   0  0  0  0  0  0  0  0  0  0  0  0
   49.6690  159.9370   31.5210 C   0  0  0  0  0  0  0  0  0  0  0  0
   48.4480  159.7740   32.1190 O   0  0  0  0  0  0  0  0  0  0  0  0
   50.2350  158.9830   30.6720 C   0  0  0  0  0  0  0  0  0  0  0  0
   49.3420  155.0210   29.8630 H   0  0  0  0  0  0  0  0  0  0  0  0
   52.7264  157.8937   26.7022 H   0  0  0  0  0  0  0  0  0  0  0  0
   54.0259  156.4657   25.1194 H   0  0  0  0  0  0  0  0  0  0  0  0
   54.5590  152.9880   25.6010 H   0  0  0  0  0  0  0  0  0  0  0  0
   53.6080  152.4250   28.3680 H   0  0  0  0  0  0  0  0  0  0  0  0
   51.8766  154.4185   29.1481 H   0  0  0  0  0  0  0  0  0  0  0  0
   53.1512  160.5828   29.9158 H   0  0  0  0  0  0  0  0  0  0  0  0
   53.2270  162.4460   31.5640 H   0  0  0  0  0  0  0  0  0  0  0  0
   49.9062  161.8746   32.4676 H   0  0  0  0  0  0  0  0  0  0  0  0
   47.8330  160.4810   32.1290 H   0  0  0  0  0  0  0  0  0  0  0  0
  1  2  2  0
  2  3  1  0
  3  4  1  0
  3  5  2  0
  5  6  1  0
  6  7  2  0
  7  8  1  0
  8  9  2  0
  9 10  1  0
  9 11  1  0
 11 12  1  0
 11 13  2  0
  5 14  1  0
 14 15  1  0
 15 16  2  0
 16 17  1  0
 17 18  1  0
 17 19  2  0
 19 20  1  0
 20 21  1  0
 20 22  2  0
 22  2  1  0
 13  6  1  0
 22 15  1  0
  4 23  1  0
  7 24  1  0
  8 25  1  0
 10 26  1  0
 12 27  1  0
 13 28  1  0
 16 29  1  0
 18 30  1  0
 19 31  1  0
 21 32  1  0
M  END
>  <meeko>  (6) 
{"is_sidechain": [false], "free_energy": -7.652, "intermolecular_energy": -9.218, "internal_energy": -0.007}

$$$$
