rasagiline_out
     RDKit          3D

 27 28  0  0  0  0  0  0  0  0999 V2000
   52.2600  157.8850   29.2980 C   0  0  0  0  0  0  0  0  0  0  0  0
   52.0290  156.7170   29.1390 C   0  0  0  0  0  0  0  0  0  0  0  0
   51.7480  155.2890   28.9440 C   0  0  0  0  0  0  0  0  0  0  0  0
   51.6890  154.9980   27.5180 N   0  0  0  0  0  0  0  0  0  0  0  0
   52.9790  155.1770   26.8600 C   0  0  2  0  0  0  0  0  0  0  0  0
   53.0190  156.3500   25.8540 C   0  0  0  0  0  0  0  0  0  0  0  0
   54.0900  155.9870   24.8140 C   0  0  0  0  0  0  0  0  0  0  0  0
   53.9710  154.4960   24.7920 C   0  0  0  0  0  0  0  0  0  0  0  0
   54.4380  153.6190   23.8270 C   0  0  0  0  0  0  0  0  0  0  0  0
   54.2480  152.2500   24.0290 C   0  0  0  0  0  0  0  0  0  0  0  0
   53.6110  151.7790   25.1880 C   0  0  0  0  0  0  0  0  0  0  0  0
   53.1570  152.6700   26.1610 C   0  0  0  0  0  0  0  0  0  0  0  0
   53.3330  154.0300   25.9500 C   0  0  0  0  0  0  0  0  0  0  0  0
   52.4715  158.9546   29.4436 H   0  0  0  0  0  0  0  0  0  0  0  0
   52.5464  154.6912   29.4079 H   0  0  0  0  0  0  0  0  0  0  0  0
   50.7843  155.0370   29.4107 H   0  0  0  0  0  0  0  0  0  0  0  0
   51.0110  155.6240   27.0840 H   0  0  0  0  0  0  0  0  0  0  0  0
   51.4180  154.0210   27.4110 H   0  0  0  0  0  0  0  0  0  0  0  0
   53.6479  155.3115   27.7229 H   0  0  0  0  0  0  0  0  0  0  0  0
   52.0397  156.4684   25.3673 H   0  0  0  0  0  0  0  0  0  0  0  0
   53.2536  157.3004   26.3558 H   0  0  0  0  0  0  0  0  0  0  0  0
   53.8635  156.4251   23.8308 H   0  0  0  0  0  0  0  0  0  0  0  0
   55.0978  156.3585   25.0516 H   0  0  0  0  0  0  0  0  0  0  0  0
   54.9455  153.9910   22.9247 H   0  0  0  0  0  0  0  0  0  0  0  0
   54.6010  151.5338   23.2724 H   0  0  0  0  0  0  0  0  0  0  0  0
   53.4685  150.6976   25.3303 H   0  0  0  0  0  0  0  0  0  0  0  0
   52.6698  152.3020   27.0760 H   0  0  0  0  0  0  0  0  0  0  0  0
  1  2  3  0
  2  3  1  0
  3  4  1  0
  4  5  1  0
  5  6  1  0
  6  7  1  0
  7  8  1  0
  8  9  2  0
  9 10  1  0
 10 11  2  0
 11 12  1  0
 12 13  2  0
 13  5  1  0
 13  8  1  0
  1 14  1  0
  3 15  1  0
  3 16  1  0
  4 17  1  0
  4 18  1  0
  5 19  1  1
  6 20  1  0
  6 21  1  0
  7 22  1  0
  7 23  1  0
  9 24  1  0
 10 25  1  0
 11 26  1  0
 12 27  1  0
M  CHG  1   4   1
M  END
>  <meeko>  (1) 
{"is_sidechain": [false], "free_energy": -7.961, "intermolecular_energy": -8.892, "internal_energy": -0.221}

$$$$
rasagiline_out
     RDKit          3D

 27 28  0  0  0  0  0  0  0  0999 V2000
   51.8740  158.8780   29.6870 C   0  0  0  0  0  0  0  0  0  0  0  0
   51.4620  157.7500   29.6760 C   0  0  0  0  0  0  0  0  0  0  0  0
   50.9590  156.3700   29.6640 C   0  0  0  0  0  0  0  0  0  0  0  0
   52.0250  155.4710   29.2450 N   0  0  0  0  0  0  0  0  0  0  0  0
   51.6820  154.7250   28.0400 C   0  0  2  0  0  0  0  0  0  0  0  0
   51.9080  153.2000   28.1520 C   0  0  0  0  0  0  0  0  0  0  0  0
   52.1800  152.6990   26.7260 C   0  0  0  0  0  0  0  0  0  0  0  0
   52.8600  153.8920   26.1300 C   0  0  0  0  0  0  0  0  0  0  0  0
   53.6300  153.9460   24.9810 C   0  0  0  0  0  0  0  0  0  0  0  0
   54.1420  155.1840   24.5860 C   0  0  0  0  0  0  0  0  0  0  0  0
   53.8700  156.3430   25.3300 C   0  0  0  0  0  0  0  0  0  0  0  0
   53.0800  156.2790   26.4800 C   0  0  0  0  0  0  0  0  0  0  0  0
   52.5870  155.0460   26.8780 C   0  0  0  0  0  0  0  0  0  0  0  0
   52.2514  159.9112   29.6971 H   0  0  0  0  0  0  0  0  0  0  0  0
   50.6213  156.0936   30.6737 H   0  0  0  0  0  0  0  0  0  0  0  0
   50.1154  156.2922   28.9624 H   0  0  0  0  0  0  0  0  0  0  0  0
   52.2090  154.8080   29.9980 H   0  0  0  0  0  0  0  0  0  0  0  0
   52.8480  156.0380   29.0370 H   0  0  0  0  0  0  0  0  0  0  0  0
   50.6275  155.0064   27.9025 H   0  0  0  0  0  0  0  0  0  0  0  0
   52.7710  152.9894   28.8008 H   0  0  0  0  0  0  0  0  0  0  0  0
   51.0343  152.6975   28.5926 H   0  0  0  0  0  0  0  0  0  0  0  0
   52.8375  151.8171   26.7260 H   0  0  0  0  0  0  0  0  0  0  0  0
   51.2826  152.3693   26.1819 H   0  0  0  0  0  0  0  0  0  0  0  0
   53.8333  153.0379   24.3945 H   0  0  0  0  0  0  0  0  0  0  0  0
   54.7652  155.2516   23.6821 H   0  0  0  0  0  0  0  0  0  0  0  0
   54.2824  157.3094   25.0046 H   0  0  0  0  0  0  0  0  0  0  0  0
   52.8539  157.1875   27.0575 H   0  0  0  0  0  0  0  0  0  0  0  0
  1  2  3  0
  2  3  1  0
  3  4  1  0
  4  5  1  0
  5  6  1  0
  6  7  1  0
  7  8  1  0
  8  9  2  0
  9 10  1  0
 10 11  2  0
 11 12  1  0
 12 13  2  0
 13  5  1  0
 13  8  1  0
  1 14  1  0
  3 15  1  0
  3 16  1  0
  4 17  1  0
  4 18  1  0
  5 19  1  6
  6 20  1  0
  6 21  1  0
  7 22  1  0
  7 23  1  0
  9 24  1  0
 10 25  1  0
 11 26  1  0
 12 27  1  0
M  CHG  1   4   1
M  END
>  <meeko>  (2) 
{"is_sidechain": [false], "free_energy": -7.785, "intermolecular_energy": -8.581, "internal_energy": -0.334}

$$$$
rasagiline_out
     RDKit          3D

 27 28  0  0  0  0  0  0  0  0999 V2000
   51.2340  155.7160   29.3200 C   0  0  0  0  0  0  0  0  0  0  0  0
   51.4340  154.6040   28.9100 C   0  0  0  0  0  0  0  0  0  0  0  0
   51.6780  153.2450   28.4110 C   0  0  0  0  0  0  0  0  0  0  0  0
   53.0270  153.1650   27.8670 N   0  0  0  0  0  0  0  0  0  0  0  0
   53.0350  153.0600   26.4120 C   0  0  2  0  0  0  0  0  0  0  0  0
   53.9630  151.9530   25.8620 C   0  0  0  0  0  0  0  0  0  0  0  0
   54.3860  152.4060   24.4570 C   0  0  0  0  0  0  0  0  0  0  0  0
   54.3950  153.8930   24.6280 C   0  0  0  0  0  0  0  0  0  0  0  0
   55.0040  154.8380   23.8200 C   0  0  0  0  0  0  0  0  0  0  0  0
   54.8510  156.1870   24.1500 C   0  0  0  0  0  0  0  0  0  0  0  0
   54.0880  156.5700   25.2650 C   0  0  0  0  0  0  0  0  0  0  0  0
   53.4670  155.6090   26.0650 C   0  0  0  0  0  0  0  0  0  0  0  0
   53.6350  154.2700   25.7430 C   0  0  0  0  0  0  0  0  0  0  0  0
   51.0510  156.7337   29.6952 H   0  0  0  0  0  0  0  0  0  0  0  0
   51.5719  152.5261   29.2368 H   0  0  0  0  0  0  0  0  0  0  0  0
   50.9489  153.0062   27.6227 H   0  0  0  0  0  0  0  0  0  0  0  0
   53.4890  152.3440   28.2560 H   0  0  0  0  0  0  0  0  0  0  0  0
   53.5160  154.0240   28.1200 H   0  0  0  0  0  0  0  0  0  0  0  0
   51.9692  152.8898   26.1998 H   0  0  0  0  0  0  0  0  0  0  0  0
   54.8461  151.8401   26.5081 H   0  0  0  0  0  0  0  0  0  0  0  0
   53.4511  150.9798   25.8318 H   0  0  0  0  0  0  0  0  0  0  0  0
   55.3828  152.0236   24.1921 H   0  0  0  0  0  0  0  0  0  0  0  0
   53.7329  152.0461   23.6483 H   0  0  0  0  0  0  0  0  0  0  0  0
   55.5927  154.5348   22.9416 H   0  0  0  0  0  0  0  0  0  0  0  0
   55.3332  156.9571   23.5300 H   0  0  0  0  0  0  0  0  0  0  0  0
   53.9786  157.6367   25.5103 H   0  0  0  0  0  0  0  0  0  0  0  0
   52.8581  155.9068   26.9313 H   0  0  0  0  0  0  0  0  0  0  0  0
  1  2  3  0
  2  3  1  0
  3  4  1  0
  4  5  1  0
  5  6  1  0
  6  7  1  0
  7  8  1  0
  8  9  2  0
  9 10  1  0
 10 11  2  0
 11 12  1  0
 12 13  2  0
 13  5  1  0
 13  8  1  0
  1 14  1  0
  3 15  1  0
  3 16  1  0
  4 17  1  0
  4 18  1  0
  5 19  1  6
  6 20  1  0
  6 21  1  0
  7 22  1  0
  7 23  1  0
  9 24  1  0
 10 25  1  0
 11 26  1  0
 12 27  1  0
M  CHG  1   4   1
M  END
>  <meeko>  (3) 
{"is_sidechain": [false], "free_energy": -7.678, "intermolecular_energy": -8.425, "internal_energy": -0.372}

$$$$
rasagiline_out
     RDKit          3D

 27 28  0  0  0  0  0  0  0  0999 V2000
   52.7540  156.4390   26.8210 C   0  0  0  0  0  0  0  0  0  0  0  0
   52.7110  156.8920   27.9330 C   0  0  0  0  0  0  0  0  0  0  0  0
   52.6590  157.4440   29.2930 C   0  0  0  0  0  0  0  0  0  0  0  0
   51.2740  157.7210   29.6490 N   0  0  0  0  0  0  0  0  0  0  0  0
   50.9960  159.1500   29.7300 C   0  0  2  0  0  0  0  0  0  0  0  0
   52.0970  159.9700   30.4410 C   0  0  0  0  0  0  0  0  0  0  0  0
   51.3980  161.1990   31.0410 C   0  0  0  0  0  0  0  0  0  0  0  0
   50.0460  160.6360   31.3480 C   0  0  0  0  0  0  0  0  0  0  0  0
   49.0800  161.1560   32.1930 C   0  0  0  0  0  0  0  0  0  0  0  0
   47.8640  160.4780   32.3030 C   0  0  0  0  0  0  0  0  0  0  0  0
   47.6270  159.3070   31.5660 C   0  0  0  0  0  0  0  0  0  0  0  0
   48.6030  158.7990   30.7070 C   0  0  0  0  0  0  0  0  0  0  0  0
   49.8150  159.4660   30.6120 C   0  0  0  0  0  0  0  0  0  0  0  0
   52.7934  156.0243   25.8029 H   0  0  0  0  0  0  0  0  0  0  0  0
   53.0816  156.7160   30.0012 H   0  0  0  0  0  0  0  0  0  0  0  0
   53.2428  158.3753   29.3346 H   0  0  0  0  0  0  0  0  0  0  0  0
   51.0790  157.2980   30.5560 H   0  0  0  0  0  0  0  0  0  0  0  0
   50.6800  157.3290   28.9180 H   0  0  0  0  0  0  0  0  0  0  0  0
   50.8679  159.4076   28.6683 H   0  0  0  0  0  0  0  0  0  0  0  0
   52.5643  159.3711   31.2366 H   0  0  0  0  0  0  0  0  0  0  0  0
   52.8923  160.2642   29.7404 H   0  0  0  0  0  0  0  0  0  0  0  0
   51.9064  161.5486   31.9516 H   0  0  0  0  0  0  0  0  0  0  0  0
   51.3838  162.0797   30.3821 H   0  0  0  0  0  0  0  0  0  0  0  0
   49.2655  162.0786   32.7625 H   0  0  0  0  0  0  0  0  0  0  0  0
   47.0836  160.8657   32.9743 H   0  0  0  0  0  0  0  0  0  0  0  0
   46.6638  158.7852   31.6663 H   0  0  0  0  0  0  0  0  0  0  0  0
   48.4147  157.8892   30.1181 H   0  0  0  0  0  0  0  0  0  0  0  0
  1  2  3  0
  2  3  1  0
  3  4  1  0
  4  5  1  0
  5  6  1  0
  6  7  1  0
  7  8  1  0
  8  9  2  0
  9 10  1  0
 10 11  2  0
 11 12  1  0
 12 13  2  0
 13  5  1  0
 13  8  1  0
  1 14  1  0
  3 15  1  0
  3 16  1  0
  4 17  1  0
  4 18  1  0
  5 19  1  6
  6 20  1  0
  6 21  1  0
  7 22  1  0
  7 23  1  0
  9 24  1  0
 10 25  1  0
 11 26  1  0
 12 27  1  0
M  CHG  1   4   1
M  END
>  <meeko>  (4) 
{"is_sidechain": [false], "free_energy": -7.566, "intermolecular_energy": -8.477, "internal_energy": -0.195}

$$$$
rasagiline_out
     RDKit          3D

 27 28  0  0  0  0  0  0  0  0999 V2000
   54.1340  151.8720   24.0610 C   0  0  0  0  0  0  0  0  0  0  0  0
   54.1130  153.0600   24.2400 C   0  0  0  0  0  0  0  0  0  0  0  0
   54.0870  154.5110   24.4620 C   0  0  0  0  0  0  0  0  0  0  0  0
   52.8850  154.8660   25.2040 N   0  0  0  0  0  0  0  0  0  0  0  0
   52.9470  154.4410   26.5980 C   0  0  2  0  0  0  0  0  0  0  0  0
   51.9090  153.3600   26.9760 C   0  0  0  0  0  0  0  0  0  0  0  0
   51.6330  153.5360   28.4770 C   0  0  0  0  0  0  0  0  0  0  0  0
   51.8190  155.0130   28.6290 C   0  0  0  0  0  0  0  0  0  0  0  0
   51.3940  155.8210   29.6700 C   0  0  0  0  0  0  0  0  0  0  0  0
   51.7120  157.1810   29.6240 C   0  0  0  0  0  0  0  0  0  0  0  0
   52.4550  157.7070   28.5560 C   0  0  0  0  0  0  0  0  0  0  0  0
   52.8900  156.8800   27.5180 C   0  0  0  0  0  0  0  0  0  0  0  0
   52.5590  155.5340   27.5590 C   0  0  0  0  0  0  0  0  0  0  0  0
   54.1532  150.7844   23.8971 H   0  0  0  0  0  0  0  0  0  0  0  0
   54.9753  154.8100   25.0378 H   0  0  0  0  0  0  0  0  0  0  0  0
   54.0870  155.0308   23.4926 H   0  0  0  0  0  0  0  0  0  0  0  0
   52.0830  154.4190   24.7610 H   0  0  0  0  0  0  0  0  0  0  0  0
   52.8010  155.8830   25.1920 H   0  0  0  0  0  0  0  0  0  0  0  0
   53.9899  154.1001   26.6764 H   0  0  0  0  0  0  0  0  0  0  0  0
   50.9833  153.5021   26.3990 H   0  0  0  0  0  0  0  0  0  0  0  0
   52.2834  152.3499   26.7533 H   0  0  0  0  0  0  0  0  0  0  0  0
   50.6098  153.2285   28.7386 H   0  0  0  0  0  0  0  0  0  0  0  0
   52.2753  152.9279   29.1310 H   0  0  0  0  0  0  0  0  0  0  0  0
   50.8211  155.4034   30.5111 H   0  0  0  0  0  0  0  0  0  0  0  0
   51.3764  157.8461   30.4333 H   0  0  0  0  0  0  0  0  0  0  0  0
   52.6969  158.7799   28.5362 H   0  0  0  0  0  0  0  0  0  0  0  0
   53.4825  157.2877   26.6857 H   0  0  0  0  0  0  0  0  0  0  0  0
  1  2  3  0
  2  3  1  0
  3  4  1  0
  4  5  1  0
  5  6  1  0
  6  7  1  0
  7  8  1  0
  8  9  2  0
  9 10  1  0
 10 11  2  0
 11 12  1  0
 12 13  2  0
 13  5  1  0
 13  8  1  0
  1 14  1  0
  3 15  1  0
  3 16  1  0
  4 17  1  0
  4 18  1  0
  5 19  1  1
  6 20  1  0
  6 21  1  0
  7 22  1  0
  7 23  1  0
  9 24  1  0
 10 25  1  0
 11 26  1  0
 12 27  1  0
M  CHG  1   4   1
M  END
>  <meeko>  (5) 
{"is_sidechain": [false], "free_energy": -7.531, "intermolecular_energy": -8.38, "internal_energy": -0.253}

$$$$
rasagiline_out
     RDKit          3D

 27 28  0  0  0  0  0  0  0  0999 V2000
   55.6080  151.9220   25.5530 C   0  0  0  0  0  0  0  0  0  0  0  0
   55.2850  152.9030   24.9400 C   0  0  0  0  0  0  0  0  0  0  0  0
   54.8890  154.1030   24.1920 C   0  0  0  0  0  0  0  0  0  0  0  0
   53.4470  154.0920   23.9870 N   0  0  0  0  0  0  0  0  0  0  0  0
   52.7490  154.9960   24.8930 C   0  0  2  0  0  0  0  0  0  0  0  0
   53.5760  156.2310   25.3160 C   0  0  0  0  0  0  0  0  0  0  0  0
   53.0460  156.6510   26.6950 C   0  0  0  0  0  0  0  0  0  0  0  0
   52.6430  155.3260   27.2610 C   0  0  0  0  0  0  0  0  0  0  0  0
   52.3990  155.0040   28.5860 C   0  0  0  0  0  0  0  0  0  0  0  0
   51.9940  153.7020   28.8870 C   0  0  0  0  0  0  0  0  0  0  0  0
   51.8280  152.7500   27.8680 C   0  0  0  0  0  0  0  0  0  0  0  0
   52.0630  153.0880   26.5340 C   0  0  0  0  0  0  0  0  0  0  0  0
   52.4800  154.3780   26.2410 C   0  0  0  0  0  0  0  0  0  0  0  0
   55.9038  151.0235   26.1144 H   0  0  0  0  0  0  0  0  0  0  0  0
   55.1717  155.0004   24.7618 H   0  0  0  0  0  0  0  0  0  0  0  0
   55.3984  154.1128   23.2171 H   0  0  0  0  0  0  0  0  0  0  0  0
   53.1030  153.1440   24.1400 H   0  0  0  0  0  0  0  0  0  0  0  0
   53.2660  154.4060   23.0330 H   0  0  0  0  0  0  0  0  0  0  0  0
   51.8522  155.2439   24.3062 H   0  0  0  0  0  0  0  0  0  0  0  0
   54.6430  155.9713   25.3806 H   0  0  0  0  0  0  0  0  0  0  0  0
   53.4799  157.0469   24.5846 H   0  0  0  0  0  0  0  0  0  0  0  0
   53.8303  157.1277   27.3013 H   0  0  0  0  0  0  0  0  0  0  0  0
   52.2369  157.3955   26.6625 H   0  0  0  0  0  0  0  0  0  0  0  0
   52.5211  155.7547   29.3807 H   0  0  0  0  0  0  0  0  0  0  0  0
   51.8031  153.4192   29.9327 H   0  0  0  0  0  0  0  0  0  0  0  0
   51.5098  151.7284   28.1233 H   0  0  0  0  0  0  0  0  0  0  0  0
   51.9206  152.3476   25.7330 H   0  0  0  0  0  0  0  0  0  0  0  0
  1  2  3  0
  2  3  1  0
  3  4  1  0
  4  5  1  0
  5  6  1  0
  6  7  1  0
  7  8  1  0
  8  9  2  0
  9 10  1  0
 10 11  2  0
 11 12  1  0
 12 13  2  0
 13  5  1  0
 13  8  1  0
  1 14  1  0
  3 15  1  0
  3 16  1  0
  4 17  1  0
  4 18  1  0
  5 19  1  6
  6 20  1  0
  6 21  1  0
  7 22  1  0
  7 23  1  0
  9 24  1  0
 10 25  1  0
 11 26  1  0
 12 27  1  0
M  CHG  1   4   1
M  END
>  <meeko>  (6) 
{"is_sidechain": [false], "free_energy": -7.517, "intermolecular_energy": -8.111, "internal_energy": -0.506}

$$$$
rasagiline_out
     RDKit          3D

 27 28  0  0  0  0  0  0  0  0999 V2000
   48.4810  161.5130   33.1950 C   0  0  0  0  0  0  0  0  0  0  0  0
   47.9790  160.6750   32.4960 C   0  0  0  0  0  0  0  0  0  0  0  0
   47.3660  159.6490   31.6430 C   0  0  0  0  0  0  0  0  0  0  0  0
   48.2030  159.4320   30.4700 N   0  0  0  0  0  0  0  0  0  0  0  0
   49.6180  159.3330   30.8080 C   0  0  2  0  0  0  0  0  0  0  0  0
   50.4840  160.4870   30.2530 C   0  0  0  0  0  0  0  0  0  0  0  0
   51.8990  159.9170   30.0760 C   0  0  0  0  0  0  0  0  0  0  0  0
   51.5910  158.4900   29.7480 C   0  0  0  0  0  0  0  0  0  0  0  0
   52.4270  157.5510   29.1670 C   0  0  0  0  0  0  0  0  0  0  0  0
   51.9400  156.2540   28.9850 C   0  0  0  0  0  0  0  0  0  0  0  0
   50.6410  155.9130   29.3920 C   0  0  0  0  0  0  0  0  0  0  0  0
   49.8110  156.8640   29.9890 C   0  0  0  0  0  0  0  0  0  0  0  0
   50.2930  158.1540   30.1550 C   0  0  0  0  0  0  0  0  0  0  0  0
   48.9407  162.2804   33.8351 H   0  0  0  0  0  0  0  0  0  0  0  0
   47.2742  158.7093   32.2074 H   0  0  0  0  0  0  0  0  0  0  0  0
   46.3675  159.9836   31.3253 H   0  0  0  0  0  0  0  0  0  0  0  0
   48.0740  160.2130   29.8280 H   0  0  0  0  0  0  0  0  0  0  0  0
   47.9220  158.5480   30.0450 H   0  0  0  0  0  0  0  0  0  0  0  0
   49.5776  159.2984   31.9067 H   0  0  0  0  0  0  0  0  0  0  0  0
   50.0876  160.8296   29.2858 H   0  0  0  0  0  0  0  0  0  0  0  0
   50.4831  161.3509   30.9340 H   0  0  0  0  0  0  0  0  0  0  0  0
   52.4352  160.4141   29.2542 H   0  0  0  0  0  0  0  0  0  0  0  0
   52.5550  160.0510   30.9487 H   0  0  0  0  0  0  0  0  0  0  0  0
   53.4477  157.8192   28.8569 H   0  0  0  0  0  0  0  0  0  0  0  0
   52.5815  155.4923   28.5178 H   0  0  0  0  0  0  0  0  0  0  0  0
   50.2734  154.8875   29.2394 H   0  0  0  0  0  0  0  0  0  0  0  0
   48.7969  156.5960   30.3205 H   0  0  0  0  0  0  0  0  0  0  0  0
  1  2  3  0
  2  3  1  0
  3  4  1  0
  4  5  1  0
  5  6  1  0
  6  7  1  0
  7  8  1  0
  8  9  2  0
  9 10  1  0
 10 11  2  0
 11 12  1  0
 12 13  2  0
 13  5  1  0
 13  8  1  0
  1 14  1  0
  3 15  1  0
  3 16  1  0
  4 17  1  0
  4 18  1  0
  5 19  1  1
  6 20  1  0
  6 21  1  0
  7 22  1  0
  7 23  1  0
  9 24  1  0
 10 25  1  0
 11 26  1  0
 12 27  1  0
M  CHG  1   4   1
M  END
>  <meeko>  (7) 
{"is_sidechain": [false], "free_energy": -7.482, "intermolecular_energy": -8.491, "internal_energy": -0.086}

$$$$
rasagiline_out
     RDKit          3D

 27 28  0  0  0  0  0  0  0  0999 V2000
   54.1480  152.5680   23.3800 C   0  0  0  0  0  0  0  0  0  0  0  0
   53.8140  152.2610   24.4920 C   0  0  0  0  0  0  0  0  0  0  0  0
   53.4040  151.8870   25.8520 C   0  0  0  0  0  0  0  0  0  0  0  0
   53.7120  152.9780   26.7670 N   0  0  0  0  0  0  0  0  0  0  0  0
   53.0050  154.2070   26.4260 C   0  0  2  0  0  0  0  0  0  0  0  0
   53.8980  155.2970   25.7920 C   0  0  0  0  0  0  0  0  0  0  0  0
   53.2440  156.6430   26.1360 C   0  0  0  0  0  0  0  0  0  0  0  0
   52.6310  156.3290   27.4650 C   0  0  0  0  0  0  0  0  0  0  0  0
   52.1860  157.2200   28.4280 C   0  0  0  0  0  0  0  0  0  0  0  0
   51.6070  156.7020   29.5890 C   0  0  0  0  0  0  0  0  0  0  0  0
   51.4720  155.3170   29.7670 C   0  0  0  0  0  0  0  0  0  0  0  0
   51.9120  154.4280   28.7840 C   0  0  0  0  0  0  0  0  0  0  0  0
   52.5000  154.9450   27.6380 C   0  0  0  0  0  0  0  0  0  0  0  0
   54.4539  152.8492   22.3615 H   0  0  0  0  0  0  0  0  0  0  0  0
   52.3221  151.6890   25.8678 H   0  0  0  0  0  0  0  0  0  0  0  0
   53.9459  150.9818   26.1635 H   0  0  0  0  0  0  0  0  0  0  0  0
   54.7150  153.1580   26.7350 H   0  0  0  0  0  0  0  0  0  0  0  0
   53.4130  152.6950   27.7000 H   0  0  0  0  0  0  0  0  0  0  0  0
   52.2234  153.8281   25.7511 H   0  0  0  0  0  0  0  0  0  0  0  0
   54.9138  155.2488   26.2113 H   0  0  0  0  0  0  0  0  0  0  0  0
   53.9842  155.1606   24.7039 H   0  0  0  0  0  0  0  0  0  0  0  0
   53.9907  157.4469   26.2150 H   0  0  0  0  0  0  0  0  0  0  0  0
   52.5312  157.0076   25.3817 H   0  0  0  0  0  0  0  0  0  0  0  0
   52.2859  158.3057   28.2824 H   0  0  0  0  0  0  0  0  0  0  0  0
   51.2529  157.3879   30.3726 H   0  0  0  0  0  0  0  0  0  0  0  0
   51.0155  154.9278   30.6890 H   0  0  0  0  0  0  0  0  0  0  0  0
   51.7952  153.3421   28.9151 H   0  0  0  0  0  0  0  0  0  0  0  0
  1  2  3  0
  2  3  1  0
  3  4  1  0
  4  5  1  0
  5  6  1  0
  6  7  1  0
  7  8  1  0
  8  9  2  0
  9 10  1  0
 10 11  2  0
 11 12  1  0
 12 13  2  0
 13  5  1  0
 13  8  1  0
  1 14  1  0
  3 15  1  0
  3 16  1  0
  4 17  1  0
  4 18  1  0
  5 19  1  6
  6 20  1  0
  6 21  1  0
  7 22  1  0
  7 23  1  0
  9 24  1  0
 10 25  1  0
 11 26  1  0
 12 27  1  0
M  CHG  1   4   1
M  END
>  <meeko>  (8) 
{"is_sidechain": [false], "free_energy": -7.227, "intermolecular_energy": -8.207, "internal_energy": -0.086}

$$$$
rasagiline_out
     RDKit          3D

 27 28  0  0  0  0  0  0  0  0999 V2000
   53.4220  156.2650   25.1960 C   0  0  0  0  0  0  0  0  0  0  0  0
   53.0650  155.9740   26.3050 C   0  0  0  0  0  0  0  0  0  0  0  0
   52.6260  155.6180   27.6610 C   0  0  0  0  0  0  0  0  0  0  0  0
   52.6240  156.8100   28.4970 N   0  0  0  0  0  0  0  0  0  0  0  0
   51.6180  156.7480   29.5510 C   0  0  2  0  0  0  0  0  0  0  0  0
   50.3510  155.9480   29.1710 C   0  0  0  0  0  0  0  0  0  0  0  0
   49.2050  156.5340   30.0100 C   0  0  0  0  0  0  0  0  0  0  0  0
   49.6370  157.9630   30.1220 C   0  0  0  0  0  0  0  0  0  0  0  0
   48.8690  159.0590   30.4780 C   0  0  0  0  0  0  0  0  0  0  0  0
   49.4920  160.3060   30.5560 C   0  0  0  0  0  0  0  0  0  0  0  0
   50.8640  160.4400   30.2900 C   0  0  0  0  0  0  0  0  0  0  0  0
   51.6320  159.3260   29.9450 C   0  0  0  0  0  0  0  0  0  0  0  0
   51.0070  158.0920   29.8540 C   0  0  0  0  0  0  0  0  0  0  0  0
   53.7490  156.5316   24.1801 H   0  0  0  0  0  0  0  0  0  0  0  0
   51.6105  155.1972   27.6194 H   0  0  0  0  0  0  0  0  0  0  0  0
   53.3138  154.8722   28.0860 H   0  0  0  0  0  0  0  0  0  0  0  0
   52.4320  157.6210   27.9090 H   0  0  0  0  0  0  0  0  0  0  0  0
   53.5390  156.8800   28.9430 H   0  0  0  0  0  0  0  0  0  0  0  0
   52.1927  156.3004   30.3752 H   0  0  0  0  0  0  0  0  0  0  0  0
   50.1353  156.0626   28.0985 H   0  0  0  0  0  0  0  0  0  0  0  0
   50.4820  154.8736   29.3672 H   0  0  0  0  0  0  0  0  0  0  0  0
   48.2382  156.4433   29.4931 H   0  0  0  0  0  0  0  0  0  0  0  0
   49.0455  156.0309   30.9751 H   0  0  0  0  0  0  0  0  0  0  0  0
   47.7959  158.9499   30.6937 H   0  0  0  0  0  0  0  0  0  0  0  0
   48.9015  161.1931   30.8288 H   0  0  0  0  0  0  0  0  0  0  0  0
   51.3378  161.4307   30.3539 H   0  0  0  0  0  0  0  0  0  0  0  0
   52.7099  159.4255   29.7496 H   0  0  0  0  0  0  0  0  0  0  0  0
  1  2  3  0
  2  3  1  0
  3  4  1  0
  4  5  1  0
  5  6  1  0
  6  7  1  0
  7  8  1  0
  8  9  2  0
  9 10  1  0
 10 11  2  0
 11 12  1  0
 12 13  2  0
 13  5  1  0
 13  8  1  0
  1 14  1  0
  3 15  1  0
  3 16  1  0
  4 17  1  0
  4 18  1  0
  5 19  1  1
  6 20  1  0
  6 21  1  0
  7 22  1  0
  7 23  1  0
  9 24  1  0
 10 25  1  0
 11 26  1  0
 12 27  1  0
M  CHG  1   4   1
M  END
>  <meeko>  (9) 
{"is_sidechain": [false], "free_energy": -7.18, "intermolecular_energy": -8.026, "internal_energy": -0.215}

$$$$
