selegiline_out
     RDKit          3D

 32 32  0  0  0  0  0  0  0  0999 V2000
   54.2580  153.1460   23.2830 C   0  0  0  0  0  0  0  0  0  0  0  0
   54.0990  153.2960   24.4640 C   0  0  0  0  0  0  0  0  0  0  0  0
   53.9120  153.4820   25.9130 C   0  0  0  0  0  0  0  0  0  0  0  0
   52.5160  153.8160   26.2420 N   0  0  1  0  0  0  0  0  0  0  0  0
   51.9340  152.8190   27.1440 C   0  0  0  0  0  0  0  0  0  0  0  0
   52.3840  155.2160   26.7250 C   0  0  2  0  0  0  0  0  0  0  0  0
   53.2470  156.2310   25.9580 C   0  0  0  0  0  0  0  0  0  0  0  0
   52.6490  155.2890   28.2540 C   0  0  0  0  0  0  0  0  0  0  0  0
   51.8920  156.3980   28.9520 C   0  0  0  0  0  0  0  0  0  0  0  0
   52.4380  157.6850   29.0480 C   0  0  0  0  0  0  0  0  0  0  0  0
   51.7320  158.7060   29.6860 C   0  0  0  0  0  0  0  0  0  0  0  0
   50.4750  158.4520   30.2320 C   0  0  0  0  0  0  0  0  0  0  0  0
   49.9250  157.1750   30.1440 C   0  0  0  0  0  0  0  0  0  0  0  0
   50.6290  156.1520   29.5080 C   0  0  0  0  0  0  0  0  0  0  0  0
   54.4036  153.0086   22.2014 H   0  0  0  0  0  0  0  0  0  0  0  0
   54.1877  152.5514   26.4307 H   0  0  0  0  0  0  0  0  0  0  0  0
   54.5507  154.3167   26.2375 H   0  0  0  0  0  0  0  0  0  0  0  0
   51.9650  153.7750   25.3850 H   0  0  0  0  0  0  0  0  0  0  0  0
   52.1102  153.1209   28.1870 H   0  0  0  0  0  0  0  0  0  0  0  0
   50.8517  152.7465   26.9611 H   0  0  0  0  0  0  0  0  0  0  0  0
   52.4030  151.8410   26.9611 H   0  0  0  0  0  0  0  0  0  0  0  0
   51.3445  155.5128   26.5218 H   0  0  0  0  0  0  0  0  0  0  0  0
   53.7880  156.8673   26.6739 H   0  0  0  0  0  0  0  0  0  0  0  0
   53.9695  155.6942   25.3257 H   0  0  0  0  0  0  0  0  0  0  0  0
   52.6010  156.8578   25.3257 H   0  0  0  0  0  0  0  0  0  0  0  0
   52.3523  154.3300   28.7037 H   0  0  0  0  0  0  0  0  0  0  0  0
   53.7205  155.5009   28.3840 H   0  0  0  0  0  0  0  0  0  0  0  0
   53.4291  157.8918   28.6179 H   0  0  0  0  0  0  0  0  0  0  0  0
   52.1685  159.7131   29.7581 H   0  0  0  0  0  0  0  0  0  0  0  0
   49.9182  159.2585   30.7316 H   0  0  0  0  0  0  0  0  0  0  0  0
   48.9341  156.9729   30.5767 H   0  0  0  0  0  0  0  0  0  0  0  0
   50.1899  155.1456   29.4425 H   0  0  0  0  0  0  0  0  0  0  0  0
  1  2  3  0
  2  3  1  0
  3  4  1  0
  4  5  1  0
  4  6  1  0
  6  7  1  0
  6  8  1  0
  8  9  1  0
  9 10  2  0
 10 11  1  0
 11 12  2  0
 12 13  1  0
 13 14  2  0
 14  9  1  0
  1 15  1  0
  3 16  1  0
  3 17  1  0
  4 18  1  6
  5 19  1  0
  5 20  1  0
  5 21  1  0
  6 22  1  1
  7 23  1  0
  7 24  1  0
  7 25  1  0
  8 26  1  0
  8 27  1  0
 10 28  1  0
 11 29  1  0
 12 30  1  0
 13 31  1  0
 14 32  1  0
M  CHG  1   4   1
M  END
>  <meeko>  (1) 
{"is_sidechain": [false], "free_energy": -7.437, "intermolecular_energy": -9.176, "internal_energy": -0.239}

$$$$
selegiline_out
     RDKit          3D

 32 32  0  0  0  0  0  0  0  0999 V2000
   54.8100  156.9830   24.3500 C   0  0  0  0  0  0  0  0  0  0  0  0
   54.9790  155.7940   24.3090 C   0  0  0  0  0  0  0  0  0  0  0  0
   55.1930  154.3370   24.2600 C   0  0  0  0  0  0  0  0  0  0  0  0
   53.9470  153.5960   24.5150 N   0  0  1  0  0  0  0  0  0  0  0  0
   54.0520  152.2110   24.0500 C   0  0  0  0  0  0  0  0  0  0  0  0
   53.5090  153.7250   25.9300 C   0  0  2  0  0  0  0  0  0  0  0  0
   53.3660  152.3860   26.6710 C   0  0  0  0  0  0  0  0  0  0  0  0
   52.2020  154.5610   26.0180 C   0  0  0  0  0  0  0  0  0  0  0  0
   52.0980  155.4010   27.2720 C   0  0  0  0  0  0  0  0  0  0  0  0
   52.7790  156.6220   27.3730 C   0  0  0  0  0  0  0  0  0  0  0  0
   52.6730  157.3970   28.5280 C   0  0  0  0  0  0  0  0  0  0  0  0
   51.8880  156.9610   29.5940 C   0  0  0  0  0  0  0  0  0  0  0  0
   51.2100  155.7470   29.5050 C   0  0  0  0  0  0  0  0  0  0  0  0
   51.3140  154.9700   28.3510 C   0  0  0  0  0  0  0  0  0  0  0  0
   54.6553  158.0714   24.3875 H   0  0  0  0  0  0  0  0  0  0  0  0
   55.5720  154.0655   23.2637 H   0  0  0  0  0  0  0  0  0  0  0  0
   55.9178  154.0698   25.0431 H   0  0  0  0  0  0  0  0  0  0  0  0
   53.2010  154.0210   23.9640 H   0  0  0  0  0  0  0  0  0  0  0  0
   54.1032  151.5360   24.9170 H   0  0  0  0  0  0  0  0  0  0  0  0
   53.1703  151.9605   23.4419 H   0  0  0  0  0  0  0  0  0  0  0  0
   54.9614  152.0963   23.4419 H   0  0  0  0  0  0  0  0  0  0  0  0
   54.3181  154.2564   26.4525 H   0  0  0  0  0  0  0  0  0  0  0  0
   53.3850  152.5637   27.7564 H   0  0  0  0  0  0  0  0  0  0  0  0
   52.4123  151.9134   26.3935 H   0  0  0  0  0  0  0  0  0  0  0  0
   54.1984  151.7226   26.3935 H   0  0  0  0  0  0  0  0  0  0  0  0
   52.1598  155.2314   25.1469 H   0  0  0  0  0  0  0  0  0  0  0  0
   51.3657  153.8468   26.0404 H   0  0  0  0  0  0  0  0  0  0  0  0
   53.4012  156.9714   26.5359 H   0  0  0  0  0  0  0  0  0  0  0  0
   53.2102  158.3544   28.5976 H   0  0  0  0  0  0  0  0  0  0  0  0
   51.8039  157.5739   30.5035 H   0  0  0  0  0  0  0  0  0  0  0  0
   50.5916  155.4006   30.3462 H   0  0  0  0  0  0  0  0  0  0  0  0
   50.7768  154.0122   28.2874 H   0  0  0  0  0  0  0  0  0  0  0  0
  1  2  3  0
  2  3  1  0
  3  4  1  0
  4  5  1  0
  4  6  1  0
  6  7  1  0
  6  8  1  0
  8  9  1  0
  9 10  2  0
 10 11  1  0
 11 12  2  0
 12 13  1  0
 13 14  2  0
 14  9  1  0
  1 15  1  0
  3 16  1  0
  3 17  1  0
  4 18  1  6
  5 19  1  0
  5 20  1  0
  5 21  1  0
  6 22  1  1
  7 23  1  0
  7 24  1  0
  7 25  1  0
  8 26  1  0
  8 27  1  0
 10 28  1  0
 11 29  1  0
 12 30  1  0
 13 31  1  0
 14 32  1  0
M  CHG  1   4   1
M  END
>  <meeko>  (2) 
{"is_sidechain": [false], "free_energy": -7.431, "intermolecular_energy": -8.772, "internal_energy": -0.636}

$$$$
selegiline_out
     RDKit          3D

 32 32  0  0  0  0  0  0  0  0999 V2000
   53.3400  156.1450   25.2480 C   0  0  0  0  0  0  0  0  0  0  0  0
   53.0600  156.2790   26.4090 C   0  0  0  0  0  0  0  0  0  0  0  0
   52.7210  156.4490   27.8330 C   0  0  0  0  0  0  0  0  0  0  0  0
   51.5170  155.6850   28.1990 N   0  0  1  0  0  0  0  0  0  0  0  0
   51.6420  154.2800   27.8020 C   0  0  0  0  0  0  0  0  0  0  0  0
   51.1560  155.8780   29.6280 C   0  0  2  0  0  0  0  0  0  0  0  0
   51.2100  154.5930   30.4710 C   0  0  0  0  0  0  0  0  0  0  0  0
   49.7710  156.5730   29.7480 C   0  0  0  0  0  0  0  0  0  0  0  0
   49.8540  158.0330   30.1380 C   0  0  0  0  0  0  0  0  0  0  0  0
   48.7080  158.7290   30.5460 C   0  0  0  0  0  0  0  0  0  0  0  0
   48.7900  160.0730   30.9130 C   0  0  0  0  0  0  0  0  0  0  0  0
   50.0170  160.7330   30.8780 C   0  0  0  0  0  0  0  0  0  0  0  0
   51.1620  160.0510   30.4710 C   0  0  0  0  0  0  0  0  0  0  0  0
   51.0820  158.7070   30.1030 C   0  0  0  0  0  0  0  0  0  0  0  0
   53.5963  156.0224   24.1853 H   0  0  0  0  0  0  0  0  0  0  0  0
   53.5654  156.0992   28.4451 H   0  0  0  0  0  0  0  0  0  0  0  0
   52.5197  157.5152   28.0136 H   0  0  0  0  0  0  0  0  0  0  0  0
   50.7270  156.0560   27.6710 H   0  0  0  0  0  0  0  0  0  0  0  0
   51.6982  153.6486   28.7010 H   0  0  0  0  0  0  0  0  0  0  0  0
   50.7662  153.9888   27.2035 H   0  0  0  0  0  0  0  0  0  0  0  0
   52.5554  154.1480   27.2035 H   0  0  0  0  0  0  0  0  0  0  0  0
   51.9310  156.5331   30.0526 H   0  0  0  0  0  0  0  0  0  0  0  0
   51.1990  154.8546   31.5394 H   0  0  0  0  0  0  0  0  0  0  0  0
   50.3375  153.9649   30.2383 H   0  0  0  0  0  0  0  0  0  0  0  0
   52.1322  154.0403   30.2383 H   0  0  0  0  0  0  0  0  0  0  0  0
   49.2615  156.5018   28.7757 H   0  0  0  0  0  0  0  0  0  0  0  0
   49.2212  156.0573   30.5491 H   0  0  0  0  0  0  0  0  0  0  0  0
   47.7373  158.2125   30.5772 H   0  0  0  0  0  0  0  0  0  0  0  0
   47.8851  160.6120   31.2303 H   0  0  0  0  0  0  0  0  0  0  0  0
   50.0815  161.7912   31.1714 H   0  0  0  0  0  0  0  0  0  0  0  0
   52.1300  160.5725   30.4397 H   0  0  0  0  0  0  0  0  0  0  0  0
   51.9891  158.1733   29.7833 H   0  0  0  0  0  0  0  0  0  0  0  0
  1  2  3  0
  2  3  1  0
  3  4  1  0
  4  5  1  0
  4  6  1  0
  6  7  1  0
  6  8  1  0
  8  9  1  0
  9 10  2  0
 10 11  1  0
 11 12  2  0
 12 13  1  0
 13 14  2  0
 14  9  1  0
  1 15  1  0
  3 16  1  0
  3 17  1  0
  4 18  1  6
  5 19  1  0
  5 20  1  0
  5 21  1  0
  6 22  1  1
  7 23  1  0
  7 24  1  0
  7 25  1  0
  8 26  1  0
  8 27  1  0
 10 28  1  0
 11 29  1  0
 12 30  1  0
 13 31  1  0
 14 32  1  0
M  CHG  1   4   1
M  END
>  <meeko>  (3) 
{"is_sidechain": [false], "free_energy": -6.95, "intermolecular_energy": -8.482, "internal_energy": -0.332}

$$$$
selegiline_out
     RDKit          3D

 32 32  0  0  0  0  0  0  0  0999 V2000
   51.9200  154.2020   28.7270 C   0  0  0  0  0  0  0  0  0  0  0  0
   51.4050  155.2080   29.1350 C   0  0  0  0  0  0  0  0  0  0  0  0
   50.7690  156.4370   29.6400 C   0  0  0  0  0  0  0  0  0  0  0  0
   51.7100  157.5690   29.6550 N   0  0  1  0  0  0  0  0  0  0  0  0
   52.6370  157.4990   28.5220 C   0  0  0  0  0  0  0  0  0  0  0  0
   51.0040  158.8720   29.7760 C   0  0  2  0  0  0  0  0  0  0  0  0
   51.8370  159.9820   30.4370 C   0  0  0  0  0  0  0  0  0  0  0  0
   49.6410  158.6840   30.4980 C   0  0  0  0  0  0  0  0  0  0  0  0
   49.2340  159.8660   31.3500 C   0  0  0  0  0  0  0  0  0  0  0  0
   48.6940  161.0180   30.7630 C   0  0  0  0  0  0  0  0  0  0  0  0
   48.3120  162.1020   31.5540 C   0  0  0  0  0  0  0  0  0  0  0  0
   48.4660  162.0460   32.9380 C   0  0  0  0  0  0  0  0  0  0  0  0
   49.0050  160.9070   33.5320 C   0  0  0  0  0  0  0  0  0  0  0  0
   49.3880  159.8210   32.7430 C   0  0  0  0  0  0  0  0  0  0  0  0
   52.3915  153.2810   28.3535 H   0  0  0  0  0  0  0  0  0  0  0  0
   49.9170  156.6900   28.9919 H   0  0  0  0  0  0  0  0  0  0  0  0
   50.4371  156.2526   30.6724 H   0  0  0  0  0  0  0  0  0  0  0  0
   52.2860  157.4980   30.4930 H   0  0  0  0  0  0  0  0  0  0  0  0
   53.6684  157.4211   28.8964 H   0  0  0  0  0  0  0  0  0  0  0  0
   52.4016  156.6161   27.9096 H   0  0  0  0  0  0  0  0  0  0  0  0
   52.5368  158.4073   27.9096 H   0  0  0  0  0  0  0  0  0  0  0  0
   50.8276  159.2200   28.7475 H   0  0  0  0  0  0  0  0  0  0  0  0
   51.7680  159.8901   31.5310 H   0  0  0  0  0  0  0  0  0  0  0  0
   52.8879  159.8860   30.1265 H   0  0  0  0  0  0  0  0  0  0  0  0
   51.4512  160.9642   30.1265 H   0  0  0  0  0  0  0  0  0  0  0  0
   48.8643  158.5217   29.7362 H   0  0  0  0  0  0  0  0  0  0  0  0
   49.7526  157.8241   31.1748 H   0  0  0  0  0  0  0  0  0  0  0  0
   48.5704  161.0681   29.6711 H   0  0  0  0  0  0  0  0  0  0  0  0
   47.8886  163.0022   31.0845 H   0  0  0  0  0  0  0  0  0  0  0  0
   48.1622  162.9004   33.5607 H   0  0  0  0  0  0  0  0  0  0  0  0
   49.1289  160.8633   34.6241 H   0  0  0  0  0  0  0  0  0  0  0  0
   49.8134  158.9242   33.2171 H   0  0  0  0  0  0  0  0  0  0  0  0
  1  2  3  0
  2  3  1  0
  3  4  1  0
  4  5  1  0
  4  6  1  0
  6  7  1  0
  6  8  1  0
  8  9  1  0
  9 10  2  0
 10 11  1  0
 11 12  2  0
 12 13  1  0
 13 14  2  0
 14  9  1  0
  1 15  1  0
  3 16  1  0
  3 17  1  0
  4 18  1  1
  5 19  1  0
  5 20  1  0
  5 21  1  0
  6 22  1  6
  7 23  1  0
  7 24  1  0
  7 25  1  0
  8 26  1  0
  8 27  1  0
 10 28  1  0
 11 29  1  0
 12 30  1  0
 13 31  1  0
 14 32  1  0
M  CHG  1   4   1
M  END
>  <meeko>  (4) 
{"is_sidechain": [false], "free_energy": -6.924, "intermolecular_energy": -8.816, "internal_energy": 0.033}

$$$$
selegiline_out
     RDKit          3D

 32 32  0  0  0  0  0  0  0  0999 V2000
   51.1600  160.9140   31.3680 C   0  0  0  0  0  0  0  0  0  0  0  0
   51.3180  159.9930   30.6130 C   0  0  0  0  0  0  0  0  0  0  0  0
   51.5190  158.8670   29.6840 C   0  0  0  0  0  0  0  0  0  0  0  0
   50.7620  157.6760   30.1040 N   0  0  1  0  0  0  0  0  0  0  0  0
   49.3200  157.9330   30.0840 C   0  0  0  0  0  0  0  0  0  0  0  0
   51.1700  156.4670   29.3400 C   0  0  2  0  0  0  0  0  0  0  0  0
   51.1510  155.1670   30.1600 C   0  0  0  0  0  0  0  0  0  0  0  0
   52.5530  156.6910   28.6690 C   0  0  0  0  0  0  0  0  0  0  0  0
   52.7050  155.9920   27.3360 C   0  0  0  0  0  0  0  0  0  0  0  0
   52.1620  154.7160   27.1320 C   0  0  0  0  0  0  0  0  0  0  0  0
   52.2970  154.0790   25.8980 C   0  0  0  0  0  0  0  0  0  0  0  0
   52.9760  154.7100   24.8560 C   0  0  0  0  0  0  0  0  0  0  0  0
   53.5230  155.9760   25.0500 C   0  0  0  0  0  0  0  0  0  0  0  0
   53.3890  156.6160   26.2830 C   0  0  0  0  0  0  0  0  0  0  0  0
   51.0153  161.7573   32.0593 H   0  0  0  0  0  0  0  0  0  0  0  0
   51.1833  159.1678   28.6806 H   0  0  0  0  0  0  0  0  0  0  0  0
   52.5888  158.6110   29.6801 H   0  0  0  0  0  0  0  0  0  0  0  0
   50.9980  157.4710   31.0740 H   0  0  0  0  0  0  0  0  0  0  0  0
   48.9451  157.9998   31.1160 H   0  0  0  0  0  0  0  0  0  0  0  0
   49.1236  158.8803   29.5605 H   0  0  0  0  0  0  0  0  0  0  0  0
   48.8084  157.1119   29.5605 H   0  0  0  0  0  0  0  0  0  0  0  0
   50.4060  156.3260   28.5613 H   0  0  0  0  0  0  0  0  0  0  0  0
   51.1546  155.4101   31.2328 H   0  0  0  0  0  0  0  0  0  0  0  0
   50.2444  154.5934   29.9170 H   0  0  0  0  0  0  0  0  0  0  0  0
   52.0405  154.5672   29.9170 H   0  0  0  0  0  0  0  0  0  0  0  0
   52.6916  157.7709   28.5122 H   0  0  0  0  0  0  0  0  0  0  0  0
   53.3094  156.2631   29.3433 H   0  0  0  0  0  0  0  0  0  0  0  0
   51.6257  154.2134   27.9504 H   0  0  0  0  0  0  0  0  0  0  0  0
   51.8673  153.0777   25.7468 H   0  0  0  0  0  0  0  0  0  0  0  0
   53.0794  154.2086   23.8824 H   0  0  0  0  0  0  0  0  0  0  0  0
   54.0618  156.4726   24.2296 H   0  0  0  0  0  0  0  0  0  0  0  0
   53.8227  157.6162   26.4296 H   0  0  0  0  0  0  0  0  0  0  0  0
  1  2  3  0
  2  3  1  0
  3  4  1  0
  4  5  1  0
  4  6  1  0
  6  7  1  0
  6  8  1  0
  8  9  1  0
  9 10  2  0
 10 11  1  0
 11 12  2  0
 12 13  1  0
 13 14  2  0
 14  9  1  0
  1 15  1  0
  3 16  1  0
  3 17  1  0
  4 18  1  1
  5 19  1  0
  5 20  1  0
  5 21  1  0
  6 22  1  6
  7 23  1  0
  7 24  1  0
  7 25  1  0
  8 26  1  0
  8 27  1  0
 10 28  1  0
 11 29  1  0
 12 30  1  0
 13 31  1  0
 14 32  1  0
M  CHG  1   4   1
M  END
>  <meeko>  (5) 
{"is_sidechain": [false], "free_energy": -6.923, "intermolecular_energy": -8.664, "internal_energy": -0.117}

$$$$
selegiline_out
     RDKit          3D

 32 32  0  0  0  0  0  0  0  0999 V2000
   53.2000  156.2660   26.1280 C   0  0  0  0  0  0  0  0  0  0  0  0
   52.9340  156.7000   27.2160 C   0  0  0  0  0  0  0  0  0  0  0  0
   52.6120  157.2390   28.5490 C   0  0  0  0  0  0  0  0  0  0  0  0
   51.3610  156.6690   29.0770 N   0  0  1  0  0  0  0  0  0  0  0  0
   51.5710  155.3090   29.5790 C   0  0  0  0  0  0  0  0  0  0  0  0
   50.7120  157.5800   30.0570 C   0  0  2  0  0  0  0  0  0  0  0  0
   49.1870  157.4110   30.1600 C   0  0  0  0  0  0  0  0  0  0  0  0
   51.0980  159.0550   29.7630 C   0  0  0  0  0  0  0  0  0  0  0  0
   50.2840  160.0660   30.5420 C   0  0  0  0  0  0  0  0  0  0  0  0
   49.0860  160.5740   30.0210 C   0  0  0  0  0  0  0  0  0  0  0  0
   48.3350  161.4980   30.7470 C   0  0  0  0  0  0  0  0  0  0  0  0
   48.7730  161.9250   32.0000 C   0  0  0  0  0  0  0  0  0  0  0  0
   49.9640  161.4290   32.5260 C   0  0  0  0  0  0  0  0  0  0  0  0
   50.7170  160.5040   31.8020 C   0  0  0  0  0  0  0  0  0  0  0  0
   53.4436  155.8686   25.1317 H   0  0  0  0  0  0  0  0  0  0  0  0
   53.4335  156.9977   29.2395 H   0  0  0  0  0  0  0  0  0  0  0  0
   52.4823  158.3275   28.4576 H   0  0  0  0  0  0  0  0  0  0  0  0
   50.6960  156.5850   28.3090 H   0  0  0  0  0  0  0  0  0  0  0  0
   51.5693  155.3198   30.6789 H   0  0  0  0  0  0  0  0  0  0  0  0
   50.7631  154.6559   29.2175 H   0  0  0  0  0  0  0  0  0  0  0  0
   52.5383  154.9300   29.2175 H   0  0  0  0  0  0  0  0  0  0  0  0
   51.0999  157.2923   31.0453 H   0  0  0  0  0  0  0  0  0  0  0  0
   48.8924  157.3783   31.2193 H   0  0  0  0  0  0  0  0  0  0  0  0
   48.6899  158.2596   29.6672 H   0  0  0  0  0  0  0  0  0  0  0  0
   48.8878  156.4742   29.6672 H   0  0  0  0  0  0  0  0  0  0  0  0
   52.1590  159.1933   30.0181 H   0  0  0  0  0  0  0  0  0  0  0  0
   50.8949  159.2331   28.6967 H   0  0  0  0  0  0  0  0  0  0  0  0
   48.7358  160.2416   29.0327 H   0  0  0  0  0  0  0  0  0  0  0  0
   47.3956  161.8906   30.3305 H   0  0  0  0  0  0  0  0  0  0  0  0
   48.1790  162.6526   32.5725 H   0  0  0  0  0  0  0  0  0  0  0  0
   50.3112  161.7671   33.5135 H   0  0  0  0  0  0  0  0  0  0  0  0
   51.6565  160.1157   32.2223 H   0  0  0  0  0  0  0  0  0  0  0  0
  1  2  3  0
  2  3  1  0
  3  4  1  0
  4  5  1  0
  4  6  1  0
  6  7  1  0
  6  8  1  0
  8  9  1  0
  9 10  2  0
 10 11  1  0
 11 12  2  0
 12 13  1  0
 13 14  2  0
 14  9  1  0
  1 15  1  0
  3 16  1  0
  3 17  1  0
  4 18  1  6
  5 19  1  0
  5 20  1  0
  5 21  1  0
  6 22  1  1
  7 23  1  0
  7 24  1  0
  7 25  1  0
  8 26  1  0
  8 27  1  0
 10 28  1  0
 11 29  1  0
 12 30  1  0
 13 31  1  0
 14 32  1  0
M  CHG  1   4   1
M  END
>  <meeko>  (6) 
{"is_sidechain": [false], "free_energy": -6.922, "intermolecular_energy": -8.639, "internal_energy": -0.141}

$$$$
selegiline_out
     RDKit          3D

 32 32  0  0  0  0  0  0  0  0999 V2000
   49.8430  158.4410   30.4190 C   0  0  0  0  0  0  0  0  0  0  0  0
   50.8680  158.0520   29.9280 C   0  0  0  0  0  0  0  0  0  0  0  0
   52.1290  157.5800   29.3290 C   0  0  0  0  0  0  0  0  0  0  0  0
   52.1180  156.1220   29.1200 N   0  0  1  0  0  0  0  0  0  0  0  0
   50.7670  155.5780   29.2700 C   0  0  0  0  0  0  0  0  0  0  0  0
   52.7830  155.7440   27.8450 C   0  0  2  0  0  0  0  0  0  0  0  0
   53.0850  156.9310   26.9150 C   0  0  0  0  0  0  0  0  0  0  0  0
   51.9620  154.6480   27.1120 C   0  0  0  0  0  0  0  0  0  0  0  0
   52.7640  153.8650   26.0930 C   0  0  0  0  0  0  0  0  0  0  0  0
   53.1060  154.4380   24.8610 C   0  0  0  0  0  0  0  0  0  0  0  0
   53.8520  153.7150   23.9290 C   0  0  0  0  0  0  0  0  0  0  0  0
   54.2630  152.4150   24.2190 C   0  0  0  0  0  0  0  0  0  0  0  0
   53.9250  151.8360   25.4400 C   0  0  0  0  0  0  0  0  0  0  0  0
   53.1790  152.5560   26.3730 C   0  0  0  0  0  0  0  0  0  0  0  0
   48.9044  158.7972   30.8686 H   0  0  0  0  0  0  0  0  0  0  0  0
   52.2719  158.0786   28.3589 H   0  0  0  0  0  0  0  0  0  0  0  0
   52.9498  157.8222   30.0201 H   0  0  0  0  0  0  0  0  0  0  0  0
   52.6790  155.6880   29.8530 H   0  0  0  0  0  0  0  0  0  0  0  0
   50.5272  155.4815   30.3392 H   0  0  0  0  0  0  0  0  0  0  0  0
   50.0439  156.2551   28.7917 H   0  0  0  0  0  0  0  0  0  0  0  0
   50.7148  154.5888   28.7917 H   0  0  0  0  0  0  0  0  0  0  0  0
   53.7676  155.3392   28.1218 H   0  0  0  0  0  0  0  0  0  0  0  0
   53.3116  157.8218   27.5192 H   0  0  0  0  0  0  0  0  0  0  0  0
   53.9501  156.6887   26.2803 H   0  0  0  0  0  0  0  0  0  0  0  0
   52.2093  157.1316   26.2803 H   0  0  0  0  0  0  0  0  0  0  0  0
   51.5738  153.9444   27.8632 H   0  0  0  0  0  0  0  0  0  0  0  0
   51.1590  155.1615   26.5629 H   0  0  0  0  0  0  0  0  0  0  0  0
   52.7847  155.4637   24.6270 H   0  0  0  0  0  0  0  0  0  0  0  0
   54.1161  154.1719   22.9638 H   0  0  0  0  0  0  0  0  0  0  0  0
   54.8533  151.8472   23.4848 H   0  0  0  0  0  0  0  0  0  0  0  0
   54.2469  150.8093   25.6688 H   0  0  0  0  0  0  0  0  0  0  0  0
   52.9146  152.0932   27.3352 H   0  0  0  0  0  0  0  0  0  0  0  0
  1  2  3  0
  2  3  1  0
  3  4  1  0
  4  5  1  0
  4  6  1  0
  6  7  1  0
  6  8  1  0
  8  9  1  0
  9 10  2  0
 10 11  1  0
 11 12  2  0
 12 13  1  0
 13 14  2  0
 14  9  1  0
  1 15  1  0
  3 16  1  0
  3 17  1  0
  4 18  1  1
  5 19  1  0
  5 20  1  0
  5 21  1  0
  6 22  1  1
  7 23  1  0
  7 24  1  0
  7 25  1  0
  8 26  1  0
  8 27  1  0
 10 28  1  0
 11 29  1  0
 12 30  1  0
 13 31  1  0
 14 32  1  0
M  CHG  1   4   1
M  END
>  <meeko>  (7) 
{"is_sidechain": [false], "free_energy": -6.913, "intermolecular_energy": -8.934, "internal_energy": 0.165}

$$$$
selegiline_out
     RDKit          3D

 32 32  0  0  0  0  0  0  0  0999 V2000
   49.5030  161.4030   33.5530 C   0  0  0  0  0  0  0  0  0  0  0  0
   49.2840  161.2960   32.3770 C   0  0  0  0  0  0  0  0  0  0  0  0
   49.0080  161.1700   30.9350 C   0  0  0  0  0  0  0  0  0  0  0  0
   50.1980  160.7210   30.1920 N   0  0  1  0  0  0  0  0  0  0  0  0
   51.4290  161.0960   30.8920 C   0  0  0  0  0  0  0  0  0  0  0  0
   50.1180  159.2780   29.8440 C   0  0  2  0  0  0  0  0  0  0  0  0
   48.9380  158.5370   30.4950 C   0  0  0  0  0  0  0  0  0  0  0  0
   51.4670  158.5710   30.1520 C   0  0  0  0  0  0  0  0  0  0  0  0
   51.7330  157.3600   29.2840 C   0  0  0  0  0  0  0  0  0  0  0  0
   51.1060  156.1360   29.5530 C   0  0  0  0  0  0  0  0  0  0  0  0
   51.3480  155.0250   28.7450 C   0  0  0  0  0  0  0  0  0  0  0  0
   52.2180  155.1250   27.6600 C   0  0  0  0  0  0  0  0  0  0  0  0
   52.8490  156.3370   27.3860 C   0  0  0  0  0  0  0  0  0  0  0  0
   52.6090  157.4500   28.1930 C   0  0  0  0  0  0  0  0  0  0  0  0
   49.7036  161.5010   34.6301 H   0  0  0  0  0  0  0  0  0  0  0  0
   48.1992  160.4389   30.7890 H   0  0  0  0  0  0  0  0  0  0  0  0
   48.7171  162.1596   30.5528 H   0  0  0  0  0  0  0  0  0  0  0  0
   50.2230  161.2110   29.2980 H   0  0  0  0  0  0  0  0  0  0  0  0
   51.2631  161.0454   31.9782 H   0  0  0  0  0  0  0  0  0  0  0  0
   52.2359  160.4029   30.6117 H   0  0  0  0  0  0  0  0  0  0  0  0
   51.7124  162.1212   30.6117 H   0  0  0  0  0  0  0  0  0  0  0  0
   49.9224  159.2351   28.7624 H   0  0  0  0  0  0  0  0  0  0  0  0
   49.0284  158.5938   31.5898 H   0  0  0  0  0  0  0  0  0  0  0  0
   47.9932  159.0042   30.1804 H   0  0  0  0  0  0  0  0  0  0  0  0
   48.9484  157.4830   30.1804 H   0  0  0  0  0  0  0  0  0  0  0  0
   52.2811  159.2944   29.9973 H   0  0  0  0  0  0  0  0  0  0  0  0
   51.4126  158.2150   31.1914 H   0  0  0  0  0  0  0  0  0  0  0  0
   50.4182  156.0507   30.4072 H   0  0  0  0  0  0  0  0  0  0  0  0
   50.8516  154.0682   28.9642 H   0  0  0  0  0  0  0  0  0  0  0  0
   52.4059  154.2491   27.0216 H   0  0  0  0  0  0  0  0  0  0  0  0
   53.5376  156.4165   26.5319 H   0  0  0  0  0  0  0  0  0  0  0  0
   53.1102  158.4038   27.9717 H   0  0  0  0  0  0  0  0  0  0  0  0
  1  2  3  0
  2  3  1  0
  3  4  1  0
  4  5  1  0
  4  6  1  0
  6  7  1  0
  6  8  1  0
  8  9  1  0
  9 10  2  0
 10 11  1  0
 11 12  2  0
 12 13  1  0
 13 14  2  0
 14  9  1  0
  1 15  1  0
  3 16  1  0
  3 17  1  0
  4 18  1  6
  5 19  1  0
  5 20  1  0
  5 21  1  0
  6 22  1  6
  7 23  1  0
  7 24  1  0
  7 25  1  0
  8 26  1  0
  8 27  1  0
 10 28  1  0
 11 29  1  0
 12 30  1  0
 13 31  1  0
 14 32  1  0
M  CHG  1   4   1
M  END
>  <meeko>  (8) 
{"is_sidechain": [false], "free_energy": -6.879, "intermolecular_energy": -8.785, "internal_energy": 0.059}

$$$$
selegiline_out
     RDKit          3D

 32 32  0  0  0  0  0  0  0  0999 V2000
   53.3820  152.9010   26.4800 C   0  0  0  0  0  0  0  0  0  0  0  0
   52.7000  153.6790   27.0890 C   0  0  0  0  0  0  0  0  0  0  0  0
   51.8590  154.6290   27.8380 C   0  0  0  0  0  0  0  0  0  0  0  0
   52.6160  155.8260   28.2400 N   0  0  1  0  0  0  0  0  0  0  0  0
   52.9790  156.6360   27.0740 C   0  0  0  0  0  0  0  0  0  0  0  0
   51.9180  156.5870   29.3090 C   0  0  2  0  0  0  0  0  0  0  0  0
   50.5780  155.9730   29.7470 C   0  0  0  0  0  0  0  0  0  0  0  0
   51.7470  158.0740   28.8920 C   0  0  0  0  0  0  0  0  0  0  0  0
   51.1340  158.9430   29.9690 C   0  0  0  0  0  0  0  0  0  0  0  0
   49.8410  158.6850   30.4450 C   0  0  0  0  0  0  0  0  0  0  0  0
   49.2840  159.4840   31.4440 C   0  0  0  0  0  0  0  0  0  0  0  0
   50.0120  160.5470   31.9770 C   0  0  0  0  0  0  0  0  0  0  0  0
   51.2970  160.8130   31.5080 C   0  0  0  0  0  0  0  0  0  0  0  0
   51.8560  160.0160   30.5090 C   0  0  0  0  0  0  0  0  0  0  0  0
   54.0069  152.1882   25.9220 H   0  0  0  0  0  0  0  0  0  0  0  0
   51.0160  154.9371   27.2020 H   0  0  0  0  0  0  0  0  0  0  0  0
   51.5021  154.1267   28.7492 H   0  0  0  0  0  0  0  0  0  0  0  0
   53.4960  155.5250   28.6570 H   0  0  0  0  0  0  0  0  0  0  0  0
   53.4073  157.5917   27.4104 H   0  0  0  0  0  0  0  0  0  0  0  0
   53.7207  156.0949   26.4682 H   0  0  0  0  0  0  0  0  0  0  0  0
   52.0815  156.8295   26.4682 H   0  0  0  0  0  0  0  0  0  0  0  0
   52.5647  156.5293   30.1969 H   0  0  0  0  0  0  0  0  0  0  0  0
   50.5270  155.9497   30.8456 H   0  0  0  0  0  0  0  0  0  0  0  0
   49.7501  156.5816   29.3544 H   0  0  0  0  0  0  0  0  0  0  0  0
   50.4983  154.9486   29.3544 H   0  0  0  0  0  0  0  0  0  0  0  0
   52.7380  158.4801   28.6408 H   0  0  0  0  0  0  0  0  0  0  0  0
   51.0567  158.0896   28.0357 H   0  0  0  0  0  0  0  0  0  0  0  0
   49.2620  157.8476   30.0284 H   0  0  0  0  0  0  0  0  0  0  0  0
   48.2686  159.2749   31.8118 H   0  0  0  0  0  0  0  0  0  0  0  0
   49.5727  161.1746   32.7664 H   0  0  0  0  0  0  0  0  0  0  0  0
   51.8714  161.6528   31.9262 H   0  0  0  0  0  0  0  0  0  0  0  0
   52.8706  160.2312   30.1425 H   0  0  0  0  0  0  0  0  0  0  0  0
  1  2  3  0
  2  3  1  0
  3  4  1  0
  4  5  1  0
  4  6  1  0
  6  7  1  0
  6  8  1  0
  8  9  1  0
  9 10  2  0
 10 11  1  0
 11 12  2  0
 12 13  1  0
 13 14  2  0
 14  9  1  0
  1 15  1  0
  3 16  1  0
  3 17  1  0
  4 18  1  1
  5 19  1  0
  5 20  1  0
  5 21  1  0
  6 22  1  1
  7 23  1  0
  7 24  1  0
  7 25  1  0
  8 26  1  0
  8 27  1  0
 10 28  1  0
 11 29  1  0
 12 30  1  0
 13 31  1  0
 14 32  1  0
M  CHG  1   4   1
M  END
>  <meeko>  (9) 
{"is_sidechain": [false], "free_energy": -6.651, "intermolecular_energy": -8.721, "internal_energy": 0.276}

$$$$
