9IV_ttbk2_out
     RDKit          3D

 37 40  0  0  0  0  0  0  0  0999 V2000
   44.2150   28.3410  -13.2680 Cl  0  0  0  0  0  0  0  0  0  0  0  0
   45.1170   26.9020  -13.5700 C   0  0  0  0  0  0  0  0  0  0  0  0
   46.4750   27.0160  -13.8790 C   0  0  0  0  0  0  0  0  0  0  0  0
   47.2340   25.8710  -14.1280 C   0  0  0  0  0  0  0  0  0  0  0  0
   46.6400   24.6100  -14.0620 C   0  0  0  0  0  0  0  0  0  0  0  0
   45.2840   24.4920  -13.7530 C   0  0  0  0  0  0  0  0  0  0  0  0
   44.5160   25.6400  -13.5240 C   0  0  0  0  0  0  0  0  0  0  0  0
   43.1850   25.5390  -13.1790 O   0  0  0  0  0  0  0  0  0  0  0  0
   42.2630   25.7300  -14.1820 C   0  0  0  0  0  0  0  0  0  0  0  0
   42.5690   25.5860  -15.5360 C   0  0  0  0  0  0  0  0  0  0  0  0
   41.5840   25.8280  -16.4970 C   0  0  0  0  0  0  0  0  0  0  0  0
   40.2890   26.2150  -16.1250 C   0  0  0  0  0  0  0  0  0  0  0  0
   39.3500   26.4730  -17.1460 N   0  0  0  0  0  0  0  0  0  0  0  0
   38.2870   27.3890  -17.1320 C   0  0  0  0  0  0  0  0  0  0  0  0
   37.4810   27.4030  -18.2240 N   0  0  0  0  0  0  0  0  0  0  0  0
   36.4410   28.2600  -18.2480 C   0  0  0  0  0  0  0  0  0  0  0  0
   36.0620   29.1330  -17.3010 N   0  0  0  0  0  0  0  0  0  0  0  0
   36.8640   29.0650  -16.2290 C   0  0  0  0  0  0  0  0  0  0  0  0
   36.7090   29.8150  -15.0960 N   0  0  0  0  0  0  0  0  0  0  0  0
   37.6790   29.4830  -14.1840 C   0  0  0  0  0  0  0  0  0  0  0  0
   38.4680   28.5040  -14.7510 C   0  0  0  0  0  0  0  0  0  0  0  0
   37.9660   28.2410  -16.0590 C   0  0  0  0  0  0  0  0  0  0  0  0
   40.0130   26.3970  -14.7650 C   0  0  0  0  0  0  0  0  0  0  0  0
   40.9940   26.1570  -13.7970 C   0  0  0  0  0  0  0  0  0  0  0  0
   46.9464   28.0088  -13.9261 H   0  0  0  0  0  0  0  0  0  0  0  0
   48.3016   25.9630  -14.3765 H   0  0  0  0  0  0  0  0  0  0  0  0
   47.2407   23.7086  -14.2536 H   0  0  0  0  0  0  0  0  0  0  0  0
   44.8188   23.4972  -13.6894 H   0  0  0  0  0  0  0  0  0  0  0  0
   43.5804   25.2835  -15.8451 H   0  0  0  0  0  0  0  0  0  0  0  0
   41.8288   25.7129  -17.5632 H   0  0  0  0  0  0  0  0  0  0  0  0
   39.4540   25.9440  -17.9700 H   0  0  0  0  0  0  0  0  0  0  0  0
   35.8246   28.2419  -19.1589 H   0  0  0  0  0  0  0  0  0  0  0  0
   36.0080   30.4920  -14.9560 H   0  0  0  0  0  0  0  0  0  0  0  0
   37.8047   29.9188  -13.1819 H   0  0  0  0  0  0  0  0  0  0  0  0
   39.3313   28.0133  -14.2779 H   0  0  0  0  0  0  0  0  0  0  0  0
   39.0128   26.7327  -14.4536 H   0  0  0  0  0  0  0  0  0  0  0  0
   40.7634   26.3054  -12.7317 H   0  0  0  0  0  0  0  0  0  0  0  0
  1  2  1  0
  2  3  2  0
  3  4  1  0
  4  5  2  0
  5  6  1  0
  6  7  2  0
  7  8  1  0
  8  9  1  0
  9 10  2  0
 10 11  1  0
 11 12  2  0
 12 13  1  0
 13 14  1  0
 14 15  2  0
 15 16  1  0
 16 17  2  0
 17 18  1  0
 18 19  1  0
 19 20  1  0
 20 21  2  0
 21 22  1  0
 12 23  1  0
 23 24  2  0
  7  2  1  0
 24  9  1  0
 22 14  1  0
 22 18  2  0
  3 25  1  0
  4 26  1  0
  5 27  1  0
  6 28  1  0
 10 29  1  0
 11 30  1  0
 13 31  1  0
 16 32  1  0
 19 33  1  0
 20 34  1  0
 21 35  1  0
 23 36  1  0
 24 37  1  0
M  END
>  <meeko>  (1) 
{"is_sidechain": [false], "free_energy": -8.403, "intermolecular_energy": -10.368, "internal_energy": 1.11}

$$$$
9IV_ttbk2_out
     RDKit          3D

 37 40  0  0  0  0  0  0  0  0999 V2000
   44.7500   23.9590  -12.5200 Cl  0  0  0  0  0  0  0  0  0  0  0  0
   45.8490   24.9940  -13.3560 C   0  0  0  0  0  0  0  0  0  0  0  0
   46.8260   24.4140  -14.1700 C   0  0  0  0  0  0  0  0  0  0  0  0
   47.7300   25.2230  -14.8620 C   0  0  0  0  0  0  0  0  0  0  0  0
   47.6550   26.6110  -14.7470 C   0  0  0  0  0  0  0  0  0  0  0  0
   46.6800   27.1940  -13.9350 C   0  0  0  0  0  0  0  0  0  0  0  0
   45.7860   26.3850  -13.2240 C   0  0  0  0  0  0  0  0  0  0  0  0
   44.7930   26.9440  -12.4500 O   0  0  0  0  0  0  0  0  0  0  0  0
   43.4980   26.7880  -12.8860 C   0  0  0  0  0  0  0  0  0  0  0  0
   43.1640   26.5790  -14.2250 C   0  0  0  0  0  0  0  0  0  0  0  0
   41.8220   26.4600  -14.5940 C   0  0  0  0  0  0  0  0  0  0  0  0
   40.7990   26.5500  -13.6390 C   0  0  0  0  0  0  0  0  0  0  0  0
   39.4630   26.4520  -14.0810 N   0  0  0  0  0  0  0  0  0  0  0  0
   38.7090   27.4120  -14.7750 C   0  0  0  0  0  0  0  0  0  0  0  0
   38.4050   28.5500  -14.1000 N   0  0  0  0  0  0  0  0  0  0  0  0
   37.6900   29.5040  -14.7310 C   0  0  0  0  0  0  0  0  0  0  0  0
   37.2260   29.4970  -15.9900 N   0  0  0  0  0  0  0  0  0  0  0  0
   37.5750   28.3710  -16.6300 C   0  0  0  0  0  0  0  0  0  0  0  0
   37.2660   28.0930  -17.9330 N   0  0  0  0  0  0  0  0  0  0  0  0
   37.7930   26.8750  -18.2840 C   0  0  0  0  0  0  0  0  0  0  0  0
   38.4460   26.3690  -17.1800 C   0  0  0  0  0  0  0  0  0  0  0  0
   38.3010   27.3070  -16.1160 C   0  0  0  0  0  0  0  0  0  0  0  0
   41.1500   26.8050  -12.3080 C   0  0  0  0  0  0  0  0  0  0  0  0
   42.4910   26.9240  -11.9320 C   0  0  0  0  0  0  0  0  0  0  0  0
   46.8829   23.3196  -14.2657 H   0  0  0  0  0  0  0  0  0  0  0  0
   48.5018   24.7652  -15.4982 H   0  0  0  0  0  0  0  0  0  0  0  0
   48.3646   27.2470  -15.2965 H   0  0  0  0  0  0  0  0  0  0  0  0
   46.6145   28.2891  -13.8541 H   0  0  0  0  0  0  0  0  0  0  0  0
   43.9545   26.5083  -14.9867 H   0  0  0  0  0  0  0  0  0  0  0  0
   41.5636   26.2931  -15.6501 H   0  0  0  0  0  0  0  0  0  0  0  0
   39.0030   25.6060  -13.8780 H   0  0  0  0  0  0  0  0  0  0  0  0
   37.4579   30.4013  -14.1385 H   0  0  0  0  0  0  0  0  0  0  0  0
   36.7450   28.6770  -18.5300 H   0  0  0  0  0  0  0  0  0  0  0  0
   37.7095   26.3904  -19.2679 H   0  0  0  0  0  0  0  0  0  0  0  0
   38.9839   25.4108  -17.1291 H   0  0  0  0  0  0  0  0  0  0  0  0
   40.3611   26.9130  -11.5490 H   0  0  0  0  0  0  0  0  0  0  0  0
   42.7518   27.1251  -10.8824 H   0  0  0  0  0  0  0  0  0  0  0  0
  1  2  1  0
  2  3  2  0
  3  4  1  0
  4  5  2  0
  5  6  1  0
  6  7  2  0
  7  8  1  0
  8  9  1  0
  9 10  2  0
 10 11  1  0
 11 12  2  0
 12 13  1  0
 13 14  1  0
 14 15  2  0
 15 16  1  0
 16 17  2  0
 17 18  1  0
 18 19  1  0
 19 20  1  0
 20 21  2  0
 21 22  1  0
 12 23  1  0
 23 24  2  0
  7  2  1  0
 24  9  1  0
 22 14  1  0
 22 18  2  0
  3 25  1  0
  4 26  1  0
  5 27  1  0
  6 28  1  0
 10 29  1  0
 11 30  1  0
 13 31  1  0
 16 32  1  0
 19 33  1  0
 20 34  1  0
 21 35  1  0
 23 36  1  0
 24 37  1  0
M  END
>  <meeko>  (2) 
{"is_sidechain": [false], "free_energy": -8.346, "intermolecular_energy": -8.782, "internal_energy": -0.405}

$$$$
9IV_ttbk2_out
     RDKit          3D

 37 40  0  0  0  0  0  0  0  0999 V2000
   44.9850   24.1730  -12.1300 Cl  0  0  0  0  0  0  0  0  0  0  0  0
   46.0330   25.1000  -13.1390 C   0  0  0  0  0  0  0  0  0  0  0  0
   47.1180   24.4600  -13.7430 C   0  0  0  0  0  0  0  0  0  0  0  0
   47.9850   25.1820  -14.5670 C   0  0  0  0  0  0  0  0  0  0  0  0
   47.7660   26.5410  -14.7920 C   0  0  0  0  0  0  0  0  0  0  0  0
   46.6820   27.1840  -14.1910 C   0  0  0  0  0  0  0  0  0  0  0  0
   45.8240   26.4680  -13.3470 C   0  0  0  0  0  0  0  0  0  0  0  0
   44.7280   27.0770  -12.7770 O   0  0  0  0  0  0  0  0  0  0  0  0
   43.4950   26.7660  -13.3030 C   0  0  0  0  0  0  0  0  0  0  0  0
   43.3320   26.1080  -14.5230 C   0  0  0  0  0  0  0  0  0  0  0  0
   42.0450   25.8550  -15.0060 C   0  0  0  0  0  0  0  0  0  0  0  0
   40.9110   26.2540  -14.2850 C   0  0  0  0  0  0  0  0  0  0  0  0
   39.6410   25.9960  -14.8430 N   0  0  0  0  0  0  0  0  0  0  0  0
   38.9210   26.7820  -15.7560 C   0  0  0  0  0  0  0  0  0  0  0  0
   38.8500   26.3240  -17.0310 N   0  0  0  0  0  0  0  0  0  0  0  0
   38.1600   27.0420  -17.9390 C   0  0  0  0  0  0  0  0  0  0  0  0
   37.4910   28.1910  -17.7540 N   0  0  0  0  0  0  0  0  0  0  0  0
   37.5590   28.5920  -16.4760 C   0  0  0  0  0  0  0  0  0  0  0  0
   36.9530   29.7140  -15.9820 N   0  0  0  0  0  0  0  0  0  0  0  0
   37.1990   29.8200  -14.6360 C   0  0  0  0  0  0  0  0  0  0  0  0
   37.9810   28.7440  -14.2690 C   0  0  0  0  0  0  0  0  0  0  0  0
   38.2280   27.9640  -15.4360 C   0  0  0  0  0  0  0  0  0  0  0  0
   41.0940   26.9530  -13.0860 C   0  0  0  0  0  0  0  0  0  0  0  0
   42.3790   27.2090  -12.5970 C   0  0  0  0  0  0  0  0  0  0  0  0
   47.2897   23.3874  -13.5698 H   0  0  0  0  0  0  0  0  0  0  0  0
   48.8414   24.6781  -15.0389 H   0  0  0  0  0  0  0  0  0  0  0  0
   48.4480   27.1069  -15.4436 H   0  0  0  0  0  0  0  0  0  0  0  0
   46.5021   28.2525  -14.3804 H   0  0  0  0  0  0  0  0  0  0  0  0
   44.2119   25.7901  -15.1015 H   0  0  0  0  0  0  0  0  0  0  0  0
   41.9200   25.3346  -15.9670 H   0  0  0  0  0  0  0  0  0  0  0  0
   39.2060   25.1600  -14.5560 H   0  0  0  0  0  0  0  0  0  0  0  0
   38.1428   26.6351  -18.9608 H   0  0  0  0  0  0  0  0  0  0  0  0
   36.4200   30.3510  -16.5110 H   0  0  0  0  0  0  0  0  0  0  0  0
   36.8382   30.6180  -13.9704 H   0  0  0  0  0  0  0  0  0  0  0  0
   38.3486   28.5267  -13.2553 H   0  0  0  0  0  0  0  0  0  0  0  0
   40.2174   27.3048  -12.5222 H   0  0  0  0  0  0  0  0  0  0  0  0
   42.5085   27.7606  -11.6541 H   0  0  0  0  0  0  0  0  0  0  0  0
  1  2  1  0
  2  3  2  0
  3  4  1  0
  4  5  2  0
  5  6  1  0
  6  7  2  0
  7  8  1  0
  8  9  1  0
  9 10  2  0
 10 11  1  0
 11 12  2  0
 12 13  1  0
 13 14  1  0
 14 15  2  0
 15 16  1  0
 16 17  2  0
 17 18  1  0
 18 19  1  0
 19 20  1  0
 20 21  2  0
 21 22  1  0
 12 23  1  0
 23 24  2  0
  7  2  1  0
 24  9  1  0
 22 14  1  0
 22 18  2  0
  3 25  1  0
  4 26  1  0
  5 27  1  0
  6 28  1  0
 10 29  1  0
 11 30  1  0
 13 31  1  0
 16 32  1  0
 19 33  1  0
 20 34  1  0
 21 35  1  0
 23 36  1  0
 24 37  1  0
M  END
>  <meeko>  (3) 
{"is_sidechain": [false], "free_energy": -8.324, "intermolecular_energy": -8.679, "internal_energy": -0.482}

$$$$
9IV_ttbk2_out
     RDKit          3D

 37 40  0  0  0  0  0  0  0  0999 V2000
   44.7280   28.5330  -13.4440 Cl  0  0  0  0  0  0  0  0  0  0  0  0
   45.5000   26.9960  -13.5810 C   0  0  0  0  0  0  0  0  0  0  0  0
   46.6270   26.8850  -14.3990 C   0  0  0  0  0  0  0  0  0  0  0  0
   47.2770   25.6550  -14.5300 C   0  0  0  0  0  0  0  0  0  0  0  0
   46.8050   24.5380  -13.8400 C   0  0  0  0  0  0  0  0  0  0  0  0
   45.6800   24.6460  -13.0210 C   0  0  0  0  0  0  0  0  0  0  0  0
   45.0140   25.8720  -12.9050 C   0  0  0  0  0  0  0  0  0  0  0  0
   43.9260   26.0060  -12.0700 O   0  0  0  0  0  0  0  0  0  0  0  0
   42.7230   26.3250  -12.6570 C   0  0  0  0  0  0  0  0  0  0  0  0
   42.4580   26.1190  -14.0120 C   0  0  0  0  0  0  0  0  0  0  0  0
   41.2220   26.4990  -14.5410 C   0  0  0  0  0  0  0  0  0  0  0  0
   40.2390   27.0880  -13.7320 C   0  0  0  0  0  0  0  0  0  0  0  0
   39.0240   27.4760  -14.3350 N   0  0  0  0  0  0  0  0  0  0  0  0
   38.6690   27.4040  -15.6910 C   0  0  0  0  0  0  0  0  0  0  0  0
   39.3260   26.4860  -16.4440 N   0  0  0  0  0  0  0  0  0  0  0  0
   39.0100   26.3750  -17.7500 C   0  0  0  0  0  0  0  0  0  0  0  0
   38.0890   27.0650  -18.4420 N   0  0  0  0  0  0  0  0  0  0  0  0
   37.4430   27.9370  -17.6560 C   0  0  0  0  0  0  0  0  0  0  0  0
   36.4340   28.7600  -18.0750 N   0  0  0  0  0  0  0  0  0  0  0  0
   35.9740   29.5050  -17.0200 C   0  0  0  0  0  0  0  0  0  0  0  0
   36.7090   29.1510  -15.9070 C   0  0  0  0  0  0  0  0  0  0  0  0
   37.6570   28.1640  -16.3040 C   0  0  0  0  0  0  0  0  0  0  0  0
   40.5400   27.3280  -12.3860 C   0  0  0  0  0  0  0  0  0  0  0  0
   41.7750   26.9510  -11.8510 C   0  0  0  0  0  0  0  0  0  0  0  0
   47.0028   27.7660  -14.9400 H   0  0  0  0  0  0  0  0  0  0  0  0
   48.1617   25.5673  -15.1778 H   0  0  0  0  0  0  0  0  0  0  0  0
   47.3200   23.5713  -13.9416 H   0  0  0  0  0  0  0  0  0  0  0  0
   45.3167   23.7680  -12.4668 H   0  0  0  0  0  0  0  0  0  0  0  0
   43.2188   25.6596  -14.6602 H   0  0  0  0  0  0  0  0  0  0  0  0
   41.0164   26.3337  -15.6089 H   0  0  0  0  0  0  0  0  0  0  0  0
   38.3410   27.8430  -13.7290 H   0  0  0  0  0  0  0  0  0  0  0  0
   39.5779   25.6251  -18.3202 H   0  0  0  0  0  0  0  0  0  0  0  0
   36.0890   28.8100  -18.9960 H   0  0  0  0  0  0  0  0  0  0  0  0
   35.1654   30.2500  -17.0545 H   0  0  0  0  0  0  0  0  0  0  0  0
   36.5850   29.5586  -14.8929 H   0  0  0  0  0  0  0  0  0  0  0  0
   39.7958   27.8191  -11.7418 H   0  0  0  0  0  0  0  0  0  0  0  0
   41.9986   27.1489  -10.7923 H   0  0  0  0  0  0  0  0  0  0  0  0
  1  2  1  0
  2  3  2  0
  3  4  1  0
  4  5  2  0
  5  6  1  0
  6  7  2  0
  7  8  1  0
  8  9  1  0
  9 10  2  0
 10 11  1  0
 11 12  2  0
 12 13  1  0
 13 14  1  0
 14 15  2  0
 15 16  1  0
 16 17  2  0
 17 18  1  0
 18 19  1  0
 19 20  1  0
 20 21  2  0
 21 22  1  0
 12 23  1  0
 23 24  2  0
  7  2  1  0
 24  9  1  0
 22 14  1  0
 22 18  2  0
  3 25  1  0
  4 26  1  0
  5 27  1  0
  6 28  1  0
 10 29  1  0
 11 30  1  0
 13 31  1  0
 16 32  1  0
 19 33  1  0
 20 34  1  0
 21 35  1  0
 23 36  1  0
 24 37  1  0
M  END
>  <meeko>  (4) 
{"is_sidechain": [false], "free_energy": -8.222, "intermolecular_energy": -9.645, "internal_energy": 0.609}

$$$$
9IV_ttbk2_out
     RDKit          3D

 37 40  0  0  0  0  0  0  0  0999 V2000
   38.8340   25.9410  -17.5160 Cl  0  0  0  0  0  0  0  0  0  0  0  0
   38.1800   27.3210  -16.7120 C   0  0  0  0  0  0  0  0  0  0  0  0
   37.5470   28.3030  -17.4780 C   0  0  0  0  0  0  0  0  0  0  0  0
   37.0060   29.4310  -16.8580 C   0  0  0  0  0  0  0  0  0  0  0  0
   37.0910   29.5770  -15.4730 C   0  0  0  0  0  0  0  0  0  0  0  0
   37.7220   28.5970  -14.7050 C   0  0  0  0  0  0  0  0  0  0  0  0
   38.2840   27.4750  -15.3260 C   0  0  0  0  0  0  0  0  0  0  0  0
   38.8760   26.4800  -14.5790 O   0  0  0  0  0  0  0  0  0  0  0  0
   40.2120   26.6290  -14.2850 C   0  0  0  0  0  0  0  0  0  0  0  0
   41.2320   26.1920  -15.1320 C   0  0  0  0  0  0  0  0  0  0  0  0
   42.5660   26.3510  -14.7480 C   0  0  0  0  0  0  0  0  0  0  0  0
   42.9000   26.9430  -13.5220 C   0  0  0  0  0  0  0  0  0  0  0  0
   44.2650   27.0460  -13.1810 N   0  0  0  0  0  0  0  0  0  0  0  0
   45.2700   26.0790  -13.3340 C   0  0  0  0  0  0  0  0  0  0  0  0
   44.9540   24.8090  -12.9740 N   0  0  0  0  0  0  0  0  0  0  0  0
   45.8860   23.8460  -13.1140 C   0  0  0  0  0  0  0  0  0  0  0  0
   47.1360   23.9630  -13.5920 N   0  0  0  0  0  0  0  0  0  0  0  0
   47.3970   25.2240  -13.9650 C   0  0  0  0  0  0  0  0  0  0  0  0
   48.5780   25.6420  -14.5120 N   0  0  0  0  0  0  0  0  0  0  0  0
   48.5070   26.9810  -14.8020 C   0  0  0  0  0  0  0  0  0  0  0  0
   47.2550   27.4230  -14.4290 C   0  0  0  0  0  0  0  0  0  0  0  0
   46.5450   26.3150  -13.8800 C   0  0  0  0  0  0  0  0  0  0  0  0
   41.8630   27.3350  -12.6660 C   0  0  0  0  0  0  0  0  0  0  0  0
   40.5270   27.1790  -13.0440 C   0  0  0  0  0  0  0  0  0  0  0  0
   37.4748   28.1875  -18.5695 H   0  0  0  0  0  0  0  0  0  0  0  0
   36.5119   30.2059  -17.4625 H   0  0  0  0  0  0  0  0  0  0  0  0
   36.6607   30.4646  -14.9862 H   0  0  0  0  0  0  0  0  0  0  0  0
   37.7777   28.7062  -13.6119 H   0  0  0  0  0  0  0  0  0  0  0  0
   40.9867   25.7247  -16.0971 H   0  0  0  0  0  0  0  0  0  0  0  0
   43.3670   26.0061  -15.4185 H   0  0  0  0  0  0  0  0  0  0  0  0
   44.5470   27.9030  -12.7860 H   0  0  0  0  0  0  0  0  0  0  0  0
   45.5853   22.8365  -12.7968 H   0  0  0  0  0  0  0  0  0  0  0  0
   49.3620   25.0690  -14.6740 H   0  0  0  0  0  0  0  0  0  0  0  0
   49.3044   27.5916  -15.2508 H   0  0  0  0  0  0  0  0  0  0  0  0
   46.8720   28.4486  -14.5361 H   0  0  0  0  0  0  0  0  0  0  0  0
   42.1032   27.7707  -11.6849 H   0  0  0  0  0  0  0  0  0  0  0  0
   39.7229   27.4907  -12.3612 H   0  0  0  0  0  0  0  0  0  0  0  0
  1  2  1  0
  2  3  2  0
  3  4  1  0
  4  5  2  0
  5  6  1  0
  6  7  2  0
  7  8  1  0
  8  9  1  0
  9 10  2  0
 10 11  1  0
 11 12  2  0
 12 13  1  0
 13 14  1  0
 14 15  2  0
 15 16  1  0
 16 17  2  0
 17 18  1  0
 18 19  1  0
 19 20  1  0
 20 21  2  0
 21 22  1  0
 12 23  1  0
 23 24  2  0
  7  2  1  0
 24  9  1  0
 22 14  1  0
 22 18  2  0
  3 25  1  0
  4 26  1  0
  5 27  1  0
  6 28  1  0
 10 29  1  0
 11 30  1  0
 13 31  1  0
 16 32  1  0
 19 33  1  0
 20 34  1  0
 21 35  1  0
 23 36  1  0
 24 37  1  0
M  END
>  <meeko>  (5) 
{"is_sidechain": [false], "free_energy": -8.159, "intermolecular_energy": -8.382, "internal_energy": -0.575}

$$$$
9IV_ttbk2_out
     RDKit          3D

 37 40  0  0  0  0  0  0  0  0999 V2000
   45.0910   28.3400  -14.5190 Cl  0  0  0  0  0  0  0  0  0  0  0  0
   45.7260   26.7960  -14.0860 C   0  0  0  0  0  0  0  0  0  0  0  0
   46.7810   26.2720  -14.8360 C   0  0  0  0  0  0  0  0  0  0  0  0
   47.3190   25.0250  -14.5110 C   0  0  0  0  0  0  0  0  0  0  0  0
   46.8070   24.3030  -13.4330 C   0  0  0  0  0  0  0  0  0  0  0  0
   45.7530   24.8230  -12.6790 C   0  0  0  0  0  0  0  0  0  0  0  0
   45.1980   26.0640  -13.0170 C   0  0  0  0  0  0  0  0  0  0  0  0
   44.1840   26.6100  -12.2610 O   0  0  0  0  0  0  0  0  0  0  0  0
   42.9110   26.5390  -12.7770 C   0  0  0  0  0  0  0  0  0  0  0  0
   42.6420   26.1590  -14.0930 C   0  0  0  0  0  0  0  0  0  0  0  0
   41.3230   26.1420  -14.5530 C   0  0  0  0  0  0  0  0  0  0  0  0
   40.2590   26.5010  -13.7130 C   0  0  0  0  0  0  0  0  0  0  0  0
   38.9540   26.4910  -14.2480 N   0  0  0  0  0  0  0  0  0  0  0  0
   38.3340   27.4750  -15.0340 C   0  0  0  0  0  0  0  0  0  0  0  0
   38.1030   28.6730  -14.4390 N   0  0  0  0  0  0  0  0  0  0  0  0
   37.5190   29.6500  -15.1600 C   0  0  0  0  0  0  0  0  0  0  0  0
   37.1240   29.6140  -16.4430 N   0  0  0  0  0  0  0  0  0  0  0  0
   37.3980   28.4260  -17.0010 C   0  0  0  0  0  0  0  0  0  0  0  0
   37.1350   28.1020  -18.3040 N   0  0  0  0  0  0  0  0  0  0  0  0
   37.5610   26.8230  -18.5580 C   0  0  0  0  0  0  0  0  0  0  0  0
   38.1030   26.3230  -17.3930 C   0  0  0  0  0  0  0  0  0  0  0  0
   37.9900   27.3300  -16.3900 C   0  0  0  0  0  0  0  0  0  0  0  0
   40.5510   26.9220  -12.4100 C   0  0  0  0  0  0  0  0  0  0  0  0
   41.8690   26.9420  -11.9440 C   0  0  0  0  0  0  0  0  0  0  0  0
   47.1887   26.8422  -15.6838 H   0  0  0  0  0  0  0  0  0  0  0  0
   48.1471   24.6118  -15.1055 H   0  0  0  0  0  0  0  0  0  0  0  0
   47.2342   23.3224  -13.1764 H   0  0  0  0  0  0  0  0  0  0  0  0
   45.3590   24.2589  -11.8208 H   0  0  0  0  0  0  0  0  0  0  0  0
   43.4650   25.8742  -14.7649 H   0  0  0  0  0  0  0  0  0  0  0  0
   41.1157   25.8422  -15.5908 H   0  0  0  0  0  0  0  0  0  0  0  0
   38.4110   25.6950  -14.0450 H   0  0  0  0  0  0  0  0  0  0  0  0
   37.3434   30.5979  -14.6302 H   0  0  0  0  0  0  0  0  0  0  0  0
   36.7050   28.6960  -18.9600 H   0  0  0  0  0  0  0  0  0  0  0  0
   37.4840   26.2919  -19.5182 H   0  0  0  0  0  0  0  0  0  0  0  0
   38.5444   25.3242  -17.2608 H   0  0  0  0  0  0  0  0  0  0  0  0
   39.7343   27.2406  -11.7455 H   0  0  0  0  0  0  0  0  0  0  0  0
   42.0838   27.2763  -10.9183 H   0  0  0  0  0  0  0  0  0  0  0  0
  1  2  1  0
  2  3  2  0
  3  4  1  0
  4  5  2  0
  5  6  1  0
  6  7  2  0
  7  8  1  0
  8  9  1  0
  9 10  2  0
 10 11  1  0
 11 12  2  0
 12 13  1  0
 13 14  1  0
 14 15  2  0
 15 16  1  0
 16 17  2  0
 17 18  1  0
 18 19  1  0
 19 20  1  0
 20 21  2  0
 21 22  1  0
 12 23  1  0
 23 24  2  0
  7  2  1  0
 24  9  1  0
 22 14  1  0
 22 18  2  0
  3 25  1  0
  4 26  1  0
  5 27  1  0
  6 28  1  0
 10 29  1  0
 11 30  1  0
 13 31  1  0
 16 32  1  0
 19 33  1  0
 20 34  1  0
 21 35  1  0
 23 36  1  0
 24 37  1  0
M  END
>  <meeko>  (6) 
{"is_sidechain": [false], "free_energy": -8.051, "intermolecular_energy": -8.472, "internal_energy": -0.351}

$$$$
9IV_ttbk2_out
     RDKit          3D

 37 40  0  0  0  0  0  0  0  0999 V2000
   48.0380   27.9250  -11.3780 Cl  0  0  0  0  0  0  0  0  0  0  0  0
   48.2800   27.4130  -13.0070 C   0  0  0  0  0  0  0  0  0  0  0  0
   49.3050   28.0050  -13.7490 C   0  0  0  0  0  0  0  0  0  0  0  0
   49.5280   27.6120  -15.0700 C   0  0  0  0  0  0  0  0  0  0  0  0
   48.7320   26.6240  -15.6500 C   0  0  0  0  0  0  0  0  0  0  0  0
   47.7070   26.0300  -14.9120 C   0  0  0  0  0  0  0  0  0  0  0  0
   47.4680   26.4370  -13.5940 C   0  0  0  0  0  0  0  0  0  0  0  0
   46.4860   25.8330  -12.8380 O   0  0  0  0  0  0  0  0  0  0  0  0
   45.2110   25.8330  -13.3540 C   0  0  0  0  0  0  0  0  0  0  0  0
   44.6660   24.7460  -14.0400 C   0  0  0  0  0  0  0  0  0  0  0  0
   43.3740   24.8350  -14.5630 C   0  0  0  0  0  0  0  0  0  0  0  0
   42.6100   26.0010  -14.4110 C   0  0  0  0  0  0  0  0  0  0  0  0
   41.3240   26.0360  -14.9880 N   0  0  0  0  0  0  0  0  0  0  0  0
   40.2840   26.9430  -14.7290 C   0  0  0  0  0  0  0  0  0  0  0  0
   40.3230   27.5890  -13.5360 N   0  0  0  0  0  0  0  0  0  0  0  0
   39.3500   28.4770  -13.2490 C   0  0  0  0  0  0  0  0  0  0  0  0
   38.3070   28.8410  -14.0120 N   0  0  0  0  0  0  0  0  0  0  0  0
   38.3240   28.2040  -15.1920 C   0  0  0  0  0  0  0  0  0  0  0  0
   37.4030   28.3900  -16.1860 N   0  0  0  0  0  0  0  0  0  0  0  0
   37.7230   27.6080  -17.2670 C   0  0  0  0  0  0  0  0  0  0  0  0
   38.8680   26.9080  -16.9510 C   0  0  0  0  0  0  0  0  0  0  0  0
   39.2510   27.2690  -15.6260 C   0  0  0  0  0  0  0  0  0  0  0  0
   43.1890   27.0960  -13.7590 C   0  0  0  0  0  0  0  0  0  0  0  0
   44.4820   27.0150  -13.2340 C   0  0  0  0  0  0  0  0  0  0  0  0
   49.9367   28.7811  -13.2922 H   0  0  0  0  0  0  0  0  0  0  0  0
   50.3326   28.0822  -15.6544 H   0  0  0  0  0  0  0  0  0  0  0  0
   48.9123   26.3129  -16.6896 H   0  0  0  0  0  0  0  0  0  0  0  0
   47.0873   25.2425  -15.3657 H   0  0  0  0  0  0  0  0  0  0  0  0
   45.2515   23.8236  -14.1680 H   0  0  0  0  0  0  0  0  0  0  0  0
   42.9487   23.9762  -15.1031 H   0  0  0  0  0  0  0  0  0  0  0  0
   41.1310   25.3380  -15.6550 H   0  0  0  0  0  0  0  0  0  0  0  0
   39.4194   28.9649  -12.2656 H   0  0  0  0  0  0  0  0  0  0  0  0
   36.6270   28.9940  -16.1350 H   0  0  0  0  0  0  0  0  0  0  0  0
   37.1668   27.5500  -18.2142 H   0  0  0  0  0  0  0  0  0  0  0  0
   39.3932   26.1967  -17.6055 H   0  0  0  0  0  0  0  0  0  0  0  0
   42.6195   28.0317  -13.6585 H   0  0  0  0  0  0  0  0  0  0  0  0
   44.9244   27.8845  -12.7259 H   0  0  0  0  0  0  0  0  0  0  0  0
  1  2  1  0
  2  3  2  0
  3  4  1  0
  4  5  2  0
  5  6  1  0
  6  7  2  0
  7  8  1  0
  8  9  1  0
  9 10  2  0
 10 11  1  0
 11 12  2  0
 12 13  1  0
 13 14  1  0
 14 15  2  0
 15 16  1  0
 16 17  2  0
 17 18  1  0
 18 19  1  0
 19 20  1  0
 20 21  2  0
 21 22  1  0
 12 23  1  0
 23 24  2  0
  7  2  1  0
 24  9  1  0
 22 14  1  0
 22 18  2  0
  3 25  1  0
  4 26  1  0
  5 27  1  0
  6 28  1  0
 10 29  1  0
 11 30  1  0
 13 31  1  0
 16 32  1  0
 19 33  1  0
 20 34  1  0
 21 35  1  0
 23 36  1  0
 24 37  1  0
M  END
>  <meeko>  (7) 
{"is_sidechain": [false], "free_energy": -7.659, "intermolecular_energy": -8.15, "internal_energy": -0.19}

$$$$
9IV_ttbk2_out
     RDKit          3D

 37 40  0  0  0  0  0  0  0  0999 V2000
   47.6990   25.4880  -16.3770 Cl  0  0  0  0  0  0  0  0  0  0  0  0
   47.7640   26.2490  -14.8300 C   0  0  0  0  0  0  0  0  0  0  0  0
   48.8140   27.1310  -14.5630 C   0  0  0  0  0  0  0  0  0  0  0  0
   48.8960   27.7650  -13.3210 C   0  0  0  0  0  0  0  0  0  0  0  0
   47.9270   27.5220  -12.3470 C   0  0  0  0  0  0  0  0  0  0  0  0
   46.8760   26.6420  -12.6100 C   0  0  0  0  0  0  0  0  0  0  0  0
   46.8040   25.9890  -13.8470 C   0  0  0  0  0  0  0  0  0  0  0  0
   45.7520   25.1470  -14.1380 O   0  0  0  0  0  0  0  0  0  0  0  0
   44.4860   25.6130  -13.8710 C   0  0  0  0  0  0  0  0  0  0  0  0
   44.2100   26.5340  -12.8590 C   0  0  0  0  0  0  0  0  0  0  0  0
   42.8920   26.9350  -12.6290 C   0  0  0  0  0  0  0  0  0  0  0  0
   41.8360   26.4270  -13.3980 C   0  0  0  0  0  0  0  0  0  0  0  0
   40.5250   26.8500  -13.0950 N   0  0  0  0  0  0  0  0  0  0  0  0
   39.6340   27.5600  -13.9150 C   0  0  0  0  0  0  0  0  0  0  0  0
   39.0590   28.6660  -13.3760 N   0  0  0  0  0  0  0  0  0  0  0  0
   38.2050   29.3840  -14.1310 C   0  0  0  0  0  0  0  0  0  0  0  0
   37.8320   29.1620  -15.4020 N   0  0  0  0  0  0  0  0  0  0  0  0
   38.4450   28.0810  -15.9060 C   0  0  0  0  0  0  0  0  0  0  0  0
   38.2830   27.6240  -17.1850 N   0  0  0  0  0  0  0  0  0  0  0  0
   39.0710   26.5180  -17.3850 C   0  0  0  0  0  0  0  0  0  0  0  0
   39.7440   26.2660  -16.2080 C   0  0  0  0  0  0  0  0  0  0  0  0
   39.3410   27.2470  -15.2550 C   0  0  0  0  0  0  0  0  0  0  0  0
   42.1260   25.4710  -14.3790 C   0  0  0  0  0  0  0  0  0  0  0  0
   43.4430   25.0650  -14.6150 C   0  0  0  0  0  0  0  0  0  0  0  0
   49.5766   27.3263  -15.3313 H   0  0  0  0  0  0  0  0  0  0  0  0
   49.7253   28.4564  -13.1107 H   0  0  0  0  0  0  0  0  0  0  0  0
   47.9914   28.0246  -11.3706 H   0  0  0  0  0  0  0  0  0  0  0  0
   46.1050   26.4615  -11.8465 H   0  0  0  0  0  0  0  0  0  0  0  0
   45.0267   26.9421  -12.2455 H   0  0  0  0  0  0  0  0  0  0  0  0
   42.6792   27.6616  -11.8310 H   0  0  0  0  0  0  0  0  0  0  0  0
   40.1940   26.6190  -12.1970 H   0  0  0  0  0  0  0  0  0  0  0  0
   37.7565   30.2631  -13.6452 H   0  0  0  0  0  0  0  0  0  0  0  0
   37.6910   28.0260  -17.8600 H   0  0  0  0  0  0  0  0  0  0  0  0
   39.1512   25.9376  -18.3159 H   0  0  0  0  0  0  0  0  0  0  0  0
   40.4640   25.4525  -16.0351 H   0  0  0  0  0  0  0  0  0  0  0  0
   41.3082   25.0342  -14.9710 H   0  0  0  0  0  0  0  0  0  0  0  0
   43.6559   24.3125  -15.3885 H   0  0  0  0  0  0  0  0  0  0  0  0
  1  2  1  0
  2  3  2  0
  3  4  1  0
  4  5  2  0
  5  6  1  0
  6  7  2  0
  7  8  1  0
  8  9  1  0
  9 10  2  0
 10 11  1  0
 11 12  2  0
 12 13  1  0
 13 14  1  0
 14 15  2  0
 15 16  1  0
 16 17  2  0
 17 18  1  0
 18 19  1  0
 19 20  1  0
 20 21  2  0
 21 22  1  0
 12 23  1  0
 23 24  2  0
  7  2  1  0
 24  9  1  0
 22 14  1  0
 22 18  2  0
  3 25  1  0
  4 26  1  0
  5 27  1  0
  6 28  1  0
 10 29  1  0
 11 30  1  0
 13 31  1  0
 16 32  1  0
 19 33  1  0
 20 34  1  0
 21 35  1  0
 23 36  1  0
 24 37  1  0
M  END
>  <meeko>  (8) 
{"is_sidechain": [false], "free_energy": -6.293, "intermolecular_energy": -7.318, "internal_energy": 0.663}

$$$$
9IV_ttbk2_out
     RDKit          3D

 37 40  0  0  0  0  0  0  0  0999 V2000
   38.8560   26.0540  -17.6790 Cl  0  0  0  0  0  0  0  0  0  0  0  0
   38.2390   27.3920  -16.7810 C   0  0  0  0  0  0  0  0  0  0  0  0
   37.7100   28.4800  -17.4810 C   0  0  0  0  0  0  0  0  0  0  0  0
   37.2010   29.5780  -16.7840 C   0  0  0  0  0  0  0  0  0  0  0  0
   37.2140   29.5880  -15.3890 C   0  0  0  0  0  0  0  0  0  0  0  0
   37.7410   28.5030  -14.6870 C   0  0  0  0  0  0  0  0  0  0  0  0
   38.2710   27.4100  -15.3830 C   0  0  0  0  0  0  0  0  0  0  0  0
   38.7590   26.3130  -14.7060 O   0  0  0  0  0  0  0  0  0  0  0  0
   39.9520   26.4690  -14.0400 C   0  0  0  0  0  0  0  0  0  0  0  0
   40.0320   26.7580  -12.6770 C   0  0  0  0  0  0  0  0  0  0  0  0
   41.2820   26.9330  -12.0780 C   0  0  0  0  0  0  0  0  0  0  0  0
   42.4630   26.8260  -12.8250 C   0  0  0  0  0  0  0  0  0  0  0  0
   43.6920   27.0440  -12.1670 N   0  0  0  0  0  0  0  0  0  0  0  0
   44.9870   26.7960  -12.6480 C   0  0  0  0  0  0  0  0  0  0  0  0
   45.8970   27.7890  -12.4850 N   0  0  0  0  0  0  0  0  0  0  0  0
   47.1560   27.5900  -12.9240 C   0  0  0  0  0  0  0  0  0  0  0  0
   47.6670   26.4980  -13.5140 N   0  0  0  0  0  0  0  0  0  0  0  0
   46.7450   25.5310  -13.6270 C   0  0  0  0  0  0  0  0  0  0  0  0
   46.9790   24.2950  -14.1640 N   0  0  0  0  0  0  0  0  0  0  0  0
   45.8360   23.5400  -14.1050 C   0  0  0  0  0  0  0  0  0  0  0  0
   44.8540   24.3130  -13.5220 C   0  0  0  0  0  0  0  0  0  0  0  0
   45.4180   25.5890  -13.2270 C   0  0  0  0  0  0  0  0  0  0  0  0
   42.3630   26.5800  -14.2000 C   0  0  0  0  0  0  0  0  0  0  0  0
   41.1150   26.4030  -14.8050 C   0  0  0  0  0  0  0  0  0  0  0  0
   37.6946   28.4714  -18.5809 H   0  0  0  0  0  0  0  0  0  0  0  0
   36.7893   30.4360  -17.3357 H   0  0  0  0  0  0  0  0  0  0  0  0
   36.8085   30.4518  -14.8419 H   0  0  0  0  0  0  0  0  0  0  0  0
   37.7399   28.5066  -13.5870 H   0  0  0  0  0  0  0  0  0  0  0  0
   39.1146   26.8476  -12.0767 H   0  0  0  0  0  0  0  0  0  0  0  0
   41.3402   27.1584  -11.0029 H   0  0  0  0  0  0  0  0  0  0  0  0
   43.6330   27.4150  -11.2570 H   0  0  0  0  0  0  0  0  0  0  0  0
   47.8529   28.4289  -12.7805 H   0  0  0  0  0  0  0  0  0  0  0  0
   47.8390   23.9920  -14.5360 H   0  0  0  0  0  0  0  0  0  0  0  0
   45.7228   22.5046  -14.4588 H   0  0  0  0  0  0  0  0  0  0  0  0
   43.8188   24.0005  -13.3202 H   0  0  0  0  0  0  0  0  0  0  0  0
   43.2763   26.5254  -14.8107 H   0  0  0  0  0  0  0  0  0  0  0  0
   41.0510   26.2114  -15.8863 H   0  0  0  0  0  0  0  0  0  0  0  0
  1  2  1  0
  2  3  2  0
  3  4  1  0
  4  5  2  0
  5  6  1  0
  6  7  2  0
  7  8  1  0
  8  9  1  0
  9 10  2  0
 10 11  1  0
 11 12  2  0
 12 13  1  0
 13 14  1  0
 14 15  2  0
 15 16  1  0
 16 17  2  0
 17 18  1  0
 18 19  1  0
 19 20  1  0
 20 21  2  0
 21 22  1  0
 12 23  1  0
 23 24  2  0
  7  2  1  0
 24  9  1  0
 22 14  1  0
 22 18  2  0
  3 25  1  0
  4 26  1  0
  5 27  1  0
  6 28  1  0
 10 29  1  0
 11 30  1  0
 13 31  1  0
 16 32  1  0
 19 33  1  0
 20 34  1  0
 21 35  1  0
 23 36  1  0
 24 37  1  0
M  END
>  <meeko>  (9) 
{"is_sidechain": [false], "free_energy": -6.091, "intermolecular_energy": -5.818, "internal_energy": -0.587}

$$$$
