lazabemide_out
     RDKit          3D

 24 24  0  0  0  0  0  0  0  0999 V2000
   37.9910   30.6580  -16.9090 N   0  0  0  0  0  0  0  0  0  0  0  0
   37.0120   29.5680  -16.8020 C   0  0  0  0  0  0  0  0  0  0  0  0
   36.9140   29.0260  -15.3680 C   0  0  0  0  0  0  0  0  0  0  0  0
   38.2060   28.6420  -14.8330 N   0  0  0  0  0  0  0  0  0  0  0  0
   38.7730   27.4090  -15.0640 C   0  0  0  0  0  0  0  0  0  0  0  0
   38.2860   26.5550  -15.7970 O   0  0  0  0  0  0  0  0  0  0  0  0
   40.0530   27.1690  -14.3240 C   0  0  0  0  0  0  0  0  0  0  0  0
   40.1660   27.5550  -12.9920 C   0  0  0  0  0  0  0  0  0  0  0  0
   41.3740   27.3200  -12.3350 C   0  0  0  0  0  0  0  0  0  0  0  0
   42.4180   26.7140  -13.0280 C   0  0  0  0  0  0  0  0  0  0  0  0
   43.9180   26.4080  -12.2530 Cl  0  0  0  0  0  0  0  0  0  0  0  0
   42.2170   26.3630  -14.3560 C   0  0  0  0  0  0  0  0  0  0  0  0
   41.0600   26.5760  -15.0290 N   0  0  0  0  0  0  0  0  0  0  0  0
   37.9200   31.0890  -17.8300 H   0  0  0  0  0  0  0  0  0  0  0  0
   38.9310   30.2830  -16.7780 H   0  0  0  0  0  0  0  0  0  0  0  0
   37.8010   31.3570  -16.1910 H   0  0  0  0  0  0  0  0  0  0  0  0
   36.0250   29.9450  -17.1081 H   0  0  0  0  0  0  0  0  0  0  0  0
   37.3425   28.7471  -17.4553 H   0  0  0  0  0  0  0  0  0  0  0  0
   36.4827   29.8065  -14.7240 H   0  0  0  0  0  0  0  0  0  0  0  0
   36.2801   28.1274  -15.3915 H   0  0  0  0  0  0  0  0  0  0  0  0
   38.6990   29.2920  -14.2810 H   0  0  0  0  0  0  0  0  0  0  0  0
   39.3241   28.0334  -12.4702 H   0  0  0  0  0  0  0  0  0  0  0  0
   41.5000   27.6102  -11.2815 H   0  0  0  0  0  0  0  0  0  0  0  0
   43.0472   25.8829  -14.8948 H   0  0  0  0  0  0  0  0  0  0  0  0
  1  2  1  0
  2  3  1  0
  3  4  1  0
  4  5  1  0
  5  6  2  0
  5  7  1  0
  7  8  2  0
  8  9  1  0
  9 10  2  0
 10 11  1  0
 10 12  1  0
 12 13  2  0
 13  7  1  0
  1 14  1  0
  1 15  1  0
  1 16  1  0
  2 17  1  0
  2 18  1  0
  3 19  1  0
  3 20  1  0
  4 21  1  0
  8 22  1  0
  9 23  1  0
 12 24  1  0
M  CHG  1   1   1
M  END
>  <meeko>  (1) 
{"is_sidechain": [false], "free_energy": -6.822, "intermolecular_energy": -8.218, "internal_energy": -0.168}

$$$$
lazabemide_out
     RDKit          3D

 24 24  0  0  0  0  0  0  0  0999 V2000
   39.4470   27.2570  -18.3470 N   0  0  0  0  0  0  0  0  0  0  0  0
   38.2860   26.9280  -17.5100 C   0  0  0  0  0  0  0  0  0  0  0  0
   38.5340   27.2640  -16.0320 C   0  0  0  0  0  0  0  0  0  0  0  0
   39.8420   26.8340  -15.5790 N   0  0  0  0  0  0  0  0  0  0  0  0
   40.2500   26.9350  -14.2680 C   0  0  0  0  0  0  0  0  0  0  0  0
   39.5310   27.3220  -13.3540 O   0  0  0  0  0  0  0  0  0  0  0  0
   41.6780   26.5470  -14.0330 C   0  0  0  0  0  0  0  0  0  0  0  0
   42.4220   27.2030  -13.0580 C   0  0  0  0  0  0  0  0  0  0  0  0
   43.7500   26.8190  -12.8700 C   0  0  0  0  0  0  0  0  0  0  0  0
   44.2820   25.8030  -13.6560 C   0  0  0  0  0  0  0  0  0  0  0  0
   45.9100   25.3020  -13.4530 Cl  0  0  0  0  0  0  0  0  0  0  0  0
   43.4660   25.2040  -14.6070 C   0  0  0  0  0  0  0  0  0  0  0  0
   42.1730   25.5500  -14.8220 N   0  0  0  0  0  0  0  0  0  0  0  0
   40.3010   27.1460  -17.8020 H   0  0  0  0  0  0  0  0  0  0  0  0
   39.3710   28.2220  -18.6690 H   0  0  0  0  0  0  0  0  0  0  0  0
   39.4740   26.6310  -19.1530 H   0  0  0  0  0  0  0  0  0  0  0  0
   37.4174   27.5022  -17.8647 H   0  0  0  0  0  0  0  0  0  0  0  0
   38.1039   25.8460  -17.5885 H   0  0  0  0  0  0  0  0  0  0  0  0
   38.4547   28.3531  -15.8993 H   0  0  0  0  0  0  0  0  0  0  0  0
   37.7802   26.7291  -15.4356 H   0  0  0  0  0  0  0  0  0  0  0  0
   40.4660   26.4520  -16.2390 H   0  0  0  0  0  0  0  0  0  0  0  0
   41.9749   28.0039  -12.4508 H   0  0  0  0  0  0  0  0  0  0  0  0
   44.3695   27.3147  -12.1081 H   0  0  0  0  0  0  0  0  0  0  0  0
   43.8949   24.4000  -15.2231 H   0  0  0  0  0  0  0  0  0  0  0  0
  1  2  1  0
  2  3  1  0
  3  4  1  0
  4  5  1  0
  5  6  2  0
  5  7  1  0
  7  8  2  0
  8  9  1  0
  9 10  2  0
 10 11  1  0
 10 12  1  0
 12 13  2  0
 13  7  1  0
  1 14  1  0
  1 15  1  0
  1 16  1  0
  2 17  1  0
  2 18  1  0
  3 19  1  0
  3 20  1  0
  4 21  1  0
  8 22  1  0
  9 23  1  0
 12 24  1  0
M  CHG  1   1   1
M  END
>  <meeko>  (2) 
{"is_sidechain": [false], "free_energy": -6.686, "intermolecular_energy": -8.073, "internal_energy": -0.149}

$$$$
lazabemide_out
     RDKit          3D

 24 24  0  0  0  0  0  0  0  0999 V2000
   42.9430   26.9200  -12.3950 N   0  0  0  0  0  0  0  0  0  0  0  0
   43.1760   26.6640  -13.8220 C   0  0  0  0  0  0  0  0  0  0  0  0
   42.0810   25.7750  -14.4300 C   0  0  0  0  0  0  0  0  0  0  0  0
   41.0040   26.5480  -15.0160 N   0  0  0  0  0  0  0  0  0  0  0  0
   39.9030   26.9600  -14.2990 C   0  0  0  0  0  0  0  0  0  0  0  0
   39.7630   26.7820  -13.0940 O   0  0  0  0  0  0  0  0  0  0  0  0
   38.8510   27.6420  -15.1180 C   0  0  0  0  0  0  0  0  0  0  0  0
   38.1190   28.6920  -14.5720 C   0  0  0  0  0  0  0  0  0  0  0  0
   37.1440   29.3000  -15.3630 C   0  0  0  0  0  0  0  0  0  0  0  0
   36.9360   28.8410  -16.6590 C   0  0  0  0  0  0  0  0  0  0  0  0
   35.7470   29.5650  -17.6620 Cl  0  0  0  0  0  0  0  0  0  0  0  0
   37.7120   27.7860  -17.1220 C   0  0  0  0  0  0  0  0  0  0  0  0
   38.6670   27.1680  -16.3850 N   0  0  0  0  0  0  0  0  0  0  0  0
   42.3020   26.2200  -12.0250 H   0  0  0  0  0  0  0  0  0  0  0  0
   42.5380   27.8490  -12.2790 H   0  0  0  0  0  0  0  0  0  0  0  0
   43.8290   26.8700  -11.8920 H   0  0  0  0  0  0  0  0  0  0  0  0
   43.1925   27.6246  -14.3577 H   0  0  0  0  0  0  0  0  0  0  0  0
   44.1370   26.1381  -13.9218 H   0  0  0  0  0  0  0  0  0  0  0  0
   42.5306   25.1459  -15.2124 H   0  0  0  0  0  0  0  0  0  0  0  0
   41.6544   25.1663  -13.6191 H   0  0  0  0  0  0  0  0  0  0  0  0
   41.0620   26.7900  -15.9690 H   0  0  0  0  0  0  0  0  0  0  0  0
   38.3044   29.0338  -13.5430 H   0  0  0  0  0  0  0  0  0  0  0  0
   36.5462   30.1336  -14.9658 H   0  0  0  0  0  0  0  0  0  0  0  0
   37.5411   27.4306  -18.1489 H   0  0  0  0  0  0  0  0  0  0  0  0
  1  2  1  0
  2  3  1  0
  3  4  1  0
  4  5  1  0
  5  6  2  0
  5  7  1  0
  7  8  2  0
  8  9  1  0
  9 10  2  0
 10 11  1  0
 10 12  1  0
 12 13  2  0
 13  7  1  0
  1 14  1  0
  1 15  1  0
  1 16  1  0
  2 17  1  0
  2 18  1  0
  3 19  1  0
  3 20  1  0
  4 21  1  0
  8 22  1  0
  9 23  1  0
 12 24  1  0
M  CHG  1   1   1
M  END
>  <meeko>  (3) 
{"is_sidechain": [false], "free_energy": -6.653, "intermolecular_energy": -7.822, "internal_energy": -0.359}

$$$$
lazabemide_out
     RDKit          3D

 24 24  0  0  0  0  0  0  0  0999 V2000
   39.3520   27.3280  -18.4650 N   0  0  0  0  0  0  0  0  0  0  0  0
   38.0330   27.4480  -17.8320 C   0  0  0  0  0  0  0  0  0  0  0  0
   38.1310   27.4270  -16.2990 C   0  0  0  0  0  0  0  0  0  0  0  0
   39.4750   27.1440  -15.8350 N   0  0  0  0  0  0  0  0  0  0  0  0
   39.7370   26.5510  -14.6210 C   0  0  0  0  0  0  0  0  0  0  0  0
   38.8710   26.1390  -13.8570 O   0  0  0  0  0  0  0  0  0  0  0  0
   41.1930   26.4570  -14.2800 C   0  0  0  0  0  0  0  0  0  0  0  0
   42.0250   25.6200  -15.0180 C   0  0  0  0  0  0  0  0  0  0  0  0
   43.3740   25.5550  -14.6690 C   0  0  0  0  0  0  0  0  0  0  0  0
   43.8390   26.3200  -13.6050 C   0  0  0  0  0  0  0  0  0  0  0  0
   45.4920   26.2670  -13.1470 Cl  0  0  0  0  0  0  0  0  0  0  0  0
   42.9370   27.1270  -12.9230 C   0  0  0  0  0  0  0  0  0  0  0  0
   41.6200   27.2160  -13.2300 N   0  0  0  0  0  0  0  0  0  0  0  0
   40.0740   27.6030  -17.8010 H   0  0  0  0  0  0  0  0  0  0  0  0
   39.3910   27.9350  -19.2840 H   0  0  0  0  0  0  0  0  0  0  0  0
   39.5040   26.3600  -18.7520 H   0  0  0  0  0  0  0  0  0  0  0  0
   37.5724   28.3962  -18.1462 H   0  0  0  0  0  0  0  0  0  0  0  0
   37.4234   26.5883  -18.1471 H   0  0  0  0  0  0  0  0  0  0  0  0
   37.8232   28.4095  -15.9118 H   0  0  0  0  0  0  0  0  0  0  0  0
   37.4736   26.6251  -15.9318 H   0  0  0  0  0  0  0  0  0  0  0  0
   40.2330   27.3870  -16.4150 H   0  0  0  0  0  0  0  0  0  0  0  0
   41.6291   25.0254  -15.8545 H   0  0  0  0  0  0  0  0  0  0  0  0
   44.0625   24.9055  -15.2295 H   0  0  0  0  0  0  0  0  0  0  0  0
   43.3143   27.7297  -12.0837 H   0  0  0  0  0  0  0  0  0  0  0  0
  1  2  1  0
  2  3  1  0
  3  4  1  0
  4  5  1  0
  5  6  2  0
  5  7  1  0
  7  8  2  0
  8  9  1  0
  9 10  2  0
 10 11  1  0
 10 12  1  0
 12 13  2  0
 13  7  1  0
  1 14  1  0
  1 15  1  0
  1 16  1  0
  2 17  1  0
  2 18  1  0
  3 19  1  0
  3 20  1  0
  4 21  1  0
  8 22  1  0
  9 23  1  0
 12 24  1  0
M  CHG  1   1   1
M  END
>  <meeko>  (4) 
{"is_sidechain": [false], "free_energy": -6.474, "intermolecular_energy": -7.82, "internal_energy": -0.146}

$$$$
lazabemide_out
     RDKit          3D

 24 24  0  0  0  0  0  0  0  0999 V2000
   44.1880   26.1710  -14.1580 N   0  0  0  0  0  0  0  0  0  0  0  0
   43.9330   27.2550  -13.2020 C   0  0  0  0  0  0  0  0  0  0  0  0
   42.6530   27.0100  -12.3890 C   0  0  0  0  0  0  0  0  0  0  0  0
   41.4620   27.4600  -13.0830 N   0  0  0  0  0  0  0  0  0  0  0  0
   40.7440   26.6530  -13.9360 C   0  0  0  0  0  0  0  0  0  0  0  0
   40.9920   25.4690  -14.1310 O   0  0  0  0  0  0  0  0  0  0  0  0
   39.6200   27.3460  -14.6430 C   0  0  0  0  0  0  0  0  0  0  0  0
   39.0320   28.4720  -14.0740 C   0  0  0  0  0  0  0  0  0  0  0  0
   37.9840   29.0880  -14.7580 C   0  0  0  0  0  0  0  0  0  0  0  0
   37.5640   28.5620  -15.9750 C   0  0  0  0  0  0  0  0  0  0  0  0
   36.2800   29.2940  -16.8460 Cl  0  0  0  0  0  0  0  0  0  0  0  0
   38.2070   27.4340  -16.4680 C   0  0  0  0  0  0  0  0  0  0  0  0
   39.2270   26.8060  -15.8330 N   0  0  0  0  0  0  0  0  0  0  0  0
   43.8860   25.2840  -13.7560 H   0  0  0  0  0  0  0  0  0  0  0  0
   45.1860   26.1300  -14.3660 H   0  0  0  0  0  0  0  0  0  0  0  0
   43.6690   26.3480  -15.0190 H   0  0  0  0  0  0  0  0  0  0  0  0
   44.7854   27.3276  -12.5105 H   0  0  0  0  0  0  0  0  0  0  0  0
   43.8036   28.1881  -13.7700 H   0  0  0  0  0  0  0  0  0  0  0  0
   42.5607   25.9317  -12.1920 H   0  0  0  0  0  0  0  0  0  0  0  0
   42.7340   27.5853  -11.4549 H   0  0  0  0  0  0  0  0  0  0  0  0
   41.1530   28.3840  -12.9360 H   0  0  0  0  0  0  0  0  0  0  0  0
   39.3848   28.8660  -13.1095 H   0  0  0  0  0  0  0  0  0  0  0  0
   37.4951   29.9800  -14.3394 H   0  0  0  0  0  0  0  0  0  0  0  0
   37.8683   27.0256  -17.4316 H   0  0  0  0  0  0  0  0  0  0  0  0
  1  2  1  0
  2  3  1  0
  3  4  1  0
  4  5  1  0
  5  6  2  0
  5  7  1  0
  7  8  2  0
  8  9  1  0
  9 10  2  0
 10 11  1  0
 10 12  1  0
 12 13  2  0
 13  7  1  0
  1 14  1  0
  1 15  1  0
  1 16  1  0
  2 17  1  0
  2 18  1  0
  3 19  1  0
  3 20  1  0
  4 21  1  0
  8 22  1  0
  9 23  1  0
 12 24  1  0
M  CHG  1   1   1
M  END
>  <meeko>  (5) 
{"is_sidechain": [false], "free_energy": -6.412, "intermolecular_energy": -7.558, "internal_energy": -0.334}

$$$$
lazabemide_out
     RDKit          3D

 24 24  0  0  0  0  0  0  0  0999 V2000
   36.8170   29.5050  -14.7950 N   0  0  0  0  0  0  0  0  0  0  0  0
   38.2350   29.1250  -14.8340 C   0  0  0  0  0  0  0  0  0  0  0  0
   38.4210   27.6500  -15.2200 C   0  0  0  0  0  0  0  0  0  0  0  0
   39.7780   27.1890  -15.0040 N   0  0  0  0  0  0  0  0  0  0  0  0
   40.2360   26.7610  -13.7790 C   0  0  0  0  0  0  0  0  0  0  0  0
   39.5320   26.6560  -12.7810 O   0  0  0  0  0  0  0  0  0  0  0  0
   41.7000   26.4410  -13.7430 C   0  0  0  0  0  0  0  0  0  0  0  0
   42.2410   25.5670  -14.6800 C   0  0  0  0  0  0  0  0  0  0  0  0
   43.6060   25.2890  -14.6130 C   0  0  0  0  0  0  0  0  0  0  0  0
   44.3750   25.8880  -13.6210 C   0  0  0  0  0  0  0  0  0  0  0  0
   46.0570   25.5710  -13.5080 Cl  0  0  0  0  0  0  0  0  0  0  0  0
   43.7500   26.7470  -12.7260 C   0  0  0  0  0  0  0  0  0  0  0  0
   42.4270   27.0410  -12.7570 N   0  0  0  0  0  0  0  0  0  0  0  0
   36.6450   30.2450  -15.4740 H   0  0  0  0  0  0  0  0  0  0  0  0
   36.5800   29.8380  -13.8600 H   0  0  0  0  0  0  0  0  0  0  0  0
   36.2410   28.6940  -15.0220 H   0  0  0  0  0  0  0  0  0  0  0  0
   38.7518   29.7543  -15.5735 H   0  0  0  0  0  0  0  0  0  0  0  0
   38.6552   29.2702  -13.8278 H   0  0  0  0  0  0  0  0  0  0  0  0
   37.7389   27.0372  -14.6124 H   0  0  0  0  0  0  0  0  0  0  0  0
   38.2012   27.5541  -16.2935 H   0  0  0  0  0  0  0  0  0  0  0  0
   40.3990   27.1810  -15.7690 H   0  0  0  0  0  0  0  0  0  0  0  0
   41.6087   25.1070  -15.4537 H   0  0  0  0  0  0  0  0  0  0  0  0
   44.0696   24.6031  -15.3373 H   0  0  0  0  0  0  0  0  0  0  0  0
   44.3657   27.2170  -11.9450 H   0  0  0  0  0  0  0  0  0  0  0  0
  1  2  1  0
  2  3  1  0
  3  4  1  0
  4  5  1  0
  5  6  2  0
  5  7  1  0
  7  8  2  0
  8  9  1  0
  9 10  2  0
 10 11  1  0
 10 12  1  0
 12 13  2  0
 13  7  1  0
  1 14  1  0
  1 15  1  0
  1 16  1  0
  2 17  1  0
  2 18  1  0
  3 19  1  0
  3 20  1  0
  4 21  1  0
  8 22  1  0
  9 23  1  0
 12 24  1  0
M  CHG  1   1   1
M  END
>  <meeko>  (6) 
{"is_sidechain": [false], "free_energy": -6.372, "intermolecular_energy": -7.705, "internal_energy": -0.139}

$$$$
lazabemide_out
     RDKit          3D

 24 24  0  0  0  0  0  0  0  0999 V2000
   43.4860   25.8690  -14.8030 N   0  0  0  0  0  0  0  0  0  0  0  0
   43.8910   26.2850  -13.4540 C   0  0  0  0  0  0  0  0  0  0  0  0
   42.7020   26.8140  -12.6380 C   0  0  0  0  0  0  0  0  0  0  0  0
   41.6240   27.2960  -13.4790 N   0  0  0  0  0  0  0  0  0  0  0  0
   40.3070   27.2990  -13.0780 C   0  0  0  0  0  0  0  0  0  0  0  0
   39.9300   26.9720  -11.9590 O   0  0  0  0  0  0  0  0  0  0  0  0
   39.3390   27.7250  -14.1390 C   0  0  0  0  0  0  0  0  0  0  0  0
   39.1950   26.9600  -15.2930 C   0  0  0  0  0  0  0  0  0  0  0  0
   38.2880   27.3900  -16.2620 C   0  0  0  0  0  0  0  0  0  0  0  0
   37.5630   28.5570  -16.0450 C   0  0  0  0  0  0  0  0  0  0  0  0
   36.4370   29.1160  -17.2130 Cl  0  0  0  0  0  0  0  0  0  0  0  0
   37.7720   29.2580  -14.8650 C   0  0  0  0  0  0  0  0  0  0  0  0
   38.6450   28.8750  -13.9010 N   0  0  0  0  0  0  0  0  0  0  0  0
   43.4240   26.6880  -15.4070 H   0  0  0  0  0  0  0  0  0  0  0  0
   42.5770   25.4090  -14.7580 H   0  0  0  0  0  0  0  0  0  0  0  0
   44.1770   25.2200  -15.1800 H   0  0  0  0  0  0  0  0  0  0  0  0
   44.3255   25.4206  -12.9305 H   0  0  0  0  0  0  0  0  0  0  0  0
   44.6255   27.0978  -13.5534 H   0  0  0  0  0  0  0  0  0  0  0  0
   42.3188   26.0005  -12.0044 H   0  0  0  0  0  0  0  0  0  0  0  0
   43.0603   27.6610  -12.0345 H   0  0  0  0  0  0  0  0  0  0  0  0
   41.8440   27.6360  -14.3770 H   0  0  0  0  0  0  0  0  0  0  0  0
   39.7811   26.0404  -15.4372 H   0  0  0  0  0  0  0  0  0  0  0  0
   38.1478   26.8124  -17.1876 H   0  0  0  0  0  0  0  0  0  0  0  0
   37.1944   30.1799  -14.7024 H   0  0  0  0  0  0  0  0  0  0  0  0
  1  2  1  0
  2  3  1  0
  3  4  1  0
  4  5  1  0
  5  6  2  0
  5  7  1  0
  7  8  2  0
  8  9  1  0
  9 10  2  0
 10 11  1  0
 10 12  1  0
 12 13  2  0
 13  7  1  0
  1 14  1  0
  1 15  1  0
  1 16  1  0
  2 17  1  0
  2 18  1  0
  3 19  1  0
  3 20  1  0
  4 21  1  0
  8 22  1  0
  9 23  1  0
 12 24  1  0
M  CHG  1   1   1
M  END
>  <meeko>  (7) 
{"is_sidechain": [false], "free_energy": -6.199, "intermolecular_energy": -7.481, "internal_energy": -0.154}

$$$$
lazabemide_out
     RDKit          3D

 24 24  0  0  0  0  0  0  0  0999 V2000
   46.9140   25.0610  -14.5920 N   0  0  0  0  0  0  0  0  0  0  0  0
   45.6910   24.8020  -13.8220 C   0  0  0  0  0  0  0  0  0  0  0  0
   44.9660   26.1030  -13.4480 C   0  0  0  0  0  0  0  0  0  0  0  0
   43.7390   26.2880  -14.1970 N   0  0  0  0  0  0  0  0  0  0  0  0
   42.5300   26.5590  -13.5970 C   0  0  0  0  0  0  0  0  0  0  0  0
   42.3880   26.7460  -12.3940 O   0  0  0  0  0  0  0  0  0  0  0  0
   41.3650   26.5940  -14.5390 C   0  0  0  0  0  0  0  0  0  0  0  0
   40.1270   27.0470  -14.0940 C   0  0  0  0  0  0  0  0  0  0  0  0
   39.0650   27.0610  -14.9970 C   0  0  0  0  0  0  0  0  0  0  0  0
   39.2750   26.6250  -16.3010 C   0  0  0  0  0  0  0  0  0  0  0  0
   37.9920   26.6290  -17.4410 Cl  0  0  0  0  0  0  0  0  0  0  0  0
   40.5440   26.1880  -16.6580 C   0  0  0  0  0  0  0  0  0  0  0  0
   41.6010   26.1580  -15.8100 N   0  0  0  0  0  0  0  0  0  0  0  0
   47.5260   25.6790  -14.0610 H   0  0  0  0  0  0  0  0  0  0  0  0
   46.6700   25.5010  -15.4790 H   0  0  0  0  0  0  0  0  0  0  0  0
   47.3950   24.1790  -14.7720 H   0  0  0  0  0  0  0  0  0  0  0  0
   45.0152   24.1789  -14.4262 H   0  0  0  0  0  0  0  0  0  0  0  0
   45.9753   24.2894  -12.8912 H   0  0  0  0  0  0  0  0  0  0  0  0
   44.7242   26.0766  -12.3752 H   0  0  0  0  0  0  0  0  0  0  0  0
   45.6359   26.9412  -13.6903 H   0  0  0  0  0  0  0  0  0  0  0  0
   43.7710   26.2160  -15.1790 H   0  0  0  0  0  0  0  0  0  0  0  0
   39.9897   27.3854  -13.0564 H   0  0  0  0  0  0  0  0  0  0  0  0
   38.0717   27.4130  -14.6817 H   0  0  0  0  0  0  0  0  0  0  0  0
   40.7008   25.8455  -17.6915 H   0  0  0  0  0  0  0  0  0  0  0  0
  1  2  1  0
  2  3  1  0
  3  4  1  0
  4  5  1  0
  5  6  2  0
  5  7  1  0
  7  8  2  0
  8  9  1  0
  9 10  2  0
 10 11  1  0
 10 12  1  0
 12 13  2  0
 13  7  1  0
  1 14  1  0
  1 15  1  0
  1 16  1  0
  2 17  1  0
  2 18  1  0
  3 19  1  0
  3 20  1  0
  4 21  1  0
  8 22  1  0
  9 23  1  0
 12 24  1  0
M  CHG  1   1   1
M  END
>  <meeko>  (8) 
{"is_sidechain": [false], "free_energy": -6.148, "intermolecular_energy": -7.42, "internal_energy": -0.153}

$$$$
lazabemide_out
     RDKit          3D

 24 24  0  0  0  0  0  0  0  0999 V2000
   34.4910   29.9000  -18.9160 N   0  0  0  0  0  0  0  0  0  0  0  0
   35.3860   29.7830  -17.7570 C   0  0  0  0  0  0  0  0  0  0  0  0
   36.3610   28.6050  -17.9050 C   0  0  0  0  0  0  0  0  0  0  0  0
   37.2300   28.4590  -16.7540 N   0  0  0  0  0  0  0  0  0  0  0  0
   38.3010   27.5940  -16.7310 C   0  0  0  0  0  0  0  0  0  0  0  0
   38.6660   26.9280  -17.6930 O   0  0  0  0  0  0  0  0  0  0  0  0
   38.9970   27.5070  -15.4070 C   0  0  0  0  0  0  0  0  0  0  0  0
   38.7530   28.4680  -14.4310 C   0  0  0  0  0  0  0  0  0  0  0  0
   39.4220   28.3580  -13.2120 C   0  0  0  0  0  0  0  0  0  0  0  0
   40.3040   27.3010  -13.0140 C   0  0  0  0  0  0  0  0  0  0  0  0
   41.1450   27.1320  -11.5280 Cl  0  0  0  0  0  0  0  0  0  0  0  0
   40.4890   26.3880  -14.0440 C   0  0  0  0  0  0  0  0  0  0  0  0
   39.8590   26.4620  -15.2430 N   0  0  0  0  0  0  0  0  0  0  0  0
   34.3780   28.9850  -19.3510 H   0  0  0  0  0  0  0  0  0  0  0  0
   34.8930   30.5510  -19.5900 H   0  0  0  0  0  0  0  0  0  0  0  0
   33.5820   30.2460  -18.6090 H   0  0  0  0  0  0  0  0  0  0  0  0
   35.9643   30.7135  -17.6585 H   0  0  0  0  0  0  0  0  0  0  0  0
   34.7680   29.6049  -16.8646 H   0  0  0  0  0  0  0  0  0  0  0  0
   35.7802   27.6791  -18.0288 H   0  0  0  0  0  0  0  0  0  0  0  0
   36.9956   28.8029  -18.7814 H   0  0  0  0  0  0  0  0  0  0  0  0
   37.0470   29.0040  -15.9540 H   0  0  0  0  0  0  0  0  0  0  0  0
   38.0502   29.2937  -14.6160 H   0  0  0  0  0  0  0  0  0  0  0  0
   39.2539   29.0988  -12.4164 H   0  0  0  0  0  0  0  0  0  0  0  0
   41.1881   25.5552  -13.8776 H   0  0  0  0  0  0  0  0  0  0  0  0
  1  2  1  0
  2  3  1  0
  3  4  1  0
  4  5  1  0
  5  6  2  0
  5  7  1  0
  7  8  2  0
  8  9  1  0
  9 10  2  0
 10 11  1  0
 10 12  1  0
 12 13  2  0
 13  7  1  0
  1 14  1  0
  1 15  1  0
  1 16  1  0
  2 17  1  0
  2 18  1  0
  3 19  1  0
  3 20  1  0
  4 21  1  0
  8 22  1  0
  9 23  1  0
 12 24  1  0
M  CHG  1   1   1
M  END
>  <meeko>  (9) 
{"is_sidechain": [false], "free_energy": -5.629, "intermolecular_energy": -6.811, "internal_energy": -0.138}

$$$$
