isatin_out
     RDKit          3D

 16 17  0  0  0  0  0  0  0  0999 V2000
   35.7490   29.6510  -17.5360 O   0  0  0  0  0  0  0  0  0  0  0  0
   36.5960   29.1610  -16.8220 C   0  0  0  0  0  0  0  0  0  0  0  0
   36.9510   29.5320  -15.5400 N   0  0  0  0  0  0  0  0  0  0  0  0
   37.9720   28.7220  -15.0530 C   0  0  0  0  0  0  0  0  0  0  0  0
   38.5790   28.7970  -13.8170 C   0  0  0  0  0  0  0  0  0  0  0  0
   39.5910   27.8710  -13.5400 C   0  0  0  0  0  0  0  0  0  0  0  0
   39.9740   26.9000  -14.4910 C   0  0  0  0  0  0  0  0  0  0  0  0
   39.3490   26.8380  -15.7390 C   0  0  0  0  0  0  0  0  0  0  0  0
   38.3540   27.7610  -15.9860 C   0  0  0  0  0  0  0  0  0  0  0  0
   37.5200   27.9600  -17.1740 C   0  0  0  0  0  0  0  0  0  0  0  0
   37.5480   27.3250  -18.2020 O   0  0  0  0  0  0  0  0  0  0  0  0
   36.5370   30.2720  -15.0390 H   0  0  0  0  0  0  0  0  0  0  0  0
   38.2795   29.5548  -13.0780 H   0  0  0  0  0  0  0  0  0  0  0  0
   40.0972   27.9001  -12.5638 H   0  0  0  0  0  0  0  0  0  0  0  0
   40.7731   26.1847  -14.2466 H   0  0  0  0  0  0  0  0  0  0  0  0
   39.6371   26.0877  -16.4901 H   0  0  0  0  0  0  0  0  0  0  0  0
  1  2  2  0
  2  3  1  0
  3  4  1  0
  4  5  2  0
  5  6  1  0
  6  7  2  0
  7  8  1  0
  8  9  2  0
  9 10  1  0
 10 11  2  0
 10  2  1  0
  9  4  1  0
  3 12  1  0
  5 13  1  0
  6 14  1  0
  7 15  1  0
  8 16  1  0
M  END
>  <meeko>  (1) 
{"is_sidechain": [false], "free_energy": -7.49, "intermolecular_energy": -7.49, "internal_energy": 0.0}

$$$$
isatin_out
     RDKit          3D

 16 17  0  0  0  0  0  0  0  0999 V2000
   37.4740   26.9030  -18.6000 O   0  0  0  0  0  0  0  0  0  0  0  0
   37.9160   27.1490  -17.5000 C   0  0  0  0  0  0  0  0  0  0  0  0
   38.8360   26.4240  -16.7680 N   0  0  0  0  0  0  0  0  0  0  0  0
   39.0900   27.0340  -15.5440 C   0  0  0  0  0  0  0  0  0  0  0  0
   39.9480   26.5980  -14.5560 C   0  0  0  0  0  0  0  0  0  0  0  0
   40.0460   27.3790  -13.3990 C   0  0  0  0  0  0  0  0  0  0  0  0
   39.2940   28.5650  -13.2510 C   0  0  0  0  0  0  0  0  0  0  0  0
   38.4290   28.9930  -14.2610 C   0  0  0  0  0  0  0  0  0  0  0  0
   38.3520   28.2050  -15.3920 C   0  0  0  0  0  0  0  0  0  0  0  0
   37.5540   28.3720  -16.6090 C   0  0  0  0  0  0  0  0  0  0  0  0
   36.7830   29.2670  -16.8620 O   0  0  0  0  0  0  0  0  0  0  0  0
   39.2550   25.5860  -17.0720 H   0  0  0  0  0  0  0  0  0  0  0  0
   40.5320   25.6732  -14.6729 H   0  0  0  0  0  0  0  0  0  0  0  0
   40.7212   27.0633  -12.5900 H   0  0  0  0  0  0  0  0  0  0  0  0
   39.3904   29.1586  -12.3299 H   0  0  0  0  0  0  0  0  0  0  0  0
   37.8370   29.9146  -14.1599 H   0  0  0  0  0  0  0  0  0  0  0  0
  1  2  2  0
  2  3  1  0
  3  4  1  0
  4  5  2  0
  5  6  1  0
  6  7  2  0
  7  8  1  0
  8  9  2  0
  9 10  1  0
 10 11  2  0
 10  2  1  0
  9  4  1  0
  3 12  1  0
  5 13  1  0
  6 14  1  0
  7 15  1  0
  8 16  1  0
M  END
>  <meeko>  (2) 
{"is_sidechain": [false], "free_energy": -7.349, "intermolecular_energy": -7.349, "internal_energy": 0.0}

$$$$
isatin_out
     RDKit          3D

 16 17  0  0  0  0  0  0  0  0999 V2000
   41.0560   26.2650  -13.9330 O   0  0  0  0  0  0  0  0  0  0  0  0
   40.1650   26.8200  -14.5360 C   0  0  0  0  0  0  0  0  0  0  0  0
   39.7370   26.5900  -15.8290 N   0  0  0  0  0  0  0  0  0  0  0  0
   38.6820   27.4340  -16.1620 C   0  0  0  0  0  0  0  0  0  0  0  0
   38.0040   27.4900  -17.3610 C   0  0  0  0  0  0  0  0  0  0  0  0
   36.9680   28.4250  -17.4710 C   0  0  0  0  0  0  0  0  0  0  0  0
   36.6340   29.2750  -16.3960 C   0  0  0  0  0  0  0  0  0  0  0  0
   37.3300   29.2060  -15.1870 C   0  0  0  0  0  0  0  0  0  0  0  0
   38.3460   28.2750  -15.1040 C   0  0  0  0  0  0  0  0  0  0  0  0
   39.2510   27.9580  -13.9970 C   0  0  0  0  0  0  0  0  0  0  0  0
   39.2780   28.4710  -12.9030 O   0  0  0  0  0  0  0  0  0  0  0  0
   40.1280   25.9180  -16.4350 H   0  0  0  0  0  0  0  0  0  0  0  0
   38.2666   26.8264  -18.1980 H   0  0  0  0  0  0  0  0  0  0  0  0
   36.4042   28.4982  -18.4127 H   0  0  0  0  0  0  0  0  0  0  0  0
   35.8156   30.0009  -16.5112 H   0  0  0  0  0  0  0  0  0  0  0  0
   37.0803   29.8627  -14.3406 H   0  0  0  0  0  0  0  0  0  0  0  0
  1  2  2  0
  2  3  1  0
  3  4  1  0
  4  5  2  0
  5  6  1  0
  6  7  2  0
  7  8  1  0
  8  9  2  0
  9 10  1  0
 10 11  2  0
 10  2  1  0
  9  4  1  0
  3 12  1  0
  5 13  1  0
  6 14  1  0
  7 15  1  0
  8 16  1  0
M  END
>  <meeko>  (3) 
{"is_sidechain": [false], "free_energy": -7.021, "intermolecular_energy": -7.021, "internal_energy": 0.0}

$$$$
isatin_out
     RDKit          3D

 16 17  0  0  0  0  0  0  0  0999 V2000
   41.0680   25.5760  -17.1760 O   0  0  0  0  0  0  0  0  0  0  0  0
   40.1570   26.3240  -16.9000 C   0  0  0  0  0  0  0  0  0  0  0  0
   39.2280   26.8890  -17.7520 N   0  0  0  0  0  0  0  0  0  0  0  0
   38.3370   27.6950  -17.0520 C   0  0  0  0  0  0  0  0  0  0  0  0
   37.2810   28.4170  -17.5690 C   0  0  0  0  0  0  0  0  0  0  0  0
   36.5120   29.1640  -16.6700 C   0  0  0  0  0  0  0  0  0  0  0  0
   36.8060   29.1760  -15.2900 C   0  0  0  0  0  0  0  0  0  0  0  0
   37.8790   28.4400  -14.7820 C   0  0  0  0  0  0  0  0  0  0  0  0
   38.6220   27.7110  -15.6890 C   0  0  0  0  0  0  0  0  0  0  0  0
   39.7890   26.8510  -15.4840 C   0  0  0  0  0  0  0  0  0  0  0  0
   40.3430   26.6060  -14.4380 O   0  0  0  0  0  0  0  0  0  0  0  0
   39.2020   26.7410  -18.7260 H   0  0  0  0  0  0  0  0  0  0  0  0
   37.0528   28.4058  -18.6450 H   0  0  0  0  0  0  0  0  0  0  0  0
   35.6624   29.7529  -17.0460 H   0  0  0  0  0  0  0  0  0  0  0  0
   36.1831   29.7717  -14.6065 H   0  0  0  0  0  0  0  0  0  0  0  0
   38.1208   28.4412  -13.7089 H   0  0  0  0  0  0  0  0  0  0  0  0
  1  2  2  0
  2  3  1  0
  3  4  1  0
  4  5  2  0
  5  6  1  0
  6  7  2  0
  7  8  1  0
  8  9  2  0
  9 10  1  0
 10 11  2  0
 10  2  1  0
  9  4  1  0
  3 12  1  0
  5 13  1  0
  6 14  1  0
  7 15  1  0
  8 16  1  0
M  END
>  <meeko>  (4) 
{"is_sidechain": [false], "free_energy": -6.941, "intermolecular_energy": -6.941, "internal_energy": 0.0}

$$$$
isatin_out
     RDKit          3D

 16 17  0  0  0  0  0  0  0  0999 V2000
   37.9500   26.8820  -17.2250 O   0  0  0  0  0  0  0  0  0  0  0  0
   38.6950   26.8970  -16.2700 C   0  0  0  0  0  0  0  0  0  0  0  0
   38.4190   27.3010  -14.9780 N   0  0  0  0  0  0  0  0  0  0  0  0
   39.5410   27.1690  -14.1650 C   0  0  0  0  0  0  0  0  0  0  0  0
   39.6400   27.4730  -12.8250 C   0  0  0  0  0  0  0  0  0  0  0  0
   40.8770   27.2580  -12.2060 C   0  0  0  0  0  0  0  0  0  0  0  0
   41.9770   26.7490  -12.9290 C   0  0  0  0  0  0  0  0  0  0  0  0
   41.8600   26.4450  -14.2870 C   0  0  0  0  0  0  0  0  0  0  0  0
   40.6300   26.6660  -14.8730 C   0  0  0  0  0  0  0  0  0  0  0  0
   40.1870   26.4560  -16.2530 C   0  0  0  0  0  0  0  0  0  0  0  0
   40.8410   26.0300  -17.1750 O   0  0  0  0  0  0  0  0  0  0  0  0
   37.5450   27.6380  -14.6740 H   0  0  0  0  0  0  0  0  0  0  0  0
   38.7809   27.8690  -12.2636 H   0  0  0  0  0  0  0  0  0  0  0  0
   40.9938   27.4899  -11.1371 H   0  0  0  0  0  0  0  0  0  0  0  0
   42.9375   26.5899  -12.4170 H   0  0  0  0  0  0  0  0  0  0  0  0
   42.7088   26.0478  -14.8630 H   0  0  0  0  0  0  0  0  0  0  0  0
  1  2  2  0
  2  3  1  0
  3  4  1  0
  4  5  2  0
  5  6  1  0
  6  7  2  0
  7  8  1  0
  8  9  2  0
  9 10  1  0
 10 11  2  0
 10  2  1  0
  9  4  1  0
  3 12  1  0
  5 13  1  0
  6 14  1  0
  7 15  1  0
  8 16  1  0
M  END
>  <meeko>  (5) 
{"is_sidechain": [false], "free_energy": -6.848, "intermolecular_energy": -6.848, "internal_energy": 0.0}

$$$$
isatin_out
     RDKit          3D

 16 17  0  0  0  0  0  0  0  0999 V2000
   37.7810   27.1540  -18.2820 O   0  0  0  0  0  0  0  0  0  0  0  0
   38.6080   26.9410  -17.4240 C   0  0  0  0  0  0  0  0  0  0  0  0
   39.8340   26.3180  -17.5550 N   0  0  0  0  0  0  0  0  0  0  0  0
   40.4980   26.2650  -16.3330 C   0  0  0  0  0  0  0  0  0  0  0  0
   41.7390   25.7180  -16.0810 C   0  0  0  0  0  0  0  0  0  0  0  0
   42.2120   25.7790  -14.7650 C   0  0  0  0  0  0  0  0  0  0  0  0
   41.4480   26.3750  -13.7400 C   0  0  0  0  0  0  0  0  0  0  0  0
   40.1930   26.9250  -14.0120 C   0  0  0  0  0  0  0  0  0  0  0  0
   39.7490   26.8530  -15.3170 C   0  0  0  0  0  0  0  0  0  0  0  0
   38.5010   27.3250  -15.9200 C   0  0  0  0  0  0  0  0  0  0  0  0
   37.5880   27.8910  -15.3660 O   0  0  0  0  0  0  0  0  0  0  0  0
   40.1900   25.9590  -18.4000 H   0  0  0  0  0  0  0  0  0  0  0  0
   42.3327   25.2528  -16.8817 H   0  0  0  0  0  0  0  0  0  0  0  0
   43.1980   25.3542  -14.5257 H   0  0  0  0  0  0  0  0  0  0  0  0
   41.8450   26.4071  -12.7146 H   0  0  0  0  0  0  0  0  0  0  0  0
   39.5867   27.3937  -13.2228 H   0  0  0  0  0  0  0  0  0  0  0  0
  1  2  2  0
  2  3  1  0
  3  4  1  0
  4  5  2  0
  5  6  1  0
  6  7  2  0
  7  8  1  0
  8  9  2  0
  9 10  1  0
 10 11  2  0
 10  2  1  0
  9  4  1  0
  3 12  1  0
  5 13  1  0
  6 14  1  0
  7 15  1  0
  8 16  1  0
M  END
>  <meeko>  (6) 
{"is_sidechain": [false], "free_energy": -6.801, "intermolecular_energy": -6.801, "internal_energy": 0.0}

$$$$
isatin_out
     RDKit          3D

 16 17  0  0  0  0  0  0  0  0999 V2000
   38.0200   27.5310  -15.2240 O   0  0  0  0  0  0  0  0  0  0  0  0
   39.1420   27.2630  -14.8540 C   0  0  0  0  0  0  0  0  0  0  0  0
   40.0890   26.4880  -15.4940 N   0  0  0  0  0  0  0  0  0  0  0  0
   41.2610   26.4160  -14.7460 C   0  0  0  0  0  0  0  0  0  0  0  0
   42.4150   25.7350  -15.0670 C   0  0  0  0  0  0  0  0  0  0  0  0
   43.4770   25.8050  -14.1580 C   0  0  0  0  0  0  0  0  0  0  0  0
   43.3670   26.5440  -12.9610 C   0  0  0  0  0  0  0  0  0  0  0  0
   42.1900   27.2290  -12.6500 C   0  0  0  0  0  0  0  0  0  0  0  0
   41.1580   27.1450  -13.5630 C   0  0  0  0  0  0  0  0  0  0  0  0
   39.8190   27.7350  -13.5360 C   0  0  0  0  0  0  0  0  0  0  0  0
   39.3460   28.4380  -12.6730 O   0  0  0  0  0  0  0  0  0  0  0  0
   39.9530   26.0440  -16.3620 H   0  0  0  0  0  0  0  0  0  0  0  0
   42.4983   25.1592  -16.0006 H   0  0  0  0  0  0  0  0  0  0  0  0
   44.4144   25.2743  -14.3808 H   0  0  0  0  0  0  0  0  0  0  0  0
   44.2178   26.5811  -12.2648 H   0  0  0  0  0  0  0  0  0  0  0  0
   42.0901   27.8086  -11.7205 H   0  0  0  0  0  0  0  0  0  0  0  0
  1  2  2  0
  2  3  1  0
  3  4  1  0
  4  5  2  0
  5  6  1  0
  6  7  2  0
  7  8  1  0
  8  9  2  0
  9 10  1  0
 10 11  2  0
 10  2  1  0
  9  4  1  0
  3 12  1  0
  5 13  1  0
  6 14  1  0
  7 15  1  0
  8 16  1  0
M  END
>  <meeko>  (7) 
{"is_sidechain": [false], "free_energy": -6.702, "intermolecular_energy": -6.702, "internal_energy": 0.0}

$$$$
isatin_out
     RDKit          3D

 16 17  0  0  0  0  0  0  0  0999 V2000
   40.9540   26.2930  -13.9770 O   0  0  0  0  0  0  0  0  0  0  0  0
   40.0640   26.8200  -14.6060 C   0  0  0  0  0  0  0  0  0  0  0  0
   39.1220   27.7260  -14.1580 N   0  0  0  0  0  0  0  0  0  0  0  0
   38.2640   28.1010  -15.1870 C   0  0  0  0  0  0  0  0  0  0  0  0
   37.2070   28.9840  -15.1120 C   0  0  0  0  0  0  0  0  0  0  0  0
   36.4760   29.2120  -16.2840 C   0  0  0  0  0  0  0  0  0  0  0  0
   36.8110   28.5630  -17.4920 C   0  0  0  0  0  0  0  0  0  0  0  0
   37.8840   27.6720  -17.5510 C   0  0  0  0  0  0  0  0  0  0  0  0
   38.5890   27.4650  -16.3830 C   0  0  0  0  0  0  0  0  0  0  0  0
   39.7460   26.6080  -16.1140 C   0  0  0  0  0  0  0  0  0  0  0  0
   40.3250   25.8930  -16.8970 O   0  0  0  0  0  0  0  0  0  0  0  0
   39.0660   28.0600  -13.2330 H   0  0  0  0  0  0  0  0  0  0  0  0
   36.9488   29.4887  -14.1693 H   0  0  0  0  0  0  0  0  0  0  0  0
   35.6255   29.9093  -16.2632 H   0  0  0  0  0  0  0  0  0  0  0  0
   36.2194   28.7618  -18.3978 H   0  0  0  0  0  0  0  0  0  0  0  0
   38.1550   27.1587  -18.4854 H   0  0  0  0  0  0  0  0  0  0  0  0
  1  2  2  0
  2  3  1  0
  3  4  1  0
  4  5  2  0
  5  6  1  0
  6  7  2  0
  7  8  1  0
  8  9  2  0
  9 10  1  0
 10 11  2  0
 10  2  1  0
  9  4  1  0
  3 12  1  0
  5 13  1  0
  6 14  1  0
  7 15  1  0
  8 16  1  0
M  END
>  <meeko>  (8) 
{"is_sidechain": [false], "free_energy": -6.606, "intermolecular_energy": -6.606, "internal_energy": 0.0}

$$$$
isatin_out
     RDKit          3D

 16 17  0  0  0  0  0  0  0  0999 V2000
   36.8780   28.9980  -16.0130 O   0  0  0  0  0  0  0  0  0  0  0  0
   37.8130   28.4950  -15.4310 C   0  0  0  0  0  0  0  0  0  0  0  0
   38.3480   28.8490  -14.2080 N   0  0  0  0  0  0  0  0  0  0  0  0
   39.4210   28.0270  -13.8780 C   0  0  0  0  0  0  0  0  0  0  0  0
   40.1970   28.0840  -12.7390 C   0  0  0  0  0  0  0  0  0  0  0  0
   41.2310   27.1490  -12.6180 C   0  0  0  0  0  0  0  0  0  0  0  0
   41.4680   26.1870  -13.6230 C   0  0  0  0  0  0  0  0  0  0  0  0
   40.6740   26.1430  -14.7710 C   0  0  0  0  0  0  0  0  0  0  0  0
   39.6610   27.0750  -14.8660 C   0  0  0  0  0  0  0  0  0  0  0  0
   38.6690   27.2930  -15.9220 C   0  0  0  0  0  0  0  0  0  0  0  0
   38.5470   26.6700  -16.9500 O   0  0  0  0  0  0  0  0  0  0  0  0
   38.0150   29.5850  -13.6460 H   0  0  0  0  0  0  0  0  0  0  0  0
   40.0104   28.8347  -11.9569 H   0  0  0  0  0  0  0  0  0  0  0  0
   41.8707   27.1641  -11.7233 H   0  0  0  0  0  0  0  0  0  0  0  0
   42.2875   25.4635  -13.5007 H   0  0  0  0  0  0  0  0  0  0  0  0
   40.8481   25.3997  -15.5629 H   0  0  0  0  0  0  0  0  0  0  0  0
  1  2  2  0
  2  3  1  0
  3  4  1  0
  4  5  2  0
  5  6  1  0
  6  7  2  0
  7  8  1  0
  8  9  2  0
  9 10  1  0
 10 11  2  0
 10  2  1  0
  9  4  1  0
  3 12  1  0
  5 13  1  0
  6 14  1  0
  7 15  1  0
  8 16  1  0
M  END
>  <meeko>  (9) 
{"is_sidechain": [false], "free_energy": -6.552, "intermolecular_energy": -6.552, "internal_energy": 0.0}

$$$$
