quercetin_maoa_out
     RDKit          3D

 32 34  0  0  0  0  0  0  0  0999 V2000
   38.7160   28.8210  -13.1810 O   0  0  0  0  0  0  0  0  0  0  0  0
   39.3710   28.1070  -13.9380 C   0  0  0  0  0  0  0  0  0  0  0  0
   40.6990   27.5980  -13.5290 C   0  0  0  0  0  0  0  0  0  0  0  0
   41.1580   27.9720  -12.2780 O   0  0  0  0  0  0  0  0  0  0  0  0
   41.3850   26.8230  -14.3900 C   0  0  0  0  0  0  0  0  0  0  0  0
   42.7280   26.2720  -14.0990 C   0  0  0  0  0  0  0  0  0  0  0  0
   43.0370   24.9540  -14.4850 C   0  0  0  0  0  0  0  0  0  0  0  0
   44.2870   24.3960  -14.2040 C   0  0  0  0  0  0  0  0  0  0  0  0
   45.2300   25.1570  -13.5320 C   0  0  0  0  0  0  0  0  0  0  0  0
   46.4520   24.6150  -13.2580 O   0  0  0  0  0  0  0  0  0  0  0  0
   44.9410   26.4600  -13.1370 C   0  0  0  0  0  0  0  0  0  0  0  0
   45.9180   27.1540  -12.4770 O   0  0  0  0  0  0  0  0  0  0  0  0
   43.6970   27.0200  -13.4090 C   0  0  0  0  0  0  0  0  0  0  0  0
   40.9210   26.4750  -15.6540 O   0  0  0  0  0  0  0  0  0  0  0  0
   39.6900   26.9260  -16.0590 C   0  0  0  0  0  0  0  0  0  0  0  0
   39.2600   26.5440  -17.3290 C   0  0  0  0  0  0  0  0  0  0  0  0
   38.0200   26.9740  -17.7920 C   0  0  0  0  0  0  0  0  0  0  0  0
   37.6380   26.5800  -19.0390 O   0  0  0  0  0  0  0  0  0  0  0  0
   37.2000   27.7810  -17.0060 C   0  0  0  0  0  0  0  0  0  0  0  0
   37.6350   28.1580  -15.7380 C   0  0  0  0  0  0  0  0  0  0  0  0
   36.7910   28.9510  -15.0080 O   0  0  0  0  0  0  0  0  0  0  0  0
   38.8800   27.7310  -15.2650 C   0  0  0  0  0  0  0  0  0  0  0  0
   41.0120   27.4140  -11.5400 H   0  0  0  0  0  0  0  0  0  0  0  0
   42.2831   24.3542  -15.0159 H   0  0  0  0  0  0  0  0  0  0  0  0
   44.5193   23.3660  -14.5123 H   0  0  0  0  0  0  0  0  0  0  0  0
   47.2160   24.9370  -13.6930 H   0  0  0  0  0  0  0  0  0  0  0  0
   46.0540   28.0630  -12.6630 H   0  0  0  0  0  0  0  0  0  0  0  0
   43.4722   28.0467  -13.0845 H   0  0  0  0  0  0  0  0  0  0  0  0
   39.8965   25.9071  -17.9608 H   0  0  0  0  0  0  0  0  0  0  0  0
   37.1660   25.7780  -19.1520 H   0  0  0  0  0  0  0  0  0  0  0  0
   36.2220   28.1158  -17.3821 H   0  0  0  0  0  0  0  0  0  0  0  0
   35.8920   29.0340  -15.2600 H   0  0  0  0  0  0  0  0  0  0  0  0
  1  2  2  0
  2  3  1  0
  3  4  1  0
  3  5  2  0
  5  6  1  0
  6  7  2  0
  7  8  1  0
  8  9  2  0
  9 10  1  0
  9 11  1  0
 11 12  1  0
 11 13  2  0
  5 14  1  0
 14 15  1  0
 15 16  2  0
 16 17  1  0
 17 18  1  0
 17 19  2  0
 19 20  1  0
 20 21  1  0
 20 22  2  0
 22  2  1  0
 13  6  1  0
 22 15  1  0
  4 23  1  0
  7 24  1  0
  8 25  1  0
 10 26  1  0
 12 27  1  0
 13 28  1  0
 16 29  1  0
 18 30  1  0
 19 31  1  0
 21 32  1  0
M  END
>  <meeko>  (1) 
{"is_sidechain": [false], "free_energy": -8.101, "intermolecular_energy": -9.758, "internal_energy": 0.052}

$$$$
quercetin_maoa_out
     RDKit          3D

 32 34  0  0  0  0  0  0  0  0999 V2000
   38.9570   26.5690  -18.3270 O   0  0  0  0  0  0  0  0  0  0  0  0
   39.3280   26.8480  -17.1880 C   0  0  0  0  0  0  0  0  0  0  0  0
   40.5990   26.3050  -16.6580 C   0  0  0  0  0  0  0  0  0  0  0  0
   41.3240   25.4730  -17.4920 O   0  0  0  0  0  0  0  0  0  0  0  0
   40.9650   26.6320  -15.4040 C   0  0  0  0  0  0  0  0  0  0  0  0
   42.2020   26.1340  -14.7620 C   0  0  0  0  0  0  0  0  0  0  0  0
   42.5610   24.7800  -14.8990 C   0  0  0  0  0  0  0  0  0  0  0  0
   43.7100   24.2730  -14.2860 C   0  0  0  0  0  0  0  0  0  0  0  0
   44.5000   25.1210  -13.5280 C   0  0  0  0  0  0  0  0  0  0  0  0
   45.6230   24.6290  -12.9300 O   0  0  0  0  0  0  0  0  0  0  0  0
   44.1600   26.4620  -13.3760 C   0  0  0  0  0  0  0  0  0  0  0  0
   44.9850   27.2440  -12.6140 O   0  0  0  0  0  0  0  0  0  0  0  0
   43.0150   26.9730  -13.9800 C   0  0  0  0  0  0  0  0  0  0  0  0
   40.2130   27.4490  -14.5680 O   0  0  0  0  0  0  0  0  0  0  0  0
   39.0350   27.9740  -15.0340 C   0  0  0  0  0  0  0  0  0  0  0  0
   38.3190   28.7980  -14.1660 C   0  0  0  0  0  0  0  0  0  0  0  0
   37.1150   29.3560  -14.5860 C   0  0  0  0  0  0  0  0  0  0  0  0
   36.4470   30.1540  -13.7060 O   0  0  0  0  0  0  0  0  0  0  0  0
   36.6130   29.1060  -15.8600 C   0  0  0  0  0  0  0  0  0  0  0  0
   37.3330   28.2830  -16.7230 C   0  0  0  0  0  0  0  0  0  0  0  0
   36.7940   28.0700  -17.9640 O   0  0  0  0  0  0  0  0  0  0  0  0
   38.5430   27.7180  -16.3100 C   0  0  0  0  0  0  0  0  0  0  0  0
   41.9960   25.8290  -18.0400 H   0  0  0  0  0  0  0  0  0  0  0  0
   41.9269   24.1100  -15.4983 H   0  0  0  0  0  0  0  0  0  0  0  0
   43.9833   23.2141  -14.4041 H   0  0  0  0  0  0  0  0  0  0  0  0
   46.4280   25.1050  -12.9780 H   0  0  0  0  0  0  0  0  0  0  0  0
   45.8830   27.0000  -12.4940 H   0  0  0  0  0  0  0  0  0  0  0  0
   42.7467   28.0313  -13.8458 H   0  0  0  0  0  0  0  0  0  0  0  0
   38.7032   29.0055  -13.1564 H   0  0  0  0  0  0  0  0  0  0  0  0
   36.3930   29.9120  -12.8020 H   0  0  0  0  0  0  0  0  0  0  0  0
   35.6603   29.5524  -16.1811 H   0  0  0  0  0  0  0  0  0  0  0  0
   35.8640   28.0690  -18.0760 H   0  0  0  0  0  0  0  0  0  0  0  0
  1  2  2  0
  2  3  1  0
  3  4  1  0
  3  5  2  0
  5  6  1  0
  6  7  2  0
  7  8  1  0
  8  9  2  0
  9 10  1  0
  9 11  1  0
 11 12  1  0
 11 13  2  0
  5 14  1  0
 14 15  1  0
 15 16  2  0
 16 17  1  0
 17 18  1  0
 17 19  2  0
 19 20  1  0
 20 21  1  0
 20 22  2  0
 22  2  1  0
 13  6  1  0
 22 15  1  0
  4 23  1  0
  7 24  1  0
  8 25  1  0
 10 26  1  0
 12 27  1  0
 13 28  1  0
 16 29  1  0
 18 30  1  0
 19 31  1  0
 21 32  1  0
M  END
>  <meeko>  (2) 
{"is_sidechain": [false], "free_energy": -7.389, "intermolecular_energy": -8.884, "internal_energy": 0.036}

$$$$
quercetin_maoa_out
     RDKit          3D

 32 34  0  0  0  0  0  0  0  0999 V2000
   40.9690   27.3300  -11.1490 O   0  0  0  0  0  0  0  0  0  0  0  0
   41.0770   27.1470  -12.3590 C   0  0  0  0  0  0  0  0  0  0  0  0
   39.9750   27.5200  -13.2760 C   0  0  0  0  0  0  0  0  0  0  0  0
   38.8370   28.0610  -12.7040 O   0  0  0  0  0  0  0  0  0  0  0  0
   40.1330   27.2990  -14.5940 C   0  0  0  0  0  0  0  0  0  0  0  0
   39.0950   27.6120  -15.6020 C   0  0  0  0  0  0  0  0  0  0  0  0
   38.2040   28.6790  -15.3740 C   0  0  0  0  0  0  0  0  0  0  0  0
   37.1980   28.9860  -16.2940 C   0  0  0  0  0  0  0  0  0  0  0  0
   37.0780   28.2220  -17.4430 C   0  0  0  0  0  0  0  0  0  0  0  0
   36.0970   28.5210  -18.3440 O   0  0  0  0  0  0  0  0  0  0  0  0
   37.9450   27.1610  -17.6840 C   0  0  0  0  0  0  0  0  0  0  0  0
   37.7710   26.4480  -18.8390 O   0  0  0  0  0  0  0  0  0  0  0  0
   38.9470   26.8460  -16.7710 C   0  0  0  0  0  0  0  0  0  0  0  0
   41.2730   26.7320  -15.1520 O   0  0  0  0  0  0  0  0  0  0  0  0
   42.3140   26.3840  -14.3290 C   0  0  0  0  0  0  0  0  0  0  0  0
   43.4420   25.8280  -14.9330 C   0  0  0  0  0  0  0  0  0  0  0  0
   44.5270   25.4550  -14.1450 C   0  0  0  0  0  0  0  0  0  0  0  0
   45.6090   24.9150  -14.7740 O   0  0  0  0  0  0  0  0  0  0  0  0
   44.5050   25.6260  -12.7630 C   0  0  0  0  0  0  0  0  0  0  0  0
   43.3760   26.1830  -12.1670 C   0  0  0  0  0  0  0  0  0  0  0  0
   43.4070   26.3290  -10.8060 O   0  0  0  0  0  0  0  0  0  0  0  0
   42.2810   26.5600  -12.9490 C   0  0  0  0  0  0  0  0  0  0  0  0
   38.8560   28.9320  -12.3580 H   0  0  0  0  0  0  0  0  0  0  0  0
   38.3016   29.2797  -14.4577 H   0  0  0  0  0  0  0  0  0  0  0  0
   36.5100   29.8239  -16.1080 H   0  0  0  0  0  0  0  0  0  0  0  0
   36.2130   29.2290  -18.9460 H   0  0  0  0  0  0  0  0  0  0  0  0
   37.5090   26.8860  -19.6250 H   0  0  0  0  0  0  0  0  0  0  0  0
   39.6219   25.9991  -16.9640 H   0  0  0  0  0  0  0  0  0  0  0  0
   43.4737   25.6855  -16.0233 H   0  0  0  0  0  0  0  0  0  0  0  0
   45.6290   23.9980  -14.9660 H   0  0  0  0  0  0  0  0  0  0  0  0
   45.3677   25.3252  -12.1504 H   0  0  0  0  0  0  0  0  0  0  0  0
   43.9870   25.8020  -10.2920 H   0  0  0  0  0  0  0  0  0  0  0  0
  1  2  2  0
  2  3  1  0
  3  4  1  0
  3  5  2  0
  5  6  1  0
  6  7  2  0
  7  8  1  0
  8  9  2  0
  9 10  1  0
  9 11  1  0
 11 12  1  0
 11 13  2  0
  5 14  1  0
 14 15  1  0
 15 16  2  0
 16 17  1  0
 17 18  1  0
 17 19  2  0
 19 20  1  0
 20 21  1  0
 20 22  2  0
 22  2  1  0
 13  6  1  0
 22 15  1  0
  4 23  1  0
  7 24  1  0
  8 25  1  0
 10 26  1  0
 12 27  1  0
 13 28  1  0
 16 29  1  0
 18 30  1  0
 19 31  1  0
 21 32  1  0
M  END
>  <meeko>  (3) 
{"is_sidechain": [false], "free_energy": -7.353, "intermolecular_energy": -9.001, "internal_energy": 0.195}

$$$$
quercetin_maoa_out
     RDKit          3D

 32 34  0  0  0  0  0  0  0  0999 V2000
   42.0070   25.6580  -16.6570 O   0  0  0  0  0  0  0  0  0  0  0  0
   41.0660   26.2460  -16.1280 C   0  0  0  0  0  0  0  0  0  0  0  0
   39.9400   26.7500  -16.9470 C   0  0  0  0  0  0  0  0  0  0  0  0
   40.0110   26.5380  -18.3120 O   0  0  0  0  0  0  0  0  0  0  0  0
   38.9320   27.3930  -16.3280 C   0  0  0  0  0  0  0  0  0  0  0  0
   37.7640   27.9560  -17.0440 C   0  0  0  0  0  0  0  0  0  0  0  0
   37.1820   29.1550  -16.5880 C   0  0  0  0  0  0  0  0  0  0  0  0
   36.0650   29.7010  -17.2270 C   0  0  0  0  0  0  0  0  0  0  0  0
   35.5260   29.0450  -18.3220 C   0  0  0  0  0  0  0  0  0  0  0  0
   34.4370   29.5770  -18.9480 O   0  0  0  0  0  0  0  0  0  0  0  0
   36.0840   27.8570  -18.7840 C   0  0  0  0  0  0  0  0  0  0  0  0
   35.5010   27.2620  -19.8690 O   0  0  0  0  0  0  0  0  0  0  0  0
   37.1930   27.3040  -18.1500 C   0  0  0  0  0  0  0  0  0  0  0  0
   38.8850   27.6200  -14.9580 O   0  0  0  0  0  0  0  0  0  0  0  0
   39.9100   27.1580  -14.1720 C   0  0  0  0  0  0  0  0  0  0  0  0
   39.8170   27.3990  -12.8010 C   0  0  0  0  0  0  0  0  0  0  0  0
   40.8300   26.9530  -11.9560 C   0  0  0  0  0  0  0  0  0  0  0  0
   40.7010   27.2100  -10.6240 O   0  0  0  0  0  0  0  0  0  0  0  0
   41.9360   26.2710  -12.4570 C   0  0  0  0  0  0  0  0  0  0  0  0
   42.0220   26.0330  -13.8270 C   0  0  0  0  0  0  0  0  0  0  0  0
   43.1300   25.3590  -14.2660 O   0  0  0  0  0  0  0  0  0  0  0  0
   41.0100   26.4770  -14.6840 C   0  0  0  0  0  0  0  0  0  0  0  0
   40.6690   25.9720  -18.6650 H   0  0  0  0  0  0  0  0  0  0  0  0
   37.6128   29.6692  -15.7162 H   0  0  0  0  0  0  0  0  0  0  0  0
   35.6196   30.6395  -16.8651 H   0  0  0  0  0  0  0  0  0  0  0  0
   33.6080   29.5960  -18.5120 H   0  0  0  0  0  0  0  0  0  0  0  0
   35.9850   27.1630  -20.6660 H   0  0  0  0  0  0  0  0  0  0  0  0
   37.6215   26.3586  -18.5141 H   0  0  0  0  0  0  0  0  0  0  0  0
   38.9499   27.9373  -12.3906 H   0  0  0  0  0  0  0  0  0  0  0  0
   39.8740   27.4830  -10.2780 H   0  0  0  0  0  0  0  0  0  0  0  0
   42.7310   25.9249  -11.7801 H   0  0  0  0  0  0  0  0  0  0  0  0
   43.2960   24.4860  -13.9670 H   0  0  0  0  0  0  0  0  0  0  0  0
  1  2  2  0
  2  3  1  0
  3  4  1  0
  3  5  2  0
  5  6  1  0
  6  7  2  0
  7  8  1  0
  8  9  2  0
  9 10  1  0
  9 11  1  0
 11 12  1  0
 11 13  2  0
  5 14  1  0
 14 15  1  0
 15 16  2  0
 16 17  1  0
 17 18  1  0
 17 19  2  0
 19 20  1  0
 20 21  1  0
 20 22  2  0
 22  2  1  0
 13  6  1  0
 22 15  1  0
  4 23  1  0
  7 24  1  0
  8 25  1  0
 10 26  1  0
 12 27  1  0
 13 28  1  0
 16 29  1  0
 18 30  1  0
 19 31  1  0
 21 32  1  0
M  END
>  <meeko>  (4) 
{"is_sidechain": [false], "free_energy": -6.872, "intermolecular_energy": -8.293, "internal_energy": 0.067}

$$$$
quercetin_maoa_out
     RDKit          3D

 32 34  0  0  0  0  0  0  0  0999 V2000
   39.9150   28.0400  -11.9460 O   0  0  0  0  0  0  0  0  0  0  0  0
   40.0960   27.6090  -13.0830 C   0  0  0  0  0  0  0  0  0  0  0  0
   39.0600   27.7860  -14.1260 C   0  0  0  0  0  0  0  0  0  0  0  0
   37.8970   28.4370  -13.7540 O   0  0  0  0  0  0  0  0  0  0  0  0
   39.2970   27.2950  -15.3570 C   0  0  0  0  0  0  0  0  0  0  0  0
   38.3290   27.3950  -16.4730 C   0  0  0  0  0  0  0  0  0  0  0  0
   38.3220   26.4060  -17.4760 C   0  0  0  0  0  0  0  0  0  0  0  0
   37.4370   26.4830  -18.5560 C   0  0  0  0  0  0  0  0  0  0  0  0
   36.5610   27.5530  -18.6350 C   0  0  0  0  0  0  0  0  0  0  0  0
   35.6960   27.6290  -19.6870 O   0  0  0  0  0  0  0  0  0  0  0  0
   36.5570   28.5430  -17.6570 C   0  0  0  0  0  0  0  0  0  0  0  0
   35.6660   29.5720  -17.7980 O   0  0  0  0  0  0  0  0  0  0  0  0
   37.4380   28.4760  -16.5820 C   0  0  0  0  0  0  0  0  0  0  0  0
   40.4610   26.6210  -15.7100 O   0  0  0  0  0  0  0  0  0  0  0  0
   41.4420   26.4490  -14.7670 C   0  0  0  0  0  0  0  0  0  0  0  0
   42.5970   25.7780  -15.1670 C   0  0  0  0  0  0  0  0  0  0  0  0
   43.6240   25.5730  -14.2510 C   0  0  0  0  0  0  0  0  0  0  0  0
   44.7350   24.9120  -14.6820 O   0  0  0  0  0  0  0  0  0  0  0  0
   43.5180   26.0290  -12.9390 C   0  0  0  0  0  0  0  0  0  0  0  0
   42.3620   26.7000  -12.5460 C   0  0  0  0  0  0  0  0  0  0  0  0
   42.3110   27.1260  -11.2460 O   0  0  0  0  0  0  0  0  0  0  0  0
   41.3250   26.9090  -13.4590 C   0  0  0  0  0  0  0  0  0  0  0  0
   37.4040   28.9150  -14.3910 H   0  0  0  0  0  0  0  0  0  0  0  0
   39.0228   25.5608  -17.4087 H   0  0  0  0  0  0  0  0  0  0  0  0
   37.4365   25.7040  -19.3326 H   0  0  0  0  0  0  0  0  0  0  0  0
   35.6640   26.9390  -20.3200 H   0  0  0  0  0  0  0  0  0  0  0  0
   34.8230   29.5200  -17.3910 H   0  0  0  0  0  0  0  0  0  0  0  0
   37.4369   29.2681  -15.8187 H   0  0  0  0  0  0  0  0  0  0  0  0
   42.6956   25.4131  -16.2000 H   0  0  0  0  0  0  0  0  0  0  0  0
   45.5540   25.3630  -14.7420 H   0  0  0  0  0  0  0  0  0  0  0  0
   44.3360   25.8615  -12.2229 H   0  0  0  0  0  0  0  0  0  0  0  0
   42.9720   27.7010  -10.9140 H   0  0  0  0  0  0  0  0  0  0  0  0
  1  2  2  0
  2  3  1  0
  3  4  1  0
  3  5  2  0
  5  6  1  0
  6  7  2  0
  7  8  1  0
  8  9  2  0
  9 10  1  0
  9 11  1  0
 11 12  1  0
 11 13  2  0
  5 14  1  0
 14 15  1  0
 15 16  2  0
 16 17  1  0
 17 18  1  0
 17 19  2  0
 19 20  1  0
 20 21  1  0
 20 22  2  0
 22  2  1  0
 13  6  1  0
 22 15  1  0
  4 23  1  0
  7 24  1  0
  8 25  1  0
 10 26  1  0
 12 27  1  0
 13 28  1  0
 16 29  1  0
 18 30  1  0
 19 31  1  0
 21 32  1  0
M  END
>  <meeko>  (5) 
{"is_sidechain": [false], "free_energy": -6.463, "intermolecular_energy": -7.868, "internal_energy": 0.134}

$$$$
quercetin_maoa_out
     RDKit          3D

 32 34  0  0  0  0  0  0  0  0999 V2000
   40.0940   27.2270  -12.2200 O   0  0  0  0  0  0  0  0  0  0  0  0
   40.7920   26.9350  -13.1890 C   0  0  0  0  0  0  0  0  0  0  0  0
   42.2420   26.6880  -13.0240 C   0  0  0  0  0  0  0  0  0  0  0  0
   42.7600   26.8130  -11.7470 O   0  0  0  0  0  0  0  0  0  0  0  0
   42.9690   26.3750  -14.1130 C   0  0  0  0  0  0  0  0  0  0  0  0
   44.4280   26.1250  -14.0730 C   0  0  0  0  0  0  0  0  0  0  0  0
   45.3210   27.2130  -14.1150 C   0  0  0  0  0  0  0  0  0  0  0  0
   46.7040   27.0110  -14.1030 C   0  0  0  0  0  0  0  0  0  0  0  0
   47.1960   25.7170  -14.0540 C   0  0  0  0  0  0  0  0  0  0  0  0
   48.5450   25.5170  -14.0410 O   0  0  0  0  0  0  0  0  0  0  0  0
   46.3300   24.6280  -14.0170 C   0  0  0  0  0  0  0  0  0  0  0  0
   46.8840   23.3780  -13.9690 O   0  0  0  0  0  0  0  0  0  0  0  0
   44.9520   24.8220  -14.0330 C   0  0  0  0  0  0  0  0  0  0  0  0
   42.4390   26.2760  -15.3940 O   0  0  0  0  0  0  0  0  0  0  0  0
   41.0970   26.4920  -15.5770 C   0  0  0  0  0  0  0  0  0  0  0  0
   40.6070   26.3720  -16.8770 C   0  0  0  0  0  0  0  0  0  0  0  0
   39.2520   26.5820  -17.1220 C   0  0  0  0  0  0  0  0  0  0  0  0
   38.8140   26.4560  -18.4060 O   0  0  0  0  0  0  0  0  0  0  0  0
   38.3780   26.9120  -16.0890 C   0  0  0  0  0  0  0  0  0  0  0  0
   38.8750   27.0290  -14.7920 C   0  0  0  0  0  0  0  0  0  0  0  0
   37.9730   27.3550  -13.8150 O   0  0  0  0  0  0  0  0  0  0  0  0
   40.2330   26.8200  -14.5370 C   0  0  0  0  0  0  0  0  0  0  0  0
   42.2160   26.6450  -11.0030 H   0  0  0  0  0  0  0  0  0  0  0  0
   44.9239   28.2379  -14.1579 H   0  0  0  0  0  0  0  0  0  0  0  0
   47.3926   27.8683  -14.1321 H   0  0  0  0  0  0  0  0  0  0  0  0
   49.1060   26.1290  -13.6060 H   0  0  0  0  0  0  0  0  0  0  0  0
   46.4920   22.6740  -14.4480 H   0  0  0  0  0  0  0  0  0  0  0  0
   44.2738   23.9561  -14.0143 H   0  0  0  0  0  0  0  0  0  0  0  0
   41.2857   26.1133  -17.7031 H   0  0  0  0  0  0  0  0  0  0  0  0
   38.8820   25.6310  -18.8440 H   0  0  0  0  0  0  0  0  0  0  0  0
   37.3101   27.0780  -16.2939 H   0  0  0  0  0  0  0  0  0  0  0  0
   37.5180   28.1740  -13.8510 H   0  0  0  0  0  0  0  0  0  0  0  0
  1  2  2  0
  2  3  1  0
  3  4  1  0
  3  5  2  0
  5  6  1  0
  6  7  2  0
  7  8  1  0
  8  9  2  0
  9 10  1  0
  9 11  1  0
 11 12  1  0
 11 13  2  0
  5 14  1  0
 14 15  1  0
 15 16  2  0
 16 17  1  0
 17 18  1  0
 17 19  2  0
 19 20  1  0
 20 21  1  0
 20 22  2  0
 22  2  1  0
 13  6  1  0
 22 15  1  0
  4 23  1  0
  7 24  1  0
  8 25  1  0
 10 26  1  0
 12 27  1  0
 13 28  1  0
 16 29  1  0
 18 30  1  0
 19 31  1  0
 21 32  1  0
M  END
>  <meeko>  (6) 
{"is_sidechain": [false], "free_energy": -5.737, "intermolecular_energy": -6.532, "internal_energy": -0.327}

$$$$
quercetin_maoa_out
     RDKit          3D

 32 34  0  0  0  0  0  0  0  0999 V2000
   42.7510   25.7080  -16.0460 O   0  0  0  0  0  0  0  0  0  0  0  0
   41.6830   26.1640  -15.6410 C   0  0  0  0  0  0  0  0  0  0  0  0
   40.5820   26.4520  -16.5880 C   0  0  0  0  0  0  0  0  0  0  0  0
   40.8220   26.1970  -17.9270 O   0  0  0  0  0  0  0  0  0  0  0  0
   39.4320   26.9540  -16.1030 C   0  0  0  0  0  0  0  0  0  0  0  0
   38.2710   27.2990  -16.9550 C   0  0  0  0  0  0  0  0  0  0  0  0
   37.9430   26.4760  -18.0490 C   0  0  0  0  0  0  0  0  0  0  0  0
   36.8680   26.7850  -18.8870 C   0  0  0  0  0  0  0  0  0  0  0  0
   36.1210   27.9240  -18.6330 C   0  0  0  0  0  0  0  0  0  0  0  0
   35.0700   28.2270  -19.4480 O   0  0  0  0  0  0  0  0  0  0  0  0
   36.4320   28.7530  -17.5590 C   0  0  0  0  0  0  0  0  0  0  0  0
   35.6520   29.8600  -17.3660 O   0  0  0  0  0  0  0  0  0  0  0  0
   37.5030   28.4530  -16.7230 C   0  0  0  0  0  0  0  0  0  0  0  0
   39.2140   27.2290  -14.7570 O   0  0  0  0  0  0  0  0  0  0  0  0
   40.2130   26.9650  -13.8550 C   0  0  0  0  0  0  0  0  0  0  0  0
   39.9480   27.2450  -12.5150 C   0  0  0  0  0  0  0  0  0  0  0  0
   40.9260   26.9980  -11.5560 C   0  0  0  0  0  0  0  0  0  0  0  0
   40.6270   27.2860  -10.2580 O   0  0  0  0  0  0  0  0  0  0  0  0
   42.1670   26.4770  -11.9130 C   0  0  0  0  0  0  0  0  0  0  0  0
   42.4250   26.1980  -13.2530 C   0  0  0  0  0  0  0  0  0  0  0  0
   43.6600   25.6870  -13.5490 O   0  0  0  0  0  0  0  0  0  0  0  0
   41.4490   26.4430  -14.2230 C   0  0  0  0  0  0  0  0  0  0  0  0
   40.1590   25.7950  -18.4530 H   0  0  0  0  0  0  0  0  0  0  0  0
   38.5424   25.5753  -18.2475 H   0  0  0  0  0  0  0  0  0  0  0  0
   36.6183   26.1327  -19.7368 H   0  0  0  0  0  0  0  0  0  0  0  0
   34.7450   27.5890  -20.0530 H   0  0  0  0  0  0  0  0  0  0  0  0
   35.5320   30.4760  -18.0630 H   0  0  0  0  0  0  0  0  0  0  0  0
   37.7483   29.1180  -15.8818 H   0  0  0  0  0  0  0  0  0  0  0  0
   38.9728   27.6582  -12.2179 H   0  0  0  0  0  0  0  0  0  0  0  0
   41.0450   26.8130   -9.5650 H   0  0  0  0  0  0  0  0  0  0  0  0
   42.9334   26.2883  -11.1469 H   0  0  0  0  0  0  0  0  0  0  0  0
   43.7430   24.8030  -13.8470 H   0  0  0  0  0  0  0  0  0  0  0  0
  1  2  2  0
  2  3  1  0
  3  4  1  0
  3  5  2  0
  5  6  1  0
  6  7  2  0
  7  8  1  0
  8  9  2  0
  9 10  1  0
  9 11  1  0
 11 12  1  0
 11 13  2  0
  5 14  1  0
 14 15  1  0
 15 16  2  0
 16 17  1  0
 17 18  1  0
 17 19  2  0
 19 20  1  0
 20 21  1  0
 20 22  2  0
 22  2  1  0
 13  6  1  0
 22 15  1  0
  4 23  1  0
  7 24  1  0
  8 25  1  0
 10 26  1  0
 12 27  1  0
 13 28  1  0
 16 29  1  0
 18 30  1  0
 19 31  1  0
 21 32  1  0
M  END
>  <meeko>  (7) 
{"is_sidechain": [false], "free_energy": -5.123, "intermolecular_energy": -6.217, "internal_energy": 0.098}

$$$$
