selegiline_out
     RDKit          3D

 32 32  0  0  0  0  0  0  0  0999 V2000
   45.3940   26.1460  -13.4460 C   0  0  0  0  0  0  0  0  0  0  0  0
   44.2770   26.4550  -13.1290 C   0  0  0  0  0  0  0  0  0  0  0  0
   42.9100   26.8360  -12.7330 C   0  0  0  0  0  0  0  0  0  0  0  0
   42.0040   26.8870  -13.8920 N   0  0  1  0  0  0  0  0  0  0  0  0
   42.0790   25.6510  -14.6750 C   0  0  0  0  0  0  0  0  0  0  0  0
   40.6220   27.2660  -13.4950 C   0  0  2  0  0  0  0  0  0  0  0  0
   40.3450   27.1490  -11.9870 C   0  0  0  0  0  0  0  0  0  0  0  0
   39.5810   26.4640  -14.3240 C   0  0  0  0  0  0  0  0  0  0  0  0
   38.7490   27.3230  -15.2520 C   0  0  0  0  0  0  0  0  0  0  0  0
   38.5580   26.9510  -16.5900 C   0  0  0  0  0  0  0  0  0  0  0  0
   37.7820   27.7410  -17.4390 C   0  0  0  0  0  0  0  0  0  0  0  0
   37.1910   28.9090  -16.9610 C   0  0  0  0  0  0  0  0  0  0  0  0
   37.3780   29.2890  -15.6340 C   0  0  0  0  0  0  0  0  0  0  0  0
   38.1530   28.5010  -14.7820 C   0  0  0  0  0  0  0  0  0  0  0  0
   46.4166   25.8631  -13.7362 H   0  0  0  0  0  0  0  0  0  0  0  0
   42.5278   26.0969  -12.0135 H   0  0  0  0  0  0  0  0  0  0  0  0
   42.9493   27.8389  -12.2829 H   0  0  0  0  0  0  0  0  0  0  0  0
   42.3170   27.6320  -14.5140 H   0  0  0  0  0  0  0  0  0  0  0  0
   42.1313   24.7884  -13.9944 H   0  0  0  0  0  0  0  0  0  0  0  0
   41.1845   25.5639  -15.3092 H   0  0  0  0  0  0  0  0  0  0  0  0
   42.9775   25.6727  -15.3092 H   0  0  0  0  0  0  0  0  0  0  0  0
   40.5218   28.3375  -13.7229 H   0  0  0  0  0  0  0  0  0  0  0  0
   41.2159   27.5168  -11.4246 H   0  0  0  0  0  0  0  0  0  0  0  0
   39.4610   27.7506  -11.7288 H   0  0  0  0  0  0  0  0  0  0  0  0
   40.1600   26.0959  -11.7288 H   0  0  0  0  0  0  0  0  0  0  0  0
   40.1186   25.7192  -14.9292 H   0  0  0  0  0  0  0  0  0  0  0  0
   38.8873   26.0009  -13.6068 H   0  0  0  0  0  0  0  0  0  0  0  0
   39.0228   26.0305  -16.9730 H   0  0  0  0  0  0  0  0  0  0  0  0
   37.6365   27.4413  -18.4873 H   0  0  0  0  0  0  0  0  0  0  0  0
   36.5778   29.5299  -17.6306 H   0  0  0  0  0  0  0  0  0  0  0  0
   36.9138   30.2122  -15.2568 H   0  0  0  0  0  0  0  0  0  0  0  0
   38.2969   28.8064  -13.7351 H   0  0  0  0  0  0  0  0  0  0  0  0
  1  2  3  0
  2  3  1  0
  3  4  1  0
  4  5  1  0
  4  6  1  0
  6  7  1  0
  6  8  1  0
  8  9  1  0
  9 10  2  0
 10 11  1  0
 11 12  2  0
 12 13  1  0
 13 14  2  0
 14  9  1  0
  1 15  1  0
  3 16  1  0
  3 17  1  0
  4 18  1  6
  5 19  1  0
  5 20  1  0
  5 21  1  0
  6 22  1  6
  7 23  1  0
  7 24  1  0
  7 25  1  0
  8 26  1  0
  8 27  1  0
 10 28  1  0
 11 29  1  0
 12 30  1  0
 13 31  1  0
 14 32  1  0
M  CHG  1   4   1
M  END
>  <meeko>  (1) 
{"is_sidechain": [false], "free_energy": -7.47, "intermolecular_energy": -9.216, "internal_energy": -0.347}

$$$$
selegiline_out
     RDKit          3D

 32 32  0  0  0  0  0  0  0  0999 V2000
   45.4300   26.2360  -13.4300 C   0  0  0  0  0  0  0  0  0  0  0  0
   44.3090   26.5400  -13.1230 C   0  0  0  0  0  0  0  0  0  0  0  0
   42.9370   26.9170  -12.7420 C   0  0  0  0  0  0  0  0  0  0  0  0
   42.0340   26.9300  -13.9050 N   0  0  1  0  0  0  0  0  0  0  0  0
   42.1270   25.6780  -14.6590 C   0  0  0  0  0  0  0  0  0  0  0  0
   40.6460   27.3010  -13.5210 C   0  0  2  0  0  0  0  0  0  0  0  0
   40.3690   27.2280  -12.0100 C   0  0  0  0  0  0  0  0  0  0  0  0
   39.6180   26.4580  -14.3240 C   0  0  0  0  0  0  0  0  0  0  0  0
   38.7580   27.2760  -15.2630 C   0  0  0  0  0  0  0  0  0  0  0  0
   38.1330   28.4500  -14.8180 C   0  0  0  0  0  0  0  0  0  0  0  0
   37.3480   29.2060  -15.6900 C   0  0  0  0  0  0  0  0  0  0  0  0
   37.1800   28.7970  -17.0120 C   0  0  0  0  0  0  0  0  0  0  0  0
   37.7940   27.6310  -17.4620 C   0  0  0  0  0  0  0  0  0  0  0  0
   38.5790   26.8730  -16.5930 C   0  0  0  0  0  0  0  0  0  0  0  0
   46.4564   25.9577  -13.7111 H   0  0  0  0  0  0  0  0  0  0  0  0
   42.5595   26.1924  -12.0054 H   0  0  0  0  0  0  0  0  0  0  0  0
   42.9650   27.9315  -12.3177 H   0  0  0  0  0  0  0  0  0  0  0  0
   42.3400   27.6650  -14.5420 H   0  0  0  0  0  0  0  0  0  0  0  0
   42.1898   24.8320  -13.9587 H   0  0  0  0  0  0  0  0  0  0  0  0
   41.2348   25.5642  -15.2923 H   0  0  0  0  0  0  0  0  0  0  0  0
   43.0262   25.6973  -15.2923 H   0  0  0  0  0  0  0  0  0  0  0  0
   40.5305   28.3630  -13.7832 H   0  0  0  0  0  0  0  0  0  0  0  0
   41.2883   27.4703  -11.4566 H   0  0  0  0  0  0  0  0  0  0  0  0
   39.5814   27.9493  -11.7463 H   0  0  0  0  0  0  0  0  0  0  0  0
   40.0392   26.2123  -11.7463 H   0  0  0  0  0  0  0  0  0  0  0  0
   40.1684   25.7134  -14.9178 H   0  0  0  0  0  0  0  0  0  0  0  0
   38.9411   25.9949  -13.5910 H   0  0  0  0  0  0  0  0  0  0  0  0
   38.2622   28.7769  -13.7757 H   0  0  0  0  0  0  0  0  0  0  0  0
   36.8613   30.1258  -15.3335 H   0  0  0  0  0  0  0  0  0  0  0  0
   36.5630   29.3947  -17.6990 H   0  0  0  0  0  0  0  0  0  0  0  0
   37.6598   27.3071  -18.5046 H   0  0  0  0  0  0  0  0  0  0  0  0
   39.0608   25.9525  -16.9544 H   0  0  0  0  0  0  0  0  0  0  0  0
  1  2  3  0
  2  3  1  0
  3  4  1  0
  4  5  1  0
  4  6  1  0
  6  7  1  0
  6  8  1  0
  8  9  1  0
  9 10  2  0
 10 11  1  0
 11 12  2  0
 12 13  1  0
 13 14  2  0
 14  9  1  0
  1 15  1  0
  3 16  1  0
  3 17  1  0
  4 18  1  6
  5 19  1  0
  5 20  1  0
  5 21  1  0
  6 22  1  6
  7 23  1  0
  7 24  1  0
  7 25  1  0
  8 26  1  0
  8 27  1  0
 10 28  1  0
 11 29  1  0
 12 30  1  0
 13 31  1  0
 14 32  1  0
M  CHG  1   4   1
M  END
>  <meeko>  (2) 
{"is_sidechain": [false], "free_energy": -7.456, "intermolecular_energy": -9.199, "internal_energy": -0.348}

$$$$
selegiline_out
     RDKit          3D

 32 32  0  0  0  0  0  0  0  0999 V2000
   45.3490   24.6930  -14.0120 C   0  0  0  0  0  0  0  0  0  0  0  0
   44.2610   25.1950  -14.0910 C   0  0  0  0  0  0  0  0  0  0  0  0
   42.9240   25.8050  -14.1910 C   0  0  0  0  0  0  0  0  0  0  0  0
   42.6700   26.7430  -13.0850 N   0  0  1  0  0  0  0  0  0  0  0  0
   43.6080   27.8690  -13.1220 C   0  0  0  0  0  0  0  0  0  0  0  0
   41.2420   27.1500  -13.0240 C   0  0  2  0  0  0  0  0  0  0  0  0
   40.6190   27.0560  -11.6220 C   0  0  0  0  0  0  0  0  0  0  0  0
   40.4080   26.3560  -14.0660 C   0  0  0  0  0  0  0  0  0  0  0  0
   39.3830   27.1970  -14.7970 C   0  0  0  0  0  0  0  0  0  0  0  0
   38.9150   26.8140  -16.0610 C   0  0  0  0  0  0  0  0  0  0  0  0
   37.9640   27.5890  -16.7270 C   0  0  0  0  0  0  0  0  0  0  0  0
   37.4730   28.7520  -16.1370 C   0  0  0  0  0  0  0  0  0  0  0  0
   37.9340   29.1430  -14.8820 C   0  0  0  0  0  0  0  0  0  0  0  0
   38.8850   28.3710  -14.2140 C   0  0  0  0  0  0  0  0  0  0  0  0
   46.3456   24.2332  -13.9396 H   0  0  0  0  0  0  0  0  0  0  0  0
   42.8507   26.3493  -15.1441 H   0  0  0  0  0  0  0  0  0  0  0  0
   42.1751   25.0010  -14.1380 H   0  0  0  0  0  0  0  0  0  0  0  0
   42.8480   26.2590  -12.2050 H   0  0  0  0  0  0  0  0  0  0  0  0
   43.8594   28.1707  -12.0945 H   0  0  0  0  0  0  0  0  0  0  0  0
   44.5243   27.5657  -13.6496 H   0  0  0  0  0  0  0  0  0  0  0  0
   43.1442   28.7154  -13.6496 H   0  0  0  0  0  0  0  0  0  0  0  0
   41.2186   28.2202  -13.2771 H   0  0  0  0  0  0  0  0  0  0  0  0
   41.4058   27.1747  -10.8624 H   0  0  0  0  0  0  0  0  0  0  0  0
   39.8687   27.8511  -11.5001 H   0  0  0  0  0  0  0  0  0  0  0  0
   40.1367   26.0749  -11.5001 H   0  0  0  0  0  0  0  0  0  0  0  0
   41.0976   25.9271  -14.8080 H   0  0  0  0  0  0  0  0  0  0  0  0
   39.8531   25.5847  -13.5117 H   0  0  0  0  0  0  0  0  0  0  0  0
   39.2994   25.8969  -16.5314 H   0  0  0  0  0  0  0  0  0  0  0  0
   37.6017   27.2812  -17.7190 H   0  0  0  0  0  0  0  0  0  0  0  0
   36.7220   29.3608  -16.6618 H   0  0  0  0  0  0  0  0  0  0  0  0
   37.5476   30.0619  -14.4169 H   0  0  0  0  0  0  0  0  0  0  0  0
   39.2464   28.6853  -13.2237 H   0  0  0  0  0  0  0  0  0  0  0  0
  1  2  3  0
  2  3  1  0
  3  4  1  0
  4  5  1  0
  4  6  1  0
  6  7  1  0
  6  8  1  0
  8  9  1  0
  9 10  2  0
 10 11  1  0
 11 12  2  0
 12 13  1  0
 13 14  2  0
 14  9  1  0
  1 15  1  0
  3 16  1  0
  3 17  1  0
  4 18  1  1
  5 19  1  0
  5 20  1  0
  5 21  1  0
  6 22  1  6
  7 23  1  0
  7 24  1  0
  7 25  1  0
  8 26  1  0
  8 27  1  0
 10 28  1  0
 11 29  1  0
 12 30  1  0
 13 31  1  0
 14 32  1  0
M  CHG  1   4   1
M  END
>  <meeko>  (3) 
{"is_sidechain": [false], "free_energy": -7.291, "intermolecular_energy": -9.084, "internal_energy": -0.26}

$$$$
selegiline_out
     RDKit          3D

 32 32  0  0  0  0  0  0  0  0999 V2000
   36.5300   29.3490  -17.1080 C   0  0  0  0  0  0  0  0  0  0  0  0
   37.2920   28.5080  -16.7130 C   0  0  0  0  0  0  0  0  0  0  0  0
   38.2260   27.4730  -16.2360 C   0  0  0  0  0  0  0  0  0  0  0  0
   39.1260   27.9930  -15.1930 N   0  0  1  0  0  0  0  0  0  0  0  0
   38.4120   28.8830  -14.2750 C   0  0  0  0  0  0  0  0  0  0  0  0
   39.8740   26.9020  -14.5160 C   0  0  2  0  0  0  0  0  0  0  0  0
   38.9810   25.8790  -13.7940 C   0  0  0  0  0  0  0  0  0  0  0  0
   40.9440   27.4920  -13.5570 C   0  0  0  0  0  0  0  0  0  0  0  0
   42.2850   26.7930  -13.6350 C   0  0  0  0  0  0  0  0  0  0  0  0
   43.3320   27.1590  -12.7770 C   0  0  0  0  0  0  0  0  0  0  0  0
   44.5630   26.5060  -12.8470 C   0  0  0  0  0  0  0  0  0  0  0  0
   44.7600   25.4830  -13.7730 C   0  0  0  0  0  0  0  0  0  0  0  0
   43.7270   25.1140  -14.6310 C   0  0  0  0  0  0  0  0  0  0  0  0
   42.4950   25.7650  -14.5640 C   0  0  0  0  0  0  0  0  0  0  0  0
   35.8325   30.1189  -17.4696 H   0  0  0  0  0  0  0  0  0  0  0  0
   37.6476   26.6338  -15.8223 H   0  0  0  0  0  0  0  0  0  0  0  0
   38.8401   27.1453  -17.0878 H   0  0  0  0  0  0  0  0  0  0  0  0
   39.8400   28.5680  -15.6420 H   0  0  0  0  0  0  0  0  0  0  0  0
   38.6400   28.5987  -13.2371 H   0  0  0  0  0  0  0  0  0  0  0  0
   38.7304   29.9214  -14.4492 H   0  0  0  0  0  0  0  0  0  0  0  0
   37.3293   28.7974  -14.4492 H   0  0  0  0  0  0  0  0  0  0  0  0
   40.3739   26.3342  -15.3146 H   0  0  0  0  0  0  0  0  0  0  0  0
   39.0883   26.0019  -12.7062 H   0  0  0  0  0  0  0  0  0  0  0  0
   37.9314   26.0423  -14.0797 H   0  0  0  0  0  0  0  0  0  0  0  0
   39.2846   24.8611  -14.0797 H   0  0  0  0  0  0  0  0  0  0  0  0
   41.0902   28.5524  -13.8104 H   0  0  0  0  0  0  0  0  0  0  0  0
   40.5685   27.3524  -12.5325 H   0  0  0  0  0  0  0  0  0  0  0  0
   43.1819   27.9657  -12.0444 H   0  0  0  0  0  0  0  0  0  0  0  0
   45.3793   26.7990  -12.1704 H   0  0  0  0  0  0  0  0  0  0  0  0
   45.7304   24.9677  -13.8260 H   0  0  0  0  0  0  0  0  0  0  0  0
   43.8828   24.3077  -15.3629 H   0  0  0  0  0  0  0  0  0  0  0  0
   41.6831   25.4695  -15.2448 H   0  0  0  0  0  0  0  0  0  0  0  0
  1  2  3  0
  2  3  1  0
  3  4  1  0
  4  5  1  0
  4  6  1  0
  6  7  1  0
  6  8  1  0
  8  9  1  0
  9 10  2  0
 10 11  1  0
 11 12  2  0
 12 13  1  0
 13 14  2  0
 14  9  1  0
  1 15  1  0
  3 16  1  0
  3 17  1  0
  4 18  1  6
  5 19  1  0
  5 20  1  0
  5 21  1  0
  6 22  1  6
  7 23  1  0
  7 24  1  0
  7 25  1  0
  8 26  1  0
  8 27  1  0
 10 28  1  0
 11 29  1  0
 12 30  1  0
 13 31  1  0
 14 32  1  0
M  CHG  1   4   1
M  END
>  <meeko>  (4) 
{"is_sidechain": [false], "free_energy": -7.237, "intermolecular_energy": -9.07, "internal_energy": -0.207}

$$$$
selegiline_out
     RDKit          3D

 32 32  0  0  0  0  0  0  0  0999 V2000
   36.7430   29.2990  -17.0240 C   0  0  0  0  0  0  0  0  0  0  0  0
   37.4470   28.4200  -16.6060 C   0  0  0  0  0  0  0  0  0  0  0  0
   38.3090   27.3380  -16.0990 C   0  0  0  0  0  0  0  0  0  0  0  0
   39.2910   27.8390  -15.1220 N   0  0  1  0  0  0  0  0  0  0  0  0
   38.6780   28.8000  -14.2020 C   0  0  0  0  0  0  0  0  0  0  0  0
   40.0080   26.7270  -14.4440 C   0  0  2  0  0  0  0  0  0  0  0  0
   39.0840   25.6960  -13.7750 C   0  0  0  0  0  0  0  0  0  0  0  0
   41.0480   27.2900  -13.4360 C   0  0  0  0  0  0  0  0  0  0  0  0
   42.4200   26.6620  -13.5610 C   0  0  0  0  0  0  0  0  0  0  0  0
   42.6540   25.6350  -14.4850 C   0  0  0  0  0  0  0  0  0  0  0  0
   43.9230   25.0650  -14.6020 C   0  0  0  0  0  0  0  0  0  0  0  0
   44.9690   25.5170  -13.8000 C   0  0  0  0  0  0  0  0  0  0  0  0
   44.7460   26.5360  -12.8760 C   0  0  0  0  0  0  0  0  0  0  0  0
   43.4780   27.1070  -12.7560 C   0  0  0  0  0  0  0  0  0  0  0  0
   36.0983   30.1039  -17.4068 H   0  0  0  0  0  0  0  0  0  0  0  0
   37.6792   26.5775  -15.6141 H   0  0  0  0  0  0  0  0  0  0  0  0
   38.8586   26.9090  -16.9498 H   0  0  0  0  0  0  0  0  0  0  0  0
   40.0130   28.3540  -15.6270 H   0  0  0  0  0  0  0  0  0  0  0  0
   38.8749   28.4914  -13.1647 H   0  0  0  0  0  0  0  0  0  0  0  0
   39.1066   29.7981  -14.3752 H   0  0  0  0  0  0  0  0  0  0  0  0
   37.5922   28.8321  -14.3752 H   0  0  0  0  0  0  0  0  0  0  0  0
   40.5307   26.1717  -15.2367 H   0  0  0  0  0  0  0  0  0  0  0  0
   39.1648   25.7862  -12.6817 H   0  0  0  0  0  0  0  0  0  0  0  0
   38.0442   25.8816  -14.0824 H   0  0  0  0  0  0  0  0  0  0  0  0
   39.3819   24.6827  -14.0824 H   0  0  0  0  0  0  0  0  0  0  0  0
   41.1450   28.3725  -13.6056 H   0  0  0  0  0  0  0  0  0  0  0  0
   40.6777   27.0542  -12.4274 H   0  0  0  0  0  0  0  0  0  0  0  0
   41.8326   25.2756  -15.1223 H   0  0  0  0  0  0  0  0  0  0  0  0
   44.0974   24.2577  -15.3285 H   0  0  0  0  0  0  0  0  0  0  0  0
   45.9695   25.0700  -13.8961 H   0  0  0  0  0  0  0  0  0  0  0  0
   45.5705   26.8909  -12.2402 H   0  0  0  0  0  0  0  0  0  0  0  0
   43.3078   27.9113  -12.0251 H   0  0  0  0  0  0  0  0  0  0  0  0
  1  2  3  0
  2  3  1  0
  3  4  1  0
  4  5  1  0
  4  6  1  0
  6  7  1  0
  6  8  1  0
  8  9  1  0
  9 10  2  0
 10 11  1  0
 11 12  2  0
 12 13  1  0
 13 14  2  0
 14  9  1  0
  1 15  1  0
  3 16  1  0
  3 17  1  0
  4 18  1  6
  5 19  1  0
  5 20  1  0
  5 21  1  0
  6 22  1  6
  7 23  1  0
  7 24  1  0
  7 25  1  0
  8 26  1  0
  8 27  1  0
 10 28  1  0
 11 29  1  0
 12 30  1  0
 13 31  1  0
 14 32  1  0
M  CHG  1   4   1
M  END
>  <meeko>  (5) 
{"is_sidechain": [false], "free_energy": -7.165, "intermolecular_energy": -8.951, "internal_energy": -0.236}

$$$$
selegiline_out
     RDKit          3D

 32 32  0  0  0  0  0  0  0  0999 V2000
   35.0640   29.5880  -18.2550 C   0  0  0  0  0  0  0  0  0  0  0  0
   36.0100   29.4620  -17.5250 C   0  0  0  0  0  0  0  0  0  0  0  0
   37.1680   29.3130  -16.6270 C   0  0  0  0  0  0  0  0  0  0  0  0
   37.5300   27.8990  -16.4370 N   0  0  1  0  0  0  0  0  0  0  0  0
   38.2330   27.3720  -17.6090 C   0  0  0  0  0  0  0  0  0  0  0  0
   38.2510   27.6820  -15.1540 C   0  0  2  0  0  0  0  0  0  0  0  0
   38.7090   28.9760  -14.4620 C   0  0  0  0  0  0  0  0  0  0  0  0
   39.4380   26.7010  -15.3590 C   0  0  0  0  0  0  0  0  0  0  0  0
   40.4630   26.7430  -14.2460 C   0  0  0  0  0  0  0  0  0  0  0  0
   41.8220   26.5370  -14.5190 C   0  0  0  0  0  0  0  0  0  0  0  0
   42.7650   26.5850  -13.4910 C   0  0  0  0  0  0  0  0  0  0  0  0
   42.3590   26.8390  -12.1820 C   0  0  0  0  0  0  0  0  0  0  0  0
   41.0100   27.0420  -11.9000 C   0  0  0  0  0  0  0  0  0  0  0  0
   40.0650   26.9940  -12.9260 C   0  0  0  0  0  0  0  0  0  0  0  0
   34.1979   29.7034  -18.9233 H   0  0  0  0  0  0  0  0  0  0  0  0
   38.0269   29.8458  -17.0611 H   0  0  0  0  0  0  0  0  0  0  0  0
   36.8986   29.7331  -15.6467 H   0  0  0  0  0  0  0  0  0  0  0  0
   36.6720   27.3550  -16.3560 H   0  0  0  0  0  0  0  0  0  0  0  0
   39.0729   26.7423  -17.2803 H   0  0  0  0  0  0  0  0  0  0  0  0
   37.5383   26.7703  -18.2134 H   0  0  0  0  0  0  0  0  0  0  0  0
   38.6157   28.2076  -18.2134 H   0  0  0  0  0  0  0  0  0  0  0  0
   37.5208   27.2315  -14.4656 H   0  0  0  0  0  0  0  0  0  0  0  0
   38.6625   28.8445  -13.3709 H   0  0  0  0  0  0  0  0  0  0  0  0
   39.7428   29.2050  -14.7600 H   0  0  0  0  0  0  0  0  0  0  0  0
   38.0495   29.8044  -14.7600 H   0  0  0  0  0  0  0  0  0  0  0  0
   39.0365   25.6789  -15.4226 H   0  0  0  0  0  0  0  0  0  0  0  0
   39.9529   27.0085  -16.2811 H   0  0  0  0  0  0  0  0  0  0  0  0
   42.1478   26.3361  -15.5503 H   0  0  0  0  0  0  0  0  0  0  0  0
   43.8297   26.4222  -13.7142 H   0  0  0  0  0  0  0  0  0  0  0  0
   43.1029   26.8791  -11.3727 H   0  0  0  0  0  0  0  0  0  0  0  0
   40.6890   27.2405  -10.8668 H   0  0  0  0  0  0  0  0  0  0  0  0
   39.0011   27.1542  -12.6970 H   0  0  0  0  0  0  0  0  0  0  0  0
  1  2  3  0
  2  3  1  0
  3  4  1  0
  4  5  1  0
  4  6  1  0
  6  7  1  0
  6  8  1  0
  8  9  1  0
  9 10  2  0
 10 11  1  0
 11 12  2  0
 12 13  1  0
 13 14  2  0
 14  9  1  0
  1 15  1  0
  3 16  1  0
  3 17  1  0
  4 18  1  1
  5 19  1  0
  5 20  1  0
  5 21  1  0
  6 22  1  1
  7 23  1  0
  7 24  1  0
  7 25  1  0
  8 26  1  0
  8 27  1  0
 10 28  1  0
 11 29  1  0
 12 30  1  0
 13 31  1  0
 14 32  1  0
M  CHG  1   4   1
M  END
>  <meeko>  (6) 
{"is_sidechain": [false], "free_energy": -7.091, "intermolecular_energy": -9.377, "internal_energy": 0.281}

$$$$
selegiline_out
     RDKit          3D

 32 32  0  0  0  0  0  0  0  0999 V2000
   36.8490   29.2250  -15.7310 C   0  0  0  0  0  0  0  0  0  0  0  0
   37.7700   28.9440  -15.0120 C   0  0  0  0  0  0  0  0  0  0  0  0
   38.8970   28.6060  -14.1260 C   0  0  0  0  0  0  0  0  0  0  0  0
   39.2020   27.1660  -14.1600 N   0  0  1  0  0  0  0  0  0  0  0  0
   39.4840   26.7180  -15.5260 C   0  0  0  0  0  0  0  0  0  0  0  0
   40.2560   26.8020  -13.1770 C   0  0  2  0  0  0  0  0  0  0  0  0
   39.8080   26.8960  -11.7090 C   0  0  0  0  0  0  0  0  0  0  0  0
   41.5420   27.6370  -13.4290 C   0  0  0  0  0  0  0  0  0  0  0  0
   42.7940   26.7990  -13.5730 C   0  0  0  0  0  0  0  0  0  0  0  0
   42.8040   25.6650  -14.3960 C   0  0  0  0  0  0  0  0  0  0  0  0
   43.9640   24.9000  -14.5320 C   0  0  0  0  0  0  0  0  0  0  0  0
   45.1230   25.2610  -13.8490 C   0  0  0  0  0  0  0  0  0  0  0  0
   45.1230   26.3860  -13.0260 C   0  0  0  0  0  0  0  0  0  0  0  0
   43.9650   27.1510  -12.8870 C   0  0  0  0  0  0  0  0  0  0  0  0
   36.0060   29.4822  -16.3891 H   0  0  0  0  0  0  0  0  0  0  0  0
   39.7861   29.1667  -14.4501 H   0  0  0  0  0  0  0  0  0  0  0  0
   38.6167   28.8735  -13.0965 H   0  0  0  0  0  0  0  0  0  0  0  0
   38.3710   26.6540  -13.8630 H   0  0  0  0  0  0  0  0  0  0  0  0
   40.0697   25.7875  -15.4931 H   0  0  0  0  0  0  0  0  0  0  0  0
   38.5369   26.5366  -16.0553 H   0  0  0  0  0  0  0  0  0  0  0  0
   40.0571   27.4935  -16.0553 H   0  0  0  0  0  0  0  0  0  0  0  0
   40.4743   25.7367  -13.3427 H   0  0  0  0  0  0  0  0  0  0  0  0
   40.6701   26.7151  -11.0502 H   0  0  0  0  0  0  0  0  0  0  0  0
   39.4011   27.8991  -11.5133 H   0  0  0  0  0  0  0  0  0  0  0  0
   39.0323   26.1411  -11.5133 H   0  0  0  0  0  0  0  0  0  0  0  0
   41.4039   28.2165  -14.3537 H   0  0  0  0  0  0  0  0  0  0  0  0
   41.6854   28.2797  -12.5478 H   0  0  0  0  0  0  0  0  0  0  0  0
   41.8919   25.3756  -14.9385 H   0  0  0  0  0  0  0  0  0  0  0  0
   43.9626   24.0108  -15.1795 H   0  0  0  0  0  0  0  0  0  0  0  0
   46.0371   24.6591  -13.9589 H   0  0  0  0  0  0  0  0  0  0  0  0
   46.0376   26.6709  -12.4853 H   0  0  0  0  0  0  0  0  0  0  0  0
   43.9705   28.0366  -12.2346 H   0  0  0  0  0  0  0  0  0  0  0  0
  1  2  3  0
  2  3  1  0
  3  4  1  0
  4  5  1  0
  4  6  1  0
  6  7  1  0
  6  8  1  0
  8  9  1  0
  9 10  2  0
 10 11  1  0
 11 12  2  0
 12 13  1  0
 13 14  2  0
 14  9  1  0
  1 15  1  0
  3 16  1  0
  3 17  1  0
  4 18  1  1
  5 19  1  0
  5 20  1  0
  5 21  1  0
  6 22  1  6
  7 23  1  0
  7 24  1  0
  7 25  1  0
  8 26  1  0
  8 27  1  0
 10 28  1  0
 11 29  1  0
 12 30  1  0
 13 31  1  0
 14 32  1  0
M  CHG  1   4   1
M  END
>  <meeko>  (7) 
{"is_sidechain": [false], "free_energy": -7.03, "intermolecular_energy": -8.602, "internal_energy": -0.419}

$$$$
selegiline_out
     RDKit          3D

 32 32  0  0  0  0  0  0  0  0999 V2000
   45.4440   24.7690  -13.7480 C   0  0  0  0  0  0  0  0  0  0  0  0
   44.6280   25.6420  -13.8660 C   0  0  0  0  0  0  0  0  0  0  0  0
   43.6310   26.7160  -14.0170 C   0  0  0  0  0  0  0  0  0  0  0  0
   42.3880   26.4090  -13.2890 N   0  0  1  0  0  0  0  0  0  0  0  0
   41.8920   27.5860  -12.5720 C   0  0  0  0  0  0  0  0  0  0  0  0
   41.3770   25.7710  -14.1720 C   0  0  2  0  0  0  0  0  0  0  0  0
   41.5270   26.1240  -15.6610 C   0  0  0  0  0  0  0  0  0  0  0  0
   39.9420   26.0760  -13.6610 C   0  0  0  0  0  0  0  0  0  0  0  0
   39.1490   26.9850  -14.5760 C   0  0  0  0  0  0  0  0  0  0  0  0
   38.7450   26.5460  -15.8450 C   0  0  0  0  0  0  0  0  0  0  0  0
   38.0080   27.3840  -16.6810 C   0  0  0  0  0  0  0  0  0  0  0  0
   37.6670   28.6680  -16.2600 C   0  0  0  0  0  0  0  0  0  0  0  0
   38.0660   29.1160  -15.0020 C   0  0  0  0  0  0  0  0  0  0  0  0
   38.8040   28.2800  -14.1640 C   0  0  0  0  0  0  0  0  0  0  0  0
   46.1915   23.9693  -13.6399 H   0  0  0  0  0  0  0  0  0  0  0  0
   44.0530   27.6525  -13.6235 H   0  0  0  0  0  0  0  0  0  0  0  0
   43.3887   26.8124  -15.0856 H   0  0  0  0  0  0  0  0  0  0  0  0
   42.5970   25.7120  -12.5750 H   0  0  0  0  0  0  0  0  0  0  0  0
   41.9650   27.4128  -11.4882 H   0  0  0  0  0  0  0  0  0  0  0  0
   42.4969   28.4633  -12.8447 H   0  0  0  0  0  0  0  0  0  0  0  0
   40.8416   27.7658  -12.8447 H   0  0  0  0  0  0  0  0  0  0  0  0
   41.5618   24.6881  -14.1146 H   0  0  0  0  0  0  0  0  0  0  0  0
   41.9555   27.1325  -15.7574 H   0  0  0  0  0  0  0  0  0  0  0  0
   42.1930   25.3948  -16.1454 H   0  0  0  0  0  0  0  0  0  0  0  0
   40.5398   26.0973  -16.1454 H   0  0  0  0  0  0  0  0  0  0  0  0
   39.3993   25.1243  -13.5619 H   0  0  0  0  0  0  0  0  0  0  0  0
   40.0484   26.6013  -12.7004 H   0  0  0  0  0  0  0  0  0  0  0  0
   39.0113   25.5337  -16.1832 H   0  0  0  0  0  0  0  0  0  0  0  0
   37.6952   27.0309  -17.6747 H   0  0  0  0  0  0  0  0  0  0  0  0
   37.0836   29.3271  -16.9198 H   0  0  0  0  0  0  0  0  0  0  0  0
   37.7987   30.1299  -14.6696 H   0  0  0  0  0  0  0  0  0  0  0  0
   39.1176   28.6393  -13.1728 H   0  0  0  0  0  0  0  0  0  0  0  0
  1  2  3  0
  2  3  1  0
  3  4  1  0
  4  5  1  0
  4  6  1  0
  6  7  1  0
  6  8  1  0
  8  9  1  0
  9 10  2  0
 10 11  1  0
 11 12  2  0
 12 13  1  0
 13 14  2  0
 14  9  1  0
  1 15  1  0
  3 16  1  0
  3 17  1  0
  4 18  1  1
  5 19  1  0
  5 20  1  0
  5 21  1  0
  6 22  1  6
  7 23  1  0
  7 24  1  0
  7 25  1  0
  8 26  1  0
  8 27  1  0
 10 28  1  0
 11 29  1  0
 12 30  1  0
 13 31  1  0
 14 32  1  0
M  CHG  1   4   1
M  END
>  <meeko>  (8) 
{"is_sidechain": [false], "free_energy": -6.075, "intermolecular_energy": -8.284, "internal_energy": 0.441}

$$$$
selegiline_out
     RDKit          3D

 32 32  0  0  0  0  0  0  0  0999 V2000
   38.2890   28.9200  -14.6370 C   0  0  0  0  0  0  0  0  0  0  0  0
   39.0710   28.0270  -14.4560 C   0  0  0  0  0  0  0  0  0  0  0  0
   40.0290   26.9290  -14.2400 C   0  0  0  0  0  0  0  0  0  0  0  0
   41.1470   27.3450  -13.3760 N   0  0  1  0  0  0  0  0  0  0  0  0
   40.9150   26.9490  -11.9850 C   0  0  0  0  0  0  0  0  0  0  0  0
   42.4570   26.8990  -13.9190 C   0  0  2  0  0  0  0  0  0  0  0  0
   42.3580   25.7720  -14.9600 C   0  0  0  0  0  0  0  0  0  0  0  0
   43.4200   26.5150  -12.7620 C   0  0  0  0  0  0  0  0  0  0  0  0
   44.7820   26.0500  -13.2310 C   0  0  0  0  0  0  0  0  0  0  0  0
   45.7590   26.9770  -13.6200 C   0  0  0  0  0  0  0  0  0  0  0  0
   47.0160   26.5430  -14.0430 C   0  0  0  0  0  0  0  0  0  0  0  0
   47.3090   25.1810  -14.0820 C   0  0  0  0  0  0  0  0  0  0  0  0
   46.3440   24.2520  -13.7000 C   0  0  0  0  0  0  0  0  0  0  0  0
   45.0860   24.6820  -13.2770 C   0  0  0  0  0  0  0  0  0  0  0  0
   37.5726   29.7381  -14.8028 H   0  0  0  0  0  0  0  0  0  0  0  0
   39.5050   26.0868  -13.7645 H   0  0  0  0  0  0  0  0  0  0  0  0
   40.4408   26.6354  -15.2169 H   0  0  0  0  0  0  0  0  0  0  0  0
   41.1910   28.3630  -13.3750 H   0  0  0  0  0  0  0  0  0  0  0  0
   41.3548   27.6996  -11.3118 H   0  0  0  0  0  0  0  0  0  0  0  0
   39.8331   26.8790  -11.7993 H   0  0  0  0  0  0  0  0  0  0  0  0
   41.3830   25.9710  -11.7993 H   0  0  0  0  0  0  0  0  0  0  0  0
   42.8691   27.7594  -14.4666 H   0  0  0  0  0  0  0  0  0  0  0  0
   42.2729   24.8037  -14.4451 H   0  0  0  0  0  0  0  0  0  0  0  0
   41.4704   25.9316  -15.5899 H   0  0  0  0  0  0  0  0  0  0  0  0
   43.2598   25.7744  -15.5899 H   0  0  0  0  0  0  0  0  0  0  0  0
   43.5570   27.3960  -12.1177 H   0  0  0  0  0  0  0  0  0  0  0  0
   42.9592   25.6710  -12.2278 H   0  0  0  0  0  0  0  0  0  0  0  0
   45.5334   28.0532  -13.5916 H   0  0  0  0  0  0  0  0  0  0  0  0
   47.7770   27.2772  -14.3462 H   0  0  0  0  0  0  0  0  0  0  0  0
   48.3008   24.8402  -14.4139 H   0  0  0  0  0  0  0  0  0  0  0  0
   46.5743   23.1769  -13.7319 H   0  0  0  0  0  0  0  0  0  0  0  0
   44.3279   23.9432  -12.9777 H   0  0  0  0  0  0  0  0  0  0  0  0
  1  2  3  0
  2  3  1  0
  3  4  1  0
  4  5  1  0
  4  6  1  0
  6  7  1  0
  6  8  1  0
  8  9  1  0
  9 10  2  0
 10 11  1  0
 11 12  2  0
 12 13  1  0
 13 14  2  0
 14  9  1  0
  1 15  1  0
  3 16  1  0
  3 17  1  0
  4 18  1  1
  5 19  1  0
  5 20  1  0
  5 21  1  0
  6 22  1  6
  7 23  1  0
  7 24  1  0
  7 25  1  0
  8 26  1  0
  8 27  1  0
 10 28  1  0
 11 29  1  0
 12 30  1  0
 13 31  1  0
 14 32  1  0
M  CHG  1   4   1
M  END
>  <meeko>  (9) 
{"is_sidechain": [false], "free_energy": -6.023, "intermolecular_energy": -7.496, "internal_energy": -0.283}

$$$$
