cand_016_out
     RDKit          3D

 35 37  0  0  0  0  0  0  0  0999 V2000
  179.6880   14.3550   45.0060 C   0  0  0  0  0  0  0  0  0  0  0  0
  180.2040   15.7410   44.7250 C   0  0  0  0  0  0  0  0  0  0  0  0
  179.7540   16.8090   45.5240 C   0  0  0  0  0  0  0  0  0  0  0  0
  180.2040   18.1210   45.3200 C   0  0  0  0  0  0  0  0  0  0  0  0
  179.7490   19.2410   46.1710 C   0  0  0  0  0  0  0  0  0  0  0  0
  178.3650   19.3410   46.2380 O   0  0  0  0  0  0  0  0  0  0  0  0
  177.8080   20.3390   46.9960 C   0  0  0  0  0  0  0  0  0  0  0  0
  176.4150   20.4130   47.0220 C   0  0  0  0  0  0  0  0  0  0  0  0
  175.7840   21.4060   47.7750 C   0  0  0  0  0  0  0  0  0  0  0  0
  176.5450   22.3230   48.5020 C   0  0  0  0  0  0  0  0  0  0  0  0
  177.9350   22.2470   48.4750 C   0  0  0  0  0  0  0  0  0  0  0  0
  178.6190   23.1750   49.2100 O   0  0  0  0  0  0  0  0  0  0  0  0
  178.5660   21.2540   47.7200 C   0  0  0  0  0  0  0  0  0  0  0  0
  180.0240   21.1390   47.6640 C   0  0  0  0  0  0  0  0  0  0  0  0
  180.7630   21.9040   48.2820 O   0  0  0  0  0  0  0  0  0  0  0  0
  180.5940   20.0570   46.8280 C   0  0  0  0  0  0  0  0  0  0  0  0
  181.9720   19.9490   46.7920 O   0  0  0  0  0  0  0  0  0  0  0  0
  181.1400   18.3520   44.3070 C   0  0  0  0  0  0  0  0  0  0  0  0
  181.6040   17.3030   43.5100 C   0  0  0  0  0  0  0  0  0  0  0  0
  181.1520   15.9880   43.7100 C   0  0  0  0  0  0  0  0  0  0  0  0
  181.6670   14.8830   42.8160 C   0  0  0  0  0  0  0  0  0  0  0  0
  180.9730   14.7620   41.6480 F   0  0  0  0  0  0  0  0  0  0  0  0
  182.9670   15.0550   42.4490 F   0  0  0  0  0  0  0  0  0  0  0  0
  179.6299   14.1988   46.0933 H   0  0  0  0  0  0  0  0  0  0  0  0
  178.6868   14.2401   44.5650 H   0  0  0  0  0  0  0  0  0  0  0  0
  180.3703   13.6133   44.5650 H   0  0  0  0  0  0  0  0  0  0  0  0
  179.0311   16.6091   46.3287 H   0  0  0  0  0  0  0  0  0  0  0  0
  175.8144   19.6903   46.4502 H   0  0  0  0  0  0  0  0  0  0  0  0
  174.6858   21.4654   47.7951 H   0  0  0  0  0  0  0  0  0  0  0  0
  176.0474   23.1043   49.0952 H   0  0  0  0  0  0  0  0  0  0  0  0
  178.7830   24.0270   48.8550 H   0  0  0  0  0  0  0  0  0  0  0  0
  182.4250   19.5000   47.4800 H   0  0  0  0  0  0  0  0  0  0  0  0
  181.5152   19.3718   44.1359 H   0  0  0  0  0  0  0  0  0  0  0  0
  182.3343   17.5096   42.7138 H   0  0  0  0  0  0  0  0  0  0  0  0
  181.5441   13.9856   43.4401 H   0  0  0  0  0  0  0  0  0  0  0  0
  1  2  1  0
  2  3  2  0
  3  4  1  0
  4  5  1  0
  5  6  1  0
  6  7  1  0
  7  8  2  0
  8  9  1  0
  9 10  2  0
 10 11  1  0
 11 12  1  0
 11 13  2  0
 13 14  1  0
 14 15  2  0
 14 16  1  0
 16 17  1  0
  4 18  2  0
 18 19  1  0
 19 20  2  0
 20 21  1  0
 21 22  1  0
 21 23  1  0
 20  2  1  0
 16  5  2  0
 13  7  1  0
  1 24  1  0
  1 25  1  0
  1 26  1  0
  3 27  1  0
  8 28  1  0
  9 29  1  0
 10 30  1  0
 12 31  1  0
 17 32  1  0
 18 33  1  0
 19 34  1  0
 21 35  1  0
M  END
>  <meeko>  (1) 
{"is_sidechain": [false], "free_energy": -8.744, "intermolecular_energy": -10.278, "internal_energy": -0.271}

$$$$
cand_016_out
     RDKit          3D

 35 37  0  0  0  0  0  0  0  0999 V2000
  181.4930   17.0990   41.1030 C   0  0  0  0  0  0  0  0  0  0  0  0
  181.0880   16.8420   42.5300 C   0  0  0  0  0  0  0  0  0  0  0  0
  180.8100   17.9390   43.3660 C   0  0  0  0  0  0  0  0  0  0  0  0
  180.4200   17.7650   44.7010 C   0  0  0  0  0  0  0  0  0  0  0  0
  180.1080   18.9150   45.5760 C   0  0  0  0  0  0  0  0  0  0  0  0
  178.8080   18.8840   46.0680 O   0  0  0  0  0  0  0  0  0  0  0  0
  178.3870   19.8940   46.8940 C   0  0  0  0  0  0  0  0  0  0  0  0
  177.0700   19.8310   47.3520 C   0  0  0  0  0  0  0  0  0  0  0  0
  176.5780   20.8280   48.1980 C   0  0  0  0  0  0  0  0  0  0  0  0
  177.4020   21.8860   48.5860 C   0  0  0  0  0  0  0  0  0  0  0  0
  178.7160   21.9460   48.1280 C   0  0  0  0  0  0  0  0  0  0  0  0
  179.4680   23.0080   48.5480 O   0  0  0  0  0  0  0  0  0  0  0  0
  179.2080   20.9490   47.2810 C   0  0  0  0  0  0  0  0  0  0  0  0
  180.5820   20.9750   46.7770 C   0  0  0  0  0  0  0  0  0  0  0  0
  181.3700   21.8680   47.0800 O   0  0  0  0  0  0  0  0  0  0  0  0
  181.0020   19.8750   45.8780 C   0  0  0  0  0  0  0  0  0  0  0  0
  182.3050   19.9010   45.4190 O   0  0  0  0  0  0  0  0  0  0  0  0
  180.2860   16.4620   45.1910 C   0  0  0  0  0  0  0  0  0  0  0  0
  180.5490   15.3610   44.3710 C   0  0  0  0  0  0  0  0  0  0  0  0
  180.9440   15.5330   43.0350 C   0  0  0  0  0  0  0  0  0  0  0  0
  181.2340   14.3150   42.1860 C   0  0  0  0  0  0  0  0  0  0  0  0
  180.5600   14.3080   40.9990 F   0  0  0  0  0  0  0  0  0  0  0  0
  182.5490   14.1930   41.8560 F   0  0  0  0  0  0  0  0  0  0  0  0
  182.4217   17.6883   41.0859 H   0  0  0  0  0  0  0  0  0  0  0  0
  181.6578   16.1399   40.5902 H   0  0  0  0  0  0  0  0  0  0  0  0
  180.6954   17.6566   40.5902 H   0  0  0  0  0  0  0  0  0  0  0  0
  180.9009   18.9581   42.9620 H   0  0  0  0  0  0  0  0  0  0  0  0
  176.4203   18.9974   47.0472 H   0  0  0  0  0  0  0  0  0  0  0  0
  175.5400   20.7793   48.5589 H   0  0  0  0  0  0  0  0  0  0  0  0
  177.0142   22.6708   49.2522 H   0  0  0  0  0  0  0  0  0  0  0  0
  179.1710   23.5410   49.2600 H   0  0  0  0  0  0  0  0  0  0  0  0
  183.0170   19.7930   46.0200 H   0  0  0  0  0  0  0  0  0  0  0  0
  179.9704   16.3019   46.2325 H   0  0  0  0  0  0  0  0  0  0  0  0
  180.4449   14.3446   44.7787 H   0  0  0  0  0  0  0  0  0  0  0  0
  180.9063   13.4852   42.8294 H   0  0  0  0  0  0  0  0  0  0  0  0
  1  2  1  0
  2  3  2  0
  3  4  1  0
  4  5  1  0
  5  6  1  0
  6  7  1  0
  7  8  2  0
  8  9  1  0
  9 10  2  0
 10 11  1  0
 11 12  1  0
 11 13  2  0
 13 14  1  0
 14 15  2  0
 14 16  1  0
 16 17  1  0
  4 18  2  0
 18 19  1  0
 19 20  2  0
 20 21  1  0
 21 22  1  0
 21 23  1  0
 20  2  1  0
 16  5  2  0
 13  7  1  0
  1 24  1  0
  1 25  1  0
  1 26  1  0
  3 27  1  0
  8 28  1  0
  9 29  1  0
 10 30  1  0
 12 31  1  0
 17 32  1  0
 18 33  1  0
 19 34  1  0
 21 35  1  0
M  END
>  <meeko>  (2) 
{"is_sidechain": [false], "free_energy": -7.623, "intermolecular_energy": -9.044, "internal_energy": -0.187}

$$$$
cand_016_out
     RDKit          3D

 35 37  0  0  0  0  0  0  0  0999 V2000
  175.2760   20.8560   46.9630 C   0  0  0  0  0  0  0  0  0  0  0  0
  176.7540   20.7260   47.2190 C   0  0  0  0  0  0  0  0  0  0  0  0
  177.4980   19.8090   46.4540 C   0  0  0  0  0  0  0  0  0  0  0  0
  178.8790   19.6490   46.6380 C   0  0  0  0  0  0  0  0  0  0  0  0
  179.6680   18.7020   45.8220 C   0  0  0  0  0  0  0  0  0  0  0  0
  179.1390   17.4160   45.8240 O   0  0  0  0  0  0  0  0  0  0  0  0
  179.7740   16.4370   45.1040 C   0  0  0  0  0  0  0  0  0  0  0  0
  179.2190   15.1580   45.1460 C   0  0  0  0  0  0  0  0  0  0  0  0
  179.8160   14.1140   44.4350 C   0  0  0  0  0  0  0  0  0  0  0  0
  180.9670   14.3510   43.6820 C   0  0  0  0  0  0  0  0  0  0  0  0
  181.5200   15.6280   43.6410 C   0  0  0  0  0  0  0  0  0  0  0  0
  182.6470   15.7890   42.8830 O   0  0  0  0  0  0  0  0  0  0  0  0
  180.9220   16.6710   44.3530 C   0  0  0  0  0  0  0  0  0  0  0  0
  181.4710   18.0280   44.3370 C   0  0  0  0  0  0  0  0  0  0  0  0
  182.4770   18.3170   43.6920 O   0  0  0  0  0  0  0  0  0  0  0  0
  180.7670   19.0610   45.1330 C   0  0  0  0  0  0  0  0  0  0  0  0
  181.2850   20.3410   45.1010 O   0  0  0  0  0  0  0  0  0  0  0  0
  179.5190   20.4430   47.5950 C   0  0  0  0  0  0  0  0  0  0  0  0
  178.7960   21.3650   48.3570 C   0  0  0  0  0  0  0  0  0  0  0  0
  177.4120   21.5240   48.1770 C   0  0  0  0  0  0  0  0  0  0  0  0
  176.6650   22.5220   49.0330 C   0  0  0  0  0  0  0  0  0  0  0  0
  176.2580   23.6290   48.3460 F   0  0  0  0  0  0  0  0  0  0  0  0
  175.5350   22.0070   49.5920 F   0  0  0  0  0  0  0  0  0  0  0  0
  174.7404   20.9031   47.9226 H   0  0  0  0  0  0  0  0  0  0  0  0
  175.0826   21.7746   46.3897 H   0  0  0  0  0  0  0  0  0  0  0  0
  174.9252   19.9852   46.3897 H   0  0  0  0  0  0  0  0  0  0  0  0
  176.9841   19.2030   45.6933 H   0  0  0  0  0  0  0  0  0  0  0  0
  178.3114   14.9714   45.7388 H   0  0  0  0  0  0  0  0  0  0  0  0
  179.3789   13.1051   44.4687 H   0  0  0  0  0  0  0  0  0  0  0  0
  181.4368   13.5295   43.1214 H   0  0  0  0  0  0  0  0  0  0  0  0
  182.6700   15.4680   42.0020 H   0  0  0  0  0  0  0  0  0  0  0  0
  182.1450   20.5080   45.4370 H   0  0  0  0  0  0  0  0  0  0  0  0
  180.6033   20.3408   47.7497 H   0  0  0  0  0  0  0  0  0  0  0  0
  179.3184   21.9750   49.1086 H   0  0  0  0  0  0  0  0  0  0  0  0
  177.4052   22.7872   49.8023 H   0  0  0  0  0  0  0  0  0  0  0  0
  1  2  1  0
  2  3  2  0
  3  4  1  0
  4  5  1  0
  5  6  1  0
  6  7  1  0
  7  8  2  0
  8  9  1  0
  9 10  2  0
 10 11  1  0
 11 12  1  0
 11 13  2  0
 13 14  1  0
 14 15  2  0
 14 16  1  0
 16 17  1  0
  4 18  2  0
 18 19  1  0
 19 20  2  0
 20 21  1  0
 21 22  1  0
 21 23  1  0
 20  2  1  0
 16  5  2  0
 13  7  1  0
  1 24  1  0
  1 25  1  0
  1 26  1  0
  3 27  1  0
  8 28  1  0
  9 29  1  0
 10 30  1  0
 12 31  1  0
 17 32  1  0
 18 33  1  0
 19 34  1  0
 21 35  1  0
M  END
>  <meeko>  (3) 
{"is_sidechain": [false], "free_energy": -7.309, "intermolecular_energy": -8.828, "internal_energy": -0.035}

$$$$
cand_016_out
     RDKit          3D

 35 37  0  0  0  0  0  0  0  0999 V2000
  179.6520   14.8190   45.1810 C   0  0  0  0  0  0  0  0  0  0  0  0
  179.8910   16.2980   45.0390 C   0  0  0  0  0  0  0  0  0  0  0  0
  179.0530   17.1920   45.7310 C   0  0  0  0  0  0  0  0  0  0  0  0
  179.2290   18.5800   45.6460 C   0  0  0  0  0  0  0  0  0  0  0  0
  178.3640   19.5210   46.3890 C   0  0  0  0  0  0  0  0  0  0  0  0
  179.0300   20.6770   46.7780 O   0  0  0  0  0  0  0  0  0  0  0  0
  178.3410   21.6350   47.4760 C   0  0  0  0  0  0  0  0  0  0  0  0
  179.0530   22.7720   47.8610 C   0  0  0  0  0  0  0  0  0  0  0  0
  178.4110   23.7880   48.5740 C   0  0  0  0  0  0  0  0  0  0  0  0
  177.0600   23.6670   48.9010 C   0  0  0  0  0  0  0  0  0  0  0  0
  176.3510   22.5320   48.5150 C   0  0  0  0  0  0  0  0  0  0  0  0
  175.0310   22.4780   48.8670 O   0  0  0  0  0  0  0  0  0  0  0  0
  176.9940   21.5150   47.8030 C   0  0  0  0  0  0  0  0  0  0  0  0
  176.2870   20.3060   47.3790 C   0  0  0  0  0  0  0  0  0  0  0  0
  175.0950   20.1290   47.6220 O   0  0  0  0  0  0  0  0  0  0  0  0
  177.0610   19.2840   46.6360 C   0  0  0  0  0  0  0  0  0  0  0  0
  176.3810   18.1520   46.2290 O   0  0  0  0  0  0  0  0  0  0  0  0
  180.2830   19.0700   44.8680 C   0  0  0  0  0  0  0  0  0  0  0  0
  181.1300   18.1970   44.1820 C   0  0  0  0  0  0  0  0  0  0  0  0
  180.9530   16.8050   44.2610 C   0  0  0  0  0  0  0  0  0  0  0  0
  181.8820   15.8950   43.4910 C   0  0  0  0  0  0  0  0  0  0  0  0
  182.2690   14.7920   44.1950 F   0  0  0  0  0  0  0  0  0  0  0  0
  181.3300   15.4160   42.3420 F   0  0  0  0  0  0  0  0  0  0  0  0
  179.6094   14.5553   46.2481 H   0  0  0  0  0  0  0  0  0  0  0  0
  178.6993   14.5536   44.6994 H   0  0  0  0  0  0  0  0  0  0  0  0
  180.4726   14.2671   44.6994 H   0  0  0  0  0  0  0  0  0  0  0  0
  178.2397   16.7916   46.3541 H   0  0  0  0  0  0  0  0  0  0  0  0
  180.1181   22.8682   47.6035 H   0  0  0  0  0  0  0  0  0  0  0  0
  178.9715   24.6844   48.8779 H   0  0  0  0  0  0  0  0  0  0  0  0
  176.5555   24.4669   49.4629 H   0  0  0  0  0  0  0  0  0  0  0  0
  174.5520   23.2710   49.0140 H   0  0  0  0  0  0  0  0  0  0  0  0
  176.3480   17.9280   45.3190 H   0  0  0  0  0  0  0  0  0  0  0  0
  180.4466   20.1554   44.7957 H   0  0  0  0  0  0  0  0  0  0  0  0
  181.9482   18.6051   43.5705 H   0  0  0  0  0  0  0  0  0  0  0  0
  182.7423   16.5468   43.2788 H   0  0  0  0  0  0  0  0  0  0  0  0
  1  2  1  0
  2  3  2  0
  3  4  1  0
  4  5  1  0
  5  6  1  0
  6  7  1  0
  7  8  2  0
  8  9  1  0
  9 10  2  0
 10 11  1  0
 11 12  1  0
 11 13  2  0
 13 14  1  0
 14 15  2  0
 14 16  1  0
 16 17  1  0
  4 18  2  0
 18 19  1  0
 19 20  2  0
 20 21  1  0
 21 22  1  0
 21 23  1  0
 20  2  1  0
 16  5  2  0
 13  7  1  0
  1 24  1  0
  1 25  1  0
  1 26  1  0
  3 27  1  0
  8 28  1  0
  9 29  1  0
 10 30  1  0
 12 31  1  0
 17 32  1  0
 18 33  1  0
 19 34  1  0
 21 35  1  0
M  END
>  <meeko>  (4) 
{"is_sidechain": [false], "free_energy": -6.728, "intermolecular_energy": -8.388, "internal_energy": 0.209}

$$$$
