cand_054_out
     RDKit          3D

 46 48  0  0  0  0  0  0  0  0999 V2000
  176.2020   20.3110   50.4900 C   0  0  0  0  0  0  0  0  0  0  0  0
  175.8490   19.7860   49.1050 C   0  0  0  0  0  0  0  0  0  0  0  0
  176.0320   20.8240   48.0700 N   0  0  0  0  0  0  0  0  0  0  0  0
  175.1380   20.6960   46.9010 C   0  0  0  0  0  0  0  0  0  0  0  0
  174.7250   19.2420   46.7140 C   0  0  0  0  0  0  0  0  0  0  0  0
  177.3790   20.9620   47.6410 C   0  0  0  0  0  0  0  0  0  0  0  0
  178.0300   19.9610   46.8950 C   0  0  0  0  0  0  0  0  0  0  0  0
  179.3530   20.1130   46.4570 C   0  0  0  0  0  0  0  0  0  0  0  0
  180.0450   19.0500   45.6950 C   0  0  0  0  0  0  0  0  0  0  0  0
  179.3940   17.8240   45.7680 O   0  0  0  0  0  0  0  0  0  0  0  0
  179.9290   16.7490   45.1060 C   0  0  0  0  0  0  0  0  0  0  0  0
  179.2350   15.5420   45.1950 C   0  0  0  0  0  0  0  0  0  0  0  0
  179.7260   14.4070   44.5440 C   0  0  0  0  0  0  0  0  0  0  0  0
  180.9110   14.4810   43.8070 C   0  0  0  0  0  0  0  0  0  0  0  0
  181.6000   15.6870   43.7210 C   0  0  0  0  0  0  0  0  0  0  0  0
  182.7530   15.6880   42.9830 O   0  0  0  0  0  0  0  0  0  0  0  0
  181.1080   16.8220   44.3710 C   0  0  0  0  0  0  0  0  0  0  0  0
  181.8020   18.1080   44.3060 C   0  0  0  0  0  0  0  0  0  0  0  0
  182.8530   18.2510   43.6830 O   0  0  0  0  0  0  0  0  0  0  0  0
  181.1930   19.2520   45.0230 C   0  0  0  0  0  0  0  0  0  0  0  0
  181.8650   20.4600   44.9650 O   0  0  0  0  0  0  0  0  0  0  0  0
  180.0370   21.2880   46.7880 C   0  0  0  0  0  0  0  0  0  0  0  0
  179.4050   22.2970   47.5190 C   0  0  0  0  0  0  0  0  0  0  0  0
  178.0780   22.1490   47.9440 C   0  0  0  0  0  0  0  0  0  0  0  0
  177.4200   23.2550   48.7230 C   0  0  0  0  0  0  0  0  0  0  0  0
  175.7606   19.6546   51.2544 H   0  0  0  0  0  0  0  0  0  0  0  0
  177.2955   20.3277   50.6081 H   0  0  0  0  0  0  0  0  0  0  0  0
  175.8048   21.3300   50.6081 H   0  0  0  0  0  0  0  0  0  0  0  0
  176.4984   18.9295   48.8711 H   0  0  0  0  0  0  0  0  0  0  0  0
  174.7909   19.4853   49.1091 H   0  0  0  0  0  0  0  0  0  0  0  0
  174.2403   21.3115   47.0605 H   0  0  0  0  0  0  0  0  0  0  0  0
  175.6711   21.0372   46.0013 H   0  0  0  0  0  0  0  0  0  0  0  0
  174.5908   18.7695   47.6982 H   0  0  0  0  0  0  0  0  0  0  0  0
  173.7790   19.1986   46.1544 H   0  0  0  0  0  0  0  0  0  0  0  0
  175.5069   18.7078   46.1544 H   0  0  0  0  0  0  0  0  0  0  0  0
  177.4869   19.0364   46.6497 H   0  0  0  0  0  0  0  0  0  0  0  0
  178.3031   15.4838   45.7765 H   0  0  0  0  0  0  0  0  0  0  0  0
  179.1794   13.4548   44.6118 H   0  0  0  0  0  0  0  0  0  0  0  0
  181.2985   13.5875   43.2957 H   0  0  0  0  0  0  0  0  0  0  0  0
  183.5130   15.2400   43.3000 H   0  0  0  0  0  0  0  0  0  0  0  0
  181.4600   21.2380   45.2940 H   0  0  0  0  0  0  0  0  0  0  0  0
  181.0818   21.4184   46.4697 H   0  0  0  0  0  0  0  0  0  0  0  0
  179.9551   23.2176   47.7636 H   0  0  0  0  0  0  0  0  0  0  0  0
  177.5342   23.0630   49.8001 H   0  0  0  0  0  0  0  0  0  0  0  0
  177.8942   24.2146   48.4693 H   0  0  0  0  0  0  0  0  0  0  0  0
  176.3505   23.2961   48.4693 H   0  0  0  0  0  0  0  0  0  0  0  0
  1  2  1  0
  2  3  1  0
  3  4  1  0
  4  5  1  0
  3  6  1  0
  6  7  2  0
  7  8  1  0
  8  9  1  0
  9 10  1  0
 10 11  1  0
 11 12  2  0
 12 13  1  0
 13 14  2  0
 14 15  1  0
 15 16  1  0
 15 17  2  0
 17 18  1  0
 18 19  2  0
 18 20  1  0
 20 21  1  0
  8 22  2  0
 22 23  1  0
 23 24  2  0
 24 25  1  0
 24  6  1  0
 20  9  2  0
 17 11  1  0
  1 26  1  0
  1 27  1  0
  1 28  1  0
  2 29  1  0
  2 30  1  0
  4 31  1  0
  4 32  1  0
  5 33  1  0
  5 34  1  0
  5 35  1  0
  7 36  1  0
 12 37  1  0
 13 38  1  0
 14 39  1  0
 16 40  1  0
 21 41  1  0
 22 42  1  0
 23 43  1  0
 25 44  1  0
 25 45  1  0
 25 46  1  0
M  END
>  <meeko>  (1) 
{"is_sidechain": [false], "free_energy": -6.821, "intermolecular_energy": -8.814, "internal_energy": -0.129}

$$$$
cand_054_out
     RDKit          3D

 46 48  0  0  0  0  0  0  0  0999 V2000
  181.5870   15.3130   42.2170 C   0  0  0  0  0  0  0  0  0  0  0  0
  180.6390   16.3420   42.8180 C   0  0  0  0  0  0  0  0  0  0  0  0
  180.8030   16.4390   44.2820 N   0  0  0  0  0  0  0  0  0  0  0  0
  179.9110   15.5590   45.0630 C   0  0  0  0  0  0  0  0  0  0  0  0
  180.4550   14.1370   45.0740 C   0  0  0  0  0  0  0  0  0  0  0  0
  180.7270   17.7700   44.7720 C   0  0  0  0  0  0  0  0  0  0  0  0
  179.5900   18.2490   45.4520 C   0  0  0  0  0  0  0  0  0  0  0  0
  179.5290   19.5590   45.9510 C   0  0  0  0  0  0  0  0  0  0  0  0
  178.3260   20.0700   46.6420 C   0  0  0  0  0  0  0  0  0  0  0  0
  178.5170   21.3310   47.1960 O   0  0  0  0  0  0  0  0  0  0  0  0
  177.4800   21.9260   47.8670 C   0  0  0  0  0  0  0  0  0  0  0  0
  177.7120   23.1960   48.3940 C   0  0  0  0  0  0  0  0  0  0  0  0
  176.6970   23.8570   49.0900 C   0  0  0  0  0  0  0  0  0  0  0  0
  175.4520   23.2460   49.2610 C   0  0  0  0  0  0  0  0  0  0  0  0
  175.2250   21.9770   48.7340 C   0  0  0  0  0  0  0  0  0  0  0  0
  173.9840   21.4380   48.9380 O   0  0  0  0  0  0  0  0  0  0  0  0
  176.2400   21.3170   48.0360 C   0  0  0  0  0  0  0  0  0  0  0  0
  176.0420   19.9840   47.4670 C   0  0  0  0  0  0  0  0  0  0  0  0
  174.9770   19.3780   47.5800 O   0  0  0  0  0  0  0  0  0  0  0  0
  177.1780   19.3750   46.7390 C   0  0  0  0  0  0  0  0  0  0  0  0
  176.9830   18.1090   46.2160 O   0  0  0  0  0  0  0  0  0  0  0  0
  180.6270   20.4030   45.7500 C   0  0  0  0  0  0  0  0  0  0  0  0
  181.7680   19.9420   45.0880 C   0  0  0  0  0  0  0  0  0  0  0  0
  181.8310   18.6300   44.6020 C   0  0  0  0  0  0  0  0  0  0  0  0
  183.0750   18.1570   43.8990 C   0  0  0  0  0  0  0  0  0  0  0  0
  182.0926   14.7642   43.0252 H   0  0  0  0  0  0  0  0  0  0  0  0
  181.0161   14.6072   41.5958 H   0  0  0  0  0  0  0  0  0  0  0  0
  182.3372   15.8243   41.5958 H   0  0  0  0  0  0  0  0  0  0  0  0
  180.8469   17.3245   42.3692 H   0  0  0  0  0  0  0  0  0  0  0  0
  179.6070   16.0253   42.6066 H   0  0  0  0  0  0  0  0  0  0  0  0
  179.8462   15.9315   46.0960 H   0  0  0  0  0  0  0  0  0  0  0  0
  178.9126   15.5583   44.6013 H   0  0  0  0  0  0  0  0  0  0  0  0
  180.5833   13.8016   46.1137 H   0  0  0  0  0  0  0  0  0  0  0  0
  179.7485   13.4701   44.5581 H   0  0  0  0  0  0  0  0  0  0  0  0
  181.4262   14.1120   44.5581 H   0  0  0  0  0  0  0  0  0  0  0  0
  178.7289   17.5797   45.5953 H   0  0  0  0  0  0  0  0  0  0  0  0
  178.6926   23.6766   48.2619 H   0  0  0  0  0  0  0  0  0  0  0  0
  176.8781   24.8599   49.5040 H   0  0  0  0  0  0  0  0  0  0  0  0
  174.6533   23.7659   49.8104 H   0  0  0  0  0  0  0  0  0  0  0  0
  173.8690   20.5070   48.9230 H   0  0  0  0  0  0  0  0  0  0  0  0
  177.6890   17.6640   45.7900 H   0  0  0  0  0  0  0  0  0  0  0  0
  180.5915   21.4395   46.1167 H   0  0  0  0  0  0  0  0  0  0  0  0
  182.6255   20.6165   44.9472 H   0  0  0  0  0  0  0  0  0  0  0  0
  183.8308   17.8696   44.6448 H   0  0  0  0  0  0  0  0  0  0  0  0
  182.8325   17.2883   43.2692 H   0  0  0  0  0  0  0  0  0  0  0  0
  183.4709   18.9674   43.2692 H   0  0  0  0  0  0  0  0  0  0  0  0
  1  2  1  0
  2  3  1  0
  3  4  1  0
  4  5  1  0
  3  6  1  0
  6  7  2  0
  7  8  1  0
  8  9  1  0
  9 10  1  0
 10 11  1  0
 11 12  2  0
 12 13  1  0
 13 14  2  0
 14 15  1  0
 15 16  1  0
 15 17  2  0
 17 18  1  0
 18 19  2  0
 18 20  1  0
 20 21  1  0
  8 22  2  0
 22 23  1  0
 23 24  2  0
 24 25  1  0
 24  6  1  0
 20  9  2  0
 17 11  1  0
  1 26  1  0
  1 27  1  0
  1 28  1  0
  2 29  1  0
  2 30  1  0
  4 31  1  0
  4 32  1  0
  5 33  1  0
  5 34  1  0
  5 35  1  0
  7 36  1  0
 12 37  1  0
 13 38  1  0
 14 39  1  0
 16 40  1  0
 21 41  1  0
 22 42  1  0
 23 43  1  0
 25 44  1  0
 25 45  1  0
 25 46  1  0
M  END
>  <meeko>  (2) 
{"is_sidechain": [false], "free_energy": -5.86, "intermolecular_energy": -8.059, "internal_energy": 0.357}

$$$$
cand_054_out
     RDKit          3D

 46 48  0  0  0  0  0  0  0  0999 V2000
  186.4290   22.6140   40.9060 C   0  0  0  0  0  0  0  0  0  0  0  0
  185.7100   23.1090   42.1540 C   0  0  0  0  0  0  0  0  0  0  0  0
  186.2610   22.4900   43.3770 N   0  0  0  0  0  0  0  0  0  0  0  0
  186.6040   21.0600   43.2440 C   0  0  0  0  0  0  0  0  0  0  0  0
  187.9300   20.7720   43.9350 C   0  0  0  0  0  0  0  0  0  0  0  0
  185.4510   22.6930   44.5260 C   0  0  0  0  0  0  0  0  0  0  0  0
  184.2220   22.0260   44.6980 C   0  0  0  0  0  0  0  0  0  0  0  0
  183.4370   22.2160   45.8450 C   0  0  0  0  0  0  0  0  0  0  0  0
  182.1350   21.5360   46.0150 C   0  0  0  0  0  0  0  0  0  0  0  0
  181.2350   22.2760   46.7740 O   0  0  0  0  0  0  0  0  0  0  0  0
  179.9860   21.7630   47.0090 C   0  0  0  0  0  0  0  0  0  0  0  0
  179.1110   22.5450   47.7640 C   0  0  0  0  0  0  0  0  0  0  0  0
  177.8230   22.0800   48.0410 C   0  0  0  0  0  0  0  0  0  0  0  0
  177.4130   20.8320   47.5660 C   0  0  0  0  0  0  0  0  0  0  0  0
  178.2880   20.0540   46.8140 C   0  0  0  0  0  0  0  0  0  0  0  0
  177.8210   18.8430   46.3810 O   0  0  0  0  0  0  0  0  0  0  0  0
  179.5760   20.5200   46.5360 C   0  0  0  0  0  0  0  0  0  0  0  0
  180.5270   19.7340   45.7490 C   0  0  0  0  0  0  0  0  0  0  0  0
  180.2420   18.6240   45.3020 O   0  0  0  0  0  0  0  0  0  0  0  0
  181.8640   20.3210   45.5040 C   0  0  0  0  0  0  0  0  0  0  0  0
  182.7590   19.5630   44.7700 O   0  0  0  0  0  0  0  0  0  0  0  0
  183.8930   23.1010   46.8290 C   0  0  0  0  0  0  0  0  0  0  0  0
  185.1140   23.7630   46.6800 C   0  0  0  0  0  0  0  0  0  0  0  0
  185.9020   23.5620   45.5400 C   0  0  0  0  0  0  0  0  0  0  0  0
  187.2170   24.2820   45.4100 C   0  0  0  0  0  0  0  0  0  0  0  0
  187.3021   22.0129   41.2000 H   0  0  0  0  0  0  0  0  0  0  0  0
  185.7428   21.9960   40.3083 H   0  0  0  0  0  0  0  0  0  0  0  0
  186.7614   23.4756   40.3083 H   0  0  0  0  0  0  0  0  0  0  0  0
  185.8244   24.2008   42.2232 H   0  0  0  0  0  0  0  0  0  0  0  0
  184.6487   22.8310   42.0743 H   0  0  0  0  0  0  0  0  0  0  0  0
  185.8131   20.4518   43.7071 H   0  0  0  0  0  0  0  0  0  0  0  0
  186.6931   20.8095   42.1766 H   0  0  0  0  0  0  0  0  0  0  0  0
  187.7894   20.8025   45.0255 H   0  0  0  0  0  0  0  0  0  0  0  0
  188.2886   19.7750   43.6393 H   0  0  0  0  0  0  0  0  0  0  0  0
  188.6699   21.5304   43.6393 H   0  0  0  0  0  0  0  0  0  0  0  0
  183.8695   21.3397   43.9140 H   0  0  0  0  0  0  0  0  0  0  0  0
  179.4350   23.5264   48.1406 H   0  0  0  0  0  0  0  0  0  0  0  0
  177.1314   22.6970   48.6335 H   0  0  0  0  0  0  0  0  0  0  0  0
  176.3998   20.4647   47.7861 H   0  0  0  0  0  0  0  0  0  0  0  0
  177.9360   18.0780   46.9120 H   0  0  0  0  0  0  0  0  0  0  0  0
  183.1720   19.9280   44.0140 H   0  0  0  0  0  0  0  0  0  0  0  0
  183.2841   23.2768   47.7281 H   0  0  0  0  0  0  0  0  0  0  0  0
  185.4602   24.4496   47.4666 H   0  0  0  0  0  0  0  0  0  0  0  0
  187.6160   24.5005   46.4115 H   0  0  0  0  0  0  0  0  0  0  0  0
  187.9295   23.6481   44.8617 H   0  0  0  0  0  0  0  0  0  0  0  0
  187.0668   25.2237   44.8617 H   0  0  0  0  0  0  0  0  0  0  0  0
  1  2  1  0
  2  3  1  0
  3  4  1  0
  4  5  1  0
  3  6  1  0
  6  7  2  0
  7  8  1  0
  8  9  1  0
  9 10  1  0
 10 11  1  0
 11 12  2  0
 12 13  1  0
 13 14  2  0
 14 15  1  0
 15 16  1  0
 15 17  2  0
 17 18  1  0
 18 19  2  0
 18 20  1  0
 20 21  1  0
  8 22  2  0
 22 23  1  0
 23 24  2  0
 24 25  1  0
 24  6  1  0
 20  9  2  0
 17 11  1  0
  1 26  1  0
  1 27  1  0
  1 28  1  0
  2 29  1  0
  2 30  1  0
  4 31  1  0
  4 32  1  0
  5 33  1  0
  5 34  1  0
  5 35  1  0
  7 36  1  0
 12 37  1  0
 13 38  1  0
 14 39  1  0
 16 40  1  0
 21 41  1  0
 22 42  1  0
 23 43  1  0
 25 44  1  0
 25 45  1  0
 25 46  1  0
M  END
>  <meeko>  (3) 
{"is_sidechain": [false], "free_energy": -5.447, "intermolecular_energy": -6.697, "internal_energy": -0.471}

$$$$
cand_054_out
     RDKit          3D

 46 48  0  0  0  0  0  0  0  0999 V2000
  187.6750   23.1830   48.6950 C   0  0  0  0  0  0  0  0  0  0  0  0
  186.4300   23.9510   49.1150 C   0  0  0  0  0  0  0  0  0  0  0  0
  185.9540   24.8410   48.0360 N   0  0  0  0  0  0  0  0  0  0  0  0
  185.0130   25.8930   48.4740 C   0  0  0  0  0  0  0  0  0  0  0  0
  184.7050   25.7380   49.9560 C   0  0  0  0  0  0  0  0  0  0  0  0
  185.4190   24.1420   46.9220 C   0  0  0  0  0  0  0  0  0  0  0  0
  184.2670   23.3380   47.0290 C   0  0  0  0  0  0  0  0  0  0  0  0
  183.7330   22.6660   45.9200 C   0  0  0  0  0  0  0  0  0  0  0  0
  182.5390   21.8020   46.0390 C   0  0  0  0  0  0  0  0  0  0  0  0
  181.5400   22.3660   46.8250 O   0  0  0  0  0  0  0  0  0  0  0  0
  180.3750   21.6700   47.0180 C   0  0  0  0  0  0  0  0  0  0  0  0
  179.3950   22.2800   47.8020 C   0  0  0  0  0  0  0  0  0  0  0  0
  178.1850   21.6240   48.0390 C   0  0  0  0  0  0  0  0  0  0  0  0
  177.9570   20.3580   47.4950 C   0  0  0  0  0  0  0  0  0  0  0  0
  178.9370   19.7520   46.7140 C   0  0  0  0  0  0  0  0  0  0  0  0
  178.6480   18.5120   46.2120 O   0  0  0  0  0  0  0  0  0  0  0  0
  180.1470   20.4090   46.4750 C   0  0  0  0  0  0  0  0  0  0  0  0
  181.2030   19.8070   45.6610 C   0  0  0  0  0  0  0  0  0  0  0  0
  181.0800   18.6940   45.1530 O   0  0  0  0  0  0  0  0  0  0  0  0
  182.4440   20.5900   45.4620 C   0  0  0  0  0  0  0  0  0  0  0  0
  183.4410   20.0050   44.7010 O   0  0  0  0  0  0  0  0  0  0  0  0
  184.3780   22.7970   44.6850 C   0  0  0  0  0  0  0  0  0  0  0  0
  185.5150   23.5980   44.5560 C   0  0  0  0  0  0  0  0  0  0  0  0
  186.0390   24.2780   45.6630 C   0  0  0  0  0  0  0  0  0  0  0  0
  187.2610   25.1400   45.4940 C   0  0  0  0  0  0  0  0  0  0  0  0
  188.2185   22.8477   49.5906 H   0  0  0  0  0  0  0  0  0  0  0  0
  187.3816   22.3087   48.0954 H   0  0  0  0  0  0  0  0  0  0  0  0
  188.3247   23.8375   48.0954 H   0  0  0  0  0  0  0  0  0  0  0  0
  185.6342   23.2335   49.3638 H   0  0  0  0  0  0  0  0  0  0  0  0
  186.6844   24.5711   49.9872 H   0  0  0  0  0  0  0  0  0  0  0  0
  185.4643   26.8806   48.2979 H   0  0  0  0  0  0  0  0  0  0  0  0
  184.0784   25.8000   47.9013 H   0  0  0  0  0  0  0  0  0  0  0  0
  185.5331   26.1547   50.5481 H   0  0  0  0  0  0  0  0  0  0  0  0
  183.7759   26.2759   50.1956 H   0  0  0  0  0  0  0  0  0  0  0  0
  184.5834   24.6713   50.1956 H   0  0  0  0  0  0  0  0  0  0  0  0
  183.7741   23.2348   48.0069 H   0  0  0  0  0  0  0  0  0  0  0  0
  179.5752   23.2760   48.2327 H   0  0  0  0  0  0  0  0  0  0  0  0
  177.4107   22.1049   48.6548 H   0  0  0  0  0  0  0  0  0  0  0  0
  177.0047   19.8407   47.6834 H   0  0  0  0  0  0  0  0  0  0  0  0
  178.0290   18.4210   45.5130 H   0  0  0  0  0  0  0  0  0  0  0  0
  183.3700   19.9920   43.7670 H   0  0  0  0  0  0  0  0  0  0  0  0
  183.9855   22.2636   43.8067 H   0  0  0  0  0  0  0  0  0  0  0  0
  186.0038   23.6958   43.5754 H   0  0  0  0  0  0  0  0  0  0  0  0
  187.6539   25.4171   46.4834 H   0  0  0  0  0  0  0  0  0  0  0  0
  188.0289   24.5825   44.9376 H   0  0  0  0  0  0  0  0  0  0  0  0
  186.9934   26.0504   44.9376 H   0  0  0  0  0  0  0  0  0  0  0  0
  1  2  1  0
  2  3  1  0
  3  4  1  0
  4  5  1  0
  3  6  1  0
  6  7  2  0
  7  8  1  0
  8  9  1  0
  9 10  1  0
 10 11  1  0
 11 12  2  0
 12 13  1  0
 13 14  2  0
 14 15  1  0
 15 16  1  0
 15 17  2  0
 17 18  1  0
 18 19  2  0
 18 20  1  0
 20 21  1  0
  8 22  2  0
 22 23  1  0
 23 24  2  0
 24 25  1  0
 24  6  1  0
 20  9  2  0
 17 11  1  0
  1 26  1  0
  1 27  1  0
  1 28  1  0
  2 29  1  0
  2 30  1  0
  4 31  1  0
  4 32  1  0
  5 33  1  0
  5 34  1  0
  5 35  1  0
  7 36  1  0
 12 37  1  0
 13 38  1  0
 14 39  1  0
 16 40  1  0
 21 41  1  0
 22 42  1  0
 23 43  1  0
 25 44  1  0
 25 45  1  0
 25 46  1  0
M  END
>  <meeko>  (4) 
{"is_sidechain": [false], "free_energy": -5.378, "intermolecular_energy": -6.484, "internal_energy": -0.594}

$$$$
cand_054_out
     RDKit          3D

 46 48  0  0  0  0  0  0  0  0999 V2000
  181.2270   15.3050   41.8890 C   0  0  0  0  0  0  0  0  0  0  0  0
  180.4570   16.3740   42.6530 C   0  0  0  0  0  0  0  0  0  0  0  0
  180.8160   16.3790   44.0860 N   0  0  0  0  0  0  0  0  0  0  0  0
  179.9130   15.5940   44.9520 C   0  0  0  0  0  0  0  0  0  0  0  0
  180.4100   14.1590   45.0630 C   0  0  0  0  0  0  0  0  0  0  0  0
  180.9910   17.6840   44.6190 C   0  0  0  0  0  0  0  0  0  0  0  0
  180.0210   18.2880   45.4430 C   0  0  0  0  0  0  0  0  0  0  0  0
  180.2090   19.5690   45.9830 C   0  0  0  0  0  0  0  0  0  0  0  0
  179.1800   20.2140   46.8270 C   0  0  0  0  0  0  0  0  0  0  0  0
  177.9010   19.7210   46.5890 O   0  0  0  0  0  0  0  0  0  0  0  0
  176.8500   20.2320   47.3050 C   0  0  0  0  0  0  0  0  0  0  0  0
  175.5870   19.6990   47.0440 C   0  0  0  0  0  0  0  0  0  0  0  0
  174.4730   20.1760   47.7380 C   0  0  0  0  0  0  0  0  0  0  0  0
  174.6210   21.1870   48.6910 C   0  0  0  0  0  0  0  0  0  0  0  0
  175.8820   21.7180   48.9480 C   0  0  0  0  0  0  0  0  0  0  0  0
  175.9560   22.7050   49.8920 O   0  0  0  0  0  0  0  0  0  0  0  0
  176.9970   21.2390   48.2540 C   0  0  0  0  0  0  0  0  0  0  0  0
  178.3400   21.7690   48.4950 C   0  0  0  0  0  0  0  0  0  0  0  0
  178.5510   22.6630   49.3120 O   0  0  0  0  0  0  0  0  0  0  0  0
  179.4560   21.1880   47.7130 C   0  0  0  0  0  0  0  0  0  0  0  0
  180.7180   21.7060   47.9400 O   0  0  0  0  0  0  0  0  0  0  0  0
  181.3890   20.2580   45.6770 C   0  0  0  0  0  0  0  0  0  0  0  0
  182.3660   19.6710   44.8700 C   0  0  0  0  0  0  0  0  0  0  0  0
  182.1820   18.3860   44.3430 C   0  0  0  0  0  0  0  0  0  0  0  0
  183.2550   17.7750   43.4830 C   0  0  0  0  0  0  0  0  0  0  0  0
  181.7165   14.6255   42.6022 H   0  0  0  0  0  0  0  0  0  0  0  0
  180.5316   14.7338   41.2565 H   0  0  0  0  0  0  0  0  0  0  0  0
  181.9891   15.7836   41.2565 H   0  0  0  0  0  0  0  0  0  0  0  0
  180.6903   17.3590   42.2225 H   0  0  0  0  0  0  0  0  0  0  0  0
  179.3827   16.1538   42.5669 H   0  0  0  0  0  0  0  0  0  0  0  0
  179.8845   16.0475   45.9537 H   0  0  0  0  0  0  0  0  0  0  0  0
  178.9045   15.5925   44.5127 H   0  0  0  0  0  0  0  0  0  0  0  0
  180.5049   13.8849   46.1241 H   0  0  0  0  0  0  0  0  0  0  0  0
  179.6934   13.4838   44.5726 H   0  0  0  0  0  0  0  0  0  0  0  0
  181.3907   14.0717   44.5726 H   0  0  0  0  0  0  0  0  0  0  0  0
  179.0933   17.7416   45.6685 H   0  0  0  0  0  0  0  0  0  0  0  0
  175.4691   18.9043   46.2927 H   0  0  0  0  0  0  0  0  0  0  0  0
  173.4774   19.7551   47.5341 H   0  0  0  0  0  0  0  0  0  0  0  0
  173.7430   21.5626   49.2370 H   0  0  0  0  0  0  0  0  0  0  0  0
  175.5720   23.5440   49.7250 H   0  0  0  0  0  0  0  0  0  0  0  0
  181.3790   21.1740   48.3360 H   0  0  0  0  0  0  0  0  0  0  0  0
  181.5479   21.2708   46.0759 H   0  0  0  0  0  0  0  0  0  0  0  0
  183.2902   20.2237   44.6456 H   0  0  0  0  0  0  0  0  0  0  0  0
  184.0315   17.3328   44.1245 H   0  0  0  0  0  0  0  0  0  0  0  0
  182.8145   16.9923   42.8479 H   0  0  0  0  0  0  0  0  0  0  0  0
  183.7034   18.5532   42.8479 H   0  0  0  0  0  0  0  0  0  0  0  0
  1  2  1  0
  2  3  1  0
  3  4  1  0
  4  5  1  0
  3  6  1  0
  6  7  2  0
  7  8  1  0
  8  9  1  0
  9 10  1  0
 10 11  1  0
 11 12  2  0
 12 13  1  0
 13 14  2  0
 14 15  1  0
 15 16  1  0
 15 17  2  0
 17 18  1  0
 18 19  2  0
 18 20  1  0
 20 21  1  0
  8 22  2  0
 22 23  1  0
 23 24  2  0
 24 25  1  0
 24  6  1  0
 20  9  2  0
 17 11  1  0
  1 26  1  0
  1 27  1  0
  1 28  1  0
  2 29  1  0
  2 30  1  0
  4 31  1  0
  4 32  1  0
  5 33  1  0
  5 34  1  0
  5 35  1  0
  7 36  1  0
 12 37  1  0
 13 38  1  0
 14 39  1  0
 16 40  1  0
 21 41  1  0
 22 42  1  0
 23 43  1  0
 25 44  1  0
 25 45  1  0
 25 46  1  0
M  END
>  <meeko>  (5) 
{"is_sidechain": [false], "free_energy": -5.255, "intermolecular_energy": -7.078, "internal_energy": 0.158}

$$$$
cand_054_out
     RDKit          3D

 46 48  0  0  0  0  0  0  0  0999 V2000
  176.1880   24.1340   49.5860 C   0  0  0  0  0  0  0  0  0  0  0  0
  176.4570   23.2920   48.3470 C   0  0  0  0  0  0  0  0  0  0  0  0
  177.4620   22.2430   48.6130 N   0  0  0  0  0  0  0  0  0  0  0  0
  178.8620   22.6580   48.3890 C   0  0  0  0  0  0  0  0  0  0  0  0
  178.9220   23.7500   47.3300 C   0  0  0  0  0  0  0  0  0  0  0  0
  177.2000   21.0240   47.9330 C   0  0  0  0  0  0  0  0  0  0  0  0
  178.2070   20.3270   47.2370 C   0  0  0  0  0  0  0  0  0  0  0  0
  177.9450   19.1130   46.5850 C   0  0  0  0  0  0  0  0  0  0  0  0
  178.9960   18.3950   45.8330 C   0  0  0  0  0  0  0  0  0  0  0  0
  178.7610   17.0270   45.7510 O   0  0  0  0  0  0  0  0  0  0  0  0
  179.6590   16.2380   45.0790 C   0  0  0  0  0  0  0  0  0  0  0  0
  179.3760   14.8740   45.0100 C   0  0  0  0  0  0  0  0  0  0  0  0
  180.2510   14.0140   44.3410 C   0  0  0  0  0  0  0  0  0  0  0  0
  181.4090   14.5200   43.7440 C   0  0  0  0  0  0  0  0  0  0  0  0
  181.6880   15.8810   43.8160 C   0  0  0  0  0  0  0  0  0  0  0  0
  182.8380   16.3090   43.2100 O   0  0  0  0  0  0  0  0  0  0  0  0
  180.8120   16.7410   44.4840 C   0  0  0  0  0  0  0  0  0  0  0  0
  181.0680   18.1780   44.5820 C   0  0  0  0  0  0  0  0  0  0  0  0
  182.0680   18.6970   44.0890 O   0  0  0  0  0  0  0  0  0  0  0  0
  180.0740   19.0040   45.3050 C   0  0  0  0  0  0  0  0  0  0  0  0
  180.3340   20.3590   45.4030 O   0  0  0  0  0  0  0  0  0  0  0  0
  176.6440   18.6000   46.6250 C   0  0  0  0  0  0  0  0  0  0  0  0
  175.6340   19.2710   47.3190 C   0  0  0  0  0  0  0  0  0  0  0  0
  175.9010   20.4760   47.9800 C   0  0  0  0  0  0  0  0  0  0  0  0
  174.7970   21.1750   48.7270 C   0  0  0  0  0  0  0  0  0  0  0  0
  176.3801   23.5326   50.4868 H   0  0  0  0  0  0  0  0  0  0  0  0
  176.8503   25.0123   49.5833 H   0  0  0  0  0  0  0  0  0  0  0  0
  175.1392   24.4656   49.5833 H   0  0  0  0  0  0  0  0  0  0  0  0
  175.5184   22.8151   48.0283 H   0  0  0  0  0  0  0  0  0  0  0  0
  176.8480   23.9526   47.5591 H   0  0  0  0  0  0  0  0  0  0  0  0
  179.2828   23.0409   49.3304 H   0  0  0  0  0  0  0  0  0  0  0  0
  179.4435   21.7903   48.0441 H   0  0  0  0  0  0  0  0  0  0  0  0
  178.9760   24.7334   47.8200 H   0  0  0  0  0  0  0  0  0  0  0  0
  179.8135   23.6036   46.7024 H   0  0  0  0  0  0  0  0  0  0  0  0
  178.0199   23.7021   46.7024 H   0  0  0  0  0  0  0  0  0  0  0  0
  179.2239   20.7451   47.2040 H   0  0  0  0  0  0  0  0  0  0  0  0
  178.4654   14.4758   45.4815 H   0  0  0  0  0  0  0  0  0  0  0  0
  180.0283   12.9383   44.2842 H   0  0  0  0  0  0  0  0  0  0  0  0
  182.0986   13.8433   43.2181 H   0  0  0  0  0  0  0  0  0  0  0  0
  183.3310   17.0150   43.5830 H   0  0  0  0  0  0  0  0  0  0  0  0
  180.0980   20.9330   44.7010 H   0  0  0  0  0  0  0  0  0  0  0  0
  176.4139   17.6586   46.1046 H   0  0  0  0  0  0  0  0  0  0  0  0
  174.6188   18.8483   47.3464 H   0  0  0  0  0  0  0  0  0  0  0  0
  174.9629   21.0699   49.8093 H   0  0  0  0  0  0  0  0  0  0  0  0
  174.7911   22.2418   48.4588 H   0  0  0  0  0  0  0  0  0  0  0  0
  173.8302   20.7241   48.4588 H   0  0  0  0  0  0  0  0  0  0  0  0
  1  2  1  0
  2  3  1  0
  3  4  1  0
  4  5  1  0
  3  6  1  0
  6  7  2  0
  7  8  1  0
  8  9  1  0
  9 10  1  0
 10 11  1  0
 11 12  2  0
 12 13  1  0
 13 14  2  0
 14 15  1  0
 15 16  1  0
 15 17  2  0
 17 18  1  0
 18 19  2  0
 18 20  1  0
 20 21  1  0
  8 22  2  0
 22 23  1  0
 23 24  2  0
 24 25  1  0
 24  6  1  0
 20  9  2  0
 17 11  1  0
  1 26  1  0
  1 27  1  0
  1 28  1  0
  2 29  1  0
  2 30  1  0
  4 31  1  0
  4 32  1  0
  5 33  1  0
  5 34  1  0
  5 35  1  0
  7 36  1  0
 12 37  1  0
 13 38  1  0
 14 39  1  0
 16 40  1  0
 21 41  1  0
 22 42  1  0
 23 43  1  0
 25 44  1  0
 25 45  1  0
 25 46  1  0
M  END
>  <meeko>  (6) 
{"is_sidechain": [false], "free_energy": -5.241, "intermolecular_energy": -7.831, "internal_energy": 0.929}

$$$$
cand_054_out
     RDKit          3D

 46 48  0  0  0  0  0  0  0  0999 V2000
  177.3560   23.8200   48.5090 C   0  0  0  0  0  0  0  0  0  0  0  0
  177.3680   22.9260   47.2760 C   0  0  0  0  0  0  0  0  0  0  0  0
  177.6300   21.5170   47.6320 N   0  0  0  0  0  0  0  0  0  0  0  0
  177.6130   21.2320   49.0810 C   0  0  0  0  0  0  0  0  0  0  0  0
  176.3000   20.5640   49.4690 C   0  0  0  0  0  0  0  0  0  0  0  0
  178.8150   20.9980   47.0470 C   0  0  0  0  0  0  0  0  0  0  0  0
  180.0290   21.7120   47.0630 C   0  0  0  0  0  0  0  0  0  0  0  0
  181.2010   21.1850   46.5020 C   0  0  0  0  0  0  0  0  0  0  0  0
  182.4690   21.9460   46.4960 C   0  0  0  0  0  0  0  0  0  0  0  0
  183.1040   21.9260   45.2590 O   0  0  0  0  0  0  0  0  0  0  0  0
  184.2920   22.5950   45.1130 C   0  0  0  0  0  0  0  0  0  0  0  0
  184.8870   22.5600   43.8510 C   0  0  0  0  0  0  0  0  0  0  0  0
  186.0990   23.2200   43.6350 C   0  0  0  0  0  0  0  0  0  0  0  0
  186.7170   23.9110   44.6800 C   0  0  0  0  0  0  0  0  0  0  0  0
  186.1210   23.9420   45.9380 C   0  0  0  0  0  0  0  0  0  0  0  0
  186.7790   24.6370   46.9160 O   0  0  0  0  0  0  0  0  0  0  0  0
  184.9070   23.2840   46.1530 C   0  0  0  0  0  0  0  0  0  0  0  0
  184.2480   23.2930   47.4600 C   0  0  0  0  0  0  0  0  0  0  0  0
  184.7310   23.8730   48.4300 O   0  0  0  0  0  0  0  0  0  0  0  0
  182.9610   22.5710   47.5820 C   0  0  0  0  0  0  0  0  0  0  0  0
  182.3530   22.5760   48.8250 O   0  0  0  0  0  0  0  0  0  0  0  0
  181.1460   19.9210   45.9030 C   0  0  0  0  0  0  0  0  0  0  0  0
  179.9540   19.1930   45.8870 C   0  0  0  0  0  0  0  0  0  0  0  0
  178.7880   19.7160   46.4600 C   0  0  0  0  0  0  0  0  0  0  0  0
  177.5200   18.9060   46.4340 C   0  0  0  0  0  0  0  0  0  0  0  0
  177.3644   23.1957   49.4146 H   0  0  0  0  0  0  0  0  0  0  0  0
  178.2455   24.4670   48.5014 H   0  0  0  0  0  0  0  0  0  0  0  0
  176.4494   24.4429   48.5014 H   0  0  0  0  0  0  0  0  0  0  0  0
  176.3902   22.9927   46.7766 H   0  0  0  0  0  0  0  0  0  0  0  0
  178.1725   23.2689   46.6088 H   0  0  0  0  0  0  0  0  0  0  0  0
  178.4492   20.5620   49.3296 H   0  0  0  0  0  0  0  0  0  0  0  0
  177.7128   22.1773   49.6345 H   0  0  0  0  0  0  0  0  0  0  0  0
  176.2194   20.5230   50.5653 H   0  0  0  0  0  0  0  0  0  0  0  0
  175.4590   21.1438   49.0609 H   0  0  0  0  0  0  0  0  0  0  0  0
  176.2735   19.5428   49.0609 H   0  0  0  0  0  0  0  0  0  0  0  0
  180.0584   22.7087   47.5275 H   0  0  0  0  0  0  0  0  0  0  0  0
  184.4025   22.0138   43.0282 H   0  0  0  0  0  0  0  0  0  0  0  0
  186.5677   23.1956   42.6401 H   0  0  0  0  0  0  0  0  0  0  0  0
  187.6721   24.4293   44.5095 H   0  0  0  0  0  0  0  0  0  0  0  0
  186.3950   24.7270   47.7670 H   0  0  0  0  0  0  0  0  0  0  0  0
  182.2710   23.3760   49.3040 H   0  0  0  0  0  0  0  0  0  0  0  0
  182.0497   19.4972   45.4407 H   0  0  0  0  0  0  0  0  0  0  0  0
  179.9308   18.1977   45.4191 H   0  0  0  0  0  0  0  0  0  0  0  0
  177.1960   18.6990   47.4646 H   0  0  0  0  0  0  0  0  0  0  0  0
  176.7351   19.4704   45.9092 H   0  0  0  0  0  0  0  0  0  0  0  0
  177.7021   17.9566   45.9092 H   0  0  0  0  0  0  0  0  0  0  0  0
  1  2  1  0
  2  3  1  0
  3  4  1  0
  4  5  1  0
  3  6  1  0
  6  7  2  0
  7  8  1  0
  8  9  1  0
  9 10  1  0
 10 11  1  0
 11 12  2  0
 12 13  1  0
 13 14  2  0
 14 15  1  0
 15 16  1  0
 15 17  2  0
 17 18  1  0
 18 19  2  0
 18 20  1  0
 20 21  1  0
  8 22  2  0
 22 23  1  0
 23 24  2  0
 24 25  1  0
 24  6  1  0
 20  9  2  0
 17 11  1  0
  1 26  1  0
  1 27  1  0
  1 28  1  0
  2 29  1  0
  2 30  1  0
  4 31  1  0
  4 32  1  0
  5 33  1  0
  5 34  1  0
  5 35  1  0
  7 36  1  0
 12 37  1  0
 13 38  1  0
 14 39  1  0
 16 40  1  0
 21 41  1  0
 22 42  1  0
 23 43  1  0
 25 44  1  0
 25 45  1  0
 25 46  1  0
M  END
>  <meeko>  (7) 
{"is_sidechain": [false], "free_energy": -5.167, "intermolecular_energy": -6.352, "internal_energy": -0.455}

$$$$
cand_054_out
     RDKit          3D

 46 48  0  0  0  0  0  0  0  0999 V2000
  178.5480   24.0560   48.6040 C   0  0  0  0  0  0  0  0  0  0  0  0
  178.6210   23.4250   47.2200 C   0  0  0  0  0  0  0  0  0  0  0  0
  178.7770   21.9580   47.3020 N   0  0  0  0  0  0  0  0  0  0  0  0
  178.5690   21.3890   48.6490 C   0  0  0  0  0  0  0  0  0  0  0  0
  177.1130   20.9820   48.8270 C   0  0  0  0  0  0  0  0  0  0  0  0
  180.0020   21.4900   46.7580 C   0  0  0  0  0  0  0  0  0  0  0  0
  181.1740   22.2710   46.7770 C   0  0  0  0  0  0  0  0  0  0  0  0
  182.3860   21.7950   46.2570 C   0  0  0  0  0  0  0  0  0  0  0  0
  183.6090   22.6260   46.2540 C   0  0  0  0  0  0  0  0  0  0  0  0
  183.8440   23.2440   47.4770 O   0  0  0  0  0  0  0  0  0  0  0  0
  184.9480   24.0460   47.6140 C   0  0  0  0  0  0  0  0  0  0  0  0
  185.1520   24.6340   48.8620 C   0  0  0  0  0  0  0  0  0  0  0  0
  186.2570   25.4630   49.0690 C   0  0  0  0  0  0  0  0  0  0  0  0
  187.1550   25.7050   48.0260 C   0  0  0  0  0  0  0  0  0  0  0  0
  186.9480   25.1170   46.7820 C   0  0  0  0  0  0  0  0  0  0  0  0
  187.8660   25.3960   45.8060 O   0  0  0  0  0  0  0  0  0  0  0  0
  185.8430   24.2860   46.5770 C   0  0  0  0  0  0  0  0  0  0  0  0
  185.5890   23.6480   45.2840 C   0  0  0  0  0  0  0  0  0  0  0  0
  186.3290   23.8170   44.3170 O   0  0  0  0  0  0  0  0  0  0  0  0
  184.3950   22.7800   45.1720 C   0  0  0  0  0  0  0  0  0  0  0  0
  184.1570   22.1920   43.9420 O   0  0  0  0  0  0  0  0  0  0  0  0
  182.4140   20.5120   45.6970 C   0  0  0  0  0  0  0  0  0  0  0  0
  181.2660   19.7180   45.6780 C   0  0  0  0  0  0  0  0  0  0  0  0
  180.0600   20.1920   46.2100 C   0  0  0  0  0  0  0  0  0  0  0  0
  178.8390   19.3120   46.1840 C   0  0  0  0  0  0  0  0  0  0  0  0
  178.6387   23.2716   49.3698 H   0  0  0  0  0  0  0  0  0  0  0  0
  179.3685   24.7793   48.7209 H   0  0  0  0  0  0  0  0  0  0  0  0
  177.5841   24.5729   48.7209 H   0  0  0  0  0  0  0  0  0  0  0  0
  177.6954   23.6561   46.6724 H   0  0  0  0  0  0  0  0  0  0  0  0
  179.4975   23.8369   46.6983 H   0  0  0  0  0  0  0  0  0  0  0  0
  179.2115   20.5049   48.7735 H   0  0  0  0  0  0  0  0  0  0  0  0
  178.8251   22.1476   49.4033 H   0  0  0  0  0  0  0  0  0  0  0  0
  176.8791   20.9166   49.8999 H   0  0  0  0  0  0  0  0  0  0  0  0
  176.4621   21.7326   48.3549 H   0  0  0  0  0  0  0  0  0  0  0  0
  176.9457   20.0027   48.3549 H   0  0  0  0  0  0  0  0  0  0  0  0
  181.1375   23.2810   47.2112 H   0  0  0  0  0  0  0  0  0  0  0  0
  184.4437   24.4452   49.6822 H   0  0  0  0  0  0  0  0  0  0  0  0
  186.4204   25.9256   50.0535 H   0  0  0  0  0  0  0  0  0  0  0  0
  188.0242   26.3594   48.1882 H   0  0  0  0  0  0  0  0  0  0  0  0
  187.5810   25.5620   44.9280 H   0  0  0  0  0  0  0  0  0  0  0  0
  184.6010   22.5060   43.1800 H   0  0  0  0  0  0  0  0  0  0  0  0
  183.3502   20.1258   45.2676 H   0  0  0  0  0  0  0  0  0  0  0  0
  181.3089   18.7096   45.2407 H   0  0  0  0  0  0  0  0  0  0  0  0
  178.5271   19.0872   47.2146 H   0  0  0  0  0  0  0  0  0  0  0  0
  178.0237   19.8315   45.6592 H   0  0  0  0  0  0  0  0  0  0  0  0
  179.0740   18.3743   45.6592 H   0  0  0  0  0  0  0  0  0  0  0  0
  1  2  1  0
  2  3  1  0
  3  4  1  0
  4  5  1  0
  3  6  1  0
  6  7  2  0
  7  8  1  0
  8  9  1  0
  9 10  1  0
 10 11  1  0
 11 12  2  0
 12 13  1  0
 13 14  2  0
 14 15  1  0
 15 16  1  0
 15 17  2  0
 17 18  1  0
 18 19  2  0
 18 20  1  0
 20 21  1  0
  8 22  2  0
 22 23  1  0
 23 24  2  0
 24 25  1  0
 24  6  1  0
 20  9  2  0
 17 11  1  0
  1 26  1  0
  1 27  1  0
  1 28  1  0
  2 29  1  0
  2 30  1  0
  4 31  1  0
  4 32  1  0
  5 33  1  0
  5 34  1  0
  5 35  1  0
  7 36  1  0
 12 37  1  0
 13 38  1  0
 14 39  1  0
 16 40  1  0
 21 41  1  0
 22 42  1  0
 23 43  1  0
 25 44  1  0
 25 45  1  0
 25 46  1  0
M  END
>  <meeko>  (8) 
{"is_sidechain": [false], "free_energy": -4.88, "intermolecular_energy": -6.39, "internal_energy": -0.045}

$$$$
cand_054_out
     RDKit          3D

 46 48  0  0  0  0  0  0  0  0999 V2000
  181.4840   27.4180   53.3040 C   0  0  0  0  0  0  0  0  0  0  0  0
  182.3410   27.3980   52.0450 C   0  0  0  0  0  0  0  0  0  0  0  0
  183.7810   27.3770   52.3710 N   0  0  0  0  0  0  0  0  0  0  0  0
  184.4950   28.6400   52.0930 C   0  0  0  0  0  0  0  0  0  0  0  0
  185.8520   28.6390   52.7840 C   0  0  0  0  0  0  0  0  0  0  0  0
  184.4760   26.2850   51.7870 C   0  0  0  0  0  0  0  0  0  0  0  0
  184.7200   26.2120   50.4020 C   0  0  0  0  0  0  0  0  0  0  0  0
  185.4250   25.1410   49.8340 C   0  0  0  0  0  0  0  0  0  0  0  0
  185.6590   25.0510   48.3760 C   0  0  0  0  0  0  0  0  0  0  0  0
  184.8310   24.1240   47.7530 O   0  0  0  0  0  0  0  0  0  0  0  0
  184.9420   23.9400   46.3990 C   0  0  0  0  0  0  0  0  0  0  0  0
  184.0810   23.0100   45.8140 C   0  0  0  0  0  0  0  0  0  0  0  0
  184.1430   22.7740   44.4390 C   0  0  0  0  0  0  0  0  0  0  0  0
  185.0670   23.4650   43.6510 C   0  0  0  0  0  0  0  0  0  0  0  0
  185.9240   24.3910   44.2380 C   0  0  0  0  0  0  0  0  0  0  0  0
  186.8030   25.0320   43.4080 O   0  0  0  0  0  0  0  0  0  0  0  0
  185.8600   24.6290   45.6140 C   0  0  0  0  0  0  0  0  0  0  0  0
  186.7430   25.5940   46.2700 C   0  0  0  0  0  0  0  0  0  0  0  0
  187.5860   26.2360   45.6460 O   0  0  0  0  0  0  0  0  0  0  0  0
  186.5910   25.7770   47.7320 C   0  0  0  0  0  0  0  0  0  0  0  0
  187.4390   26.6830   48.3430 O   0  0  0  0  0  0  0  0  0  0  0  0
  185.8810   24.1200   50.6750 C   0  0  0  0  0  0  0  0  0  0  0  0
  185.6580   24.1800   52.0530 C   0  0  0  0  0  0  0  0  0  0  0  0
  184.9650   25.2570   52.6190 C   0  0  0  0  0  0  0  0  0  0  0  0
  184.7460   25.3000   54.1070 C   0  0  0  0  0  0  0  0  0  0  0  0
  182.1347   27.4028   54.1908 H   0  0  0  0  0  0  0  0  0  0  0  0
  180.8701   28.3307   53.3152 H   0  0  0  0  0  0  0  0  0  0  0  0
  180.8282   26.5349   53.3152 H   0  0  0  0  0  0  0  0  0  0  0  0
  182.0941   26.5006   51.4587 H   0  0  0  0  0  0  0  0  0  0  0  0
  182.1306   28.3117   51.4697 H   0  0  0  0  0  0  0  0  0  0  0  0
  184.6398   28.7444   51.0076 H   0  0  0  0  0  0  0  0  0  0  0  0
  183.8982   29.4816   52.4744 H   0  0  0  0  0  0  0  0  0  0  0  0
  185.7081   28.6391   53.8746 H   0  0  0  0  0  0  0  0  0  0  0  0
  186.4134   27.7404   52.4883 H   0  0  0  0  0  0  0  0  0  0  0  0
  186.4147   29.5367   52.4883 H   0  0  0  0  0  0  0  0  0  0  0  0
  184.3482   27.0154   49.7491 H   0  0  0  0  0  0  0  0  0  0  0  0
  183.3552   22.4642   46.4347 H   0  0  0  0  0  0  0  0  0  0  0  0
  183.4637   22.0433   43.9758 H   0  0  0  0  0  0  0  0  0  0  0  0
  185.1169   23.2773   42.5683 H   0  0  0  0  0  0  0  0  0  0  0  0
  187.6110   25.3650   43.7480 H   0  0  0  0  0  0  0  0  0  0  0  0
  187.4940   27.5620   48.0260 H   0  0  0  0  0  0  0  0  0  0  0  0
  186.4202   23.2619   50.2472 H   0  0  0  0  0  0  0  0  0  0  0  0
  186.0309   23.3725   52.7002 H   0  0  0  0  0  0  0  0  0  0  0  0
  185.6990   25.1129   54.6234 H   0  0  0  0  0  0  0  0  0  0  0  0
  184.3625   26.2906   54.3927 H   0  0  0  0  0  0  0  0  0  0  0  0
  184.0164   24.5280   54.3927 H   0  0  0  0  0  0  0  0  0  0  0  0
  1  2  1  0
  2  3  1  0
  3  4  1  0
  4  5  1  0
  3  6  1  0
  6  7  2  0
  7  8  1  0
  8  9  1  0
  9 10  1  0
 10 11  1  0
 11 12  2  0
 12 13  1  0
 13 14  2  0
 14 15  1  0
 15 16  1  0
 15 17  2  0
 17 18  1  0
 18 19  2  0
 18 20  1  0
 20 21  1  0
  8 22  2  0
 22 23  1  0
 23 24  2  0
 24 25  1  0
 24  6  1  0
 20  9  2  0
 17 11  1  0
  1 26  1  0
  1 27  1  0
  1 28  1  0
  2 29  1  0
  2 30  1  0
  4 31  1  0
  4 32  1  0
  5 33  1  0
  5 34  1  0
  5 35  1  0
  7 36  1  0
 12 37  1  0
 13 38  1  0
 14 39  1  0
 16 40  1  0
 21 41  1  0
 22 42  1  0
 23 43  1  0
 25 44  1  0
 25 45  1  0
 25 46  1  0
M  END
>  <meeko>  (9) 
{"is_sidechain": [false], "free_energy": -4.452, "intermolecular_energy": -5.006, "internal_energy": -0.876}

$$$$
