cand_037_out
     RDKit          3D

 35 37  0  0  0  0  0  0  0  0999 V2000
  179.8820   14.4150   44.8350 C   0  0  0  0  0  0  0  0  0  0  0  0
  180.3860   15.8140   44.6120 C   0  0  0  0  0  0  0  0  0  0  0  0
  179.9000   16.8530   45.4270 C   0  0  0  0  0  0  0  0  0  0  0  0
  180.3290   18.1780   45.2660 C   0  0  0  0  0  0  0  0  0  0  0  0
  179.7770   19.2420   46.1310 C   0  0  0  0  0  0  0  0  0  0  0  0
  178.3870   19.2520   46.1560 O   0  0  0  0  0  0  0  0  0  0  0  0
  177.7430   20.1900   46.9220 C   0  0  0  0  0  0  0  0  0  0  0  0
  176.3470   20.1730   46.9050 C   0  0  0  0  0  0  0  0  0  0  0  0
  175.6310   21.1000   47.6640 C   0  0  0  0  0  0  0  0  0  0  0  0
  176.3080   22.0420   48.4410 C   0  0  0  0  0  0  0  0  0  0  0  0
  177.7000   22.0580   48.4570 C   0  0  0  0  0  0  0  0  0  0  0  0
  178.2990   23.0070   49.2380 O   0  0  0  0  0  0  0  0  0  0  0  0
  178.4180   21.1310   47.6950 C   0  0  0  0  0  0  0  0  0  0  0  0
  179.8810   21.1120   47.6830 C   0  0  0  0  0  0  0  0  0  0  0  0
  180.5480   21.9040   48.3440 O   0  0  0  0  0  0  0  0  0  0  0  0
  180.5460   20.0930   46.8360 C   0  0  0  0  0  0  0  0  0  0  0  0
  181.9290   20.0750   46.8430 O   0  0  0  0  0  0  0  0  0  0  0  0
  181.2460   18.4600   44.2490 C   0  0  0  0  0  0  0  0  0  0  0  0
  181.7310   17.4420   43.4230 C   0  0  0  0  0  0  0  0  0  0  0  0
  181.3010   16.1150   43.5830 C   0  0  0  0  0  0  0  0  0  0  0  0
  181.8660   15.0480   42.6800 C   0  0  0  0  0  0  0  0  0  0  0  0
  180.9790   14.6070   41.7430 F   0  0  0  0  0  0  0  0  0  0  0  0
  179.8112   14.2186   45.9150 H   0  0  0  0  0  0  0  0  0  0  0  0
  178.8881   14.3059   44.3766 H   0  0  0  0  0  0  0  0  0  0  0  0
  180.5780   13.6971   44.3766 H   0  0  0  0  0  0  0  0  0  0  0  0
  179.1644   16.6196   46.2108 H   0  0  0  0  0  0  0  0  0  0  0  0
  175.8124   19.4304   46.2945 H   0  0  0  0  0  0  0  0  0  0  0  0
  174.5311   21.0884   47.6500 H   0  0  0  0  0  0  0  0  0  0  0  0
  175.7421   22.7708   49.0399 H   0  0  0  0  0  0  0  0  0  0  0  0
  177.7980   23.7260   49.5690 H   0  0  0  0  0  0  0  0  0  0  0  0
  182.3990   19.9540   46.0420 H   0  0  0  0  0  0  0  0  0  0  0  0
  181.5894   19.4939   44.0973 H   0  0  0  0  0  0  0  0  0  0  0  0
  182.4604   17.6841   42.6360 H   0  0  0  0  0  0  0  0  0  0  0  0
  182.7451   15.4590   42.1620 H   0  0  0  0  0  0  0  0  0  0  0  0
  182.1228   14.1873   43.3150 H   0  0  0  0  0  0  0  0  0  0  0  0
  1  2  1  0
  2  3  2  0
  3  4  1  0
  4  5  1  0
  5  6  1  0
  6  7  1  0
  7  8  2  0
  8  9  1  0
  9 10  2  0
 10 11  1  0
 11 12  1  0
 11 13  2  0
 13 14  1  0
 14 15  2  0
 14 16  1  0
 16 17  1  0
  4 18  2  0
 18 19  1  0
 19 20  2  0
 20 21  1  0
 21 22  1  0
 20  2  1  0
 16  5  2  0
 13  7  1  0
  1 23  1  0
  1 24  1  0
  1 25  1  0
  3 26  1  0
  8 27  1  0
  9 28  1  0
 10 29  1  0
 12 30  1  0
 17 31  1  0
 18 32  1  0
 19 33  1  0
 21 34  1  0
 21 35  1  0
M  END
>  <meeko>  (1) 
{"is_sidechain": [false], "free_energy": -8.241, "intermolecular_energy": -9.686, "internal_energy": -0.232}

$$$$
cand_037_out
     RDKit          3D

 35 37  0  0  0  0  0  0  0  0999 V2000
  179.4200   16.1970   45.3170 C   0  0  0  0  0  0  0  0  0  0  0  0
  179.9590   17.6020   45.3070 C   0  0  0  0  0  0  0  0  0  0  0  0
  179.3340   18.5770   46.1060 C   0  0  0  0  0  0  0  0  0  0  0  0
  179.7870   19.9040   46.1380 C   0  0  0  0  0  0  0  0  0  0  0  0
  179.0890   20.9020   46.9760 C   0  0  0  0  0  0  0  0  0  0  0  0
  177.7100   20.7240   46.9920 O   0  0  0  0  0  0  0  0  0  0  0  0
  176.9390   21.5820   47.7330 C   0  0  0  0  0  0  0  0  0  0  0  0
  175.5590   21.3760   47.7090 C   0  0  0  0  0  0  0  0  0  0  0  0
  174.7170   22.2130   48.4430 C   0  0  0  0  0  0  0  0  0  0  0  0
  175.2530   23.2560   49.2020 C   0  0  0  0  0  0  0  0  0  0  0  0
  176.6300   23.4600   49.2260 C   0  0  0  0  0  0  0  0  0  0  0  0
  177.0890   24.4980   49.9890 O   0  0  0  0  0  0  0  0  0  0  0  0
  177.4730   22.6220   48.4890 C   0  0  0  0  0  0  0  0  0  0  0  0
  178.9260   22.8010   48.4850 C   0  0  0  0  0  0  0  0  0  0  0  0
  179.4740   23.6910   49.1320 O   0  0  0  0  0  0  0  0  0  0  0  0
  179.7300   21.8640   47.6660 C   0  0  0  0  0  0  0  0  0  0  0  0
  181.1020   22.0340   47.6810 O   0  0  0  0  0  0  0  0  0  0  0  0
  180.8750   20.2540   45.3310 C   0  0  0  0  0  0  0  0  0  0  0  0
  181.4990   19.3000   44.5230 C   0  0  0  0  0  0  0  0  0  0  0  0
  181.0460   17.9720   44.4900 C   0  0  0  0  0  0  0  0  0  0  0  0
  181.7640   16.9740   43.6170 C   0  0  0  0  0  0  0  0  0  0  0  0
  181.0470   16.6000   42.5190 F   0  0  0  0  0  0  0  0  0  0  0  0
  179.2911   15.8611   46.3565 H   0  0  0  0  0  0  0  0  0  0  0  0
  178.4489   16.1731   44.8009 H   0  0  0  0  0  0  0  0  0  0  0  0
  180.1260   15.5298   44.8009 H   0  0  0  0  0  0  0  0  0  0  0  0
  178.4681   18.2912   46.7212 H   0  0  0  0  0  0  0  0  0  0  0  0
  175.1352   20.5548   47.1122 H   0  0  0  0  0  0  0  0  0  0  0  0
  173.6292   22.0510   48.4237 H   0  0  0  0  0  0  0  0  0  0  0  0
  174.5883   23.9150   49.7797 H   0  0  0  0  0  0  0  0  0  0  0  0
  176.7650   24.6180   50.8600 H   0  0  0  0  0  0  0  0  0  0  0  0
  181.5900   21.9720   46.8830 H   0  0  0  0  0  0  0  0  0  0  0  0
  181.2429   21.2907   45.3326 H   0  0  0  0  0  0  0  0  0  0  0  0
  182.3587   19.5944   43.9031 H   0  0  0  0  0  0  0  0  0  0  0  0
  182.7098   17.4230   43.2794 H   0  0  0  0  0  0  0  0  0  0  0  0
  181.9255   16.0700   44.2226 H   0  0  0  0  0  0  0  0  0  0  0  0
  1  2  1  0
  2  3  2  0
  3  4  1  0
  4  5  1  0
  5  6  1  0
  6  7  1  0
  7  8  2  0
  8  9  1  0
  9 10  2  0
 10 11  1  0
 11 12  1  0
 11 13  2  0
 13 14  1  0
 14 15  2  0
 14 16  1  0
 16 17  1  0
  4 18  2  0
 18 19  1  0
 19 20  2  0
 20 21  1  0
 21 22  1  0
 20  2  1  0
 16  5  2  0
 13  7  1  0
  1 23  1  0
  1 24  1  0
  1 25  1  0
  3 26  1  0
  8 27  1  0
  9 28  1  0
 10 29  1  0
 12 30  1  0
 17 31  1  0
 18 32  1  0
 19 33  1  0
 21 34  1  0
 21 35  1  0
M  END
>  <meeko>  (2) 
{"is_sidechain": [false], "free_energy": -7.277, "intermolecular_energy": -8.72, "internal_energy": -0.065}

$$$$
cand_037_out
     RDKit          3D

 35 37  0  0  0  0  0  0  0  0999 V2000
  181.4160   16.9620   41.1050 C   0  0  0  0  0  0  0  0  0  0  0  0
  180.9970   16.7060   42.5270 C   0  0  0  0  0  0  0  0  0  0  0  0
  180.7390   17.8040   43.3690 C   0  0  0  0  0  0  0  0  0  0  0  0
  180.3480   17.6310   44.7050 C   0  0  0  0  0  0  0  0  0  0  0  0
  180.1050   18.8120   45.5610 C   0  0  0  0  0  0  0  0  0  0  0  0
  178.8250   18.8330   46.1020 O   0  0  0  0  0  0  0  0  0  0  0  0
  178.4670   19.8750   46.9180 C   0  0  0  0  0  0  0  0  0  0  0  0
  177.1670   19.8640   47.4280 C   0  0  0  0  0  0  0  0  0  0  0  0
  176.7400   20.8950   48.2670 C   0  0  0  0  0  0  0  0  0  0  0  0
  177.6090   21.9360   48.5970 C   0  0  0  0  0  0  0  0  0  0  0  0
  178.9060   21.9450   48.0880 C   0  0  0  0  0  0  0  0  0  0  0  0
  179.7050   22.9940   48.4520 O   0  0  0  0  0  0  0  0  0  0  0  0
  179.3330   20.9140   47.2470 C   0  0  0  0  0  0  0  0  0  0  0  0
  180.6870   20.8850   46.6900 C   0  0  0  0  0  0  0  0  0  0  0  0
  181.5120   21.7600   46.9390 O   0  0  0  0  0  0  0  0  0  0  0  0
  181.0390   19.7510   45.8040 C   0  0  0  0  0  0  0  0  0  0  0  0
  182.3240   19.7260   45.2940 O   0  0  0  0  0  0  0  0  0  0  0  0
  180.2390   16.3280   45.2020 C   0  0  0  0  0  0  0  0  0  0  0  0
  180.5030   15.2270   44.3820 C   0  0  0  0  0  0  0  0  0  0  0  0
  180.8950   15.4000   43.0450 C   0  0  0  0  0  0  0  0  0  0  0  0
  181.1510   14.1820   42.1940 C   0  0  0  0  0  0  0  0  0  0  0  0
  182.4150   14.1320   41.6860 F   0  0  0  0  0  0  0  0  0  0  0  0
  182.3546   17.5355   41.0969 H   0  0  0  0  0  0  0  0  0  0  0  0
  181.5681   16.0024   40.5892 H   0  0  0  0  0  0  0  0  0  0  0  0
  180.6316   17.5353   40.5892 H   0  0  0  0  0  0  0  0  0  0  0  0
  180.8467   18.8232   42.9694 H   0  0  0  0  0  0  0  0  0  0  0  0
  176.4806   19.0444   47.1691 H   0  0  0  0  0  0  0  0  0  0  0  0
  175.7161   20.8868   48.6689 H   0  0  0  0  0  0  0  0  0  0  0  0
  177.2706   22.7478   49.2577 H   0  0  0  0  0  0  0  0  0  0  0  0
  179.3680   23.8680   48.4340 H   0  0  0  0  0  0  0  0  0  0  0  0
  183.0570   19.8240   45.8700 H   0  0  0  0  0  0  0  0  0  0  0  0
  179.9424   16.1680   46.2491 H   0  0  0  0  0  0  0  0  0  0  0  0
  180.4022   14.2105   44.7902 H   0  0  0  0  0  0  0  0  0  0  0  0
  180.9872   13.2856   42.8101 H   0  0  0  0  0  0  0  0  0  0  0  0
  180.4597   14.2317   41.3398 H   0  0  0  0  0  0  0  0  0  0  0  0
  1  2  1  0
  2  3  2  0
  3  4  1  0
  4  5  1  0
  5  6  1  0
  6  7  1  0
  7  8  2  0
  8  9  1  0
  9 10  2  0
 10 11  1  0
 11 12  1  0
 11 13  2  0
 13 14  1  0
 14 15  2  0
 14 16  1  0
 16 17  1  0
  4 18  2  0
 18 19  1  0
 19 20  2  0
 20 21  1  0
 21 22  1  0
 20  2  1  0
 16  5  2  0
 13  7  1  0
  1 23  1  0
  1 24  1  0
  1 25  1  0
  3 26  1  0
  8 27  1  0
  9 28  1  0
 10 29  1  0
 12 30  1  0
 17 31  1  0
 18 32  1  0
 19 33  1  0
 21 34  1  0
 21 35  1  0
M  END
>  <meeko>  (3) 
{"is_sidechain": [false], "free_energy": -7.265, "intermolecular_energy": -8.626, "internal_energy": -0.145}

$$$$
cand_037_out
     RDKit          3D

 35 37  0  0  0  0  0  0  0  0999 V2000
  175.1360   20.3790   47.1260 C   0  0  0  0  0  0  0  0  0  0  0  0
  176.6300   20.4830   47.2670 C   0  0  0  0  0  0  0  0  0  0  0  0
  177.4480   19.6220   46.5130 C   0  0  0  0  0  0  0  0  0  0  0  0
  178.8470   19.6680   46.6030 C   0  0  0  0  0  0  0  0  0  0  0  0
  179.6680   18.7300   45.8070 C   0  0  0  0  0  0  0  0  0  0  0  0
  179.1590   17.4370   45.8020 O   0  0  0  0  0  0  0  0  0  0  0  0
  179.8240   16.4650   45.1000 C   0  0  0  0  0  0  0  0  0  0  0  0
  179.2850   15.1770   45.1340 C   0  0  0  0  0  0  0  0  0  0  0  0
  179.9130   14.1420   44.4390 C   0  0  0  0  0  0  0  0  0  0  0  0
  181.0770   14.3920   43.7100 C   0  0  0  0  0  0  0  0  0  0  0  0
  181.6120   15.6770   43.6760 C   0  0  0  0  0  0  0  0  0  0  0  0
  182.7530   15.8520   42.9420 O   0  0  0  0  0  0  0  0  0  0  0  0
  180.9840   16.7130   44.3730 C   0  0  0  0  0  0  0  0  0  0  0  0
  181.5140   18.0780   44.3650 C   0  0  0  0  0  0  0  0  0  0  0  0
  182.5280   18.3790   43.7420 O   0  0  0  0  0  0  0  0  0  0  0  0
  180.7780   19.1030   45.1420 C   0  0  0  0  0  0  0  0  0  0  0  0
  181.2780   20.3910   45.1160 O   0  0  0  0  0  0  0  0  0  0  0  0
  179.4250   20.5840   47.4870 C   0  0  0  0  0  0  0  0  0  0  0  0
  178.6270   21.4390   48.2520 C   0  0  0  0  0  0  0  0  0  0  0  0
  177.2270   21.3930   48.1620 C   0  0  0  0  0  0  0  0  0  0  0  0
  176.4080   22.3490   48.9930 C   0  0  0  0  0  0  0  0  0  0  0  0
  176.2440   23.5700   48.4100 F   0  0  0  0  0  0  0  0  0  0  0  0
  174.6749   20.3469   48.1242 H   0  0  0  0  0  0  0  0  0  0  0  0
  174.7579   21.2530   46.5754 H   0  0  0  0  0  0  0  0  0  0  0  0
  174.8827   19.4610   46.5754 H   0  0  0  0  0  0  0  0  0  0  0  0
  176.9783   18.8939   45.8353 H   0  0  0  0  0  0  0  0  0  0  0  0
  178.3674   14.9785   45.7073 H   0  0  0  0  0  0  0  0  0  0  0  0
  179.4897   13.1271   44.4658 H   0  0  0  0  0  0  0  0  0  0  0  0
  181.5707   13.5751   43.1633 H   0  0  0  0  0  0  0  0  0  0  0  0
  182.8370   16.5940   42.3770 H   0  0  0  0  0  0  0  0  0  0  0  0
  181.6760   20.7230   44.3360 H   0  0  0  0  0  0  0  0  0  0  0  0
  180.5199   20.6323   47.5814 H   0  0  0  0  0  0  0  0  0  0  0  0
  179.1029   22.1585   48.9346 H   0  0  0  0  0  0  0  0  0  0  0  0
  175.4151   21.9052   49.1577 H   0  0  0  0  0  0  0  0  0  0  0  0
  176.9533   22.5096   49.9347 H   0  0  0  0  0  0  0  0  0  0  0  0
  1  2  1  0
  2  3  2  0
  3  4  1  0
  4  5  1  0
  5  6  1  0
  6  7  1  0
  7  8  2  0
  8  9  1  0
  9 10  2  0
 10 11  1  0
 11 12  1  0
 11 13  2  0
 13 14  1  0
 14 15  2  0
 14 16  1  0
 16 17  1  0
  4 18  2  0
 18 19  1  0
 19 20  2  0
 20 21  1  0
 21 22  1  0
 20  2  1  0
 16  5  2  0
 13  7  1  0
  1 23  1  0
  1 24  1  0
  1 25  1  0
  3 26  1  0
  8 27  1  0
  9 28  1  0
 10 29  1  0
 12 30  1  0
 17 31  1  0
 18 32  1  0
 19 33  1  0
 21 34  1  0
 21 35  1  0
M  END
>  <meeko>  (4) 
{"is_sidechain": [false], "free_energy": -7.249, "intermolecular_energy": -8.613, "internal_energy": -0.139}

$$$$
cand_037_out
     RDKit          3D

 35 37  0  0  0  0  0  0  0  0999 V2000
  181.9480   17.1100   42.3840 C   0  0  0  0  0  0  0  0  0  0  0  0
  181.0470   16.9920   43.5830 C   0  0  0  0  0  0  0  0  0  0  0  0
  180.7760   18.1410   44.3480 C   0  0  0  0  0  0  0  0  0  0  0  0
  179.9470   18.0950   45.4780 C   0  0  0  0  0  0  0  0  0  0  0  0
  179.7040   19.3230   46.2650 C   0  0  0  0  0  0  0  0  0  0  0  0
  178.3620   19.6830   46.3050 O   0  0  0  0  0  0  0  0  0  0  0  0
  177.9960   20.8050   47.0030 C   0  0  0  0  0  0  0  0  0  0  0  0
  176.6400   21.1370   47.0050 C   0  0  0  0  0  0  0  0  0  0  0  0
  176.2010   22.2660   47.6980 C   0  0  0  0  0  0  0  0  0  0  0  0
  177.1150   23.0630   48.3910 C   0  0  0  0  0  0  0  0  0  0  0  0
  178.4670   22.7290   48.3890 C   0  0  0  0  0  0  0  0  0  0  0  0
  179.3070   23.5510   49.0880 O   0  0  0  0  0  0  0  0  0  0  0  0
  178.9070   21.5990   47.6940 C   0  0  0  0  0  0  0  0  0  0  0  0
  180.3190   21.2130   47.6660 C   0  0  0  0  0  0  0  0  0  0  0  0
  181.1820   21.8580   48.2560 O   0  0  0  0  0  0  0  0  0  0  0  0
  180.6820   20.0020   46.8930 C   0  0  0  0  0  0  0  0  0  0  0  0
  182.0160   19.6390   46.8850 O   0  0  0  0  0  0  0  0  0  0  0  0
  179.4030   16.8620   45.8520 C   0  0  0  0  0  0  0  0  0  0  0  0
  179.6720   15.7090   45.1100 C   0  0  0  0  0  0  0  0  0  0  0  0
  180.5020   15.7540   43.9790 C   0  0  0  0  0  0  0  0  0  0  0  0
  180.7480   14.4870   43.1990 C   0  0  0  0  0  0  0  0  0  0  0  0
  180.0710   13.4100   43.6890 F   0  0  0  0  0  0  0  0  0  0  0  0
  182.9871   17.2461   42.7182 H   0  0  0  0  0  0  0  0  0  0  0  0
  181.8745   16.1946   41.7786 H   0  0  0  0  0  0  0  0  0  0  0  0
  181.6412   17.9756   41.7786 H   0  0  0  0  0  0  0  0  0  0  0  0
  181.2260   19.1002   44.0522 H   0  0  0  0  0  0  0  0  0  0  0  0
  175.9186   20.5096   46.4611 H   0  0  0  0  0  0  0  0  0  0  0  0
  175.1329   22.5288   47.6985 H   0  0  0  0  0  0  0  0  0  0  0  0
  176.7677   23.9525   48.9371 H   0  0  0  0  0  0  0  0  0  0  0  0
  180.0440   23.9410   48.6610 H   0  0  0  0  0  0  0  0  0  0  0  0
  182.2870   18.8440   47.3010 H   0  0  0  0  0  0  0  0  0  0  0  0
  178.7565   16.7993   46.7397 H   0  0  0  0  0  0  0  0  0  0  0  0
  179.2264   14.7513   45.4170 H   0  0  0  0  0  0  0  0  0  0  0  0
  180.4342   14.6520   42.1577 H   0  0  0  0  0  0  0  0  0  0  0  0
  181.8213   14.2597   43.2785 H   0  0  0  0  0  0  0  0  0  0  0  0
  1  2  1  0
  2  3  2  0
  3  4  1  0
  4  5  1  0
  5  6  1  0
  6  7  1  0
  7  8  2  0
  8  9  1  0
  9 10  2  0
 10 11  1  0
 11 12  1  0
 11 13  2  0
 13 14  1  0
 14 15  2  0
 14 16  1  0
 16 17  1  0
  4 18  2  0
 18 19  1  0
 19 20  2  0
 20 21  1  0
 21 22  1  0
 20  2  1  0
 16  5  2  0
 13  7  1  0
  1 23  1  0
  1 24  1  0
  1 25  1  0
  3 26  1  0
  8 27  1  0
  9 28  1  0
 10 29  1  0
 12 30  1  0
 17 31  1  0
 18 32  1  0
 19 33  1  0
 21 34  1  0
 21 35  1  0
M  END
>  <meeko>  (5) 
{"is_sidechain": [false], "free_energy": -6.646, "intermolecular_energy": -7.798, "internal_energy": -0.246}

$$$$
cand_037_out
     RDKit          3D

 35 37  0  0  0  0  0  0  0  0999 V2000
  179.7190   15.0510   45.2050 C   0  0  0  0  0  0  0  0  0  0  0  0
  179.9030   16.5410   45.1150 C   0  0  0  0  0  0  0  0  0  0  0  0
  179.0170   17.3810   45.8160 C   0  0  0  0  0  0  0  0  0  0  0  0
  179.1350   18.7780   45.7690 C   0  0  0  0  0  0  0  0  0  0  0  0
  178.1710   19.6240   46.5040 C   0  0  0  0  0  0  0  0  0  0  0  0
  178.7230   20.8270   46.9310 O   0  0  0  0  0  0  0  0  0  0  0  0
  177.9360   21.7080   47.6260 C   0  0  0  0  0  0  0  0  0  0  0  0
  178.5350   22.8970   48.0490 C   0  0  0  0  0  0  0  0  0  0  0  0
  177.7890   23.8380   48.7600 C   0  0  0  0  0  0  0  0  0  0  0  0
  176.4450   23.5940   49.0490 C   0  0  0  0  0  0  0  0  0  0  0  0
  175.8490   22.4080   48.6260 C   0  0  0  0  0  0  0  0  0  0  0  0
  174.5290   22.2330   48.9420 O   0  0  0  0  0  0  0  0  0  0  0  0
  176.5960   21.4650   47.9150 C   0  0  0  0  0  0  0  0  0  0  0  0
  176.0090   20.2060   47.4530 C   0  0  0  0  0  0  0  0  0  0  0  0
  174.8320   19.9220   47.6620 O   0  0  0  0  0  0  0  0  0  0  0  0
  176.8890   19.2700   46.7140 C   0  0  0  0  0  0  0  0  0  0  0  0
  176.3200   18.0910   46.2700 O   0  0  0  0  0  0  0  0  0  0  0  0
  180.1490   19.3330   44.9820 C   0  0  0  0  0  0  0  0  0  0  0  0
  181.0300   18.5140   44.2710 C   0  0  0  0  0  0  0  0  0  0  0  0
  180.9130   17.1160   44.3170 C   0  0  0  0  0  0  0  0  0  0  0  0
  181.8980   16.2720   43.5480 C   0  0  0  0  0  0  0  0  0  0  0  0
  181.4280   15.8610   42.3350 F   0  0  0  0  0  0  0  0  0  0  0  0
  179.6817   14.7493   46.2622 H   0  0  0  0  0  0  0  0  0  0  0  0
  178.7790   14.7670   44.7093 H   0  0  0  0  0  0  0  0  0  0  0  0
  180.5617   14.5469   44.7093 H   0  0  0  0  0  0  0  0  0  0  0  0
  178.2122   16.9306   46.4155 H   0  0  0  0  0  0  0  0  0  0  0  0
  179.5936   23.0913   47.8219 H   0  0  0  0  0  0  0  0  0  0  0  0
  178.2609   24.7740   49.0935 H   0  0  0  0  0  0  0  0  0  0  0  0
  175.8581   24.3366   49.6094 H   0  0  0  0  0  0  0  0  0  0  0  0
  173.8700   22.7180   48.4860 H   0  0  0  0  0  0  0  0  0  0  0  0
  176.8090   17.5150   45.7150 H   0  0  0  0  0  0  0  0  0  0  0  0
  180.2542   20.4263   44.9220 H   0  0  0  0  0  0  0  0  0  0  0  0
  181.8269   18.9715   43.6664 H   0  0  0  0  0  0  0  0  0  0  0  0
  182.8116   16.8628   43.3860 H   0  0  0  0  0  0  0  0  0  0  0  0
  182.0878   15.3684   44.1459 H   0  0  0  0  0  0  0  0  0  0  0  0
  1  2  1  0
  2  3  2  0
  3  4  1  0
  4  5  1  0
  5  6  1  0
  6  7  1  0
  7  8  2  0
  8  9  1  0
  9 10  2  0
 10 11  1  0
 11 12  1  0
 11 13  2  0
 13 14  1  0
 14 15  2  0
 14 16  1  0
 16 17  1  0
  4 18  2  0
 18 19  1  0
 19 20  2  0
 20 21  1  0
 21 22  1  0
 20  2  1  0
 16  5  2  0
 13  7  1  0
  1 23  1  0
  1 24  1  0
  1 25  1  0
  3 26  1  0
  8 27  1  0
  9 28  1  0
 10 29  1  0
 12 30  1  0
 17 31  1  0
 18 32  1  0
 19 33  1  0
 21 34  1  0
 21 35  1  0
M  END
>  <meeko>  (6) 
{"is_sidechain": [false], "free_energy": -6.503, "intermolecular_energy": -7.945, "internal_energy": 0.07}

$$$$
