cand_005_out
     RDKit          3D

 36 38  0  0  0  0  0  0  0  0999 V2000
  178.8330   13.9670   44.4430 C   0  0  0  0  0  0  0  0  0  0  0  0
  180.0640   14.4270   44.6960 C   0  0  0  0  0  0  0  0  0  0  0  0
  180.4580   15.8160   44.4300 C   0  0  0  0  0  0  0  0  0  0  0  0
  180.0100   16.8250   45.3020 C   0  0  0  0  0  0  0  0  0  0  0  0
  180.3360   18.1750   45.0940 C   0  0  0  0  0  0  0  0  0  0  0  0
  179.8660   19.1990   46.0500 C   0  0  0  0  0  0  0  0  0  0  0  0
  178.4830   19.2190   46.1850 O   0  0  0  0  0  0  0  0  0  0  0  0
  177.9130   20.1260   47.0420 C   0  0  0  0  0  0  0  0  0  0  0  0
  176.5230   20.1020   47.1580 C   0  0  0  0  0  0  0  0  0  0  0  0
  175.8800   21.0000   48.0120 C   0  0  0  0  0  0  0  0  0  0  0  0
  176.6250   21.9220   48.7500 C   0  0  0  0  0  0  0  0  0  0  0  0
  178.0130   21.9440   48.6320 C   0  0  0  0  0  0  0  0  0  0  0  0
  178.6810   22.8710   49.3830 O   0  0  0  0  0  0  0  0  0  0  0  0
  178.6560   21.0440   47.7780 C   0  0  0  0  0  0  0  0  0  0  0  0
  180.1120   21.0340   47.6260 C   0  0  0  0  0  0  0  0  0  0  0  0
  180.8370   21.8170   48.2350 O   0  0  0  0  0  0  0  0  0  0  0  0
  180.6960   20.0360   46.7000 C   0  0  0  0  0  0  0  0  0  0  0  0
  182.0710   20.0440   46.5510 O   0  0  0  0  0  0  0  0  0  0  0  0
  181.1370   18.5030   43.9960 C   0  0  0  0  0  0  0  0  0  0  0  0
  181.5850   17.5110   43.1190 C   0  0  0  0  0  0  0  0  0  0  0  0
  181.2510   16.1600   43.3200 C   0  0  0  0  0  0  0  0  0  0  0  0
  181.7620   15.1140   42.3570 C   0  0  0  0  0  0  0  0  0  0  0  0
  183.0690   14.7920   42.5620 F   0  0  0  0  0  0  0  0  0  0  0  0
  181.6870   15.5040   41.0500 F   0  0  0  0  0  0  0  0  0  0  0  0
  181.0660   13.9430   42.4210 F   0  0  0  0  0  0  0  0  0  0  0  0
  178.5828   12.9178   44.6586 H   0  0  0  0  0  0  0  0  0  0  0  0
  178.0713   14.6381   44.0194 H   0  0  0  0  0  0  0  0  0  0  0  0
  180.8094   13.7378   45.1196 H   0  0  0  0  0  0  0  0  0  0  0  0
  179.3894   16.5499   46.1676 H   0  0  0  0  0  0  0  0  0  0  0  0
  175.9343   19.3765   46.5774 H   0  0  0  0  0  0  0  0  0  0  0  0
  174.7840   20.9812   48.1037 H   0  0  0  0  0  0  0  0  0  0  0  0
  176.1174   22.6290   49.4227 H   0  0  0  0  0  0  0  0  0  0  0  0
  179.3480   22.5980   49.9810 H   0  0  0  0  0  0  0  0  0  0  0  0
  182.6210   19.7800   47.2620 H   0  0  0  0  0  0  0  0  0  0  0  0
  181.4174   19.5521   43.8205 H   0  0  0  0  0  0  0  0  0  0  0  0
  182.2089   17.7918   42.2577 H   0  0  0  0  0  0  0  0  0  0  0  0
  1  2  2  0
  2  3  1  0
  3  4  2  0
  4  5  1  0
  5  6  1  0
  6  7  1  0
  7  8  1  0
  8  9  2  0
  9 10  1  0
 10 11  2  0
 11 12  1  0
 12 13  1  0
 12 14  2  0
 14 15  1  0
 15 16  2  0
 15 17  1  0
 17 18  1  0
  5 19  2  0
 19 20  1  0
 20 21  2  0
 21 22  1  0
 22 23  1  0
 22 24  1  0
 22 25  1  0
 21  3  1  0
 17  6  2  0
 14  8  1  0
  1 26  1  0
  1 27  1  0
  2 28  1  0
  4 29  1  0
  9 30  1  0
 10 31  1  0
 11 32  1  0
 13 33  1  0
 18 34  1  0
 19 35  1  0
 20 36  1  0
M  END
>  <meeko>  (1) 
{"is_sidechain": [false], "free_energy": -8.33, "intermolecular_energy": -10.278, "internal_energy": 0.132}

$$$$
cand_005_out
     RDKit          3D

 36 38  0  0  0  0  0  0  0  0999 V2000
  174.8530   20.0840   47.6060 C   0  0  0  0  0  0  0  0  0  0  0  0
  175.6490   20.9590   46.9810 C   0  0  0  0  0  0  0  0  0  0  0  0
  177.1120   20.9330   47.1150 C   0  0  0  0  0  0  0  0  0  0  0  0
  177.8390   19.9620   46.4020 C   0  0  0  0  0  0  0  0  0  0  0  0
  179.2360   19.8700   46.5000 C   0  0  0  0  0  0  0  0  0  0  0  0
  179.9630   18.8510   45.7140 C   0  0  0  0  0  0  0  0  0  0  0  0
  179.3640   17.5980   45.7680 O   0  0  0  0  0  0  0  0  0  0  0  0
  179.9400   16.5590   45.0820 C   0  0  0  0  0  0  0  0  0  0  0  0
  179.2990   15.3210   45.1530 C   0  0  0  0  0  0  0  0  0  0  0  0
  179.8330   14.2210   44.4790 C   0  0  0  0  0  0  0  0  0  0  0  0
  181.0060   14.3580   43.7340 C   0  0  0  0  0  0  0  0  0  0  0  0
  181.6440   15.5940   43.6660 C   0  0  0  0  0  0  0  0  0  0  0  0
  182.7880   15.6570   42.9200 O   0  0  0  0  0  0  0  0  0  0  0  0
  181.1090   16.6950   44.3400 C   0  0  0  0  0  0  0  0  0  0  0  0
  181.7470   18.0110   44.2930 C   0  0  0  0  0  0  0  0  0  0  0  0
  182.7850   18.2110   43.6660 O   0  0  0  0  0  0  0  0  0  0  0  0
  181.0960   19.1140   45.0370 C   0  0  0  0  0  0  0  0  0  0  0  0
  181.7140   20.3500   44.9990 O   0  0  0  0  0  0  0  0  0  0  0  0
  179.9050   20.7840   47.3200 C   0  0  0  0  0  0  0  0  0  0  0  0
  179.1950   21.7510   48.0380 C   0  0  0  0  0  0  0  0  0  0  0  0
  177.7940   21.8370   47.9490 C   0  0  0  0  0  0  0  0  0  0  0  0
  177.0610   22.9020   48.7310 C   0  0  0  0  0  0  0  0  0  0  0  0
  176.2360   22.3910   49.6870 F   0  0  0  0  0  0  0  0  0  0  0  0
  176.2650   23.6900   47.9500 F   0  0  0  0  0  0  0  0  0  0  0  0
  177.9000   23.7640   49.3730 F   0  0  0  0  0  0  0  0  0  0  0  0
  173.7623   20.1422   47.4756 H   0  0  0  0  0  0  0  0  0  0  0  0
  175.2892   19.3064   48.2502 H   0  0  0  0  0  0  0  0  0  0  0  0
  175.1904   21.7279   46.3419 H   0  0  0  0  0  0  0  0  0  0  0  0
  177.2992   19.2578   45.7519 H   0  0  0  0  0  0  0  0  0  0  0  0
  178.3745   15.2122   45.7391 H   0  0  0  0  0  0  0  0  0  0  0  0
  179.3288   13.2449   44.5350 H   0  0  0  0  0  0  0  0  0  0  0  0
  181.4253   13.4914   43.2019 H   0  0  0  0  0  0  0  0  0  0  0  0
  183.4880   15.0570   43.0830 H   0  0  0  0  0  0  0  0  0  0  0  0
  182.3690   20.5680   45.6330 H   0  0  0  0  0  0  0  0  0  0  0  0
  181.0012   20.7417   47.4010 H   0  0  0  0  0  0  0  0  0  0  0  0
  179.7407   22.4557   48.6827 H   0  0  0  0  0  0  0  0  0  0  0  0
  1  2  2  0
  2  3  1  0
  3  4  2  0
  4  5  1  0
  5  6  1  0
  6  7  1  0
  7  8  1  0
  8  9  2  0
  9 10  1  0
 10 11  2  0
 11 12  1  0
 12 13  1  0
 12 14  2  0
 14 15  1  0
 15 16  2  0
 15 17  1  0
 17 18  1  0
  5 19  2  0
 19 20  1  0
 20 21  2  0
 21 22  1  0
 22 23  1  0
 22 24  1  0
 22 25  1  0
 21  3  1  0
 17  6  2  0
 14  8  1  0
  1 26  1  0
  1 27  1  0
  2 28  1  0
  4 29  1  0
  9 30  1  0
 10 31  1  0
 11 32  1  0
 13 33  1  0
 18 34  1  0
 19 35  1  0
 20 36  1  0
M  END
>  <meeko>  (2) 
{"is_sidechain": [false], "free_energy": -7.966, "intermolecular_energy": -9.384, "internal_energy": -0.313}

$$$$
cand_005_out
     RDKit          3D

 36 38  0  0  0  0  0  0  0  0999 V2000
  181.2250   17.1450   41.0430 C   0  0  0  0  0  0  0  0  0  0  0  0
  181.7800   17.1120   42.2600 C   0  0  0  0  0  0  0  0  0  0  0  0
  180.9870   16.9550   43.4860 C   0  0  0  0  0  0  0  0  0  0  0  0
  180.7350   18.0890   44.2790 C   0  0  0  0  0  0  0  0  0  0  0  0
  180.0000   18.0040   45.4720 C   0  0  0  0  0  0  0  0  0  0  0  0
  179.7370   19.2250   46.2620 C   0  0  0  0  0  0  0  0  0  0  0  0
  178.3980   19.5980   46.2510 O   0  0  0  0  0  0  0  0  0  0  0  0
  178.0170   20.7180   46.9450 C   0  0  0  0  0  0  0  0  0  0  0  0
  176.6610   21.0480   46.9200 C   0  0  0  0  0  0  0  0  0  0  0  0
  176.2060   22.1770   47.6040 C   0  0  0  0  0  0  0  0  0  0  0  0
  177.1050   22.9760   48.3130 C   0  0  0  0  0  0  0  0  0  0  0  0
  178.4580   22.6440   48.3360 C   0  0  0  0  0  0  0  0  0  0  0  0
  179.2830   23.4700   49.0500 O   0  0  0  0  0  0  0  0  0  0  0  0
  178.9130   21.5140   47.6520 C   0  0  0  0  0  0  0  0  0  0  0  0
  180.3250   21.1310   47.6520 C   0  0  0  0  0  0  0  0  0  0  0  0
  181.1790   21.7850   48.2470 O   0  0  0  0  0  0  0  0  0  0  0  0
  180.7030   19.9110   46.9010 C   0  0  0  0  0  0  0  0  0  0  0  0
  182.0410   19.5650   46.8940 O   0  0  0  0  0  0  0  0  0  0  0  0
  179.5040   16.7550   45.8580 C   0  0  0  0  0  0  0  0  0  0  0  0
  179.7510   15.6190   45.0820 C   0  0  0  0  0  0  0  0  0  0  0  0
  180.4960   15.7010   43.8920 C   0  0  0  0  0  0  0  0  0  0  0  0
  180.7340   14.4530   43.0740 C   0  0  0  0  0  0  0  0  0  0  0  0
  182.0360   14.2910   42.7120 F   0  0  0  0  0  0  0  0  0  0  0  0
  180.0290   14.4340   41.9050 F   0  0  0  0  0  0  0  0  0  0  0  0
  180.3750   13.3110   43.7260 F   0  0  0  0  0  0  0  0  0  0  0  0
  181.8593   17.2644   40.1523 H   0  0  0  0  0  0  0  0  0  0  0  0
  180.1344   17.0527   40.9332 H   0  0  0  0  0  0  0  0  0  0  0  0
  182.8726   17.2061   42.3455 H   0  0  0  0  0  0  0  0  0  0  0  0
  181.1233   19.0663   43.9565 H   0  0  0  0  0  0  0  0  0  0  0  0
  175.9515   20.4193   46.3620 H   0  0  0  0  0  0  0  0  0  0  0  0
  175.1374   22.4374   47.5842 H   0  0  0  0  0  0  0  0  0  0  0  0
  176.7461   23.8652   48.8520 H   0  0  0  0  0  0  0  0  0  0  0  0
  180.1430   23.1830   49.2860 H   0  0  0  0  0  0  0  0  0  0  0  0
  182.3860   19.0100   47.5660 H   0  0  0  0  0  0  0  0  0  0  0  0
  178.9134   16.6655   46.7817 H   0  0  0  0  0  0  0  0  0  0  0  0
  179.3563   14.6451   45.4073 H   0  0  0  0  0  0  0  0  0  0  0  0
  1  2  2  0
  2  3  1  0
  3  4  2  0
  4  5  1  0
  5  6  1  0
  6  7  1  0
  7  8  1  0
  8  9  2  0
  9 10  1  0
 10 11  2  0
 11 12  1  0
 12 13  1  0
 12 14  2  0
 14 15  1  0
 15 16  2  0
 15 17  1  0
 17 18  1  0
  5 19  2  0
 19 20  1  0
 20 21  2  0
 21 22  1  0
 22 23  1  0
 22 24  1  0
 22 25  1  0
 21  3  1  0
 17  6  2  0
 14  8  1  0
  1 26  1  0
  1 27  1  0
  2 28  1  0
  4 29  1  0
  9 30  1  0
 10 31  1  0
 11 32  1  0
 13 33  1  0
 18 34  1  0
 19 35  1  0
 20 36  1  0
M  END
>  <meeko>  (3) 
{"is_sidechain": [false], "free_energy": -7.48, "intermolecular_energy": -8.802, "internal_energy": -0.295}

$$$$
cand_005_out
     RDKit          3D

 36 38  0  0  0  0  0  0  0  0999 V2000
  178.6050   23.8480   47.5850 C   0  0  0  0  0  0  0  0  0  0  0  0
  178.4120   22.7500   48.3260 C   0  0  0  0  0  0  0  0  0  0  0  0
  177.8830   21.5010   47.7650 C   0  0  0  0  0  0  0  0  0  0  0  0
  178.7530   20.6590   47.0480 C   0  0  0  0  0  0  0  0  0  0  0  0
  178.3050   19.4600   46.4710 C   0  0  0  0  0  0  0  0  0  0  0  0
  179.2590   18.5930   45.7470 C   0  0  0  0  0  0  0  0  0  0  0  0
  178.8910   17.2530   45.7630 O   0  0  0  0  0  0  0  0  0  0  0  0
  179.6930   16.3390   45.1280 C   0  0  0  0  0  0  0  0  0  0  0  0
  179.2800   15.0060   45.1570 C   0  0  0  0  0  0  0  0  0  0  0  0
  180.0500   14.0240   44.5310 C   0  0  0  0  0  0  0  0  0  0  0  0
  181.2330   14.3730   43.8760 C   0  0  0  0  0  0  0  0  0  0  0  0
  181.6430   15.7040   43.8500 C   0  0  0  0  0  0  0  0  0  0  0  0
  182.8110   15.9760   43.1920 O   0  0  0  0  0  0  0  0  0  0  0  0
  180.8710   16.6860   44.4750 C   0  0  0  0  0  0  0  0  0  0  0  0
  181.2670   18.0960   44.4690 C   0  0  0  0  0  0  0  0  0  0  0  0
  182.2970   18.4820   43.9210 O   0  0  0  0  0  0  0  0  0  0  0  0
  180.3750   19.0590   45.1570 C   0  0  0  0  0  0  0  0  0  0  0  0
  180.7640   20.3860   45.1580 O   0  0  0  0  0  0  0  0  0  0  0  0
  176.9640   19.1040   46.6360 C   0  0  0  0  0  0  0  0  0  0  0  0
  176.0880   19.9320   47.3420 C   0  0  0  0  0  0  0  0  0  0  0  0
  176.5310   21.1390   47.9120 C   0  0  0  0  0  0  0  0  0  0  0  0
  175.5580   22.0050   48.6780 C   0  0  0  0  0  0  0  0  0  0  0  0
  175.7090   21.9130   50.0280 F   0  0  0  0  0  0  0  0  0  0  0  0
  174.2520   21.6870   48.4380 F   0  0  0  0  0  0  0  0  0  0  0  0
  175.6660   23.3290   48.3710 F   0  0  0  0  0  0  0  0  0  0  0  0
  179.0040   24.7618   48.0494 H   0  0  0  0  0  0  0  0  0  0  0  0
  178.3646   23.8364   46.5116 H   0  0  0  0  0  0  0  0  0  0  0  0
  178.6595   22.7851   49.3972 H   0  0  0  0  0  0  0  0  0  0  0  0
  179.8088   20.9469   46.9370 H   0  0  0  0  0  0  0  0  0  0  0  0
  178.3486   14.7294   45.6727 H   0  0  0  0  0  0  0  0  0  0  0  0
  179.7243   12.9736   44.5537 H   0  0  0  0  0  0  0  0  0  0  0  0
  181.8391   13.5992   43.3822 H   0  0  0  0  0  0  0  0  0  0  0  0
  182.9850   16.8440   42.8850 H   0  0  0  0  0  0  0  0  0  0  0  0
  181.5090   20.6570   44.6600 H   0  0  0  0  0  0  0  0  0  0  0  0
  176.5942   18.1618   46.2054 H   0  0  0  0  0  0  0  0  0  0  0  0
  175.0347   19.6352   47.4539 H   0  0  0  0  0  0  0  0  0  0  0  0
  1  2  2  0
  2  3  1  0
  3  4  2  0
  4  5  1  0
  5  6  1  0
  6  7  1  0
  7  8  1  0
  8  9  2  0
  9 10  1  0
 10 11  2  0
 11 12  1  0
 12 13  1  0
 12 14  2  0
 14 15  1  0
 15 16  2  0
 15 17  1  0
 17 18  1  0
  5 19  2  0
 19 20  1  0
 20 21  2  0
 21 22  1  0
 22 23  1  0
 22 24  1  0
 22 25  1  0
 21  3  1  0
 17  6  2  0
 14  8  1  0
  1 26  1  0
  1 27  1  0
  2 28  1  0
  4 29  1  0
  9 30  1  0
 10 31  1  0
 11 32  1  0
 13 33  1  0
 18 34  1  0
 19 35  1  0
 20 36  1  0
M  END
>  <meeko>  (4) 
{"is_sidechain": [false], "free_energy": -7.354, "intermolecular_energy": -9.066, "internal_energy": 0.125}

$$$$
cand_005_out
     RDKit          3D

 36 38  0  0  0  0  0  0  0  0999 V2000
  178.9160   14.1760   44.3000 C   0  0  0  0  0  0  0  0  0  0  0  0
  179.6070   14.8720   45.2090 C   0  0  0  0  0  0  0  0  0  0  0  0
  179.8780   16.3080   45.0660 C   0  0  0  0  0  0  0  0  0  0  0  0
  179.0390   17.2250   45.7270 C   0  0  0  0  0  0  0  0  0  0  0  0
  179.2320   18.6110   45.6160 C   0  0  0  0  0  0  0  0  0  0  0  0
  178.3420   19.5370   46.3480 C   0  0  0  0  0  0  0  0  0  0  0  0
  178.9930   20.6880   46.7740 O   0  0  0  0  0  0  0  0  0  0  0  0
  178.2810   21.6330   47.4690 C   0  0  0  0  0  0  0  0  0  0  0  0
  178.9700   22.7790   47.8670 C   0  0  0  0  0  0  0  0  0  0  0  0
  178.3050   23.7790   48.5790 C   0  0  0  0  0  0  0  0  0  0  0  0
  176.9520   23.6340   48.8930 C   0  0  0  0  0  0  0  0  0  0  0  0
  176.2680   22.4880   48.4960 C   0  0  0  0  0  0  0  0  0  0  0  0
  174.9460   22.4100   48.8370 O   0  0  0  0  0  0  0  0  0  0  0  0
  176.9340   21.4880   47.7820 C   0  0  0  0  0  0  0  0  0  0  0  0
  176.2500   20.2690   47.3460 C   0  0  0  0  0  0  0  0  0  0  0  0
  175.0630   20.0640   47.5890 O   0  0  0  0  0  0  0  0  0  0  0  0
  177.0450   19.2730   46.5900 C   0  0  0  0  0  0  0  0  0  0  0  0
  176.3950   18.1190   46.1940 O   0  0  0  0  0  0  0  0  0  0  0  0
  180.2980   19.0720   44.8370 C   0  0  0  0  0  0  0  0  0  0  0  0
  181.1360   18.1740   44.1720 C   0  0  0  0  0  0  0  0  0  0  0  0
  180.9380   16.7850   44.2730 C   0  0  0  0  0  0  0  0  0  0  0  0
  181.8710   15.8440   43.5480 C   0  0  0  0  0  0  0  0  0  0  0  0
  182.2280   14.7630   44.2960 F   0  0  0  0  0  0  0  0  0  0  0  0
  183.0460   16.4310   43.1770 F   0  0  0  0  0  0  0  0  0  0  0  0
  181.3390   15.3480   42.3940 F   0  0  0  0  0  0  0  0  0  0  0  0
  178.7375   13.1010   44.4497 H   0  0  0  0  0  0  0  0  0  0  0  0
  178.5261   14.6785   43.4025 H   0  0  0  0  0  0  0  0  0  0  0  0
  179.9872   14.3484   46.0985 H   0  0  0  0  0  0  0  0  0  0  0  0
  178.2120   16.8462   46.3456 H   0  0  0  0  0  0  0  0  0  0  0  0
  180.0357   22.8945   47.6202 H   0  0  0  0  0  0  0  0  0  0  0  0
  178.8477   24.6827   48.8932 H   0  0  0  0  0  0  0  0  0  0  0  0
  176.4280   24.4230   49.4524 H   0  0  0  0  0  0  0  0  0  0  0  0
  174.3110   22.9210   48.3740 H   0  0  0  0  0  0  0  0  0  0  0  0
  176.7680   17.5750   45.5290 H   0  0  0  0  0  0  0  0  0  0  0  0
  180.4785   20.1534   44.7470 H   0  0  0  0  0  0  0  0  0  0  0  0
  181.9643   18.5593   43.5593 H   0  0  0  0  0  0  0  0  0  0  0  0
  1  2  2  0
  2  3  1  0
  3  4  2  0
  4  5  1  0
  5  6  1  0
  6  7  1  0
  7  8  1  0
  8  9  2  0
  9 10  1  0
 10 11  2  0
 11 12  1  0
 12 13  1  0
 12 14  2  0
 14 15  1  0
 15 16  2  0
 15 17  1  0
 17 18  1  0
  5 19  2  0
 19 20  1  0
 20 21  2  0
 21 22  1  0
 22 23  1  0
 22 24  1  0
 22 25  1  0
 21  3  1  0
 17  6  2  0
 14  8  1  0
  1 26  1  0
  1 27  1  0
  2 28  1  0
  4 29  1  0
  9 30  1  0
 10 31  1  0
 11 32  1  0
 13 33  1  0
 18 34  1  0
 19 35  1  0
 20 36  1  0
M  END
>  <meeko>  (5) 
{"is_sidechain": [false], "free_energy": -6.648, "intermolecular_energy": -8.123, "internal_energy": 0.053}

$$$$
cand_005_out
     RDKit          3D

 36 38  0  0  0  0  0  0  0  0999 V2000
  176.3140   20.6110   46.4760 C   0  0  0  0  0  0  0  0  0  0  0  0
  177.2400   19.9130   47.1430 C   0  0  0  0  0  0  0  0  0  0  0  0
  178.6150   19.7520   46.6540 C   0  0  0  0  0  0  0  0  0  0  0  0
  178.9020   18.6860   45.7810 C   0  0  0  0  0  0  0  0  0  0  0  0
  180.1990   18.4660   45.2910 C   0  0  0  0  0  0  0  0  0  0  0  0
  180.4500   17.3490   44.3560 C   0  0  0  0  0  0  0  0  0  0  0  0
  180.7420   17.7790   43.0670 O   0  0  0  0  0  0  0  0  0  0  0  0
  180.9950   16.8420   42.0980 C   0  0  0  0  0  0  0  0  0  0  0  0
  181.2970   17.3170   40.8200 C   0  0  0  0  0  0  0  0  0  0  0  0
  181.5630   16.4170   39.7870 C   0  0  0  0  0  0  0  0  0  0  0  0
  181.5280   15.0420   40.0300 C   0  0  0  0  0  0  0  0  0  0  0  0
  181.2250   14.5700   41.3050 C   0  0  0  0  0  0  0  0  0  0  0  0
  181.2080   13.2130   41.4730 O   0  0  0  0  0  0  0  0  0  0  0  0
  180.9600   15.4720   42.3390 C   0  0  0  0  0  0  0  0  0  0  0  0
  180.6390   15.0180   43.6930 C   0  0  0  0  0  0  0  0  0  0  0  0
  180.5820   13.8250   43.9840 O   0  0  0  0  0  0  0  0  0  0  0  0
  180.3800   16.0550   44.7190 C   0  0  0  0  0  0  0  0  0  0  0  0
  180.0630   15.6170   45.9910 O   0  0  0  0  0  0  0  0  0  0  0  0
  181.2130   19.3450   45.6810 C   0  0  0  0  0  0  0  0  0  0  0  0
  180.9440   20.4040   46.5510 C   0  0  0  0  0  0  0  0  0  0  0  0
  179.6470   20.6210   47.0510 C   0  0  0  0  0  0  0  0  0  0  0  0
  179.3910   21.7830   47.9810 C   0  0  0  0  0  0  0  0  0  0  0  0
  178.6250   21.4490   49.0570 F   0  0  0  0  0  0  0  0  0  0  0  0
  178.7360   22.8190   47.3800 F   0  0  0  0  0  0  0  0  0  0  0  0
  180.5360   22.3270   48.4840 F   0  0  0  0  0  0  0  0  0  0  0  0
  175.2962   20.7036   46.8828 H   0  0  0  0  0  0  0  0  0  0  0  0
  176.5704   21.0923   45.5207 H   0  0  0  0  0  0  0  0  0  0  0  0
  176.9600   19.4407   48.0962 H   0  0  0  0  0  0  0  0  0  0  0  0
  178.0906   18.0091   45.4753 H   0  0  0  0  0  0  0  0  0  0  0  0
  181.3252   18.3997   40.6276 H   0  0  0  0  0  0  0  0  0  0  0  0
  181.8005   16.7910   38.7802 H   0  0  0  0  0  0  0  0  0  0  0  0
  181.7393   14.3331   39.2159 H   0  0  0  0  0  0  0  0  0  0  0  0
  180.3910   12.7560   41.5130 H   0  0  0  0  0  0  0  0  0  0  0  0
  180.7340   15.5390   46.6410 H   0  0  0  0  0  0  0  0  0  0  0  0
  182.2343   19.2013   45.2986 H   0  0  0  0  0  0  0  0  0  0  0  0
  181.7593   21.0792   46.8500 H   0  0  0  0  0  0  0  0  0  0  0  0
  1  2  2  0
  2  3  1  0
  3  4  2  0
  4  5  1  0
  5  6  1  0
  6  7  1  0
  7  8  1  0
  8  9  2  0
  9 10  1  0
 10 11  2  0
 11 12  1  0
 12 13  1  0
 12 14  2  0
 14 15  1  0
 15 16  2  0
 15 17  1  0
 17 18  1  0
  5 19  2  0
 19 20  1  0
 20 21  2  0
 21 22  1  0
 22 23  1  0
 22 24  1  0
 22 25  1  0
 21  3  1  0
 17  6  2  0
 14  8  1  0
  1 26  1  0
  1 27  1  0
  2 28  1  0
  4 29  1  0
  9 30  1  0
 10 31  1  0
 11 32  1  0
 13 33  1  0
 18 34  1  0
 19 35  1  0
 20 36  1  0
M  END
>  <meeko>  (6) 
{"is_sidechain": [false], "free_energy": -6.195, "intermolecular_energy": -7.036, "internal_energy": -0.475}

$$$$
cand_005_out
     RDKit          3D

 36 38  0  0  0  0  0  0  0  0999 V2000
  178.4540   23.5460   47.2980 C   0  0  0  0  0  0  0  0  0  0  0  0
  178.8340   22.3010   47.6060 C   0  0  0  0  0  0  0  0  0  0  0  0
  179.8810   21.5870   46.8630 C   0  0  0  0  0  0  0  0  0  0  0  0
  181.1320   22.2090   46.6910 C   0  0  0  0  0  0  0  0  0  0  0  0
  182.1680   21.5890   45.9760 C   0  0  0  0  0  0  0  0  0  0  0  0
  183.4750   22.2660   45.8410 C   0  0  0  0  0  0  0  0  0  0  0  0
  184.0970   22.0060   44.6260 O   0  0  0  0  0  0  0  0  0  0  0  0
  185.3200   22.5730   44.3730 C   0  0  0  0  0  0  0  0  0  0  0  0
  185.9030   22.2960   43.1350 C   0  0  0  0  0  0  0  0  0  0  0  0
  187.1480   22.8410   42.8150 C   0  0  0  0  0  0  0  0  0  0  0  0
  187.8100   23.6620   43.7300 C   0  0  0  0  0  0  0  0  0  0  0  0
  187.2270   23.9350   44.9650 C   0  0  0  0  0  0  0  0  0  0  0  0
  187.9300   24.7450   45.8130 O   0  0  0  0  0  0  0  0  0  0  0  0
  185.9800   23.3910   45.2850 C   0  0  0  0  0  0  0  0  0  0  0  0
  185.3330   23.6540   46.5710 C   0  0  0  0  0  0  0  0  0  0  0  0
  185.8540   24.3600   47.4310 O   0  0  0  0  0  0  0  0  0  0  0  0
  184.0080   23.0340   46.8090 C   0  0  0  0  0  0  0  0  0  0  0  0
  183.4110   23.2770   48.0320 O   0  0  0  0  0  0  0  0  0  0  0  0
  181.9380   20.3180   45.4400 C   0  0  0  0  0  0  0  0  0  0  0  0
  180.6990   19.6910   45.5990 C   0  0  0  0  0  0  0  0  0  0  0  0
  179.6550   20.3150   46.3060 C   0  0  0  0  0  0  0  0  0  0  0  0
  178.3330   19.6030   46.4670 C   0  0  0  0  0  0  0  0  0  0  0  0
  177.8670   19.6220   47.7460 F   0  0  0  0  0  0  0  0  0  0  0  0
  178.3870   18.2830   46.1220 F   0  0  0  0  0  0  0  0  0  0  0  0
  177.3430   20.1340   45.6930 F   0  0  0  0  0  0  0  0  0  0  0  0
  177.6650   24.0409   47.8833 H   0  0  0  0  0  0  0  0  0  0  0  0
  178.9305   24.0749   46.4595 H   0  0  0  0  0  0  0  0  0  0  0  0
  178.3433   21.7919   48.4486 H   0  0  0  0  0  0  0  0  0  0  0  0
  181.3014   23.2044   47.1273 H   0  0  0  0  0  0  0  0  0  0  0  0
  185.3824   21.6496   42.4131 H   0  0  0  0  0  0  0  0  0  0  0  0
  187.6083   22.6231   41.8400 H   0  0  0  0  0  0  0  0  0  0  0  0
  188.7900   24.0923   43.4760 H   0  0  0  0  0  0  0  0  0  0  0  0
  187.7830   25.6700   45.8070 H   0  0  0  0  0  0  0  0  0  0  0  0
  183.7030   23.9910   48.5640 H   0  0  0  0  0  0  0  0  0  0  0  0
  182.7402   19.8066   44.8877 H   0  0  0  0  0  0  0  0  0  0  0  0
  180.5376   18.6935   45.1643 H   0  0  0  0  0  0  0  0  0  0  0  0
  1  2  2  0
  2  3  1  0
  3  4  2  0
  4  5  1  0
  5  6  1  0
  6  7  1  0
  7  8  1  0
  8  9  2  0
  9 10  1  0
 10 11  2  0
 11 12  1  0
 12 13  1  0
 12 14  2  0
 14 15  1  0
 15 16  2  0
 15 17  1  0
 17 18  1  0
  5 19  2  0
 19 20  1  0
 20 21  2  0
 21 22  1  0
 22 23  1  0
 22 24  1  0
 22 25  1  0
 21  3  1  0
 17  6  2  0
 14  8  1  0
  1 26  1  0
  1 27  1  0
  2 28  1  0
  4 29  1  0
  9 30  1  0
 10 31  1  0
 11 32  1  0
 13 33  1  0
 18 34  1  0
 19 35  1  0
 20 36  1  0
M  END
>  <meeko>  (7) 
{"is_sidechain": [false], "free_energy": -5.891, "intermolecular_energy": -7.037, "internal_energy": -0.099}

$$$$
cand_005_out
     RDKit          3D

 36 38  0  0  0  0  0  0  0  0999 V2000
  178.4720   23.0350   47.4130 C   0  0  0  0  0  0  0  0  0  0  0  0
  179.2410   21.9980   47.7660 C   0  0  0  0  0  0  0  0  0  0  0  0
  180.4030   21.5710   46.9770 C   0  0  0  0  0  0  0  0  0  0  0  0
  181.5390   22.4000   46.9410 C   0  0  0  0  0  0  0  0  0  0  0  0
  182.6760   22.0590   46.1910 C   0  0  0  0  0  0  0  0  0  0  0  0
  183.8570   22.9480   46.2030 C   0  0  0  0  0  0  0  0  0  0  0  0
  184.1840   23.3950   47.4770 O   0  0  0  0  0  0  0  0  0  0  0  0
  185.2620   24.2310   47.6290 C   0  0  0  0  0  0  0  0  0  0  0  0
  185.5640   24.6460   48.9270 C   0  0  0  0  0  0  0  0  0  0  0  0
  186.6470   25.4980   49.1510 C   0  0  0  0  0  0  0  0  0  0  0  0
  187.4290   25.9350   48.0790 C   0  0  0  0  0  0  0  0  0  0  0  0
  187.1240   25.5190   46.7850 C   0  0  0  0  0  0  0  0  0  0  0  0
  187.9300   25.9850   45.7830 O   0  0  0  0  0  0  0  0  0  0  0  0
  186.0410   24.6660   46.5610 C   0  0  0  0  0  0  0  0  0  0  0  0
  185.6880   24.2060   45.2170 C   0  0  0  0  0  0  0  0  0  0  0  0
  186.3220   24.5510   44.2220 O   0  0  0  0  0  0  0  0  0  0  0  0
  184.5250   23.2980   45.0880 C   0  0  0  0  0  0  0  0  0  0  0  0
  184.1900   22.8800   43.8130 O   0  0  0  0  0  0  0  0  0  0  0  0
  182.6650   20.8550   45.4800 C   0  0  0  0  0  0  0  0  0  0  0  0
  181.5420   20.0240   45.5030 C   0  0  0  0  0  0  0  0  0  0  0  0
  180.3980   20.3690   46.2450 C   0  0  0  0  0  0  0  0  0  0  0  0
  179.2070   19.4410   46.2550 C   0  0  0  0  0  0  0  0  0  0  0  0
  179.5070   18.1810   45.8340 F   0  0  0  0  0  0  0  0  0  0  0  0
  178.1910   19.8600   45.4440 F   0  0  0  0  0  0  0  0  0  0  0  0
  178.6450   19.3050   47.4900 F   0  0  0  0  0  0  0  0  0  0  0  0
  177.6109   23.3184   48.0360 H   0  0  0  0  0  0  0  0  0  0  0  0
  178.7011   23.6039   46.4998 H   0  0  0  0  0  0  0  0  0  0  0  0
  178.9926   21.4440   48.6832 H   0  0  0  0  0  0  0  0  0  0  0  0
  181.5365   23.3386   47.5146 H   0  0  0  0  0  0  0  0  0  0  0  0
  184.9496   24.3022   49.7722 H   0  0  0  0  0  0  0  0  0  0  0  0
  186.8851   25.8259   50.1736 H   0  0  0  0  0  0  0  0  0  0  0  0
  188.2829   26.6055   48.2562 H   0  0  0  0  0  0  0  0  0  0  0  0
  188.0680   26.9060   45.6820 H   0  0  0  0  0  0  0  0  0  0  0  0
  184.7330   23.1130   43.0860 H   0  0  0  0  0  0  0  0  0  0  0  0
  183.5494   20.5591   44.8967 H   0  0  0  0  0  0  0  0  0  0  0  0
  181.5528   19.0843   44.9313 H   0  0  0  0  0  0  0  0  0  0  0  0
  1  2  2  0
  2  3  1  0
  3  4  2  0
  4  5  1  0
  5  6  1  0
  6  7  1  0
  7  8  1  0
  8  9  2  0
  9 10  1  0
 10 11  2  0
 11 12  1  0
 12 13  1  0
 12 14  2  0
 14 15  1  0
 15 16  2  0
 15 17  1  0
 17 18  1  0
  5 19  2  0
 19 20  1  0
 20 21  2  0
 21 22  1  0
 22 23  1  0
 22 24  1  0
 22 25  1  0
 21  3  1  0
 17  6  2  0
 14  8  1  0
  1 26  1  0
  1 27  1  0
  2 28  1  0
  4 29  1  0
  9 30  1  0
 10 31  1  0
 11 32  1  0
 13 33  1  0
 18 34  1  0
 19 35  1  0
 20 36  1  0
M  END
>  <meeko>  (8) 
{"is_sidechain": [false], "free_energy": -5.824, "intermolecular_energy": -6.79, "internal_energy": -0.264}

$$$$
cand_005_out
     RDKit          3D

 36 38  0  0  0  0  0  0  0  0999 V2000
  186.0740   24.1270   48.6970 C   0  0  0  0  0  0  0  0  0  0  0  0
  185.4600   24.5590   47.5890 C   0  0  0  0  0  0  0  0  0  0  0  0
  184.9180   23.6420   46.5780 C   0  0  0  0  0  0  0  0  0  0  0  0
  183.6770   23.0240   46.8210 C   0  0  0  0  0  0  0  0  0  0  0  0
  183.1120   22.1240   45.9040 C   0  0  0  0  0  0  0  0  0  0  0  0
  181.7950   21.5170   46.1880 C   0  0  0  0  0  0  0  0  0  0  0  0
  180.9610   22.3520   46.9230 O   0  0  0  0  0  0  0  0  0  0  0  0
  179.7070   21.9080   47.2570 C   0  0  0  0  0  0  0  0  0  0  0  0
  178.8980   22.7840   47.9830 C   0  0  0  0  0  0  0  0  0  0  0  0
  177.6100   22.3940   48.3560 C   0  0  0  0  0  0  0  0  0  0  0  0
  177.1300   21.1310   48.0040 C   0  0  0  0  0  0  0  0  0  0  0  0
  177.9400   20.2590   47.2800 C   0  0  0  0  0  0  0  0  0  0  0  0
  177.4080   19.0380   46.9700 O   0  0  0  0  0  0  0  0  0  0  0  0
  179.2290   20.6500   46.9060 C   0  0  0  0  0  0  0  0  0  0  0  0
  180.1110   19.7640   46.1440 C   0  0  0  0  0  0  0  0  0  0  0  0
  179.7650   18.6350   45.8030 O   0  0  0  0  0  0  0  0  0  0  0  0
  181.4560   20.2760   45.7920 C   0  0  0  0  0  0  0  0  0  0  0  0
  182.2870   19.4270   45.0850 O   0  0  0  0  0  0  0  0  0  0  0  0
  183.8070   21.8590   44.7200 C   0  0  0  0  0  0  0  0  0  0  0  0
  185.0420   22.4620   44.4680 C   0  0  0  0  0  0  0  0  0  0  0  0
  185.6150   23.3560   45.3900 C   0  0  0  0  0  0  0  0  0  0  0  0
  186.9470   23.9970   45.0780 C   0  0  0  0  0  0  0  0  0  0  0  0
  186.9000   25.3580   45.0880 F   0  0  0  0  0  0  0  0  0  0  0  0
  187.4300   23.6610   43.8460 F   0  0  0  0  0  0  0  0  0  0  0  0
  187.9280   23.6440   45.9570 F   0  0  0  0  0  0  0  0  0  0  0  0
  186.4646   24.8510   49.4272 H   0  0  0  0  0  0  0  0  0  0  0  0
  186.1880   23.0479   48.8774 H   0  0  0  0  0  0  0  0  0  0  0  0
  185.3574   25.6425   47.4295 H   0  0  0  0  0  0  0  0  0  0  0  0
  183.1370   23.2518   47.7519 H   0  0  0  0  0  0  0  0  0  0  0  0
  179.2744   23.7796   48.2607 H   0  0  0  0  0  0  0  0  0  0  0  0
  176.9721   23.0835   48.9285 H   0  0  0  0  0  0  0  0  0  0  0  0
  176.1149   20.8253   48.2976 H   0  0  0  0  0  0  0  0  0  0  0  0
  177.3660   18.7580   46.0770 H   0  0  0  0  0  0  0  0  0  0  0  0
  182.9220   19.7780   44.4920 H   0  0  0  0  0  0  0  0  0  0  0  0
  183.3771   21.1687   43.9793 H   0  0  0  0  0  0  0  0  0  0  0  0
  185.5748   22.2337   43.5331 H   0  0  0  0  0  0  0  0  0  0  0  0
  1  2  2  0
  2  3  1  0
  3  4  2  0
  4  5  1  0
  5  6  1  0
  6  7  1  0
  7  8  1  0
  8  9  2  0
  9 10  1  0
 10 11  2  0
 11 12  1  0
 12 13  1  0
 12 14  2  0
 14 15  1  0
 15 16  2  0
 15 17  1  0
 17 18  1  0
  5 19  2  0
 19 20  1  0
 20 21  2  0
 21 22  1  0
 22 23  1  0
 22 24  1  0
 22 25  1  0
 21  3  1  0
 17  6  2  0
 14  8  1  0
  1 26  1  0
  1 27  1  0
  2 28  1  0
  4 29  1  0
  9 30  1  0
 10 31  1  0
 11 32  1  0
 13 33  1  0
 18 34  1  0
 19 35  1  0
 20 36  1  0
M  END
>  <meeko>  (9) 
{"is_sidechain": [false], "free_energy": -5.727, "intermolecular_energy": -6.705, "internal_energy": -0.229}

$$$$
