cand_006_out
     RDKit          3D

 47 50  0  0  0  0  0  0  0  0999 V2000
  183.1630   18.4470   43.9800 C   0  0  0  0  0  0  0  0  0  0  0  0
  181.8990   18.8930   44.6640 C   0  0  0  0  0  0  0  0  0  0  0  0
  181.7940   20.2050   45.1450 C   0  0  0  0  0  0  0  0  0  0  0  0
  180.6300   20.6400   45.7790 C   0  0  0  0  0  0  0  0  0  0  0  0
  179.5400   19.7770   45.9420 C   0  0  0  0  0  0  0  0  0  0  0  0
  178.3250   20.2490   46.6390 C   0  0  0  0  0  0  0  0  0  0  0  0
  178.4670   21.5280   47.1670 O   0  0  0  0  0  0  0  0  0  0  0  0
  177.4120   22.0900   47.8390 C   0  0  0  0  0  0  0  0  0  0  0  0
  177.6050   23.3690   48.3640 C   0  0  0  0  0  0  0  0  0  0  0  0
  176.5710   23.9990   49.0600 C   0  0  0  0  0  0  0  0  0  0  0  0
  175.3460   23.3510   49.2290 C   0  0  0  0  0  0  0  0  0  0  0  0
  175.1560   22.0750   48.7050 C   0  0  0  0  0  0  0  0  0  0  0  0
  173.9310   21.5000   48.9070 O   0  0  0  0  0  0  0  0  0  0  0  0
  176.1920   21.4440   48.0100 C   0  0  0  0  0  0  0  0  0  0  0  0
  176.0340   20.1050   47.4420 C   0  0  0  0  0  0  0  0  0  0  0  0
  174.9840   19.4730   47.5440 O   0  0  0  0  0  0  0  0  0  0  0  0
  177.1960   19.5220   46.7300 C   0  0  0  0  0  0  0  0  0  0  0  0
  177.0310   18.2610   46.1870 O   0  0  0  0  0  0  0  0  0  0  0  0
  179.6530   18.4610   45.4700 C   0  0  0  0  0  0  0  0  0  0  0  0
  180.8180   18.0040   44.8250 C   0  0  0  0  0  0  0  0  0  0  0  0
  180.9350   16.6830   44.3340 N   0  0  0  0  0  0  0  0  0  0  0  0
  180.8320   16.6260   42.8660 C   0  0  0  0  0  0  0  0  0  0  0  0
  181.1970   15.2170   42.3950 C   0  0  0  0  0  0  0  0  0  0  0  0
  180.3300   14.1630   43.0840 C   0  0  0  0  0  0  0  0  0  0  0  0
  180.3860   14.3180   44.6030 C   0  0  0  0  0  0  0  0  0  0  0  0
  180.0380   15.7450   45.0260 C   0  0  0  0  0  0  0  0  0  0  0  0
  183.9155   18.1815   44.7371 H   0  0  0  0  0  0  0  0  0  0  0  0
  182.9499   17.5698   43.3515 H   0  0  0  0  0  0  0  0  0  0  0  0
  183.5476   19.2637   43.3515 H   0  0  0  0  0  0  0  0  0  0  0  0
  182.6383   20.8992   45.0213 H   0  0  0  0  0  0  0  0  0  0  0  0
  180.5681   21.6720   46.1548 H   0  0  0  0  0  0  0  0  0  0  0  0
  178.5699   23.8798   48.2297 H   0  0  0  0  0  0  0  0  0  0  0  0
  176.7219   25.0064   49.4753 H   0  0  0  0  0  0  0  0  0  0  0  0
  174.5313   23.8482   49.7758 H   0  0  0  0  0  0  0  0  0  0  0  0
  173.4130   21.2320   48.1750 H   0  0  0  0  0  0  0  0  0  0  0  0
  176.5900   17.5940   46.6760 H   0  0  0  0  0  0  0  0  0  0  0  0
  178.8097   17.7682   45.6073 H   0  0  0  0  0  0  0  0  0  0  0  0
  179.8024   16.8622   42.5592 H   0  0  0  0  0  0  0  0  0  0  0  0
  181.5196   17.3576   42.4167 H   0  0  0  0  0  0  0  0  0  0  0  0
  181.0454   15.1515   41.3075 H   0  0  0  0  0  0  0  0  0  0  0  0
  182.2493   15.0251   42.6517 H   0  0  0  0  0  0  0  0  0  0  0  0
  179.2887   14.2780   42.7485 H   0  0  0  0  0  0  0  0  0  0  0  0
  180.7117   13.1661   42.8185 H   0  0  0  0  0  0  0  0  0  0  0  0
  179.6675   13.6225   45.0614 H   0  0  0  0  0  0  0  0  0  0  0  0
  181.4096   14.0950   44.9385 H   0  0  0  0  0  0  0  0  0  0  0  0
  178.9947   15.9654   44.7559 H   0  0  0  0  0  0  0  0  0  0  0  0
  180.1596   15.8496   46.1142 H   0  0  0  0  0  0  0  0  0  0  0  0
  1  2  1  0
  2  3  2  0
  3  4  1  0
  4  5  2  0
  5  6  1  0
  6  7  1  0
  7  8  1  0
  8  9  2  0
  9 10  1  0
 10 11  2  0
 11 12  1  0
 12 13  1  0
 12 14  2  0
 14 15  1  0
 15 16  2  0
 15 17  1  0
 17 18  1  0
  5 19  1  0
 19 20  2  0
 20 21  1  0
 21 22  1  0
 22 23  1  0
 23 24  1  0
 24 25  1  0
 25 26  1  0
 20  2  1  0
 26 21  1  0
 17  6  2  0
 14  8  1  0
  1 27  1  0
  1 28  1  0
  1 29  1  0
  3 30  1  0
  4 31  1  0
  9 32  1  0
 10 33  1  0
 11 34  1  0
 13 35  1  0
 18 36  1  0
 19 37  1  0
 22 38  1  0
 22 39  1  0
 23 40  1  0
 23 41  1  0
 24 42  1  0
 24 43  1  0
 25 44  1  0
 25 45  1  0
 26 46  1  0
 26 47  1  0
M  END
>  <meeko>  (1) 
{"is_sidechain": [false], "free_energy": -7.409, "intermolecular_energy": -8.708, "internal_energy": 0.205}

$$$$
cand_006_out
     RDKit          3D

 47 50  0  0  0  0  0  0  0  0999 V2000
  179.8150   21.7850   48.0250 C   0  0  0  0  0  0  0  0  0  0  0  0
  179.9740   20.6350   47.0670 C   0  0  0  0  0  0  0  0  0  0  0  0
  181.2300   20.3690   46.5040 C   0  0  0  0  0  0  0  0  0  0  0  0
  181.4010   19.3060   45.6160 C   0  0  0  0  0  0  0  0  0  0  0  0
  180.3240   18.4800   45.2750 C   0  0  0  0  0  0  0  0  0  0  0  0
  180.5200   17.3750   44.3130 C   0  0  0  0  0  0  0  0  0  0  0  0
  180.8300   17.8210   43.0330 O   0  0  0  0  0  0  0  0  0  0  0  0
  181.0400   16.8980   42.0410 C   0  0  0  0  0  0  0  0  0  0  0  0
  181.3340   17.3910   40.7680 C   0  0  0  0  0  0  0  0  0  0  0  0
  181.5580   16.5050   39.7130 C   0  0  0  0  0  0  0  0  0  0  0  0
  181.4910   15.1270   39.9300 C   0  0  0  0  0  0  0  0  0  0  0  0
  181.1980   14.6370   41.2000 C   0  0  0  0  0  0  0  0  0  0  0  0
  181.1480   13.2780   41.3410 O   0  0  0  0  0  0  0  0  0  0  0  0
  180.9710   15.5250   42.2560 C   0  0  0  0  0  0  0  0  0  0  0  0
  180.6600   15.0530   43.6050 C   0  0  0  0  0  0  0  0  0  0  0  0
  180.5900   13.8560   43.8770 O   0  0  0  0  0  0  0  0  0  0  0  0
  180.4300   16.0750   44.6520 C   0  0  0  0  0  0  0  0  0  0  0  0
  180.1490   15.6170   45.9270 O   0  0  0  0  0  0  0  0  0  0  0  0
  179.0670   18.7570   45.8320 C   0  0  0  0  0  0  0  0  0  0  0  0
  178.8740   19.8230   46.7300 C   0  0  0  0  0  0  0  0  0  0  0  0
  177.6130   20.1010   47.3070 N   0  0  0  0  0  0  0  0  0  0  0  0
  176.7340   18.9190   47.3180 C   0  0  0  0  0  0  0  0  0  0  0  0
  175.4930   19.2290   48.1560 C   0  0  0  0  0  0  0  0  0  0  0  0
  174.7810   20.4810   47.6450 C   0  0  0  0  0  0  0  0  0  0  0  0
  175.7480   21.6610   47.5530 C   0  0  0  0  0  0  0  0  0  0  0  0
  176.9840   21.2980   46.7280 C   0  0  0  0  0  0  0  0  0  0  0  0
  179.8667   21.4113   49.0583 H   0  0  0  0  0  0  0  0  0  0  0  0
  180.6208   22.5151   47.8584 H   0  0  0  0  0  0  0  0  0  0  0  0
  178.8414   22.2691   47.8584 H   0  0  0  0  0  0  0  0  0  0  0  0
  182.0892   21.0044   46.7647 H   0  0  0  0  0  0  0  0  0  0  0  0
  182.3926   19.1154   45.1796 H   0  0  0  0  0  0  0  0  0  0  0  0
  181.3890   18.4762   40.5969 H   0  0  0  0  0  0  0  0  0  0  0  0
  181.7876   16.8926   38.7095 H   0  0  0  0  0  0  0  0  0  0  0  0
  181.6695   14.4294   39.0984 H   0  0  0  0  0  0  0  0  0  0  0  0
  180.4430   12.8820   41.8140 H   0  0  0  0  0  0  0  0  0  0  0  0
  180.8090   15.6480   46.5910 H   0  0  0  0  0  0  0  0  0  0  0  0
  178.2094   18.1243   45.5597 H   0  0  0  0  0  0  0  0  0  0  0  0
  176.4323   18.6742   46.2889 H   0  0  0  0  0  0  0  0  0  0  0  0
  177.2699   18.0614   47.7509 H   0  0  0  0  0  0  0  0  0  0  0  0
  174.8012   18.3755   48.1023 H   0  0  0  0  0  0  0  0  0  0  0  0
  175.8089   19.4068   49.1945 H   0  0  0  0  0  0  0  0  0  0  0  0
  174.3662   20.2770   46.6468 H   0  0  0  0  0  0  0  0  0  0  0  0
  173.9775   20.7401   48.3502 H   0  0  0  0  0  0  0  0  0  0  0  0
  175.2349   22.5095   47.0768 H   0  0  0  0  0  0  0  0  0  0  0  0
  176.0727   21.9264   48.5699 H   0  0  0  0  0  0  0  0  0  0  0  0
  176.6864   21.0921   45.6892 H   0  0  0  0  0  0  0  0  0  0  0  0
  177.6975   22.1351   46.7405 H   0  0  0  0  0  0  0  0  0  0  0  0
  1  2  1  0
  2  3  2  0
  3  4  1  0
  4  5  2  0
  5  6  1  0
  6  7  1  0
  7  8  1  0
  8  9  2  0
  9 10  1  0
 10 11  2  0
 11 12  1  0
 12 13  1  0
 12 14  2  0
 14 15  1  0
 15 16  2  0
 15 17  1  0
 17 18  1  0
  5 19  1  0
 19 20  2  0
 20 21  1  0
 21 22  1  0
 22 23  1  0
 23 24  1  0
 24 25  1  0
 25 26  1  0
 20  2  1  0
 26 21  1  0
 17  6  2  0
 14  8  1  0
  1 27  1  0
  1 28  1  0
  1 29  1  0
  3 30  1  0
  4 31  1  0
  9 32  1  0
 10 33  1  0
 11 34  1  0
 13 35  1  0
 18 36  1  0
 19 37  1  0
 22 38  1  0
 22 39  1  0
 23 40  1  0
 23 41  1  0
 24 42  1  0
 24 43  1  0
 25 44  1  0
 25 45  1  0
 26 46  1  0
 26 47  1  0
M  END
>  <meeko>  (2) 
{"is_sidechain": [false], "free_energy": -6.795, "intermolecular_energy": -7.434, "internal_energy": -0.348}

$$$$
cand_006_out
     RDKit          3D

 47 50  0  0  0  0  0  0  0  0999 V2000
  187.2690   24.2830   45.4100 C   0  0  0  0  0  0  0  0  0  0  0  0
  185.9550   23.5610   45.5440 C   0  0  0  0  0  0  0  0  0  0  0  0
  185.1240   23.8300   46.6400 C   0  0  0  0  0  0  0  0  0  0  0  0
  183.8990   23.1750   46.7820 C   0  0  0  0  0  0  0  0  0  0  0  0
  183.4740   22.2420   45.8300 C   0  0  0  0  0  0  0  0  0  0  0  0
  182.1850   21.5410   46.0110 C   0  0  0  0  0  0  0  0  0  0  0  0
  181.2660   22.2810   46.7470 O   0  0  0  0  0  0  0  0  0  0  0  0
  180.0260   21.7480   46.9890 C   0  0  0  0  0  0  0  0  0  0  0  0
  179.1410   22.5190   47.7440 C   0  0  0  0  0  0  0  0  0  0  0  0
  177.8620   22.0360   48.0270 C   0  0  0  0  0  0  0  0  0  0  0  0
  177.4680   20.7820   47.5540 C   0  0  0  0  0  0  0  0  0  0  0  0
  178.3520   20.0140   46.8010 C   0  0  0  0  0  0  0  0  0  0  0  0
  177.9010   18.7980   46.3700 O   0  0  0  0  0  0  0  0  0  0  0  0
  179.6330   20.4990   46.5200 C   0  0  0  0  0  0  0  0  0  0  0  0
  180.5930   19.7240   45.7320 C   0  0  0  0  0  0  0  0  0  0  0  0
  180.3180   18.6160   45.2760 O   0  0  0  0  0  0  0  0  0  0  0  0
  181.9270   20.3240   45.4970 C   0  0  0  0  0  0  0  0  0  0  0  0
  182.8220   19.5880   44.7400 O   0  0  0  0  0  0  0  0  0  0  0  0
  184.3140   21.9680   44.7410 C   0  0  0  0  0  0  0  0  0  0  0  0
  185.5510   22.6190   44.5790 C   0  0  0  0  0  0  0  0  0  0  0  0
  186.3990   22.3590   43.4770 N   0  0  0  0  0  0  0  0  0  0  0  0
  185.8460   22.8810   42.2160 C   0  0  0  0  0  0  0  0  0  0  0  0
  186.9100   22.7710   41.1230 C   0  0  0  0  0  0  0  0  0  0  0  0
  187.4170   21.3350   40.9870 C   0  0  0  0  0  0  0  0  0  0  0  0
  187.8890   20.7930   42.3360 C   0  0  0  0  0  0  0  0  0  0  0  0
  186.8040   20.9460   43.4020 C   0  0  0  0  0  0  0  0  0  0  0  0
  187.6700   24.5033   46.4103 H   0  0  0  0  0  0  0  0  0  0  0  0
  187.9811   23.6495   44.8609 H   0  0  0  0  0  0  0  0  0  0  0  0
  187.1161   25.2238   44.8609 H   0  0  0  0  0  0  0  0  0  0  0  0
  185.4398   24.5643   47.3957 H   0  0  0  0  0  0  0  0  0  0  0  0
  183.2617   23.3948   47.6512 H   0  0  0  0  0  0  0  0  0  0  0  0
  179.4510   23.5067   48.1159 H   0  0  0  0  0  0  0  0  0  0  0  0
  177.1643   22.6431   48.6226 H   0  0  0  0  0  0  0  0  0  0  0  0
  176.4601   20.4017   47.7763 H   0  0  0  0  0  0  0  0  0  0  0  0
  178.3940   18.0230   46.5540 H   0  0  0  0  0  0  0  0  0  0  0  0
  182.8490   18.6560   44.8240 H   0  0  0  0  0  0  0  0  0  0  0  0
  183.9977   21.2250   43.9941 H   0  0  0  0  0  0  0  0  0  0  0  0
  184.9612   22.2933   41.9300 H   0  0  0  0  0  0  0  0  0  0  0  0
  185.5536   23.9335   42.3457 H   0  0  0  0  0  0  0  0  0  0  0  0
  186.4742   23.0898   40.1647 H   0  0  0  0  0  0  0  0  0  0  0  0
  187.7584   23.4153   41.3969 H   0  0  0  0  0  0  0  0  0  0  0  0
  186.6025   20.6998   40.6088 H   0  0  0  0  0  0  0  0  0  0  0  0
  188.2666   21.3270   40.2884 H   0  0  0  0  0  0  0  0  0  0  0  0
  188.1379   19.7270   42.2275 H   0  0  0  0  0  0  0  0  0  0  0  0
  188.7726   21.3666   42.6526 H   0  0  0  0  0  0  0  0  0  0  0  0
  185.9347   20.3273   43.1344 H   0  0  0  0  0  0  0  0  0  0  0  0
  187.1940   20.6198   44.3775 H   0  0  0  0  0  0  0  0  0  0  0  0
  1  2  1  0
  2  3  2  0
  3  4  1  0
  4  5  2  0
  5  6  1  0
  6  7  1  0
  7  8  1  0
  8  9  2  0
  9 10  1  0
 10 11  2  0
 11 12  1  0
 12 13  1  0
 12 14  2  0
 14 15  1  0
 15 16  2  0
 15 17  1  0
 17 18  1  0
  5 19  1  0
 19 20  2  0
 20 21  1  0
 21 22  1  0
 22 23  1  0
 23 24  1  0
 24 25  1  0
 25 26  1  0
 20  2  1  0
 26 21  1  0
 17  6  2  0
 14  8  1  0
  1 27  1  0
  1 28  1  0
  1 29  1  0
  3 30  1  0
  4 31  1  0
  9 32  1  0
 10 33  1  0
 11 34  1  0
 13 35  1  0
 18 36  1  0
 19 37  1  0
 22 38  1  0
 22 39  1  0
 23 40  1  0
 23 41  1  0
 24 42  1  0
 24 43  1  0
 25 44  1  0
 25 45  1  0
 26 46  1  0
 26 47  1  0
M  END
>  <meeko>  (3) 
{"is_sidechain": [false], "free_energy": -6.596, "intermolecular_energy": -7.294, "internal_energy": -0.254}

$$$$
cand_006_out
     RDKit          3D

 47 50  0  0  0  0  0  0  0  0999 V2000
  183.0930   17.7960   43.5860 C   0  0  0  0  0  0  0  0  0  0  0  0
  182.0670   18.5040   44.4280 C   0  0  0  0  0  0  0  0  0  0  0  0
  182.3990   19.7100   45.0600 C   0  0  0  0  0  0  0  0  0  0  0  0
  181.4610   20.3850   45.8420 C   0  0  0  0  0  0  0  0  0  0  0  0
  180.1680   19.8760   46.0060 C   0  0  0  0  0  0  0  0  0  0  0  0
  179.1970   20.5930   46.8590 C   0  0  0  0  0  0  0  0  0  0  0  0
  177.9140   20.0620   46.7820 O   0  0  0  0  0  0  0  0  0  0  0  0
  176.9130   20.6320   47.5260 C   0  0  0  0  0  0  0  0  0  0  0  0
  175.6390   20.0760   47.4060 C   0  0  0  0  0  0  0  0  0  0  0  0
  174.5740   20.6090   48.1370 C   0  0  0  0  0  0  0  0  0  0  0  0
  174.7850   21.6960   48.9870 C   0  0  0  0  0  0  0  0  0  0  0  0
  176.0570   22.2500   49.1050 C   0  0  0  0  0  0  0  0  0  0  0  0
  176.1920   23.3130   49.9550 O   0  0  0  0  0  0  0  0  0  0  0  0
  177.1210   21.7170   48.3720 C   0  0  0  0  0  0  0  0  0  0  0  0
  178.4740   22.2680   48.4670 C   0  0  0  0  0  0  0  0  0  0  0  0
  178.7400   23.2200   49.1980 O   0  0  0  0  0  0  0  0  0  0  0  0
  179.5300   21.6350   47.6430 C   0  0  0  0  0  0  0  0  0  0  0  0
  180.8070   22.1570   47.7510 O   0  0  0  0  0  0  0  0  0  0  0  0
  179.8430   18.6630   45.3810 C   0  0  0  0  0  0  0  0  0  0  0  0
  180.7740   17.9680   44.5860 C   0  0  0  0  0  0  0  0  0  0  0  0
  180.4510   16.7520   43.9410 N   0  0  0  0  0  0  0  0  0  0  0  0
  180.7940   15.5790   44.7630 C   0  0  0  0  0  0  0  0  0  0  0  0
  180.2100   14.3250   44.1110 C   0  0  0  0  0  0  0  0  0  0  0  0
  180.6850   14.1830   42.6650 C   0  0  0  0  0  0  0  0  0  0  0  0
  180.4020   15.4570   41.8690 C   0  0  0  0  0  0  0  0  0  0  0  0
  180.9810   16.6860   42.5700 C   0  0  0  0  0  0  0  0  0  0  0  0
  183.8209   17.2937   44.2402 H   0  0  0  0  0  0  0  0  0  0  0  0
  182.5941   17.0490   42.9511 H   0  0  0  0  0  0  0  0  0  0  0  0
  183.6143   18.5275   42.9511 H   0  0  0  0  0  0  0  0  0  0  0  0
  183.4090   20.1286   44.9384 H   0  0  0  0  0  0  0  0  0  0  0  0
  181.7411   21.3276   46.3350 H   0  0  0  0  0  0  0  0  0  0  0  0
  175.4731   19.2190   46.7367 H   0  0  0  0  0  0  0  0  0  0  0  0
  173.5690   20.1718   48.0426 H   0  0  0  0  0  0  0  0  0  0  0  0
  173.9468   22.1147   49.5633 H   0  0  0  0  0  0  0  0  0  0  0  0
  175.6960   23.3430   50.7490 H   0  0  0  0  0  0  0  0  0  0  0  0
  181.5470   21.5830   47.7630 H   0  0  0  0  0  0  0  0  0  0  0  0
  178.8348   18.2441   45.5155 H   0  0  0  0  0  0  0  0  0  0  0  0
  181.8878   15.4837   44.8312 H   0  0  0  0  0  0  0  0  0  0  0  0
  180.3780   15.6998   45.7741 H   0  0  0  0  0  0  0  0  0  0  0  0
  180.5298   13.4411   44.6824 H   0  0  0  0  0  0  0  0  0  0  0  0
  179.1133   14.4102   44.1112 H   0  0  0  0  0  0  0  0  0  0  0  0
  181.7676   13.9880   42.6593 H   0  0  0  0  0  0  0  0  0  0  0  0
  180.1413   13.3489   42.1973 H   0  0  0  0  0  0  0  0  0  0  0  0
  180.8564   15.3654   40.8715 H   0  0  0  0  0  0  0  0  0  0  0  0
  179.3122   15.5828   41.7882 H   0  0  0  0  0  0  0  0  0  0  0  0
  182.0778   16.6091   42.6023 H   0  0  0  0  0  0  0  0  0  0  0  0
  180.6979   17.5949   42.0189 H   0  0  0  0  0  0  0  0  0  0  0  0
  1  2  1  0
  2  3  2  0
  3  4  1  0
  4  5  2  0
  5  6  1  0
  6  7  1  0
  7  8  1  0
  8  9  2  0
  9 10  1  0
 10 11  2  0
 11 12  1  0
 12 13  1  0
 12 14  2  0
 14 15  1  0
 15 16  2  0
 15 17  1  0
 17 18  1  0
  5 19  1  0
 19 20  2  0
 20 21  1  0
 21 22  1  0
 22 23  1  0
 23 24  1  0
 24 25  1  0
 25 26  1  0
 20  2  1  0
 26 21  1  0
 17  6  2  0
 14  8  1  0
  1 27  1  0
  1 28  1  0
  1 29  1  0
  3 30  1  0
  4 31  1  0
  9 32  1  0
 10 33  1  0
 11 34  1  0
 13 35  1  0
 18 36  1  0
 19 37  1  0
 22 38  1  0
 22 39  1  0
 23 40  1  0
 23 41  1  0
 24 42  1  0
 24 43  1  0
 25 44  1  0
 25 45  1  0
 26 46  1  0
 26 47  1  0
M  END
>  <meeko>  (4) 
{"is_sidechain": [false], "free_energy": -6.386, "intermolecular_energy": -8.547, "internal_energy": 1.246}

$$$$
cand_006_out
     RDKit          3D

 47 50  0  0  0  0  0  0  0  0999 V2000
  178.9610   19.2200   46.1910 C   0  0  0  0  0  0  0  0  0  0  0  0
  180.1640   20.1240   46.2030 C   0  0  0  0  0  0  0  0  0  0  0  0
  181.3820   19.6670   45.6830 C   0  0  0  0  0  0  0  0  0  0  0  0
  182.5090   20.4900   45.6810 C   0  0  0  0  0  0  0  0  0  0  0  0
  182.4440   21.7910   46.1920 C   0  0  0  0  0  0  0  0  0  0  0  0
  183.6550   22.6390   46.2040 C   0  0  0  0  0  0  0  0  0  0  0  0
  183.8340   23.3100   47.4090 O   0  0  0  0  0  0  0  0  0  0  0  0
  184.9220   24.1310   47.5570 C   0  0  0  0  0  0  0  0  0  0  0  0
  185.0530   24.7960   48.7770 C   0  0  0  0  0  0  0  0  0  0  0  0
  186.1380   25.6480   48.9930 C   0  0  0  0  0  0  0  0  0  0  0  0
  187.0920   25.8330   47.9910 C   0  0  0  0  0  0  0  0  0  0  0  0
  186.9600   25.1690   46.7740 C   0  0  0  0  0  0  0  0  0  0  0  0
  187.9300   25.3960   45.8380 O   0  0  0  0  0  0  0  0  0  0  0  0
  185.8720   24.3180   46.5580 C   0  0  0  0  0  0  0  0  0  0  0  0
  185.6950   23.6010   45.2940 C   0  0  0  0  0  0  0  0  0  0  0  0
  186.4950   23.7070   44.3670 O   0  0  0  0  0  0  0  0  0  0  0  0
  184.5040   22.7290   45.1630 C   0  0  0  0  0  0  0  0  0  0  0  0
  184.3540   22.0460   43.9690 O   0  0  0  0  0  0  0  0  0  0  0  0
  181.2260   22.2410   46.7220 C   0  0  0  0  0  0  0  0  0  0  0  0
  180.0780   21.4270   46.7310 C   0  0  0  0  0  0  0  0  0  0  0  0
  178.8420   21.8770   47.2510 N   0  0  0  0  0  0  0  0  0  0  0  0
  178.7680   23.3460   47.3160 C   0  0  0  0  0  0  0  0  0  0  0  0
  177.3370   23.7590   47.6630 C   0  0  0  0  0  0  0  0  0  0  0  0
  176.8680   23.0930   48.9570 C   0  0  0  0  0  0  0  0  0  0  0  0
  177.0530   21.5770   48.8890 C   0  0  0  0  0  0  0  0  0  0  0  0
  178.4900   21.2120   48.5160 C   0  0  0  0  0  0  0  0  0  0  0  0
  178.6613   18.9948   47.2251 H   0  0  0  0  0  0  0  0  0  0  0  0
  178.1316   19.7202   45.6695 H   0  0  0  0  0  0  0  0  0  0  0  0
  179.2107   18.2842   45.6695 H   0  0  0  0  0  0  0  0  0  0  0  0
  181.4507   18.6490   45.2721 H   0  0  0  0  0  0  0  0  0  0  0  0
  183.4583   20.1121   45.2735 H   0  0  0  0  0  0  0  0  0  0  0  0
  184.3023   24.6491   49.5675 H   0  0  0  0  0  0  0  0  0  0  0  0
  186.2410   26.1739   49.9537 H   0  0  0  0  0  0  0  0  0  0  0  0
  187.9475   26.5028   48.1625 H   0  0  0  0  0  0  0  0  0  0  0  0
  187.9990   26.2350   45.4290 H   0  0  0  0  0  0  0  0  0  0  0  0
  183.5120   21.9940   43.5630 H   0  0  0  0  0  0  0  0  0  0  0  0
  181.1665   23.2562   47.1414 H   0  0  0  0  0  0  0  0  0  0  0  0
  179.4563   23.7158   48.0903 H   0  0  0  0  0  0  0  0  0  0  0  0
  179.0527   23.7752   46.3440 H   0  0  0  0  0  0  0  0  0  0  0  0
  177.2989   24.8513   47.7873 H   0  0  0  0  0  0  0  0  0  0  0  0
  176.6740   23.4384   46.8459 H   0  0  0  0  0  0  0  0  0  0  0  0
  177.4540   23.4898   49.7991 H   0  0  0  0  0  0  0  0  0  0  0  0
  175.7988   23.3105   49.0964 H   0  0  0  0  0  0  0  0  0  0  0  0
  176.8156   21.1421   49.8711 H   0  0  0  0  0  0  0  0  0  0  0  0
  176.3802   21.1782   48.1156 H   0  0  0  0  0  0  0  0  0  0  0  0
  179.1732   21.5463   49.3106 H   0  0  0  0  0  0  0  0  0  0  0  0
  178.5773   20.1218   48.3988 H   0  0  0  0  0  0  0  0  0  0  0  0
  1  2  1  0
  2  3  2  0
  3  4  1  0
  4  5  2  0
  5  6  1  0
  6  7  1  0
  7  8  1  0
  8  9  2  0
  9 10  1  0
 10 11  2  0
 11 12  1  0
 12 13  1  0
 12 14  2  0
 14 15  1  0
 15 16  2  0
 15 17  1  0
 17 18  1  0
  5 19  1  0
 19 20  2  0
 20 21  1  0
 21 22  1  0
 22 23  1  0
 23 24  1  0
 24 25  1  0
 25 26  1  0
 20  2  1  0
 26 21  1  0
 17  6  2  0
 14  8  1  0
  1 27  1  0
  1 28  1  0
  1 29  1  0
  3 30  1  0
  4 31  1  0
  9 32  1  0
 10 33  1  0
 11 34  1  0
 13 35  1  0
 18 36  1  0
 19 37  1  0
 22 38  1  0
 22 39  1  0
 23 40  1  0
 23 41  1  0
 24 42  1  0
 24 43  1  0
 25 44  1  0
 25 45  1  0
 26 46  1  0
 26 47  1  0
M  END
>  <meeko>  (5) 
{"is_sidechain": [false], "free_energy": -6.196, "intermolecular_energy": -7.073, "internal_energy": -0.004}

$$$$
cand_006_out
     RDKit          3D

 47 50  0  0  0  0  0  0  0  0999 V2000
  178.8070   23.2250   48.7790 C   0  0  0  0  0  0  0  0  0  0  0  0
  179.2610   22.0550   47.9470 C   0  0  0  0  0  0  0  0  0  0  0  0
  180.6160   21.9250   47.6150 C   0  0  0  0  0  0  0  0  0  0  0  0
  181.0600   20.8460   46.8480 C   0  0  0  0  0  0  0  0  0  0  0  0
  180.1620   19.8700   46.4020 C   0  0  0  0  0  0  0  0  0  0  0  0
  180.6480   18.7490   45.5700 C   0  0  0  0  0  0  0  0  0  0  0  0
  179.8520   17.6130   45.6740 O   0  0  0  0  0  0  0  0  0  0  0  0
  180.1890   16.4970   44.9520 C   0  0  0  0  0  0  0  0  0  0  0  0
  179.3700   15.3770   45.0990 C   0  0  0  0  0  0  0  0  0  0  0  0
  179.6570   14.2070   44.3920 C   0  0  0  0  0  0  0  0  0  0  0  0
  180.7600   14.1590   43.5370 C   0  0  0  0  0  0  0  0  0  0  0  0
  181.5750   15.2780   43.3910 C   0  0  0  0  0  0  0  0  0  0  0  0
  182.6380   15.1620   42.5380 O   0  0  0  0  0  0  0  0  0  0  0  0
  181.2890   16.4480   44.1020 C   0  0  0  0  0  0  0  0  0  0  0  0
  182.1190   17.6470   43.9770 C   0  0  0  0  0  0  0  0  0  0  0  0
  183.1030   17.6850   43.2410 O   0  0  0  0  0  0  0  0  0  0  0  0
  181.7340   18.8320   44.7790 C   0  0  0  0  0  0  0  0  0  0  0  0
  182.5190   19.9630   44.6430 O   0  0  0  0  0  0  0  0  0  0  0  0
  178.8050   20.0110   46.7270 C   0  0  0  0  0  0  0  0  0  0  0  0
  178.3390   21.0890   47.5010 C   0  0  0  0  0  0  0  0  0  0  0  0
  176.9740   21.2320   47.8460 N   0  0  0  0  0  0  0  0  0  0  0  0
  176.6720   20.6580   49.1680 C   0  0  0  0  0  0  0  0  0  0  0  0
  175.2500   21.0520   49.5690 C   0  0  0  0  0  0  0  0  0  0  0  0
  174.2390   20.6280   48.5040 C   0  0  0  0  0  0  0  0  0  0  0  0
  174.6400   21.1590   47.1280 C   0  0  0  0  0  0  0  0  0  0  0  0
  176.0750   20.7630   46.7800 C   0  0  0  0  0  0  0  0  0  0  0  0
  178.9038   22.9757   49.8460 H   0  0  0  0  0  0  0  0  0  0  0  0
  179.4301   24.1019   48.5494 H   0  0  0  0  0  0  0  0  0  0  0  0
  177.7555   23.4521   48.5494 H   0  0  0  0  0  0  0  0  0  0  0  0
  181.3368   22.6801   47.9619 H   0  0  0  0  0  0  0  0  0  0  0  0
  182.1265   20.7624   46.5918 H   0  0  0  0  0  0  0  0  0  0  0  0
  178.4997   15.4153   45.7706 H   0  0  0  0  0  0  0  0  0  0  0  0
  179.0135   13.3226   44.5089 H   0  0  0  0  0  0  0  0  0  0  0  0
  180.9846   13.2378   42.9794 H   0  0  0  0  0  0  0  0  0  0  0  0
  183.3200   15.8030   42.5500 H   0  0  0  0  0  0  0  0  0  0  0  0
  182.5010   20.6270   45.3040 H   0  0  0  0  0  0  0  0  0  0  0  0
  178.0868   19.2594   46.3674 H   0  0  0  0  0  0  0  0  0  0  0  0
  176.7516   19.5619   49.1210 H   0  0  0  0  0  0  0  0  0  0  0  0
  177.3871   21.0404   49.9112 H   0  0  0  0  0  0  0  0  0  0  0  0
  174.9963   20.5615   50.5203 H   0  0  0  0  0  0  0  0  0  0  0  0
  175.2077   22.1462   49.6741 H   0  0  0  0  0  0  0  0  0  0  0  0
  174.1944   19.5295   48.4670 H   0  0  0  0  0  0  0  0  0  0  0  0
  173.2556   21.0442   48.7680 H   0  0  0  0  0  0  0  0  0  0  0  0
  173.9592   20.7433   46.3705 H   0  0  0  0  0  0  0  0  0  0  0  0
  174.5760   22.2570   47.1458 H   0  0  0  0  0  0  0  0  0  0  0  0
  176.1448   19.6686   46.6938 H   0  0  0  0  0  0  0  0  0  0  0  0
  176.3645   21.2201   45.8223 H   0  0  0  0  0  0  0  0  0  0  0  0
  1  2  1  0
  2  3  2  0
  3  4  1  0
  4  5  2  0
  5  6  1  0
  6  7  1  0
  7  8  1  0
  8  9  2  0
  9 10  1  0
 10 11  2  0
 11 12  1  0
 12 13  1  0
 12 14  2  0
 14 15  1  0
 15 16  2  0
 15 17  1  0
 17 18  1  0
  5 19  1  0
 19 20  2  0
 20 21  1  0
 21 22  1  0
 22 23  1  0
 23 24  1  0
 24 25  1  0
 25 26  1  0
 20  2  1  0
 26 21  1  0
 17  6  2  0
 14  8  1  0
  1 27  1  0
  1 28  1  0
  1 29  1  0
  3 30  1  0
  4 31  1  0
  9 32  1  0
 10 33  1  0
 11 34  1  0
 13 35  1  0
 18 36  1  0
 19 37  1  0
 22 38  1  0
 22 39  1  0
 23 40  1  0
 23 41  1  0
 24 42  1  0
 24 43  1  0
 25 44  1  0
 25 45  1  0
 26 46  1  0
 26 47  1  0
M  END
>  <meeko>  (6) 
{"is_sidechain": [false], "free_energy": -6.163, "intermolecular_energy": -6.988, "internal_energy": -0.051}

$$$$
cand_006_out
     RDKit          3D

 47 50  0  0  0  0  0  0  0  0999 V2000
  178.7010   19.0790   46.2350 C   0  0  0  0  0  0  0  0  0  0  0  0
  179.9460   19.9190   46.1390 C   0  0  0  0  0  0  0  0  0  0  0  0
  181.1060   19.3810   45.5650 C   0  0  0  0  0  0  0  0  0  0  0  0
  182.2700   20.1440   45.4640 C   0  0  0  0  0  0  0  0  0  0  0  0
  182.3010   21.4650   45.9270 C   0  0  0  0  0  0  0  0  0  0  0  0
  183.5510   22.2490   45.8330 C   0  0  0  0  0  0  0  0  0  0  0  0
  184.1750   22.1240   44.5970 O   0  0  0  0  0  0  0  0  0  0  0  0
  185.3460   22.8010   44.3730 C   0  0  0  0  0  0  0  0  0  0  0  0
  185.9460   22.6350   43.1240 C   0  0  0  0  0  0  0  0  0  0  0  0
  187.1400   23.2960   42.8310 C   0  0  0  0  0  0  0  0  0  0  0  0
  187.7330   24.1250   43.7850 C   0  0  0  0  0  0  0  0  0  0  0  0
  187.1330   24.2900   45.0310 C   0  0  0  0  0  0  0  0  0  0  0  0
  187.7680   25.1150   45.9180 O   0  0  0  0  0  0  0  0  0  0  0  0
  185.9390   23.6250   45.3240 C   0  0  0  0  0  0  0  0  0  0  0  0
  185.2750   23.7710   46.6210 C   0  0  0  0  0  0  0  0  0  0  0  0
  185.7320   24.4870   47.5100 O   0  0  0  0  0  0  0  0  0  0  0  0
  184.0170   23.0180   46.8340 C   0  0  0  0  0  0  0  0  0  0  0  0
  183.3930   23.1740   48.0580 O   0  0  0  0  0  0  0  0  0  0  0  0
  181.1410   21.9960   46.5110 C   0  0  0  0  0  0  0  0  0  0  0  0
  179.9570   21.2430   46.6200 C   0  0  0  0  0  0  0  0  0  0  0  0
  178.7790   21.7750   47.1960 N   0  0  0  0  0  0  0  0  0  0  0  0
  178.8030   23.2460   47.2510 C   0  0  0  0  0  0  0  0  0  0  0  0
  177.4200   23.7520   47.6630 C   0  0  0  0  0  0  0  0  0  0  0  0
  176.9740   23.1250   48.9840 C   0  0  0  0  0  0  0  0  0  0  0  0
  177.0570   21.6000   48.9210 C   0  0  0  0  0  0  0  0  0  0  0  0
  178.4480   21.1410   48.4820 C   0  0  0  0  0  0  0  0  0  0  0  0
  178.4525   18.9113   47.2934 H   0  0  0  0  0  0  0  0  0  0  0  0
  177.8679   19.6004   45.7409 H   0  0  0  0  0  0  0  0  0  0  0  0
  178.8726   18.1113   45.7409 H   0  0  0  0  0  0  0  0  0  0  0  0
  181.0988   18.3468   45.1903 H   0  0  0  0  0  0  0  0  0  0  0  0
  183.1727   19.7030   45.0160 H   0  0  0  0  0  0  0  0  0  0  0  0
  185.4783   21.9837   42.3709 H   0  0  0  0  0  0  0  0  0  0  0  0
  187.6142   23.1636   41.8473 H   0  0  0  0  0  0  0  0  0  0  0  0
  188.6729   24.6472   43.5529 H   0  0  0  0  0  0  0  0  0  0  0  0
  188.1330   25.9260   45.6240 H   0  0  0  0  0  0  0  0  0  0  0  0
  183.9020   23.3450   48.8250 H   0  0  0  0  0  0  0  0  0  0  0  0
  181.1574   23.0272   46.8935 H   0  0  0  0  0  0  0  0  0  0  0  0
  179.5506   23.5753   47.9877 H   0  0  0  0  0  0  0  0  0  0  0  0
  179.0672   23.6503   46.2627 H   0  0  0  0  0  0  0  0  0  0  0  0
  177.4576   24.8452   47.7791 H   0  0  0  0  0  0  0  0  0  0  0  0
  176.6985   23.4700   46.8820 H   0  0  0  0  0  0  0  0  0  0  0  0
  177.6255   23.4878   49.7927 H   0  0  0  0  0  0  0  0  0  0  0  0
  175.9291   23.4120   49.1735 H   0  0  0  0  0  0  0  0  0  0  0  0
  176.8405   21.1872   49.9173 H   0  0  0  0  0  0  0  0  0  0  0  0
  176.3226   21.2407   48.1851 H   0  0  0  0  0  0  0  0  0  0  0  0
  179.1894   21.4350   49.2396 H   0  0  0  0  0  0  0  0  0  0  0  0
  178.4598   20.0467   48.3703 H   0  0  0  0  0  0  0  0  0  0  0  0
  1  2  1  0
  2  3  2  0
  3  4  1  0
  4  5  2  0
  5  6  1  0
  6  7  1  0
  7  8  1  0
  8  9  2  0
  9 10  1  0
 10 11  2  0
 11 12  1  0
 12 13  1  0
 12 14  2  0
 14 15  1  0
 15 16  2  0
 15 17  1  0
 17 18  1  0
  5 19  1  0
 19 20  2  0
 20 21  1  0
 21 22  1  0
 22 23  1  0
 23 24  1  0
 24 25  1  0
 25 26  1  0
 20  2  1  0
 26 21  1  0
 17  6  2  0
 14  8  1  0
  1 27  1  0
  1 28  1  0
  1 29  1  0
  3 30  1  0
  4 31  1  0
  9 32  1  0
 10 33  1  0
 11 34  1  0
 13 35  1  0
 18 36  1  0
 19 37  1  0
 22 38  1  0
 22 39  1  0
 23 40  1  0
 23 41  1  0
 24 42  1  0
 24 43  1  0
 25 44  1  0
 25 45  1  0
 26 46  1  0
 26 47  1  0
M  END
>  <meeko>  (7) 
{"is_sidechain": [false], "free_energy": -6.136, "intermolecular_energy": -7.038, "internal_energy": 0.031}

$$$$
cand_006_out
     RDKit          3D

 47 50  0  0  0  0  0  0  0  0999 V2000
  187.2880   24.2640   44.9790 C   0  0  0  0  0  0  0  0  0  0  0  0
  185.9860   23.5720   45.2770 C   0  0  0  0  0  0  0  0  0  0  0  0
  185.4070   22.7350   44.3140 C   0  0  0  0  0  0  0  0  0  0  0  0
  184.2020   22.0810   44.5710 C   0  0  0  0  0  0  0  0  0  0  0  0
  183.5490   22.2420   45.7990 C   0  0  0  0  0  0  0  0  0  0  0  0
  182.2600   21.5600   46.0430 C   0  0  0  0  0  0  0  0  0  0  0  0
  181.3860   22.3170   46.8150 O   0  0  0  0  0  0  0  0  0  0  0  0
  180.1510   21.8040   47.1160 C   0  0  0  0  0  0  0  0  0  0  0  0
  179.3120   22.5920   47.9050 C   0  0  0  0  0  0  0  0  0  0  0  0
  178.0400   22.1280   48.2480 C   0  0  0  0  0  0  0  0  0  0  0  0
  177.6070   20.8780   47.8010 C   0  0  0  0  0  0  0  0  0  0  0  0
  178.4460   20.0940   47.0130 C   0  0  0  0  0  0  0  0  0  0  0  0
  177.9580   18.8810   46.6100 O   0  0  0  0  0  0  0  0  0  0  0  0
  179.7200   20.5580   46.6720 C   0  0  0  0  0  0  0  0  0  0  0  0
  180.6320   19.7660   45.8460 C   0  0  0  0  0  0  0  0  0  0  0  0
  180.3210   18.6590   45.4090 O   0  0  0  0  0  0  0  0  0  0  0  0
  181.9620   20.3450   45.5470 C   0  0  0  0  0  0  0  0  0  0  0  0
  182.8110   19.5920   44.7550 O   0  0  0  0  0  0  0  0  0  0  0  0
  184.1260   23.0900   46.7560 C   0  0  0  0  0  0  0  0  0  0  0  0
  185.3420   23.7560   46.5160 C   0  0  0  0  0  0  0  0  0  0  0  0
  185.9380   24.6020   47.4810 N   0  0  0  0  0  0  0  0  0  0  0  0
  186.6230   23.8420   48.5390 C   0  0  0  0  0  0  0  0  0  0  0  0
  187.4310   24.8100   49.4050 C   0  0  0  0  0  0  0  0  0  0  0  0
  186.5440   25.9210   49.9660 C   0  0  0  0  0  0  0  0  0  0  0  0
  185.7730   26.6220   48.8460 C   0  0  0  0  0  0  0  0  0  0  0  0
  185.0020   25.6150   47.9930 C   0  0  0  0  0  0  0  0  0  0  0  0
  187.7868   24.5291   45.9229 H   0  0  0  0  0  0  0  0  0  0  0  0
  187.9362   23.5914   44.3981 H   0  0  0  0  0  0  0  0  0  0  0  0
  187.0931   25.1776   44.3981 H   0  0  0  0  0  0  0  0  0  0  0  0
  185.9079   22.5921   43.3452 H   0  0  0  0  0  0  0  0  0  0  0  0
  183.7601   21.4319   43.8007 H   0  0  0  0  0  0  0  0  0  0  0  0
  179.6520   23.5774   48.2564 H   0  0  0  0  0  0  0  0  0  0  0  0
  177.3786   22.7480   48.8710 H   0  0  0  0  0  0  0  0  0  0  0  0
  176.6049   20.5132   48.0708 H   0  0  0  0  0  0  0  0  0  0  0  0
  177.2760   18.4650   47.0980 H   0  0  0  0  0  0  0  0  0  0  0  0
  183.4940   20.0120   44.2710 H   0  0  0  0  0  0  0  0  0  0  0  0
  183.6148   23.2381   47.7187 H   0  0  0  0  0  0  0  0  0  0  0  0
  185.8787   23.3238   49.1615 H   0  0  0  0  0  0  0  0  0  0  0  0
  187.2957   23.0988   48.0861 H   0  0  0  0  0  0  0  0  0  0  0  0
  187.8813   24.2539   50.2405 H   0  0  0  0  0  0  0  0  0  0  0  0
  188.2110   25.2690   48.7798 H   0  0  0  0  0  0  0  0  0  0  0  0
  185.8278   25.4851   50.6781 H   0  0  0  0  0  0  0  0  0  0  0  0
  187.1837   26.6612   50.4689 H   0  0  0  0  0  0  0  0  0  0  0  0
  185.0624   27.3343   49.2906 H   0  0  0  0  0  0  0  0  0  0  0  0
  186.4940   27.1457   48.2011 H   0  0  0  0  0  0  0  0  0  0  0  0
  184.2303   25.1270   48.6065 H   0  0  0  0  0  0  0  0  0  0  0  0
  184.5205   26.1340   47.1511 H   0  0  0  0  0  0  0  0  0  0  0  0
  1  2  1  0
  2  3  2  0
  3  4  1  0
  4  5  2  0
  5  6  1  0
  6  7  1  0
  7  8  1  0
  8  9  2  0
  9 10  1  0
 10 11  2  0
 11 12  1  0
 12 13  1  0
 12 14  2  0
 14 15  1  0
 15 16  2  0
 15 17  1  0
 17 18  1  0
  5 19  1  0
 19 20  2  0
 20 21  1  0
 21 22  1  0
 22 23  1  0
 23 24  1  0
 24 25  1  0
 25 26  1  0
 20  2  1  0
 26 21  1  0
 17  6  2  0
 14  8  1  0
  1 27  1  0
  1 28  1  0
  1 29  1  0
  3 30  1  0
  4 31  1  0
  9 32  1  0
 10 33  1  0
 11 34  1  0
 13 35  1  0
 18 36  1  0
 19 37  1  0
 22 38  1  0
 22 39  1  0
 23 40  1  0
 23 41  1  0
 24 42  1  0
 24 43  1  0
 25 44  1  0
 25 45  1  0
 26 46  1  0
 26 47  1  0
M  END
>  <meeko>  (8) 
{"is_sidechain": [false], "free_energy": -6.068, "intermolecular_energy": -6.635, "internal_energy": -0.292}

$$$$
cand_006_out
     RDKit          3D

 47 50  0  0  0  0  0  0  0  0999 V2000
  177.9630   18.4130   46.1140 C   0  0  0  0  0  0  0  0  0  0  0  0
  179.1980   19.2730   46.1470 C   0  0  0  0  0  0  0  0  0  0  0  0
  179.2070   20.4450   46.9150 C   0  0  0  0  0  0  0  0  0  0  0  0
  180.3430   21.2550   46.9630 C   0  0  0  0  0  0  0  0  0  0  0  0
  181.4970   20.9090   46.2510 C   0  0  0  0  0  0  0  0  0  0  0  0
  182.6810   21.7940   46.2960 C   0  0  0  0  0  0  0  0  0  0  0  0
  183.3740   21.8310   45.0900 O   0  0  0  0  0  0  0  0  0  0  0  0
  184.4940   22.6150   44.9920 C   0  0  0  0  0  0  0  0  0  0  0  0
  185.1660   22.6090   43.7680 C   0  0  0  0  0  0  0  0  0  0  0  0
  186.3140   23.3860   43.6000 C   0  0  0  0  0  0  0  0  0  0  0  0
  186.7890   24.1680   44.6550 C   0  0  0  0  0  0  0  0  0  0  0  0
  186.1180   24.1730   45.8750 C   0  0  0  0  0  0  0  0  0  0  0  0
  186.6380   24.9610   46.8630 O   0  0  0  0  0  0  0  0  0  0  0  0
  184.9690   23.3930   46.0420 C   0  0  0  0  0  0  0  0  0  0  0  0
  184.2340   23.3680   47.3070 C   0  0  0  0  0  0  0  0  0  0  0  0
  184.5850   24.0340   48.2790 O   0  0  0  0  0  0  0  0  0  0  0  0
  183.0330   22.5030   47.3840 C   0  0  0  0  0  0  0  0  0  0  0  0
  182.3390   22.4980   48.5800 O   0  0  0  0  0  0  0  0  0  0  0  0
  181.4800   19.7410   45.4760 C   0  0  0  0  0  0  0  0  0  0  0  0
  180.3450   18.9100   45.4160 C   0  0  0  0  0  0  0  0  0  0  0  0
  180.3230   17.7240   44.6470 N   0  0  0  0  0  0  0  0  0  0  0  0
  180.2800   16.5160   45.4890 C   0  0  0  0  0  0  0  0  0  0  0  0
  180.0250   15.2980   44.6010 C   0  0  0  0  0  0  0  0  0  0  0  0
  181.0690   15.1960   43.4890 C   0  0  0  0  0  0  0  0  0  0  0  0
  181.1540   16.5030   42.7000 C   0  0  0  0  0  0  0  0  0  0  0  0
  181.3850   17.6950   43.6290 C   0  0  0  0  0  0  0  0  0  0  0  0
  177.6435   18.1905   47.1428 H   0  0  0  0  0  0  0  0  0  0  0  0
  177.1582   18.9471   45.5875 H   0  0  0  0  0  0  0  0  0  0  0  0
  178.1847   17.4730   45.5875 H   0  0  0  0  0  0  0  0  0  0  0  0
  178.3105   20.7295   47.4854 H   0  0  0  0  0  0  0  0  0  0  0  0
  180.3309   22.1745   47.5666 H   0  0  0  0  0  0  0  0  0  0  0  0
  184.7915   21.9930   42.9372 H   0  0  0  0  0  0  0  0  0  0  0  0
  186.8444   23.3821   42.6363 H   0  0  0  0  0  0  0  0  0  0  0  0
  187.6933   24.7800   44.5222 H   0  0  0  0  0  0  0  0  0  0  0  0
  186.3170   25.8320   46.9850 H   0  0  0  0  0  0  0  0  0  0  0  0
  181.8930   23.2710   48.8660 H   0  0  0  0  0  0  0  0  0  0  0  0
  182.3762   19.4667   44.9001 H   0  0  0  0  0  0  0  0  0  0  0  0
  181.2405   16.3966   46.0116 H   0  0  0  0  0  0  0  0  0  0  0  0
  179.4737   16.6095   46.2314 H   0  0  0  0  0  0  0  0  0  0  0  0
  180.0683   14.3886   45.2183 H   0  0  0  0  0  0  0  0  0  0  0  0
  179.0329   15.4059   44.1384 H   0  0  0  0  0  0  0  0  0  0  0  0
  182.0509   14.9801   43.9354 H   0  0  0  0  0  0  0  0  0  0  0  0
  180.7738   14.3890   42.8022 H   0  0  0  0  0  0  0  0  0  0  0  0
  181.9882   16.4376   41.9859 H   0  0  0  0  0  0  0  0  0  0  0  0
  180.2015   16.6531   42.1706 H   0  0  0  0  0  0  0  0  0  0  0  0
  182.3640   17.5948   44.1205 H   0  0  0  0  0  0  0  0  0  0  0  0
  181.3662   18.6281   43.0468 H   0  0  0  0  0  0  0  0  0  0  0  0
  1  2  1  0
  2  3  2  0
  3  4  1  0
  4  5  2  0
  5  6  1  0
  6  7  1  0
  7  8  1  0
  8  9  2  0
  9 10  1  0
 10 11  2  0
 11 12  1  0
 12 13  1  0
 12 14  2  0
 14 15  1  0
 15 16  2  0
 15 17  1  0
 17 18  1  0
  5 19  1  0
 19 20  2  0
 20 21  1  0
 21 22  1  0
 22 23  1  0
 23 24  1  0
 24 25  1  0
 25 26  1  0
 20  2  1  0
 26 21  1  0
 17  6  2  0
 14  8  1  0
  1 27  1  0
  1 28  1  0
  1 29  1  0
  3 30  1  0
  4 31  1  0
  9 32  1  0
 10 33  1  0
 11 34  1  0
 13 35  1  0
 18 36  1  0
 19 37  1  0
 22 38  1  0
 22 39  1  0
 23 40  1  0
 23 41  1  0
 24 42  1  0
 24 43  1  0
 25 44  1  0
 25 45  1  0
 26 46  1  0
 26 47  1  0
M  END
>  <meeko>  (9) 
{"is_sidechain": [false], "free_energy": -5.154, "intermolecular_energy": -6.016, "internal_energy": 0.163}

$$$$
