cand_003_out
     RDKit          3D

 35 37  0  0  0  0  0  0  0  0999 V2000
  180.1090   14.2950   44.8700 C   0  0  0  0  0  0  0  0  0  0  0  0
  180.4360   15.7220   44.5170 C   0  0  0  0  0  0  0  0  0  0  0  0
  180.0210   16.7530   45.3820 C   0  0  0  0  0  0  0  0  0  0  0  0
  180.3080   18.0990   45.1100 C   0  0  0  0  0  0  0  0  0  0  0  0
  179.8310   19.1530   46.0310 C   0  0  0  0  0  0  0  0  0  0  0  0
  178.4570   19.1130   46.2340 O   0  0  0  0  0  0  0  0  0  0  0  0
  177.8830   20.0370   47.0700 C   0  0  0  0  0  0  0  0  0  0  0  0
  176.4980   19.9690   47.2340 C   0  0  0  0  0  0  0  0  0  0  0  0
  175.8510   20.8790   48.0720 C   0  0  0  0  0  0  0  0  0  0  0  0
  176.5870   21.8560   48.7460 C   0  0  0  0  0  0  0  0  0  0  0  0
  177.9680   21.9200   48.5820 C   0  0  0  0  0  0  0  0  0  0  0  0
  178.6270   22.9000   49.2730 O   0  0  0  0  0  0  0  0  0  0  0  0
  178.6150   21.0100   47.7420 C   0  0  0  0  0  0  0  0  0  0  0  0
  180.0640   21.0440   47.5410 C   0  0  0  0  0  0  0  0  0  0  0  0
  180.7820   21.8680   48.1050 O   0  0  0  0  0  0  0  0  0  0  0  0
  180.6530   20.0390   46.6240 C   0  0  0  0  0  0  0  0  0  0  0  0
  182.0240   20.0700   46.4520 O   0  0  0  0  0  0  0  0  0  0  0  0
  181.0090   18.4080   43.9400 C   0  0  0  0  0  0  0  0  0  0  0  0
  181.4300   17.3960   43.0730 C   0  0  0  0  0  0  0  0  0  0  0  0
  181.1550   16.0460   43.3470 C   0  0  0  0  0  0  0  0  0  0  0  0
  181.6290   14.9780   42.3840 C   0  0  0  0  0  0  0  0  0  0  0  0
  181.3990   15.3010   41.0800 F   0  0  0  0  0  0  0  0  0  0  0  0
  181.0270   13.7680   42.5730 F   0  0  0  0  0  0  0  0  0  0  0  0
  182.9670   14.7380   42.4810 F   0  0  0  0  0  0  0  0  0  0  0  0
  180.0837   14.1845   45.9641 H   0  0  0  0  0  0  0  0  0  0  0  0
  179.1268   14.0297   44.4518 H   0  0  0  0  0  0  0  0  0  0  0  0
  180.8777   13.6285   44.4518 H   0  0  0  0  0  0  0  0  0  0  0  0
  179.4587   16.4969   46.2921 H   0  0  0  0  0  0  0  0  0  0  0  0
  175.9176   19.1996   46.7037 H   0  0  0  0  0  0  0  0  0  0  0  0
  174.7599   20.8264   48.2016 H   0  0  0  0  0  0  0  0  0  0  0  0
  176.0765   22.5736   49.4052 H   0  0  0  0  0  0  0  0  0  0  0  0
  178.1420   23.5790   49.7010 H   0  0  0  0  0  0  0  0  0  0  0  0
  182.5840   19.6520   47.0760 H   0  0  0  0  0  0  0  0  0  0  0  0
  181.2313   19.4582   43.6997 H   0  0  0  0  0  0  0  0  0  0  0  0
  181.9856   17.6609   42.1614 H   0  0  0  0  0  0  0  0  0  0  0  0
  1  2  1  0
  2  3  2  0
  3  4  1  0
  4  5  1  0
  5  6  1  0
  6  7  1  0
  7  8  2  0
  8  9  1  0
  9 10  2  0
 10 11  1  0
 11 12  1  0
 11 13  2  0
 13 14  1  0
 14 15  2  0
 14 16  1  0
 16 17  1  0
  4 18  2  0
 18 19  1  0
 19 20  2  0
 20 21  1  0
 21 22  1  0
 21 23  1  0
 21 24  1  0
 20  2  1  0
 16  5  2  0
 13  7  1  0
  1 25  1  0
  1 26  1  0
  1 27  1  0
  3 28  1  0
  8 29  1  0
  9 30  1  0
 10 31  1  0
 12 32  1  0
 17 33  1  0
 18 34  1  0
 19 35  1  0
M  END
>  <meeko>  (1) 
{"is_sidechain": [false], "free_energy": -9.153, "intermolecular_energy": -10.759, "internal_energy": 0.187}

$$$$
cand_003_out
     RDKit          3D

 35 37  0  0  0  0  0  0  0  0999 V2000
  181.4780   17.2750   41.1420 C   0  0  0  0  0  0  0  0  0  0  0  0
  181.0660   16.9730   42.5580 C   0  0  0  0  0  0  0  0  0  0  0  0
  180.7700   18.0410   43.4270 C   0  0  0  0  0  0  0  0  0  0  0  0
  180.3680   17.8190   44.7530 C   0  0  0  0  0  0  0  0  0  0  0  0
  180.0930   18.9690   45.6400 C   0  0  0  0  0  0  0  0  0  0  0  0
  178.8000   18.9610   46.1510 O   0  0  0  0  0  0  0  0  0  0  0  0
  178.4130   19.9740   46.9910 C   0  0  0  0  0  0  0  0  0  0  0  0
  177.1020   19.9340   47.4690 C   0  0  0  0  0  0  0  0  0  0  0  0
  176.6440   20.9340   48.3300 C   0  0  0  0  0  0  0  0  0  0  0  0
  177.4960   21.9730   48.7130 C   0  0  0  0  0  0  0  0  0  0  0  0
  178.8030   22.0090   48.2350 C   0  0  0  0  0  0  0  0  0  0  0  0
  179.5830   23.0530   48.6500 O   0  0  0  0  0  0  0  0  0  0  0  0
  179.2600   21.0090   47.3720 C   0  0  0  0  0  0  0  0  0  0  0  0
  180.6260   21.0110   46.8470 C   0  0  0  0  0  0  0  0  0  0  0  0
  181.4380   21.8860   47.1430 O   0  0  0  0  0  0  0  0  0  0  0  0
  181.0110   19.9090   45.9340 C   0  0  0  0  0  0  0  0  0  0  0  0
  182.3080   19.9120   45.4540 O   0  0  0  0  0  0  0  0  0  0  0  0
  180.2810   16.5000   45.2110 C   0  0  0  0  0  0  0  0  0  0  0  0
  180.5680   15.4300   44.3600 C   0  0  0  0  0  0  0  0  0  0  0  0
  180.9590   15.6470   43.0280 C   0  0  0  0  0  0  0  0  0  0  0  0
  181.2610   14.4610   42.1360 C   0  0  0  0  0  0  0  0  0  0  0  0
  182.5940   14.2990   41.9040 F   0  0  0  0  0  0  0  0  0  0  0  0
  180.6830   14.5450   40.9040 F   0  0  0  0  0  0  0  0  0  0  0  0
  180.8260   13.2820   42.6640 F   0  0  0  0  0  0  0  0  0  0  0  0
  182.3652   17.9253   41.1490 H   0  0  0  0  0  0  0  0  0  0  0  0
  181.7159   16.3358   40.6211 H   0  0  0  0  0  0  0  0  0  0  0  0
  180.6540   17.7846   40.6211 H   0  0  0  0  0  0  0  0  0  0  0  0
  180.8560   19.0736   43.0576 H   0  0  0  0  0  0  0  0  0  0  0  0
  176.4307   19.1162   47.1681 H   0  0  0  0  0  0  0  0  0  0  0  0
  175.6111   20.9035   48.7070 H   0  0  0  0  0  0  0  0  0  0  0  0
  177.1349   22.7607   49.3906 H   0  0  0  0  0  0  0  0  0  0  0  0
  179.2630   23.9320   48.5860 H   0  0  0  0  0  0  0  0  0  0  0  0
  182.9880   20.3260   45.9470 H   0  0  0  0  0  0  0  0  0  0  0  0
  179.9836   16.3035   46.2516 H   0  0  0  0  0  0  0  0  0  0  0  0
  180.4865   14.4006   44.7390 H   0  0  0  0  0  0  0  0  0  0  0  0
  1  2  1  0
  2  3  2  0
  3  4  1  0
  4  5  1  0
  5  6  1  0
  6  7  1  0
  7  8  2  0
  8  9  1  0
  9 10  2  0
 10 11  1  0
 11 12  1  0
 11 13  2  0
 13 14  1  0
 14 15  2  0
 14 16  1  0
 16 17  1  0
  4 18  2  0
 18 19  1  0
 19 20  2  0
 20 21  1  0
 21 22  1  0
 21 23  1  0
 21 24  1  0
 20  2  1  0
 16  5  2  0
 13  7  1  0
  1 25  1  0
  1 26  1  0
  1 27  1  0
  3 28  1  0
  8 29  1  0
  9 30  1  0
 10 31  1  0
 12 32  1  0
 17 33  1  0
 18 34  1  0
 19 35  1  0
M  END
>  <meeko>  (2) 
{"is_sidechain": [false], "free_energy": -8.167, "intermolecular_energy": -9.236, "internal_energy": -0.176}

$$$$
cand_003_out
     RDKit          3D

 35 37  0  0  0  0  0  0  0  0999 V2000
  174.8490   19.8800   47.2740 C   0  0  0  0  0  0  0  0  0  0  0  0
  176.3320   20.1260   47.3600 C   0  0  0  0  0  0  0  0  0  0  0  0
  177.2040   19.3250   46.5980 C   0  0  0  0  0  0  0  0  0  0  0  0
  178.5930   19.5170   46.6280 C   0  0  0  0  0  0  0  0  0  0  0  0
  179.4750   18.6360   45.8330 C   0  0  0  0  0  0  0  0  0  0  0  0
  179.0480   17.3130   45.8190 O   0  0  0  0  0  0  0  0  0  0  0  0
  179.7770   16.3890   45.1150 C   0  0  0  0  0  0  0  0  0  0  0  0
  179.3210   15.0700   45.1400 C   0  0  0  0  0  0  0  0  0  0  0  0
  180.0160   14.0790   44.4430 C   0  0  0  0  0  0  0  0  0  0  0  0
  181.1660   14.4070   43.7210 C   0  0  0  0  0  0  0  0  0  0  0  0
  181.6180   15.7240   43.6970 C   0  0  0  0  0  0  0  0  0  0  0  0
  182.7490   15.9750   42.9710 O   0  0  0  0  0  0  0  0  0  0  0  0
  180.9230   16.7150   44.3970 C   0  0  0  0  0  0  0  0  0  0  0  0
  181.3650   18.1100   44.3980 C   0  0  0  0  0  0  0  0  0  0  0  0
  182.3630   18.4780   43.7810 O   0  0  0  0  0  0  0  0  0  0  0  0
  180.5620   19.0820   45.1760 C   0  0  0  0  0  0  0  0  0  0  0  0
  180.9800   20.4000   45.1600 O   0  0  0  0  0  0  0  0  0  0  0  0
  179.1090   20.5220   47.4530 C   0  0  0  0  0  0  0  0  0  0  0  0
  178.2570   21.3270   48.2130 C   0  0  0  0  0  0  0  0  0  0  0  0
  176.8640   21.1470   48.1770 C   0  0  0  0  0  0  0  0  0  0  0  0
  175.9730   22.0400   49.0140 C   0  0  0  0  0  0  0  0  0  0  0  0
  175.3620   21.3730   50.0330 F   0  0  0  0  0  0  0  0  0  0  0  0
  174.9660   22.6250   48.3040 F   0  0  0  0  0  0  0  0  0  0  0  0
  176.6560   23.0680   49.5940 F   0  0  0  0  0  0  0  0  0  0  0  0
  174.4294   19.8104   48.2885 H   0  0  0  0  0  0  0  0  0  0  0  0
  174.3701   20.7110   46.7354 H   0  0  0  0  0  0  0  0  0  0  0  0
  174.6641   18.9389   46.7354 H   0  0  0  0  0  0  0  0  0  0  0  0
  176.7857   18.5294   45.9639 H   0  0  0  0  0  0  0  0  0  0  0  0
  178.4152   14.8113   45.7080 H   0  0  0  0  0  0  0  0  0  0  0  0
  179.6574   13.0393   44.4626 H   0  0  0  0  0  0  0  0  0  0  0  0
  181.7135   13.6264   43.1724 H   0  0  0  0  0  0  0  0  0  0  0  0
  183.1730   15.2790   42.5080 H   0  0  0  0  0  0  0  0  0  0  0  0
  180.9920   20.8970   45.9540 H   0  0  0  0  0  0  0  0  0  0  0  0
  180.1964   20.6800   47.5038 H   0  0  0  0  0  0  0  0  0  0  0  0
  178.6840   22.1152   48.8505 H   0  0  0  0  0  0  0  0  0  0  0  0
  1  2  1  0
  2  3  2  0
  3  4  1  0
  4  5  1  0
  5  6  1  0
  6  7  1  0
  7  8  2  0
  8  9  1  0
  9 10  2  0
 10 11  1  0
 11 12  1  0
 11 13  2  0
 13 14  1  0
 14 15  2  0
 14 16  1  0
 16 17  1  0
  4 18  2  0
 18 19  1  0
 19 20  2  0
 20 21  1  0
 21 22  1  0
 21 23  1  0
 21 24  1  0
 20  2  1  0
 16  5  2  0
 13  7  1  0
  1 25  1  0
  1 26  1  0
  1 27  1  0
  3 28  1  0
  8 29  1  0
  9 30  1  0
 10 31  1  0
 12 32  1  0
 17 33  1  0
 18 34  1  0
 19 35  1  0
M  END
>  <meeko>  (3) 
{"is_sidechain": [false], "free_energy": -7.864, "intermolecular_energy": -9.011, "internal_energy": -0.046}

$$$$
cand_003_out
     RDKit          3D

 35 37  0  0  0  0  0  0  0  0999 V2000
  179.4300   14.8030   45.2410 C   0  0  0  0  0  0  0  0  0  0  0  0
  179.7280   16.2750   45.1270 C   0  0  0  0  0  0  0  0  0  0  0  0
  178.9090   17.1930   45.8120 C   0  0  0  0  0  0  0  0  0  0  0  0
  179.1460   18.5750   45.7530 C   0  0  0  0  0  0  0  0  0  0  0  0
  178.2470   19.5060   46.4660 C   0  0  0  0  0  0  0  0  0  0  0  0
  178.8870   20.6710   46.8730 O   0  0  0  0  0  0  0  0  0  0  0  0
  178.1650   21.6230   47.5470 C   0  0  0  0  0  0  0  0  0  0  0  0
  178.8500   22.7700   47.9500 C   0  0  0  0  0  0  0  0  0  0  0  0
  178.1740   23.7800   48.6390 C   0  0  0  0  0  0  0  0  0  0  0  0
  176.8140   23.6430   48.9240 C   0  0  0  0  0  0  0  0  0  0  0  0
  176.1330   22.4970   48.5200 C   0  0  0  0  0  0  0  0  0  0  0  0
  174.8020   22.4290   48.8310 O   0  0  0  0  0  0  0  0  0  0  0  0
  176.8100   21.4870   47.8320 C   0  0  0  0  0  0  0  0  0  0  0  0
  176.1320   20.2680   47.3900 C   0  0  0  0  0  0  0  0  0  0  0  0
  174.9350   20.0770   47.5970 O   0  0  0  0  0  0  0  0  0  0  0  0
  176.9410   19.2540   46.6750 C   0  0  0  0  0  0  0  0  0  0  0  0
  176.2880   18.1120   46.2490 O   0  0  0  0  0  0  0  0  0  0  0  0
  180.2150   19.0350   44.9770 C   0  0  0  0  0  0  0  0  0  0  0  0
  181.0380   18.1360   44.2930 C   0  0  0  0  0  0  0  0  0  0  0  0
  180.8120   16.7500   44.3590 C   0  0  0  0  0  0  0  0  0  0  0  0
  181.7260   15.8080   43.6060 C   0  0  0  0  0  0  0  0  0  0  0  0
  181.1450   15.2860   42.4890 F   0  0  0  0  0  0  0  0  0  0  0  0
  182.1300   14.7340   44.3440 F   0  0  0  0  0  0  0  0  0  0  0  0
  182.8730   16.4130   43.1840 F   0  0  0  0  0  0  0  0  0  0  0  0
  179.3730   14.5216   46.3029 H   0  0  0  0  0  0  0  0  0  0  0  0
  178.4694   14.5844   44.7517 H   0  0  0  0  0  0  0  0  0  0  0  0
  180.2299   14.2280   44.7517 H   0  0  0  0  0  0  0  0  0  0  0  0
  178.0635   16.8181   46.4074 H   0  0  0  0  0  0  0  0  0  0  0  0
  179.9213   22.8788   47.7254 H   0  0  0  0  0  0  0  0  0  0  0  0
  178.7137   24.6841   48.9573 H   0  0  0  0  0  0  0  0  0  0  0  0
  176.2816   24.4382   49.4663 H   0  0  0  0  0  0  0  0  0  0  0  0
  174.2090   23.0740   48.4990 H   0  0  0  0  0  0  0  0  0  0  0  0
  176.4270   17.3000   46.6940 H   0  0  0  0  0  0  0  0  0  0  0  0
  180.4099   20.1152   44.9044 H   0  0  0  0  0  0  0  0  0  0  0  0
  181.8765   18.5193   43.6930 H   0  0  0  0  0  0  0  0  0  0  0  0
  1  2  1  0
  2  3  2  0
  3  4  1  0
  4  5  1  0
  5  6  1  0
  6  7  1  0
  7  8  2  0
  8  9  1  0
  9 10  2  0
 10 11  1  0
 11 12  1  0
 11 13  2  0
 13 14  1  0
 14 15  2  0
 14 16  1  0
 16 17  1  0
  4 18  2  0
 18 19  1  0
 19 20  2  0
 20 21  1  0
 21 22  1  0
 21 23  1  0
 21 24  1  0
 20  2  1  0
 16  5  2  0
 13  7  1  0
  1 25  1  0
  1 26  1  0
  1 27  1  0
  3 28  1  0
  8 29  1  0
  9 30  1  0
 10 31  1  0
 12 32  1  0
 17 33  1  0
 18 34  1  0
 19 35  1  0
M  END
>  <meeko>  (4) 
{"is_sidechain": [false], "free_energy": -7.091, "intermolecular_energy": -8.321, "internal_energy": 0.174}

$$$$
