cand_041_out
     RDKit          3D

 47 49  0  0  0  0  0  0  0  0999 V2000
  177.8600   23.2620   48.8220 C   0  0  0  0  0  0  0  0  0  0  0  0
  178.4310   22.1540   47.9810 C   0  0  0  0  0  0  0  0  0  0  0  0
  179.8010   21.8680   48.0710 C   0  0  0  0  0  0  0  0  0  0  0  0
  180.3740   20.8450   47.3120 C   0  0  0  0  0  0  0  0  0  0  0  0
  179.5950   20.0800   46.4390 C   0  0  0  0  0  0  0  0  0  0  0  0
  180.2170   18.9880   45.6600 C   0  0  0  0  0  0  0  0  0  0  0  0
  179.5210   17.7890   45.7590 O   0  0  0  0  0  0  0  0  0  0  0  0
  179.9910   16.6910   45.0850 C   0  0  0  0  0  0  0  0  0  0  0  0
  179.2530   15.5130   45.2000 C   0  0  0  0  0  0  0  0  0  0  0  0
  179.6770   14.3570   44.5390 C   0  0  0  0  0  0  0  0  0  0  0  0
  180.8390   14.3810   43.7660 C   0  0  0  0  0  0  0  0  0  0  0  0
  181.5730   15.5570   43.6520 C   0  0  0  0  0  0  0  0  0  0  0  0
  182.7010   15.5100   42.8790 O   0  0  0  0  0  0  0  0  0  0  0  0
  181.1480   16.7130   44.3120 C   0  0  0  0  0  0  0  0  0  0  0  0
  181.8910   17.9710   44.2200 C   0  0  0  0  0  0  0  0  0  0  0  0
  182.9260   18.0700   43.5630 O   0  0  0  0  0  0  0  0  0  0  0  0
  181.3510   19.1410   44.9510 C   0  0  0  0  0  0  0  0  0  0  0  0
  182.0690   20.3210   44.8660 O   0  0  0  0  0  0  0  0  0  0  0  0
  178.2220   20.3520   46.3630 C   0  0  0  0  0  0  0  0  0  0  0  0
  177.6260   21.3780   47.1220 C   0  0  0  0  0  0  0  0  0  0  0  0
  176.1400   21.6240   46.9550 C   0  0  0  0  0  0  0  0  0  0  0  0
  175.3120   20.3980   47.3760 C   0  0  0  0  0  0  0  0  0  0  0  0
  174.7980   20.4850   48.7590 N   0  0  0  0  0  0  0  0  0  0  0  0
  174.7880   21.8640   49.2520 C   0  0  0  0  0  0  0  0  0  0  0  0
  175.6160   19.6520   49.6450 C   0  0  0  0  0  0  0  0  0  0  0  0
  177.9865   23.0166   49.8868 H   0  0  0  0  0  0  0  0  0  0  0  0
  178.3863   24.2014   48.5972 H   0  0  0  0  0  0  0  0  0  0  0  0
  176.7895   23.3786   48.5972 H   0  0  0  0  0  0  0  0  0  0  0  0
  180.4340   22.4584   48.7498 H   0  0  0  0  0  0  0  0  0  0  0  0
  181.4507   20.6389   47.4023 H   0  0  0  0  0  0  0  0  0  0  0  0
  178.3381   15.4939   45.8104 H   0  0  0  0  0  0  0  0  0  0  0  0
  179.0948   13.4279   44.6279 H   0  0  0  0  0  0  0  0  0  0  0  0
  181.1740   13.4706   43.2474 H   0  0  0  0  0  0  0  0  0  0  0  0
  182.9400   16.2480   42.3540 H   0  0  0  0  0  0  0  0  0  0  0  0
  181.6760   21.0810   44.4860 H   0  0  0  0  0  0  0  0  0  0  0  0
  177.5931   19.7479   45.6925 H   0  0  0  0  0  0  0  0  0  0  0  0
  175.8482   22.4827   47.5775 H   0  0  0  0  0  0  0  0  0  0  0  0
  175.9419   21.8242   45.8917 H   0  0  0  0  0  0  0  0  0  0  0  0
  174.4565   20.3029   46.6912 H   0  0  0  0  0  0  0  0  0  0  0  0
  175.9788   19.5243   47.3312 H   0  0  0  0  0  0  0  0  0  0  0  0
  173.8350   20.1480   48.7530 H   0  0  0  0  0  0  0  0  0  0  0  0
  174.7880   21.8601   50.3520 H   0  0  0  0  0  0  0  0  0  0  0  0
  175.6823   22.3903   48.8871 H   0  0  0  0  0  0  0  0  0  0  0  0
  173.8861   22.3773   48.8871 H   0  0  0  0  0  0  0  0  0  0  0  0
  175.3814   19.8909   50.6928 H   0  0  0  0  0  0  0  0  0  0  0  0
  175.3995   18.5906   49.4536 H   0  0  0  0  0  0  0  0  0  0  0  0
  176.6811   19.8492   49.4536 H   0  0  0  0  0  0  0  0  0  0  0  0
  1  2  1  0
  2  3  2  0
  3  4  1  0
  4  5  2  0
  5  6  1  0
  6  7  1  0
  7  8  1  0
  8  9  2  0
  9 10  1  0
 10 11  2  0
 11 12  1  0
 12 13  1  0
 12 14  2  0
 14 15  1  0
 15 16  2  0
 15 17  1  0
 17 18  1  0
  5 19  1  0
 19 20  2  0
 20 21  1  0
 21 22  1  0
 22 23  1  0
 23 24  1  0
 23 25  1  0
 20  2  1  0
 17  6  2  0
 14  8  1  0
  1 26  1  0
  1 27  1  0
  1 28  1  0
  3 29  1  0
  4 30  1  0
  9 31  1  0
 10 32  1  0
 11 33  1  0
 13 34  1  0
 18 35  1  0
 19 36  1  0
 21 37  1  0
 21 38  1  0
 22 39  1  0
 22 40  1  0
 23 41  1  0
 24 42  1  0
 24 43  1  0
 24 44  1  0
 25 45  1  0
 25 46  1  0
 25 47  1  0
M  CHG  1  23   1
M  END
>  <meeko>  (1) 
{"is_sidechain": [false], "free_energy": -6.766, "intermolecular_energy": -8.743, "internal_energy": -0.23}

$$$$
cand_041_out
     RDKit          3D

 47 49  0  0  0  0  0  0  0  0999 V2000
  180.0080   21.9480   47.8430 C   0  0  0  0  0  0  0  0  0  0  0  0
  180.1200   20.7760   46.9070 C   0  0  0  0  0  0  0  0  0  0  0  0
  181.3180   20.5790   46.2040 C   0  0  0  0  0  0  0  0  0  0  0  0
  181.4690   19.5020   45.3280 C   0  0  0  0  0  0  0  0  0  0  0  0
  180.4270   18.5920   45.1260 C   0  0  0  0  0  0  0  0  0  0  0  0
  180.6140   17.4470   44.2100 C   0  0  0  0  0  0  0  0  0  0  0  0
  180.8740   17.8370   42.9020 O   0  0  0  0  0  0  0  0  0  0  0  0
  181.0680   16.8720   41.9470 C   0  0  0  0  0  0  0  0  0  0  0  0
  181.3410   17.3100   40.6500 C   0  0  0  0  0  0  0  0  0  0  0  0
  181.5470   16.3780   39.6300 C   0  0  0  0  0  0  0  0  0  0  0  0
  181.4790   15.0110   39.9060 C   0  0  0  0  0  0  0  0  0  0  0  0
  181.2060   14.5770   41.2000 C   0  0  0  0  0  0  0  0  0  0  0  0
  181.1530   13.2250   41.4010 O   0  0  0  0  0  0  0  0  0  0  0  0
  181.0010   15.5100   42.2210 C   0  0  0  0  0  0  0  0  0  0  0  0
  180.7110   15.0970   43.5950 C   0  0  0  0  0  0  0  0  0  0  0  0
  180.6290   13.9130   43.9160 O   0  0  0  0  0  0  0  0  0  0  0  0
  180.5180   16.1630   44.6050 C   0  0  0  0  0  0  0  0  0  0  0  0
  180.2330   15.7600   45.8970 O   0  0  0  0  0  0  0  0  0  0  0  0
  179.2360   18.7770   45.8430 C   0  0  0  0  0  0  0  0  0  0  0  0
  179.0670   19.8560   46.7330 C   0  0  0  0  0  0  0  0  0  0  0  0
  177.7350   19.9980   47.4430 C   0  0  0  0  0  0  0  0  0  0  0  0
  176.6270   20.4620   46.4800 C   0  0  0  0  0  0  0  0  0  0  0  0
  175.2820   19.9850   46.8620 N   0  0  0  0  0  0  0  0  0  0  0  0
  174.8130   20.6070   48.1020 C   0  0  0  0  0  0  0  0  0  0  0  0
  175.2980   18.5280   47.0180 C   0  0  0  0  0  0  0  0  0  0  0  0
  180.0421   21.5912   48.8830 H   0  0  0  0  0  0  0  0  0  0  0  0
  180.8441   22.6404   47.6653 H   0  0  0  0  0  0  0  0  0  0  0  0
  179.0559   22.4695   47.6653 H   0  0  0  0  0  0  0  0  0  0  0  0
  182.1509   21.2835   46.3449 H   0  0  0  0  0  0  0  0  0  0  0  0
  182.4193   19.3680   44.7904 H   0  0  0  0  0  0  0  0  0  0  0  0
  181.3938   18.3868   40.4316 H   0  0  0  0  0  0  0  0  0  0  0  0
  181.7631   16.7217   38.6077 H   0  0  0  0  0  0  0  0  0  0  0  0
  181.6410   14.2780   39.1019 H   0  0  0  0  0  0  0  0  0  0  0  0
  181.8430   12.6770   41.0810 H   0  0  0  0  0  0  0  0  0  0  0  0
  180.6980   15.0420   46.2770 H   0  0  0  0  0  0  0  0  0  0  0  0
  178.4122   18.0609   45.7069 H   0  0  0  0  0  0  0  0  0  0  0  0
  177.4524   19.0245   47.8701 H   0  0  0  0  0  0  0  0  0  0  0  0
  177.8447   20.7560   48.2326 H   0  0  0  0  0  0  0  0  0  0  0  0
  176.6159   21.5618   46.4648 H   0  0  0  0  0  0  0  0  0  0  0  0
  176.8550   20.0356   45.4920 H   0  0  0  0  0  0  0  0  0  0  0  0
  174.6370   20.2500   46.1170 H   0  0  0  0  0  0  0  0  0  0  0  0
  175.2243   20.0616   48.9642 H   0  0  0  0  0  0  0  0  0  0  0  0
  175.1484   21.6541   48.1366 H   0  0  0  0  0  0  0  0  0  0  0  0
  173.7141   20.5726   48.1366 H   0  0  0  0  0  0  0  0  0  0  0  0
  175.3008   18.2738   48.0882 H   0  0  0  0  0  0  0  0  0  0  0  0
  174.4045   18.0984   46.5414 H   0  0  0  0  0  0  0  0  0  0  0  0
  176.2007   18.1181   46.5414 H   0  0  0  0  0  0  0  0  0  0  0  0
  1  2  1  0
  2  3  2  0
  3  4  1  0
  4  5  2  0
  5  6  1  0
  6  7  1  0
  7  8  1  0
  8  9  2  0
  9 10  1  0
 10 11  2  0
 11 12  1  0
 12 13  1  0
 12 14  2  0
 14 15  1  0
 15 16  2  0
 15 17  1  0
 17 18  1  0
  5 19  1  0
 19 20  2  0
 20 21  1  0
 21 22  1  0
 22 23  1  0
 23 24  1  0
 23 25  1  0
 20  2  1  0
 17  6  2  0
 14  8  1  0
  1 26  1  0
  1 27  1  0
  1 28  1  0
  3 29  1  0
  4 30  1  0
  9 31  1  0
 10 32  1  0
 11 33  1  0
 13 34  1  0
 18 35  1  0
 19 36  1  0
 21 37  1  0
 21 38  1  0
 22 39  1  0
 22 40  1  0
 23 41  1  0
 24 42  1  0
 24 43  1  0
 24 44  1  0
 25 45  1  0
 25 46  1  0
 25 47  1  0
M  CHG  1  23   1
M  END
>  <meeko>  (2) 
{"is_sidechain": [false], "free_energy": -5.918, "intermolecular_energy": -7.449, "internal_energy": -0.43}

$$$$
cand_041_out
     RDKit          3D

 47 49  0  0  0  0  0  0  0  0999 V2000
  182.9240   18.2600   43.9690 C   0  0  0  0  0  0  0  0  0  0  0  0
  181.6810   18.7230   44.6770 C   0  0  0  0  0  0  0  0  0  0  0  0
  181.6020   20.0530   45.1150 C   0  0  0  0  0  0  0  0  0  0  0  0
  180.4650   20.5290   45.7720 C   0  0  0  0  0  0  0  0  0  0  0  0
  179.3750   19.6870   46.0140 C   0  0  0  0  0  0  0  0  0  0  0  0
  178.1730   20.2150   46.6940 C   0  0  0  0  0  0  0  0  0  0  0  0
  178.3870   21.4530   47.2890 O   0  0  0  0  0  0  0  0  0  0  0  0
  177.3520   22.0580   47.9550 C   0  0  0  0  0  0  0  0  0  0  0  0
  177.6080   23.3060   48.5240 C   0  0  0  0  0  0  0  0  0  0  0  0
  176.5970   23.9760   49.2180 C   0  0  0  0  0  0  0  0  0  0  0  0
  175.3330   23.3960   49.3440 C   0  0  0  0  0  0  0  0  0  0  0  0
  175.0800   22.1510   48.7750 C   0  0  0  0  0  0  0  0  0  0  0  0
  173.8210   21.6420   48.9370 O   0  0  0  0  0  0  0  0  0  0  0  0
  176.0920   21.4820   48.0800 C   0  0  0  0  0  0  0  0  0  0  0  0
  175.8690   20.1710   47.4680 C   0  0  0  0  0  0  0  0  0  0  0  0
  174.7860   19.5940   47.5410 O   0  0  0  0  0  0  0  0  0  0  0  0
  177.0030   19.5500   46.7460 C   0  0  0  0  0  0  0  0  0  0  0  0
  176.7840   18.3060   46.1830 O   0  0  0  0  0  0  0  0  0  0  0  0
  179.4450   18.3630   45.5600 C   0  0  0  0  0  0  0  0  0  0  0  0
  180.5820   17.8670   44.8930 C   0  0  0  0  0  0  0  0  0  0  0  0
  180.5850   16.4130   44.4630 C   0  0  0  0  0  0  0  0  0  0  0  0
  180.7830   16.2720   42.9440 C   0  0  0  0  0  0  0  0  0  0  0  0
  180.4420   14.9300   42.4310 N   0  0  0  0  0  0  0  0  0  0  0  0
  180.1790   13.9810   43.5150 C   0  0  0  0  0  0  0  0  0  0  0  0
  181.5340   14.4270   41.5920 C   0  0  0  0  0  0  0  0  0  0  0  0
  183.6848   17.9766   44.7113 H   0  0  0  0  0  0  0  0  0  0  0  0
  182.6848   17.3907   43.3389 H   0  0  0  0  0  0  0  0  0  0  0  0
  183.3118   19.0740   43.3389 H   0  0  0  0  0  0  0  0  0  0  0  0
  182.4491   20.7322   44.9383 H   0  0  0  0  0  0  0  0  0  0  0  0
  180.4265   21.5774   46.1026 H   0  0  0  0  0  0  0  0  0  0  0  0
  178.6043   23.7619   48.4264 H   0  0  0  0  0  0  0  0  0  0  0  0
  176.7970   24.9609   49.6653 H   0  0  0  0  0  0  0  0  0  0  0  0
  174.5379   23.9224   49.8924 H   0  0  0  0  0  0  0  0  0  0  0  0
  173.6380   21.0610   49.6480 H   0  0  0  0  0  0  0  0  0  0  0  0
  175.9270   17.9290   46.1990 H   0  0  0  0  0  0  0  0  0  0  0  0
  178.5890   17.6932   45.7291 H   0  0  0  0  0  0  0  0  0  0  0  0
  181.4030   15.8896   44.9797 H   0  0  0  0  0  0  0  0  0  0  0  0
  179.6107   15.9747   44.7251 H   0  0  0  0  0  0  0  0  0  0  0  0
  180.1441   17.0113   42.4388 H   0  0  0  0  0  0  0  0  0  0  0  0
  181.8510   16.4368   42.7387 H   0  0  0  0  0  0  0  0  0  0  0  0
  179.5890   15.0170   41.8780 H   0  0  0  0  0  0  0  0  0  0  0  0
  180.3182   14.4831   44.4838 H   0  0  0  0  0  0  0  0  0  0  0  0
  179.1451   13.6134   43.4377 H   0  0  0  0  0  0  0  0  0  0  0  0
  180.8762   13.1337   43.4377 H   0  0  0  0  0  0  0  0  0  0  0  0
  182.3462   14.0529   42.2326 H   0  0  0  0  0  0  0  0  0  0  0  0
  181.1618   13.6096   40.9569 H   0  0  0  0  0  0  0  0  0  0  0  0
  181.9133   15.2411   40.9569 H   0  0  0  0  0  0  0  0  0  0  0  0
  1  2  1  0
  2  3  2  0
  3  4  1  0
  4  5  2  0
  5  6  1  0
  6  7  1  0
  7  8  1  0
  8  9  2  0
  9 10  1  0
 10 11  2  0
 11 12  1  0
 12 13  1  0
 12 14  2  0
 14 15  1  0
 15 16  2  0
 15 17  1  0
 17 18  1  0
  5 19  1  0
 19 20  2  0
 20 21  1  0
 21 22  1  0
 22 23  1  0
 23 24  1  0
 23 25  1  0
 20  2  1  0
 17  6  2  0
 14  8  1  0
  1 26  1  0
  1 27  1  0
  1 28  1  0
  3 29  1  0
  4 30  1  0
  9 31  1  0
 10 32  1  0
 11 33  1  0
 13 34  1  0
 18 35  1  0
 19 36  1  0
 21 37  1  0
 21 38  1  0
 22 39  1  0
 22 40  1  0
 23 41  1  0
 24 42  1  0
 24 43  1  0
 24 44  1  0
 25 45  1  0
 25 46  1  0
 25 47  1  0
M  CHG  1  23   1
M  END
>  <meeko>  (3) 
{"is_sidechain": [false], "free_energy": -5.856, "intermolecular_energy": -8.349, "internal_energy": 0.551}

$$$$
cand_041_out
     RDKit          3D

 47 49  0  0  0  0  0  0  0  0999 V2000
  180.4460   13.6370   43.9280 C   0  0  0  0  0  0  0  0  0  0  0  0
  180.2640   15.0420   44.4320 C   0  0  0  0  0  0  0  0  0  0  0  0
  179.2120   15.3150   45.3190 C   0  0  0  0  0  0  0  0  0  0  0  0
  179.0080   16.6040   45.8170 C   0  0  0  0  0  0  0  0  0  0  0  0
  179.8470   17.6580   45.4410 C   0  0  0  0  0  0  0  0  0  0  0  0
  179.6260   19.0100   45.9950 C   0  0  0  0  0  0  0  0  0  0  0  0
  178.2850   19.2830   46.2380 O   0  0  0  0  0  0  0  0  0  0  0  0
  177.9390   20.5060   46.7540 C   0  0  0  0  0  0  0  0  0  0  0  0
  176.5830   20.7310   46.9970 C   0  0  0  0  0  0  0  0  0  0  0  0
  176.1630   21.9560   47.5200 C   0  0  0  0  0  0  0  0  0  0  0  0
  177.0980   22.9550   47.7980 C   0  0  0  0  0  0  0  0  0  0  0  0
  178.4500   22.7290   47.5560 C   0  0  0  0  0  0  0  0  0  0  0  0
  179.3110   23.7500   47.8510 O   0  0  0  0  0  0  0  0  0  0  0  0
  178.8700   21.5020   47.0330 C   0  0  0  0  0  0  0  0  0  0  0  0
  180.2810   21.2230   46.7620 C   0  0  0  0  0  0  0  0  0  0  0  0
  181.1620   22.0530   46.9750 O   0  0  0  0  0  0  0  0  0  0  0  0
  180.6230   19.8880   46.2160 C   0  0  0  0  0  0  0  0  0  0  0  0
  181.9570   19.6410   45.9530 O   0  0  0  0  0  0  0  0  0  0  0  0
  180.9100   17.3810   44.5700 C   0  0  0  0  0  0  0  0  0  0  0  0
  181.1330   16.0870   44.0600 C   0  0  0  0  0  0  0  0  0  0  0  0
  182.2880   15.8840   43.0990 C   0  0  0  0  0  0  0  0  0  0  0  0
  181.8920   14.9730   41.9230 C   0  0  0  0  0  0  0  0  0  0  0  0
  181.6170   15.7140   40.6750 N   0  0  0  0  0  0  0  0  0  0  0  0
  180.8480   16.9350   40.9230 C   0  0  0  0  0  0  0  0  0  0  0  0
  180.8870   14.8550   39.7380 C   0  0  0  0  0  0  0  0  0  0  0  0
  180.5350   12.9497   44.7822 H   0  0  0  0  0  0  0  0  0  0  0  0
  179.5773   13.3514   43.3166 H   0  0  0  0  0  0  0  0  0  0  0  0
  181.3588   13.5821   43.3166 H   0  0  0  0  0  0  0  0  0  0  0  0
  178.5379   14.5021   45.6268 H   0  0  0  0  0  0  0  0  0  0  0  0
  178.1775   16.7924   46.5133 H   0  0  0  0  0  0  0  0  0  0  0  0
  175.8461   19.9445   46.7769 H   0  0  0  0  0  0  0  0  0  0  0  0
  175.0948   22.1339   47.7131 H   0  0  0  0  0  0  0  0  0  0  0  0
  176.7663   23.9203   48.2081 H   0  0  0  0  0  0  0  0  0  0  0  0
  178.9830   24.5510   48.2080 H   0  0  0  0  0  0  0  0  0  0  0  0
  182.2320   18.7850   45.6870 H   0  0  0  0  0  0  0  0  0  0  0  0
  181.5882   18.1960   44.2770 H   0  0  0  0  0  0  0  0  0  0  0  0
  182.5999   16.8620   42.7038 H   0  0  0  0  0  0  0  0  0  0  0  0
  183.1110   15.4015   43.6466 H   0  0  0  0  0  0  0  0  0  0  0  0
  182.7149   14.2675   41.7357 H   0  0  0  0  0  0  0  0  0  0  0  0
  180.9618   14.4597   42.2081 H   0  0  0  0  0  0  0  0  0  0  0  0
  182.5150   15.9870   40.2730 H   0  0  0  0  0  0  0  0  0  0  0  0
  180.7490   17.0921   42.0072 H   0  0  0  0  0  0  0  0  0  0  0  0
  181.3686   17.7937   40.4741 H   0  0  0  0  0  0  0  0  0  0  0  0
  179.8486   16.8365   40.4741 H   0  0  0  0  0  0  0  0  0  0  0  0
  180.2751   14.1350   40.3012 H   0  0  0  0  0  0  0  0  0  0  0  0
  180.2346   15.4743   39.1048 H   0  0  0  0  0  0  0  0  0  0  0  0
  181.6034   14.3111   39.1048 H   0  0  0  0  0  0  0  0  0  0  0  0
  1  2  1  0
  2  3  2  0
  3  4  1  0
  4  5  2  0
  5  6  1  0
  6  7  1  0
  7  8  1  0
  8  9  2  0
  9 10  1  0
 10 11  2  0
 11 12  1  0
 12 13  1  0
 12 14  2  0
 14 15  1  0
 15 16  2  0
 15 17  1  0
 17 18  1  0
  5 19  1  0
 19 20  2  0
 20 21  1  0
 21 22  1  0
 22 23  1  0
 23 24  1  0
 23 25  1  0
 20  2  1  0
 17  6  2  0
 14  8  1  0
  1 26  1  0
  1 27  1  0
  1 28  1  0
  3 29  1  0
  4 30  1  0
  9 31  1  0
 10 32  1  0
 11 33  1  0
 13 34  1  0
 18 35  1  0
 19 36  1  0
 21 37  1  0
 21 38  1  0
 22 39  1  0
 22 40  1  0
 23 41  1  0
 24 42  1  0
 24 43  1  0
 24 44  1  0
 25 45  1  0
 25 46  1  0
 25 47  1  0
M  CHG  1  23   1
M  END
>  <meeko>  (4) 
{"is_sidechain": [false], "free_energy": -5.853, "intermolecular_energy": -8.745, "internal_energy": 0.951}

$$$$
cand_041_out
     RDKit          3D

 47 49  0  0  0  0  0  0  0  0999 V2000
  182.1210   17.2350   43.5990 C   0  0  0  0  0  0  0  0  0  0  0  0
  181.3440   18.1570   44.4980 C   0  0  0  0  0  0  0  0  0  0  0  0
  181.7680   19.4870   44.6380 C   0  0  0  0  0  0  0  0  0  0  0  0
  181.0750   20.3810   45.4580 C   0  0  0  0  0  0  0  0  0  0  0  0
  179.9400   19.9700   46.1640 C   0  0  0  0  0  0  0  0  0  0  0  0
  179.2090   20.9370   47.0110 C   0  0  0  0  0  0  0  0  0  0  0  0
  177.8310   20.7510   46.9780 O   0  0  0  0  0  0  0  0  0  0  0  0
  177.0310   21.5820   47.7190 C   0  0  0  0  0  0  0  0  0  0  0  0
  175.6560   21.3490   47.6690 C   0  0  0  0  0  0  0  0  0  0  0  0
  174.7850   22.1610   48.3990 C   0  0  0  0  0  0  0  0  0  0  0  0
  175.2890   23.2040   49.1780 C   0  0  0  0  0  0  0  0  0  0  0  0
  176.6610   23.4340   49.2270 C   0  0  0  0  0  0  0  0  0  0  0  0
  177.0860   24.4730   50.0100 O   0  0  0  0  0  0  0  0  0  0  0  0
  177.5320   22.6220   48.4970 C   0  0  0  0  0  0  0  0  0  0  0  0
  178.9810   22.8300   48.5200 C   0  0  0  0  0  0  0  0  0  0  0  0
  179.5000   23.7300   49.1760 O   0  0  0  0  0  0  0  0  0  0  0  0
  179.8180   21.9080   47.7170 C   0  0  0  0  0  0  0  0  0  0  0  0
  181.1840   22.1220   47.7370 O   0  0  0  0  0  0  0  0  0  0  0  0
  179.5050   18.6470   46.0090 C   0  0  0  0  0  0  0  0  0  0  0  0
  180.1890   17.7330   45.1850 C   0  0  0  0  0  0  0  0  0  0  0  0
  179.6670   16.3120   45.1000 C   0  0  0  0  0  0  0  0  0  0  0  0
  180.7830   15.3200   44.7300 C   0  0  0  0  0  0  0  0  0  0  0  0
  180.3120   14.1900   43.9040 N   0  0  0  0  0  0  0  0  0  0  0  0
  180.6750   14.3550   42.4940 C   0  0  0  0  0  0  0  0  0  0  0  0
  178.8570   14.0590   44.0240 C   0  0  0  0  0  0  0  0  0  0  0  0
  182.7099   16.5362   44.2113 H   0  0  0  0  0  0  0  0  0  0  0  0
  181.4239   16.6685   42.9641 H   0  0  0  0  0  0  0  0  0  0  0  0
  182.7975   17.8260   42.9641 H   0  0  0  0  0  0  0  0  0  0  0  0
  182.6598   19.8312   44.0938 H   0  0  0  0  0  0  0  0  0  0  0  0
  181.4260   21.4195   45.5493 H   0  0  0  0  0  0  0  0  0  0  0  0
  175.2587   20.5270   47.0555 H   0  0  0  0  0  0  0  0  0  0  0  0
  173.7010   21.9785   48.3600 H   0  0  0  0  0  0  0  0  0  0  0  0
  174.6027   23.8434   49.7525 H   0  0  0  0  0  0  0  0  0  0  0  0
  177.1430   25.3360   49.6510 H   0  0  0  0  0  0  0  0  0  0  0  0
  181.6270   22.2500   48.5520 H   0  0  0  0  0  0  0  0  0  0  0  0
  178.6046   18.3135   46.5457 H   0  0  0  0  0  0  0  0  0  0  0  0
  179.2455   16.0276   46.0754 H   0  0  0  0  0  0  0  0  0  0  0  0
  178.8985   16.2742   44.3139 H   0  0  0  0  0  0  0  0  0  0  0  0
  181.5596   15.8616   44.1700 H   0  0  0  0  0  0  0  0  0  0  0  0
  181.1673   14.8975   45.6701 H   0  0  0  0  0  0  0  0  0  0  0  0
  180.7690   13.3440   44.2460 H   0  0  0  0  0  0  0  0  0  0  0  0
  181.6743   14.8092   42.4234 H   0  0  0  0  0  0  0  0  0  0  0  0
  180.6832   13.3722   42.0001 H   0  0  0  0  0  0  0  0  0  0  0  0
  179.9399   15.0075   42.0001 H   0  0  0  0  0  0  0  0  0  0  0  0
  178.5776   14.0338   45.0876 H   0  0  0  0  0  0  0  0  0  0  0  0
  178.3702   14.9170   43.5372 H   0  0  0  0  0  0  0  0  0  0  0  0
  178.5313   13.1279   43.5372 H   0  0  0  0  0  0  0  0  0  0  0  0
  1  2  1  0
  2  3  2  0
  3  4  1  0
  4  5  2  0
  5  6  1  0
  6  7  1  0
  7  8  1  0
  8  9  2  0
  9 10  1  0
 10 11  2  0
 11 12  1  0
 12 13  1  0
 12 14  2  0
 14 15  1  0
 15 16  2  0
 15 17  1  0
 17 18  1  0
  5 19  1  0
 19 20  2  0
 20 21  1  0
 21 22  1  0
 22 23  1  0
 23 24  1  0
 23 25  1  0
 20  2  1  0
 17  6  2  0
 14  8  1  0
  1 26  1  0
  1 27  1  0
  1 28  1  0
  3 29  1  0
  4 30  1  0
  9 31  1  0
 10 32  1  0
 11 33  1  0
 13 34  1  0
 18 35  1  0
 19 36  1  0
 21 37  1  0
 21 38  1  0
 22 39  1  0
 22 40  1  0
 23 41  1  0
 24 42  1  0
 24 43  1  0
 24 44  1  0
 25 45  1  0
 25 46  1  0
 25 47  1  0
M  CHG  1  23   1
M  END
>  <meeko>  (5) 
{"is_sidechain": [false], "free_energy": -5.829, "intermolecular_energy": -9.028, "internal_energy": 1.264}

$$$$
cand_041_out
     RDKit          3D

 47 49  0  0  0  0  0  0  0  0999 V2000
  178.9540   19.0440   46.2680 C   0  0  0  0  0  0  0  0  0  0  0  0
  180.1850   19.8970   46.1280 C   0  0  0  0  0  0  0  0  0  0  0  0
  181.2080   19.4780   45.2650 C   0  0  0  0  0  0  0  0  0  0  0  0
  182.3670   20.2400   45.1000 C   0  0  0  0  0  0  0  0  0  0  0  0
  182.5380   21.4420   45.7940 C   0  0  0  0  0  0  0  0  0  0  0  0
  183.7620   22.2440   45.5890 C   0  0  0  0  0  0  0  0  0  0  0  0
  184.3830   21.9840   44.3720 O   0  0  0  0  0  0  0  0  0  0  0  0
  185.5320   22.6610   44.0540 C   0  0  0  0  0  0  0  0  0  0  0  0
  186.1120   22.3800   42.8170 C   0  0  0  0  0  0  0  0  0  0  0  0
  187.2850   23.0340   42.4320 C   0  0  0  0  0  0  0  0  0  0  0  0
  187.8770   23.9670   43.2860 C   0  0  0  0  0  0  0  0  0  0  0  0
  187.2970   24.2460   44.5200 C   0  0  0  0  0  0  0  0  0  0  0  0
  187.9300   25.1690   45.3060 O   0  0  0  0  0  0  0  0  0  0  0  0
  186.1230   23.5920   44.9040 C   0  0  0  0  0  0  0  0  0  0  0  0
  185.4810   23.8550   46.1920 C   0  0  0  0  0  0  0  0  0  0  0  0
  185.9450   24.6570   47.0000 O   0  0  0  0  0  0  0  0  0  0  0  0
  184.2340   23.1160   46.5010 C   0  0  0  0  0  0  0  0  0  0  0  0
  183.6440   23.3630   47.7260 O   0  0  0  0  0  0  0  0  0  0  0  0
  181.5060   21.8720   46.6400 C   0  0  0  0  0  0  0  0  0  0  0  0
  180.3300   21.1180   46.8170 C   0  0  0  0  0  0  0  0  0  0  0  0
  179.2790   21.6420   47.7760 C   0  0  0  0  0  0  0  0  0  0  0  0
  178.7710   23.0320   47.3550 C   0  0  0  0  0  0  0  0  0  0  0  0
  177.3120   23.1960   47.5140 N   0  0  0  0  0  0  0  0  0  0  0  0
  176.9640   23.7330   48.8320 C   0  0  0  0  0  0  0  0  0  0  0  0
  176.6430   21.9070   47.3160 C   0  0  0  0  0  0  0  0  0  0  0  0
  178.7333   18.8911   47.3347 H   0  0  0  0  0  0  0  0  0  0  0  0
  178.1027   19.5468   45.7858 H   0  0  0  0  0  0  0  0  0  0  0  0
  179.1258   18.0703   45.7858 H   0  0  0  0  0  0  0  0  0  0  0  0
  181.0960   18.5351   44.7097 H   0  0  0  0  0  0  0  0  0  0  0  0
  183.1545   19.8905   44.4161 H   0  0  0  0  0  0  0  0  0  0  0  0
  185.6462   21.6440   42.1451 H   0  0  0  0  0  0  0  0  0  0  0  0
  187.7423   22.8140   41.4561 H   0  0  0  0  0  0  0  0  0  0  0  0
  188.8012   24.4811   42.9835 H   0  0  0  0  0  0  0  0  0  0  0  0
  188.8610   25.1420   45.4030 H   0  0  0  0  0  0  0  0  0  0  0  0
  182.7180   23.2670   47.8280 H   0  0  0  0  0  0  0  0  0  0  0  0
  181.6180   22.8238   47.1799 H   0  0  0  0  0  0  0  0  0  0  0  0
  178.4307   20.9420   47.7932 H   0  0  0  0  0  0  0  0  0  0  0  0
  179.7359   21.7300   48.7727 H   0  0  0  0  0  0  0  0  0  0  0  0
  179.2763   23.7896   47.9720 H   0  0  0  0  0  0  0  0  0  0  0  0
  178.9963   23.1497   46.2848 H   0  0  0  0  0  0  0  0  0  0  0  0
  176.9970   23.8650   46.8110 H   0  0  0  0  0  0  0  0  0  0  0  0
  177.3843   23.0845   49.6148 H   0  0  0  0  0  0  0  0  0  0  0  0
  177.3770   24.7473   48.9354 H   0  0  0  0  0  0  0  0  0  0  0  0
  175.8695   23.7704   48.9354 H   0  0  0  0  0  0  0  0  0  0  0  0
  176.4111   21.4602   48.2941 H   0  0  0  0  0  0  0  0  0  0  0  0
  175.7107   22.0604   46.7527 H   0  0  0  0  0  0  0  0  0  0  0  0
  177.3051   21.2330   46.7527 H   0  0  0  0  0  0  0  0  0  0  0  0
  1  2  1  0
  2  3  2  0
  3  4  1  0
  4  5  2  0
  5  6  1  0
  6  7  1  0
  7  8  1  0
  8  9  2  0
  9 10  1  0
 10 11  2  0
 11 12  1  0
 12 13  1  0
 12 14  2  0
 14 15  1  0
 15 16  2  0
 15 17  1  0
 17 18  1  0
  5 19  1  0
 19 20  2  0
 20 21  1  0
 21 22  1  0
 22 23  1  0
 23 24  1  0
 23 25  1  0
 20  2  1  0
 17  6  2  0
 14  8  1  0
  1 26  1  0
  1 27  1  0
  1 28  1  0
  3 29  1  0
  4 30  1  0
  9 31  1  0
 10 32  1  0
 11 33  1  0
 13 34  1  0
 18 35  1  0
 19 36  1  0
 21 37  1  0
 21 38  1  0
 22 39  1  0
 22 40  1  0
 23 41  1  0
 24 42  1  0
 24 43  1  0
 24 44  1  0
 25 45  1  0
 25 46  1  0
 25 47  1  0
M  CHG  1  23   1
M  END
>  <meeko>  (6) 
{"is_sidechain": [false], "free_energy": -5.679, "intermolecular_energy": -7.483, "internal_energy": -0.087}

$$$$
cand_041_out
     RDKit          3D

 47 49  0  0  0  0  0  0  0  0999 V2000
  179.2600   19.1670   46.2050 C   0  0  0  0  0  0  0  0  0  0  0  0
  180.4270   20.1150   46.2220 C   0  0  0  0  0  0  0  0  0  0  0  0
  181.5540   19.8220   45.4400 C   0  0  0  0  0  0  0  0  0  0  0  0
  182.6590   20.6760   45.4220 C   0  0  0  0  0  0  0  0  0  0  0  0
  182.6710   21.8470   46.1850 C   0  0  0  0  0  0  0  0  0  0  0  0
  183.8410   22.7490   46.1350 C   0  0  0  0  0  0  0  0  0  0  0  0
  184.1210   23.3410   47.3620 O   0  0  0  0  0  0  0  0  0  0  0  0
  185.1840   24.2030   47.4560 C   0  0  0  0  0  0  0  0  0  0  0  0
  185.4370   24.7620   48.7090 C   0  0  0  0  0  0  0  0  0  0  0  0
  186.5030   25.6490   48.8730 C   0  0  0  0  0  0  0  0  0  0  0  0
  187.3140   25.9770   47.7850 C   0  0  0  0  0  0  0  0  0  0  0  0
  187.0600   25.4180   46.5360 C   0  0  0  0  0  0  0  0  0  0  0  0
  187.8930   25.7820   45.5140 O   0  0  0  0  0  0  0  0  0  0  0  0
  185.9930   24.5290   46.3730 C   0  0  0  0  0  0  0  0  0  0  0  0
  185.6900   23.9200   45.0770 C   0  0  0  0  0  0  0  0  0  0  0  0
  186.3540   24.1630   44.0710 O   0  0  0  0  0  0  0  0  0  0  0  0
  184.5430   22.9840   45.0110 C   0  0  0  0  0  0  0  0  0  0  0  0
  184.2590   22.4240   43.7790 O   0  0  0  0  0  0  0  0  0  0  0  0
  181.5370   22.1510   46.9510 C   0  0  0  0  0  0  0  0  0  0  0  0
  180.4120   21.3030   46.9810 C   0  0  0  0  0  0  0  0  0  0  0  0
  179.2420   21.6930   47.8610 C   0  0  0  0  0  0  0  0  0  0  0  0
  178.6560   23.0560   47.4520 C   0  0  0  0  0  0  0  0  0  0  0  0
  177.1850   23.1210   47.5700 N   0  0  0  0  0  0  0  0  0  0  0  0
  176.7630   23.6020   48.8870 C   0  0  0  0  0  0  0  0  0  0  0  0
  176.6080   21.7960   47.3230 C   0  0  0  0  0  0  0  0  0  0  0  0
  178.9663   18.9284   47.2379 H   0  0  0  0  0  0  0  0  0  0  0  0
  178.4137   19.6366   45.6823 H   0  0  0  0  0  0  0  0  0  0  0  0
  179.5463   18.2424   45.6823 H   0  0  0  0  0  0  0  0  0  0  0  0
  181.5677   18.9056   44.8316 H   0  0  0  0  0  0  0  0  0  0  0  0
  183.5304   20.4240   44.7998 H   0  0  0  0  0  0  0  0  0  0  0  0
  184.7978   24.5044   49.5664 H   0  0  0  0  0  0  0  0  0  0  0  0
  186.7040   26.0898   49.8606 H   0  0  0  0  0  0  0  0  0  0  0  0
  188.1529   26.6766   47.9148 H   0  0  0  0  0  0  0  0  0  0  0  0
  187.7100   25.5030   44.6390 H   0  0  0  0  0  0  0  0  0  0  0  0
  183.6400   22.8350   43.2080 H   0  0  0  0  0  0  0  0  0  0  0  0
  181.5250   23.0768   47.5449 H   0  0  0  0  0  0  0  0  0  0  0  0
  178.4580   20.9264   47.7732 H   0  0  0  0  0  0  0  0  0  0  0  0
  179.6015   21.7699   48.8978 H   0  0  0  0  0  0  0  0  0  0  0  0
  179.0924   23.8314   48.0988 H   0  0  0  0  0  0  0  0  0  0  0  0
  178.9040   23.2113   46.3916 H   0  0  0  0  0  0  0  0  0  0  0  0
  176.8470   23.7850   46.8720 H   0  0  0  0  0  0  0  0  0  0  0  0
  177.2725   23.0212   49.6700 H   0  0  0  0  0  0  0  0  0  0  0  0
  177.0249   24.6654   48.9902 H   0  0  0  0  0  0  0  0  0  0  0  0
  175.6746   23.4807   48.9902 H   0  0  0  0  0  0  0  0  0  0  0  0
  176.3939   21.3044   48.2835 H   0  0  0  0  0  0  0  0  0  0  0  0
  175.6751   21.9033   46.7501 H   0  0  0  0  0  0  0  0  0  0  0  0
  177.3220   21.1861   46.7501 H   0  0  0  0  0  0  0  0  0  0  0  0
  1  2  1  0
  2  3  2  0
  3  4  1  0
  4  5  2  0
  5  6  1  0
  6  7  1  0
  7  8  1  0
  8  9  2  0
  9 10  1  0
 10 11  2  0
 11 12  1  0
 12 13  1  0
 12 14  2  0
 14 15  1  0
 15 16  2  0
 15 17  1  0
 17 18  1  0
  5 19  1  0
 19 20  2  0
 20 21  1  0
 21 22  1  0
 22 23  1  0
 23 24  1  0
 23 25  1  0
 20  2  1  0
 17  6  2  0
 14  8  1  0
  1 26  1  0
  1 27  1  0
  1 28  1  0
  3 29  1  0
  4 30  1  0
  9 31  1  0
 10 32  1  0
 11 33  1  0
 13 34  1  0
 18 35  1  0
 19 36  1  0
 21 37  1  0
 21 38  1  0
 22 39  1  0
 22 40  1  0
 23 41  1  0
 24 42  1  0
 24 43  1  0
 24 44  1  0
 25 45  1  0
 25 46  1  0
 25 47  1  0
M  CHG  1  23   1
M  END
>  <meeko>  (7) 
{"is_sidechain": [false], "free_energy": -5.612, "intermolecular_energy": -7.343, "internal_energy": -0.14}

$$$$
cand_041_out
     RDKit          3D

 47 49  0  0  0  0  0  0  0  0999 V2000
  187.1720   24.3680   45.2750 C   0  0  0  0  0  0  0  0  0  0  0  0
  185.8880   23.6020   45.4340 C   0  0  0  0  0  0  0  0  0  0  0  0
  185.0110   23.9510   46.4710 C   0  0  0  0  0  0  0  0  0  0  0  0
  183.8050   23.2710   46.6530 C   0  0  0  0  0  0  0  0  0  0  0  0
  183.4410   22.2200   45.8060 C   0  0  0  0  0  0  0  0  0  0  0  0
  182.1500   21.5260   46.0030 C   0  0  0  0  0  0  0  0  0  0  0  0
  181.2540   22.2590   46.7730 O   0  0  0  0  0  0  0  0  0  0  0  0
  180.0160   21.7310   47.0340 C   0  0  0  0  0  0  0  0  0  0  0  0
  179.1440   22.5070   47.7970 C   0  0  0  0  0  0  0  0  0  0  0  0
  177.8680   22.0270   48.1010 C   0  0  0  0  0  0  0  0  0  0  0  0
  177.4660   20.7700   47.6430 C   0  0  0  0  0  0  0  0  0  0  0  0
  178.3370   19.9980   46.8810 C   0  0  0  0  0  0  0  0  0  0  0  0
  177.8800   18.7780   46.4650 O   0  0  0  0  0  0  0  0  0  0  0  0
  179.6140   20.4790   46.5770 C   0  0  0  0  0  0  0  0  0  0  0  0
  180.5620   19.6990   45.7800 C   0  0  0  0  0  0  0  0  0  0  0  0
  180.2850   18.5830   45.3460 O   0  0  0  0  0  0  0  0  0  0  0  0
  181.8870   20.3030   45.5060 C   0  0  0  0  0  0  0  0  0  0  0  0
  182.7780   19.5510   44.7630 O   0  0  0  0  0  0  0  0  0  0  0  0
  184.3080   21.8830   44.7570 C   0  0  0  0  0  0  0  0  0  0  0  0
  185.5270   22.5590   44.5560 C   0  0  0  0  0  0  0  0  0  0  0  0
  186.4180   22.1090   43.4160 C   0  0  0  0  0  0  0  0  0  0  0  0
  186.0570   22.8200   42.1000 C   0  0  0  0  0  0  0  0  0  0  0  0
  187.0200   22.5600   41.0100 N   0  0  0  0  0  0  0  0  0  0  0  0
  186.3450   22.2480   39.7480 C   0  0  0  0  0  0  0  0  0  0  0  0
  187.9030   21.4510   41.3820 C   0  0  0  0  0  0  0  0  0  0  0  0
  187.5793   24.6110   46.2675 H   0  0  0  0  0  0  0  0  0  0  0  0
  187.8982   23.7554   44.7206 H   0  0  0  0  0  0  0  0  0  0  0  0
  186.9779   25.2980   44.7206 H   0  0  0  0  0  0  0  0  0  0  0  0
  185.2772   24.7731   47.1516 H   0  0  0  0  0  0  0  0  0  0  0  0
  183.1333   23.5658   47.4727 H   0  0  0  0  0  0  0  0  0  0  0  0
  179.4608   23.4962   48.1591 H   0  0  0  0  0  0  0  0  0  0  0  0
  177.1791   22.6393   48.7015 H   0  0  0  0  0  0  0  0  0  0  0  0
  176.4620   20.3911   47.8846 H   0  0  0  0  0  0  0  0  0  0  0  0
  177.8640   18.5700   45.5520 H   0  0  0  0  0  0  0  0  0  0  0  0
  183.4230   19.0260   45.1950 H   0  0  0  0  0  0  0  0  0  0  0  0
  184.0285   21.0686   44.0725 H   0  0  0  0  0  0  0  0  0  0  0  0
  187.4640   22.3365   43.6693 H   0  0  0  0  0  0  0  0  0  0  0  0
  186.2744   21.0278   43.2734 H   0  0  0  0  0  0  0  0  0  0  0  0
  185.0637   22.4742   41.7778 H   0  0  0  0  0  0  0  0  0  0  0  0
  186.0758   23.9016   42.2992 H   0  0  0  0  0  0  0  0  0  0  0  0
  187.5660   23.4110   40.8700 H   0  0  0  0  0  0  0  0  0  0  0  0
  185.3650   21.7950   39.9586 H   0  0  0  0  0  0  0  0  0  0  0  0
  186.2047   23.1726   39.1688 H   0  0  0  0  0  0  0  0  0  0  0  0
  186.9584   21.5421   39.1688 H   0  0  0  0  0  0  0  0  0  0  0  0
  187.9599   21.3795   42.4782 H   0  0  0  0  0  0  0  0  0  0  0  0
  187.5033   20.5111   40.9735 H   0  0  0  0  0  0  0  0  0  0  0  0
  188.9085   21.6300   40.9735 H   0  0  0  0  0  0  0  0  0  0  0  0
  1  2  1  0
  2  3  2  0
  3  4  1  0
  4  5  2  0
  5  6  1  0
  6  7  1  0
  7  8  1  0
  8  9  2  0
  9 10  1  0
 10 11  2  0
 11 12  1  0
 12 13  1  0
 12 14  2  0
 14 15  1  0
 15 16  2  0
 15 17  1  0
 17 18  1  0
  5 19  1  0
 19 20  2  0
 20 21  1  0
 21 22  1  0
 22 23  1  0
 23 24  1  0
 23 25  1  0
 20  2  1  0
 17  6  2  0
 14  8  1  0
  1 26  1  0
  1 27  1  0
  1 28  1  0
  3 29  1  0
  4 30  1  0
  9 31  1  0
 10 32  1  0
 11 33  1  0
 13 34  1  0
 18 35  1  0
 19 36  1  0
 21 37  1  0
 21 38  1  0
 22 39  1  0
 22 40  1  0
 23 41  1  0
 24 42  1  0
 24 43  1  0
 24 44  1  0
 25 45  1  0
 25 46  1  0
 25 47  1  0
M  CHG  1  23   1
M  END
>  <meeko>  (8) 
{"is_sidechain": [false], "free_energy": -5.521, "intermolecular_energy": -7.394, "internal_energy": 0.028}

$$$$
cand_041_out
     RDKit          3D

 47 49  0  0  0  0  0  0  0  0999 V2000
  177.8200   18.6120   46.2130 C   0  0  0  0  0  0  0  0  0  0  0  0
  179.0850   19.4250   46.2240 C   0  0  0  0  0  0  0  0  0  0  0  0
  179.0590   20.7180   46.7680 C   0  0  0  0  0  0  0  0  0  0  0  0
  180.2110   21.5070   46.8030 C   0  0  0  0  0  0  0  0  0  0  0  0
  181.4210   21.0290   46.2930 C   0  0  0  0  0  0  0  0  0  0  0  0
  182.6340   21.8720   46.3580 C   0  0  0  0  0  0  0  0  0  0  0  0
  183.3520   21.8820   45.1680 O   0  0  0  0  0  0  0  0  0  0  0  0
  184.5010   22.6250   45.0910 C   0  0  0  0  0  0  0  0  0  0  0  0
  185.1810   22.6180   43.8720 C   0  0  0  0  0  0  0  0  0  0  0  0
  186.3600   23.3530   43.7280 C   0  0  0  0  0  0  0  0  0  0  0  0
  186.8590   24.0930   44.8010 C   0  0  0  0  0  0  0  0  0  0  0  0
  186.1790   24.0990   46.0160 C   0  0  0  0  0  0  0  0  0  0  0  0
  186.7230   24.8450   47.0250 O   0  0  0  0  0  0  0  0  0  0  0  0
  184.9990   23.3640   46.1600 C   0  0  0  0  0  0  0  0  0  0  0  0
  184.2530   23.3430   47.4190 C   0  0  0  0  0  0  0  0  0  0  0  0
  184.6310   23.9640   48.4110 O   0  0  0  0  0  0  0  0  0  0  0  0
  183.0100   22.5390   47.4660 C   0  0  0  0  0  0  0  0  0  0  0  0
  182.3210   22.5160   48.6650 O   0  0  0  0  0  0  0  0  0  0  0  0
  181.4530   19.7300   45.7660 C   0  0  0  0  0  0  0  0  0  0  0  0
  180.3020   18.9180   45.7250 C   0  0  0  0  0  0  0  0  0  0  0  0
  180.4200   17.5380   45.1100 C   0  0  0  0  0  0  0  0  0  0  0  0
  181.1810   17.5760   43.7730 C   0  0  0  0  0  0  0  0  0  0  0  0
  181.5100   16.2360   43.2480 N   0  0  0  0  0  0  0  0  0  0  0  0
  181.1240   16.0890   41.8430 C   0  0  0  0  0  0  0  0  0  0  0  0
  180.8400   15.2090   44.0520 C   0  0  0  0  0  0  0  0  0  0  0  0
  177.5052   18.4097   47.2474 H   0  0  0  0  0  0  0  0  0  0  0  0
  177.0292   19.1714   45.6918 H   0  0  0  0  0  0  0  0  0  0  0  0
  178.0003   17.6603   45.6918 H   0  0  0  0  0  0  0  0  0  0  0  0
  178.1171   21.1164   47.1731 H   0  0  0  0  0  0  0  0  0  0  0  0
  180.1652   22.5166   47.2372 H   0  0  0  0  0  0  0  0  0  0  0  0
  184.7889   22.0345   43.0260 H   0  0  0  0  0  0  0  0  0  0  0  0
  186.8960   23.3486   42.7675 H   0  0  0  0  0  0  0  0  0  0  0  0
  187.7881   24.6707   44.6870 H   0  0  0  0  0  0  0  0  0  0  0  0
  187.4520   25.4070   46.8520 H   0  0  0  0  0  0  0  0  0  0  0  0
  182.7620   22.2710   49.4540 H   0  0  0  0  0  0  0  0  0  0  0  0
  182.4017   19.3343   45.3742 H   0  0  0  0  0  0  0  0  0  0  0  0
  180.9586   16.8809   45.8086 H   0  0  0  0  0  0  0  0  0  0  0  0
  179.4053   17.1596   44.9173 H   0  0  0  0  0  0  0  0  0  0  0  0
  180.5579   18.0977   43.0317 H   0  0  0  0  0  0  0  0  0  0  0  0
  182.1329   18.0962   43.9555 H   0  0  0  0  0  0  0  0  0  0  0  0
  182.5230   16.1200   43.3070 H   0  0  0  0  0  0  0  0  0  0  0  0
  180.0975   15.6981   41.7837 H   0  0  0  0  0  0  0  0  0  0  0  0
  181.1726   17.0686   41.3450 H   0  0  0  0  0  0  0  0  0  0  0  0
  181.8119   15.3899   41.3450 H   0  0  0  0  0  0  0  0  0  0  0  0
  180.9832   15.4285   45.1203 H   0  0  0  0  0  0  0  0  0  0  0  0
  179.7649   15.2048   43.8194 H   0  0  0  0  0  0  0  0  0  0  0  0
  181.2693   14.2233   43.8194 H   0  0  0  0  0  0  0  0  0  0  0  0
  1  2  1  0
  2  3  2  0
  3  4  1  0
  4  5  2  0
  5  6  1  0
  6  7  1  0
  7  8  1  0
  8  9  2  0
  9 10  1  0
 10 11  2  0
 11 12  1  0
 12 13  1  0
 12 14  2  0
 14 15  1  0
 15 16  2  0
 15 17  1  0
 17 18  1  0
  5 19  1  0
 19 20  2  0
 20 21  1  0
 21 22  1  0
 22 23  1  0
 23 24  1  0
 23 25  1  0
 20  2  1  0
 17  6  2  0
 14  8  1  0
  1 26  1  0
  1 27  1  0
  1 28  1  0
  3 29  1  0
  4 30  1  0
  9 31  1  0
 10 32  1  0
 11 33  1  0
 13 34  1  0
 18 35  1  0
 19 36  1  0
 21 37  1  0
 21 38  1  0
 22 39  1  0
 22 40  1  0
 23 41  1  0
 24 42  1  0
 24 43  1  0
 24 44  1  0
 25 45  1  0
 25 46  1  0
 25 47  1  0
M  CHG  1  23   1
M  END
>  <meeko>  (9) 
{"is_sidechain": [false], "free_energy": -5.47, "intermolecular_energy": -7.079, "internal_energy": -0.22}

$$$$
