cand_044_out
     RDKit          3D

 41 43  0  0  0  0  0  0  0  0999 V2000
  181.3390   15.5720   40.3450 C   0  0  0  0  0  0  0  0  0  0  0  0
  180.8780   14.8590   41.6060 C   0  0  0  0  0  0  0  0  0  0  0  0
  181.8110   15.1480   42.7840 C   0  0  0  0  0  0  0  0  0  0  0  0
  181.2630   16.2340   43.6840 C   0  0  0  0  0  0  0  0  0  0  0  0
  181.6730   17.5580   43.4530 C   0  0  0  0  0  0  0  0  0  0  0  0
  181.2190   18.6040   44.2580 C   0  0  0  0  0  0  0  0  0  0  0  0
  180.3500   18.3580   45.3250 C   0  0  0  0  0  0  0  0  0  0  0  0
  179.8340   19.4510   46.1780 C   0  0  0  0  0  0  0  0  0  0  0  0
  178.4440   19.4820   46.2340 O   0  0  0  0  0  0  0  0  0  0  0  0
  177.8320   20.4440   46.9950 C   0  0  0  0  0  0  0  0  0  0  0  0
  176.4370   20.4430   47.0140 C   0  0  0  0  0  0  0  0  0  0  0  0
  175.7500   21.3960   47.7710 C   0  0  0  0  0  0  0  0  0  0  0  0
  176.4580   22.3470   48.5080 C   0  0  0  0  0  0  0  0  0  0  0  0
  177.8510   22.3450   48.4870 C   0  0  0  0  0  0  0  0  0  0  0  0
  178.4810   23.3040   49.2320 O   0  0  0  0  0  0  0  0  0  0  0  0
  178.5360   21.3920   47.7300 C   0  0  0  0  0  0  0  0  0  0  0  0
  179.9990   21.3530   47.6820 C   0  0  0  0  0  0  0  0  0  0  0  0
  180.6920   22.1520   48.3080 O   0  0  0  0  0  0  0  0  0  0  0  0
  180.6300   20.3060   46.8460 C   0  0  0  0  0  0  0  0  0  0  0  0
  182.0120   20.2700   46.8210 O   0  0  0  0  0  0  0  0  0  0  0  0
  179.9350   17.0380   45.5540 C   0  0  0  0  0  0  0  0  0  0  0  0
  180.3840   15.9670   44.7540 C   0  0  0  0  0  0  0  0  0  0  0  0
  179.8810   14.5730   45.0540 C   0  0  0  0  0  0  0  0  0  0  0  0
  179.2100   14.0080   44.0110 F   0  0  0  0  0  0  0  0  0  0  0  0
  180.8740   13.6900   45.3650 F   0  0  0  0  0  0  0  0  0  0  0  0
  181.9173   16.4664   40.6201 H   0  0  0  0  0  0  0  0  0  0  0  0
  181.9709   14.8951   39.7512 H   0  0  0  0  0  0  0  0  0  0  0  0
  180.4624   15.8704   39.7512 H   0  0  0  0  0  0  0  0  0  0  0  0
  179.8640   15.2014   41.8603 H   0  0  0  0  0  0  0  0  0  0  0  0
  180.8879   13.7759   41.4144 H   0  0  0  0  0  0  0  0  0  0  0  0
  181.9360   14.2274   43.3729 H   0  0  0  0  0  0  0  0  0  0  0  0
  182.7739   15.4936   42.3797 H   0  0  0  0  0  0  0  0  0  0  0  0
  182.3632   17.7737   42.6241 H   0  0  0  0  0  0  0  0  0  0  0  0
  181.5485   19.6328   44.0506 H   0  0  0  0  0  0  0  0  0  0  0  0
  175.8787   19.6933   46.4341 H   0  0  0  0  0  0  0  0  0  0  0  0
  174.6501   21.3967   47.7861 H   0  0  0  0  0  0  0  0  0  0  0  0
  175.9170   23.0966   49.1042 H   0  0  0  0  0  0  0  0  0  0  0  0
  179.0690   23.0530   49.9180 H   0  0  0  0  0  0  0  0  0  0  0  0
  182.4620   19.4590   46.9460 H   0  0  0  0  0  0  0  0  0  0  0  0
  179.2396   16.8323   46.3811 H   0  0  0  0  0  0  0  0  0  0  0  0
  179.2164   14.7364   45.9151 H   0  0  0  0  0  0  0  0  0  0  0  0
  1  2  1  0
  2  3  1  0
  3  4  1  0
  4  5  2  0
  5  6  1  0
  6  7  2  0
  7  8  1  0
  8  9  1  0
  9 10  1  0
 10 11  2  0
 11 12  1  0
 12 13  2  0
 13 14  1  0
 14 15  1  0
 14 16  2  0
 16 17  1  0
 17 18  2  0
 17 19  1  0
 19 20  1  0
  7 21  1  0
 21 22  2  0
 22 23  1  0
 23 24  1  0
 23 25  1  0
 22  4  1  0
 19  8  2  0
 16 10  1  0
  1 26  1  0
  1 27  1  0
  1 28  1  0
  2 29  1  0
  2 30  1  0
  3 31  1  0
  3 32  1  0
  5 33  1  0
  6 34  1  0
 11 35  1  0
 12 36  1  0
 13 37  1  0
 15 38  1  0
 20 39  1  0
 21 40  1  0
 23 41  1  0
M  END
>  <meeko>  (1) 
{"is_sidechain": [false], "free_energy": -9.085, "intermolecular_energy": -11.741, "internal_energy": -0.461}

$$$$
cand_044_out
     RDKit          3D

 41 43  0  0  0  0  0  0  0  0999 V2000
  181.3640   14.3920   41.6330 C   0  0  0  0  0  0  0  0  0  0  0  0
  181.6350   15.8400   42.0100 C   0  0  0  0  0  0  0  0  0  0  0  0
  182.0010   15.9720   43.4900 C   0  0  0  0  0  0  0  0  0  0  0  0
  181.0110   16.8370   44.2410 C   0  0  0  0  0  0  0  0  0  0  0  0
  181.1460   18.2320   44.1490 C   0  0  0  0  0  0  0  0  0  0  0  0
  180.2770   19.0870   44.8310 C   0  0  0  0  0  0  0  0  0  0  0  0
  179.2550   18.5740   45.6340 C   0  0  0  0  0  0  0  0  0  0  0  0
  178.3060   19.4560   46.3470 C   0  0  0  0  0  0  0  0  0  0  0  0
  178.8780   20.6630   46.7350 O   0  0  0  0  0  0  0  0  0  0  0  0
  178.1060   21.5790   47.4030 C   0  0  0  0  0  0  0  0  0  0  0  0
  178.7230   22.7710   47.7820 C   0  0  0  0  0  0  0  0  0  0  0  0
  177.9930   23.7470   48.4640 C   0  0  0  0  0  0  0  0  0  0  0  0
  176.6480   23.5310   48.7660 C   0  0  0  0  0  0  0  0  0  0  0  0
  176.0340   22.3390   48.3860 C   0  0  0  0  0  0  0  0  0  0  0  0
  174.7140   22.1930   48.7140 O   0  0  0  0  0  0  0  0  0  0  0  0
  176.7650   21.3640   47.7040 C   0  0  0  0  0  0  0  0  0  0  0  0
  176.1590   20.0990   47.2860 C   0  0  0  0  0  0  0  0  0  0  0  0
  174.9780   19.8370   47.5100 O   0  0  0  0  0  0  0  0  0  0  0  0
  177.0210   19.1290   46.5730 C   0  0  0  0  0  0  0  0  0  0  0  0
  176.4330   17.9440   46.1690 O   0  0  0  0  0  0  0  0  0  0  0  0
  179.1160   17.1800   45.7230 C   0  0  0  0  0  0  0  0  0  0  0  0
  179.9840   16.3000   45.0440 C   0  0  0  0  0  0  0  0  0  0  0  0
  179.7610   14.8110   45.1770 C   0  0  0  0  0  0  0  0  0  0  0  0
  179.2470   14.2410   44.0510 F   0  0  0  0  0  0  0  0  0  0  0  0
  180.9010   14.1110   45.4480 F   0  0  0  0  0  0  0  0  0  0  0  0
  181.2514   13.7901   42.5468 H   0  0  0  0  0  0  0  0  0  0  0  0
  180.4395   14.3344   41.0397 H   0  0  0  0  0  0  0  0  0  0  0  0
  182.2051   14.0040   41.0397 H   0  0  0  0  0  0  0  0  0  0  0  0
  182.4683   16.2188   41.4000 H   0  0  0  0  0  0  0  0  0  0  0  0
  180.7204   16.4228   41.8260 H   0  0  0  0  0  0  0  0  0  0  0  0
  182.0140   14.9701   43.9439 H   0  0  0  0  0  0  0  0  0  0  0  0
  182.9897   16.4496   43.5556 H   0  0  0  0  0  0  0  0  0  0  0  0
  181.9491   18.6582   43.5298 H   0  0  0  0  0  0  0  0  0  0  0  0
  180.3986   20.1760   44.7349 H   0  0  0  0  0  0  0  0  0  0  0  0
  179.7832   22.9422   47.5441 H   0  0  0  0  0  0  0  0  0  0  0  0
  178.4790   24.6873   48.7635 H   0  0  0  0  0  0  0  0  0  0  0  0
  176.0734   24.3001   49.3030 H   0  0  0  0  0  0  0  0  0  0  0  0
  174.4130   21.3940   49.1000 H   0  0  0  0  0  0  0  0  0  0  0  0
  176.5350   17.1700   46.6850 H   0  0  0  0  0  0  0  0  0  0  0  0
  178.3069   16.7621   46.3400 H   0  0  0  0  0  0  0  0  0  0  0  0
  179.0517   14.7477   46.0154 H   0  0  0  0  0  0  0  0  0  0  0  0
  1  2  1  0
  2  3  1  0
  3  4  1  0
  4  5  2  0
  5  6  1  0
  6  7  2  0
  7  8  1  0
  8  9  1  0
  9 10  1  0
 10 11  2  0
 11 12  1  0
 12 13  2  0
 13 14  1  0
 14 15  1  0
 14 16  2  0
 16 17  1  0
 17 18  2  0
 17 19  1  0
 19 20  1  0
  7 21  1  0
 21 22  2  0
 22 23  1  0
 23 24  1  0
 23 25  1  0
 22  4  1  0
 19  8  2  0
 16 10  1  0
  1 26  1  0
  1 27  1  0
  1 28  1  0
  2 29  1  0
  2 30  1  0
  3 31  1  0
  3 32  1  0
  5 33  1  0
  6 34  1  0
 11 35  1  0
 12 36  1  0
 13 37  1  0
 15 38  1  0
 20 39  1  0
 21 40  1  0
 23 41  1  0
M  END
>  <meeko>  (2) 
{"is_sidechain": [false], "free_energy": -7.852, "intermolecular_energy": -10.297, "internal_energy": -0.311}

$$$$
cand_044_out
     RDKit          3D

 41 43  0  0  0  0  0  0  0  0999 V2000
  177.7950   23.9850   47.4610 C   0  0  0  0  0  0  0  0  0  0  0  0
  176.6810   23.7450   48.4670 C   0  0  0  0  0  0  0  0  0  0  0  0
  176.8290   22.3830   49.1490 C   0  0  0  0  0  0  0  0  0  0  0  0
  177.5620   21.3900   48.2730 C   0  0  0  0  0  0  0  0  0  0  0  0
  178.9670   21.4130   48.2750 C   0  0  0  0  0  0  0  0  0  0  0  0
  179.7030   20.5360   47.4770 C   0  0  0  0  0  0  0  0  0  0  0  0
  179.0590   19.6170   46.6440 C   0  0  0  0  0  0  0  0  0  0  0  0
  179.8150   18.6590   45.8070 C   0  0  0  0  0  0  0  0  0  0  0  0
  179.2520   17.3870   45.8000 O   0  0  0  0  0  0  0  0  0  0  0  0
  179.8500   16.4020   45.0580 C   0  0  0  0  0  0  0  0  0  0  0  0
  179.2580   15.1390   45.0890 C   0  0  0  0  0  0  0  0  0  0  0  0
  179.8160   14.0900   44.3540 C   0  0  0  0  0  0  0  0  0  0  0  0
  180.9650   14.3030   43.5910 C   0  0  0  0  0  0  0  0  0  0  0  0
  181.5540   15.5660   43.5620 C   0  0  0  0  0  0  0  0  0  0  0  0
  182.6760   15.7060   42.7930 O   0  0  0  0  0  0  0  0  0  0  0  0
  180.9950   16.6140   44.2960 C   0  0  0  0  0  0  0  0  0  0  0  0
  181.5810   17.9550   44.2930 C   0  0  0  0  0  0  0  0  0  0  0  0
  182.5880   18.2240   43.6410 O   0  0  0  0  0  0  0  0  0  0  0  0
  180.9150   18.9960   45.1100 C   0  0  0  0  0  0  0  0  0  0  0  0
  181.4690   20.2630   45.0860 O   0  0  0  0  0  0  0  0  0  0  0  0
  177.6560   19.5880   46.6450 C   0  0  0  0  0  0  0  0  0  0  0  0
  176.8940   20.4670   47.4420 C   0  0  0  0  0  0  0  0  0  0  0  0
  175.3860   20.3660   47.4000 C   0  0  0  0  0  0  0  0  0  0  0  0
  174.8080   21.2920   46.5840 F   0  0  0  0  0  0  0  0  0  0  0  0
  174.9330   19.1590   46.9520 F   0  0  0  0  0  0  0  0  0  0  0  0
  178.7347   24.1874   47.9958 H   0  0  0  0  0  0  0  0  0  0  0  0
  177.9174   23.0926   46.8296 H   0  0  0  0  0  0  0  0  0  0  0  0
  177.5391   24.8486   46.8296 H   0  0  0  0  0  0  0  0  0  0  0  0
  176.7139   24.5342   49.2326 H   0  0  0  0  0  0  0  0  0  0  0  0
  175.7206   23.7614   47.9308 H   0  0  0  0  0  0  0  0  0  0  0  0
  177.3908   22.5135   50.0857 H   0  0  0  0  0  0  0  0  0  0  0  0
  175.8211   21.9875   49.3430 H   0  0  0  0  0  0  0  0  0  0  0  0
  179.4954   22.1340   48.9160 H   0  0  0  0  0  0  0  0  0  0  0  0
  180.8022   20.5684   47.5040 H   0  0  0  0  0  0  0  0  0  0  0  0
  178.3533   14.9694   45.6912 H   0  0  0  0  0  0  0  0  0  0  0  0
  179.3488   13.0944   44.3767 H   0  0  0  0  0  0  0  0  0  0  0  0
  181.4047   13.4762   43.0139 H   0  0  0  0  0  0  0  0  0  0  0  0
  183.4220   16.1630   43.1310 H   0  0  0  0  0  0  0  0  0  0  0  0
  181.5460   20.7560   45.8780 H   0  0  0  0  0  0  0  0  0  0  0  0
  177.1360   18.8591   46.0061 H   0  0  0  0  0  0  0  0  0  0  0  0
  175.1039   20.5274   48.4509 H   0  0  0  0  0  0  0  0  0  0  0  0
  1  2  1  0
  2  3  1  0
  3  4  1  0
  4  5  2  0
  5  6  1  0
  6  7  2  0
  7  8  1  0
  8  9  1  0
  9 10  1  0
 10 11  2  0
 11 12  1  0
 12 13  2  0
 13 14  1  0
 14 15  1  0
 14 16  2  0
 16 17  1  0
 17 18  2  0
 17 19  1  0
 19 20  1  0
  7 21  1  0
 21 22  2  0
 22 23  1  0
 23 24  1  0
 23 25  1  0
 22  4  1  0
 19  8  2  0
 16 10  1  0
  1 26  1  0
  1 27  1  0
  1 28  1  0
  2 29  1  0
  2 30  1  0
  3 31  1  0
  3 32  1  0
  5 33  1  0
  6 34  1  0
 11 35  1  0
 12 36  1  0
 13 37  1  0
 15 38  1  0
 20 39  1  0
 21 40  1  0
 23 41  1  0
M  END
>  <meeko>  (3) 
{"is_sidechain": [false], "free_energy": -7.53, "intermolecular_energy": -10.111, "internal_energy": -0.08}

$$$$
cand_044_out
     RDKit          3D

 41 43  0  0  0  0  0  0  0  0999 V2000
  176.1410   20.6520   50.2720 C   0  0  0  0  0  0  0  0  0  0  0  0
  175.1940   21.5960   49.5480 C   0  0  0  0  0  0  0  0  0  0  0  0
  175.8930   22.3080   48.3890 C   0  0  0  0  0  0  0  0  0  0  0  0
  176.8580   21.3940   47.6650 C   0  0  0  0  0  0  0  0  0  0  0  0
  176.3970   20.1330   47.2530 C   0  0  0  0  0  0  0  0  0  0  0  0
  177.2410   19.2360   46.5960 C   0  0  0  0  0  0  0  0  0  0  0  0
  178.5750   19.5660   46.3420 C   0  0  0  0  0  0  0  0  0  0  0  0
  179.4840   18.6450   45.6260 C   0  0  0  0  0  0  0  0  0  0  0  0
  179.0430   17.3260   45.6490 O   0  0  0  0  0  0  0  0  0  0  0  0
  179.7910   16.3660   45.0170 C   0  0  0  0  0  0  0  0  0  0  0  0
  179.3160   15.0550   45.0730 C   0  0  0  0  0  0  0  0  0  0  0  0
  180.0300   14.0280   44.4500 C   0  0  0  0  0  0  0  0  0  0  0  0
  181.2150   14.3120   43.7710 C   0  0  0  0  0  0  0  0  0  0  0  0
  181.6860   15.6220   43.7150 C   0  0  0  0  0  0  0  0  0  0  0  0
  182.8540   15.8310   43.0330 O   0  0  0  0  0  0  0  0  0  0  0  0
  180.9730   16.6480   44.3390 C   0  0  0  0  0  0  0  0  0  0  0  0
  181.4310   18.0380   44.3050 C   0  0  0  0  0  0  0  0  0  0  0  0
  182.4620   18.3690   43.7210 O   0  0  0  0  0  0  0  0  0  0  0  0
  180.6050   19.0500   45.0020 C   0  0  0  0  0  0  0  0  0  0  0  0
  181.0400   20.3610   44.9490 O   0  0  0  0  0  0  0  0  0  0  0  0
  179.0360   20.8280   46.7470 C   0  0  0  0  0  0  0  0  0  0  0  0
  178.2000   21.7480   47.4140 C   0  0  0  0  0  0  0  0  0  0  0  0
  178.7660   23.0930   47.8070 C   0  0  0  0  0  0  0  0  0  0  0  0
  178.1950   24.1330   47.1370 F   0  0  0  0  0  0  0  0  0  0  0  0
  178.6070   23.3860   49.1310 F   0  0  0  0  0  0  0  0  0  0  0  0
  176.0196   20.7730   51.3586 H   0  0  0  0  0  0  0  0  0  0  0  0
  175.9102   19.6140   49.9906 H   0  0  0  0  0  0  0  0  0  0  0  0
  177.1783   20.8862   49.9906 H   0  0  0  0  0  0  0  0  0  0  0  0
  174.3453   21.0182   49.1533 H   0  0  0  0  0  0  0  0  0  0  0  0
  174.8494   22.3567   50.2640 H   0  0  0  0  0  0  0  0  0  0  0  0
  175.1321   22.6584   47.6760 H   0  0  0  0  0  0  0  0  0  0  0  0
  176.4666   23.1506   48.8026 H   0  0  0  0  0  0  0  0  0  0  0  0
  175.3534   19.8474   47.4513 H   0  0  0  0  0  0  0  0  0  0  0  0
  176.8518   18.2586   46.2747 H   0  0  0  0  0  0  0  0  0  0  0  0
  178.3808   14.8304   45.6068 H   0  0  0  0  0  0  0  0  0  0  0  0
  179.6571   12.9941   44.4951 H   0  0  0  0  0  0  0  0  0  0  0  0
  181.7765   13.5031   43.2807 H   0  0  0  0  0  0  0  0  0  0  0  0
  183.6290   15.3640   43.2770 H   0  0  0  0  0  0  0  0  0  0  0  0
  181.9540   20.5550   45.0180 H   0  0  0  0  0  0  0  0  0  0  0  0
  180.0791   21.1079   46.5384 H   0  0  0  0  0  0  0  0  0  0  0  0
  179.8311   22.9902   47.5519 H   0  0  0  0  0  0  0  0  0  0  0  0
  1  2  1  0
  2  3  1  0
  3  4  1  0
  4  5  2  0
  5  6  1  0
  6  7  2  0
  7  8  1  0
  8  9  1  0
  9 10  1  0
 10 11  2  0
 11 12  1  0
 12 13  2  0
 13 14  1  0
 14 15  1  0
 14 16  2  0
 16 17  1  0
 17 18  2  0
 17 19  1  0
 19 20  1  0
  7 21  1  0
 21 22  2  0
 22 23  1  0
 23 24  1  0
 23 25  1  0
 22  4  1  0
 19  8  2  0
 16 10  1  0
  1 26  1  0
  1 27  1  0
  1 28  1  0
  2 29  1  0
  2 30  1  0
  3 31  1  0
  3 32  1  0
  5 33  1  0
  6 34  1  0
 11 35  1  0
 12 36  1  0
 13 37  1  0
 15 38  1  0
 20 39  1  0
 21 40  1  0
 23 41  1  0
M  END
>  <meeko>  (4) 
{"is_sidechain": [false], "free_energy": -6.716, "intermolecular_energy": -9.336, "internal_energy": 0.196}

$$$$
