cand_018_out
     RDKit          3D

 44 47  0  0  0  0  0  0  0  0999 V2000
  178.3380   23.5120   48.7830 C   0  0  0  0  0  0  0  0  0  0  0  0
  178.8550   22.3440   47.9860 C   0  0  0  0  0  0  0  0  0  0  0  0
  180.2290   22.2470   47.7200 C   0  0  0  0  0  0  0  0  0  0  0  0
  180.7380   21.1750   46.9860 C   0  0  0  0  0  0  0  0  0  0  0  0
  179.8890   20.1690   46.5130 C   0  0  0  0  0  0  0  0  0  0  0  0
  180.4440   19.0490   45.7230 C   0  0  0  0  0  0  0  0  0  0  0  0
  179.6700   17.8960   45.8050 O   0  0  0  0  0  0  0  0  0  0  0  0
  180.0710   16.7780   45.1190 C   0  0  0  0  0  0  0  0  0  0  0  0
  179.2730   15.6400   45.2440 C   0  0  0  0  0  0  0  0  0  0  0  0
  179.6230   14.4680   44.5700 C   0  0  0  0  0  0  0  0  0  0  0  0
  180.7680   14.4350   43.7710 C   0  0  0  0  0  0  0  0  0  0  0  0
  181.5610   15.5720   43.6480 C   0  0  0  0  0  0  0  0  0  0  0  0
  182.6680   15.4710   42.8510 O   0  0  0  0  0  0  0  0  0  0  0  0
  181.2110   16.7450   44.3240 C   0  0  0  0  0  0  0  0  0  0  0  0
  182.0180   17.9620   44.2230 C   0  0  0  0  0  0  0  0  0  0  0  0
  183.0350   18.0140   43.5350 O   0  0  0  0  0  0  0  0  0  0  0  0
  181.5650   19.1490   44.9850 C   0  0  0  0  0  0  0  0  0  0  0  0
  182.3280   20.2970   44.8710 O   0  0  0  0  0  0  0  0  0  0  0  0
  178.5150   20.2730   46.7780 C   0  0  0  0  0  0  0  0  0  0  0  0
  177.9780   21.3490   47.5100 C   0  0  0  0  0  0  0  0  0  0  0  0
  176.6080   21.4370   47.8120 N   0  0  0  0  0  0  0  0  0  0  0  0
  176.2620   20.7080   49.0490 C   0  0  0  0  0  0  0  0  0  0  0  0
  174.8290   20.2450   48.8190 C   0  0  0  0  0  0  0  0  0  0  0  0
  174.8280   19.9260   47.3350 C   0  0  0  0  0  0  0  0  0  0  0  0
  175.6590   21.0630   46.7480 C   0  0  0  0  0  0  0  0  0  0  0  0
  178.4343   23.2944   49.8570 H   0  0  0  0  0  0  0  0  0  0  0  0
  178.9223   24.4110   48.5372 H   0  0  0  0  0  0  0  0  0  0  0  0
  177.2797   23.6839   48.5372 H   0  0  0  0  0  0  0  0  0  0  0  0
  180.9121   23.0239   48.0939 H   0  0  0  0  0  0  0  0  0  0  0  0
  181.8167   21.1205   46.7774 H   0  0  0  0  0  0  0  0  0  0  0  0
  178.3703   15.6661   45.8720 H   0  0  0  0  0  0  0  0  0  0  0  0
  178.9960   13.5696   44.6686 H   0  0  0  0  0  0  0  0  0  0  0  0
  181.0426   13.5118   43.2398 H   0  0  0  0  0  0  0  0  0  0  0  0
  183.3430   16.1200   42.9010 H   0  0  0  0  0  0  0  0  0  0  0  0
  182.8090   20.4640   44.0850 H   0  0  0  0  0  0  0  0  0  0  0  0
  177.8380   19.4913   46.4030 H   0  0  0  0  0  0  0  0  0  0  0  0
  176.9316   19.8476   49.1955 H   0  0  0  0  0  0  0  0  0  0  0  0
  176.3648   21.3316   49.9493 H   0  0  0  0  0  0  0  0  0  0  0  0
  174.5974   19.3524   49.4187 H   0  0  0  0  0  0  0  0  0  0  0  0
  174.0730   20.9888   49.1107 H   0  0  0  0  0  0  0  0  0  0  0  0
  175.2960   18.9501   47.1386 H   0  0  0  0  0  0  0  0  0  0  0  0
  173.8184   19.8551   46.9040 H   0  0  0  0  0  0  0  0  0  0  0  0
  176.1986   20.7235   45.8516 H   0  0  0  0  0  0  0  0  0  0  0  0
  175.0327   21.9126   46.4383 H   0  0  0  0  0  0  0  0  0  0  0  0
  1  2  1  0
  2  3  2  0
  3  4  1  0
  4  5  2  0
  5  6  1  0
  6  7  1  0
  7  8  1  0
  8  9  2  0
  9 10  1  0
 10 11  2  0
 11 12  1  0
 12 13  1  0
 12 14  2  0
 14 15  1  0
 15 16  2  0
 15 17  1  0
 17 18  1  0
  5 19  1  0
 19 20  2  0
 20 21  1  0
 21 22  1  0
 22 23  1  0
 23 24  1  0
 24 25  1  0
 20  2  1  0
 25 21  1  0
 17  6  2  0
 14  8  1  0
  1 26  1  0
  1 27  1  0
  1 28  1  0
  3 29  1  0
  4 30  1  0
  9 31  1  0
 10 32  1  0
 11 33  1  0
 13 34  1  0
 18 35  1  0
 19 36  1  0
 22 37  1  0
 22 38  1  0
 23 39  1  0
 23 40  1  0
 24 41  1  0
 24 42  1  0
 25 43  1  0
 25 44  1  0
M  END
>  <meeko>  (1) 
{"is_sidechain": [false], "free_energy": -7.035, "intermolecular_energy": -8.269, "internal_energy": -0.127}

$$$$
cand_018_out
     RDKit          3D

 44 47  0  0  0  0  0  0  0  0999 V2000
  180.5730   13.7030   43.4710 C   0  0  0  0  0  0  0  0  0  0  0  0
  180.3700   15.0760   44.0510 C   0  0  0  0  0  0  0  0  0  0  0  0
  179.6700   15.2160   45.2600 C   0  0  0  0  0  0  0  0  0  0  0  0
  179.4680   16.4760   45.8240 C   0  0  0  0  0  0  0  0  0  0  0  0
  179.9720   17.6230   45.2030 C   0  0  0  0  0  0  0  0  0  0  0  0
  179.7340   18.9520   45.8060 C   0  0  0  0  0  0  0  0  0  0  0  0
  178.3950   19.1740   46.1120 O   0  0  0  0  0  0  0  0  0  0  0  0
  178.0340   20.3700   46.6780 C   0  0  0  0  0  0  0  0  0  0  0  0
  176.6780   20.5550   46.9530 C   0  0  0  0  0  0  0  0  0  0  0  0
  176.2420   21.7490   47.5310 C   0  0  0  0  0  0  0  0  0  0  0  0
  177.1610   22.7560   47.8360 C   0  0  0  0  0  0  0  0  0  0  0  0
  178.5130   22.5670   47.5610 C   0  0  0  0  0  0  0  0  0  0  0  0
  179.3580   23.5930   47.8840 O   0  0  0  0  0  0  0  0  0  0  0  0
  178.9480   21.3720   46.9810 C   0  0  0  0  0  0  0  0  0  0  0  0
  180.3600   21.1340   46.6750 C   0  0  0  0  0  0  0  0  0  0  0  0
  181.2290   21.9680   46.9200 O   0  0  0  0  0  0  0  0  0  0  0  0
  180.7170   19.8370   46.0540 C   0  0  0  0  0  0  0  0  0  0  0  0
  182.0550   19.6180   45.7820 O   0  0  0  0  0  0  0  0  0  0  0  0
  180.6670   17.4790   43.9910 C   0  0  0  0  0  0  0  0  0  0  0  0
  180.8770   16.2190   43.4000 C   0  0  0  0  0  0  0  0  0  0  0  0
  181.6060   16.0650   42.2090 N   0  0  0  0  0  0  0  0  0  0  0  0
  181.1720   17.0150   41.1640 C   0  0  0  0  0  0  0  0  0  0  0  0
  181.4240   16.2710   39.8580 C   0  0  0  0  0  0  0  0  0  0  0  0
  181.0850   14.8400   40.2330 C   0  0  0  0  0  0  0  0  0  0  0  0
  181.6780   14.7110   41.6330 C   0  0  0  0  0  0  0  0  0  0  0  0
  180.6810   12.9728   44.2865 H   0  0  0  0  0  0  0  0  0  0  0  0
  179.7048   13.4347   42.8512 H   0  0  0  0  0  0  0  0  0  0  0  0
  181.4817   13.6975   42.8512 H   0  0  0  0  0  0  0  0  0  0  0  0
  179.2767   14.3230   45.7678 H   0  0  0  0  0  0  0  0  0  0  0  0
  178.9071   16.5680   46.7658 H   0  0  0  0  0  0  0  0  0  0  0  0
  175.9542   19.7616   46.7148 H   0  0  0  0  0  0  0  0  0  0  0  0
  175.1735   21.8969   47.7465 H   0  0  0  0  0  0  0  0  0  0  0  0
  176.8174   23.6961   48.2923 H   0  0  0  0  0  0  0  0  0  0  0  0
  179.2370   24.4390   47.5000 H   0  0  0  0  0  0  0  0  0  0  0  0
  182.7070   20.1760   46.1580 H   0  0  0  0  0  0  0  0  0  0  0  0
  181.0583   18.3764   43.4895 H   0  0  0  0  0  0  0  0  0  0  0  0
  180.1049   17.2577   41.2756 H   0  0  0  0  0  0  0  0  0  0  0  0
  181.7097   17.9733   41.2147 H   0  0  0  0  0  0  0  0  0  0  0  0
  180.7672   16.6393   39.0561 H   0  0  0  0  0  0  0  0  0  0  0  0
  182.4455   16.3952   39.4693 H   0  0  0  0  0  0  0  0  0  0  0  0
  179.9967   14.6807   40.2469 H   0  0  0  0  0  0  0  0  0  0  0  0
  181.4776   14.0977   39.5224 H   0  0  0  0  0  0  0  0  0  0  0  0
  181.0911   14.0032   42.2368 H   0  0  0  0  0  0  0  0  0  0  0  0
  182.7091   14.3285   41.6092 H   0  0  0  0  0  0  0  0  0  0  0  0
  1  2  1  0
  2  3  2  0
  3  4  1  0
  4  5  2  0
  5  6  1  0
  6  7  1  0
  7  8  1  0
  8  9  2  0
  9 10  1  0
 10 11  2  0
 11 12  1  0
 12 13  1  0
 12 14  2  0
 14 15  1  0
 15 16  2  0
 15 17  1  0
 17 18  1  0
  5 19  1  0
 19 20  2  0
 20 21  1  0
 21 22  1  0
 22 23  1  0
 23 24  1  0
 24 25  1  0
 20  2  1  0
 25 21  1  0
 17  6  2  0
 14  8  1  0
  1 26  1  0
  1 27  1  0
  1 28  1  0
  3 29  1  0
  4 30  1  0
  9 31  1  0
 10 32  1  0
 11 33  1  0
 13 34  1  0
 18 35  1  0
 19 36  1  0
 22 37  1  0
 22 38  1  0
 23 39  1  0
 23 40  1  0
 24 41  1  0
 24 42  1  0
 25 43  1  0
 25 44  1  0
M  END
>  <meeko>  (2) 
{"is_sidechain": [false], "free_energy": -6.514, "intermolecular_energy": -9.026, "internal_energy": 1.242}

$$$$
cand_018_out
     RDKit          3D

 44 47  0  0  0  0  0  0  0  0999 V2000
  182.7650   17.8100   43.7410 C   0  0  0  0  0  0  0  0  0  0  0  0
  181.5580   18.3260   44.4770 C   0  0  0  0  0  0  0  0  0  0  0  0
  181.4090   19.7090   44.6680 C   0  0  0  0  0  0  0  0  0  0  0  0
  180.2990   20.2180   45.3440 C   0  0  0  0  0  0  0  0  0  0  0  0
  179.3080   19.3610   45.8330 C   0  0  0  0  0  0  0  0  0  0  0  0
  178.1470   19.9160   46.5610 C   0  0  0  0  0  0  0  0  0  0  0  0
  178.3920   21.1840   47.0780 O   0  0  0  0  0  0  0  0  0  0  0  0
  177.3980   21.8180   47.7780 C   0  0  0  0  0  0  0  0  0  0  0  0
  177.6920   23.0820   48.2920 C   0  0  0  0  0  0  0  0  0  0  0  0
  176.7240   23.7820   49.0130 C   0  0  0  0  0  0  0  0  0  0  0  0
  175.4620   23.2210   49.2200 C   0  0  0  0  0  0  0  0  0  0  0  0
  175.1710   21.9610   48.7050 C   0  0  0  0  0  0  0  0  0  0  0  0
  173.9160   21.4710   48.9430 O   0  0  0  0  0  0  0  0  0  0  0  0
  176.1410   21.2590   47.9840 C   0  0  0  0  0  0  0  0  0  0  0  0
  175.8770   19.9320   47.4270 C   0  0  0  0  0  0  0  0  0  0  0  0
  174.7880   19.3750   47.5600 O   0  0  0  0  0  0  0  0  0  0  0  0
  176.9740   19.2690   46.6850 C   0  0  0  0  0  0  0  0  0  0  0  0
  176.7080   18.0210   46.1520 O   0  0  0  0  0  0  0  0  0  0  0  0
  179.4650   17.9780   45.6430 C   0  0  0  0  0  0  0  0  0  0  0  0
  180.5790   17.4420   44.9700 C   0  0  0  0  0  0  0  0  0  0  0  0
  180.7200   16.0620   44.7430 N   0  0  0  0  0  0  0  0  0  0  0  0
  180.8670   15.7460   43.3080 C   0  0  0  0  0  0  0  0  0  0  0  0
  180.2450   14.3620   43.1670 C   0  0  0  0  0  0  0  0  0  0  0  0
  179.0930   14.4250   44.1520 C   0  0  0  0  0  0  0  0  0  0  0  0
  179.7020   15.1740   45.3330 C   0  0  0  0  0  0  0  0  0  0  0  0
  183.5254   17.4849   44.4663 H   0  0  0  0  0  0  0  0  0  0  0  0
  182.4728   16.9581   43.1094 H   0  0  0  0  0  0  0  0  0  0  0  0
  183.1789   18.6098   43.1094 H   0  0  0  0  0  0  0  0  0  0  0  0
  182.1743   20.3979   44.2812 H   0  0  0  0  0  0  0  0  0  0  0  0
  180.2028   21.3035   45.4935 H   0  0  0  0  0  0  0  0  0  0  0  0
  178.6853   23.5256   48.1289 H   0  0  0  0  0  0  0  0  0  0  0  0
  176.9554   24.7777   49.4192 H   0  0  0  0  0  0  0  0  0  0  0  0
  174.6997   23.7736   49.7887 H   0  0  0  0  0  0  0  0  0  0  0  0
  173.4590   21.7130   49.7250 H   0  0  0  0  0  0  0  0  0  0  0  0
  176.3740   17.3390   46.7000 H   0  0  0  0  0  0  0  0  0  0  0  0
  178.6955   17.2945   46.0312 H   0  0  0  0  0  0  0  0  0  0  0  0
  180.3302   16.4803   42.6894 H   0  0  0  0  0  0  0  0  0  0  0  0
  181.9149   15.7741   42.9745 H   0  0  0  0  0  0  0  0  0  0  0  0
  179.8842   14.1896   42.1422 H   0  0  0  0  0  0  0  0  0  0  0  0
  180.9490   13.5400   43.3637 H   0  0  0  0  0  0  0  0  0  0  0  0
  178.2399   14.9765   43.7299 H   0  0  0  0  0  0  0  0  0  0  0  0
  178.6944   13.4357   44.4212 H   0  0  0  0  0  0  0  0  0  0  0  0
  178.9328   15.7621   45.8551 H   0  0  0  0  0  0  0  0  0  0  0  0
  180.1351   14.4882   46.0761 H   0  0  0  0  0  0  0  0  0  0  0  0
  1  2  1  0
  2  3  2  0
  3  4  1  0
  4  5  2  0
  5  6  1  0
  6  7  1  0
  7  8  1  0
  8  9  2  0
  9 10  1  0
 10 11  2  0
 11 12  1  0
 12 13  1  0
 12 14  2  0
 14 15  1  0
 15 16  2  0
 15 17  1  0
 17 18  1  0
  5 19  1  0
 19 20  2  0
 20 21  1  0
 21 22  1  0
 22 23  1  0
 23 24  1  0
 24 25  1  0
 20  2  1  0
 25 21  1  0
 17  6  2  0
 14  8  1  0
  1 26  1  0
  1 27  1  0
  1 28  1  0
  3 29  1  0
  4 30  1  0
  9 31  1  0
 10 32  1  0
 11 33  1  0
 13 34  1  0
 18 35  1  0
 19 36  1  0
 22 37  1  0
 22 38  1  0
 23 39  1  0
 23 40  1  0
 24 41  1  0
 24 42  1  0
 25 43  1  0
 25 44  1  0
M  END
>  <meeko>  (3) 
{"is_sidechain": [false], "free_energy": -6.245, "intermolecular_energy": -8.036, "internal_energy": 0.569}

$$$$
cand_018_out
     RDKit          3D

 44 47  0  0  0  0  0  0  0  0999 V2000
  187.2680   24.8740   45.6350 C   0  0  0  0  0  0  0  0  0  0  0  0
  186.0310   24.0210   45.7150 C   0  0  0  0  0  0  0  0  0  0  0  0
  185.1190   24.2270   46.7620 C   0  0  0  0  0  0  0  0  0  0  0  0
  183.9620   23.4540   46.8610 C   0  0  0  0  0  0  0  0  0  0  0  0
  183.6820   22.4670   45.9090 C   0  0  0  0  0  0  0  0  0  0  0  0
  182.4590   21.6460   46.0390 C   0  0  0  0  0  0  0  0  0  0  0  0
  181.4700   22.2670   46.7950 O   0  0  0  0  0  0  0  0  0  0  0  0
  180.2810   21.6140   46.9960 C   0  0  0  0  0  0  0  0  0  0  0  0
  179.3240   22.2670   47.7740 C   0  0  0  0  0  0  0  0  0  0  0  0
  178.0910   21.6590   48.0150 C   0  0  0  0  0  0  0  0  0  0  0  0
  177.8130   20.4000   47.4780 C   0  0  0  0  0  0  0  0  0  0  0  0
  178.7700   19.7520   46.7020 C   0  0  0  0  0  0  0  0  0  0  0  0
  178.4330   18.5210   46.2070 O   0  0  0  0  0  0  0  0  0  0  0  0
  180.0050   20.3600   46.4610 C   0  0  0  0  0  0  0  0  0  0  0  0
  181.0380   19.7130   45.6520 C   0  0  0  0  0  0  0  0  0  0  0  0
  180.8670   18.6080   45.1400 O   0  0  0  0  0  0  0  0  0  0  0  0
  182.3160   20.4380   45.4630 C   0  0  0  0  0  0  0  0  0  0  0  0
  183.2790   19.8220   44.6850 O   0  0  0  0  0  0  0  0  0  0  0  0
  184.5990   22.2620   44.8670 C   0  0  0  0  0  0  0  0  0  0  0  0
  185.7760   23.0250   44.7510 C   0  0  0  0  0  0  0  0  0  0  0  0
  186.6770   22.8500   43.6870 N   0  0  0  0  0  0  0  0  0  0  0  0
  186.0160   22.9700   42.3710 C   0  0  0  0  0  0  0  0  0  0  0  0
  186.8240   22.0490   41.4650 C   0  0  0  0  0  0  0  0  0  0  0  0
  187.1810   20.9090   42.4000 C   0  0  0  0  0  0  0  0  0  0  0  0
  187.5090   21.6340   43.7010 C   0  0  0  0  0  0  0  0  0  0  0  0
  187.6148   25.1132   46.6511 H   0  0  0  0  0  0  0  0  0  0  0  0
  188.0566   24.3268   45.0977 H   0  0  0  0  0  0  0  0  0  0  0  0
  187.0369   25.8056   45.0977 H   0  0  0  0  0  0  0  0  0  0  0  0
  185.3188   25.0062   47.5123 H   0  0  0  0  0  0  0  0  0  0  0  0
  183.2638   23.6216   47.6943 H   0  0  0  0  0  0  0  0  0  0  0  0
  179.5410   23.2591   48.1966 H   0  0  0  0  0  0  0  0  0  0  0  0
  177.3366   22.1725   48.6292 H   0  0  0  0  0  0  0  0  0  0  0  0
  176.8407   19.9219   47.6677 H   0  0  0  0  0  0  0  0  0  0  0  0
  178.9550   17.7730   46.4190 H   0  0  0  0  0  0  0  0  0  0  0  0
  183.6810   19.0280   44.9790 H   0  0  0  0  0  0  0  0  0  0  0  0
  184.3920   21.4824   44.1191 H   0  0  0  0  0  0  0  0  0  0  0  0
  184.9682   22.6403   42.4286 H   0  0  0  0  0  0  0  0  0  0  0  0
  185.9897   24.0067   42.0043 H   0  0  0  0  0  0  0  0  0  0  0  0
  186.2202   21.6944   40.6167 H   0  0  0  0  0  0  0  0  0  0  0  0
  187.6989   22.5356   41.0091 H   0  0  0  0  0  0  0  0  0  0  0  0
  186.3314   20.2227   42.5315 H   0  0  0  0  0  0  0  0  0  0  0  0
  188.0053   20.2819   42.0295 H   0  0  0  0  0  0  0  0  0  0  0  0
  187.2573   21.0045   44.5672 H   0  0  0  0  0  0  0  0  0  0  0  0
  188.5804   21.8702   43.7808 H   0  0  0  0  0  0  0  0  0  0  0  0
  1  2  1  0
  2  3  2  0
  3  4  1  0
  4  5  2  0
  5  6  1  0
  6  7  1  0
  7  8  1  0
  8  9  2  0
  9 10  1  0
 10 11  2  0
 11 12  1  0
 12 13  1  0
 12 14  2  0
 14 15  1  0
 15 16  2  0
 15 17  1  0
 17 18  1  0
  5 19  1  0
 19 20  2  0
 20 21  1  0
 21 22  1  0
 22 23  1  0
 23 24  1  0
 24 25  1  0
 20  2  1  0
 25 21  1  0
 17  6  2  0
 14  8  1  0
  1 26  1  0
  1 27  1  0
  1 28  1  0
  3 29  1  0
  4 30  1  0
  9 31  1  0
 10 32  1  0
 11 33  1  0
 13 34  1  0
 18 35  1  0
 19 36  1  0
 22 37  1  0
 22 38  1  0
 23 39  1  0
 23 40  1  0
 24 41  1  0
 24 42  1  0
 25 43  1  0
 25 44  1  0
M  END
>  <meeko>  (4) 
{"is_sidechain": [false], "free_energy": -6.123, "intermolecular_energy": -7.13, "internal_energy": -0.194}

$$$$
cand_018_out
     RDKit          3D

 44 47  0  0  0  0  0  0  0  0999 V2000
  179.5740   21.9270   48.1180 C   0  0  0  0  0  0  0  0  0  0  0  0
  179.7620   20.7660   47.1780 C   0  0  0  0  0  0  0  0  0  0  0  0
  181.0600   20.3930   46.7960 C   0  0  0  0  0  0  0  0  0  0  0  0
  181.2650   19.3200   45.9280 C   0  0  0  0  0  0  0  0  0  0  0  0
  180.1820   18.5860   45.4340 C   0  0  0  0  0  0  0  0  0  0  0  0
  180.4170   17.4620   44.5020 C   0  0  0  0  0  0  0  0  0  0  0  0
  180.7540   17.8850   43.2210 O   0  0  0  0  0  0  0  0  0  0  0  0
  181.0000   16.9430   42.2550 C   0  0  0  0  0  0  0  0  0  0  0  0
  181.3190   17.4130   40.9800 C   0  0  0  0  0  0  0  0  0  0  0  0
  181.5820   16.5070   39.9500 C   0  0  0  0  0  0  0  0  0  0  0  0
  181.5280   15.1340   40.1950 C   0  0  0  0  0  0  0  0  0  0  0  0
  181.2110   14.6680   41.4680 C   0  0  0  0  0  0  0  0  0  0  0  0
  181.1760   13.3110   41.6400 O   0  0  0  0  0  0  0  0  0  0  0  0
  180.9460   15.5760   42.4990 C   0  0  0  0  0  0  0  0  0  0  0  0
  180.6080   15.1290   43.8510 C   0  0  0  0  0  0  0  0  0  0  0  0
  180.5470   13.9370   44.1460 O   0  0  0  0  0  0  0  0  0  0  0  0
  180.3370   16.1700   44.8690 C   0  0  0  0  0  0  0  0  0  0  0  0
  180.0310   15.7350   46.1460 O   0  0  0  0  0  0  0  0  0  0  0  0
  178.8850   18.9660   45.8150 C   0  0  0  0  0  0  0  0  0  0  0  0
  178.6540   20.0500   46.6840 C   0  0  0  0  0  0  0  0  0  0  0  0
  177.3600   20.4090   47.1000 N   0  0  0  0  0  0  0  0  0  0  0  0
  177.0220   19.8410   48.4200 C   0  0  0  0  0  0  0  0  0  0  0  0
  175.5130   19.6360   48.3610 C   0  0  0  0  0  0  0  0  0  0  0  0
  175.3000   19.2260   46.9160 C   0  0  0  0  0  0  0  0  0  0  0  0
  176.2540   20.1470   46.1620 C   0  0  0  0  0  0  0  0  0  0  0  0
  179.6317   21.5706   49.1571 H   0  0  0  0  0  0  0  0  0  0  0  0
  180.3631   22.6729   47.9419 H   0  0  0  0  0  0  0  0  0  0  0  0
  178.5899   22.3858   47.9419 H   0  0  0  0  0  0  0  0  0  0  0  0
  181.9240   20.9520   47.1847 H   0  0  0  0  0  0  0  0  0  0  0  0
  182.2884   19.0488   45.6294 H   0  0  0  0  0  0  0  0  0  0  0  0
  181.3632   18.4950   40.7867 H   0  0  0  0  0  0  0  0  0  0  0  0
  181.8320   16.8761   38.9444 H   0  0  0  0  0  0  0  0  0  0  0  0
  181.7356   14.4211   39.3834 H   0  0  0  0  0  0  0  0  0  0  0  0
  180.3960   12.8340   41.4350 H   0  0  0  0  0  0  0  0  0  0  0  0
  179.4530   15.0090   46.2680 H   0  0  0  0  0  0  0  0  0  0  0  0
  178.0257   18.4015   45.4240 H   0  0  0  0  0  0  0  0  0  0  0  0
  177.5403   18.8836   48.5775 H   0  0  0  0  0  0  0  0  0  0  0  0
  177.3273   20.4937   49.2512 H   0  0  0  0  0  0  0  0  0  0  0  0
  175.1912   18.8429   49.0519 H   0  0  0  0  0  0  0  0  0  0  0  0
  174.9354   20.5241   48.6571 H   0  0  0  0  0  0  0  0  0  0  0  0
  175.5631   18.1693   46.7606 H   0  0  0  0  0  0  0  0  0  0  0  0
  174.2545   19.3161   46.5863 H   0  0  0  0  0  0  0  0  0  0  0  0
  176.6280   19.6540   45.2526 H   0  0  0  0  0  0  0  0  0  0  0  0
  175.7601   21.0753   45.8391 H   0  0  0  0  0  0  0  0  0  0  0  0
  1  2  1  0
  2  3  2  0
  3  4  1  0
  4  5  2  0
  5  6  1  0
  6  7  1  0
  7  8  1  0
  8  9  2  0
  9 10  1  0
 10 11  2  0
 11 12  1  0
 12 13  1  0
 12 14  2  0
 14 15  1  0
 15 16  2  0
 15 17  1  0
 17 18  1  0
  5 19  1  0
 19 20  2  0
 20 21  1  0
 21 22  1  0
 22 23  1  0
 23 24  1  0
 24 25  1  0
 20  2  1  0
 25 21  1  0
 17  6  2  0
 14  8  1  0
  1 26  1  0
  1 27  1  0
  1 28  1  0
  3 29  1  0
  4 30  1  0
  9 31  1  0
 10 32  1  0
 11 33  1  0
 13 34  1  0
 18 35  1  0
 19 36  1  0
 22 37  1  0
 22 38  1  0
 23 39  1  0
 23 40  1  0
 24 41  1  0
 24 42  1  0
 25 43  1  0
 25 44  1  0
M  END
>  <meeko>  (5) 
{"is_sidechain": [false], "free_energy": -5.9, "intermolecular_energy": -6.545, "internal_energy": -0.517}

$$$$
cand_018_out
     RDKit          3D

 44 47  0  0  0  0  0  0  0  0999 V2000
  187.2760   24.1910   44.9660 C   0  0  0  0  0  0  0  0  0  0  0  0
  185.9660   23.5180   45.2750 C   0  0  0  0  0  0  0  0  0  0  0  0
  185.3840   22.6730   44.3180 C   0  0  0  0  0  0  0  0  0  0  0  0
  184.1710   22.0330   44.5760 C   0  0  0  0  0  0  0  0  0  0  0  0
  183.5190   22.2110   45.8000 C   0  0  0  0  0  0  0  0  0  0  0  0
  182.2270   21.5370   46.0510 C   0  0  0  0  0  0  0  0  0  0  0  0
  181.3560   22.3090   46.8130 O   0  0  0  0  0  0  0  0  0  0  0  0
  180.1180   21.8040   47.1200 C   0  0  0  0  0  0  0  0  0  0  0  0
  179.2830   22.6050   47.9000 C   0  0  0  0  0  0  0  0  0  0  0  0
  178.0090   22.1520   48.2480 C   0  0  0  0  0  0  0  0  0  0  0  0
  177.5700   20.8990   47.8150 C   0  0  0  0  0  0  0  0  0  0  0  0
  178.4050   20.1020   47.0370 C   0  0  0  0  0  0  0  0  0  0  0  0
  177.9120   18.8870   46.6470 O   0  0  0  0  0  0  0  0  0  0  0  0
  179.6810   20.5560   46.6890 C   0  0  0  0  0  0  0  0  0  0  0  0
  180.5900   19.7500   45.8740 C   0  0  0  0  0  0  0  0  0  0  0  0
  180.2730   18.6400   45.4500 O   0  0  0  0  0  0  0  0  0  0  0  0
  181.9230   20.3180   45.5690 C   0  0  0  0  0  0  0  0  0  0  0  0
  182.7680   19.5530   44.7860 O   0  0  0  0  0  0  0  0  0  0  0  0
  184.1030   23.0610   46.7530 C   0  0  0  0  0  0  0  0  0  0  0  0
  185.3220   23.7220   46.5120 C   0  0  0  0  0  0  0  0  0  0  0  0
  185.9300   24.5420   47.4780 N   0  0  0  0  0  0  0  0  0  0  0  0
  186.6480   23.7580   48.5020 C   0  0  0  0  0  0  0  0  0  0  0  0
  186.5470   24.6100   49.7610 C   0  0  0  0  0  0  0  0  0  0  0  0
  185.1610   25.2130   49.6310 C   0  0  0  0  0  0  0  0  0  0  0  0
  185.0780   25.5430   48.1440 C   0  0  0  0  0  0  0  0  0  0  0  0
  187.7846   24.4523   45.9057 H   0  0  0  0  0  0  0  0  0  0  0  0
  187.9109   23.5074   44.3832 H   0  0  0  0  0  0  0  0  0  0  0  0
  187.0901   25.1052   44.3832 H   0  0  0  0  0  0  0  0  0  0  0  0
  185.8892   22.5133   43.3540 H   0  0  0  0  0  0  0  0  0  0  0  0
  183.7239   21.3828   43.8097 H   0  0  0  0  0  0  0  0  0  0  0  0
  179.6282   23.5924   48.2404 H   0  0  0  0  0  0  0  0  0  0  0  0
  177.3506   22.7825   48.8637 H   0  0  0  0  0  0  0  0  0  0  0  0
  176.5659   20.5424   48.0883 H   0  0  0  0  0  0  0  0  0  0  0  0
  177.6460   18.7530   45.7580 H   0  0  0  0  0  0  0  0  0  0  0  0
  182.4650   19.2050   43.9710 H   0  0  0  0  0  0  0  0  0  0  0  0
  183.5931   23.2147   47.7155 H   0  0  0  0  0  0  0  0  0  0  0  0
  186.1677   22.7800   48.6528 H   0  0  0  0  0  0  0  0  0  0  0  0
  187.6894   23.5462   48.2181 H   0  0  0  0  0  0  0  0  0  0  0  0
  186.6297   23.9928   50.6677 H   0  0  0  0  0  0  0  0  0  0  0  0
  187.3472   25.3592   49.8520 H   0  0  0  0  0  0  0  0  0  0  0  0
  184.3847   24.4895   49.9208 H   0  0  0  0  0  0  0  0  0  0  0  0
  185.0014   26.0854   50.2817 H   0  0  0  0  0  0  0  0  0  0  0  0
  184.0400   25.4638   47.7886 H   0  0  0  0  0  0  0  0  0  0  0  0
  185.4083   26.5706   47.9318 H   0  0  0  0  0  0  0  0  0  0  0  0
  1  2  1  0
  2  3  2  0
  3  4  1  0
  4  5  2  0
  5  6  1  0
  6  7  1  0
  7  8  1  0
  8  9  2  0
  9 10  1  0
 10 11  2  0
 11 12  1  0
 12 13  1  0
 12 14  2  0
 14 15  1  0
 15 16  2  0
 15 17  1  0
 17 18  1  0
  5 19  1  0
 19 20  2  0
 20 21  1  0
 21 22  1  0
 22 23  1  0
 23 24  1  0
 24 25  1  0
 20  2  1  0
 25 21  1  0
 17  6  2  0
 14  8  1  0
  1 26  1  0
  1 27  1  0
  1 28  1  0
  3 29  1  0
  4 30  1  0
  9 31  1  0
 10 32  1  0
 11 33  1  0
 13 34  1  0
 18 35  1  0
 19 36  1  0
 22 37  1  0
 22 38  1  0
 23 39  1  0
 23 40  1  0
 24 41  1  0
 24 42  1  0
 25 43  1  0
 25 44  1  0
M  END
>  <meeko>  (6) 
{"is_sidechain": [false], "free_energy": -5.812, "intermolecular_energy": -6.687, "internal_energy": -0.272}

$$$$
cand_018_out
     RDKit          3D

 44 47  0  0  0  0  0  0  0  0999 V2000
  182.7650   17.6190   43.5980 C   0  0  0  0  0  0  0  0  0  0  0  0
  181.8160   18.4150   44.4540 C   0  0  0  0  0  0  0  0  0  0  0  0
  182.2020   19.6840   44.9130 C   0  0  0  0  0  0  0  0  0  0  0  0
  181.3430   20.4460   45.7050 C   0  0  0  0  0  0  0  0  0  0  0  0
  180.0750   19.9650   46.0470 C   0  0  0  0  0  0  0  0  0  0  0  0
  179.1840   20.7790   46.9010 C   0  0  0  0  0  0  0  0  0  0  0  0
  177.8620   20.3490   46.8660 O   0  0  0  0  0  0  0  0  0  0  0  0
  176.9270   21.0170   47.6140 C   0  0  0  0  0  0  0  0  0  0  0  0
  175.6100   20.5600   47.5370 C   0  0  0  0  0  0  0  0  0  0  0  0
  174.6100   21.1950   48.2750 C   0  0  0  0  0  0  0  0  0  0  0  0
  174.9240   22.2840   49.0910 C   0  0  0  0  0  0  0  0  0  0  0  0
  176.2380   22.7360   49.1660 C   0  0  0  0  0  0  0  0  0  0  0  0
  176.4770   23.8070   49.9840 O   0  0  0  0  0  0  0  0  0  0  0  0
  177.2400   22.1010   48.4260 C   0  0  0  0  0  0  0  0  0  0  0  0
  178.6340   22.5460   48.4760 C   0  0  0  0  0  0  0  0  0  0  0  0
  178.9910   23.4920   49.1760 O   0  0  0  0  0  0  0  0  0  0  0  0
  179.6180   21.8110   47.6480 C   0  0  0  0  0  0  0  0  0  0  0  0
  180.9340   22.2320   47.7150 O   0  0  0  0  0  0  0  0  0  0  0  0
  179.6950   18.6930   45.5890 C   0  0  0  0  0  0  0  0  0  0  0  0
  180.5470   17.9040   44.7940 C   0  0  0  0  0  0  0  0  0  0  0  0
  180.1560   16.6470   44.3010 N   0  0  0  0  0  0  0  0  0  0  0  0
  179.9860   15.6540   45.3810 C   0  0  0  0  0  0  0  0  0  0  0  0
  180.3420   14.3260   44.7230 C   0  0  0  0  0  0  0  0  0  0  0  0
  181.4630   14.7240   43.7810 C   0  0  0  0  0  0  0  0  0  0  0  0
  180.9770   16.0600   43.2270 C   0  0  0  0  0  0  0  0  0  0  0  0
  183.4478   17.0462   44.2427 H   0  0  0  0  0  0  0  0  0  0  0  0
  182.1931   16.9265   42.9629 H   0  0  0  0  0  0  0  0  0  0  0  0
  183.3474   18.3027   42.9629 H   0  0  0  0  0  0  0  0  0  0  0  0
  183.1921   20.0817   44.6454 H   0  0  0  0  0  0  0  0  0  0  0  0
  181.6659   21.4344   46.0639 H   0  0  0  0  0  0  0  0  0  0  0  0
  175.3611   19.7014   46.8961 H   0  0  0  0  0  0  0  0  0  0  0  0
  173.5718   20.8368   48.2138 H   0  0  0  0  0  0  0  0  0  0  0  0
  174.1350   22.7830   49.6727 H   0  0  0  0  0  0  0  0  0  0  0  0
  176.1210   23.8230   50.8510 H   0  0  0  0  0  0  0  0  0  0  0  0
  181.1740   22.9280   48.2930 H   0  0  0  0  0  0  0  0  0  0  0  0
  178.7030   18.3022   45.8594 H   0  0  0  0  0  0  0  0  0  0  0  0
  180.6647   15.8688   46.2196 H   0  0  0  0  0  0  0  0  0  0  0  0
  178.9699   15.6578   45.8025 H   0  0  0  0  0  0  0  0  0  0  0  0
  180.6876   13.5927   45.4665 H   0  0  0  0  0  0  0  0  0  0  0  0
  179.4927   13.8421   44.2184 H   0  0  0  0  0  0  0  0  0  0  0  0
  182.4133   14.8412   44.3225 H   0  0  0  0  0  0  0  0  0  0  0  0
  181.6642   13.9751   43.0008 H   0  0  0  0  0  0  0  0  0  0  0  0
  181.8300   16.7137   42.9923 H   0  0  0  0  0  0  0  0  0  0  0  0
  180.4070   15.9359   42.2944 H   0  0  0  0  0  0  0  0  0  0  0  0
  1  2  1  0
  2  3  2  0
  3  4  1  0
  4  5  2  0
  5  6  1  0
  6  7  1  0
  7  8  1  0
  8  9  2  0
  9 10  1  0
 10 11  2  0
 11 12  1  0
 12 13  1  0
 12 14  2  0
 14 15  1  0
 15 16  2  0
 15 17  1  0
 17 18  1  0
  5 19  1  0
 19 20  2  0
 20 21  1  0
 21 22  1  0
 22 23  1  0
 23 24  1  0
 24 25  1  0
 20  2  1  0
 25 21  1  0
 17  6  2  0
 14  8  1  0
  1 26  1  0
  1 27  1  0
  1 28  1  0
  3 29  1  0
  4 30  1  0
  9 31  1  0
 10 32  1  0
 11 33  1  0
 13 34  1  0
 18 35  1  0
 19 36  1  0
 22 37  1  0
 22 38  1  0
 23 39  1  0
 23 40  1  0
 24 41  1  0
 24 42  1  0
 25 43  1  0
 25 44  1  0
M  END
>  <meeko>  (7) 
{"is_sidechain": [false], "free_energy": -5.668, "intermolecular_energy": -8.628, "internal_energy": 1.839}

$$$$
cand_018_out
     RDKit          3D

 44 47  0  0  0  0  0  0  0  0999 V2000
  174.8180   21.1560   48.7630 C   0  0  0  0  0  0  0  0  0  0  0  0
  175.9230   20.4590   48.0170 C   0  0  0  0  0  0  0  0  0  0  0  0
  175.6250   19.3200   47.2530 C   0  0  0  0  0  0  0  0  0  0  0  0
  176.6280   18.6530   46.5480 C   0  0  0  0  0  0  0  0  0  0  0  0
  177.9470   19.1170   46.5770 C   0  0  0  0  0  0  0  0  0  0  0  0
  179.0000   18.3890   45.8370 C   0  0  0  0  0  0  0  0  0  0  0  0
  178.7440   17.0250   45.7370 O   0  0  0  0  0  0  0  0  0  0  0  0
  179.6420   16.2290   45.0740 C   0  0  0  0  0  0  0  0  0  0  0  0
  179.3530   14.8650   45.0130 C   0  0  0  0  0  0  0  0  0  0  0  0
  180.2250   13.9980   44.3500 C   0  0  0  0  0  0  0  0  0  0  0  0
  181.3840   14.4950   43.7490 C   0  0  0  0  0  0  0  0  0  0  0  0
  181.6690   15.8560   43.8120 C   0  0  0  0  0  0  0  0  0  0  0  0
  182.8190   16.2750   43.2020 O   0  0  0  0  0  0  0  0  0  0  0  0
  180.7960   16.7230   44.4760 C   0  0  0  0  0  0  0  0  0  0  0  0
  181.0580   18.1600   44.5660 C   0  0  0  0  0  0  0  0  0  0  0  0
  182.0530   18.6740   44.0570 O   0  0  0  0  0  0  0  0  0  0  0  0
  180.0750   18.9920   45.2980 C   0  0  0  0  0  0  0  0  0  0  0  0
  180.3270   20.3500   45.3650 O   0  0  0  0  0  0  0  0  0  0  0  0
  178.2410   20.2540   47.3460 C   0  0  0  0  0  0  0  0  0  0  0  0
  177.2470   20.9380   48.0710 C   0  0  0  0  0  0  0  0  0  0  0  0
  177.5290   22.1000   48.8110 N   0  0  0  0  0  0  0  0  0  0  0  0
  176.4790   23.1270   48.6550 C   0  0  0  0  0  0  0  0  0  0  0  0
  177.2260   24.4470   48.8040 C   0  0  0  0  0  0  0  0  0  0  0  0
  178.5540   24.1420   48.1360 C   0  0  0  0  0  0  0  0  0  0  0  0
  178.8490   22.7220   48.6100 C   0  0  0  0  0  0  0  0  0  0  0  0
  174.9836   21.0515   49.8454 H   0  0  0  0  0  0  0  0  0  0  0  0
  174.8104   22.2227   48.4945 H   0  0  0  0  0  0  0  0  0  0  0  0
  173.8520   20.7034   48.4945 H   0  0  0  0  0  0  0  0  0  0  0  0
  174.5903   18.9492   47.2094 H   0  0  0  0  0  0  0  0  0  0  0  0
  176.3789   17.7545   45.9644 H   0  0  0  0  0  0  0  0  0  0  0  0
  178.4404   14.4734   45.4860 H   0  0  0  0  0  0  0  0  0  0  0  0
  179.9987   12.9226   44.3011 H   0  0  0  0  0  0  0  0  0  0  0  0
  182.0702   13.8120   43.2269 H   0  0  0  0  0  0  0  0  0  0  0  0
  182.8180   16.4780   42.2880 H   0  0  0  0  0  0  0  0  0  0  0  0
  180.1870   20.8900   44.6120 H   0  0  0  0  0  0  0  0  0  0  0  0
  179.2774   20.6208   47.3831 H   0  0  0  0  0  0  0  0  0  0  0  0
  176.0066   23.0552   47.6642 H   0  0  0  0  0  0  0  0  0  0  0  0
  175.6671   23.0159   49.3888 H   0  0  0  0  0  0  0  0  0  0  0  0
  176.6989   25.2637   48.2890 H   0  0  0  0  0  0  0  0  0  0  0  0
  177.3236   24.7835   49.8467 H   0  0  0  0  0  0  0  0  0  0  0  0
  178.4659   24.1843   47.0403 H   0  0  0  0  0  0  0  0  0  0  0  0
  179.3464   24.8610   48.3911 H   0  0  0  0  0  0  0  0  0  0  0  0
  179.4225   22.1726   47.8489 H   0  0  0  0  0  0  0  0  0  0  0  0
  179.4523   22.7125   49.5297 H   0  0  0  0  0  0  0  0  0  0  0  0
  1  2  1  0
  2  3  2  0
  3  4  1  0
  4  5  2  0
  5  6  1  0
  6  7  1  0
  7  8  1  0
  8  9  2  0
  9 10  1  0
 10 11  2  0
 11 12  1  0
 12 13  1  0
 12 14  2  0
 14 15  1  0
 15 16  2  0
 15 17  1  0
 17 18  1  0
  5 19  1  0
 19 20  2  0
 20 21  1  0
 21 22  1  0
 22 23  1  0
 23 24  1  0
 24 25  1  0
 20  2  1  0
 25 21  1  0
 17  6  2  0
 14  8  1  0
  1 26  1  0
  1 27  1  0
  1 28  1  0
  3 29  1  0
  4 30  1  0
  9 31  1  0
 10 32  1  0
 11 33  1  0
 13 34  1  0
 18 35  1  0
 19 36  1  0
 22 37  1  0
 22 38  1  0
 23 39  1  0
 23 40  1  0
 24 41  1  0
 24 42  1  0
 25 43  1  0
 25 44  1  0
M  END
>  <meeko>  (8) 
{"is_sidechain": [false], "free_energy": -5.561, "intermolecular_energy": -7.58, "internal_energy": 0.917}

$$$$
cand_018_out
     RDKit          3D

 44 47  0  0  0  0  0  0  0  0999 V2000
  171.2560   27.2480   51.6380 C   0  0  0  0  0  0  0  0  0  0  0  0
  172.2690   26.2800   51.0900 C   0  0  0  0  0  0  0  0  0  0  0  0
  172.3310   26.0590   49.7050 C   0  0  0  0  0  0  0  0  0  0  0  0
  173.2620   25.1690   49.1670 C   0  0  0  0  0  0  0  0  0  0  0  0
  174.1610   24.4910   49.9970 C   0  0  0  0  0  0  0  0  0  0  0  0
  175.1300   23.5400   49.4110 C   0  0  0  0  0  0  0  0  0  0  0  0
  174.5170   22.4310   48.8380 O   0  0  0  0  0  0  0  0  0  0  0  0
  175.3000   21.4670   48.2580 C   0  0  0  0  0  0  0  0  0  0  0  0
  174.6440   20.3630   47.7090 C   0  0  0  0  0  0  0  0  0  0  0  0
  175.3820   19.3470   47.1010 C   0  0  0  0  0  0  0  0  0  0  0  0
  176.7750   19.4320   47.0390 C   0  0  0  0  0  0  0  0  0  0  0  0
  177.4260   20.5340   47.5860 C   0  0  0  0  0  0  0  0  0  0  0  0
  178.7910   20.5560   47.4910 O   0  0  0  0  0  0  0  0  0  0  0  0
  176.6870   21.5520   48.1960 C   0  0  0  0  0  0  0  0  0  0  0  0
  177.3320   22.7270   48.7850 C   0  0  0  0  0  0  0  0  0  0  0  0
  178.5520   22.8780   48.7640 O   0  0  0  0  0  0  0  0  0  0  0  0
  176.4590   23.7450   49.4140 C   0  0  0  0  0  0  0  0  0  0  0  0
  177.0800   24.8560   49.9540 O   0  0  0  0  0  0  0  0  0  0  0  0
  174.0920   24.7130   51.3820 C   0  0  0  0  0  0  0  0  0  0  0  0
  173.1570   25.6000   51.9470 C   0  0  0  0  0  0  0  0  0  0  0  0
  173.1110   25.8540   53.3290 N   0  0  0  0  0  0  0  0  0  0  0  0
  174.2300   26.7070   53.7760 C   0  0  0  0  0  0  0  0  0  0  0  0
  174.4900   26.2590   55.2090 C   0  0  0  0  0  0  0  0  0  0  0  0
  174.2250   24.7670   55.1320 C   0  0  0  0  0  0  0  0  0  0  0  0
  173.0010   24.6900   54.2250 C   0  0  0  0  0  0  0  0  0  0  0  0
  171.2822   27.2229   52.7374 H   0  0  0  0  0  0  0  0  0  0  0  0
  171.4931   28.2637   51.2886 H   0  0  0  0  0  0  0  0  0  0  0  0
  170.2521   26.9651   51.2886 H   0  0  0  0  0  0  0  0  0  0  0  0
  171.6389   26.5926   49.0370 H   0  0  0  0  0  0  0  0  0  0  0  0
  173.2890   24.9992   48.0805 H   0  0  0  0  0  0  0  0  0  0  0  0
  173.5471   20.2946   47.7559 H   0  0  0  0  0  0  0  0  0  0  0  0
  174.8657   18.4769   46.6694 H   0  0  0  0  0  0  0  0  0  0  0  0
  177.3557   18.6304   46.5593 H   0  0  0  0  0  0  0  0  0  0  0  0
  179.3100   20.0640   48.0970 H   0  0  0  0  0  0  0  0  0  0  0  0
  177.9660   25.0560   49.7250 H   0  0  0  0  0  0  0  0  0  0  0  0
  174.7888   24.1782   52.0441 H   0  0  0  0  0  0  0  0  0  0  0  0
  175.1191   26.5450   53.1489 H   0  0  0  0  0  0  0  0  0  0  0  0
  173.9974   27.7798   53.7049 H   0  0  0  0  0  0  0  0  0  0  0  0
  175.5282   26.4646   55.5089 H   0  0  0  0  0  0  0  0  0  0  0  0
  173.8698   26.7796   55.9536 H   0  0  0  0  0  0  0  0  0  0  0  0
  175.0802   24.2346   54.6902 H   0  0  0  0  0  0  0  0  0  0  0  0
  174.0693   24.3001   56.1157 H   0  0  0  0  0  0  0  0  0  0  0  0
  173.0084   23.7550   53.6456 H   0  0  0  0  0  0  0  0  0  0  0  0
  172.0626   24.6999   54.7988 H   0  0  0  0  0  0  0  0  0  0  0  0
  1  2  1  0
  2  3  2  0
  3  4  1  0
  4  5  2  0
  5  6  1  0
  6  7  1  0
  7  8  1  0
  8  9  2  0
  9 10  1  0
 10 11  2  0
 11 12  1  0
 12 13  1  0
 12 14  2  0
 14 15  1  0
 15 16  2  0
 15 17  1  0
 17 18  1  0
  5 19  1  0
 19 20  2  0
 20 21  1  0
 21 22  1  0
 22 23  1  0
 23 24  1  0
 24 25  1  0
 20  2  1  0
 25 21  1  0
 17  6  2  0
 14  8  1  0
  1 26  1  0
  1 27  1  0
  1 28  1  0
  3 29  1  0
  4 30  1  0
  9 31  1  0
 10 32  1  0
 11 33  1  0
 13 34  1  0
 18 35  1  0
 19 36  1  0
 22 37  1  0
 22 38  1  0
 23 39  1  0
 23 40  1  0
 24 41  1  0
 24 42  1  0
 25 43  1  0
 25 44  1  0
M  END
>  <meeko>  (9) 
{"is_sidechain": [false], "free_energy": -5.555, "intermolecular_energy": -5.976, "internal_energy": -0.681}

$$$$
