cand_038_out
     RDKit          3D

 47 49  0  0  0  0  0  0  0  0999 V2000
  180.7780   14.0710   45.5320 C   0  0  0  0  0  0  0  0  0  0  0  0
  179.6580   15.0560   45.2160 C   0  0  0  0  0  0  0  0  0  0  0  0
  180.1850   16.3980   44.7480 C   0  0  0  0  0  0  0  0  0  0  0  0
  179.8990   17.4750   45.6300 C   0  0  0  0  0  0  0  0  0  0  0  0
  180.3130   18.7870   45.3860 C   0  0  0  0  0  0  0  0  0  0  0  0
  179.9890   19.8990   46.3030 C   0  0  0  0  0  0  0  0  0  0  0  0
  178.6350   20.2170   46.3090 O   0  0  0  0  0  0  0  0  0  0  0  0
  178.1960   21.2330   47.1180 C   0  0  0  0  0  0  0  0  0  0  0  0
  176.8280   21.5090   47.1040 C   0  0  0  0  0  0  0  0  0  0  0  0
  176.3150   22.5330   47.9030 C   0  0  0  0  0  0  0  0  0  0  0  0
  177.1690   23.2810   48.7160 C   0  0  0  0  0  0  0  0  0  0  0  0
  178.5340   23.0050   48.7280 C   0  0  0  0  0  0  0  0  0  0  0  0
  179.3130   23.7770   49.5460 O   0  0  0  0  0  0  0  0  0  0  0  0
  179.0460   21.9800   47.9280 C   0  0  0  0  0  0  0  0  0  0  0  0
  180.4740   21.6560   47.9110 C   0  0  0  0  0  0  0  0  0  0  0  0
  181.2890   22.2740   48.5930 O   0  0  0  0  0  0  0  0  0  0  0  0
  180.9150   20.5460   47.0360 C   0  0  0  0  0  0  0  0  0  0  0  0
  182.2680   20.2580   47.0170 O   0  0  0  0  0  0  0  0  0  0  0  0
  181.0140   19.0290   44.2110 C   0  0  0  0  0  0  0  0  0  0  0  0
  181.3050   17.9840   43.3230 C   0  0  0  0  0  0  0  0  0  0  0  0
  180.9150   16.6420   43.5540 C   0  0  0  0  0  0  0  0  0  0  0  0
  181.2790   15.5670   42.4920 C   0  0  0  0  0  0  0  0  0  0  0  0
  180.3290   14.3330   42.5010 C   0  0  0  0  0  0  0  0  0  0  0  0
  181.1880   16.1160   41.0500 C   0  0  0  0  0  0  0  0  0  0  0  0
  182.6880   15.0040   42.7780 C   0  0  0  0  0  0  0  0  0  0  0  0
  180.8859   13.9761   46.6226 H   0  0  0  0  0  0  0  0  0  0  0  0
  180.5349   13.0887   45.1007 H   0  0  0  0  0  0  0  0  0  0  0  0
  181.7212   14.4376   45.1007 H   0  0  0  0  0  0  0  0  0  0  0  0
  179.0250   14.6292   44.4241 H   0  0  0  0  0  0  0  0  0  0  0  0
  179.0872   15.2235   46.1412 H   0  0  0  0  0  0  0  0  0  0  0  0
  179.3262   17.2664   46.5456 H   0  0  0  0  0  0  0  0  0  0  0  0
  176.1543   20.9203   46.4640 H   0  0  0  0  0  0  0  0  0  0  0  0
  175.2368   22.7506   47.8919 H   0  0  0  0  0  0  0  0  0  0  0  0
  176.7643   24.0869   49.3459 H   0  0  0  0  0  0  0  0  0  0  0  0
  180.2460   23.7170   49.4960 H   0  0  0  0  0  0  0  0  0  0  0  0
  182.8770   20.8480   47.4180 H   0  0  0  0  0  0  0  0  0  0  0  0
  181.3442   20.0514   43.9751 H   0  0  0  0  0  0  0  0  0  0  0  0
  181.8623   18.2171   42.4037 H   0  0  0  0  0  0  0  0  0  0  0  0
  180.1090   14.0472   43.5402 H   0  0  0  0  0  0  0  0  0  0  0  0
  179.3918   14.5880   41.9846 H   0  0  0  0  0  0  0  0  0  0  0  0
  180.8152   13.4922   41.9846 H   0  0  0  0  0  0  0  0  0  0  0  0
  181.0082   17.2008   41.0813 H   0  0  0  0  0  0  0  0  0  0  0  0
  182.1316   15.9159   40.5212 H   0  0  0  0  0  0  0  0  0  0  0  0
  180.3595   15.6221   40.5212 H   0  0  0  0  0  0  0  0  0  0  0  0
  182.8442   14.9416   43.8651 H   0  0  0  0  0  0  0  0  0  0  0  0
  182.7785   14.0006   42.3363 H   0  0  0  0  0  0  0  0  0  0  0  0
  183.4451   15.6687   42.3363 H   0  0  0  0  0  0  0  0  0  0  0  0
  1  2  1  0
  2  3  1  0
  3  4  2  0
  4  5  1  0
  5  6  1  0
  6  7  1  0
  7  8  1  0
  8  9  2  0
  9 10  1  0
 10 11  2  0
 11 12  1  0
 12 13  1  0
 12 14  2  0
 14 15  1  0
 15 16  2  0
 15 17  1  0
 17 18  1  0
  5 19  2  0
 19 20  1  0
 20 21  2  0
 21 22  1  0
 22 23  1  0
 22 24  1  0
 22 25  1  0
 21  3  1  0
 17  6  2  0
 14  8  1  0
  1 26  1  0
  1 27  1  0
  1 28  1  0
  2 29  1  0
  2 30  1  0
  4 31  1  0
  9 32  1  0
 10 33  1  0
 11 34  1  0
 13 35  1  0
 18 36  1  0
 19 37  1  0
 20 38  1  0
 23 39  1  0
 23 40  1  0
 23 41  1  0
 24 42  1  0
 24 43  1  0
 24 44  1  0
 25 45  1  0
 25 46  1  0
 25 47  1  0
M  END
>  <meeko>  (1) 
{"is_sidechain": [false], "free_energy": -7.626, "intermolecular_energy": -9.41, "internal_energy": 0.465}

$$$$
cand_038_out
     RDKit          3D

 47 49  0  0  0  0  0  0  0  0999 V2000
  175.0330   18.1990   46.7800 C   0  0  0  0  0  0  0  0  0  0  0  0
  175.2370   19.6150   47.3070 C   0  0  0  0  0  0  0  0  0  0  0  0
  176.6940   20.0310   47.2960 C   0  0  0  0  0  0  0  0  0  0  0  0
  177.5340   19.1830   46.5240 C   0  0  0  0  0  0  0  0  0  0  0  0
  178.9050   19.4040   46.3740 C   0  0  0  0  0  0  0  0  0  0  0  0
  179.7690   18.5010   45.5860 C   0  0  0  0  0  0  0  0  0  0  0  0
  179.2880   17.1970   45.5410 O   0  0  0  0  0  0  0  0  0  0  0  0
  179.9940   16.2540   44.8410 C   0  0  0  0  0  0  0  0  0  0  0  0
  179.4670   14.9610   44.8100 C   0  0  0  0  0  0  0  0  0  0  0  0
  180.1380   13.9510   44.1170 C   0  0  0  0  0  0  0  0  0  0  0  0
  181.3350   14.2330   43.4540 C   0  0  0  0  0  0  0  0  0  0  0  0
  181.8590   15.5230   43.4870 C   0  0  0  0  0  0  0  0  0  0  0  0
  183.0340   15.7290   42.8180 O   0  0  0  0  0  0  0  0  0  0  0  0
  181.1870   16.5330   44.1810 C   0  0  0  0  0  0  0  0  0  0  0  0
  181.7020   17.9020   44.2400 C   0  0  0  0  0  0  0  0  0  0  0  0
  182.7520   18.2260   43.6890 O   0  0  0  0  0  0  0  0  0  0  0  0
  180.9110   18.9000   44.9950 C   0  0  0  0  0  0  0  0  0  0  0  0
  181.4140   20.1870   45.0550 O   0  0  0  0  0  0  0  0  0  0  0  0
  179.4530   20.4960   47.0370 C   0  0  0  0  0  0  0  0  0  0  0  0
  178.6470   21.3450   47.8070 C   0  0  0  0  0  0  0  0  0  0  0  0
  177.2510   21.1550   47.9610 C   0  0  0  0  0  0  0  0  0  0  0  0
  176.4580   22.1510   48.8520 C   0  0  0  0  0  0  0  0  0  0  0  0
  175.1270   22.6410   48.2090 C   0  0  0  0  0  0  0  0  0  0  0  0
  176.0290   21.5200   50.1960 C   0  0  0  0  0  0  0  0  0  0  0  0
  177.2960   23.4270   49.0870 C   0  0  0  0  0  0  0  0  0  0  0  0
  174.9328   17.5036   47.6264 H   0  0  0  0  0  0  0  0  0  0  0  0
  174.1205   18.1639   46.1667 H   0  0  0  0  0  0  0  0  0  0  0  0
  175.8985   17.9078   46.1667 H   0  0  0  0  0  0  0  0  0  0  0  0
  174.6657   20.3123   46.6766 H   0  0  0  0  0  0  0  0  0  0  0  0
  174.8895   19.6379   48.3504 H   0  0  0  0  0  0  0  0  0  0  0  0
  177.0841   18.3137   46.0222 H   0  0  0  0  0  0  0  0  0  0  0  0
  178.5242   14.7383   45.3310 H   0  0  0  0  0  0  0  0  0  0  0  0
  179.7236   12.9323   44.0932 H   0  0  0  0  0  0  0  0  0  0  0  0
  181.8626   13.4377   42.9070 H   0  0  0  0  0  0  0  0  0  0  0  0
  183.0280   16.1350   41.9740 H   0  0  0  0  0  0  0  0  0  0  0  0
  181.6000   20.6540   44.2650 H   0  0  0  0  0  0  0  0  0  0  0  0
  180.5317   20.6959   46.9562 H   0  0  0  0  0  0  0  0  0  0  0  0
  179.1196   22.1983   48.3154 H   0  0  0  0  0  0  0  0  0  0  0  0
  174.4118   22.9043   49.0022 H   0  0  0  0  0  0  0  0  0  0  0  0
  175.3248   23.5252   47.5853 H   0  0  0  0  0  0  0  0  0  0  0  0
  174.7042   21.8396   47.5853 H   0  0  0  0  0  0  0  0  0  0  0  0
  176.4343   22.1161   51.0269 H   0  0  0  0  0  0  0  0  0  0  0  0
  174.9309   21.5023   50.2589 H   0  0  0  0  0  0  0  0  0  0  0  0
  176.4164   20.4924   50.2589 H   0  0  0  0  0  0  0  0  0  0  0  0
  177.4083   23.5980   50.1678 H   0  0  0  0  0  0  0  0  0  0  0  0
  178.2890   23.3028   48.6303 H   0  0  0  0  0  0  0  0  0  0  0  0
  176.7875   24.2889   48.6303 H   0  0  0  0  0  0  0  0  0  0  0  0
  1  2  1  0
  2  3  1  0
  3  4  2  0
  4  5  1  0
  5  6  1  0
  6  7  1  0
  7  8  1  0
  8  9  2  0
  9 10  1  0
 10 11  2  0
 11 12  1  0
 12 13  1  0
 12 14  2  0
 14 15  1  0
 15 16  2  0
 15 17  1  0
 17 18  1  0
  5 19  2  0
 19 20  1  0
 20 21  2  0
 21 22  1  0
 22 23  1  0
 22 24  1  0
 22 25  1  0
 21  3  1  0
 17  6  2  0
 14  8  1  0
  1 26  1  0
  1 27  1  0
  1 28  1  0
  2 29  1  0
  2 30  1  0
  4 31  1  0
  9 32  1  0
 10 33  1  0
 11 34  1  0
 13 35  1  0
 18 36  1  0
 19 37  1  0
 20 38  1  0
 23 39  1  0
 23 40  1  0
 23 41  1  0
 24 42  1  0
 24 43  1  0
 24 44  1  0
 25 45  1  0
 25 46  1  0
 25 47  1  0
M  END
>  <meeko>  (2) 
{"is_sidechain": [false], "free_energy": -6.936, "intermolecular_energy": -8.137, "internal_energy": 0.044}

$$$$
cand_038_out
     RDKit          3D

 47 49  0  0  0  0  0  0  0  0999 V2000
  178.8400   23.6710   47.2820 C   0  0  0  0  0  0  0  0  0  0  0  0
  178.8270   22.5520   48.3190 C   0  0  0  0  0  0  0  0  0  0  0  0
  178.1810   21.2870   47.7930 C   0  0  0  0  0  0  0  0  0  0  0  0
  179.0530   20.4640   47.0280 C   0  0  0  0  0  0  0  0  0  0  0  0
  178.6530   19.2470   46.4700 C   0  0  0  0  0  0  0  0  0  0  0  0
  179.5650   18.4140   45.6590 C   0  0  0  0  0  0  0  0  0  0  0  0
  179.1530   17.0890   45.5730 O   0  0  0  0  0  0  0  0  0  0  0  0
  179.9090   16.2050   44.8480 C   0  0  0  0  0  0  0  0  0  0  0  0
  179.4500   14.8880   44.7770 C   0  0  0  0  0  0  0  0  0  0  0  0
  180.1750   13.9360   44.0560 C   0  0  0  0  0  0  0  0  0  0  0  0
  181.3570   14.3000   43.4070 C   0  0  0  0  0  0  0  0  0  0  0  0
  181.8130   15.6140   43.4810 C   0  0  0  0  0  0  0  0  0  0  0  0
  182.9780   15.9010   42.8240 O   0  0  0  0  0  0  0  0  0  0  0  0
  181.0870   16.5660   44.2020 C   0  0  0  0  0  0  0  0  0  0  0  0
  181.5300   17.9570   44.3040 C   0  0  0  0  0  0  0  0  0  0  0  0
  182.5630   18.3520   43.7670 O   0  0  0  0  0  0  0  0  0  0  0  0
  180.6850   18.8900   45.0850 C   0  0  0  0  0  0  0  0  0  0  0  0
  181.1210   20.1990   45.1850 O   0  0  0  0  0  0  0  0  0  0  0  0
  177.3340   18.8560   46.6660 C   0  0  0  0  0  0  0  0  0  0  0  0
  176.4550   19.6510   47.4130 C   0  0  0  0  0  0  0  0  0  0  0  0
  176.8370   20.8790   48.0060 C   0  0  0  0  0  0  0  0  0  0  0  0
  175.7730   21.6860   48.8020 C   0  0  0  0  0  0  0  0  0  0  0  0
  176.0590   23.2160   48.8520 C   0  0  0  0  0  0  0  0  0  0  0  0
  174.3650   21.5760   48.1730 C   0  0  0  0  0  0  0  0  0  0  0  0
  175.7560   21.2220   50.2740 C   0  0  0  0  0  0  0  0  0  0  0  0
  178.8513   24.6448   47.7935 H   0  0  0  0  0  0  0  0  0  0  0  0
  179.7371   23.5771   46.6524 H   0  0  0  0  0  0  0  0  0  0  0  0
  177.9409   23.5979   46.6524 H   0  0  0  0  0  0  0  0  0  0  0  0
  179.8640   22.3257   48.6079 H   0  0  0  0  0  0  0  0  0  0  0  0
  178.2361   22.8983   49.1797 H   0  0  0  0  0  0  0  0  0  0  0  0
  180.0881   20.8004   46.8686 H   0  0  0  0  0  0  0  0  0  0  0  0
  178.5192   14.6007   45.2879 H   0  0  0  0  0  0  0  0  0  0  0  0
  179.8145   12.8983   43.9994 H   0  0  0  0  0  0  0  0  0  0  0  0
  181.9268   13.5503   42.8384 H   0  0  0  0  0  0  0  0  0  0  0  0
  183.3690   16.7470   42.9120 H   0  0  0  0  0  0  0  0  0  0  0  0
  180.6940   20.7900   45.7730 H   0  0  0  0  0  0  0  0  0  0  0  0
  176.9761   17.9118   46.2298 H   0  0  0  0  0  0  0  0  0  0  0  0
  175.4192   19.3051   47.5452 H   0  0  0  0  0  0  0  0  0  0  0  0
  176.1202   23.5435   49.9003 H   0  0  0  0  0  0  0  0  0  0  0  0
  177.0123   23.4276   48.3455 H   0  0  0  0  0  0  0  0  0  0  0  0
  175.2466   23.7576   48.3455 H   0  0  0  0  0  0  0  0  0  0  0  0
  173.6104   21.5170   48.9712 H   0  0  0  0  0  0  0  0  0  0  0  0
  174.1714   22.4618   47.5501 H   0  0  0  0  0  0  0  0  0  0  0  0
  174.3114   20.6709   47.5501 H   0  0  0  0  0  0  0  0  0  0  0  0
  175.7882   22.1002   50.9357 H   0  0  0  0  0  0  0  0  0  0  0  0
  174.8363   20.6505   50.4677 H   0  0  0  0  0  0  0  0  0  0  0  0
  176.6314   20.5847   50.4677 H   0  0  0  0  0  0  0  0  0  0  0  0
  1  2  1  0
  2  3  1  0
  3  4  2  0
  4  5  1  0
  5  6  1  0
  6  7  1  0
  7  8  1  0
  8  9  2  0
  9 10  1  0
 10 11  2  0
 11 12  1  0
 12 13  1  0
 12 14  2  0
 14 15  1  0
 15 16  2  0
 15 17  1  0
 17 18  1  0
  5 19  2  0
 19 20  1  0
 20 21  2  0
 21 22  1  0
 22 23  1  0
 22 24  1  0
 22 25  1  0
 21  3  1  0
 17  6  2  0
 14  8  1  0
  1 26  1  0
  1 27  1  0
  1 28  1  0
  2 29  1  0
  2 30  1  0
  4 31  1  0
  9 32  1  0
 10 33  1  0
 11 34  1  0
 13 35  1  0
 18 36  1  0
 19 37  1  0
 20 38  1  0
 23 39  1  0
 23 40  1  0
 23 41  1  0
 24 42  1  0
 24 43  1  0
 24 44  1  0
 25 45  1  0
 25 46  1  0
 25 47  1  0
M  END
>  <meeko>  (3) 
{"is_sidechain": [false], "free_energy": -6.701, "intermolecular_energy": -8.396, "internal_energy": 0.592}

$$$$
cand_038_out
     RDKit          3D

 47 49  0  0  0  0  0  0  0  0999 V2000
  186.7670   21.3310   43.3340 C   0  0  0  0  0  0  0  0  0  0  0  0
  185.7100   22.4250   43.2320 C   0  0  0  0  0  0  0  0  0  0  0  0
  184.9930   22.6600   44.5460 C   0  0  0  0  0  0  0  0  0  0  0  0
  183.7910   21.9140   44.6940 C   0  0  0  0  0  0  0  0  0  0  0  0
  182.9940   21.9780   45.8390 C   0  0  0  0  0  0  0  0  0  0  0  0
  181.7360   21.2130   45.9680 C   0  0  0  0  0  0  0  0  0  0  0  0
  180.7290   21.9330   46.6030 O   0  0  0  0  0  0  0  0  0  0  0  0
  179.5070   21.3410   46.7870 C   0  0  0  0  0  0  0  0  0  0  0  0
  178.5210   22.1040   47.4150 C   0  0  0  0  0  0  0  0  0  0  0  0
  177.2540   21.5600   47.6370 C   0  0  0  0  0  0  0  0  0  0  0  0
  176.9720   20.2540   47.2310 C   0  0  0  0  0  0  0  0  0  0  0  0
  177.9570   19.4940   46.6050 C   0  0  0  0  0  0  0  0  0  0  0  0
  177.6140   18.2230   46.2340 O   0  0  0  0  0  0  0  0  0  0  0  0
  179.2250   20.0390   46.3840 C   0  0  0  0  0  0  0  0  0  0  0  0
  180.2880   19.2760   45.7290 C   0  0  0  0  0  0  0  0  0  0  0  0
  180.1200   18.1180   45.3500 O   0  0  0  0  0  0  0  0  0  0  0  0
  181.5940   19.9470   45.5340 C   0  0  0  0  0  0  0  0  0  0  0  0
  182.5950   19.2110   44.9270 O   0  0  0  0  0  0  0  0  0  0  0  0
  183.4020   22.8320   46.8560 C   0  0  0  0  0  0  0  0  0  0  0  0
  184.5800   23.5800   46.7330 C   0  0  0  0  0  0  0  0  0  0  0  0
  185.4180   23.5210   45.5920 C   0  0  0  0  0  0  0  0  0  0  0  0
  186.6940   24.4080   45.5580 C   0  0  0  0  0  0  0  0  0  0  0  0
  187.0090   24.9960   44.1510 C   0  0  0  0  0  0  0  0  0  0  0  0
  186.5720   25.6450   46.4760 C   0  0  0  0  0  0  0  0  0  0  0  0
  187.9300   23.5630   45.9360 C   0  0  0  0  0  0  0  0  0  0  0  0
  186.9730   21.1178   44.3933 H   0  0  0  0  0  0  0  0  0  0  0  0
  186.3994   20.4189   42.8411 H   0  0  0  0  0  0  0  0  0  0  0  0
  187.6912   21.6670   42.8411 H   0  0  0  0  0  0  0  0  0  0  0  0
  186.1990   23.3610   42.9241 H   0  0  0  0  0  0  0  0  0  0  0  0
  184.9611   22.1000   42.4948 H   0  0  0  0  0  0  0  0  0  0  0  0
  183.4751   21.2574   43.8699 H   0  0  0  0  0  0  0  0  0  0  0  0
  178.7418   23.1331   47.7348 H   0  0  0  0  0  0  0  0  0  0  0  0
  176.4772   22.1611   48.1323 H   0  0  0  0  0  0  0  0  0  0  0  0
  175.9737   19.8263   47.4053 H   0  0  0  0  0  0  0  0  0  0  0  0
  178.2560   17.6570   45.8530 H   0  0  0  0  0  0  0  0  0  0  0  0
  183.2670   19.6470   44.4410 H   0  0  0  0  0  0  0  0  0  0  0  0
  182.7933   22.9218   47.7678 H   0  0  0  0  0  0  0  0  0  0  0  0
  184.8680   24.2443   47.5611 H   0  0  0  0  0  0  0  0  0  0  0  0
  187.5257   25.9605   44.2640 H   0  0  0  0  0  0  0  0  0  0  0  0
  187.6536   24.2973   43.5975 H   0  0  0  0  0  0  0  0  0  0  0  0
  186.0702   25.1456   43.5975 H   0  0  0  0  0  0  0  0  0  0  0  0
  186.6035   25.3254   47.5281 H   0  0  0  0  0  0  0  0  0  0  0  0
  187.4066   26.3332   46.2767 H   0  0  0  0  0  0  0  0  0  0  0  0
  185.6190   26.1569   46.2767 H   0  0  0  0  0  0  0  0  0  0  0  0
  188.0139   23.5056   47.0313 H   0  0  0  0  0  0  0  0  0  0  0  0
  187.8214   22.5493   45.5230 H   0  0  0  0  0  0  0  0  0  0  0  0
  188.8352   24.0322   45.5230 H   0  0  0  0  0  0  0  0  0  0  0  0
  1  2  1  0
  2  3  1  0
  3  4  2  0
  4  5  1  0
  5  6  1  0
  6  7  1  0
  7  8  1  0
  8  9  2  0
  9 10  1  0
 10 11  2  0
 11 12  1  0
 12 13  1  0
 12 14  2  0
 14 15  1  0
 15 16  2  0
 15 17  1  0
 17 18  1  0
  5 19  2  0
 19 20  1  0
 20 21  2  0
 21 22  1  0
 22 23  1  0
 22 24  1  0
 22 25  1  0
 21  3  1  0
 17  6  2  0
 14  8  1  0
  1 26  1  0
  1 27  1  0
  1 28  1  0
  2 29  1  0
  2 30  1  0
  4 31  1  0
  9 32  1  0
 10 33  1  0
 11 34  1  0
 13 35  1  0
 18 36  1  0
 19 37  1  0
 20 38  1  0
 23 39  1  0
 23 40  1  0
 23 41  1  0
 24 42  1  0
 24 43  1  0
 24 44  1  0
 25 45  1  0
 25 46  1  0
 25 47  1  0
M  END
>  <meeko>  (4) 
{"is_sidechain": [false], "free_energy": -5.758, "intermolecular_energy": -6.542, "internal_energy": -0.099}

$$$$
cand_038_out
     RDKit          3D

 47 49  0  0  0  0  0  0  0  0999 V2000
  181.0390   17.5020   41.0290 C   0  0  0  0  0  0  0  0  0  0  0  0
  181.8520   17.6870   42.3060 C   0  0  0  0  0  0  0  0  0  0  0  0
  181.0410   17.3980   43.5530 C   0  0  0  0  0  0  0  0  0  0  0  0
  180.7820   18.5420   44.3570 C   0  0  0  0  0  0  0  0  0  0  0  0
  180.0390   18.4880   45.5380 C   0  0  0  0  0  0  0  0  0  0  0  0
  179.7970   19.6830   46.3740 C   0  0  0  0  0  0  0  0  0  0  0  0
  178.4610   20.0690   46.3900 O   0  0  0  0  0  0  0  0  0  0  0  0
  178.0970   21.1640   47.1280 C   0  0  0  0  0  0  0  0  0  0  0  0
  176.7440   21.5080   47.1280 C   0  0  0  0  0  0  0  0  0  0  0  0
  176.3050   22.6150   47.8580 C   0  0  0  0  0  0  0  0  0  0  0  0
  177.2190   23.3790   48.5870 C   0  0  0  0  0  0  0  0  0  0  0  0
  178.5680   23.0350   48.5860 C   0  0  0  0  0  0  0  0  0  0  0  0
  179.4080   23.8260   49.3200 O   0  0  0  0  0  0  0  0  0  0  0  0
  179.0060   21.9270   47.8550 C   0  0  0  0  0  0  0  0  0  0  0  0
  180.4150   21.5300   47.8270 C   0  0  0  0  0  0  0  0  0  0  0  0
  181.2800   22.1570   48.4360 O   0  0  0  0  0  0  0  0  0  0  0  0
  180.7750   20.3360   47.0290 C   0  0  0  0  0  0  0  0  0  0  0  0
  182.1110   19.9790   46.9980 O   0  0  0  0  0  0  0  0  0  0  0  0
  179.5600   17.2450   45.9370 C   0  0  0  0  0  0  0  0  0  0  0  0
  179.8050   16.1030   45.1640 C   0  0  0  0  0  0  0  0  0  0  0  0
  180.5390   16.1310   43.9530 C   0  0  0  0  0  0  0  0  0  0  0  0
  180.7620   14.7980   43.1860 C   0  0  0  0  0  0  0  0  0  0  0  0
  179.9510   14.6970   41.8600 C   0  0  0  0  0  0  0  0  0  0  0  0
  182.2350   14.6110   42.7540 C   0  0  0  0  0  0  0  0  0  0  0  0
  180.2880   13.6090   44.0500 C   0  0  0  0  0  0  0  0  0  0  0  0
  179.9968   17.2648   41.2890 H   0  0  0  0  0  0  0  0  0  0  0  0
  181.0676   18.4296   40.4385 H   0  0  0  0  0  0  0  0  0  0  0  0
  181.4662   16.6781   40.4385 H   0  0  0  0  0  0  0  0  0  0  0  0
  182.7136   17.0037   42.2785 H   0  0  0  0  0  0  0  0  0  0  0  0
  182.1730   18.7382   42.3504 H   0  0  0  0  0  0  0  0  0  0  0  0
  181.1851   19.5132   44.0340 H   0  0  0  0  0  0  0  0  0  0  0  0
  176.0237   20.9073   46.5532 H   0  0  0  0  0  0  0  0  0  0  0  0
  175.2387   22.8852   47.8587 H   0  0  0  0  0  0  0  0  0  0  0  0
  176.8735   24.2513   49.1612 H   0  0  0  0  0  0  0  0  0  0  0  0
  179.1790   24.0650   50.1960 H   0  0  0  0  0  0  0  0  0  0  0  0
  182.6690   20.1920   47.7200 H   0  0  0  0  0  0  0  0  0  0  0  0
  178.9827   17.1577   46.8693 H   0  0  0  0  0  0  0  0  0  0  0  0
  179.4085   15.1385   45.5141 H   0  0  0  0  0  0  0  0  0  0  0  0
  178.8840   14.5641   42.0920 H   0  0  0  0  0  0  0  0  0  0  0  0
  180.0872   15.6190   41.2758 H   0  0  0  0  0  0  0  0  0  0  0  0
  180.3091   13.8365   41.2758 H   0  0  0  0  0  0  0  0  0  0  0  0
  182.8717   14.5302   43.6474 H   0  0  0  0  0  0  0  0  0  0  0  0
  182.3274   13.6939   42.1537 H   0  0  0  0  0  0  0  0  0  0  0  0
  182.5537   15.4759   42.1537 H   0  0  0  0  0  0  0  0  0  0  0  0
  180.3903   13.8657   45.1147 H   0  0  0  0  0  0  0  0  0  0  0  0
  179.2337   13.3898   43.8253 H   0  0  0  0  0  0  0  0  0  0  0  0
  180.9023   12.7246   43.8253 H   0  0  0  0  0  0  0  0  0  0  0  0
  1  2  1  0
  2  3  1  0
  3  4  2  0
  4  5  1  0
  5  6  1  0
  6  7  1  0
  7  8  1  0
  8  9  2  0
  9 10  1  0
 10 11  2  0
 11 12  1  0
 12 13  1  0
 12 14  2  0
 14 15  1  0
 15 16  2  0
 15 17  1  0
 17 18  1  0
  5 19  2  0
 19 20  1  0
 20 21  2  0
 21 22  1  0
 22 23  1  0
 22 24  1  0
 22 25  1  0
 21  3  1  0
 17  6  2  0
 14  8  1  0
  1 26  1  0
  1 27  1  0
  1 28  1  0
  2 29  1  0
  2 30  1  0
  4 31  1  0
  9 32  1  0
 10 33  1  0
 11 34  1  0
 13 35  1  0
 18 36  1  0
 19 37  1  0
 20 38  1  0
 23 39  1  0
 23 40  1  0
 23 41  1  0
 24 42  1  0
 24 43  1  0
 24 44  1  0
 25 45  1  0
 25 46  1  0
 25 47  1  0
M  END
>  <meeko>  (5) 
{"is_sidechain": [false], "free_energy": -5.744, "intermolecular_energy": -6.698, "internal_energy": 0.076}

$$$$
cand_038_out
     RDKit          3D

 47 49  0  0  0  0  0  0  0  0999 V2000
  184.9300   25.6440   47.7110 C   0  0  0  0  0  0  0  0  0  0  0  0
  185.4590   24.2130   47.7160 C   0  0  0  0  0  0  0  0  0  0  0  0
  184.8610   23.3740   46.6050 C   0  0  0  0  0  0  0  0  0  0  0  0
  183.5650   22.8650   46.8940 C   0  0  0  0  0  0  0  0  0  0  0  0
  182.8380   22.0830   45.9940 C   0  0  0  0  0  0  0  0  0  0  0  0
  181.5010   21.5440   46.3180 C   0  0  0  0  0  0  0  0  0  0  0  0
  180.6850   22.4710   46.9580 O   0  0  0  0  0  0  0  0  0  0  0  0
  179.4150   22.1010   47.3160 C   0  0  0  0  0  0  0  0  0  0  0  0
  178.6260   23.0670   47.9430 C   0  0  0  0  0  0  0  0  0  0  0  0
  177.3230   22.7550   48.3350 C   0  0  0  0  0  0  0  0  0  0  0  0
  176.8080   21.4780   48.1010 C   0  0  0  0  0  0  0  0  0  0  0  0
  177.5970   20.5160   47.4760 C   0  0  0  0  0  0  0  0  0  0  0  0
  177.0310   19.2860   47.2790 O   0  0  0  0  0  0  0  0  0  0  0  0
  178.9010   20.8290   47.0830 C   0  0  0  0  0  0  0  0  0  0  0  0
  179.7640   19.8480   46.4230 C   0  0  0  0  0  0  0  0  0  0  0  0
  179.3850   18.7010   46.1900 O   0  0  0  0  0  0  0  0  0  0  0  0
  181.1260   20.2810   46.0390 C   0  0  0  0  0  0  0  0  0  0  0  0
  181.9370   19.3410   45.4280 O   0  0  0  0  0  0  0  0  0  0  0  0
  183.4380   21.7840   44.7760 C   0  0  0  0  0  0  0  0  0  0  0  0
  184.7160   22.2700   44.4690 C   0  0  0  0  0  0  0  0  0  0  0  0
  185.4680   23.0800   45.3550 C   0  0  0  0  0  0  0  0  0  0  0  0
  186.8820   23.5510   44.9150 C   0  0  0  0  0  0  0  0  0  0  0  0
  187.3560   22.9290   43.5680 C   0  0  0  0  0  0  0  0  0  0  0  0
  186.9440   25.0770   44.6800 C   0  0  0  0  0  0  0  0  0  0  0  0
  187.9300   23.1130   45.9610 C   0  0  0  0  0  0  0  0  0  0  0  0
  184.8017   25.9911   48.7469 H   0  0  0  0  0  0  0  0  0  0  0  0
  185.6459   26.2977   47.1913 H   0  0  0  0  0  0  0  0  0  0  0  0
  183.9610   25.6749   47.1913 H   0  0  0  0  0  0  0  0  0  0  0  0
  186.5515   24.2395   47.5902 H   0  0  0  0  0  0  0  0  0  0  0  0
  185.1755   23.7532   48.6742 H   0  0  0  0  0  0  0  0  0  0  0  0
  183.1150   23.0977   47.8704 H   0  0  0  0  0  0  0  0  0  0  0  0
  179.0306   24.0730   48.1280 H   0  0  0  0  0  0  0  0  0  0  0  0
  176.7010   23.5160   48.8289 H   0  0  0  0  0  0  0  0  0  0  0  0
  175.7811   21.2328   48.4099 H   0  0  0  0  0  0  0  0  0  0  0  0
  176.3840   18.9670   47.8760 H   0  0  0  0  0  0  0  0  0  0  0  0
  182.7900   19.1650   45.7730 H   0  0  0  0  0  0  0  0  0  0  0  0
  182.9037   21.1591   44.0453 H   0  0  0  0  0  0  0  0  0  0  0  0
  185.1557   22.0104   43.4947 H   0  0  0  0  0  0  0  0  0  0  0  0
  188.0112   22.0692   43.7716 H   0  0  0  0  0  0  0  0  0  0  0  0
  186.4814   22.5949   42.9905 H   0  0  0  0  0  0  0  0  0  0  0  0
  187.9101   23.6836   42.9905 H   0  0  0  0  0  0  0  0  0  0  0  0
  186.9651   25.5967   45.6493 H   0  0  0  0  0  0  0  0  0  0  0  0
  187.8529   25.3238   44.1117 H   0  0  0  0  0  0  0  0  0  0  0  0
  186.0581   25.3968   44.1117 H   0  0  0  0  0  0  0  0  0  0  0  0
  187.5306   23.2799   46.9723 H   0  0  0  0  0  0  0  0  0  0  0  0
  188.1566   22.0449   45.8279 H   0  0  0  0  0  0  0  0  0  0  0  0
  188.8493   23.7022   45.8279 H   0  0  0  0  0  0  0  0  0  0  0  0
  1  2  1  0
  2  3  1  0
  3  4  2  0
  4  5  1  0
  5  6  1  0
  6  7  1  0
  7  8  1  0
  8  9  2  0
  9 10  1  0
 10 11  2  0
 11 12  1  0
 12 13  1  0
 12 14  2  0
 14 15  1  0
 15 16  2  0
 15 17  1  0
 17 18  1  0
  5 19  2  0
 19 20  1  0
 20 21  2  0
 21 22  1  0
 22 23  1  0
 22 24  1  0
 22 25  1  0
 21  3  1  0
 17  6  2  0
 14  8  1  0
  1 26  1  0
  1 27  1  0
  1 28  1  0
  2 29  1  0
  2 30  1  0
  4 31  1  0
  9 32  1  0
 10 33  1  0
 11 34  1  0
 13 35  1  0
 18 36  1  0
 19 37  1  0
 20 38  1  0
 23 39  1  0
 23 40  1  0
 23 41  1  0
 24 42  1  0
 24 43  1  0
 24 44  1  0
 25 45  1  0
 25 46  1  0
 25 47  1  0
M  END
>  <meeko>  (6) 
{"is_sidechain": [false], "free_energy": -5.712, "intermolecular_energy": -6.354, "internal_energy": -0.229}

$$$$
cand_038_out
     RDKit          3D

 47 49  0  0  0  0  0  0  0  0999 V2000
  178.1720   23.7340   47.3550 C   0  0  0  0  0  0  0  0  0  0  0  0
  178.8490   22.5760   48.0800 C   0  0  0  0  0  0  0  0  0  0  0  0
  179.7610   21.7800   47.1700 C   0  0  0  0  0  0  0  0  0  0  0  0
  181.0510   22.3520   46.9950 C   0  0  0  0  0  0  0  0  0  0  0  0
  182.0430   21.7630   46.2070 C   0  0  0  0  0  0  0  0  0  0  0  0
  183.3710   22.3810   46.0180 C   0  0  0  0  0  0  0  0  0  0  0  0
  183.9220   22.1080   44.7700 O   0  0  0  0  0  0  0  0  0  0  0  0
  185.1540   22.6220   44.4620 C   0  0  0  0  0  0  0  0  0  0  0  0
  185.6630   22.3350   43.1950 C   0  0  0  0  0  0  0  0  0  0  0  0
  186.9140   22.8260   42.8170 C   0  0  0  0  0  0  0  0  0  0  0  0
  187.6570   23.6050   43.7070 C   0  0  0  0  0  0  0  0  0  0  0  0
  187.1490   23.8900   44.9720 C   0  0  0  0  0  0  0  0  0  0  0  0
  187.9300   24.6560   45.7930 O   0  0  0  0  0  0  0  0  0  0  0  0
  185.8960   23.3980   45.3480 C   0  0  0  0  0  0  0  0  0  0  0  0
  185.3250   23.6740   46.6670 C   0  0  0  0  0  0  0  0  0  0  0  0
  185.9210   24.3450   47.5070 O   0  0  0  0  0  0  0  0  0  0  0  0
  183.9870   23.1130   46.9650 C   0  0  0  0  0  0  0  0  0  0  0  0
  183.4630   23.3690   48.2200 O   0  0  0  0  0  0  0  0  0  0  0  0
  181.7230   20.5760   45.5580 C   0  0  0  0  0  0  0  0  0  0  0  0
  180.4580   19.9940   45.7110 C   0  0  0  0  0  0  0  0  0  0  0  0
  179.4400   20.5590   46.5180 C   0  0  0  0  0  0  0  0  0  0  0  0
  178.0680   19.8340   46.6030 C   0  0  0  0  0  0  0  0  0  0  0  0
  177.4400   19.8500   48.0280 C   0  0  0  0  0  0  0  0  0  0  0  0
  177.0000   20.4960   45.7020 C   0  0  0  0  0  0  0  0  0  0  0  0
  178.2400   18.3420   46.2460 C   0  0  0  0  0  0  0  0  0  0  0  0
  177.7603   24.4382   48.0930 H   0  0  0  0  0  0  0  0  0  0  0  0
  178.9090   24.2529   46.7245 H   0  0  0  0  0  0  0  0  0  0  0  0
  177.3583   23.3463   46.7245 H   0  0  0  0  0  0  0  0  0  0  0  0
  179.4447   22.9798   48.9119 H   0  0  0  0  0  0  0  0  0  0  0  0
  178.0606   21.8990   48.4407 H   0  0  0  0  0  0  0  0  0  0  0  0
  181.2781   23.3009   47.5029 H   0  0  0  0  0  0  0  0  0  0  0  0
  185.0783   21.7216   42.4937 H   0  0  0  0  0  0  0  0  0  0  0  0
  187.3147   22.5993   41.8180 H   0  0  0  0  0  0  0  0  0  0  0  0
  188.6423   23.9929   43.4091 H   0  0  0  0  0  0  0  0  0  0  0  0
  188.3570   24.2670   46.5300 H   0  0  0  0  0  0  0  0  0  0  0  0
  182.5530   23.5760   48.3130 H   0  0  0  0  0  0  0  0  0  0  0  0
  182.4719   20.0881   44.9168 H   0  0  0  0  0  0  0  0  0  0  0  0
  180.2452   19.0546   45.1798 H   0  0  0  0  0  0  0  0  0  0  0  0
  178.2408   19.8296   48.7819 H   0  0  0  0  0  0  0  0  0  0  0  0
  176.8407   20.7637   48.1543 H   0  0  0  0  0  0  0  0  0  0  0  0
  176.7949   18.9680   48.1543 H   0  0  0  0  0  0  0  0  0  0  0  0
  176.2331   20.9714   46.3311 H   0  0  0  0  0  0  0  0  0  0  0  0
  177.4768   21.2572   45.0669 H   0  0  0  0  0  0  0  0  0  0  0  0
  176.5304   19.7304   45.0669 H   0  0  0  0  0  0  0  0  0  0  0  0
  178.3083   17.7494   47.1702 H   0  0  0  0  0  0  0  0  0  0  0  0
  177.3749   18.0039   45.6567 H   0  0  0  0  0  0  0  0  0  0  0  0
  179.1594   18.2096   45.6567 H   0  0  0  0  0  0  0  0  0  0  0  0
  1  2  1  0
  2  3  1  0
  3  4  2  0
  4  5  1  0
  5  6  1  0
  6  7  1  0
  7  8  1  0
  8  9  2  0
  9 10  1  0
 10 11  2  0
 11 12  1  0
 12 13  1  0
 12 14  2  0
 14 15  1  0
 15 16  2  0
 15 17  1  0
 17 18  1  0
  5 19  2  0
 19 20  1  0
 20 21  2  0
 21 22  1  0
 22 23  1  0
 22 24  1  0
 22 25  1  0
 21  3  1  0
 17  6  2  0
 14  8  1  0
  1 26  1  0
  1 27  1  0
  1 28  1  0
  2 29  1  0
  2 30  1  0
  4 31  1  0
  9 32  1  0
 10 33  1  0
 11 34  1  0
 13 35  1  0
 18 36  1  0
 19 37  1  0
 20 38  1  0
 23 39  1  0
 23 40  1  0
 23 41  1  0
 24 42  1  0
 24 43  1  0
 24 44  1  0
 25 45  1  0
 25 46  1  0
 25 47  1  0
M  END
>  <meeko>  (7) 
{"is_sidechain": [false], "free_energy": -5.191, "intermolecular_energy": -5.833, "internal_energy": -0.107}

$$$$
cand_038_out
     RDKit          3D

 47 49  0  0  0  0  0  0  0  0999 V2000
  172.6730   24.0960   54.2900 C   0  0  0  0  0  0  0  0  0  0  0  0
  173.5970   25.1560   53.6980 C   0  0  0  0  0  0  0  0  0  0  0  0
  173.4660   25.2600   52.1920 C   0  0  0  0  0  0  0  0  0  0  0  0
  174.3360   24.3970   51.4710 C   0  0  0  0  0  0  0  0  0  0  0  0
  174.3560   24.3310   50.0760 C   0  0  0  0  0  0  0  0  0  0  0  0
  175.2830   23.4450   49.3420 C   0  0  0  0  0  0  0  0  0  0  0  0
  174.6640   22.2960   48.8610 O   0  0  0  0  0  0  0  0  0  0  0  0
  175.4100   21.3860   48.1590 C   0  0  0  0  0  0  0  0  0  0  0  0
  174.7450   20.2540   47.6820 C   0  0  0  0  0  0  0  0  0  0  0  0
  175.4460   19.2860   46.9610 C   0  0  0  0  0  0  0  0  0  0  0  0
  176.8120   19.4480   46.7160 C   0  0  0  0  0  0  0  0  0  0  0  0
  177.4730   20.5770   47.1930 C   0  0  0  0  0  0  0  0  0  0  0  0
  178.8100   20.6710   46.9190 O   0  0  0  0  0  0  0  0  0  0  0  0
  176.7700   21.5450   47.9150 C   0  0  0  0  0  0  0  0  0  0  0  0
  177.4260   22.7470   48.4330 C   0  0  0  0  0  0  0  0  0  0  0  0
  178.6260   22.9570   48.2660 O   0  0  0  0  0  0  0  0  0  0  0  0
  176.5910   23.7170   49.1780 C   0  0  0  0  0  0  0  0  0  0  0  0
  177.2250   24.8410   49.6750 O   0  0  0  0  0  0  0  0  0  0  0  0
  173.4940   25.1730   49.3830 C   0  0  0  0  0  0  0  0  0  0  0  0
  172.6290   26.0350   50.0710 C   0  0  0  0  0  0  0  0  0  0  0  0
  172.5730   26.1090   51.4840 C   0  0  0  0  0  0  0  0  0  0  0  0
  171.5850   27.1130   52.1390 C   0  0  0  0  0  0  0  0  0  0  0  0
  172.1220   27.7490   53.4560 C   0  0  0  0  0  0  0  0  0  0  0  0
  171.2830   28.3200   51.2220 C   0  0  0  0  0  0  0  0  0  0  0  0
  170.2830   26.3850   52.5350 C   0  0  0  0  0  0  0  0  0  0  0  0
  172.7154   24.1446   55.3881 H   0  0  0  0  0  0  0  0  0  0  0  0
  171.6417   24.2798   53.9544 H   0  0  0  0  0  0  0  0  0  0  0  0
  172.9958   23.0994   53.9544 H   0  0  0  0  0  0  0  0  0  0  0  0
  173.3471   26.1307   54.1425 H   0  0  0  0  0  0  0  0  0  0  0  0
  174.6327   24.8631   53.9253 H   0  0  0  0  0  0  0  0  0  0  0  0
  175.0243   23.7523   52.0373 H   0  0  0  0  0  0  0  0  0  0  0  0
  173.6696   20.1255   47.8744 H   0  0  0  0  0  0  0  0  0  0  0  0
  174.9224   18.3946   46.5852 H   0  0  0  0  0  0  0  0  0  0  0  0
  177.3642   18.6852   46.1474 H   0  0  0  0  0  0  0  0  0  0  0  0
  179.3960   20.0010   47.2090 H   0  0  0  0  0  0  0  0  0  0  0  0
  178.1610   24.8770   49.7040 H   0  0  0  0  0  0  0  0  0  0  0  0
  173.4907   25.1627   48.2831 H   0  0  0  0  0  0  0  0  0  0  0  0
  171.9620   26.6848   49.4855 H   0  0  0  0  0  0  0  0  0  0  0  0
  171.6828   27.2288   54.3200 H   0  0  0  0  0  0  0  0  0  0  0  0
  173.2174   27.6542   53.4889 H   0  0  0  0  0  0  0  0  0  0  0  0
  171.8449   28.8130   53.4889 H   0  0  0  0  0  0  0  0  0  0  0  0
  171.0620   29.2032   51.8393 H   0  0  0  0  0  0  0  0  0  0  0  0
  172.1573   28.5259   50.5870 H   0  0  0  0  0  0  0  0  0  0  0  0
  170.4147   28.0899   50.5870 H   0  0  0  0  0  0  0  0  0  0  0  0
  170.2059   26.3419   53.6315 H   0  0  0  0  0  0  0  0  0  0  0  0
  169.4192   26.9310   52.1279 H   0  0  0  0  0  0  0  0  0  0  0  0
  170.2959   25.3632   52.1279 H   0  0  0  0  0  0  0  0  0  0  0  0
  1  2  1  0
  2  3  1  0
  3  4  2  0
  4  5  1  0
  5  6  1  0
  6  7  1  0
  7  8  1  0
  8  9  2  0
  9 10  1  0
 10 11  2  0
 11 12  1  0
 12 13  1  0
 12 14  2  0
 14 15  1  0
 15 16  2  0
 15 17  1  0
 17 18  1  0
  5 19  2  0
 19 20  1  0
 20 21  2  0
 21 22  1  0
 22 23  1  0
 22 24  1  0
 22 25  1  0
 21  3  1  0
 17  6  2  0
 14  8  1  0
  1 26  1  0
  1 27  1  0
  1 28  1  0
  2 29  1  0
  2 30  1  0
  4 31  1  0
  9 32  1  0
 10 33  1  0
 11 34  1  0
 13 35  1  0
 18 36  1  0
 19 37  1  0
 20 38  1  0
 23 39  1  0
 23 40  1  0
 23 41  1  0
 24 42  1  0
 24 43  1  0
 24 44  1  0
 25 45  1  0
 25 46  1  0
 25 47  1  0
M  END
>  <meeko>  (8) 
{"is_sidechain": [false], "free_energy": -5.142, "intermolecular_energy": -5.446, "internal_energy": -0.434}

$$$$
cand_038_out
     RDKit          3D

 47 49  0  0  0  0  0  0  0  0999 V2000
  178.0460   23.9430   47.5620 C   0  0  0  0  0  0  0  0  0  0  0  0
  178.7240   22.7840   48.2850 C   0  0  0  0  0  0  0  0  0  0  0  0
  179.5360   21.9140   47.3470 C   0  0  0  0  0  0  0  0  0  0  0  0
  180.8620   22.3770   47.1270 C   0  0  0  0  0  0  0  0  0  0  0  0
  181.7740   21.7080   46.3070 C   0  0  0  0  0  0  0  0  0  0  0  0
  183.1420   22.2140   46.0710 C   0  0  0  0  0  0  0  0  0  0  0  0
  183.5080   23.2160   46.9640 O   0  0  0  0  0  0  0  0  0  0  0  0
  184.7550   23.7750   46.8570 C   0  0  0  0  0  0  0  0  0  0  0  0
  185.0870   24.7660   47.7820 C   0  0  0  0  0  0  0  0  0  0  0  0
  186.3400   25.3780   47.7280 C   0  0  0  0  0  0  0  0  0  0  0  0
  187.2630   25.0010   46.7500 C   0  0  0  0  0  0  0  0  0  0  0  0
  186.9290   24.0120   45.8270 C   0  0  0  0  0  0  0  0  0  0  0  0
  187.8790   23.6910   44.8960 O   0  0  0  0  0  0  0  0  0  0  0  0
  185.6750   23.3990   45.8820 C   0  0  0  0  0  0  0  0  0  0  0  0
  185.2840   22.3560   44.9330 C   0  0  0  0  0  0  0  0  0  0  0  0
  186.0370   21.9740   44.0390 O   0  0  0  0  0  0  0  0  0  0  0  0
  183.9350   21.7640   45.0810 C   0  0  0  0  0  0  0  0  0  0  0  0
  183.5720   20.7880   44.1700 O   0  0  0  0  0  0  0  0  0  0  0  0
  181.3350   20.5510   45.6730 C   0  0  0  0  0  0  0  0  0  0  0  0
  180.0320   20.0760   45.8720 C   0  0  0  0  0  0  0  0  0  0  0  0
  179.0920   20.7240   46.7110 C   0  0  0  0  0  0  0  0  0  0  0  0
  177.6680   20.1150   46.8440 C   0  0  0  0  0  0  0  0  0  0  0  0
  177.1560   20.0410   48.3130 C   0  0  0  0  0  0  0  0  0  0  0  0
  176.6020   20.9540   46.1040 C   0  0  0  0  0  0  0  0  0  0  0  0
  177.6710   18.6580   46.3350 C   0  0  0  0  0  0  0  0  0  0  0  0
  177.6347   24.6461   48.3013 H   0  0  0  0  0  0  0  0  0  0  0  0
  178.7824   24.4630   46.9316 H   0  0  0  0  0  0  0  0  0  0  0  0
  177.2319   23.5560   46.9316 H   0  0  0  0  0  0  0  0  0  0  0  0
  179.3933   23.1921   49.0567 H   0  0  0  0  0  0  0  0  0  0  0  0
  177.9355   22.1566   48.7262 H   0  0  0  0  0  0  0  0  0  0  0  0
  181.1843   23.3035   47.6247 H   0  0  0  0  0  0  0  0  0  0  0  0
  184.3615   25.0644   48.5531 H   0  0  0  0  0  0  0  0  0  0  0  0
  186.6012   26.1590   48.4573 H   0  0  0  0  0  0  0  0  0  0  0  0
  188.2507   25.4834   46.7085 H   0  0  0  0  0  0  0  0  0  0  0  0
  187.7190   23.8590   43.9880 H   0  0  0  0  0  0  0  0  0  0  0  0
  183.9980   20.7450   43.3370 H   0  0  0  0  0  0  0  0  0  0  0  0
  182.0182   20.0026   45.0079 H   0  0  0  0  0  0  0  0  0  0  0  0
  179.7243   19.1566   45.3523 H   0  0  0  0  0  0  0  0  0  0  0  0
  178.0036   20.1635   49.0033 H   0  0  0  0  0  0  0  0  0  0  0  0
  176.4229   20.8425   48.4866 H   0  0  0  0  0  0  0  0  0  0  0  0
  176.6799   19.0647   48.4866 H   0  0  0  0  0  0  0  0  0  0  0  0
  175.9588   21.4602   46.8389 H   0  0  0  0  0  0  0  0  0  0  0  0
  177.0997   21.7053   45.4732 H   0  0  0  0  0  0  0  0  0  0  0  0
  175.9887   20.2937   45.4732 H   0  0  0  0  0  0  0  0  0  0  0  0
  177.6724   17.9698   47.1931 H   0  0  0  0  0  0  0  0  0  0  0  0
  176.7732   18.4810   45.7245 H   0  0  0  0  0  0  0  0  0  0  0  0
  178.5695   18.4847   45.7245 H   0  0  0  0  0  0  0  0  0  0  0  0
  1  2  1  0
  2  3  1  0
  3  4  2  0
  4  5  1  0
  5  6  1  0
  6  7  1  0
  7  8  1  0
  8  9  2  0
  9 10  1  0
 10 11  2  0
 11 12  1  0
 12 13  1  0
 12 14  2  0
 14 15  1  0
 15 16  2  0
 15 17  1  0
 17 18  1  0
  5 19  2  0
 19 20  1  0
 20 21  2  0
 21 22  1  0
 22 23  1  0
 22 24  1  0
 22 25  1  0
 21  3  1  0
 17  6  2  0
 14  8  1  0
  1 26  1  0
  1 27  1  0
  1 28  1  0
  2 29  1  0
  2 30  1  0
  4 31  1  0
  9 32  1  0
 10 33  1  0
 11 34  1  0
 13 35  1  0
 18 36  1  0
 19 37  1  0
 20 38  1  0
 23 39  1  0
 23 40  1  0
 23 41  1  0
 24 42  1  0
 24 43  1  0
 24 44  1  0
 25 45  1  0
 25 46  1  0
 25 47  1  0
M  END
>  <meeko>  (9) 
{"is_sidechain": [false], "free_energy": -5.088, "intermolecular_energy": -5.906, "internal_energy": 0.093}

$$$$
