cand_047_out
     RDKit          3D

 38 40  0  0  0  0  0  0  0  0999 V2000
  179.9420   14.3500   44.8280 C   0  0  0  0  0  0  0  0  0  0  0  0
  180.4130   15.7610   44.6040 C   0  0  0  0  0  0  0  0  0  0  0  0
  179.9200   16.7790   45.4420 C   0  0  0  0  0  0  0  0  0  0  0  0
  180.3120   18.1170   45.2850 C   0  0  0  0  0  0  0  0  0  0  0  0
  179.7790   19.1910   46.1500 C   0  0  0  0  0  0  0  0  0  0  0  0
  178.3900   19.2460   46.1490 O   0  0  0  0  0  0  0  0  0  0  0  0
  177.7640   20.1970   46.9130 C   0  0  0  0  0  0  0  0  0  0  0  0
  176.3690   20.2070   46.8940 C   0  0  0  0  0  0  0  0  0  0  0  0
  175.6690   21.1520   47.6490 C   0  0  0  0  0  0  0  0  0  0  0  0
  176.3630   22.0870   48.4180 C   0  0  0  0  0  0  0  0  0  0  0  0
  177.7560   22.0760   48.4340 C   0  0  0  0  0  0  0  0  0  0  0  0
  178.3720   23.0190   49.2080 O   0  0  0  0  0  0  0  0  0  0  0  0
  178.4550   21.1290   47.6800 C   0  0  0  0  0  0  0  0  0  0  0  0
  179.9190   21.0830   47.6690 C   0  0  0  0  0  0  0  0  0  0  0  0
  180.6000   21.8770   48.3140 O   0  0  0  0  0  0  0  0  0  0  0  0
  180.5640   20.0360   46.8430 C   0  0  0  0  0  0  0  0  0  0  0  0
  181.9470   20.0090   46.8290 O   0  0  0  0  0  0  0  0  0  0  0  0
  181.2000   18.4320   44.2520 C   0  0  0  0  0  0  0  0  0  0  0  0
  181.6940   17.4340   43.4070 C   0  0  0  0  0  0  0  0  0  0  0  0
  181.3060   16.0940   43.5680 C   0  0  0  0  0  0  0  0  0  0  0  0
  181.8940   15.0590   42.6370 C   0  0  0  0  0  0  0  0  0  0  0  0
  181.3160   15.1550   41.2340 C   0  0  0  0  0  0  0  0  0  0  0  0
  179.9820   15.4120   41.3290 F   0  0  0  0  0  0  0  0  0  0  0  0
  179.8761   14.1526   45.9081 H   0  0  0  0  0  0  0  0  0  0  0  0
  178.9508   14.2172   44.3698 H   0  0  0  0  0  0  0  0  0  0  0  0
  180.6547   13.6485   44.3698 H   0  0  0  0  0  0  0  0  0  0  0  0
  179.2093   16.5188   46.2403 H   0  0  0  0  0  0  0  0  0  0  0  0
  175.8210   19.4723   46.2858 H   0  0  0  0  0  0  0  0  0  0  0  0
  174.5691   21.1588   47.6371 H   0  0  0  0  0  0  0  0  0  0  0  0
  175.8111   22.8315   49.0106 H   0  0  0  0  0  0  0  0  0  0  0  0
  178.7860   22.7680   50.0110 H   0  0  0  0  0  0  0  0  0  0  0  0
  182.4290   20.3500   47.5560 H   0  0  0  0  0  0  0  0  0  0  0  0
  181.5131   19.4759   44.1027 H   0  0  0  0  0  0  0  0  0  0  0  0
  182.3968   17.7022   42.6044 H   0  0  0  0  0  0  0  0  0  0  0  0
  182.9824   15.2086   42.5829 H   0  0  0  0  0  0  0  0  0  0  0  0
  181.6463   14.0648   43.0373 H   0  0  0  0  0  0  0  0  0  0  0  0
  181.8117   15.9686   40.6841 H   0  0  0  0  0  0  0  0  0  0  0  0
  181.4786   14.2096   40.6957 H   0  0  0  0  0  0  0  0  0  0  0  0
  1  2  1  0
  2  3  2  0
  3  4  1  0
  4  5  1  0
  5  6  1  0
  6  7  1  0
  7  8  2  0
  8  9  1  0
  9 10  2  0
 10 11  1  0
 11 12  1  0
 11 13  2  0
 13 14  1  0
 14 15  2  0
 14 16  1  0
 16 17  1  0
  4 18  2  0
 18 19  1  0
 19 20  2  0
 20 21  1  0
 21 22  1  0
 22 23  1  0
 20  2  1  0
 16  5  2  0
 13  7  1  0
  1 24  1  0
  1 25  1  0
  1 26  1  0
  3 27  1  0
  8 28  1  0
  9 29  1  0
 10 30  1  0
 12 31  1  0
 17 32  1  0
 18 33  1  0
 19 34  1  0
 21 35  1  0
 21 36  1  0
 22 37  1  0
 22 38  1  0
M  END
>  <meeko>  (1) 
{"is_sidechain": [false], "free_energy": -8.526, "intermolecular_energy": -10.52, "internal_energy": -0.442}

$$$$
cand_047_out
     RDKit          3D

 38 40  0  0  0  0  0  0  0  0999 V2000
  175.1730   20.7510   46.9610 C   0  0  0  0  0  0  0  0  0  0  0  0
  176.6580   20.6800   47.1950 C   0  0  0  0  0  0  0  0  0  0  0  0
  177.4240   19.7940   46.4140 C   0  0  0  0  0  0  0  0  0  0  0  0
  178.8110   19.6730   46.5840 C   0  0  0  0  0  0  0  0  0  0  0  0
  179.6140   18.7280   45.7800 C   0  0  0  0  0  0  0  0  0  0  0  0
  179.1200   17.4290   45.8180 O   0  0  0  0  0  0  0  0  0  0  0  0
  179.7710   16.4510   45.1130 C   0  0  0  0  0  0  0  0  0  0  0  0
  179.2310   15.1650   45.1670 C   0  0  0  0  0  0  0  0  0  0  0  0
  179.8470   14.1210   44.4720 C   0  0  0  0  0  0  0  0  0  0  0  0
  181.0020   14.3620   43.7250 C   0  0  0  0  0  0  0  0  0  0  0  0
  181.5390   15.6460   43.6730 C   0  0  0  0  0  0  0  0  0  0  0  0
  182.6710   15.8130   42.9250 O   0  0  0  0  0  0  0  0  0  0  0  0
  180.9210   16.6900   44.3680 C   0  0  0  0  0  0  0  0  0  0  0  0
  181.4530   18.0540   44.3400 C   0  0  0  0  0  0  0  0  0  0  0  0
  182.4690   18.3440   43.7120 O   0  0  0  0  0  0  0  0  0  0  0  0
  180.7200   19.0910   45.1030 C   0  0  0  0  0  0  0  0  0  0  0  0
  181.2380   20.3730   45.0810 O   0  0  0  0  0  0  0  0  0  0  0  0
  179.4290   20.4440   47.5730 C   0  0  0  0  0  0  0  0  0  0  0  0
  178.6820   21.3240   48.3610 C   0  0  0  0  0  0  0  0  0  0  0  0
  177.2950   21.4500   48.1870 C   0  0  0  0  0  0  0  0  0  0  0  0
  176.5470   22.4360   49.0550 C   0  0  0  0  0  0  0  0  0  0  0  0
  176.9040   23.8760   48.7260 C   0  0  0  0  0  0  0  0  0  0  0  0
  177.1330   23.9730   47.3870 F   0  0  0  0  0  0  0  0  0  0  0  0
  174.6501   20.7760   47.9285 H   0  0  0  0  0  0  0  0  0  0  0  0
  174.9346   21.6616   46.3917 H   0  0  0  0  0  0  0  0  0  0  0  0
  174.8488   19.8673   46.3917 H   0  0  0  0  0  0  0  0  0  0  0  0
  176.9220   19.1810   45.6510 H   0  0  0  0  0  0  0  0  0  0  0  0
  178.3218   14.9737   45.7559 H   0  0  0  0  0  0  0  0  0  0  0  0
  179.4214   13.1075   44.5134 H   0  0  0  0  0  0  0  0  0  0  0  0
  181.4867   13.5394   43.1788 H   0  0  0  0  0  0  0  0  0  0  0  0
  182.6030   16.0510   42.0210 H   0  0  0  0  0  0  0  0  0  0  0  0
  180.7220   21.0800   44.7460 H   0  0  0  0  0  0  0  0  0  0  0  0
  180.5139   20.3572   47.7326 H   0  0  0  0  0  0  0  0  0  0  0  0
  179.1887   21.9268   49.1290 H   0  0  0  0  0  0  0  0  0  0  0  0
  175.4669   22.2948   48.9016 H   0  0  0  0  0  0  0  0  0  0  0  0
  176.8306   22.2482   50.1011 H   0  0  0  0  0  0  0  0  0  0  0  0
  176.0718   24.5377   49.0083 H   0  0  0  0  0  0  0  0  0  0  0  0
  177.8036   24.1763   49.2833 H   0  0  0  0  0  0  0  0  0  0  0  0
  1  2  1  0
  2  3  2  0
  3  4  1  0
  4  5  1  0
  5  6  1  0
  6  7  1  0
  7  8  2  0
  8  9  1  0
  9 10  2  0
 10 11  1  0
 11 12  1  0
 11 13  2  0
 13 14  1  0
 14 15  2  0
 14 16  1  0
 16 17  1  0
  4 18  2  0
 18 19  1  0
 19 20  2  0
 20 21  1  0
 21 22  1  0
 22 23  1  0
 20  2  1  0
 16  5  2  0
 13  7  1  0
  1 24  1  0
  1 25  1  0
  1 26  1  0
  3 27  1  0
  8 28  1  0
  9 29  1  0
 10 30  1  0
 12 31  1  0
 17 32  1  0
 18 33  1  0
 19 34  1  0
 21 35  1  0
 21 36  1  0
 22 37  1  0
 22 38  1  0
M  END
>  <meeko>  (2) 
{"is_sidechain": [false], "free_energy": -7.293, "intermolecular_energy": -9.053, "internal_energy": -0.387}

$$$$
cand_047_out
     RDKit          3D

 38 40  0  0  0  0  0  0  0  0999 V2000
  179.6800   14.7820   45.1910 C   0  0  0  0  0  0  0  0  0  0  0  0
  179.9390   16.2570   45.0560 C   0  0  0  0  0  0  0  0  0  0  0  0
  179.1030   17.1570   45.7460 C   0  0  0  0  0  0  0  0  0  0  0  0
  179.2850   18.5450   45.6590 C   0  0  0  0  0  0  0  0  0  0  0  0
  178.3940   19.4910   46.3650 C   0  0  0  0  0  0  0  0  0  0  0  0
  179.0560   20.6330   46.8020 O   0  0  0  0  0  0  0  0  0  0  0  0
  178.3460   21.5950   47.4710 C   0  0  0  0  0  0  0  0  0  0  0  0
  179.0460   22.7310   47.8790 C   0  0  0  0  0  0  0  0  0  0  0  0
  178.3830   23.7500   48.5670 C   0  0  0  0  0  0  0  0  0  0  0  0
  177.0200   23.6310   48.8490 C   0  0  0  0  0  0  0  0  0  0  0  0
  176.3230   22.4970   48.4430 C   0  0  0  0  0  0  0  0  0  0  0  0
  174.9930   22.4440   48.7520 O   0  0  0  0  0  0  0  0  0  0  0  0
  176.9880   21.4790   47.7530 C   0  0  0  0  0  0  0  0  0  0  0  0
  176.2930   20.2690   47.3080 C   0  0  0  0  0  0  0  0  0  0  0  0
  175.0970   20.0880   47.5250 O   0  0  0  0  0  0  0  0  0  0  0  0
  177.0860   19.2530   46.5770 C   0  0  0  0  0  0  0  0  0  0  0  0
  176.4230   18.1090   46.1720 O   0  0  0  0  0  0  0  0  0  0  0  0
  180.3130   19.0320   44.8480 C   0  0  0  0  0  0  0  0  0  0  0  0
  181.1490   18.1530   44.1520 C   0  0  0  0  0  0  0  0  0  0  0  0
  180.9710   16.7630   44.2430 C   0  0  0  0  0  0  0  0  0  0  0  0
  181.9220   15.8660   43.4840 C   0  0  0  0  0  0  0  0  0  0  0  0
  181.3800   15.4810   42.1170 C   0  0  0  0  0  0  0  0  0  0  0  0
  181.1190   14.1450   42.1120 F   0  0  0  0  0  0  0  0  0  0  0  0
  179.6329   14.5140   46.2568 H   0  0  0  0  0  0  0  0  0  0  0  0
  178.7242   14.5318   44.7075 H   0  0  0  0  0  0  0  0  0  0  0  0
  180.4934   14.2211   44.7075 H   0  0  0  0  0  0  0  0  0  0  0  0
  178.2871   16.7612   46.3686 H   0  0  0  0  0  0  0  0  0  0  0  0
  180.1197   22.8241   47.6589 H   0  0  0  0  0  0  0  0  0  0  0  0
  178.9344   24.6465   48.8868 H   0  0  0  0  0  0  0  0  0  0  0  0
  176.4981   24.4330   49.3915 H   0  0  0  0  0  0  0  0  0  0  0  0
  174.4830   23.2310   48.7600 H   0  0  0  0  0  0  0  0  0  0  0  0
  176.8590   17.2810   46.2030 H   0  0  0  0  0  0  0  0  0  0  0  0
  180.4664   20.1174   44.7560 H   0  0  0  0  0  0  0  0  0  0  0  0
  181.9574   18.5562   43.5244 H   0  0  0  0  0  0  0  0  0  0  0  0
  182.8773   16.3948   43.3503 H   0  0  0  0  0  0  0  0  0  0  0  0
  182.0539   14.9428   44.0674 H   0  0  0  0  0  0  0  0  0  0  0  0
  180.4543   16.0398   41.9149 H   0  0  0  0  0  0  0  0  0  0  0  0
  182.1195   15.7216   41.3390 H   0  0  0  0  0  0  0  0  0  0  0  0
  1  2  1  0
  2  3  2  0
  3  4  1  0
  4  5  1  0
  5  6  1  0
  6  7  1  0
  7  8  2  0
  8  9  1  0
  9 10  2  0
 10 11  1  0
 11 12  1  0
 11 13  2  0
 13 14  1  0
 14 15  2  0
 14 16  1  0
 16 17  1  0
  4 18  2  0
 18 19  1  0
 19 20  2  0
 20 21  1  0
 21 22  1  0
 22 23  1  0
 20  2  1  0
 16  5  2  0
 13  7  1  0
  1 24  1  0
  1 25  1  0
  1 26  1  0
  3 27  1  0
  8 28  1  0
  9 29  1  0
 10 30  1  0
 12 31  1  0
 17 32  1  0
 18 33  1  0
 19 34  1  0
 21 35  1  0
 21 36  1  0
 22 37  1  0
 22 38  1  0
M  END
>  <meeko>  (3) 
{"is_sidechain": [false], "free_energy": -6.877, "intermolecular_energy": -8.873, "internal_energy": -0.054}

$$$$
cand_047_out
     RDKit          3D

 38 40  0  0  0  0  0  0  0  0999 V2000
  182.4520   17.3630   42.9810 C   0  0  0  0  0  0  0  0  0  0  0  0
  181.3240   17.1720   43.9570 C   0  0  0  0  0  0  0  0  0  0  0  0
  180.8900   18.2780   44.7140 C   0  0  0  0  0  0  0  0  0  0  0  0
  179.8480   18.1690   45.6460 C   0  0  0  0  0  0  0  0  0  0  0  0
  179.4060   19.3240   46.4570 C   0  0  0  0  0  0  0  0  0  0  0  0
  178.0220   19.4170   46.5570 O   0  0  0  0  0  0  0  0  0  0  0  0
  177.4770   20.4430   47.2840 C   0  0  0  0  0  0  0  0  0  0  0  0
  176.0850   20.4890   47.3700 C   0  0  0  0  0  0  0  0  0  0  0  0
  175.4650   21.5100   48.0940 C   0  0  0  0  0  0  0  0  0  0  0  0
  176.2370   22.4860   48.7290 C   0  0  0  0  0  0  0  0  0  0  0  0
  177.6260   22.4380   48.6410 C   0  0  0  0  0  0  0  0  0  0  0  0
  178.3200   23.4240   49.2860 O   0  0  0  0  0  0  0  0  0  0  0  0
  178.2450   21.4150   47.9170 C   0  0  0  0  0  0  0  0  0  0  0  0
  179.7020   21.3290   47.7990 C   0  0  0  0  0  0  0  0  0  0  0  0
  180.4480   22.1530   48.3240 O   0  0  0  0  0  0  0  0  0  0  0  0
  180.2600   20.2010   47.0170 C   0  0  0  0  0  0  0  0  0  0  0  0
  181.6360   20.1360   46.9010 O   0  0  0  0  0  0  0  0  0  0  0  0
  179.2490   16.9200   45.8310 C   0  0  0  0  0  0  0  0  0  0  0  0
  179.6710   15.8110   45.0930 C   0  0  0  0  0  0  0  0  0  0  0  0
  180.7110   15.9210   44.1550 C   0  0  0  0  0  0  0  0  0  0  0  0
  181.1060   14.6900   43.3720 C   0  0  0  0  0  0  0  0  0  0  0  0
  180.5490   14.7060   41.9580 C   0  0  0  0  0  0  0  0  0  0  0  0
  181.5600   14.4280   41.0880 F   0  0  0  0  0  0  0  0  0  0  0  0
  183.3907   17.5219   43.5320 H   0  0  0  0  0  0  0  0  0  0  0  0
  182.5452   16.4678   42.3485 H   0  0  0  0  0  0  0  0  0  0  0  0
  182.2453   18.2389   42.3485 H   0  0  0  0  0  0  0  0  0  0  0  0
  181.3810   19.2518   44.5703 H   0  0  0  0  0  0  0  0  0  0  0  0
  175.4767   19.7221   46.8682 H   0  0  0  0  0  0  0  0  0  0  0  0
  174.3678   21.5456   48.1643 H   0  0  0  0  0  0  0  0  0  0  0  0
  175.7485   23.2911   49.2976 H   0  0  0  0  0  0  0  0  0  0  0  0
  179.1780   23.2500   49.6210 H   0  0  0  0  0  0  0  0  0  0  0  0
  182.1590   19.9210   47.6480 H   0  0  0  0  0  0  0  0  0  0  0  0
  178.4372   16.8088   46.5649 H   0  0  0  0  0  0  0  0  0  0  0  0
  179.1819   14.8381   45.2487 H   0  0  0  0  0  0  0  0  0  0  0  0
  182.2036   14.6404   43.3199 H   0  0  0  0  0  0  0  0  0  0  0  0
  180.6898   13.8128   43.8891 H   0  0  0  0  0  0  0  0  0  0  0  0
  179.7590   13.9465   41.8626 H   0  0  0  0  0  0  0  0  0  0  0  0
  180.1225   15.6949   41.7339 H   0  0  0  0  0  0  0  0  0  0  0  0
  1  2  1  0
  2  3  2  0
  3  4  1  0
  4  5  1  0
  5  6  1  0
  6  7  1  0
  7  8  2  0
  8  9  1  0
  9 10  2  0
 10 11  1  0
 11 12  1  0
 11 13  2  0
 13 14  1  0
 14 15  2  0
 14 16  1  0
 16 17  1  0
  4 18  2  0
 18 19  1  0
 19 20  2  0
 20 21  1  0
 21 22  1  0
 22 23  1  0
 20  2  1  0
 16  5  2  0
 13  7  1  0
  1 24  1  0
  1 25  1  0
  1 26  1  0
  3 27  1  0
  8 28  1  0
  9 29  1  0
 10 30  1  0
 12 31  1  0
 17 32  1  0
 18 33  1  0
 19 34  1  0
 21 35  1  0
 21 36  1  0
 22 37  1  0
 22 38  1  0
M  END
>  <meeko>  (4) 
{"is_sidechain": [false], "free_energy": -6.344, "intermolecular_energy": -8.231, "internal_energy": -0.039}

$$$$
cand_047_out
     RDKit          3D

 38 40  0  0  0  0  0  0  0  0999 V2000
  183.0760   20.0600   44.6140 C   0  0  0  0  0  0  0  0  0  0  0  0
  181.7220   19.6290   45.1080 C   0  0  0  0  0  0  0  0  0  0  0  0
  180.9800   20.5190   45.9100 C   0  0  0  0  0  0  0  0  0  0  0  0
  179.7140   20.1790   46.4080 C   0  0  0  0  0  0  0  0  0  0  0  0
  178.9430   21.1030   47.2680 C   0  0  0  0  0  0  0  0  0  0  0  0
  177.5700   20.9070   47.1780 O   0  0  0  0  0  0  0  0  0  0  0  0
  176.7370   21.6970   47.9260 C   0  0  0  0  0  0  0  0  0  0  0  0
  175.3670   21.4560   47.8170 C   0  0  0  0  0  0  0  0  0  0  0  0
  174.4620   22.2270   48.5510 C   0  0  0  0  0  0  0  0  0  0  0  0
  174.9280   23.2400   49.3920 C   0  0  0  0  0  0  0  0  0  0  0  0
  176.2950   23.4800   49.4990 C   0  0  0  0  0  0  0  0  0  0  0  0
  176.6830   24.4870   50.3390 O   0  0  0  0  0  0  0  0  0  0  0  0
  177.2000   22.7060   48.7650 C   0  0  0  0  0  0  0  0  0  0  0  0
  178.6450   22.9260   48.8480 C   0  0  0  0  0  0  0  0  0  0  0  0
  179.1310   23.8030   49.5590 O   0  0  0  0  0  0  0  0  0  0  0  0
  179.5190   22.0470   48.0360 C   0  0  0  0  0  0  0  0  0  0  0  0
  180.8810   22.2710   48.1120 O   0  0  0  0  0  0  0  0  0  0  0  0
  179.1990   18.9150   46.1100 C   0  0  0  0  0  0  0  0  0  0  0  0
  179.9240   18.0180   45.3210 C   0  0  0  0  0  0  0  0  0  0  0  0
  181.1890   18.3590   44.8160 C   0  0  0  0  0  0  0  0  0  0  0  0
  181.9130   17.3540   43.9500 C   0  0  0  0  0  0  0  0  0  0  0  0
  180.9550   16.4060   43.2480 C   0  0  0  0  0  0  0  0  0  0  0  0
  180.9390   15.2230   43.9230 F   0  0  0  0  0  0  0  0  0  0  0  0
  183.7305   20.2683   45.4732 H   0  0  0  0  0  0  0  0  0  0  0  0
  183.5162   19.2576   44.0038 H   0  0  0  0  0  0  0  0  0  0  0  0
  182.9713   20.9692   44.0038 H   0  0  0  0  0  0  0  0  0  0  0  0
  181.4044   21.5047   46.1513 H   0  0  0  0  0  0  0  0  0  0  0  0
  174.9996   20.6593   47.1535 H   0  0  0  0  0  0  0  0  0  0  0  0
  173.3820   22.0361   48.4664 H   0  0  0  0  0  0  0  0  0  0  0  0
  174.2155   23.8476   49.9692 H   0  0  0  0  0  0  0  0  0  0  0  0
  176.3610   24.5120   51.2190 H   0  0  0  0  0  0  0  0  0  0  0  0
  181.3450   22.0710   48.9010 H   0  0  0  0  0  0  0  0  0  0  0  0
  178.2129   18.6229   46.5003 H   0  0  0  0  0  0  0  0  0  0  0  0
  179.4974   17.0302   45.0922 H   0  0  0  0  0  0  0  0  0  0  0  0
  182.4957   17.8956   43.1903 H   0  0  0  0  0  0  0  0  0  0  0  0
  182.5650   16.7540   44.6018 H   0  0  0  0  0  0  0  0  0  0  0  0
  179.9445   16.8406   43.2386 H   0  0  0  0  0  0  0  0  0  0  0  0
  181.2828   16.2416   42.2109 H   0  0  0  0  0  0  0  0  0  0  0  0
  1  2  1  0
  2  3  2  0
  3  4  1  0
  4  5  1  0
  5  6  1  0
  6  7  1  0
  7  8  2  0
  8  9  1  0
  9 10  2  0
 10 11  1  0
 11 12  1  0
 11 13  2  0
 13 14  1  0
 14 15  2  0
 14 16  1  0
 16 17  1  0
  4 18  2  0
 18 19  1  0
 19 20  2  0
 20 21  1  0
 21 22  1  0
 22 23  1  0
 20  2  1  0
 16  5  2  0
 13  7  1  0
  1 24  1  0
  1 25  1  0
  1 26  1  0
  3 27  1  0
  8 28  1  0
  9 29  1  0
 10 30  1  0
 12 31  1  0
 17 32  1  0
 18 33  1  0
 19 34  1  0
 21 35  1  0
 21 36  1  0
 22 37  1  0
 22 38  1  0
M  END
>  <meeko>  (5) 
{"is_sidechain": [false], "free_energy": -5.543, "intermolecular_energy": -7.329, "internal_energy": 0.048}

$$$$
