cand_024_out
     RDKit          3D

 47 49  0  0  0  0  0  0  0  0999 V2000
  181.5110   16.4660   40.0670 C   0  0  0  0  0  0  0  0  0  0  0  0
  181.4160   15.0450   40.4140 N   0  0  0  0  0  0  0  0  0  0  0  0
  180.5580   14.3630   39.4400 C   0  0  0  0  0  0  0  0  0  0  0  0
  180.8830   14.8480   41.7760 C   0  0  0  0  0  0  0  0  0  0  0  0
  181.8870   15.2270   42.8800 C   0  0  0  0  0  0  0  0  0  0  0  0
  181.3600   16.3420   43.7660 C   0  0  0  0  0  0  0  0  0  0  0  0
  181.8430   17.6430   43.5520 C   0  0  0  0  0  0  0  0  0  0  0  0
  181.4070   18.7110   44.3390 C   0  0  0  0  0  0  0  0  0  0  0  0
  180.4700   18.5120   45.3590 C   0  0  0  0  0  0  0  0  0  0  0  0
  180.0350   19.6520   46.1920 C   0  0  0  0  0  0  0  0  0  0  0  0
  178.6590   19.8450   46.1700 O   0  0  0  0  0  0  0  0  0  0  0  0
  178.1220   20.8710   46.9050 C   0  0  0  0  0  0  0  0  0  0  0  0
  176.7370   21.0370   46.8430 C   0  0  0  0  0  0  0  0  0  0  0  0
  176.1260   22.0620   47.5680 C   0  0  0  0  0  0  0  0  0  0  0  0
  176.8980   22.9210   48.3530 C   0  0  0  0  0  0  0  0  0  0  0  0
  178.2790   22.7520   48.4140 C   0  0  0  0  0  0  0  0  0  0  0  0
  178.9740   23.6280   49.2020 O   0  0  0  0  0  0  0  0  0  0  0  0
  178.8900   21.7270   47.6870 C   0  0  0  0  0  0  0  0  0  0  0  0
  180.3390   21.5160   47.7230 C   0  0  0  0  0  0  0  0  0  0  0  0
  181.0840   22.2240   48.3960 O   0  0  0  0  0  0  0  0  0  0  0  0
  180.8870   20.4050   46.9110 C   0  0  0  0  0  0  0  0  0  0  0  0
  182.2550   20.2040   46.9610 O   0  0  0  0  0  0  0  0  0  0  0  0
  179.9970   17.2100   45.5820 C   0  0  0  0  0  0  0  0  0  0  0  0
  180.4270   16.1160   44.8010 C   0  0  0  0  0  0  0  0  0  0  0  0
  179.8540   14.7450   45.0890 C   0  0  0  0  0  0  0  0  0  0  0  0
  179.2180   14.1800   44.0230 F   0  0  0  0  0  0  0  0  0  0  0  0
  180.8060   13.8470   45.4670 F   0  0  0  0  0  0  0  0  0  0  0  0
  178.9310   14.7570   46.0930 F   0  0  0  0  0  0  0  0  0  0  0  0
  181.5511   17.0664   40.9878 H   0  0  0  0  0  0  0  0  0  0  0  0
  182.4227   16.6391   39.4764 H   0  0  0  0  0  0  0  0  0  0  0  0
  180.6304   16.7589   39.4764 H   0  0  0  0  0  0  0  0  0  0  0  0
  182.3560   14.6480   40.3890 H   0  0  0  0  0  0  0  0  0  0  0  0
  179.8042   13.7638   39.9717 H   0  0  0  0  0  0  0  0  0  0  0  0
  180.0542   15.1099   38.8088 H   0  0  0  0  0  0  0  0  0  0  0  0
  181.1720   13.7037   38.8088 H   0  0  0  0  0  0  0  0  0  0  0  0
  179.9833   15.4700   41.8929 H   0  0  0  0  0  0  0  0  0  0  0  0
  180.6615   13.7765   41.8889 H   0  0  0  0  0  0  0  0  0  0  0  0
  182.0830   14.3411   43.5019 H   0  0  0  0  0  0  0  0  0  0  0  0
  182.8082   15.5830   42.3955 H   0  0  0  0  0  0  0  0  0  0  0  0
  182.5761   17.8237   42.7521 H   0  0  0  0  0  0  0  0  0  0  0  0
  181.8046   19.7200   44.1550 H   0  0  0  0  0  0  0  0  0  0  0  0
  176.1283   20.3614   46.2241 H   0  0  0  0  0  0  0  0  0  0  0  0
  175.0349   22.1931   47.5207 H   0  0  0  0  0  0  0  0  0  0  0  0
  176.4162   23.7297   48.9221 H   0  0  0  0  0  0  0  0  0  0  0  0
  178.7430   24.5360   49.2100 H   0  0  0  0  0  0  0  0  0  0  0  0
  182.7970   20.7920   47.4500 H   0  0  0  0  0  0  0  0  0  0  0  0
  179.2699   17.0369   46.3890 H   0  0  0  0  0  0  0  0  0  0  0  0
  1  2  1  0
  2  3  1  0
  2  4  1  0
  4  5  1  0
  5  6  1  0
  6  7  2  0
  7  8  1  0
  8  9  2  0
  9 10  1  0
 10 11  1  0
 11 12  1  0
 12 13  2  0
 13 14  1  0
 14 15  2  0
 15 16  1  0
 16 17  1  0
 16 18  2  0
 18 19  1  0
 19 20  2  0
 19 21  1  0
 21 22  1  0
  9 23  1  0
 23 24  2  0
 24 25  1  0
 25 26  1  0
 25 27  1  0
 25 28  1  0
 24  6  1  0
 21 10  2  0
 18 12  1  0
  1 29  1  0
  1 30  1  0
  1 31  1  0
  2 32  1  0
  3 33  1  0
  3 34  1  0
  3 35  1  0
  4 36  1  0
  4 37  1  0
  5 38  1  0
  5 39  1  0
  7 40  1  0
  8 41  1  0
 13 42  1  0
 14 43  1  0
 15 44  1  0
 17 45  1  0
 22 46  1  0
 23 47  1  0
M  CHG  1   2   1
M  END
>  <meeko>  (1) 
{"is_sidechain": [false], "free_energy": -8.138, "intermolecular_energy": -10.992, "internal_energy": -0.274}

$$$$
cand_024_out
     RDKit          3D

 47 49  0  0  0  0  0  0  0  0999 V2000
  181.5220   14.0170   42.0270 C   0  0  0  0  0  0  0  0  0  0  0  0
  180.9090   15.2180   41.4530 N   0  0  0  0  0  0  0  0  0  0  0  0
  180.9930   15.1560   39.9900 C   0  0  0  0  0  0  0  0  0  0  0  0
  181.5570   16.4510   41.9400 C   0  0  0  0  0  0  0  0  0  0  0  0
  181.8780   16.4120   43.4460 C   0  0  0  0  0  0  0  0  0  0  0  0
  180.8770   17.2130   44.2590 C   0  0  0  0  0  0  0  0  0  0  0  0
  180.9630   18.6150   44.2210 C   0  0  0  0  0  0  0  0  0  0  0  0
  180.0790   19.4090   44.9550 C   0  0  0  0  0  0  0  0  0  0  0  0
  179.0800   18.8270   45.7420 C   0  0  0  0  0  0  0  0  0  0  0  0
  178.1650   19.6860   46.5250 C   0  0  0  0  0  0  0  0  0  0  0  0
  178.7480   20.8860   46.9120 O   0  0  0  0  0  0  0  0  0  0  0  0
  178.0060   21.7780   47.6430 C   0  0  0  0  0  0  0  0  0  0  0  0
  178.6340   22.9650   48.0230 C   0  0  0  0  0  0  0  0  0  0  0  0
  177.9350   23.9160   48.7670 C   0  0  0  0  0  0  0  0  0  0  0  0
  176.6080   23.6810   49.1320 C   0  0  0  0  0  0  0  0  0  0  0  0
  175.9820   22.4970   48.7520 C   0  0  0  0  0  0  0  0  0  0  0  0
  174.6820   22.3320   49.1420 O   0  0  0  0  0  0  0  0  0  0  0  0
  176.6830   21.5450   48.0070 C   0  0  0  0  0  0  0  0  0  0  0  0
  176.0630   20.2870   47.5870 C   0  0  0  0  0  0  0  0  0  0  0  0
  174.8980   20.0110   47.8630 O   0  0  0  0  0  0  0  0  0  0  0  0
  176.8950   19.3420   46.8070 C   0  0  0  0  0  0  0  0  0  0  0  0
  176.2980   18.1620   46.4020 O   0  0  0  0  0  0  0  0  0  0  0  0
  179.0020   17.4280   45.7910 C   0  0  0  0  0  0  0  0  0  0  0  0
  179.8870   16.6060   45.0600 C   0  0  0  0  0  0  0  0  0  0  0  0
  179.7250   15.1030   45.1470 C   0  0  0  0  0  0  0  0  0  0  0  0
  179.1910   14.5430   44.0240 F   0  0  0  0  0  0  0  0  0  0  0  0
  180.9080   14.4590   45.3530 F   0  0  0  0  0  0  0  0  0  0  0  0
  178.9050   14.7170   46.1660 F   0  0  0  0  0  0  0  0  0  0  0  0
  181.4907   14.0783   43.1248 H   0  0  0  0  0  0  0  0  0  0  0  0
  180.9677   13.1273   41.6935 H   0  0  0  0  0  0  0  0  0  0  0  0
  182.5677   13.9439   41.6935 H   0  0  0  0  0  0  0  0  0  0  0  0
  179.9310   15.2460   41.7450 H   0  0  0  0  0  0  0  0  0  0  0  0
  181.8463   14.5262   39.6981 H   0  0  0  0  0  0  0  0  0  0  0  0
  180.0645   14.7250   39.5874 H   0  0  0  0  0  0  0  0  0  0  0  0
  181.1312   16.1703   39.5874 H   0  0  0  0  0  0  0  0  0  0  0  0
  182.4962   16.5950   41.3857 H   0  0  0  0  0  0  0  0  0  0  0  0
  180.8508   17.2785   41.7770 H   0  0  0  0  0  0  0  0  0  0  0  0
  181.8576   15.3664   43.7870 H   0  0  0  0  0  0  0  0  0  0  0  0
  182.8725   16.8581   43.5943 H   0  0  0  0  0  0  0  0  0  0  0  0
  181.7377   19.0941   43.6043 H   0  0  0  0  0  0  0  0  0  0  0  0
  180.1695   20.5045   44.9137 H   0  0  0  0  0  0  0  0  0  0  0  0
  179.6796   23.1507   47.7361 H   0  0  0  0  0  0  0  0  0  0  0  0
  178.4298   24.8517   49.0663 H   0  0  0  0  0  0  0  0  0  0  0  0
  176.0576   24.4307   49.7193 H   0  0  0  0  0  0  0  0  0  0  0  0
  174.2860   21.4830   49.1050 H   0  0  0  0  0  0  0  0  0  0  0  0
  176.7660   17.5650   45.8510 H   0  0  0  0  0  0  0  0  0  0  0  0
  178.2293   16.9575   46.4168 H   0  0  0  0  0  0  0  0  0  0  0  0
  1  2  1  0
  2  3  1  0
  2  4  1  0
  4  5  1  0
  5  6  1  0
  6  7  2  0
  7  8  1  0
  8  9  2  0
  9 10  1  0
 10 11  1  0
 11 12  1  0
 12 13  2  0
 13 14  1  0
 14 15  2  0
 15 16  1  0
 16 17  1  0
 16 18  2  0
 18 19  1  0
 19 20  2  0
 19 21  1  0
 21 22  1  0
  9 23  1  0
 23 24  2  0
 24 25  1  0
 25 26  1  0
 25 27  1  0
 25 28  1  0
 24  6  1  0
 21 10  2  0
 18 12  1  0
  1 29  1  0
  1 30  1  0
  1 31  1  0
  2 32  1  0
  3 33  1  0
  3 34  1  0
  3 35  1  0
  4 36  1  0
  4 37  1  0
  5 38  1  0
  5 39  1  0
  7 40  1  0
  8 41  1  0
 13 42  1  0
 14 43  1  0
 15 44  1  0
 17 45  1  0
 22 46  1  0
 23 47  1  0
M  CHG  1   2   1
M  END
>  <meeko>  (2) 
{"is_sidechain": [false], "free_energy": -7.188, "intermolecular_energy": -9.644, "internal_energy": -0.338}

$$$$
cand_024_out
     RDKit          3D

 47 49  0  0  0  0  0  0  0  0999 V2000
  178.3330   24.1150   47.0980 C   0  0  0  0  0  0  0  0  0  0  0  0
  177.5170   24.3130   48.2990 N   0  0  0  0  0  0  0  0  0  0  0  0
  178.3740   24.2380   49.4870 C   0  0  0  0  0  0  0  0  0  0  0  0
  176.4360   23.3130   48.3980 C   0  0  0  0  0  0  0  0  0  0  0  0
  176.8560   22.0380   49.1520 C   0  0  0  0  0  0  0  0  0  0  0  0
  177.5740   21.0550   48.2450 C   0  0  0  0  0  0  0  0  0  0  0  0
  178.9790   21.0690   48.2320 C   0  0  0  0  0  0  0  0  0  0  0  0
  179.6990   20.1980   47.4120 C   0  0  0  0  0  0  0  0  0  0  0  0
  179.0380   19.2830   46.5850 C   0  0  0  0  0  0  0  0  0  0  0  0
  179.8190   18.3820   45.7120 C   0  0  0  0  0  0  0  0  0  0  0  0
  179.2820   17.1030   45.6350 O   0  0  0  0  0  0  0  0  0  0  0  0
  179.9100   16.1660   44.8540 C   0  0  0  0  0  0  0  0  0  0  0  0
  179.3460   14.8910   44.8170 C   0  0  0  0  0  0  0  0  0  0  0  0
  179.9350   13.8910   44.0410 C   0  0  0  0  0  0  0  0  0  0  0  0
  181.0870   14.1660   43.3020 C   0  0  0  0  0  0  0  0  0  0  0  0
  181.6480   15.4390   43.3400 C   0  0  0  0  0  0  0  0  0  0  0  0
  182.7760   15.6400   42.5930 O   0  0  0  0  0  0  0  0  0  0  0  0
  181.0600   16.4400   44.1180 C   0  0  0  0  0  0  0  0  0  0  0  0
  181.6170   17.7910   44.1860 C   0  0  0  0  0  0  0  0  0  0  0  0
  182.6240   18.1130   43.5600 O   0  0  0  0  0  0  0  0  0  0  0  0
  180.9200   18.7760   45.0460 C   0  0  0  0  0  0  0  0  0  0  0  0
  181.4460   20.0540   45.0940 O   0  0  0  0  0  0  0  0  0  0  0  0
  177.6360   19.2780   46.5870 C   0  0  0  0  0  0  0  0  0  0  0  0
  176.8870   20.1520   47.4060 C   0  0  0  0  0  0  0  0  0  0  0  0
  175.3760   20.0710   47.3680 C   0  0  0  0  0  0  0  0  0  0  0  0
  174.7970   20.0440   48.6030 F   0  0  0  0  0  0  0  0  0  0  0  0
  174.8100   21.1260   46.7190 F   0  0  0  0  0  0  0  0  0  0  0  0
  174.9210   18.9530   46.7330 F   0  0  0  0  0  0  0  0  0  0  0  0
  179.3632   23.8650   47.3917 H   0  0  0  0  0  0  0  0  0  0  0  0
  177.9124   23.2929   46.5004 H   0  0  0  0  0  0  0  0  0  0  0  0
  178.3360   25.0385   46.5004 H   0  0  0  0  0  0  0  0  0  0  0  0
  177.0820   25.2340   48.2400 H   0  0  0  0  0  0  0  0  0  0  0  0
  177.7514   24.2925   50.3922 H   0  0  0  0  0  0  0  0  0  0  0  0
  178.9283   23.2879   49.4798 H   0  0  0  0  0  0  0  0  0  0  0  0
  179.0849   25.0774   49.4798 H   0  0  0  0  0  0  0  0  0  0  0  0
  175.5861   23.7683   48.9275 H   0  0  0  0  0  0  0  0  0  0  0  0
  176.1722   23.0144   47.3727 H   0  0  0  0  0  0  0  0  0  0  0  0
  177.5283   22.3176   49.9765 H   0  0  0  0  0  0  0  0  0  0  0  0
  175.9457   21.5503   49.5308 H   0  0  0  0  0  0  0  0  0  0  0  0
  179.5197   21.7768   48.8775 H   0  0  0  0  0  0  0  0  0  0  0  0
  180.7985   20.2315   47.4161 H   0  0  0  0  0  0  0  0  0  0  0  0
  178.4380   14.6735   45.3986 H   0  0  0  0  0  0  0  0  0  0  0  0
  179.4908   12.8851   44.0118 H   0  0  0  0  0  0  0  0  0  0  0  0
  181.5506   13.3777   42.6906 H   0  0  0  0  0  0  0  0  0  0  0  0
  183.6190   15.4580   42.9590 H   0  0  0  0  0  0  0  0  0  0  0  0
  180.8740   20.7940   45.1680 H   0  0  0  0  0  0  0  0  0  0  0  0
  177.1037   18.5729   45.9317 H   0  0  0  0  0  0  0  0  0  0  0  0
  1  2  1  0
  2  3  1  0
  2  4  1  0
  4  5  1  0
  5  6  1  0
  6  7  2  0
  7  8  1  0
  8  9  2  0
  9 10  1  0
 10 11  1  0
 11 12  1  0
 12 13  2  0
 13 14  1  0
 14 15  2  0
 15 16  1  0
 16 17  1  0
 16 18  2  0
 18 19  1  0
 19 20  2  0
 19 21  1  0
 21 22  1  0
  9 23  1  0
 23 24  2  0
 24 25  1  0
 25 26  1  0
 25 27  1  0
 25 28  1  0
 24  6  1  0
 21 10  2  0
 18 12  1  0
  1 29  1  0
  1 30  1  0
  1 31  1  0
  2 32  1  0
  3 33  1  0
  3 34  1  0
  3 35  1  0
  4 36  1  0
  4 37  1  0
  5 38  1  0
  5 39  1  0
  7 40  1  0
  8 41  1  0
 13 42  1  0
 14 43  1  0
 15 44  1  0
 17 45  1  0
 22 46  1  0
 23 47  1  0
M  CHG  1   2   1
M  END
>  <meeko>  (3) 
{"is_sidechain": [false], "free_energy": -6.727, "intermolecular_energy": -9.53, "internal_energy": 0.171}

$$$$
cand_024_out
     RDKit          3D

 47 49  0  0  0  0  0  0  0  0999 V2000
  178.8850   24.5680   49.2180 C   0  0  0  0  0  0  0  0  0  0  0  0
  178.0400   24.0520   48.1390 N   0  0  0  0  0  0  0  0  0  0  0  0
  176.8280   23.4550   48.7120 C   0  0  0  0  0  0  0  0  0  0  0  0
  178.7500   23.0520   47.3170 C   0  0  0  0  0  0  0  0  0  0  0  0
  179.1240   21.7800   48.1000 C   0  0  0  0  0  0  0  0  0  0  0  0
  179.3630   20.5980   47.1770 C   0  0  0  0  0  0  0  0  0  0  0  0
  180.6620   20.3970   46.6810 C   0  0  0  0  0  0  0  0  0  0  0  0
  180.9460   19.3350   45.8190 C   0  0  0  0  0  0  0  0  0  0  0  0
  179.9430   18.4390   45.4340 C   0  0  0  0  0  0  0  0  0  0  0  0
  180.2610   17.3320   44.5070 C   0  0  0  0  0  0  0  0  0  0  0  0
  180.6120   17.7730   43.2370 O   0  0  0  0  0  0  0  0  0  0  0  0
  180.9340   16.8450   42.2800 C   0  0  0  0  0  0  0  0  0  0  0  0
  181.2670   17.3300   41.0140 C   0  0  0  0  0  0  0  0  0  0  0  0
  181.6060   16.4390   39.9940 C   0  0  0  0  0  0  0  0  0  0  0  0
  181.6110   15.0650   40.2380 C   0  0  0  0  0  0  0  0  0  0  0  0
  181.2800   14.5830   41.5020 C   0  0  0  0  0  0  0  0  0  0  0  0
  181.3060   13.2260   41.6720 O   0  0  0  0  0  0  0  0  0  0  0  0
  180.9400   15.4750   42.5220 C   0  0  0  0  0  0  0  0  0  0  0  0
  180.5850   15.0100   43.8640 C   0  0  0  0  0  0  0  0  0  0  0  0
  180.5740   13.8180   44.1590 O   0  0  0  0  0  0  0  0  0  0  0  0
  180.2330   16.0370   44.8720 C   0  0  0  0  0  0  0  0  0  0  0  0
  179.9120   15.5910   46.1410 O   0  0  0  0  0  0  0  0  0  0  0  0
  178.6440   18.6470   45.9180 C   0  0  0  0  0  0  0  0  0  0  0  0
  178.3330   19.7160   46.7870 C   0  0  0  0  0  0  0  0  0  0  0  0
  176.9110   19.8610   47.2840 C   0  0  0  0  0  0  0  0  0  0  0  0
  176.8180   20.0510   48.6320 F   0  0  0  0  0  0  0  0  0  0  0  0
  176.2630   20.9180   46.7190 F   0  0  0  0  0  0  0  0  0  0  0  0
  176.1430   18.7660   47.0210 F   0  0  0  0  0  0  0  0  0  0  0  0
  178.4444   24.2990   50.1893 H   0  0  0  0  0  0  0  0  0  0  0  0
  179.8907   24.1298   49.1376 H   0  0  0  0  0  0  0  0  0  0  0  0
  178.9546   25.6628   49.1376 H   0  0  0  0  0  0  0  0  0  0  0  0
  177.7900   24.8320   47.5300 H   0  0  0  0  0  0  0  0  0  0  0  0
  176.8884   23.4848   49.8099 H   0  0  0  0  0  0  0  0  0  0  0  0
  175.9467   24.0221   48.3778 H   0  0  0  0  0  0  0  0  0  0  0  0
  176.7404   22.4107   48.3778 H   0  0  0  0  0  0  0  0  0  0  0  0
  178.1015   22.7668   46.4755 H   0  0  0  0  0  0  0  0  0  0  0  0
  179.6882   23.5146   46.9766 H   0  0  0  0  0  0  0  0  0  0  0  0
  180.0413   21.9732   48.6755 H   0  0  0  0  0  0  0  0  0  0  0  0
  178.2845   21.5294   48.7652 H   0  0  0  0  0  0  0  0  0  0  0  0
  181.4673   21.0860   46.9757 H   0  0  0  0  0  0  0  0  0  0  0  0
  181.9696   19.2018   45.4388 H   0  0  0  0  0  0  0  0  0  0  0  0
  181.2623   18.4128   40.8203 H   0  0  0  0  0  0  0  0  0  0  0  0
  181.8696   16.8206   38.9965 H   0  0  0  0  0  0  0  0  0  0  0  0
  181.8760   14.3636   39.4331 H   0  0  0  0  0  0  0  0  0  0  0  0
  181.8020   12.8520   42.3740 H   0  0  0  0  0  0  0  0  0  0  0  0
  179.5510   14.7340   46.2590 H   0  0  0  0  0  0  0  0  0  0  0  0
  177.8434   17.9574   45.6120 H   0  0  0  0  0  0  0  0  0  0  0  0
  1  2  1  0
  2  3  1  0
  2  4  1  0
  4  5  1  0
  5  6  1  0
  6  7  2  0
  7  8  1  0
  8  9  2  0
  9 10  1  0
 10 11  1  0
 11 12  1  0
 12 13  2  0
 13 14  1  0
 14 15  2  0
 15 16  1  0
 16 17  1  0
 16 18  2  0
 18 19  1  0
 19 20  2  0
 19 21  1  0
 21 22  1  0
  9 23  1  0
 23 24  2  0
 24 25  1  0
 25 26  1  0
 25 27  1  0
 25 28  1  0
 24  6  1  0
 21 10  2  0
 18 12  1  0
  1 29  1  0
  1 30  1  0
  1 31  1  0
  2 32  1  0
  3 33  1  0
  3 34  1  0
  3 35  1  0
  4 36  1  0
  4 37  1  0
  5 38  1  0
  5 39  1  0
  7 40  1  0
  8 41  1  0
 13 42  1  0
 14 43  1  0
 15 44  1  0
 17 45  1  0
 22 46  1  0
 23 47  1  0
M  CHG  1   2   1
M  END
>  <meeko>  (4) 
{"is_sidechain": [false], "free_energy": -6.02, "intermolecular_energy": -7.677, "internal_energy": -0.728}

$$$$
cand_024_out
     RDKit          3D

 47 49  0  0  0  0  0  0  0  0999 V2000
  175.3030   20.0660   47.3470 C   0  0  0  0  0  0  0  0  0  0  0  0
  176.7140   20.0310   47.7410 N   0  0  0  0  0  0  0  0  0  0  0  0
  176.9500   21.0210   48.7960 C   0  0  0  0  0  0  0  0  0  0  0  0
  177.6080   20.2960   46.5960 C   0  0  0  0  0  0  0  0  0  0  0  0
  178.8470   19.3830   46.5710 C   0  0  0  0  0  0  0  0  0  0  0  0
  180.1340   20.1790   46.4480 C   0  0  0  0  0  0  0  0  0  0  0  0
  180.2820   21.3270   47.2450 C   0  0  0  0  0  0  0  0  0  0  0  0
  181.4370   22.1090   47.1710 C   0  0  0  0  0  0  0  0  0  0  0  0
  182.4800   21.7650   46.3060 C   0  0  0  0  0  0  0  0  0  0  0  0
  183.6860   22.6160   46.2310 C   0  0  0  0  0  0  0  0  0  0  0  0
  183.9200   23.3280   47.4010 O   0  0  0  0  0  0  0  0  0  0  0  0
  185.0120   24.1560   47.4650 C   0  0  0  0  0  0  0  0  0  0  0  0
  185.2010   24.8630   48.6530 C   0  0  0  0  0  0  0  0  0  0  0  0
  186.2930   25.7230   48.7860 C   0  0  0  0  0  0  0  0  0  0  0  0
  187.1950   25.8760   47.7310 C   0  0  0  0  0  0  0  0  0  0  0  0
  187.0050   25.1690   46.5470 C   0  0  0  0  0  0  0  0  0  0  0  0
  187.9260   25.3650   45.5550 O   0  0  0  0  0  0  0  0  0  0  0  0
  185.9110   24.3090   46.4140 C   0  0  0  0  0  0  0  0  0  0  0  0
  185.6740   23.5480   45.1860 C   0  0  0  0  0  0  0  0  0  0  0  0
  186.4260   23.6230   44.2180 O   0  0  0  0  0  0  0  0  0  0  0  0
  184.4810   22.6700   45.1460 C   0  0  0  0  0  0  0  0  0  0  0  0
  184.2720   21.9440   43.9880 O   0  0  0  0  0  0  0  0  0  0  0  0
  182.3280   20.6270   45.5000 C   0  0  0  0  0  0  0  0  0  0  0  0
  181.1680   19.8230   45.5550 C   0  0  0  0  0  0  0  0  0  0  0  0
  181.0870   18.5990   44.6700 C   0  0  0  0  0  0  0  0  0  0  0  0
  180.6700   17.4760   45.3240 F   0  0  0  0  0  0  0  0  0  0  0  0
  180.2240   18.7590   43.6290 F   0  0  0  0  0  0  0  0  0  0  0  0
  182.2870   18.2660   44.1140 F   0  0  0  0  0  0  0  0  0  0  0  0
  174.6712   20.0817   48.2473 H   0  0  0  0  0  0  0  0  0  0  0  0
  175.1116   20.9692   46.7490 H   0  0  0  0  0  0  0  0  0  0  0  0
  175.0670   19.1734   46.7490 H   0  0  0  0  0  0  0  0  0  0  0  0
  176.9250   19.0940   48.0870 H   0  0  0  0  0  0  0  0  0  0  0  0
  176.8360   20.5426   49.7799 H   0  0  0  0  0  0  0  0  0  0  0  0
  177.9692   21.4234   48.6999 H   0  0  0  0  0  0  0  0  0  0  0  0
  176.2219   21.8399   48.6999 H   0  0  0  0  0  0  0  0  0  0  0  0
  177.0408   20.1413   45.6663 H   0  0  0  0  0  0  0  0  0  0  0  0
  177.9664   21.3314   46.6935 H   0  0  0  0  0  0  0  0  0  0  0  0
  178.8775   18.7992   47.5028 H   0  0  0  0  0  0  0  0  0  0  0  0
  178.7679   18.7247   45.6933 H   0  0  0  0  0  0  0  0  0  0  0  0
  179.4766   21.6139   47.9371 H   0  0  0  0  0  0  0  0  0  0  0  0
  181.5270   23.0063   47.8009 H   0  0  0  0  0  0  0  0  0  0  0  0
  184.4904   24.7430   49.4840 H   0  0  0  0  0  0  0  0  0  0  0  0
  186.4428   26.2803   49.7224 H   0  0  0  0  0  0  0  0  0  0  0  0
  188.0546   26.5544   47.8354 H   0  0  0  0  0  0  0  0  0  0  0  0
  187.8030   24.9650   44.7160 H   0  0  0  0  0  0  0  0  0  0  0  0
  183.4660   22.0350   43.5170 H   0  0  0  0  0  0  0  0  0  0  0  0
  183.1355   20.3529   44.8051 H   0  0  0  0  0  0  0  0  0  0  0  0
  1  2  1  0
  2  3  1  0
  2  4  1  0
  4  5  1  0
  5  6  1  0
  6  7  2  0
  7  8  1  0
  8  9  2  0
  9 10  1  0
 10 11  1  0
 11 12  1  0
 12 13  2  0
 13 14  1  0
 14 15  2  0
 15 16  1  0
 16 17  1  0
 16 18  2  0
 18 19  1  0
 19 20  2  0
 19 21  1  0
 21 22  1  0
  9 23  1  0
 23 24  2  0
 24 25  1  0
 25 26  1  0
 25 27  1  0
 25 28  1  0
 24  6  1  0
 21 10  2  0
 18 12  1  0
  1 29  1  0
  1 30  1  0
  1 31  1  0
  2 32  1  0
  3 33  1  0
  3 34  1  0
  3 35  1  0
  4 36  1  0
  4 37  1  0
  5 38  1  0
  5 39  1  0
  7 40  1  0
  8 41  1  0
 13 42  1  0
 14 43  1  0
 15 44  1  0
 17 45  1  0
 22 46  1  0
 23 47  1  0
M  CHG  1   2   1
M  END
>  <meeko>  (5) 
{"is_sidechain": [false], "free_energy": -5.826, "intermolecular_energy": -7.974, "internal_energy": -0.17}

$$$$
cand_024_out
     RDKit          3D

 47 49  0  0  0  0  0  0  0  0999 V2000
  175.9100   18.4210   46.4490 C   0  0  0  0  0  0  0  0  0  0  0  0
  176.4670   19.6860   46.9360 N   0  0  0  0  0  0  0  0  0  0  0  0
  175.4520   20.7390   46.8260 C   0  0  0  0  0  0  0  0  0  0  0  0
  177.6770   20.0760   46.1870 C   0  0  0  0  0  0  0  0  0  0  0  0
  178.9120   19.2280   46.5450 C   0  0  0  0  0  0  0  0  0  0  0  0
  180.2060   19.9790   46.2910 C   0  0  0  0  0  0  0  0  0  0  0  0
  180.4360   21.1650   47.0090 C   0  0  0  0  0  0  0  0  0  0  0  0
  181.6020   21.9090   46.8140 C   0  0  0  0  0  0  0  0  0  0  0  0
  182.5760   21.4870   45.9030 C   0  0  0  0  0  0  0  0  0  0  0  0
  183.7950   22.2980   45.6990 C   0  0  0  0  0  0  0  0  0  0  0  0
  184.3880   22.0830   44.4610 O   0  0  0  0  0  0  0  0  0  0  0  0
  185.5280   22.7760   44.1430 C   0  0  0  0  0  0  0  0  0  0  0  0
  186.0990   22.5190   42.8960 C   0  0  0  0  0  0  0  0  0  0  0  0
  187.2590   23.1920   42.5090 C   0  0  0  0  0  0  0  0  0  0  0  0
  187.8490   24.1200   43.3690 C   0  0  0  0  0  0  0  0  0  0  0  0
  187.2780   24.3760   44.6130 C   0  0  0  0  0  0  0  0  0  0  0  0
  187.9070   25.2970   45.4040 O   0  0  0  0  0  0  0  0  0  0  0  0
  186.1170   23.7020   45.0000 C   0  0  0  0  0  0  0  0  0  0  0  0
  185.4840   23.9400   46.2980 C   0  0  0  0  0  0  0  0  0  0  0  0
  185.9380   24.7470   47.1060 O   0  0  0  0  0  0  0  0  0  0  0  0
  184.2600   23.1680   46.6140 C   0  0  0  0  0  0  0  0  0  0  0  0
  183.6610   23.4090   47.8370 O   0  0  0  0  0  0  0  0  0  0  0  0
  182.3410   20.3100   45.1760 C   0  0  0  0  0  0  0  0  0  0  0  0
  181.1690   19.5440   45.3550 C   0  0  0  0  0  0  0  0  0  0  0  0
  180.9980   18.2740   44.5490 C   0  0  0  0  0  0  0  0  0  0  0  0
  182.1560   17.8190   43.9910 F   0  0  0  0  0  0  0  0  0  0  0  0
  180.5180   17.2400   45.2950 F   0  0  0  0  0  0  0  0  0  0  0  0
  180.1300   18.4200   43.5080 F   0  0  0  0  0  0  0  0  0  0  0  0
  175.6318   17.7891   47.3053 H   0  0  0  0  0  0  0  0  0  0  0  0
  175.0181   18.6241   45.8381 H   0  0  0  0  0  0  0  0  0  0  0  0
  176.6621   17.9003   45.8381 H   0  0  0  0  0  0  0  0  0  0  0  0
  176.7350   19.5600   47.9130 H   0  0  0  0  0  0  0  0  0  0  0  0
  175.1443   21.0582   47.8327 H   0  0  0  0  0  0  0  0  0  0  0  0
  175.8719   21.5976   46.2814 H   0  0  0  0  0  0  0  0  0  0  0  0
  174.5786   20.3509   46.2814 H   0  0  0  0  0  0  0  0  0  0  0  0
  177.4745   19.9621   45.1118 H   0  0  0  0  0  0  0  0  0  0  0  0
  177.9065   21.1176   46.4562 H   0  0  0  0  0  0  0  0  0  0  0  0
  178.8610   18.9571   47.6099 H   0  0  0  0  0  0  0  0  0  0  0  0
  178.9069   18.3316   45.9075 H   0  0  0  0  0  0  0  0  0  0  0  0
  179.6866   21.5126   47.7354 H   0  0  0  0  0  0  0  0  0  0  0  0
  181.7561   22.8375   47.3834 H   0  0  0  0  0  0  0  0  0  0  0  0
  185.6354   21.7867   42.2186 H   0  0  0  0  0  0  0  0  0  0  0  0
  187.7087   22.9910   41.5255 H   0  0  0  0  0  0  0  0  0  0  0  0
  188.7642   24.6486   43.0642 H   0  0  0  0  0  0  0  0  0  0  0  0
  187.4150   25.9950   45.7910 H   0  0  0  0  0  0  0  0  0  0  0  0
  182.7430   23.5960   47.8810 H   0  0  0  0  0  0  0  0  0  0  0  0
  183.0919   19.9746   44.4455 H   0  0  0  0  0  0  0  0  0  0  0  0
  1  2  1  0
  2  3  1  0
  2  4  1  0
  4  5  1  0
  5  6  1  0
  6  7  2  0
  7  8  1  0
  8  9  2  0
  9 10  1  0
 10 11  1  0
 11 12  1  0
 12 13  2  0
 13 14  1  0
 14 15  2  0
 15 16  1  0
 16 17  1  0
 16 18  2  0
 18 19  1  0
 19 20  2  0
 19 21  1  0
 21 22  1  0
  9 23  1  0
 23 24  2  0
 24 25  1  0
 25 26  1  0
 25 27  1  0
 25 28  1  0
 24  6  1  0
 21 10  2  0
 18 12  1  0
  1 29  1  0
  1 30  1  0
  1 31  1  0
  2 32  1  0
  3 33  1  0
  3 34  1  0
  3 35  1  0
  4 36  1  0
  4 37  1  0
  5 38  1  0
  5 39  1  0
  7 40  1  0
  8 41  1  0
 13 42  1  0
 14 43  1  0
 15 44  1  0
 17 45  1  0
 22 46  1  0
 23 47  1  0
M  CHG  1   2   1
M  END
>  <meeko>  (6) 
{"is_sidechain": [false], "free_energy": -5.803, "intermolecular_energy": -8.12, "internal_energy": 0.007}

$$$$
cand_024_out
     RDKit          3D

 47 49  0  0  0  0  0  0  0  0999 V2000
  175.9560   19.8510   47.7770 C   0  0  0  0  0  0  0  0  0  0  0  0
  176.1200   19.5040   46.3620 N   0  0  0  0  0  0  0  0  0  0  0  0
  175.9410   18.0590   46.1920 C   0  0  0  0  0  0  0  0  0  0  0  0
  177.4430   19.9090   45.8490 C   0  0  0  0  0  0  0  0  0  0  0  0
  178.6130   19.3410   46.6720 C   0  0  0  0  0  0  0  0  0  0  0  0
  179.8820   20.1530   46.4880 C   0  0  0  0  0  0  0  0  0  0  0  0
  180.8960   19.6230   45.6720 C   0  0  0  0  0  0  0  0  0  0  0  0
  182.0920   20.3150   45.4710 C   0  0  0  0  0  0  0  0  0  0  0  0
  182.3080   21.5590   46.0710 C   0  0  0  0  0  0  0  0  0  0  0  0
  183.5890   22.2670   45.8590 C   0  0  0  0  0  0  0  0  0  0  0  0
  184.1560   21.9990   44.6200 O   0  0  0  0  0  0  0  0  0  0  0  0
  185.3480   22.5960   44.2930 C   0  0  0  0  0  0  0  0  0  0  0  0
  185.8900   22.2880   43.0450 C   0  0  0  0  0  0  0  0  0  0  0  0
  187.1000   22.8620   42.6500 C   0  0  0  0  0  0  0  0  0  0  0  0
  187.7670   23.7430   43.5030 C   0  0  0  0  0  0  0  0  0  0  0  0
  187.2240   24.0500   44.7480 C   0  0  0  0  0  0  0  0  0  0  0  0
  187.9300   24.9200   45.5320 O   0  0  0  0  0  0  0  0  0  0  0  0
  186.0140   23.4740   45.1430 C   0  0  0  0  0  0  0  0  0  0  0  0
  185.4090   23.7690   46.4430 C   0  0  0  0  0  0  0  0  0  0  0  0
  185.9310   24.5390   47.2450 O   0  0  0  0  0  0  0  0  0  0  0  0
  184.1270   23.1010   46.7680 C   0  0  0  0  0  0  0  0  0  0  0  0
  183.5550   23.3950   47.9920 O   0  0  0  0  0  0  0  0  0  0  0  0
  181.3030   22.0830   46.8970 C   0  0  0  0  0  0  0  0  0  0  0  0
  180.0870   21.4000   47.1170 C   0  0  0  0  0  0  0  0  0  0  0  0
  179.0410   22.0400   48.0040 C   0  0  0  0  0  0  0  0  0  0  0  0
  177.9600   22.5170   47.3210 F   0  0  0  0  0  0  0  0  0  0  0  0
  178.5390   21.1780   48.9310 F   0  0  0  0  0  0  0  0  0  0  0  0
  179.5210   23.1070   48.7050 F   0  0  0  0  0  0  0  0  0  0  0  0
  176.3427   19.0328   48.4024 H   0  0  0  0  0  0  0  0  0  0  0  0
  176.5131   20.7740   47.9951 H   0  0  0  0  0  0  0  0  0  0  0  0
  174.8891   20.0065   47.9951 H   0  0  0  0  0  0  0  0  0  0  0  0
  175.4130   20.0090   45.8270 H   0  0  0  0  0  0  0  0  0  0  0  0
  175.8814   17.5782   47.1796 H   0  0  0  0  0  0  0  0  0  0  0  0
  175.0123   17.8677   45.6344 H   0  0  0  0  0  0  0  0  0  0  0  0
  176.7949   17.6468   45.6344 H   0  0  0  0  0  0  0  0  0  0  0  0
  177.5397   19.5535   44.8125 H   0  0  0  0  0  0  0  0  0  0  0  0
  177.4979   21.0055   45.9169 H   0  0  0  0  0  0  0  0  0  0  0  0
  178.3363   19.3502   47.7366 H   0  0  0  0  0  0  0  0  0  0  0  0
  178.8101   18.3170   46.3220 H   0  0  0  0  0  0  0  0  0  0  0  0
  180.7453   18.6486   45.1844 H   0  0  0  0  0  0  0  0  0  0  0  0
  182.8733   19.8762   44.8331 H   0  0  0  0  0  0  0  0  0  0  0  0
  185.3646   21.5936   42.3728 H   0  0  0  0  0  0  0  0  0  0  0  0
  187.5279   22.6198   41.6660 H   0  0  0  0  0  0  0  0  0  0  0  0
  188.7207   24.1943   43.1920 H   0  0  0  0  0  0  0  0  0  0  0  0
  187.7010   25.8290   45.5460 H   0  0  0  0  0  0  0  0  0  0  0  0
  182.6440   23.2290   48.1360 H   0  0  0  0  0  0  0  0  0  0  0  0
  181.4668   23.0539   47.3875 H   0  0  0  0  0  0  0  0  0  0  0  0
  1  2  1  0
  2  3  1  0
  2  4  1  0
  4  5  1  0
  5  6  1  0
  6  7  2  0
  7  8  1  0
  8  9  2  0
  9 10  1  0
 10 11  1  0
 11 12  1  0
 12 13  2  0
 13 14  1  0
 14 15  2  0
 15 16  1  0
 16 17  1  0
 16 18  2  0
 18 19  1  0
 19 20  2  0
 19 21  1  0
 21 22  1  0
  9 23  1  0
 23 24  2  0
 24 25  1  0
 25 26  1  0
 25 27  1  0
 25 28  1  0
 24  6  1  0
 21 10  2  0
 18 12  1  0
  1 29  1  0
  1 30  1  0
  1 31  1  0
  2 32  1  0
  3 33  1  0
  3 34  1  0
  3 35  1  0
  4 36  1  0
  4 37  1  0
  5 38  1  0
  5 39  1  0
  7 40  1  0
  8 41  1  0
 13 42  1  0
 14 43  1  0
 15 44  1  0
 17 45  1  0
 22 46  1  0
 23 47  1  0
M  CHG  1   2   1
M  END
>  <meeko>  (7) 
{"is_sidechain": [false], "free_energy": -5.685, "intermolecular_energy": -7.937, "internal_energy": -0.016}

$$$$
cand_024_out
     RDKit          3D

 47 49  0  0  0  0  0  0  0  0999 V2000
  186.5360   22.5740   41.4480 C   0  0  0  0  0  0  0  0  0  0  0  0
  187.7710   22.2160   42.1510 N   0  0  0  0  0  0  0  0  0  0  0  0
  187.7660   20.7790   42.4430 C   0  0  0  0  0  0  0  0  0  0  0  0
  187.9300   22.9820   43.4020 C   0  0  0  0  0  0  0  0  0  0  0  0
  186.8930   24.1100   43.5590 C   0  0  0  0  0  0  0  0  0  0  0  0
  186.4670   24.2900   45.0050 C   0  0  0  0  0  0  0  0  0  0  0  0
  187.2460   25.1230   45.8270 C   0  0  0  0  0  0  0  0  0  0  0  0
  186.9140   25.3210   47.1680 C   0  0  0  0  0  0  0  0  0  0  0  0
  185.7930   24.7000   47.7280 C   0  0  0  0  0  0  0  0  0  0  0  0
  185.4700   24.9100   49.1550 C   0  0  0  0  0  0  0  0  0  0  0  0
  184.5860   25.9620   49.3610 O   0  0  0  0  0  0  0  0  0  0  0  0
  184.2010   26.2630   50.6430 C   0  0  0  0  0  0  0  0  0  0  0  0
  183.3240   27.3360   50.8060 C   0  0  0  0  0  0  0  0  0  0  0  0
  182.8910   27.6940   52.0840 C   0  0  0  0  0  0  0  0  0  0  0  0
  183.3360   26.9810   53.1990 C   0  0  0  0  0  0  0  0  0  0  0  0
  184.2110   25.9110   53.0340 C   0  0  0  0  0  0  0  0  0  0  0  0
  184.6070   25.2550   54.1680 O   0  0  0  0  0  0  0  0  0  0  0  0
  184.6450   25.5530   51.7550 C   0  0  0  0  0  0  0  0  0  0  0  0
  185.5640   24.4350   51.5370 C   0  0  0  0  0  0  0  0  0  0  0  0
  185.9940   23.7550   52.4660 O   0  0  0  0  0  0  0  0  0  0  0  0
  185.9680   24.1420   50.1420 C   0  0  0  0  0  0  0  0  0  0  0  0
  186.8260   23.0760   49.9440 O   0  0  0  0  0  0  0  0  0  0  0  0
  185.0240   23.8580   46.9130 C   0  0  0  0  0  0  0  0  0  0  0  0
  185.3420   23.6400   45.5550 C   0  0  0  0  0  0  0  0  0  0  0  0
  184.4500   22.7340   44.7340 C   0  0  0  0  0  0  0  0  0  0  0  0
  183.3780   22.2460   45.4230 F   0  0  0  0  0  0  0  0  0  0  0  0
  183.9290   23.3590   43.6410 F   0  0  0  0  0  0  0  0  0  0  0  0
  185.1030   21.6340   44.2600 F   0  0  0  0  0  0  0  0  0  0  0  0
  185.7492   22.8021   42.1821 H   0  0  0  0  0  0  0  0  0  0  0  0
  186.7160   23.4569   40.8171 H   0  0  0  0  0  0  0  0  0  0  0  0
  186.2158   21.7317   40.8171 H   0  0  0  0  0  0  0  0  0  0  0  0
  188.5590   22.4470   41.5450 H   0  0  0  0  0  0  0  0  0  0  0  0
  187.7655   20.6262   43.5323 H   0  0  0  0  0  0  0  0  0  0  0  0
  186.8663   20.3195   42.0079 H   0  0  0  0  0  0  0  0  0  0  0  0
  188.6625   20.3133   42.0079 H   0  0  0  0  0  0  0  0  0  0  0  0
  187.8255   22.2904   44.2510 H   0  0  0  0  0  0  0  0  0  0  0  0
  188.9235   23.4532   43.3726 H   0  0  0  0  0  0  0  0  0  0  0  0
  187.3338   25.0511   43.1983 H   0  0  0  0  0  0  0  0  0  0  0  0
  186.0028   23.8388   42.9725 H   0  0  0  0  0  0  0  0  0  0  0  0
  188.1297   25.6258   45.4073 H   0  0  0  0  0  0  0  0  0  0  0  0
  187.5419   25.9737   47.7923 H   0  0  0  0  0  0  0  0  0  0  0  0
  182.9741   27.8993   49.9283 H   0  0  0  0  0  0  0  0  0  0  0  0
  182.1984   28.5388   52.2127 H   0  0  0  0  0  0  0  0  0  0  0  0
  182.9957   27.2643   54.2060 H   0  0  0  0  0  0  0  0  0  0  0  0
  185.3940   25.5130   54.6070 H   0  0  0  0  0  0  0  0  0  0  0  0
  186.8460   22.3700   50.5610 H   0  0  0  0  0  0  0  0  0  0  0  0
  184.1473   23.3524   47.3440 H   0  0  0  0  0  0  0  0  0  0  0  0
  1  2  1  0
  2  3  1  0
  2  4  1  0
  4  5  1  0
  5  6  1  0
  6  7  2  0
  7  8  1  0
  8  9  2  0
  9 10  1  0
 10 11  1  0
 11 12  1  0
 12 13  2  0
 13 14  1  0
 14 15  2  0
 15 16  1  0
 16 17  1  0
 16 18  2  0
 18 19  1  0
 19 20  2  0
 19 21  1  0
 21 22  1  0
  9 23  1  0
 23 24  2  0
 24 25  1  0
 25 26  1  0
 25 27  1  0
 25 28  1  0
 24  6  1  0
 21 10  2  0
 18 12  1  0
  1 29  1  0
  1 30  1  0
  1 31  1  0
  2 32  1  0
  3 33  1  0
  3 34  1  0
  3 35  1  0
  4 36  1  0
  4 37  1  0
  5 38  1  0
  5 39  1  0
  7 40  1  0
  8 41  1  0
 13 42  1  0
 14 43  1  0
 15 44  1  0
 17 45  1  0
 22 46  1  0
 23 47  1  0
M  CHG  1   2   1
M  END
>  <meeko>  (8) 
{"is_sidechain": [false], "free_energy": -5.652, "intermolecular_energy": -7.003, "internal_energy": -0.905}

$$$$
cand_024_out
     RDKit          3D

 47 49  0  0  0  0  0  0  0  0999 V2000
  187.3210   23.3820   42.4620 C   0  0  0  0  0  0  0  0  0  0  0  0
  187.9300   22.2950   43.2340 N   0  0  0  0  0  0  0  0  0  0  0  0
  187.4930   21.0060   42.6880 C   0  0  0  0  0  0  0  0  0  0  0  0
  187.5800   22.3780   44.6650 C   0  0  0  0  0  0  0  0  0  0  0  0
  186.6090   23.5280   44.9870 C   0  0  0  0  0  0  0  0  0  0  0  0
  185.2440   23.0150   45.4100 C   0  0  0  0  0  0  0  0  0  0  0  0
  184.5600   22.1530   44.5360 C   0  0  0  0  0  0  0  0  0  0  0  0
  183.2970   21.6550   44.8610 C   0  0  0  0  0  0  0  0  0  0  0  0
  182.6820   21.9970   46.0700 C   0  0  0  0  0  0  0  0  0  0  0  0
  181.3370   21.4720   46.3870 C   0  0  0  0  0  0  0  0  0  0  0  0
  180.5070   22.4230   46.9680 O   0  0  0  0  0  0  0  0  0  0  0  0
  179.2280   22.0670   47.3090 C   0  0  0  0  0  0  0  0  0  0  0  0
  178.4340   23.0480   47.9030 C   0  0  0  0  0  0  0  0  0  0  0  0
  177.1210   22.7520   48.2740 C   0  0  0  0  0  0  0  0  0  0  0  0
  176.6020   21.4750   48.0520 C   0  0  0  0  0  0  0  0  0  0  0  0
  177.3960   20.4970   47.4590 C   0  0  0  0  0  0  0  0  0  0  0  0
  176.8260   19.2680   47.2700 O   0  0  0  0  0  0  0  0  0  0  0  0
  178.7110   20.7930   47.0890 C   0  0  0  0  0  0  0  0  0  0  0  0
  179.5790   19.7950   46.4630 C   0  0  0  0  0  0  0  0  0  0  0  0
  179.1940   18.6520   46.2280 O   0  0  0  0  0  0  0  0  0  0  0  0
  180.9580   20.2100   46.1150 C   0  0  0  0  0  0  0  0  0  0  0  0
  181.7670   19.2640   45.5120 O   0  0  0  0  0  0  0  0  0  0  0  0
  183.3580   22.8680   46.9370 C   0  0  0  0  0  0  0  0  0  0  0  0
  184.6340   23.3860   46.6280 C   0  0  0  0  0  0  0  0  0  0  0  0
  185.3090   24.3040   47.6240 C   0  0  0  0  0  0  0  0  0  0  0  0
  184.5860   24.5050   48.7630 F   0  0  0  0  0  0  0  0  0  0  0  0
  186.5190   23.8320   48.0360 F   0  0  0  0  0  0  0  0  0  0  0  0
  185.5440   25.5500   47.1230 F   0  0  0  0  0  0  0  0  0  0  0  0
  186.9017   24.1305   43.1505 H   0  0  0  0  0  0  0  0  0  0  0  0
  188.0857   23.8546   41.8281 H   0  0  0  0  0  0  0  0  0  0  0  0
  186.5186   22.9767   41.8281 H   0  0  0  0  0  0  0  0  0  0  0  0
  188.9440   22.3800   43.1580 H   0  0  0  0  0  0  0  0  0  0  0  0
  187.2598   20.3180   43.5140 H   0  0  0  0  0  0  0  0  0  0  0  0
  186.5951   21.1549   42.0702 H   0  0  0  0  0  0  0  0  0  0  0  0
  188.2963   20.5782   42.0702 H   0  0  0  0  0  0  0  0  0  0  0  0
  187.1104   21.4297   44.9655 H   0  0  0  0  0  0  0  0  0  0  0  0
  188.5108   22.5722   45.2180 H   0  0  0  0  0  0  0  0  0  0  0  0
  187.0310   24.1314   45.8042 H   0  0  0  0  0  0  0  0  0  0  0  0
  186.4794   24.1300   44.0755 H   0  0  0  0  0  0  0  0  0  0  0  0
  185.0266   21.8665   43.5819 H   0  0  0  0  0  0  0  0  0  0  0  0
  182.7793   20.9858   44.1581 H   0  0  0  0  0  0  0  0  0  0  0  0
  178.8421   24.0542   48.0790 H   0  0  0  0  0  0  0  0  0  0  0  0
  176.4946   23.5258   48.7418 H   0  0  0  0  0  0  0  0  0  0  0  0
  175.5677   21.2420   48.3451 H   0  0  0  0  0  0  0  0  0  0  0  0
  177.1110   18.7230   46.5630 H   0  0  0  0  0  0  0  0  0  0  0  0
  181.4130   18.6920   44.8590 H   0  0  0  0  0  0  0  0  0  0  0  0
  182.8799   23.1556   47.8850 H   0  0  0  0  0  0  0  0  0  0  0  0
  1  2  1  0
  2  3  1  0
  2  4  1  0
  4  5  1  0
  5  6  1  0
  6  7  2  0
  7  8  1  0
  8  9  2  0
  9 10  1  0
 10 11  1  0
 11 12  1  0
 12 13  2  0
 13 14  1  0
 14 15  2  0
 15 16  1  0
 16 17  1  0
 16 18  2  0
 18 19  1  0
 19 20  2  0
 19 21  1  0
 21 22  1  0
  9 23  1  0
 23 24  2  0
 24 25  1  0
 25 26  1  0
 25 27  1  0
 25 28  1  0
 24  6  1  0
 21 10  2  0
 18 12  1  0
  1 29  1  0
  1 30  1  0
  1 31  1  0
  2 32  1  0
  3 33  1  0
  3 34  1  0
  3 35  1  0
  4 36  1  0
  4 37  1  0
  5 38  1  0
  5 39  1  0
  7 40  1  0
  8 41  1  0
 13 42  1  0
 14 43  1  0
 15 44  1  0
 17 45  1  0
 22 46  1  0
 23 47  1  0
M  CHG  1   2   1
M  END
>  <meeko>  (9) 
{"is_sidechain": [false], "free_energy": -5.566, "intermolecular_energy": -7.387, "internal_energy": -0.405}

$$$$
