cand_014_out
     RDKit          3D

 35 37  0  0  0  0  0  0  0  0999 V2000
  181.9230   15.2480   42.7310 C   0  0  0  0  0  0  0  0  0  0  0  0
  181.3160   16.2790   43.6420 C   0  0  0  0  0  0  0  0  0  0  0  0
  181.6560   17.6280   43.4660 C   0  0  0  0  0  0  0  0  0  0  0  0
  181.1240   18.6170   44.2980 C   0  0  0  0  0  0  0  0  0  0  0  0
  180.2360   18.2850   45.3260 C   0  0  0  0  0  0  0  0  0  0  0  0
  179.6990   19.3430   46.2060 C   0  0  0  0  0  0  0  0  0  0  0  0
  178.3110   19.3470   46.2630 O   0  0  0  0  0  0  0  0  0  0  0  0
  177.6830   20.2840   47.0440 C   0  0  0  0  0  0  0  0  0  0  0  0
  176.2880   20.2650   47.0600 C   0  0  0  0  0  0  0  0  0  0  0  0
  175.5880   21.1900   47.8370 C   0  0  0  0  0  0  0  0  0  0  0  0
  176.2810   22.1340   48.5970 C   0  0  0  0  0  0  0  0  0  0  0  0
  177.6730   22.1510   48.5790 C   0  0  0  0  0  0  0  0  0  0  0  0
  178.2880   23.1010   49.3480 O   0  0  0  0  0  0  0  0  0  0  0  0
  178.3740   21.2260   47.8020 C   0  0  0  0  0  0  0  0  0  0  0  0
  179.8360   21.2100   47.7560 C   0  0  0  0  0  0  0  0  0  0  0  0
  180.5190   22.0020   48.4030 O   0  0  0  0  0  0  0  0  0  0  0  0
  180.4840   20.1940   46.8930 C   0  0  0  0  0  0  0  0  0  0  0  0
  181.8660   20.1780   46.8660 O   0  0  0  0  0  0  0  0  0  0  0  0
  179.9130   16.9340   45.5170 C   0  0  0  0  0  0  0  0  0  0  0  0
  180.4450   15.9220   44.6930 C   0  0  0  0  0  0  0  0  0  0  0  0
  180.0340   14.4870   44.9370 C   0  0  0  0  0  0  0  0  0  0  0  0
  181.0200   13.7260   45.4910 F   0  0  0  0  0  0  0  0  0  0  0  0
  179.6710   13.8320   43.7990 F   0  0  0  0  0  0  0  0  0  0  0  0
  182.3898   14.4552   43.3340 H   0  0  0  0  0  0  0  0  0  0  0  0
  181.1377   14.8116   42.0963 H   0  0  0  0  0  0  0  0  0  0  0  0
  182.6856   15.7230   42.0963 H   0  0  0  0  0  0  0  0  0  0  0  0
  182.3510   17.9117   42.6620 H   0  0  0  0  0  0  0  0  0  0  0  0
  181.4070   19.6685   44.1424 H   0  0  0  0  0  0  0  0  0  0  0  0
  175.7404   19.5223   46.4613 H   0  0  0  0  0  0  0  0  0  0  0  0
  174.4882   21.1749   47.8504 H   0  0  0  0  0  0  0  0  0  0  0  0
  175.7286   22.8626   49.2085 H   0  0  0  0  0  0  0  0  0  0  0  0
  178.4900   23.9410   48.9820 H   0  0  0  0  0  0  0  0  0  0  0  0
  182.3490   20.0180   47.6530 H   0  0  0  0  0  0  0  0  0  0  0  0
  179.2268   16.6569   46.3308 H   0  0  0  0  0  0  0  0  0  0  0  0
  179.1832   14.5925   45.6263 H   0  0  0  0  0  0  0  0  0  0  0  0
  1  2  1  0
  2  3  2  0
  3  4  1  0
  4  5  2  0
  5  6  1  0
  6  7  1  0
  7  8  1  0
  8  9  2  0
  9 10  1  0
 10 11  2  0
 11 12  1  0
 12 13  1  0
 12 14  2  0
 14 15  1  0
 15 16  2  0
 15 17  1  0
 17 18  1  0
  5 19  1  0
 19 20  2  0
 20 21  1  0
 21 22  1  0
 21 23  1  0
 20  2  1  0
 17  6  2  0
 14  8  1  0
  1 24  1  0
  1 25  1  0
  1 26  1  0
  3 27  1  0
  4 28  1  0
  9 29  1  0
 10 30  1  0
 11 31  1  0
 13 32  1  0
 18 33  1  0
 19 34  1  0
 21 35  1  0
M  END
>  <meeko>  (1) 
{"is_sidechain": [false], "free_energy": -8.785, "intermolecular_energy": -10.326, "internal_energy": -0.074}

$$$$
cand_014_out
     RDKit          3D

 35 37  0  0  0  0  0  0  0  0999 V2000
  176.6700   22.5070   49.0370 C   0  0  0  0  0  0  0  0  0  0  0  0
  177.4150   21.4990   48.2040 C   0  0  0  0  0  0  0  0  0  0  0  0
  178.8080   21.6080   48.0880 C   0  0  0  0  0  0  0  0  0  0  0  0
  179.5370   20.7000   47.3160 C   0  0  0  0  0  0  0  0  0  0  0  0
  178.8940   19.6570   46.6420 C   0  0  0  0  0  0  0  0  0  0  0  0
  179.6810   18.7180   45.8160 C   0  0  0  0  0  0  0  0  0  0  0  0
  179.1580   17.4310   45.8120 O   0  0  0  0  0  0  0  0  0  0  0  0
  179.7980   16.4590   45.0850 C   0  0  0  0  0  0  0  0  0  0  0  0
  179.2510   15.1760   45.1220 C   0  0  0  0  0  0  0  0  0  0  0  0
  179.8510   14.1420   44.4010 C   0  0  0  0  0  0  0  0  0  0  0  0
  180.9980   14.3890   43.6450 C   0  0  0  0  0  0  0  0  0  0  0  0
  181.5430   15.6700   43.6100 C   0  0  0  0  0  0  0  0  0  0  0  0
  182.6660   15.8430   42.8480 O   0  0  0  0  0  0  0  0  0  0  0  0
  180.9420   16.7050   44.3300 C   0  0  0  0  0  0  0  0  0  0  0  0
  181.4820   18.0650   44.3210 C   0  0  0  0  0  0  0  0  0  0  0  0
  182.4830   18.3650   43.6730 O   0  0  0  0  0  0  0  0  0  0  0  0
  180.7760   19.0890   45.1260 C   0  0  0  0  0  0  0  0  0  0  0  0
  181.2850   20.3730   45.1000 O   0  0  0  0  0  0  0  0  0  0  0  0
  177.4990   19.5610   46.7400 C   0  0  0  0  0  0  0  0  0  0  0  0
  176.7460   20.4710   47.5070 C   0  0  0  0  0  0  0  0  0  0  0  0
  175.2470   20.2930   47.5910 C   0  0  0  0  0  0  0  0  0  0  0  0
  174.8240   19.8050   48.7930 F   0  0  0  0  0  0  0  0  0  0  0  0
  174.7550   19.4300   46.6600 F   0  0  0  0  0  0  0  0  0  0  0  0
  176.8297   22.2910   50.1037 H   0  0  0  0  0  0  0  0  0  0  0  0
  177.0402   23.5172   48.8081 H   0  0  0  0  0  0  0  0  0  0  0  0
  175.5956   22.4496   48.8081 H   0  0  0  0  0  0  0  0  0  0  0  0
  179.3341   22.4195   48.6120 H   0  0  0  0  0  0  0  0  0  0  0  0
  180.6290   20.8067   47.2375 H   0  0  0  0  0  0  0  0  0  0  0  0
  178.3480   14.9794   45.7186 H   0  0  0  0  0  0  0  0  0  0  0  0
  179.4190   13.1308   44.4288 H   0  0  0  0  0  0  0  0  0  0  0  0
  181.4705   13.5734   43.0780 H   0  0  0  0  0  0  0  0  0  0  0  0
  182.8250   15.2820   42.1140 H   0  0  0  0  0  0  0  0  0  0  0  0
  181.3350   20.8420   44.2900 H   0  0  0  0  0  0  0  0  0  0  0  0
  176.9787   18.7537   46.2037 H   0  0  0  0  0  0  0  0  0  0  0  0
  174.8729   21.3141   47.4256 H   0  0  0  0  0  0  0  0  0  0  0  0
  1  2  1  0
  2  3  2  0
  3  4  1  0
  4  5  2  0
  5  6  1  0
  6  7  1  0
  7  8  1  0
  8  9  2  0
  9 10  1  0
 10 11  2  0
 11 12  1  0
 12 13  1  0
 12 14  2  0
 14 15  1  0
 15 16  2  0
 15 17  1  0
 17 18  1  0
  5 19  1  0
 19 20  2  0
 20 21  1  0
 21 22  1  0
 21 23  1  0
 20  2  1  0
 17  6  2  0
 14  8  1  0
  1 24  1  0
  1 25  1  0
  1 26  1  0
  3 27  1  0
  4 28  1  0
  9 29  1  0
 10 30  1  0
 11 31  1  0
 13 32  1  0
 18 33  1  0
 19 34  1  0
 21 35  1  0
M  END
>  <meeko>  (2) 
{"is_sidechain": [false], "free_energy": -7.694, "intermolecular_energy": -9.066, "internal_energy": -0.051}

$$$$
cand_014_out
     RDKit          3D

 35 37  0  0  0  0  0  0  0  0999 V2000
  181.1750   13.6350   42.3260 C   0  0  0  0  0  0  0  0  0  0  0  0
  180.9410   14.9190   43.0740 C   0  0  0  0  0  0  0  0  0  0  0  0
  180.5420   14.8610   44.4170 C   0  0  0  0  0  0  0  0  0  0  0  0
  180.3030   16.0290   45.1460 C   0  0  0  0  0  0  0  0  0  0  0  0
  180.4580   17.2860   44.5520 C   0  0  0  0  0  0  0  0  0  0  0  0
  180.1820   18.5090   45.3350 C   0  0  0  0  0  0  0  0  0  0  0  0
  178.8970   18.5370   45.8630 O   0  0  0  0  0  0  0  0  0  0  0  0
  178.5120   19.6210   46.6090 C   0  0  0  0  0  0  0  0  0  0  0  0
  177.2080   19.6180   47.1060 C   0  0  0  0  0  0  0  0  0  0  0  0
  176.7530   20.6900   47.8760 C   0  0  0  0  0  0  0  0  0  0  0  0
  177.6010   21.7650   48.1490 C   0  0  0  0  0  0  0  0  0  0  0  0
  178.9010   21.7670   47.6520 C   0  0  0  0  0  0  0  0  0  0  0  0
  179.6780   22.8500   47.9590 O   0  0  0  0  0  0  0  0  0  0  0  0
  179.3570   20.6940   46.8820 C   0  0  0  0  0  0  0  0  0  0  0  0
  180.7160   20.6560   46.3400 C   0  0  0  0  0  0  0  0  0  0  0  0
  181.5240   21.5590   46.5440 O   0  0  0  0  0  0  0  0  0  0  0  0
  181.0970   19.4770   45.5280 C   0  0  0  0  0  0  0  0  0  0  0  0
  182.3870   19.4440   45.0320 O   0  0  0  0  0  0  0  0  0  0  0  0
  180.8340   17.3440   43.2030 C   0  0  0  0  0  0  0  0  0  0  0  0
  181.0730   16.1780   42.4500 C   0  0  0  0  0  0  0  0  0  0  0  0
  181.5020   16.3120   41.0060 C   0  0  0  0  0  0  0  0  0  0  0  0
  181.4680   17.5960   40.5470 F   0  0  0  0  0  0  0  0  0  0  0  0
  180.7210   15.6010   40.1450 F   0  0  0  0  0  0  0  0  0  0  0  0
  181.3245   12.8147   43.0435 H   0  0  0  0  0  0  0  0  0  0  0  0
  180.3022   13.4147   41.6938 H   0  0  0  0  0  0  0  0  0  0  0  0
  182.0694   13.7367   41.6938 H   0  0  0  0  0  0  0  0  0  0  0  0
  180.4154   13.8826   44.9034 H   0  0  0  0  0  0  0  0  0  0  0  0
  179.9896   15.9592   46.1981 H   0  0  0  0  0  0  0  0  0  0  0  0
  176.5391   18.7716   46.8912 H   0  0  0  0  0  0  0  0  0  0  0  0
  175.7252   20.6877   48.2680 H   0  0  0  0  0  0  0  0  0  0  0  0
  177.2421   22.6092   48.7561 H   0  0  0  0  0  0  0  0  0  0  0  0
  179.3490   23.5160   48.5310 H   0  0  0  0  0  0  0  0  0  0  0  0
  182.9600   18.7390   45.2620 H   0  0  0  0  0  0  0  0  0  0  0  0
  180.9453   18.3259   42.7198 H   0  0  0  0  0  0  0  0  0  0  0  0
  182.5317   15.9255   41.0218 H   0  0  0  0  0  0  0  0  0  0  0  0
  1  2  1  0
  2  3  2  0
  3  4  1  0
  4  5  2  0
  5  6  1  0
  6  7  1  0
  7  8  1  0
  8  9  2  0
  9 10  1  0
 10 11  2  0
 11 12  1  0
 12 13  1  0
 12 14  2  0
 14 15  1  0
 15 16  2  0
 15 17  1  0
 17 18  1  0
  5 19  1  0
 19 20  2  0
 20 21  1  0
 21 22  1  0
 21 23  1  0
 20  2  1  0
 17  6  2  0
 14  8  1  0
  1 24  1  0
  1 25  1  0
  1 26  1  0
  3 27  1  0
  4 28  1  0
  9 29  1  0
 10 30  1  0
 11 31  1  0
 13 32  1  0
 18 33  1  0
 19 34  1  0
 21 35  1  0
M  END
>  <meeko>  (3) 
{"is_sidechain": [false], "free_energy": -7.514, "intermolecular_energy": -8.687, "internal_energy": -0.219}

$$$$
cand_014_out
     RDKit          3D

 35 37  0  0  0  0  0  0  0  0999 V2000
  182.1530   15.7880   43.3860 C   0  0  0  0  0  0  0  0  0  0  0  0
  181.1880   16.6730   44.1260 C   0  0  0  0  0  0  0  0  0  0  0  0
  181.3510   18.0650   44.0570 C   0  0  0  0  0  0  0  0  0  0  0  0
  180.4840   18.9230   44.7380 C   0  0  0  0  0  0  0  0  0  0  0  0
  179.4310   18.4150   45.5050 C   0  0  0  0  0  0  0  0  0  0  0  0
  178.5370   19.3390   46.2330 C   0  0  0  0  0  0  0  0  0  0  0  0
  179.1440   20.5500   46.5420 O   0  0  0  0  0  0  0  0  0  0  0  0
  178.4220   21.4980   47.2210 C   0  0  0  0  0  0  0  0  0  0  0  0
  179.0740   22.6930   47.5270 C   0  0  0  0  0  0  0  0  0  0  0  0
  178.3960   23.7010   48.2140 C   0  0  0  0  0  0  0  0  0  0  0  0
  177.0650   23.5150   48.5950 C   0  0  0  0  0  0  0  0  0  0  0  0
  176.4160   22.3230   48.2890 C   0  0  0  0  0  0  0  0  0  0  0  0
  175.1140   22.2070   48.6900 O   0  0  0  0  0  0  0  0  0  0  0  0
  177.0950   21.3140   47.6010 C   0  0  0  0  0  0  0  0  0  0  0  0
  176.4500   20.0450   47.2600 C   0  0  0  0  0  0  0  0  0  0  0  0
  175.2800   19.8090   47.5520 O   0  0  0  0  0  0  0  0  0  0  0  0
  177.2610   19.0370   46.5370 C   0  0  0  0  0  0  0  0  0  0  0  0
  176.6390   17.8470   46.2070 O   0  0  0  0  0  0  0  0  0  0  0  0
  179.2820   17.0230   45.5930 C   0  0  0  0  0  0  0  0  0  0  0  0
  180.1500   16.1420   44.9200 C   0  0  0  0  0  0  0  0  0  0  0  0
  179.9160   14.6520   45.0360 C   0  0  0  0  0  0  0  0  0  0  0  0
  180.9870   13.9720   45.5350 F   0  0  0  0  0  0  0  0  0  0  0  0
  179.6370   14.0580   43.8420 F   0  0  0  0  0  0  0  0  0  0  0  0
  182.7643   15.2274   44.1085 H   0  0  0  0  0  0  0  0  0  0  0  0
  181.5932   15.0828   42.7542 H   0  0  0  0  0  0  0  0  0  0  0  0
  182.8073   16.4066   42.7542 H   0  0  0  0  0  0  0  0  0  0  0  0
  182.1724   18.4862   43.4587 H   0  0  0  0  0  0  0  0  0  0  0  0
  180.6314   20.0110   44.6700 H   0  0  0  0  0  0  0  0  0  0  0  0
  180.1219   22.8406   47.2269 H   0  0  0  0  0  0  0  0  0  0  0  0
  178.9102   24.6429   48.4557 H   0  0  0  0  0  0  0  0  0  0  0  0
  176.5308   24.3098   49.1362 H   0  0  0  0  0  0  0  0  0  0  0  0
  174.4320   22.6130   48.1900 H   0  0  0  0  0  0  0  0  0  0  0  0
  176.1710   17.7710   45.3990 H   0  0  0  0  0  0  0  0  0  0  0  0
  178.4660   16.6090   46.2035 H   0  0  0  0  0  0  0  0  0  0  0  0
  179.0575   14.5934   45.7212 H   0  0  0  0  0  0  0  0  0  0  0  0
  1  2  1  0
  2  3  2  0
  3  4  1  0
  4  5  2  0
  5  6  1  0
  6  7  1  0
  7  8  1  0
  8  9  2  0
  9 10  1  0
 10 11  2  0
 11 12  1  0
 12 13  1  0
 12 14  2  0
 14 15  1  0
 15 16  2  0
 15 17  1  0
 17 18  1  0
  5 19  1  0
 19 20  2  0
 20 21  1  0
 21 22  1  0
 21 23  1  0
 20  2  1  0
 17  6  2  0
 14  8  1  0
  1 24  1  0
  1 25  1  0
  1 26  1  0
  3 27  1  0
  4 28  1  0
  9 29  1  0
 10 30  1  0
 11 31  1  0
 13 32  1  0
 18 33  1  0
 19 34  1  0
 21 35  1  0
M  END
>  <meeko>  (4) 
{"is_sidechain": [false], "free_energy": -7.278, "intermolecular_energy": -8.76, "internal_energy": 0.132}

$$$$
cand_014_out
     RDKit          3D

 35 37  0  0  0  0  0  0  0  0999 V2000
  175.5750   22.1570   48.6360 C   0  0  0  0  0  0  0  0  0  0  0  0
  176.5660   21.3050   47.8910 C   0  0  0  0  0  0  0  0  0  0  0  0
  176.1530   20.0600   47.3920 C   0  0  0  0  0  0  0  0  0  0  0  0
  177.0440   19.2330   46.7050 C   0  0  0  0  0  0  0  0  0  0  0  0
  178.3700   19.6260   46.4960 C   0  0  0  0  0  0  0  0  0  0  0  0
  179.3010   18.7280   45.7820 C   0  0  0  0  0  0  0  0  0  0  0  0
  178.8920   17.4000   45.7960 O   0  0  0  0  0  0  0  0  0  0  0  0
  179.6710   16.4610   45.1700 C   0  0  0  0  0  0  0  0  0  0  0  0
  179.2330   15.1370   45.2230 C   0  0  0  0  0  0  0  0  0  0  0  0
  179.9780   14.1320   44.6030 C   0  0  0  0  0  0  0  0  0  0  0  0
  181.1600   14.4490   43.9310 C   0  0  0  0  0  0  0  0  0  0  0  0
  181.5940   15.7700   43.8790 C   0  0  0  0  0  0  0  0  0  0  0  0
  182.7590   16.0110   43.2030 O   0  0  0  0  0  0  0  0  0  0  0  0
  180.8500   16.7760   44.5000 C   0  0  0  0  0  0  0  0  0  0  0  0
  181.2710   18.1770   44.4690 C   0  0  0  0  0  0  0  0  0  0  0  0
  182.2940   18.5390   43.8910 O   0  0  0  0  0  0  0  0  0  0  0  0
  180.4150   19.1660   45.1650 C   0  0  0  0  0  0  0  0  0  0  0  0
  180.8140   20.4890   45.1200 O   0  0  0  0  0  0  0  0  0  0  0  0
  178.7890   20.8600   47.0140 C   0  0  0  0  0  0  0  0  0  0  0  0
  177.9070   21.7050   47.7170 C   0  0  0  0  0  0  0  0  0  0  0  0
  178.4170   23.0340   48.2260 C   0  0  0  0  0  0  0  0  0  0  0  0
  178.2490   24.0560   47.3400 F   0  0  0  0  0  0  0  0  0  0  0  0
  179.7480   23.0240   48.5150 F   0  0  0  0  0  0  0  0  0  0  0  0
  175.7229   22.0298   49.7186 H   0  0  0  0  0  0  0  0  0  0  0  0
  175.7242   23.2131   48.3671 H   0  0  0  0  0  0  0  0  0  0  0  0
  174.5532   21.8510   48.3671 H   0  0  0  0  0  0  0  0  0  0  0  0
  175.1143   19.7315   47.5440 H   0  0  0  0  0  0  0  0  0  0  0  0
  176.6989   18.2607   46.3236 H   0  0  0  0  0  0  0  0  0  0  0  0
  178.3022   14.8856   45.7525 H   0  0  0  0  0  0  0  0  0  0  0  0
  179.6329   13.0883   44.6441 H   0  0  0  0  0  0  0  0  0  0  0  0
  181.7468   13.6563   43.4438 H   0  0  0  0  0  0  0  0  0  0  0  0
  183.3990   15.3320   43.1160 H   0  0  0  0  0  0  0  0  0  0  0  0
  180.1770   21.1670   45.0130 H   0  0  0  0  0  0  0  0  0  0  0  0
  179.8324   21.1764   46.8679 H   0  0  0  0  0  0  0  0  0  0  0  0
  177.8131   23.1937   49.1315 H   0  0  0  0  0  0  0  0  0  0  0  0
  1  2  1  0
  2  3  2  0
  3  4  1  0
  4  5  2  0
  5  6  1  0
  6  7  1  0
  7  8  1  0
  8  9  2  0
  9 10  1  0
 10 11  2  0
 11 12  1  0
 12 13  1  0
 12 14  2  0
 14 15  1  0
 15 16  2  0
 15 17  1  0
 17 18  1  0
  5 19  1  0
 19 20  2  0
 20 21  1  0
 21 22  1  0
 21 23  1  0
 20  2  1  0
 17  6  2  0
 14  8  1  0
  1 24  1  0
  1 25  1  0
  1 26  1  0
  3 27  1  0
  4 28  1  0
  9 29  1  0
 10 30  1  0
 11 31  1  0
 13 32  1  0
 18 33  1  0
 19 34  1  0
 21 35  1  0
M  END
>  <meeko>  (5) 
{"is_sidechain": [false], "free_energy": -7.027, "intermolecular_energy": -8.33, "internal_energy": -0.003}

$$$$
cand_014_out
     RDKit          3D

 35 37  0  0  0  0  0  0  0  0999 V2000
  175.5660   23.5140   49.5970 C   0  0  0  0  0  0  0  0  0  0  0  0
  176.5850   22.7110   48.8350 C   0  0  0  0  0  0  0  0  0  0  0  0
  177.7120   23.3630   48.3120 C   0  0  0  0  0  0  0  0  0  0  0  0
  178.6770   22.6580   47.5880 C   0  0  0  0  0  0  0  0  0  0  0  0
  178.5430   21.2840   47.3680 C   0  0  0  0  0  0  0  0  0  0  0  0
  179.5660   20.5600   46.5850 C   0  0  0  0  0  0  0  0  0  0  0  0
  179.1530   19.2920   46.1950 O   0  0  0  0  0  0  0  0  0  0  0  0
  180.0120   18.5130   45.4620 C   0  0  0  0  0  0  0  0  0  0  0  0
  179.5650   17.2400   45.1060 C   0  0  0  0  0  0  0  0  0  0  0  0
  180.3890   16.3970   44.3580 C   0  0  0  0  0  0  0  0  0  0  0  0
  181.6590   16.8250   43.9660 C   0  0  0  0  0  0  0  0  0  0  0  0
  182.1020   18.0960   44.3230 C   0  0  0  0  0  0  0  0  0  0  0  0
  183.3550   18.4520   43.9060 O   0  0  0  0  0  0  0  0  0  0  0  0
  181.2780   18.9390   45.0720 C   0  0  0  0  0  0  0  0  0  0  0  0
  181.7060   20.2820   45.4670 C   0  0  0  0  0  0  0  0  0  0  0  0
  182.8050   20.7350   45.1540 O   0  0  0  0  0  0  0  0  0  0  0  0
  180.7600   21.0940   46.2680 C   0  0  0  0  0  0  0  0  0  0  0  0
  181.1670   22.3660   46.6260 O   0  0  0  0  0  0  0  0  0  0  0  0
  177.4060   20.6360   47.8710 C   0  0  0  0  0  0  0  0  0  0  0  0
  176.4180   21.3310   48.5970 C   0  0  0  0  0  0  0  0  0  0  0  0
  175.2290   20.5660   49.1340 C   0  0  0  0  0  0  0  0  0  0  0  0
  175.5750   19.4940   49.9010 F   0  0  0  0  0  0  0  0  0  0  0  0
  174.4270   20.0630   48.1540 F   0  0  0  0  0  0  0  0  0  0  0  0
  175.7302   23.3846   50.6769 H   0  0  0  0  0  0  0  0  0  0  0  0
  175.6673   24.5777   49.3356 H   0  0  0  0  0  0  0  0  0  0  0  0
  174.5555   23.1668   49.3356 H   0  0  0  0  0  0  0  0  0  0  0  0
  177.8375   24.4437   48.4741 H   0  0  0  0  0  0  0  0  0  0  0  0
  179.5520   23.1902   47.1866 H   0  0  0  0  0  0  0  0  0  0  0  0
  178.5649   16.9012   45.4142 H   0  0  0  0  0  0  0  0  0  0  0  0
  180.0370   15.3935   44.0769 H   0  0  0  0  0  0  0  0  0  0  0  0
  182.3077   16.1601   43.3769 H   0  0  0  0  0  0  0  0  0  0  0  0
  183.5100   18.6490   43.0020 H   0  0  0  0  0  0  0  0  0  0  0  0
  181.4310   22.5430   47.5080 H   0  0  0  0  0  0  0  0  0  0  0  0
  177.2819   19.5574   47.6945 H   0  0  0  0  0  0  0  0  0  0  0  0
  174.7020   21.3248   49.7311 H   0  0  0  0  0  0  0  0  0  0  0  0
  1  2  1  0
  2  3  2  0
  3  4  1  0
  4  5  2  0
  5  6  1  0
  6  7  1  0
  7  8  1  0
  8  9  2  0
  9 10  1  0
 10 11  2  0
 11 12  1  0
 12 13  1  0
 12 14  2  0
 14 15  1  0
 15 16  2  0
 15 17  1  0
 17 18  1  0
  5 19  1  0
 19 20  2  0
 20 21  1  0
 21 22  1  0
 21 23  1  0
 20  2  1  0
 17  6  2  0
 14  8  1  0
  1 24  1  0
  1 25  1  0
  1 26  1  0
  3 27  1  0
  4 28  1  0
  9 29  1  0
 10 30  1  0
 11 31  1  0
 13 32  1  0
 18 33  1  0
 19 34  1  0
 21 35  1  0
M  END
>  <meeko>  (6) 
{"is_sidechain": [false], "free_energy": -6.031, "intermolecular_energy": -7.307, "internal_energy": 0.144}

$$$$
cand_014_out
     RDKit          3D

 35 37  0  0  0  0  0  0  0  0999 V2000
  187.1950   24.3730   45.4150 C   0  0  0  0  0  0  0  0  0  0  0  0
  185.8890   23.6350   45.5370 C   0  0  0  0  0  0  0  0  0  0  0  0
  185.1280   23.7870   46.7050 C   0  0  0  0  0  0  0  0  0  0  0  0
  183.9150   23.1120   46.8640 C   0  0  0  0  0  0  0  0  0  0  0  0
  183.4290   22.2690   45.8600 C   0  0  0  0  0  0  0  0  0  0  0  0
  182.1530   21.5500   46.0550 C   0  0  0  0  0  0  0  0  0  0  0  0
  181.2370   22.2690   46.8130 O   0  0  0  0  0  0  0  0  0  0  0  0
  180.0100   21.7120   47.0720 C   0  0  0  0  0  0  0  0  0  0  0  0
  179.1260   22.4590   47.8510 C   0  0  0  0  0  0  0  0  0  0  0  0
  177.8600   21.9510   48.1490 C   0  0  0  0  0  0  0  0  0  0  0  0
  177.4780   20.6970   47.6680 C   0  0  0  0  0  0  0  0  0  0  0  0
  178.3610   19.9540   46.8910 C   0  0  0  0  0  0  0  0  0  0  0  0
  177.9220   18.7350   46.4510 O   0  0  0  0  0  0  0  0  0  0  0  0
  179.6280   20.4620   46.5930 C   0  0  0  0  0  0  0  0  0  0  0  0
  180.5870   19.7130   45.7800 C   0  0  0  0  0  0  0  0  0  0  0  0
  180.3220   18.6070   45.3120 O   0  0  0  0  0  0  0  0  0  0  0  0
  181.9080   20.3360   45.5290 C   0  0  0  0  0  0  0  0  0  0  0  0
  182.8020   19.6270   44.7490 O   0  0  0  0  0  0  0  0  0  0  0  0
  184.2010   22.0990   44.7010 C   0  0  0  0  0  0  0  0  0  0  0  0
  185.4290   22.7650   44.5260 C   0  0  0  0  0  0  0  0  0  0  0  0
  186.1980   22.5580   43.2410 C   0  0  0  0  0  0  0  0  0  0  0  0
  185.5340   22.9960   42.1330 F   0  0  0  0  0  0  0  0  0  0  0  0
  186.4860   21.2500   42.9920 F   0  0  0  0  0  0  0  0  0  0  0  0
  187.5864   24.5942   46.4190 H   0  0  0  0  0  0  0  0  0  0  0  0
  187.9184   23.7502   44.8684 H   0  0  0  0  0  0  0  0  0  0  0  0
  187.0347   25.3141   44.8684 H   0  0  0  0  0  0  0  0  0  0  0  0
  185.4910   24.4466   47.5070 H   0  0  0  0  0  0  0  0  0  0  0  0
  183.3358   23.2453   47.7896 H   0  0  0  0  0  0  0  0  0  0  0  0
  179.4260   23.4471   48.2300 H   0  0  0  0  0  0  0  0  0  0  0  0
  177.1627   22.5394   48.7634 H   0  0  0  0  0  0  0  0  0  0  0  0
  176.4805   20.2973   47.9031 H   0  0  0  0  0  0  0  0  0  0  0  0
  177.3850   18.2030   47.0060 H   0  0  0  0  0  0  0  0  0  0  0  0
  182.6970   19.6050   43.8180 H   0  0  0  0  0  0  0  0  0  0  0  0
  183.8375   21.4281   43.9086 H   0  0  0  0  0  0  0  0  0  0  0  0
  187.1133   23.1441   43.4104 H   0  0  0  0  0  0  0  0  0  0  0  0
  1  2  1  0
  2  3  2  0
  3  4  1  0
  4  5  2  0
  5  6  1  0
  6  7  1  0
  7  8  1  0
  8  9  2  0
  9 10  1  0
 10 11  2  0
 11 12  1  0
 12 13  1  0
 12 14  2  0
 14 15  1  0
 15 16  2  0
 15 17  1  0
 17 18  1  0
  5 19  1  0
 19 20  2  0
 20 21  1  0
 21 22  1  0
 21 23  1  0
 20  2  1  0
 17  6  2  0
 14  8  1  0
  1 24  1  0
  1 25  1  0
  1 26  1  0
  3 27  1  0
  4 28  1  0
  9 29  1  0
 10 30  1  0
 11 31  1  0
 13 32  1  0
 18 33  1  0
 19 34  1  0
 21 35  1  0
M  END
>  <meeko>  (7) 
{"is_sidechain": [false], "free_energy": -5.851, "intermolecular_energy": -6.899, "internal_energy": -0.053}

$$$$
cand_014_out
     RDKit          3D

 35 37  0  0  0  0  0  0  0  0999 V2000
  179.5750   21.7720   48.0890 C   0  0  0  0  0  0  0  0  0  0  0  0
  179.7560   20.6160   47.1430 C   0  0  0  0  0  0  0  0  0  0  0  0
  181.0340   20.3490   46.6320 C   0  0  0  0  0  0  0  0  0  0  0  0
  181.2440   19.2930   45.7420 C   0  0  0  0  0  0  0  0  0  0  0  0
  180.1840   18.4740   45.3410 C   0  0  0  0  0  0  0  0  0  0  0  0
  180.4240   17.3730   44.3850 C   0  0  0  0  0  0  0  0  0  0  0  0
  180.7500   17.8230   43.1120 O   0  0  0  0  0  0  0  0  0  0  0  0
  180.9950   16.9000   42.1270 C   0  0  0  0  0  0  0  0  0  0  0  0
  181.3010   17.3920   40.8580 C   0  0  0  0  0  0  0  0  0  0  0  0
  181.5640   16.5070   39.8110 C   0  0  0  0  0  0  0  0  0  0  0  0
  181.5210   15.1290   40.0320 C   0  0  0  0  0  0  0  0  0  0  0  0
  181.2150   14.6390   41.2990 C   0  0  0  0  0  0  0  0  0  0  0  0
  181.1910   13.2790   41.4460 O   0  0  0  0  0  0  0  0  0  0  0  0
  180.9520   15.5250   42.3460 C   0  0  0  0  0  0  0  0  0  0  0  0
  180.6260   15.0520   43.6920 C   0  0  0  0  0  0  0  0  0  0  0  0
  180.5770   13.8560   43.9690 O   0  0  0  0  0  0  0  0  0  0  0  0
  180.3550   16.0740   44.7310 C   0  0  0  0  0  0  0  0  0  0  0  0
  180.0610   15.6180   46.0020 O   0  0  0  0  0  0  0  0  0  0  0  0
  178.9020   18.7550   45.8340 C   0  0  0  0  0  0  0  0  0  0  0  0
  178.6680   19.8200   46.7260 C   0  0  0  0  0  0  0  0  0  0  0  0
  177.2660   20.0510   47.2400 C   0  0  0  0  0  0  0  0  0  0  0  0
  176.4490   18.9690   47.0950 F   0  0  0  0  0  0  0  0  0  0  0  0
  176.6230   21.0730   46.6080 F   0  0  0  0  0  0  0  0  0  0  0  0
  179.6318   21.4095   49.1260 H   0  0  0  0  0  0  0  0  0  0  0  0
  180.3678   22.5147   47.9163 H   0  0  0  0  0  0  0  0  0  0  0  0
  178.5931   22.2369   47.9163 H   0  0  0  0  0  0  0  0  0  0  0  0
  181.8826   20.9795   46.9360 H   0  0  0  0  0  0  0  0  0  0  0  0
  182.2550   19.1035   45.3521 H   0  0  0  0  0  0  0  0  0  0  0  0
  181.3350   18.4774   40.6824 H   0  0  0  0  0  0  0  0  0  0  0  0
  181.8054   16.8957   38.8107 H   0  0  0  0  0  0  0  0  0  0  0  0
  181.7284   14.4318   39.2068 H   0  0  0  0  0  0  0  0  0  0  0  0
  180.8080   12.8980   42.2120 H   0  0  0  0  0  0  0  0  0  0  0  0
  180.4780   14.8470   46.3320 H   0  0  0  0  0  0  0  0  0  0  0  0
  178.0565   18.1273   45.5159 H   0  0  0  0  0  0  0  0  0  0  0  0
  177.4331   20.2804   48.3028 H   0  0  0  0  0  0  0  0  0  0  0  0
  1  2  1  0
  2  3  2  0
  3  4  1  0
  4  5  2  0
  5  6  1  0
  6  7  1  0
  7  8  1  0
  8  9  2  0
  9 10  1  0
 10 11  2  0
 11 12  1  0
 12 13  1  0
 12 14  2  0
 14 15  1  0
 15 16  2  0
 15 17  1  0
 17 18  1  0
  5 19  1  0
 19 20  2  0
 20 21  1  0
 21 22  1  0
 21 23  1  0
 20  2  1  0
 17  6  2  0
 14  8  1  0
  1 24  1  0
  1 25  1  0
  1 26  1  0
  3 27  1  0
  4 28  1  0
  9 29  1  0
 10 30  1  0
 11 31  1  0
 13 32  1  0
 18 33  1  0
 19 34  1  0
 21 35  1  0
M  END
>  <meeko>  (8) 
{"is_sidechain": [false], "free_energy": -5.838, "intermolecular_energy": -6.448, "internal_energy": -0.488}

$$$$
