cand_035_out
     RDKit          3D

 36 38  0  0  0  0  0  0  0  0999 V2000
   67.7040   38.8490   -0.1680 C   0  0  0  0  0  0  0  0  0  0  0  0
   68.8740   38.8180    0.4790 C   0  0  0  0  0  0  0  0  0  0  0  0
   70.1550   38.8370   -0.2350 C   0  0  0  0  0  0  0  0  0  0  0  0
   70.4200   39.9300   -1.0760 C   0  0  0  0  0  0  0  0  0  0  0  0
   71.6220   40.0230   -1.7950 C   0  0  0  0  0  0  0  0  0  0  0  0
   71.8550   41.1740   -2.6920 C   0  0  0  0  0  0  0  0  0  0  0  0
   73.0280   41.8590   -2.3960 O   0  0  0  0  0  0  0  0  0  0  0  0
   73.3670   42.9510   -3.1530 C   0  0  0  0  0  0  0  0  0  0  0  0
   74.5460   43.6170   -2.8140 C   0  0  0  0  0  0  0  0  0  0  0  0
   74.9490   44.7360   -3.5460 C   0  0  0  0  0  0  0  0  0  0  0  0
   74.1750   45.1880   -4.6170 C   0  0  0  0  0  0  0  0  0  0  0  0
   73.0000   44.5220   -4.9530 C   0  0  0  0  0  0  0  0  0  0  0  0
   72.2920   45.0170   -6.0140 O   0  0  0  0  0  0  0  0  0  0  0  0
   72.5960   43.4020   -4.2210 C   0  0  0  0  0  0  0  0  0  0  0  0
   71.3680   42.6730   -4.5420 C   0  0  0  0  0  0  0  0  0  0  0  0
   70.6390   43.0040   -5.4740 O   0  0  0  0  0  0  0  0  0  0  0  0
   71.0260   41.5040   -3.6990 C   0  0  0  0  0  0  0  0  0  0  0  0
   69.8730   40.8130   -4.0190 O   0  0  0  0  0  0  0  0  0  0  0  0
   72.5530   38.9870   -1.6680 C   0  0  0  0  0  0  0  0  0  0  0  0
   72.2990   37.8950   -0.8330 C   0  0  0  0  0  0  0  0  0  0  0  0
   71.1030   37.8070   -0.1070 C   0  0  0  0  0  0  0  0  0  0  0  0
   70.8590   36.6150    0.7840 C   0  0  0  0  0  0  0  0  0  0  0  0
   71.9390   36.2790    1.5490 F   0  0  0  0  0  0  0  0  0  0  0  0
   66.7614   38.8335    0.3989 H   0  0  0  0  0  0  0  0  0  0  0  0
   67.6842   38.8900   -1.2671 H   0  0  0  0  0  0  0  0  0  0  0  0
   68.8757   38.7771    1.5782 H   0  0  0  0  0  0  0  0  0  0  0  0
   69.6706   40.7293   -1.1733 H   0  0  0  0  0  0  0  0  0  0  0  0
   75.1569   43.2609   -1.9714 H   0  0  0  0  0  0  0  0  0  0  0  0
   75.8773   45.2621   -3.2786 H   0  0  0  0  0  0  0  0  0  0  0  0
   74.4934   46.0688   -5.1939 H   0  0  0  0  0  0  0  0  0  0  0  0
   72.7300   45.5010   -6.6860 H   0  0  0  0  0  0  0  0  0  0  0  0
   69.4850   40.9160   -4.8660 H   0  0  0  0  0  0  0  0  0  0  0  0
   73.4964   39.0320   -2.2319 H   0  0  0  0  0  0  0  0  0  0  0  0
   73.0477   37.0940   -0.7444 H   0  0  0  0  0  0  0  0  0  0  0  0
   70.0166   36.8462    1.4526 H   0  0  0  0  0  0  0  0  0  0  0  0
   70.6466   35.7578    0.1282 H   0  0  0  0  0  0  0  0  0  0  0  0
  1  2  2  0
  2  3  1  0
  3  4  2  0
  4  5  1  0
  5  6  1  0
  6  7  1  0
  7  8  1  0
  8  9  2  0
  9 10  1  0
 10 11  2  0
 11 12  1  0
 12 13  1  0
 12 14  2  0
 14 15  1  0
 15 16  2  0
 15 17  1  0
 17 18  1  0
  5 19  2  0
 19 20  1  0
 20 21  2  0
 21 22  1  0
 22 23  1  0
 21  3  1  0
 17  6  2  0
 14  8  1  0
  1 24  1  0
  1 25  1  0
  2 26  1  0
  4 27  1  0
  9 28  1  0
 10 29  1  0
 11 30  1  0
 13 31  1  0
 18 32  1  0
 19 33  1  0
 20 34  1  0
 22 35  1  0
 22 36  1  0
M  END
>  <meeko>  (1) 
{"is_sidechain": [false], "free_energy": -7.892, "intermolecular_energy": -9.738, "internal_energy": -0.338}

$$$$
cand_035_out
     RDKit          3D

 36 38  0  0  0  0  0  0  0  0999 V2000
   73.3000   39.1360   -0.9910 C   0  0  0  0  0  0  0  0  0  0  0  0
   72.4460   39.2430    0.0340 C   0  0  0  0  0  0  0  0  0  0  0  0
   70.9940   39.2720   -0.1680 C   0  0  0  0  0  0  0  0  0  0  0  0
   70.4630   40.3020   -0.9630 C   0  0  0  0  0  0  0  0  0  0  0  0
   69.0850   40.4010   -1.2040 C   0  0  0  0  0  0  0  0  0  0  0  0
   68.5590   41.5140   -2.0220 C   0  0  0  0  0  0  0  0  0  0  0  0
   67.6730   42.3260   -1.3230 O   0  0  0  0  0  0  0  0  0  0  0  0
   67.1090   43.3980   -1.9650 C   0  0  0  0  0  0  0  0  0  0  0  0
   66.2140   44.1780   -1.2300 C   0  0  0  0  0  0  0  0  0  0  0  0
   65.6060   45.2870   -1.8240 C   0  0  0  0  0  0  0  0  0  0  0  0
   65.8920   45.6150   -3.1510 C   0  0  0  0  0  0  0  0  0  0  0  0
   66.7850   44.8340   -3.8820 C   0  0  0  0  0  0  0  0  0  0  0  0
   67.0200   45.2130   -5.1750 O   0  0  0  0  0  0  0  0  0  0  0  0
   67.3930   43.7250   -3.2870 C   0  0  0  0  0  0  0  0  0  0  0  0
   68.3370   42.8800   -4.0200 C   0  0  0  0  0  0  0  0  0  0  0  0
   68.6450   43.1080   -5.1870 O   0  0  0  0  0  0  0  0  0  0  0  0
   68.9210   41.7240   -3.3010 C   0  0  0  0  0  0  0  0  0  0  0  0
   69.8220   40.9400   -3.9950 O   0  0  0  0  0  0  0  0  0  0  0  0
   68.2380   39.4530   -0.6180 C   0  0  0  0  0  0  0  0  0  0  0  0
   68.7560   38.4250    0.1740 C   0  0  0  0  0  0  0  0  0  0  0  0
   70.1350   38.3190    0.4060 C   0  0  0  0  0  0  0  0  0  0  0  0
   70.6620   37.1980    1.2660 C   0  0  0  0  0  0  0  0  0  0  0  0
   70.6400   35.9820    0.6460 F   0  0  0  0  0  0  0  0  0  0  0  0
   74.3839   39.1172   -0.8042 H   0  0  0  0  0  0  0  0  0  0  0  0
   72.9180   39.0669   -2.0202 H   0  0  0  0  0  0  0  0  0  0  0  0
   72.8447   39.3111    1.0569 H   0  0  0  0  0  0  0  0  0  0  0  0
   71.1421   41.0458   -1.4053 H   0  0  0  0  0  0  0  0  0  0  0  0
   65.9879   43.9198   -0.1849 H   0  0  0  0  0  0  0  0  0  0  0  0
   64.9012   45.9025   -1.2457 H   0  0  0  0  0  0  0  0  0  0  0  0
   65.4133   46.4882   -3.6183 H   0  0  0  0  0  0  0  0  0  0  0  0
   67.8060   44.9420   -5.6080 H   0  0  0  0  0  0  0  0  0  0  0  0
   70.6560   40.7370   -3.6180 H   0  0  0  0  0  0  0  0  0  0  0  0
   67.1524   39.5181   -0.7829 H   0  0  0  0  0  0  0  0  0  0  0  0
   68.0726   37.6885    0.6218 H   0  0  0  0  0  0  0  0  0  0  0  0
   71.7012   37.4296    1.5423 H   0  0  0  0  0  0  0  0  0  0  0  0
   70.0040   37.1262    2.1446 H   0  0  0  0  0  0  0  0  0  0  0  0
  1  2  2  0
  2  3  1  0
  3  4  2  0
  4  5  1  0
  5  6  1  0
  6  7  1  0
  7  8  1  0
  8  9  2  0
  9 10  1  0
 10 11  2  0
 11 12  1  0
 12 13  1  0
 12 14  2  0
 14 15  1  0
 15 16  2  0
 15 17  1  0
 17 18  1  0
  5 19  2  0
 19 20  1  0
 20 21  2  0
 21 22  1  0
 22 23  1  0
 21  3  1  0
 17  6  2  0
 14  8  1  0
  1 24  1  0
  1 25  1  0
  2 26  1  0
  4 27  1  0
  9 28  1  0
 10 29  1  0
 11 30  1  0
 13 31  1  0
 18 32  1  0
 19 33  1  0
 20 34  1  0
 22 35  1  0
 22 36  1  0
M  END
>  <meeko>  (2) 
{"is_sidechain": [false], "free_energy": -7.649, "intermolecular_energy": -9.367, "internal_energy": -0.409}

$$$$
cand_035_out
     RDKit          3D

 36 38  0  0  0  0  0  0  0  0999 V2000
   76.1330   42.4920   -1.6860 C   0  0  0  0  0  0  0  0  0  0  0  0
   75.4020   43.3460   -2.4120 C   0  0  0  0  0  0  0  0  0  0  0  0
   74.3900   42.8830   -3.3660 C   0  0  0  0  0  0  0  0  0  0  0  0
   73.1680   42.4180   -2.8520 C   0  0  0  0  0  0  0  0  0  0  0  0
   72.1480   41.9570   -3.6980 C   0  0  0  0  0  0  0  0  0  0  0  0
   70.8860   41.4510   -3.1210 C   0  0  0  0  0  0  0  0  0  0  0  0
   71.0900   40.5860   -2.0520 O   0  0  0  0  0  0  0  0  0  0  0  0
   70.0000   40.0410   -1.4220 C   0  0  0  0  0  0  0  0  0  0  0  0
   70.2510   39.1680   -0.3630 C   0  0  0  0  0  0  0  0  0  0  0  0
   69.1850   38.5800    0.3230 C   0  0  0  0  0  0  0  0  0  0  0  0
   67.8700   38.8660   -0.0500 C   0  0  0  0  0  0  0  0  0  0  0  0
   67.6230   39.7380   -1.1080 C   0  0  0  0  0  0  0  0  0  0  0  0
   66.3120   39.9740   -1.4190 O   0  0  0  0  0  0  0  0  0  0  0  0
   68.6890   40.3260   -1.7940 C   0  0  0  0  0  0  0  0  0  0  0  0
   68.4720   41.2470   -2.9100 C   0  0  0  0  0  0  0  0  0  0  0  0
   67.3460   41.5540   -3.2920 O   0  0  0  0  0  0  0  0  0  0  0  0
   69.6710   41.8100   -3.5750 C   0  0  0  0  0  0  0  0  0  0  0  0
   69.4570   42.6910   -4.6180 O   0  0  0  0  0  0  0  0  0  0  0  0
   72.3810   41.9530   -5.0780 C   0  0  0  0  0  0  0  0  0  0  0  0
   73.5930   42.4130   -5.6000 C   0  0  0  0  0  0  0  0  0  0  0  0
   74.6090   42.8840   -4.7550 C   0  0  0  0  0  0  0  0  0  0  0  0
   75.9060   43.3720   -5.3500 C   0  0  0  0  0  0  0  0  0  0  0  0
   76.8890   42.4230   -5.3600 F   0  0  0  0  0  0  0  0  0  0  0  0
   76.8842   42.8741   -0.9791 H   0  0  0  0  0  0  0  0  0  0  0  0
   75.9827   41.4079   -1.7961 H   0  0  0  0  0  0  0  0  0  0  0  0
   75.5653   44.4269   -2.2893 H   0  0  0  0  0  0  0  0  0  0  0  0
   73.0075   42.4153   -1.7638 H   0  0  0  0  0  0  0  0  0  0  0  0
   71.2867   38.9429   -0.0685 H   0  0  0  0  0  0  0  0  0  0  0  0
   69.3819   37.8911    1.1577 H   0  0  0  0  0  0  0  0  0  0  0  0
   67.0309   38.4037    0.4905 H   0  0  0  0  0  0  0  0  0  0  0  0
   65.9410   40.8230   -1.2760 H   0  0  0  0  0  0  0  0  0  0  0  0
   69.2530   43.5880   -4.4400 H   0  0  0  0  0  0  0  0  0  0  0  0
   71.6009   41.5834   -5.7598 H   0  0  0  0  0  0  0  0  0  0  0  0
   73.7525   42.4057   -6.6883 H   0  0  0  0  0  0  0  0  0  0  0  0
   75.7169   43.6891   -6.3862 H   0  0  0  0  0  0  0  0  0  0  0  0
   76.2610   44.2009   -4.7199 H   0  0  0  0  0  0  0  0  0  0  0  0
  1  2  2  0
  2  3  1  0
  3  4  2  0
  4  5  1  0
  5  6  1  0
  6  7  1  0
  7  8  1  0
  8  9  2  0
  9 10  1  0
 10 11  2  0
 11 12  1  0
 12 13  1  0
 12 14  2  0
 14 15  1  0
 15 16  2  0
 15 17  1  0
 17 18  1  0
  5 19  2  0
 19 20  1  0
 20 21  2  0
 21 22  1  0
 22 23  1  0
 21  3  1  0
 17  6  2  0
 14  8  1  0
  1 24  1  0
  1 25  1  0
  2 26  1  0
  4 27  1  0
  9 28  1  0
 10 29  1  0
 11 30  1  0
 13 31  1  0
 18 32  1  0
 19 33  1  0
 20 34  1  0
 22 35  1  0
 22 36  1  0
M  END
>  <meeko>  (3) 
{"is_sidechain": [false], "free_energy": -7.551, "intermolecular_energy": -9.278, "internal_energy": -0.376}

$$$$
cand_035_out
     RDKit          3D

 36 38  0  0  0  0  0  0  0  0999 V2000
   76.3620   43.2100   -2.0890 C   0  0  0  0  0  0  0  0  0  0  0  0
   75.4260   43.8080   -2.8350 C   0  0  0  0  0  0  0  0  0  0  0  0
   74.3430   43.0510   -3.4710 C   0  0  0  0  0  0  0  0  0  0  0  0
   73.5460   42.2330   -2.6520 C   0  0  0  0  0  0  0  0  0  0  0  0
   72.4900   41.4770   -3.1840 C   0  0  0  0  0  0  0  0  0  0  0  0
   71.6900   40.6060   -2.2970 C   0  0  0  0  0  0  0  0  0  0  0  0
   72.4310   39.5650   -1.7500 O   0  0  0  0  0  0  0  0  0  0  0  0
   71.8100   38.6800   -0.9070 C   0  0  0  0  0  0  0  0  0  0  0  0
   72.5880   37.6430   -0.3910 C   0  0  0  0  0  0  0  0  0  0  0  0
   72.0170   36.7080    0.4750 C   0  0  0  0  0  0  0  0  0  0  0  0
   70.6690   36.8100    0.8250 C   0  0  0  0  0  0  0  0  0  0  0  0
   69.8950   37.8470    0.3090 C   0  0  0  0  0  0  0  0  0  0  0  0
   68.5830   37.8880    0.6950 O   0  0  0  0  0  0  0  0  0  0  0  0
   70.4670   38.7820   -0.5580 C   0  0  0  0  0  0  0  0  0  0  0  0
   69.6880   39.8860   -1.1210 C   0  0  0  0  0  0  0  0  0  0  0  0
   68.5000   40.0480   -0.8550 O   0  0  0  0  0  0  0  0  0  0  0  0
   70.3870   40.8180   -2.0360 C   0  0  0  0  0  0  0  0  0  0  0  0
   69.6480   41.8660   -2.5520 O   0  0  0  0  0  0  0  0  0  0  0  0
   72.2540   41.5410   -4.5610 C   0  0  0  0  0  0  0  0  0  0  0  0
   73.0410   42.3520   -5.3840 C   0  0  0  0  0  0  0  0  0  0  0  0
   74.0900   43.1160   -4.8520 C   0  0  0  0  0  0  0  0  0  0  0  0
   74.9210   43.9800   -5.7670 C   0  0  0  0  0  0  0  0  0  0  0  0
   76.1430   43.4430   -6.0590 F   0  0  0  0  0  0  0  0  0  0  0  0
   77.1610   43.8077   -1.6259 H   0  0  0  0  0  0  0  0  0  0  0  0
   76.3325   42.1207   -1.9388 H   0  0  0  0  0  0  0  0  0  0  0  0
   75.4701   44.8981   -2.9752 H   0  0  0  0  0  0  0  0  0  0  0  0
   73.7539   42.1843   -1.5729 H   0  0  0  0  0  0  0  0  0  0  0  0
   73.6500   37.5621   -0.6661 H   0  0  0  0  0  0  0  0  0  0  0  0
   72.6298   35.8902    0.8819 H   0  0  0  0  0  0  0  0  0  0  0  0
   70.2193   36.0731    1.5067 H   0  0  0  0  0  0  0  0  0  0  0  0
   68.0670   38.6510    0.5240 H   0  0  0  0  0  0  0  0  0  0  0  0
   69.2620   41.7930   -3.4030 H   0  0  0  0  0  0  0  0  0  0  0  0
   71.4400   40.9465   -5.0014 H   0  0  0  0  0  0  0  0  0  0  0  0
   72.8347   42.3915   -6.4638 H   0  0  0  0  0  0  0  0  0  0  0  0
   74.3692   44.1229   -6.7078 H   0  0  0  0  0  0  0  0  0  0  0  0
   75.1009   44.9297   -5.2419 H   0  0  0  0  0  0  0  0  0  0  0  0
  1  2  2  0
  2  3  1  0
  3  4  2  0
  4  5  1  0
  5  6  1  0
  6  7  1  0
  7  8  1  0
  8  9  2  0
  9 10  1  0
 10 11  2  0
 11 12  1  0
 12 13  1  0
 12 14  2  0
 14 15  1  0
 15 16  2  0
 15 17  1  0
 17 18  1  0
  5 19  2  0
 19 20  1  0
 20 21  2  0
 21 22  1  0
 22 23  1  0
 21  3  1  0
 17  6  2  0
 14  8  1  0
  1 24  1  0
  1 25  1  0
  2 26  1  0
  4 27  1  0
  9 28  1  0
 10 29  1  0
 11 30  1  0
 13 31  1  0
 18 32  1  0
 19 33  1  0
 20 34  1  0
 22 35  1  0
 22 36  1  0
M  END
>  <meeko>  (4) 
{"is_sidechain": [false], "free_energy": -7.534, "intermolecular_energy": -9.093, "internal_energy": -0.54}

$$$$
cand_035_out
     RDKit          3D

 36 38  0  0  0  0  0  0  0  0999 V2000
   69.8220   42.9620   -1.0950 C   0  0  0  0  0  0  0  0  0  0  0  0
   70.2760   41.8330   -0.5390 C   0  0  0  0  0  0  0  0  0  0  0  0
   71.1900   40.9330   -1.2490 C   0  0  0  0  0  0  0  0  0  0  0  0
   72.1620   41.5110   -2.0840 C   0  0  0  0  0  0  0  0  0  0  0  0
   73.0740   40.7190   -2.7980 C   0  0  0  0  0  0  0  0  0  0  0  0
   74.0640   41.3590   -3.6880 C   0  0  0  0  0  0  0  0  0  0  0  0
   73.5180   41.7670   -4.9000 O   0  0  0  0  0  0  0  0  0  0  0  0
   74.3290   42.3780   -5.8210 C   0  0  0  0  0  0  0  0  0  0  0  0
   73.7430   42.7580   -7.0290 C   0  0  0  0  0  0  0  0  0  0  0  0
   74.5130   43.3860   -8.0100 C   0  0  0  0  0  0  0  0  0  0  0  0
   75.8690   43.6340   -7.7830 C   0  0  0  0  0  0  0  0  0  0  0  0
   76.4510   43.2530   -6.5770 C   0  0  0  0  0  0  0  0  0  0  0  0
   77.7830   43.5280   -6.4210 O   0  0  0  0  0  0  0  0  0  0  0  0
   75.6800   42.6240   -5.5960 C   0  0  0  0  0  0  0  0  0  0  0  0
   76.2540   42.2090   -4.3150 C   0  0  0  0  0  0  0  0  0  0  0  0
   77.4350   42.3990   -4.0380 O   0  0  0  0  0  0  0  0  0  0  0  0
   75.3530   41.5440   -3.3460 C   0  0  0  0  0  0  0  0  0  0  0  0
   75.8990   41.1680   -2.1330 O   0  0  0  0  0  0  0  0  0  0  0  0
   72.9850   39.3280   -2.6740 C   0  0  0  0  0  0  0  0  0  0  0  0
   72.0220   38.7440   -1.8470 C   0  0  0  0  0  0  0  0  0  0  0  0
   71.1170   39.5350   -1.1240 C   0  0  0  0  0  0  0  0  0  0  0  0
   70.0900   38.8730   -0.2410 C   0  0  0  0  0  0  0  0  0  0  0  0
   70.3300   37.5460   -0.0300 F   0  0  0  0  0  0  0  0  0  0  0  0
   69.1370   43.6147   -0.5339 H   0  0  0  0  0  0  0  0  0  0  0  0
   70.1337   43.2376   -2.1133 H   0  0  0  0  0  0  0  0  0  0  0  0
   69.9543   41.5725    0.4801 H   0  0  0  0  0  0  0  0  0  0  0  0
   72.2086   42.6059   -2.1795 H   0  0  0  0  0  0  0  0  0  0  0  0
   72.6754   42.5630   -7.2083 H   0  0  0  0  0  0  0  0  0  0  0  0
   74.0515   43.6858   -8.9625 H   0  0  0  0  0  0  0  0  0  0  0  0
   76.4756   44.1293   -8.5555 H   0  0  0  0  0  0  0  0  0  0  0  0
   78.2890   43.8270   -7.1510 H   0  0  0  0  0  0  0  0  0  0  0  0
   76.6620   40.6240   -2.1110 H   0  0  0  0  0  0  0  0  0  0  0  0
   73.6814   38.6867   -3.2342 H   0  0  0  0  0  0  0  0  0  0  0  0
   71.9729   37.6484   -1.7617 H   0  0  0  0  0  0  0  0  0  0  0  0
   70.0850   39.3854    0.7324 H   0  0  0  0  0  0  0  0  0  0  0  0
   69.1213   38.9495   -0.7566 H   0  0  0  0  0  0  0  0  0  0  0  0
  1  2  2  0
  2  3  1  0
  3  4  2  0
  4  5  1  0
  5  6  1  0
  6  7  1  0
  7  8  1  0
  8  9  2  0
  9 10  1  0
 10 11  2  0
 11 12  1  0
 12 13  1  0
 12 14  2  0
 14 15  1  0
 15 16  2  0
 15 17  1  0
 17 18  1  0
  5 19  2  0
 19 20  1  0
 20 21  2  0
 21 22  1  0
 22 23  1  0
 21  3  1  0
 17  6  2  0
 14  8  1  0
  1 24  1  0
  1 25  1  0
  2 26  1  0
  4 27  1  0
  9 28  1  0
 10 29  1  0
 11 30  1  0
 13 31  1  0
 18 32  1  0
 19 33  1  0
 20 34  1  0
 22 35  1  0
 22 36  1  0
M  END
>  <meeko>  (5) 
{"is_sidechain": [false], "free_energy": -7.53, "intermolecular_energy": -9.094, "internal_energy": -0.535}

$$$$
cand_035_out
     RDKit          3D

 36 38  0  0  0  0  0  0  0  0999 V2000
   67.5360   38.9150   -0.2320 C   0  0  0  0  0  0  0  0  0  0  0  0
   68.6380   38.6240    0.4690 C   0  0  0  0  0  0  0  0  0  0  0  0
   69.9690   38.6310   -0.1450 C   0  0  0  0  0  0  0  0  0  0  0  0
   70.2370   39.6060   -1.1200 C   0  0  0  0  0  0  0  0  0  0  0  0
   71.4860   39.6800   -1.7550 C   0  0  0  0  0  0  0  0  0  0  0  0
   71.7230   40.7020   -2.7960 C   0  0  0  0  0  0  0  0  0  0  0  0
   70.5790   41.4250   -3.1130 O   0  0  0  0  0  0  0  0  0  0  0  0
   70.6580   42.4080   -4.0660 C   0  0  0  0  0  0  0  0  0  0  0  0
   69.4830   43.1000   -4.3630 C   0  0  0  0  0  0  0  0  0  0  0  0
   69.4960   44.1140   -5.3230 C   0  0  0  0  0  0  0  0  0  0  0  0
   70.6830   44.4370   -5.9850 C   0  0  0  0  0  0  0  0  0  0  0  0
   71.8540   43.7450   -5.6860 C   0  0  0  0  0  0  0  0  0  0  0  0
   72.9800   44.1130   -6.3710 O   0  0  0  0  0  0  0  0  0  0  0  0
   71.8410   42.7290   -4.7260 C   0  0  0  0  0  0  0  0  0  0  0  0
   73.0500   41.9790   -4.3830 C   0  0  0  0  0  0  0  0  0  0  0  0
   74.1320   42.2090   -4.9150 O   0  0  0  0  0  0  0  0  0  0  0  0
   72.9270   40.9180   -3.3570 C   0  0  0  0  0  0  0  0  0  0  0  0
   74.0770   40.2240   -3.0280 O   0  0  0  0  0  0  0  0  0  0  0  0
   72.4650   38.7430   -1.4060 C   0  0  0  0  0  0  0  0  0  0  0  0
   72.2090   37.7680   -0.4380 C   0  0  0  0  0  0  0  0  0  0  0  0
   70.9640   37.7010    0.2050 C   0  0  0  0  0  0  0  0  0  0  0  0
   70.7190   36.6360    1.2450 C   0  0  0  0  0  0  0  0  0  0  0  0
   71.8670   36.1050    1.7580 F   0  0  0  0  0  0  0  0  0  0  0  0
   66.5519   38.9007    0.2593 H   0  0  0  0  0  0  0  0  0  0  0  0
   67.6142   39.1685   -1.2995 H   0  0  0  0  0  0  0  0  0  0  0  0
   68.5424   38.3726    1.5356 H   0  0  0  0  0  0  0  0  0  0  0  0
   69.4513   40.3265   -1.3913 H   0  0  0  0  0  0  0  0  0  0  0  0
   68.5480   42.8470   -3.8416 H   0  0  0  0  0  0  0  0  0  0  0  0
   68.5701   44.6593   -5.5583 H   0  0  0  0  0  0  0  0  0  0  0  0
   70.6927   45.2362   -6.7408 H   0  0  0  0  0  0  0  0  0  0  0  0
   73.6210   43.4690   -6.5990 H   0  0  0  0  0  0  0  0  0  0  0  0
   74.8180   40.6810   -2.6820 H   0  0  0  0  0  0  0  0  0  0  0  0
   73.4476   38.7742   -1.8994 H   0  0  0  0  0  0  0  0  0  0  0  0
   72.9943   37.0434   -0.1768 H   0  0  0  0  0  0  0  0  0  0  0  0
   70.1414   37.0799    2.0692 H   0  0  0  0  0  0  0  0  0  0  0  0
   70.1756   35.8177    0.7500 H   0  0  0  0  0  0  0  0  0  0  0  0
  1  2  2  0
  2  3  1  0
  3  4  2  0
  4  5  1  0
  5  6  1  0
  6  7  1  0
  7  8  1  0
  8  9  2  0
  9 10  1  0
 10 11  2  0
 11 12  1  0
 12 13  1  0
 12 14  2  0
 14 15  1  0
 15 16  2  0
 15 17  1  0
 17 18  1  0
  5 19  2  0
 19 20  1  0
 20 21  2  0
 21 22  1  0
 22 23  1  0
 21  3  1  0
 17  6  2  0
 14  8  1  0
  1 24  1  0
  1 25  1  0
  2 26  1  0
  4 27  1  0
  9 28  1  0
 10 29  1  0
 11 30  1  0
 13 31  1  0
 18 32  1  0
 19 33  1  0
 20 34  1  0
 22 35  1  0
 22 36  1  0
M  END
>  <meeko>  (6) 
{"is_sidechain": [false], "free_energy": -7.504, "intermolecular_energy": -9.689, "internal_energy": 0.093}

$$$$
cand_035_out
     RDKit          3D

 36 38  0  0  0  0  0  0  0  0999 V2000
   75.1980   45.7820   -3.3130 C   0  0  0  0  0  0  0  0  0  0  0  0
   73.8610   45.7420   -3.2880 C   0  0  0  0  0  0  0  0  0  0  0  0
   73.1110   44.6000   -3.8210 C   0  0  0  0  0  0  0  0  0  0  0  0
   72.9260   43.4880   -2.9830 C   0  0  0  0  0  0  0  0  0  0  0  0
   72.2210   42.3550   -3.4170 C   0  0  0  0  0  0  0  0  0  0  0  0
   72.0700   41.1930   -2.5180 C   0  0  0  0  0  0  0  0  0  0  0  0
   70.7680   41.0350   -2.0540 O   0  0  0  0  0  0  0  0  0  0  0  0
   70.4880   39.9930   -1.2090 C   0  0  0  0  0  0  0  0  0  0  0  0
   69.1720   39.8800   -0.7560 C   0  0  0  0  0  0  0  0  0  0  0  0
   68.8190   38.8390    0.1060 C   0  0  0  0  0  0  0  0  0  0  0  0
   69.7800   37.9120    0.5140 C   0  0  0  0  0  0  0  0  0  0  0  0
   71.0920   38.0270    0.0610 C   0  0  0  0  0  0  0  0  0  0  0  0
   71.9820   37.0840    0.5000 O   0  0  0  0  0  0  0  0  0  0  0  0
   71.4450   39.0690   -0.8010 C   0  0  0  0  0  0  0  0  0  0  0  0
   72.8120   39.2240   -1.3000 C   0  0  0  0  0  0  0  0  0  0  0  0
   73.7110   38.4460   -0.9930 O   0  0  0  0  0  0  0  0  0  0  0  0
   73.0840   40.3670   -2.2040 C   0  0  0  0  0  0  0  0  0  0  0  0
   74.3740   40.4980   -2.6820 O   0  0  0  0  0  0  0  0  0  0  0  0
   71.7130   42.3490   -4.7210 C   0  0  0  0  0  0  0  0  0  0  0  0
   71.8910   43.4500   -5.5630 C   0  0  0  0  0  0  0  0  0  0  0  0
   72.5880   44.5870   -5.1260 C   0  0  0  0  0  0  0  0  0  0  0  0
   72.7630   45.7580   -6.0590 C   0  0  0  0  0  0  0  0  0  0  0  0
   73.7280   45.5580   -7.0050 F   0  0  0  0  0  0  0  0  0  0  0  0
   75.7299   46.6540   -2.9047 H   0  0  0  0  0  0  0  0  0  0  0  0
   75.7654   44.9429   -3.7419 H   0  0  0  0  0  0  0  0  0  0  0  0
   73.3088   46.5894   -2.8556 H   0  0  0  0  0  0  0  0  0  0  0  0
   73.3426   43.5057   -1.9651 H   0  0  0  0  0  0  0  0  0  0  0  0
   68.4143   40.6097   -1.0775 H   0  0  0  0  0  0  0  0  0  0  0  0
   67.7827   38.7495    0.4638 H   0  0  0  0  0  0  0  0  0  0  0  0
   69.5013   37.0920    1.1922 H   0  0  0  0  0  0  0  0  0  0  0  0
   72.8960   37.2850    0.5410 H   0  0  0  0  0  0  0  0  0  0  0  0
   75.0740   40.7000   -2.0930 H   0  0  0  0  0  0  0  0  0  0  0  0
   71.1671   41.4672   -5.0875 H   0  0  0  0  0  0  0  0  0  0  0  0
   71.4790   43.4251   -6.5826 H   0  0  0  0  0  0  0  0  0  0  0  0
   71.8066   45.9427   -6.5700 H   0  0  0  0  0  0  0  0  0  0  0  0
   73.0800   46.6158   -5.4478 H   0  0  0  0  0  0  0  0  0  0  0  0
  1  2  2  0
  2  3  1  0
  3  4  2  0
  4  5  1  0
  5  6  1  0
  6  7  1  0
  7  8  1  0
  8  9  2  0
  9 10  1  0
 10 11  2  0
 11 12  1  0
 12 13  1  0
 12 14  2  0
 14 15  1  0
 15 16  2  0
 15 17  1  0
 17 18  1  0
  5 19  2  0
 19 20  1  0
 20 21  2  0
 21 22  1  0
 22 23  1  0
 21  3  1  0
 17  6  2  0
 14  8  1  0
  1 24  1  0
  1 25  1  0
  2 26  1  0
  4 27  1  0
  9 28  1  0
 10 29  1  0
 11 30  1  0
 13 31  1  0
 18 32  1  0
 19 33  1  0
 20 34  1  0
 22 35  1  0
 22 36  1  0
M  END
>  <meeko>  (7) 
{"is_sidechain": [false], "free_energy": -7.47, "intermolecular_energy": -9.024, "internal_energy": -0.531}

$$$$
cand_035_out
     RDKit          3D

 36 38  0  0  0  0  0  0  0  0999 V2000
   76.6020   42.8340   -1.7690 C   0  0  0  0  0  0  0  0  0  0  0  0
   75.8900   43.4290   -2.7330 C   0  0  0  0  0  0  0  0  0  0  0  0
   74.7230   42.7840   -3.3440 C   0  0  0  0  0  0  0  0  0  0  0  0
   73.9190   41.9730   -2.5250 C   0  0  0  0  0  0  0  0  0  0  0  0
   72.7850   41.3200   -3.0330 C   0  0  0  0  0  0  0  0  0  0  0  0
   71.9780   40.4530   -2.1500 C   0  0  0  0  0  0  0  0  0  0  0  0
   70.6250   40.7740   -2.1690 O   0  0  0  0  0  0  0  0  0  0  0  0
   69.7600   40.0470   -1.3920 C   0  0  0  0  0  0  0  0  0  0  0  0
   68.4130   40.4110   -1.4310 C   0  0  0  0  0  0  0  0  0  0  0  0
   67.4800   39.7090   -0.6650 C   0  0  0  0  0  0  0  0  0  0  0  0
   67.8920   38.6440    0.1380 C   0  0  0  0  0  0  0  0  0  0  0  0
   69.2360   38.2830    0.1750 C   0  0  0  0  0  0  0  0  0  0  0  0
   69.5700   37.2300    0.9830 O   0  0  0  0  0  0  0  0  0  0  0  0
   70.1710   38.9850   -0.5910 C   0  0  0  0  0  0  0  0  0  0  0  0
   71.5920   38.6370   -0.5800 C   0  0  0  0  0  0  0  0  0  0  0  0
   72.0310   37.7090    0.0940 O   0  0  0  0  0  0  0  0  0  0  0  0
   72.5010   39.4490   -1.4230 C   0  0  0  0  0  0  0  0  0  0  0  0
   73.8390   39.1040   -1.4190 O   0  0  0  0  0  0  0  0  0  0  0  0
   72.4780   41.4810   -4.3890 C   0  0  0  0  0  0  0  0  0  0  0  0
   73.2710   42.2850   -5.2110 C   0  0  0  0  0  0  0  0  0  0  0  0
   74.3990   42.9460   -4.7020 C   0  0  0  0  0  0  0  0  0  0  0  0
   75.2350   43.8050   -5.6160 C   0  0  0  0  0  0  0  0  0  0  0  0
   74.8830   45.1250   -5.5940 F   0  0  0  0  0  0  0  0  0  0  0  0
   77.4720   43.3461   -1.3321 H   0  0  0  0  0  0  0  0  0  0  0  0
   76.3173   41.8328   -1.4133 H   0  0  0  0  0  0  0  0  0  0  0  0
   76.1883   44.4303   -3.0770 H   0  0  0  0  0  0  0  0  0  0  0  0
   74.1836   41.8474   -1.4647 H   0  0  0  0  0  0  0  0  0  0  0  0
   68.0870   41.2494   -2.0641 H   0  0  0  0  0  0  0  0  0  0  0  0
   66.4184   39.9957   -0.6944 H   0  0  0  0  0  0  0  0  0  0  0  0
   67.1561   38.0911    0.7403 H   0  0  0  0  0  0  0  0  0  0  0  0
   68.9200   36.6010    1.2260 H   0  0  0  0  0  0  0  0  0  0  0  0
   74.3490   39.2130   -0.6400 H   0  0  0  0  0  0  0  0  0  0  0  0
   71.6018   40.9682   -4.8124 H   0  0  0  0  0  0  0  0  0  0  0  0
   73.0074   42.4016   -6.2726 H   0  0  0  0  0  0  0  0  0  0  0  0
   76.2876   43.7199   -5.3080 H   0  0  0  0  0  0  0  0  0  0  0  0
   75.0707   43.4427   -6.6415 H   0  0  0  0  0  0  0  0  0  0  0  0
  1  2  2  0
  2  3  1  0
  3  4  2  0
  4  5  1  0
  5  6  1  0
  6  7  1  0
  7  8  1  0
  8  9  2  0
  9 10  1  0
 10 11  2  0
 11 12  1  0
 12 13  1  0
 12 14  2  0
 14 15  1  0
 15 16  2  0
 15 17  1  0
 17 18  1  0
  5 19  2  0
 19 20  1  0
 20 21  2  0
 21 22  1  0
 22 23  1  0
 21  3  1  0
 17  6  2  0
 14  8  1  0
  1 24  1  0
  1 25  1  0
  2 26  1  0
  4 27  1  0
  9 28  1  0
 10 29  1  0
 11 30  1  0
 13 31  1  0
 18 32  1  0
 19 33  1  0
 20 34  1  0
 22 35  1  0
 22 36  1  0
M  END
>  <meeko>  (8) 
{"is_sidechain": [false], "free_energy": -7.459, "intermolecular_energy": -9.21, "internal_energy": -0.331}

$$$$
cand_035_out
     RDKit          3D

 36 38  0  0  0  0  0  0  0  0999 V2000
   70.8080   37.2920    1.0470 C   0  0  0  0  0  0  0  0  0  0  0  0
   70.3350   38.5400    1.1430 C   0  0  0  0  0  0  0  0  0  0  0  0
   70.1850   39.4040   -0.0320 C   0  0  0  0  0  0  0  0  0  0  0  0
   71.3320   40.0520   -0.5210 C   0  0  0  0  0  0  0  0  0  0  0  0
   71.2730   40.8950   -1.6410 C   0  0  0  0  0  0  0  0  0  0  0  0
   72.4940   41.5820   -2.1100 C   0  0  0  0  0  0  0  0  0  0  0  0
   72.2620   42.9020   -2.4820 O   0  0  0  0  0  0  0  0  0  0  0  0
   73.3120   43.6570   -2.9380 C   0  0  0  0  0  0  0  0  0  0  0  0
   73.0310   44.9710   -3.3140 C   0  0  0  0  0  0  0  0  0  0  0  0
   74.0560   45.7940   -3.7860 C   0  0  0  0  0  0  0  0  0  0  0  0
   75.3600   45.3040   -3.8800 C   0  0  0  0  0  0  0  0  0  0  0  0
   75.6370   43.9920   -3.5050 C   0  0  0  0  0  0  0  0  0  0  0  0
   76.9360   43.5770   -3.6220 O   0  0  0  0  0  0  0  0  0  0  0  0
   74.6110   43.1680   -3.0330 C   0  0  0  0  0  0  0  0  0  0  0  0
   74.8600   41.7840   -2.6280 C   0  0  0  0  0  0  0  0  0  0  0  0
   75.9810   41.2830   -2.6750 O   0  0  0  0  0  0  0  0  0  0  0  0
   73.7030   40.9930   -2.1490 C   0  0  0  0  0  0  0  0  0  0  0  0
   73.9500   39.6910   -1.7550 O   0  0  0  0  0  0  0  0  0  0  0  0
   70.0330   41.0930   -2.2590 C   0  0  0  0  0  0  0  0  0  0  0  0
   68.8860   40.4520   -1.7810 C   0  0  0  0  0  0  0  0  0  0  0  0
   68.9470   39.6010   -0.6680 C   0  0  0  0  0  0  0  0  0  0  0  0
   67.6910   38.9270   -0.1770 C   0  0  0  0  0  0  0  0  0  0  0  0
   66.6840   38.9150   -1.1000 F   0  0  0  0  0  0  0  0  0  0  0  0
   70.9077   36.6707    1.9492 H   0  0  0  0  0  0  0  0  0  0  0  0
   71.0972   36.8874    0.0658 H   0  0  0  0  0  0  0  0  0  0  0  0
   70.0505   38.9289    2.1319 H   0  0  0  0  0  0  0  0  0  0  0  0
   72.2961   39.8951   -0.0152 H   0  0  0  0  0  0  0  0  0  0  0  0
   72.0041   45.3580   -3.2388 H   0  0  0  0  0  0  0  0  0  0  0  0
   73.8356   46.8296   -4.0841 H   0  0  0  0  0  0  0  0  0  0  0  0
   76.1672   45.9534   -4.2497 H   0  0  0  0  0  0  0  0  0  0  0  0
   77.4240   43.3430   -2.8570 H   0  0  0  0  0  0  0  0  0  0  0  0
   73.5010   39.3330   -1.0140 H   0  0  0  0  0  0  0  0  0  0  0  0
   69.9600   41.7603   -3.1304 H   0  0  0  0  0  0  0  0  0  0  0  0
   67.9224   40.6175   -2.2850 H   0  0  0  0  0  0  0  0  0  0  0  0
   67.9340   37.8872    0.0871 H   0  0  0  0  0  0  0  0  0  0  0  0
   67.3309   39.5031    0.6881 H   0  0  0  0  0  0  0  0  0  0  0  0
  1  2  2  0
  2  3  1  0
  3  4  2  0
  4  5  1  0
  5  6  1  0
  6  7  1  0
  7  8  1  0
  8  9  2  0
  9 10  1  0
 10 11  2  0
 11 12  1  0
 12 13  1  0
 12 14  2  0
 14 15  1  0
 15 16  2  0
 15 17  1  0
 17 18  1  0
  5 19  2  0
 19 20  1  0
 20 21  2  0
 21 22  1  0
 22 23  1  0
 21  3  1  0
 17  6  2  0
 14  8  1  0
  1 24  1  0
  1 25  1  0
  2 26  1  0
  4 27  1  0
  9 28  1  0
 10 29  1  0
 11 30  1  0
 13 31  1  0
 18 32  1  0
 19 33  1  0
 20 34  1  0
 22 35  1  0
 22 36  1  0
M  END
>  <meeko>  (9) 
{"is_sidechain": [false], "free_energy": -7.417, "intermolecular_energy": -9.362, "internal_energy": -0.126}

$$$$
