cand_014_out
     RDKit          3D

 35 37  0  0  0  0  0  0  0  0999 V2000
   70.5870   36.9190    1.4780 C   0  0  0  0  0  0  0  0  0  0  0  0
   70.3420   38.0100    0.4710 C   0  0  0  0  0  0  0  0  0  0  0  0
   69.1000   38.6610    0.4620 C   0  0  0  0  0  0  0  0  0  0  0  0
   68.8270   39.6720   -0.4630 C   0  0  0  0  0  0  0  0  0  0  0  0
   69.7880   40.0600   -1.4020 C   0  0  0  0  0  0  0  0  0  0  0  0
   69.4720   41.1190   -2.3830 C   0  0  0  0  0  0  0  0  0  0  0  0
   70.5270   42.0000   -2.5870 O   0  0  0  0  0  0  0  0  0  0  0  0
   70.3630   43.0340   -3.4740 C   0  0  0  0  0  0  0  0  0  0  0  0
   71.4400   43.9070   -3.6370 C   0  0  0  0  0  0  0  0  0  0  0  0
   71.3400   44.9780   -4.5260 C   0  0  0  0  0  0  0  0  0  0  0  0
   70.1650   45.1780   -5.2530 C   0  0  0  0  0  0  0  0  0  0  0  0
   69.0920   44.3060   -5.0890 C   0  0  0  0  0  0  0  0  0  0  0  0
   67.9720   44.5590   -5.8330 O   0  0  0  0  0  0  0  0  0  0  0  0
   69.1920   43.2340   -4.1990 C   0  0  0  0  0  0  0  0  0  0  0  0
   68.0870   42.2950   -3.9980 C   0  0  0  0  0  0  0  0  0  0  0  0
   67.0240   42.3980   -4.6060 O   0  0  0  0  0  0  0  0  0  0  0  0
   68.2910   41.1970   -3.0240 C   0  0  0  0  0  0  0  0  0  0  0  0
   67.2480   40.3070   -2.8500 O   0  0  0  0  0  0  0  0  0  0  0  0
   71.0210   39.3940   -1.4080 C   0  0  0  0  0  0  0  0  0  0  0  0
   71.3130   38.3670   -0.4880 C   0  0  0  0  0  0  0  0  0  0  0  0
   72.6730   37.7080   -0.5330 C   0  0  0  0  0  0  0  0  0  0  0  0
   72.6270   36.3560   -0.3620 F   0  0  0  0  0  0  0  0  0  0  0  0
   73.5220   38.1630    0.4310 F   0  0  0  0  0  0  0  0  0  0  0  0
   70.4946   37.3303    2.4940 H   0  0  0  0  0  0  0  0  0  0  0  0
   69.8464   36.1178    1.3381 H   0  0  0  0  0  0  0  0  0  0  0  0
   71.5990   36.5114    1.3381 H   0  0  0  0  0  0  0  0  0  0  0  0
   68.3304   38.3719    1.1929 H   0  0  0  0  0  0  0  0  0  0  0  0
   67.8453   40.1682   -0.4525 H   0  0  0  0  0  0  0  0  0  0  0  0
   72.3667   43.7508   -3.0652 H   0  0  0  0  0  0  0  0  0  0  0  0
   72.1886   45.6660   -4.6542 H   0  0  0  0  0  0  0  0  0  0  0  0
   70.0871   46.0224   -5.9536 H   0  0  0  0  0  0  0  0  0  0  0  0
   67.1230   44.4610   -5.4490 H   0  0  0  0  0  0  0  0  0  0  0  0
   67.3320   39.5970   -2.2440 H   0  0  0  0  0  0  0  0  0  0  0  0
   71.7808   39.6803   -2.1501 H   0  0  0  0  0  0  0  0  0  0  0  0
   73.0349   37.9667   -1.5391 H   0  0  0  0  0  0  0  0  0  0  0  0
  1  2  1  0
  2  3  2  0
  3  4  1  0
  4  5  2  0
  5  6  1  0
  6  7  1  0
  7  8  1  0
  8  9  2  0
  9 10  1  0
 10 11  2  0
 11 12  1  0
 12 13  1  0
 12 14  2  0
 14 15  1  0
 15 16  2  0
 15 17  1  0
 17 18  1  0
  5 19  1  0
 19 20  2  0
 20 21  1  0
 21 22  1  0
 21 23  1  0
 20  2  1  0
 17  6  2  0
 14  8  1  0
  1 24  1  0
  1 25  1  0
  1 26  1  0
  3 27  1  0
  4 28  1  0
  9 29  1  0
 10 30  1  0
 11 31  1  0
 13 32  1  0
 18 33  1  0
 19 34  1  0
 21 35  1  0
M  END
>  <meeko>  (1) 
{"is_sidechain": [false], "free_energy": -8.43, "intermolecular_energy": -9.909, "internal_energy": 0.131}

$$$$
cand_014_out
     RDKit          3D

 35 37  0  0  0  0  0  0  0  0999 V2000
   75.7530   43.7050   -5.1990 C   0  0  0  0  0  0  0  0  0  0  0  0
   74.8900   42.8280   -4.3330 C   0  0  0  0  0  0  0  0  0  0  0  0
   73.6550   42.3850   -4.8290 C   0  0  0  0  0  0  0  0  0  0  0  0
   72.8180   41.5790   -4.0540 C   0  0  0  0  0  0  0  0  0  0  0  0
   73.1930   41.1920   -2.7630 C   0  0  0  0  0  0  0  0  0  0  0  0
   72.2850   40.3540   -1.9530 C   0  0  0  0  0  0  0  0  0  0  0  0
   70.9550   40.7430   -2.0520 O   0  0  0  0  0  0  0  0  0  0  0  0
   70.0080   40.0470   -1.3450 C   0  0  0  0  0  0  0  0  0  0  0  0
   68.6870   40.4820   -1.4580 C   0  0  0  0  0  0  0  0  0  0  0  0
   67.6730   39.8160   -0.7660 C   0  0  0  0  0  0  0  0  0  0  0  0
   67.9790   38.7160    0.0380 C   0  0  0  0  0  0  0  0  0  0  0  0
   69.2980   38.2850    0.1490 C   0  0  0  0  0  0  0  0  0  0  0  0
   69.5280   37.2010    0.9520 O   0  0  0  0  0  0  0  0  0  0  0  0
   70.3130   38.9510   -0.5420 C   0  0  0  0  0  0  0  0  0  0  0  0
   71.7110   38.5300   -0.4530 C   0  0  0  0  0  0  0  0  0  0  0  0
   72.0600   37.5670    0.2270 O   0  0  0  0  0  0  0  0  0  0  0  0
   72.7120   39.3090   -1.2180 C   0  0  0  0  0  0  0  0  0  0  0  0
   74.0290   38.8960   -1.1380 O   0  0  0  0  0  0  0  0  0  0  0  0
   74.4170   41.6530   -2.2590 C   0  0  0  0  0  0  0  0  0  0  0  0
   75.2710   42.4730   -3.0220 C   0  0  0  0  0  0  0  0  0  0  0  0
   76.5900   42.9130   -2.4270 C   0  0  0  0  0  0  0  0  0  0  0  0
   76.9480   42.2050   -1.3170 F   0  0  0  0  0  0  0  0  0  0  0  0
   76.5950   44.2180   -2.0380 F   0  0  0  0  0  0  0  0  0  0  0  0
   76.3820   44.3442   -4.5619 H   0  0  0  0  0  0  0  0  0  0  0  0
   76.3941   43.0760   -5.8341 H   0  0  0  0  0  0  0  0  0  0  0  0
   75.1138   44.3359   -5.8341 H   0  0  0  0  0  0  0  0  0  0  0  0
   73.3414   42.6764   -5.8423 H   0  0  0  0  0  0  0  0  0  0  0  0
   71.8532   41.2448   -4.4633 H   0  0  0  0  0  0  0  0  0  0  0  0
   68.4446   41.3482   -2.0912 H   0  0  0  0  0  0  0  0  0  0  0  0
   66.6314   40.1586   -0.8545 H   0  0  0  0  0  0  0  0  0  0  0  0
   67.1798   38.1914    0.5822 H   0  0  0  0  0  0  0  0  0  0  0  0
   70.3500   36.7530    0.9110 H   0  0  0  0  0  0  0  0  0  0  0  0
   74.7150   39.5290   -1.0530 H   0  0  0  0  0  0  0  0  0  0  0  0
   74.7186   41.3668   -1.2406 H   0  0  0  0  0  0  0  0  0  0  0  0
   77.2976   42.7396   -3.2511 H   0  0  0  0  0  0  0  0  0  0  0  0
  1  2  1  0
  2  3  2  0
  3  4  1  0
  4  5  2  0
  5  6  1  0
  6  7  1  0
  7  8  1  0
  8  9  2  0
  9 10  1  0
 10 11  2  0
 11 12  1  0
 12 13  1  0
 12 14  2  0
 14 15  1  0
 15 16  2  0
 15 17  1  0
 17 18  1  0
  5 19  1  0
 19 20  2  0
 20 21  1  0
 21 22  1  0
 21 23  1  0
 20  2  1  0
 17  6  2  0
 14  8  1  0
  1 24  1  0
  1 25  1  0
  1 26  1  0
  3 27  1  0
  4 28  1  0
  9 29  1  0
 10 30  1  0
 11 31  1  0
 13 32  1  0
 18 33  1  0
 19 34  1  0
 21 35  1  0
M  END
>  <meeko>  (2) 
{"is_sidechain": [false], "free_energy": -8.395, "intermolecular_energy": -9.51, "internal_energy": -0.226}

$$$$
cand_014_out
     RDKit          3D

 35 37  0  0  0  0  0  0  0  0999 V2000
   72.2520   36.6730    0.2940 C   0  0  0  0  0  0  0  0  0  0  0  0
   72.0520   37.9150   -0.5310 C   0  0  0  0  0  0  0  0  0  0  0  0
   72.9700   38.2100   -1.5500 C   0  0  0  0  0  0  0  0  0  0  0  0
   72.8280   39.3580   -2.3320 C   0  0  0  0  0  0  0  0  0  0  0  0
   71.7650   40.2420   -2.1200 C   0  0  0  0  0  0  0  0  0  0  0  0
   71.6440   41.4610   -2.9460 C   0  0  0  0  0  0  0  0  0  0  0  0
   72.6980   42.3470   -2.7630 O   0  0  0  0  0  0  0  0  0  0  0  0
   72.7050   43.5220   -3.4710 C   0  0  0  0  0  0  0  0  0  0  0  0
   73.7720   44.3930   -3.2450 C   0  0  0  0  0  0  0  0  0  0  0  0
   73.8410   45.6040   -3.9350 C   0  0  0  0  0  0  0  0  0  0  0  0
   72.8440   45.9460   -4.8510 C   0  0  0  0  0  0  0  0  0  0  0  0
   71.7810   45.0770   -5.0750 C   0  0  0  0  0  0  0  0  0  0  0  0
   70.8400   45.4730   -5.9860 O   0  0  0  0  0  0  0  0  0  0  0  0
   71.7110   43.8640   -4.3840 C   0  0  0  0  0  0  0  0  0  0  0  0
   70.6100   42.9220   -4.5900 C   0  0  0  0  0  0  0  0  0  0  0  0
   69.7000   43.1460   -5.3850 O   0  0  0  0  0  0  0  0  0  0  0  0
   70.6250   41.6680   -3.8020 C   0  0  0  0  0  0  0  0  0  0  0  0
   69.5890   40.7780   -4.0130 O   0  0  0  0  0  0  0  0  0  0  0  0
   70.8610   39.9600   -1.0860 C   0  0  0  0  0  0  0  0  0  0  0  0
   70.9910   38.8110   -0.2820 C   0  0  0  0  0  0  0  0  0  0  0  0
   69.9650   38.5520    0.7980 C   0  0  0  0  0  0  0  0  0  0  0  0
   68.8100   39.2590    0.6310 F   0  0  0  0  0  0  0  0  0  0  0  0
   70.4050   38.8750    2.0460 F   0  0  0  0  0  0  0  0  0  0  0  0
   72.2103   36.9318    1.3623 H   0  0  0  0  0  0  0  0  0  0  0  0
   71.4592   35.9467    0.0615 H   0  0  0  0  0  0  0  0  0  0  0  0
   73.2327   36.2323    0.0615 H   0  0  0  0  0  0  0  0  0  0  0  0
   73.8128   37.5279   -1.7354 H   0  0  0  0  0  0  0  0  0  0  0  0
   73.5610   39.5698   -3.1244 H   0  0  0  0  0  0  0  0  0  0  0  0
   74.5579   44.1250   -2.5235 H   0  0  0  0  0  0  0  0  0  0  0  0
   74.6821   46.2903   -3.7571 H   0  0  0  0  0  0  0  0  0  0  0  0
   72.8991   46.9008   -5.3944 H   0  0  0  0  0  0  0  0  0  0  0  0
   70.2130   46.1310   -5.7560 H   0  0  0  0  0  0  0  0  0  0  0  0
   68.9230   40.9730   -4.6420 H   0  0  0  0  0  0  0  0  0  0  0  0
   70.0287   40.6542   -0.8979 H   0  0  0  0  0  0  0  0  0  0  0  0
   69.7840   37.4710    0.7052 H   0  0  0  0  0  0  0  0  0  0  0  0
  1  2  1  0
  2  3  2  0
  3  4  1  0
  4  5  2  0
  5  6  1  0
  6  7  1  0
  7  8  1  0
  8  9  2  0
  9 10  1  0
 10 11  2  0
 11 12  1  0
 12 13  1  0
 12 14  2  0
 14 15  1  0
 15 16  2  0
 15 17  1  0
 17 18  1  0
  5 19  1  0
 19 20  2  0
 20 21  1  0
 21 22  1  0
 21 23  1  0
 20  2  1  0
 17  6  2  0
 14  8  1  0
  1 24  1  0
  1 25  1  0
  1 26  1  0
  3 27  1  0
  4 28  1  0
  9 29  1  0
 10 30  1  0
 11 31  1  0
 13 32  1  0
 18 33  1  0
 19 34  1  0
 21 35  1  0
M  END
>  <meeko>  (3) 
{"is_sidechain": [false], "free_energy": -8.379, "intermolecular_energy": -9.257, "internal_energy": -0.461}

$$$$
cand_014_out
     RDKit          3D

 35 37  0  0  0  0  0  0  0  0999 V2000
   75.7480   45.3180   -3.3840 C   0  0  0  0  0  0  0  0  0  0  0  0
   74.5300   44.4610   -3.1740 C   0  0  0  0  0  0  0  0  0  0  0  0
   73.2710   44.9720   -3.5220 C   0  0  0  0  0  0  0  0  0  0  0  0
   72.1120   44.2140   -3.3330 C   0  0  0  0  0  0  0  0  0  0  0  0
   72.1800   42.9260   -2.7930 C   0  0  0  0  0  0  0  0  0  0  0  0
   70.9410   42.1480   -2.5840 C   0  0  0  0  0  0  0  0  0  0  0  0
   70.9950   41.3340   -1.4600 O   0  0  0  0  0  0  0  0  0  0  0  0
   69.9080   40.5550   -1.1540 C   0  0  0  0  0  0  0  0  0  0  0  0
   70.0100   39.7390   -0.0270 C   0  0  0  0  0  0  0  0  0  0  0  0
   68.9380   38.9240    0.3420 C   0  0  0  0  0  0  0  0  0  0  0  0
   67.7650   38.9240   -0.4150 C   0  0  0  0  0  0  0  0  0  0  0  0
   67.6660   39.7390   -1.5390 C   0  0  0  0  0  0  0  0  0  0  0  0
   66.4890   39.6910   -2.2350 O   0  0  0  0  0  0  0  0  0  0  0  0
   68.7380   40.5540   -1.9090 C   0  0  0  0  0  0  0  0  0  0  0  0
   68.6750   41.4250   -3.0830 C   0  0  0  0  0  0  0  0  0  0  0  0
   67.6750   41.4890   -3.7950 O   0  0  0  0  0  0  0  0  0  0  0  0
   69.8700   42.2450   -3.3940 C   0  0  0  0  0  0  0  0  0  0  0  0
   69.7970   43.0740   -4.4970 O   0  0  0  0  0  0  0  0  0  0  0  0
   73.4360   42.4240   -2.4240 C   0  0  0  0  0  0  0  0  0  0  0  0
   74.6150   43.1750   -2.5990 C   0  0  0  0  0  0  0  0  0  0  0  0
   75.9400   42.5630   -2.2040 C   0  0  0  0  0  0  0  0  0  0  0  0
   76.0010   41.2170   -2.4150 F   0  0  0  0  0  0  0  0  0  0  0  0
   76.2380   42.7340   -0.8860 F   0  0  0  0  0  0  0  0  0  0  0  0
   76.1634   45.6103   -2.4083 H   0  0  0  0  0  0  0  0  0  0  0  0
   76.5026   44.7507   -3.9487 H   0  0  0  0  0  0  0  0  0  0  0  0
   75.4689   46.2198   -3.9487 H   0  0  0  0  0  0  0  0  0  0  0  0
   73.1948   45.9827   -3.9493 H   0  0  0  0  0  0  0  0  0  0  0  0
   71.1351   44.6356   -3.6123 H   0  0  0  0  0  0  0  0  0  0  0  0
   70.9338   39.7377    0.5701 H   0  0  0  0  0  0  0  0  0  0  0  0
   69.0179   38.2808    1.2308 H   0  0  0  0  0  0  0  0  0  0  0  0
   66.9210   38.2814   -0.1239 H   0  0  0  0  0  0  0  0  0  0  0  0
   66.2660   38.9240   -2.7260 H   0  0  0  0  0  0  0  0  0  0  0  0
   69.9860   43.9880   -4.4100 H   0  0  0  0  0  0  0  0  0  0  0  0
   73.5026   41.4171   -1.9862 H   0  0  0  0  0  0  0  0  0  0  0  0
   76.6552   43.0959   -2.8479 H   0  0  0  0  0  0  0  0  0  0  0  0
  1  2  1  0
  2  3  2  0
  3  4  1  0
  4  5  2  0
  5  6  1  0
  6  7  1  0
  7  8  1  0
  8  9  2  0
  9 10  1  0
 10 11  2  0
 11 12  1  0
 12 13  1  0
 12 14  2  0
 14 15  1  0
 15 16  2  0
 15 17  1  0
 17 18  1  0
  5 19  1  0
 19 20  2  0
 20 21  1  0
 21 22  1  0
 21 23  1  0
 20  2  1  0
 17  6  2  0
 14  8  1  0
  1 24  1  0
  1 25  1  0
  1 26  1  0
  3 27  1  0
  4 28  1  0
  9 29  1  0
 10 30  1  0
 11 31  1  0
 13 32  1  0
 18 33  1  0
 19 34  1  0
 21 35  1  0
M  END
>  <meeko>  (4) 
{"is_sidechain": [false], "free_energy": -8.332, "intermolecular_energy": -9.607, "internal_energy": -0.055}

$$$$
cand_014_out
     RDKit          3D

 35 37  0  0  0  0  0  0  0  0999 V2000
   70.7730   36.5000    1.0800 C   0  0  0  0  0  0  0  0  0  0  0  0
   71.3200   37.5650    0.1680 C   0  0  0  0  0  0  0  0  0  0  0  0
   72.6910   37.5660   -0.1310 C   0  0  0  0  0  0  0  0  0  0  0  0
   73.2420   38.5430   -0.9630 C   0  0  0  0  0  0  0  0  0  0  0  0
   72.4400   39.5440   -1.5200 C   0  0  0  0  0  0  0  0  0  0  0  0
   73.0460   40.5780   -2.3840 C   0  0  0  0  0  0  0  0  0  0  0  0
   74.1580   41.1810   -1.8080 O   0  0  0  0  0  0  0  0  0  0  0  0
   74.8130   42.1640   -2.5060 C   0  0  0  0  0  0  0  0  0  0  0  0
   75.9130   42.7560   -1.8850 C   0  0  0  0  0  0  0  0  0  0  0  0
   76.6270   43.7600   -2.5410 C   0  0  0  0  0  0  0  0  0  0  0  0
   76.2420   44.1720   -3.8190 C   0  0  0  0  0  0  0  0  0  0  0  0
   75.1440   43.5800   -4.4360 C   0  0  0  0  0  0  0  0  0  0  0  0
   74.8220   44.0300   -5.6880 O   0  0  0  0  0  0  0  0  0  0  0  0
   74.4300   42.5750   -3.7790 C   0  0  0  0  0  0  0  0  0  0  0  0
   73.2700   41.9270   -4.3930 C   0  0  0  0  0  0  0  0  0  0  0  0
   72.8740   42.2270   -5.5170 O   0  0  0  0  0  0  0  0  0  0  0  0
   72.5760   40.8790   -3.6080 C   0  0  0  0  0  0  0  0  0  0  0  0
   71.4900   40.2630   -4.2010 O   0  0  0  0  0  0  0  0  0  0  0  0
   71.0740   39.5560   -1.2040 C   0  0  0  0  0  0  0  0  0  0  0  0
   70.5010   38.5840   -0.3600 C   0  0  0  0  0  0  0  0  0  0  0  0
   69.0160   38.6410   -0.0810 C   0  0  0  0  0  0  0  0  0  0  0  0
   68.2980   39.2340   -1.0770 F   0  0  0  0  0  0  0  0  0  0  0  0
   68.7080   39.3380    1.0480 F   0  0  0  0  0  0  0  0  0  0  0  0
   70.9269   36.7996    2.1272 H   0  0  0  0  0  0  0  0  0  0  0  0
   69.6973   36.3714    0.8897 H   0  0  0  0  0  0  0  0  0  0  0  0
   71.2951   35.5507    0.8897 H   0  0  0  0  0  0  0  0  0  0  0  0
   73.3402   36.7871    0.2955 H   0  0  0  0  0  0  0  0  0  0  0  0
   74.3197   38.5249   -1.1828 H   0  0  0  0  0  0  0  0  0  0  0  0
   76.2175   42.4317   -0.8789 H   0  0  0  0  0  0  0  0  0  0  0  0
   77.4939   44.2274   -2.0510 H   0  0  0  0  0  0  0  0  0  0  0  0
   76.8053   44.9625   -4.3365 H   0  0  0  0  0  0  0  0  0  0  0  0
   73.9280   44.0330   -5.9690 H   0  0  0  0  0  0  0  0  0  0  0  0
   70.6950   40.1470   -3.7190 H   0  0  0  0  0  0  0  0  0  0  0  0
   70.4333   40.3444   -1.6258 H   0  0  0  0  0  0  0  0  0  0  0  0
   68.7479   37.5789    0.0196 H   0  0  0  0  0  0  0  0  0  0  0  0
  1  2  1  0
  2  3  2  0
  3  4  1  0
  4  5  2  0
  5  6  1  0
  6  7  1  0
  7  8  1  0
  8  9  2  0
  9 10  1  0
 10 11  2  0
 11 12  1  0
 12 13  1  0
 12 14  2  0
 14 15  1  0
 15 16  2  0
 15 17  1  0
 17 18  1  0
  5 19  1  0
 19 20  2  0
 20 21  1  0
 21 22  1  0
 21 23  1  0
 20  2  1  0
 17  6  2  0
 14  8  1  0
  1 24  1  0
  1 25  1  0
  1 26  1  0
  3 27  1  0
  4 28  1  0
  9 29  1  0
 10 30  1  0
 11 31  1  0
 13 32  1  0
 18 33  1  0
 19 34  1  0
 21 35  1  0
M  END
>  <meeko>  (5) 
{"is_sidechain": [false], "free_energy": -8.281, "intermolecular_energy": -9.27, "internal_energy": -0.332}

$$$$
cand_014_out
     RDKit          3D

 35 37  0  0  0  0  0  0  0  0999 V2000
   70.9680   36.9190    0.9180 C   0  0  0  0  0  0  0  0  0  0  0  0
   70.4080   38.0870    0.1530 C   0  0  0  0  0  0  0  0  0  0  0  0
   69.0300   38.3450    0.2180 C   0  0  0  0  0  0  0  0  0  0  0  0
   68.4670   39.4120   -0.4860 C   0  0  0  0  0  0  0  0  0  0  0  0
   69.2640   40.2530   -1.2700 C   0  0  0  0  0  0  0  0  0  0  0  0
   68.6450   41.3650   -2.0200 C   0  0  0  0  0  0  0  0  0  0  0  0
   67.7490   42.1020   -1.2560 O   0  0  0  0  0  0  0  0  0  0  0  0
   67.1020   43.1640   -1.8350 C   0  0  0  0  0  0  0  0  0  0  0  0
   66.1970   43.8660   -1.0380 C   0  0  0  0  0  0  0  0  0  0  0  0
   65.5070   44.9590   -1.5650 C   0  0  0  0  0  0  0  0  0  0  0  0
   65.7210   45.3510   -2.8890 C   0  0  0  0  0  0  0  0  0  0  0  0
   66.6250   44.6490   -3.6820 C   0  0  0  0  0  0  0  0  0  0  0  0
   66.7870   45.0860   -4.9680 O   0  0  0  0  0  0  0  0  0  0  0  0
   67.3150   43.5540   -3.1540 C   0  0  0  0  0  0  0  0  0  0  0  0
   68.2720   42.7890   -3.9540 C   0  0  0  0  0  0  0  0  0  0  0  0
   68.5230   43.0760   -5.1230 O   0  0  0  0  0  0  0  0  0  0  0  0
   68.9450   41.6410   -3.3030 C   0  0  0  0  0  0  0  0  0  0  0  0
   69.8580   40.9320   -4.0610 O   0  0  0  0  0  0  0  0  0  0  0  0
   70.6370   39.9820   -1.3520 C   0  0  0  0  0  0  0  0  0  0  0  0
   71.2230   38.9060   -0.6570 C   0  0  0  0  0  0  0  0  0  0  0  0
   72.7140   38.6860   -0.7680 C   0  0  0  0  0  0  0  0  0  0  0  0
   73.4380   39.8410   -0.7240 F   0  0  0  0  0  0  0  0  0  0  0  0
   73.0820   38.0760   -1.9300 F   0  0  0  0  0  0  0  0  0  0  0  0
   70.8765   37.1099    1.9974 H   0  0  0  0  0  0  0  0  0  0  0  0
   70.4086   36.0082    0.6580 H   0  0  0  0  0  0  0  0  0  0  0  0
   72.0284   36.7848    0.6580 H   0  0  0  0  0  0  0  0  0  0  0  0
   68.3850   37.6986    0.8313 H   0  0  0  0  0  0  0  0  0  0  0  0
   67.3838   39.5932   -0.4232 H   0  0  0  0  0  0  0  0  0  0  0  0
   66.0275   43.5584    0.0044 H   0  0  0  0  0  0  0  0  0  0  0  0
   64.7936   45.5127   -0.9369 H   0  0  0  0  0  0  0  0  0  0  0  0
   65.1766   46.2121   -3.3039 H   0  0  0  0  0  0  0  0  0  0  0  0
   67.6420   45.1000   -5.3530 H   0  0  0  0  0  0  0  0  0  0  0  0
   70.7710   40.9680   -3.8520 H   0  0  0  0  0  0  0  0  0  0  0  0
   71.2737   40.6268   -1.9757 H   0  0  0  0  0  0  0  0  0  0  0  0
   72.9307   38.0504    0.1032 H   0  0  0  0  0  0  0  0  0  0  0  0
  1  2  1  0
  2  3  2  0
  3  4  1  0
  4  5  2  0
  5  6  1  0
  6  7  1  0
  7  8  1  0
  8  9  2  0
  9 10  1  0
 10 11  2  0
 11 12  1  0
 12 13  1  0
 12 14  2  0
 14 15  1  0
 15 16  2  0
 15 17  1  0
 17 18  1  0
  5 19  1  0
 19 20  2  0
 20 21  1  0
 21 22  1  0
 21 23  1  0
 20  2  1  0
 17  6  2  0
 14  8  1  0
  1 24  1  0
  1 25  1  0
  1 26  1  0
  3 27  1  0
  4 28  1  0
  9 29  1  0
 10 30  1  0
 11 31  1  0
 13 32  1  0
 18 33  1  0
 19 34  1  0
 21 35  1  0
M  END
>  <meeko>  (6) 
{"is_sidechain": [false], "free_energy": -8.243, "intermolecular_energy": -9.355, "internal_energy": -0.202}

$$$$
cand_014_out
     RDKit          3D

 35 37  0  0  0  0  0  0  0  0999 V2000
   73.6420   45.7460   -5.7020 C   0  0  0  0  0  0  0  0  0  0  0  0
   73.3070   44.5390   -4.8680 C   0  0  0  0  0  0  0  0  0  0  0  0
   72.7190   44.7250   -3.6080 C   0  0  0  0  0  0  0  0  0  0  0  0
   72.4030   43.6330   -2.7970 C   0  0  0  0  0  0  0  0  0  0  0  0
   72.6640   42.3260   -3.2230 C   0  0  0  0  0  0  0  0  0  0  0  0
   72.3390   41.1850   -2.3420 C   0  0  0  0  0  0  0  0  0  0  0  0
   70.9840   41.1010   -2.0430 O   0  0  0  0  0  0  0  0  0  0  0  0
   70.5480   40.0860   -1.2290 C   0  0  0  0  0  0  0  0  0  0  0  0
   69.1840   40.0470   -0.9400 C   0  0  0  0  0  0  0  0  0  0  0  0
   68.6740   39.0380   -0.1210 C   0  0  0  0  0  0  0  0  0  0  0  0
   69.5270   38.0680    0.4100 C   0  0  0  0  0  0  0  0  0  0  0  0
   70.8880   38.1090    0.1200 C   0  0  0  0  0  0  0  0  0  0  0  0
   71.6670   37.1280    0.6700 O   0  0  0  0  0  0  0  0  0  0  0  0
   71.3990   39.1190   -0.7000 C   0  0  0  0  0  0  0  0  0  0  0  0
   72.8220   39.1980   -1.0300 C   0  0  0  0  0  0  0  0  0  0  0  0
   73.6360   38.3770   -0.6100 O   0  0  0  0  0  0  0  0  0  0  0  0
   73.2630   40.3130   -1.9000 C   0  0  0  0  0  0  0  0  0  0  0  0
   74.6070   40.3720   -2.2170 O   0  0  0  0  0  0  0  0  0  0  0  0
   73.2730   42.1420   -4.4720 C   0  0  0  0  0  0  0  0  0  0  0  0
   73.6060   43.2310   -5.3010 C   0  0  0  0  0  0  0  0  0  0  0  0
   74.2360   42.9600   -6.6490 C   0  0  0  0  0  0  0  0  0  0  0  0
   73.3570   42.4760   -7.5720 F   0  0  0  0  0  0  0  0  0  0  0  0
   75.2430   42.0430   -6.5960 F   0  0  0  0  0  0  0  0  0  0  0  0
   73.8773   46.5939   -5.0419 H   0  0  0  0  0  0  0  0  0  0  0  0
   74.5122   45.5230   -6.3368 H   0  0  0  0  0  0  0  0  0  0  0  0
   72.7813   46.0034   -6.3368 H   0  0  0  0  0  0  0  0  0  0  0  0
   72.5041   45.7442   -3.2543 H   0  0  0  0  0  0  0  0  0  0  0  0
   71.9436   43.8022   -1.8119 H   0  0  0  0  0  0  0  0  0  0  0  0
   68.5108   40.8105   -1.3570 H   0  0  0  0  0  0  0  0  0  0  0  0
   67.5982   39.0069    0.1065 H   0  0  0  0  0  0  0  0  0  0  0  0
   69.1245   37.2736    1.0557 H   0  0  0  0  0  0  0  0  0  0  0  0
   71.6780   37.0060    1.6000 H   0  0  0  0  0  0  0  0  0  0  0  0
   75.2510   40.3750   -1.5360 H   0  0  0  0  0  0  0  0  0  0  0  0
   73.4967   41.1206   -4.8137 H   0  0  0  0  0  0  0  0  0  0  0  0
   74.6124   43.9505   -6.9445 H   0  0  0  0  0  0  0  0  0  0  0  0
  1  2  1  0
  2  3  2  0
  3  4  1  0
  4  5  2  0
  5  6  1  0
  6  7  1  0
  7  8  1  0
  8  9  2  0
  9 10  1  0
 10 11  2  0
 11 12  1  0
 12 13  1  0
 12 14  2  0
 14 15  1  0
 15 16  2  0
 15 17  1  0
 17 18  1  0
  5 19  1  0
 19 20  2  0
 20 21  1  0
 21 22  1  0
 21 23  1  0
 20  2  1  0
 17  6  2  0
 14  8  1  0
  1 24  1  0
  1 25  1  0
  1 26  1  0
  3 27  1  0
  4 28  1  0
  9 29  1  0
 10 30  1  0
 11 31  1  0
 13 32  1  0
 18 33  1  0
 19 34  1  0
 21 35  1  0
M  END
>  <meeko>  (7) 
{"is_sidechain": [false], "free_energy": -8.24, "intermolecular_energy": -9.188, "internal_energy": -0.366}

$$$$
cand_014_out
     RDKit          3D

 35 37  0  0  0  0  0  0  0  0999 V2000
   77.5290   43.4470   -4.4000 C   0  0  0  0  0  0  0  0  0  0  0  0
   76.3380   42.7690   -3.7800 C   0  0  0  0  0  0  0  0  0  0  0  0
   76.3260   42.5460   -2.3950 C   0  0  0  0  0  0  0  0  0  0  0  0
   75.2450   41.9090   -1.7810 C   0  0  0  0  0  0  0  0  0  0  0  0
   74.1460   41.4810   -2.5320 C   0  0  0  0  0  0  0  0  0  0  0  0
   73.0200   40.7940   -1.8650 C   0  0  0  0  0  0  0  0  0  0  0  0
   73.3740   39.5570   -1.3420 O   0  0  0  0  0  0  0  0  0  0  0  0
   72.4190   38.8130   -0.6980 C   0  0  0  0  0  0  0  0  0  0  0  0
   72.8100   37.5680   -0.2030 C   0  0  0  0  0  0  0  0  0  0  0  0
   71.8870   36.7620    0.4650 C   0  0  0  0  0  0  0  0  0  0  0  0
   70.5720   37.1990    0.6390 C   0  0  0  0  0  0  0  0  0  0  0  0
   70.1840   38.4410    0.1450 C   0  0  0  0  0  0  0  0  0  0  0  0
   68.8820   38.8070    0.3510 O   0  0  0  0  0  0  0  0  0  0  0  0
   71.1070   39.2470   -0.5240 C   0  0  0  0  0  0  0  0  0  0  0  0
   70.7390   40.5590   -1.0590 C   0  0  0  0  0  0  0  0  0  0  0  0
   69.6050   41.0180   -0.9400 O   0  0  0  0  0  0  0  0  0  0  0  0
   71.7910   41.3330   -1.7600 C   0  0  0  0  0  0  0  0  0  0  0  0
   71.4380   42.5760   -2.2510 O   0  0  0  0  0  0  0  0  0  0  0  0
   74.1670   41.6840   -3.9190 C   0  0  0  0  0  0  0  0  0  0  0  0
   75.2510   42.3170   -4.5580 C   0  0  0  0  0  0  0  0  0  0  0  0
   75.1980   42.5290   -6.0540 C   0  0  0  0  0  0  0  0  0  0  0  0
   74.0430   42.0810   -6.6250 F   0  0  0  0  0  0  0  0  0  0  0  0
   76.2000   41.8920   -6.7230 F   0  0  0  0  0  0  0  0  0  0  0  0
   78.1908   43.8237   -3.6062 H   0  0  0  0  0  0  0  0  0  0  0  0
   78.0779   42.7260   -5.0236 H   0  0  0  0  0  0  0  0  0  0  0  0
   77.1892   44.2871   -5.0236 H   0  0  0  0  0  0  0  0  0  0  0  0
   77.1790   42.8771   -1.7845 H   0  0  0  0  0  0  0  0  0  0  0  0
   75.2585   41.7421   -0.6938 H   0  0  0  0  0  0  0  0  0  0  0  0
   73.8453   37.2222   -0.3393 H   0  0  0  0  0  0  0  0  0  0  0  0
   72.1958   35.7809    0.8551 H   0  0  0  0  0  0  0  0  0  0  0  0
   69.8447   36.5632    1.1652 H   0  0  0  0  0  0  0  0  0  0  0  0
   68.2710   38.7840   -0.3600 H   0  0  0  0  0  0  0  0  0  0  0  0
   71.7900   43.3510   -1.8600 H   0  0  0  0  0  0  0  0  0  0  0  0
   73.3150   41.3401   -4.5238 H   0  0  0  0  0  0  0  0  0  0  0  0
   75.2872   43.6214   -6.1474 H   0  0  0  0  0  0  0  0  0  0  0  0
  1  2  1  0
  2  3  2  0
  3  4  1  0
  4  5  2  0
  5  6  1  0
  6  7  1  0
  7  8  1  0
  8  9  2  0
  9 10  1  0
 10 11  2  0
 11 12  1  0
 12 13  1  0
 12 14  2  0
 14 15  1  0
 15 16  2  0
 15 17  1  0
 17 18  1  0
  5 19  1  0
 19 20  2  0
 20 21  1  0
 21 22  1  0
 21 23  1  0
 20  2  1  0
 17  6  2  0
 14  8  1  0
  1 24  1  0
  1 25  1  0
  1 26  1  0
  3 27  1  0
  4 28  1  0
  9 29  1  0
 10 30  1  0
 11 31  1  0
 13 32  1  0
 18 33  1  0
 19 34  1  0
 21 35  1  0
M  END
>  <meeko>  (8) 
{"is_sidechain": [false], "free_energy": -8.223, "intermolecular_energy": -9.148, "internal_energy": -0.386}

$$$$
cand_014_out
     RDKit          3D

 35 37  0  0  0  0  0  0  0  0999 V2000
   75.8010   43.7170   -5.3940 C   0  0  0  0  0  0  0  0  0  0  0  0
   74.8880   42.8920   -4.5290 C   0  0  0  0  0  0  0  0  0  0  0  0
   73.6690   42.4440   -5.0610 C   0  0  0  0  0  0  0  0  0  0  0  0
   72.7860   41.6840   -4.2890 C   0  0  0  0  0  0  0  0  0  0  0  0
   73.0970   41.3500   -2.9670 C   0  0  0  0  0  0  0  0  0  0  0  0
   72.1420   40.5620   -2.1620 C   0  0  0  0  0  0  0  0  0  0  0  0
   72.7310   39.4680   -1.5390 O   0  0  0  0  0  0  0  0  0  0  0  0
   71.9510   38.6500   -0.7620 C   0  0  0  0  0  0  0  0  0  0  0  0
   72.5780   37.5530   -0.1690 C   0  0  0  0  0  0  0  0  0  0  0  0
   71.8420   36.6820    0.6360 C   0  0  0  0  0  0  0  0  0  0  0  0
   70.4800   36.9060    0.8490 C   0  0  0  0  0  0  0  0  0  0  0  0
   69.8570   38.0000    0.2560 C   0  0  0  0  0  0  0  0  0  0  0  0
   68.5220   38.1620    0.5070 O   0  0  0  0  0  0  0  0  0  0  0  0
   70.5930   38.8720   -0.5500 C   0  0  0  0  0  0  0  0  0  0  0  0
   69.9770   40.0340   -1.1920 C   0  0  0  0  0  0  0  0  0  0  0  0
   68.7860   40.3040   -1.0470 O   0  0  0  0  0  0  0  0  0  0  0  0
   70.8430   40.8920   -2.0350 C   0  0  0  0  0  0  0  0  0  0  0  0
   70.2550   41.9940   -2.6260 O   0  0  0  0  0  0  0  0  0  0  0  0
   74.3050   41.8170   -2.4290 C   0  0  0  0  0  0  0  0  0  0  0  0
   75.2050   42.5900   -3.1880 C   0  0  0  0  0  0  0  0  0  0  0  0
   76.5020   43.0390   -2.5540 C   0  0  0  0  0  0  0  0  0  0  0  0
   76.8390   42.3240   -1.4420 F   0  0  0  0  0  0  0  0  0  0  0  0
   76.4810   44.3400   -2.1520 F   0  0  0  0  0  0  0  0  0  0  0  0
   76.4661   44.3180   -4.7564 H   0  0  0  0  0  0  0  0  0  0  0  0
   76.4045   43.0518   -6.0291 H   0  0  0  0  0  0  0  0  0  0  0  0
   75.2002   44.3846   -6.0291 H   0  0  0  0  0  0  0  0  0  0  0  0
   73.4051   42.6943   -6.0991 H   0  0  0  0  0  0  0  0  0  0  0  0
   71.8354   41.3446   -4.7262 H   0  0  0  0  0  0  0  0  0  0  0  0
   73.6506   37.3751   -0.3358 H   0  0  0  0  0  0  0  0  0  0  0  0
   72.3357   35.8174    1.1036 H   0  0  0  0  0  0  0  0  0  0  0  0
   69.9011   36.2193    1.4840 H   0  0  0  0  0  0  0  0  0  0  0  0
   67.9080   37.5210    0.2040 H   0  0  0  0  0  0  0  0  0  0  0  0
   69.3450   42.1700   -2.4910 H   0  0  0  0  0  0  0  0  0  0  0  0
   74.5563   41.5730   -1.3863 H   0  0  0  0  0  0  0  0  0  0  0  0
   77.2332   42.8822   -3.3607 H   0  0  0  0  0  0  0  0  0  0  0  0
  1  2  1  0
  2  3  2  0
  3  4  1  0
  4  5  2  0
  5  6  1  0
  6  7  1  0
  7  8  1  0
  8  9  2  0
  9 10  1  0
 10 11  2  0
 11 12  1  0
 12 13  1  0
 12 14  2  0
 14 15  1  0
 15 16  2  0
 15 17  1  0
 17 18  1  0
  5 19  1  0
 19 20  2  0
 20 21  1  0
 21 22  1  0
 21 23  1  0
 20  2  1  0
 17  6  2  0
 14  8  1  0
  1 24  1  0
  1 25  1  0
  1 26  1  0
  3 27  1  0
  4 28  1  0
  9 29  1  0
 10 30  1  0
 11 31  1  0
 13 32  1  0
 18 33  1  0
 19 34  1  0
 21 35  1  0
M  END
>  <meeko>  (9) 
{"is_sidechain": [false], "free_energy": -8.184, "intermolecular_energy": -9.209, "internal_energy": -0.279}

$$$$
