cand_028_out
     RDKit          3D

 38 40  0  0  0  0  0  0  0  0999 V2000
   68.1310   39.3730   -0.7040 C   0  0  0  0  0  0  0  0  0  0  0  0
   69.0820   38.9930    0.4210 C   0  0  0  0  0  0  0  0  0  0  0  0
   70.4870   38.7530   -0.0850 C   0  0  0  0  0  0  0  0  0  0  0  0
   71.0670   39.7220   -0.9280 C   0  0  0  0  0  0  0  0  0  0  0  0
   72.3560   39.5640   -1.4560 C   0  0  0  0  0  0  0  0  0  0  0  0
   72.9750   40.5920   -2.3190 C   0  0  0  0  0  0  0  0  0  0  0  0
   74.1390   41.1240   -1.7740 O   0  0  0  0  0  0  0  0  0  0  0  0
   74.8170   42.0910   -2.4730 C   0  0  0  0  0  0  0  0  0  0  0  0
   75.9700   42.6080   -1.8820 C   0  0  0  0  0  0  0  0  0  0  0  0
   76.7090   43.5930   -2.5410 C   0  0  0  0  0  0  0  0  0  0  0  0
   76.2940   44.0620   -3.7900 C   0  0  0  0  0  0  0  0  0  0  0  0
   75.1430   43.5440   -4.3770 C   0  0  0  0  0  0  0  0  0  0  0  0
   74.7930   44.0460   -5.6010 O   0  0  0  0  0  0  0  0  0  0  0  0
   74.4030   42.5580   -3.7160 C   0  0  0  0  0  0  0  0  0  0  0  0
   73.1870   41.9870   -4.2990 C   0  0  0  0  0  0  0  0  0  0  0  0
   72.7630   42.3420   -5.3960 O   0  0  0  0  0  0  0  0  0  0  0  0
   72.4730   40.9540   -3.5140 C   0  0  0  0  0  0  0  0  0  0  0  0
   71.3330   40.4120   -4.0790 O   0  0  0  0  0  0  0  0  0  0  0  0
   73.0770   38.4150   -1.1130 C   0  0  0  0  0  0  0  0  0  0  0  0
   72.5150   37.4420   -0.2820 C   0  0  0  0  0  0  0  0  0  0  0  0
   71.2180   37.5920    0.2310 C   0  0  0  0  0  0  0  0  0  0  0  0
   70.6630   36.5170    1.1250 C   0  0  0  0  0  0  0  0  0  0  0  0
   67.1896   39.7492   -0.2770 H   0  0  0  0  0  0  0  0  0  0  0  0
   68.5911   40.1563   -1.3242 H   0  0  0  0  0  0  0  0  0  0  0  0
   67.9246   38.4883   -1.3242 H   0  0  0  0  0  0  0  0  0  0  0  0
   69.1042   39.8087    1.1587 H   0  0  0  0  0  0  0  0  0  0  0  0
   68.7185   38.0587    0.8737 H   0  0  0  0  0  0  0  0  0  0  0  0
   70.4930   40.6264   -1.1784 H   0  0  0  0  0  0  0  0  0  0  0  0
   76.2968   42.2403   -0.8981 H   0  0  0  0  0  0  0  0  0  0  0  0
   77.6190   44.0001   -2.0761 H   0  0  0  0  0  0  0  0  0  0  0  0
   76.8755   44.8387   -4.3082 H   0  0  0  0  0  0  0  0  0  0  0  0
   75.4120   44.5480   -6.0950 H   0  0  0  0  0  0  0  0  0  0  0  0
   70.6600   40.0600   -3.5320 H   0  0  0  0  0  0  0  0  0  0  0  0
   74.0967   38.2761   -1.5014 H   0  0  0  0  0  0  0  0  0  0  0  0
   73.0984   36.5452   -0.0264 H   0  0  0  0  0  0  0  0  0  0  0  0
   70.8105   36.8026    2.1770 H   0  0  0  0  0  0  0  0  0  0  0  0
   69.5883   36.3932    0.9259 H   0  0  0  0  0  0  0  0  0  0  0  0
   71.1844   35.5691    0.9259 H   0  0  0  0  0  0  0  0  0  0  0  0
  1  2  1  0
  2  3  1  0
  3  4  2  0
  4  5  1  0
  5  6  1  0
  6  7  1  0
  7  8  1  0
  8  9  2  0
  9 10  1  0
 10 11  2  0
 11 12  1  0
 12 13  1  0
 12 14  2  0
 14 15  1  0
 15 16  2  0
 15 17  1  0
 17 18  1  0
  5 19  2  0
 19 20  1  0
 20 21  2  0
 21 22  1  0
 21  3  1  0
 17  6  2  0
 14  8  1  0
  1 23  1  0
  1 24  1  0
  1 25  1  0
  2 26  1  0
  2 27  1  0
  4 28  1  0
  9 29  1  0
 10 30  1  0
 11 31  1  0
 13 32  1  0
 18 33  1  0
 19 34  1  0
 20 35  1  0
 22 36  1  0
 22 37  1  0
 22 38  1  0
M  END
>  <meeko>  (1) 
{"is_sidechain": [false], "free_energy": -7.946, "intermolecular_energy": -9.339, "internal_energy": -0.363}

$$$$
cand_028_out
     RDKit          3D

 38 40  0  0  0  0  0  0  0  0999 V2000
   68.2730   38.7860    0.1260 C   0  0  0  0  0  0  0  0  0  0  0  0
   69.6450   38.6860    0.7760 C   0  0  0  0  0  0  0  0  0  0  0  0
   70.7600   38.8620   -0.2300 C   0  0  0  0  0  0  0  0  0  0  0  0
   70.7220   39.9870   -1.0780 C   0  0  0  0  0  0  0  0  0  0  0  0
   71.7060   40.2110   -2.0510 C   0  0  0  0  0  0  0  0  0  0  0  0
   71.6830   41.4050   -2.9230 C   0  0  0  0  0  0  0  0  0  0  0  0
   72.7850   42.2320   -2.7360 O   0  0  0  0  0  0  0  0  0  0  0  0
   72.8880   43.3780   -3.4820 C   0  0  0  0  0  0  0  0  0  0  0  0
   74.0020   44.1860   -3.2500 C   0  0  0  0  0  0  0  0  0  0  0  0
   74.1700   45.3670   -3.9780 C   0  0  0  0  0  0  0  0  0  0  0  0
   73.2240   45.7390   -4.9370 C   0  0  0  0  0  0  0  0  0  0  0  0
   72.1140   44.9300   -5.1650 C   0  0  0  0  0  0  0  0  0  0  0  0
   71.2280   45.3530   -6.1190 O   0  0  0  0  0  0  0  0  0  0  0  0
   71.9460   43.7490   -4.4360 C   0  0  0  0  0  0  0  0  0  0  0  0
   70.7930   42.8710   -4.6460 C   0  0  0  0  0  0  0  0  0  0  0  0
   69.9240   43.1260   -5.4760 O   0  0  0  0  0  0  0  0  0  0  0  0
   70.7060   41.6480   -3.8160 C   0  0  0  0  0  0  0  0  0  0  0  0
   69.6200   40.8190   -4.0320 O   0  0  0  0  0  0  0  0  0  0  0  0
   72.7540   39.2910   -2.1590 C   0  0  0  0  0  0  0  0  0  0  0  0
   72.8040   38.1670   -1.3300 C   0  0  0  0  0  0  0  0  0  0  0  0
   71.8100   37.9340   -0.3680 C   0  0  0  0  0  0  0  0  0  0  0  0
   71.9140   36.7110    0.5020 C   0  0  0  0  0  0  0  0  0  0  0  0
   67.5005   38.8423    0.9070 H   0  0  0  0  0  0  0  0  0  0  0  0
   68.2286   39.6898   -0.4995 H   0  0  0  0  0  0  0  0  0  0  0  0
   68.0980   37.8982   -0.4995 H   0  0  0  0  0  0  0  0  0  0  0  0
   69.7324   39.4685    1.5442 H   0  0  0  0  0  0  0  0  0  0  0  0
   69.7402   37.6834    1.2184 H   0  0  0  0  0  0  0  0  0  0  0  0
   69.8983   40.7085   -0.9736 H   0  0  0  0  0  0  0  0  0  0  0  0
   74.7468   43.8937   -2.4951 H   0  0  0  0  0  0  0  0  0  0  0  0
   75.0478   46.0045   -3.7960 H   0  0  0  0  0  0  0  0  0  0  0  0
   73.3560   46.6685   -5.5102 H   0  0  0  0  0  0  0  0  0  0  0  0
   70.4990   45.8900   -5.8750 H   0  0  0  0  0  0  0  0  0  0  0  0
   69.1770   40.4270   -3.3050 H   0  0  0  0  0  0  0  0  0  0  0  0
   73.5468   39.4538   -2.9039 H   0  0  0  0  0  0  0  0  0  0  0  0
   73.6354   37.4542   -1.4334 H   0  0  0  0  0  0  0  0  0  0  0  0
   71.8885   37.0105    1.5601 H   0  0  0  0  0  0  0  0  0  0  0  0
   71.0698   36.0380    0.2910 H   0  0  0  0  0  0  0  0  0  0  0  0
   72.8597   36.1903    0.2910 H   0  0  0  0  0  0  0  0  0  0  0  0
  1  2  1  0
  2  3  1  0
  3  4  2  0
  4  5  1  0
  5  6  1  0
  6  7  1  0
  7  8  1  0
  8  9  2  0
  9 10  1  0
 10 11  2  0
 11 12  1  0
 12 13  1  0
 12 14  2  0
 14 15  1  0
 15 16  2  0
 15 17  1  0
 17 18  1  0
  5 19  2  0
 19 20  1  0
 20 21  2  0
 21 22  1  0
 21  3  1  0
 17  6  2  0
 14  8  1  0
  1 23  1  0
  1 24  1  0
  1 25  1  0
  2 26  1  0
  2 27  1  0
  4 28  1  0
  9 29  1  0
 10 30  1  0
 11 31  1  0
 13 32  1  0
 18 33  1  0
 19 34  1  0
 20 35  1  0
 22 36  1  0
 22 37  1  0
 22 38  1  0
M  END
>  <meeko>  (2) 
{"is_sidechain": [false], "free_energy": -7.866, "intermolecular_energy": -9.229, "internal_energy": -0.379}

$$$$
cand_028_out
     RDKit          3D

 38 40  0  0  0  0  0  0  0  0999 V2000
   76.4690   42.7310   -1.5510 C   0  0  0  0  0  0  0  0  0  0  0  0
   75.9530   43.4620   -2.7810 C   0  0  0  0  0  0  0  0  0  0  0  0
   74.7410   42.7810   -3.3750 C   0  0  0  0  0  0  0  0  0  0  0  0
   73.9690   41.9460   -2.5420 C   0  0  0  0  0  0  0  0  0  0  0  0
   72.8430   41.2630   -3.0200 C   0  0  0  0  0  0  0  0  0  0  0  0
   72.0170   40.4090   -2.1410 C   0  0  0  0  0  0  0  0  0  0  0  0
   70.6690   40.7490   -2.1690 O   0  0  0  0  0  0  0  0  0  0  0  0
   69.7890   40.0350   -1.3960 C   0  0  0  0  0  0  0  0  0  0  0  0
   68.4490   40.4200   -1.4430 C   0  0  0  0  0  0  0  0  0  0  0  0
   67.4990   39.7340   -0.6830 C   0  0  0  0  0  0  0  0  0  0  0  0
   67.8900   38.6640    0.1260 C   0  0  0  0  0  0  0  0  0  0  0  0
   69.2280   38.2820    0.1700 C   0  0  0  0  0  0  0  0  0  0  0  0
   69.5420   37.2250    0.9810 O   0  0  0  0  0  0  0  0  0  0  0  0
   70.1780   38.9700   -0.5910 C   0  0  0  0  0  0  0  0  0  0  0  0
   71.5950   38.6000   -0.5720 C   0  0  0  0  0  0  0  0  0  0  0  0
   72.0140   37.6660    0.1060 O   0  0  0  0  0  0  0  0  0  0  0  0
   72.5200   39.3970   -1.4090 C   0  0  0  0  0  0  0  0  0  0  0  0
   73.8540   39.0310   -1.3940 O   0  0  0  0  0  0  0  0  0  0  0  0
   72.4820   41.4370   -4.3610 C   0  0  0  0  0  0  0  0  0  0  0  0
   73.2390   42.2560   -5.2030 C   0  0  0  0  0  0  0  0  0  0  0  0
   74.3760   42.9260   -4.7270 C   0  0  0  0  0  0  0  0  0  0  0  0
   75.1530   43.8000   -5.6740 C   0  0  0  0  0  0  0  0  0  0  0  0
   76.1098   43.2399   -0.6444 H   0  0  0  0  0  0  0  0  0  0  0  0
   76.1015   41.6943   -1.5595 H   0  0  0  0  0  0  0  0  0  0  0  0
   77.5690   42.7301   -1.5595 H   0  0  0  0  0  0  0  0  0  0  0  0
   75.6799   44.4887   -2.4959 H   0  0  0  0  0  0  0  0  0  0  0  0
   76.7507   43.4594   -3.5385 H   0  0  0  0  0  0  0  0  0  0  0  0
   74.2587   41.8274   -1.4875 H   0  0  0  0  0  0  0  0  0  0  0  0
   68.1407   41.2634   -2.0783 H   0  0  0  0  0  0  0  0  0  0  0  0
   66.4421   40.0364   -0.7214 H   0  0  0  0  0  0  0  0  0  0  0  0
   67.1426   38.1249    0.7266 H   0  0  0  0  0  0  0  0  0  0  0  0
   70.4370   36.9640    1.0840 H   0  0  0  0  0  0  0  0  0  0  0  0
   74.4550   39.4240   -1.9960 H   0  0  0  0  0  0  0  0  0  0  0  0
   71.5931   40.9237   -4.7563 H   0  0  0  0  0  0  0  0  0  0  0  0
   72.9390   42.3771   -6.2544 H   0  0  0  0  0  0  0  0  0  0  0  0
   75.7760   44.5007   -5.0988 H   0  0  0  0  0  0  0  0  0  0  0  0
   75.7967   43.1723   -6.3077 H   0  0  0  0  0  0  0  0  0  0  0  0
   74.4543   44.3658   -6.3077 H   0  0  0  0  0  0  0  0  0  0  0  0
  1  2  1  0
  2  3  1  0
  3  4  2  0
  4  5  1  0
  5  6  1  0
  6  7  1  0
  7  8  1  0
  8  9  2  0
  9 10  1  0
 10 11  2  0
 11 12  1  0
 12 13  1  0
 12 14  2  0
 14 15  1  0
 15 16  2  0
 15 17  1  0
 17 18  1  0
  5 19  2  0
 19 20  1  0
 20 21  2  0
 21 22  1  0
 21  3  1  0
 17  6  2  0
 14  8  1  0
  1 23  1  0
  1 24  1  0
  1 25  1  0
  2 26  1  0
  2 27  1  0
  4 28  1  0
  9 29  1  0
 10 30  1  0
 11 31  1  0
 13 32  1  0
 18 33  1  0
 19 34  1  0
 20 35  1  0
 22 36  1  0
 22 37  1  0
 22 38  1  0
M  END
>  <meeko>  (3) 
{"is_sidechain": [false], "free_energy": -7.718, "intermolecular_energy": -9.158, "internal_energy": -0.277}

$$$$
cand_028_out
     RDKit          3D

 38 40  0  0  0  0  0  0  0  0999 V2000
   75.2000   42.6080   -6.9920 C   0  0  0  0  0  0  0  0  0  0  0  0
   73.6870   42.7410   -6.8920 C   0  0  0  0  0  0  0  0  0  0  0  0
   73.2410   43.0650   -5.4840 C   0  0  0  0  0  0  0  0  0  0  0  0
   72.9830   41.9950   -4.6030 C   0  0  0  0  0  0  0  0  0  0  0  0
   72.5470   42.2110   -3.2890 C   0  0  0  0  0  0  0  0  0  0  0  0
   72.3010   41.0910   -2.3560 C   0  0  0  0  0  0  0  0  0  0  0  0
   70.9610   40.9610   -2.0100 O   0  0  0  0  0  0  0  0  0  0  0  0
   70.5920   39.9600   -1.1480 C   0  0  0  0  0  0  0  0  0  0  0  0
   69.2390   39.8760   -0.8160 C   0  0  0  0  0  0  0  0  0  0  0  0
   68.7960   38.8780    0.0550 C   0  0  0  0  0  0  0  0  0  0  0  0
   69.7050   37.9650    0.5950 C   0  0  0  0  0  0  0  0  0  0  0  0
   71.0540   38.0520    0.2620 C   0  0  0  0  0  0  0  0  0  0  0  0
   71.8900   37.1260    0.8240 O   0  0  0  0  0  0  0  0  0  0  0  0
   71.4970   39.0510   -0.6100 C   0  0  0  0  0  0  0  0  0  0  0  0
   72.9070   39.1770   -0.9860 C   0  0  0  0  0  0  0  0  0  0  0  0
   73.7650   38.4070   -0.5590 O   0  0  0  0  0  0  0  0  0  0  0  0
   73.2730   40.2740   -1.9090 C   0  0  0  0  0  0  0  0  0  0  0  0
   74.6050   40.3750   -2.2670 O   0  0  0  0  0  0  0  0  0  0  0  0
   72.3820   43.5300   -2.8530 C   0  0  0  0  0  0  0  0  0  0  0  0
   72.6290   44.6020   -3.7150 C   0  0  0  0  0  0  0  0  0  0  0  0
   73.0490   44.3850   -5.0350 C   0  0  0  0  0  0  0  0  0  0  0  0
   73.3050   45.5750   -5.9200 C   0  0  0  0  0  0  0  0  0  0  0  0
   75.6323   42.5700   -5.9812 H   0  0  0  0  0  0  0  0  0  0  0  0
   75.4519   41.6843   -7.5335 H   0  0  0  0  0  0  0  0  0  0  0  0
   75.6092   43.4736   -7.5335 H   0  0  0  0  0  0  0  0  0  0  0  0
   73.3557   43.5463   -7.5641 H   0  0  0  0  0  0  0  0  0  0  0  0
   73.2406   41.7771   -7.1776 H   0  0  0  0  0  0  0  0  0  0  0  0
   73.1278   40.9634   -4.9565 H   0  0  0  0  0  0  0  0  0  0  0  0
   68.5224   40.5949   -1.2398 H   0  0  0  0  0  0  0  0  0  0  0  0
   67.7296   38.8108    0.3162 H   0  0  0  0  0  0  0  0  0  0  0  0
   69.3559   37.1795    1.2814 H   0  0  0  0  0  0  0  0  0  0  0  0
   72.7650   37.0290    0.5040 H   0  0  0  0  0  0  0  0  0  0  0  0
   74.9370   39.8750   -2.9860 H   0  0  0  0  0  0  0  0  0  0  0  0
   72.0545   43.7254   -1.8212 H   0  0  0  0  0  0  0  0  0  0  0  0
   72.4918   45.6314   -3.3524 H   0  0  0  0  0  0  0  0  0  0  0  0
   73.4956   46.4612   -5.2968 H   0  0  0  0  0  0  0  0  0  0  0  0
   74.1813   45.3779   -6.5550 H   0  0  0  0  0  0  0  0  0  0  0  0
   72.4252   45.7557   -6.5550 H   0  0  0  0  0  0  0  0  0  0  0  0
  1  2  1  0
  2  3  1  0
  3  4  2  0
  4  5  1  0
  5  6  1  0
  6  7  1  0
  7  8  1  0
  8  9  2  0
  9 10  1  0
 10 11  2  0
 11 12  1  0
 12 13  1  0
 12 14  2  0
 14 15  1  0
 15 16  2  0
 15 17  1  0
 17 18  1  0
  5 19  2  0
 19 20  1  0
 20 21  2  0
 21 22  1  0
 21  3  1  0
 17  6  2  0
 14  8  1  0
  1 23  1  0
  1 24  1  0
  1 25  1  0
  2 26  1  0
  2 27  1  0
  4 28  1  0
  9 29  1  0
 10 30  1  0
 11 31  1  0
 13 32  1  0
 18 33  1  0
 19 34  1  0
 20 35  1  0
 22 36  1  0
 22 37  1  0
 22 38  1  0
M  END
>  <meeko>  (4) 
{"is_sidechain": [false], "free_energy": -7.702, "intermolecular_energy": -9.045, "internal_energy": -0.371}

$$$$
cand_028_out
     RDKit          3D

 38 40  0  0  0  0  0  0  0  0999 V2000
   76.3230   43.0280   -1.8700 C   0  0  0  0  0  0  0  0  0  0  0  0
   75.5100   43.8580   -2.8530 C   0  0  0  0  0  0  0  0  0  0  0  0
   74.3830   43.0590   -3.4680 C   0  0  0  0  0  0  0  0  0  0  0  0
   73.6230   42.2210   -2.6280 C   0  0  0  0  0  0  0  0  0  0  0  0
   72.5750   41.4340   -3.1230 C   0  0  0  0  0  0  0  0  0  0  0  0
   71.7600   40.5740   -2.2380 C   0  0  0  0  0  0  0  0  0  0  0  0
   72.4960   39.5470   -1.6570 O   0  0  0  0  0  0  0  0  0  0  0  0
   71.8610   38.6720   -0.8120 C   0  0  0  0  0  0  0  0  0  0  0  0
   72.6340   37.6480   -0.2650 C   0  0  0  0  0  0  0  0  0  0  0  0
   72.0500   36.7240    0.6060 C   0  0  0  0  0  0  0  0  0  0  0  0
   70.6940   36.8240    0.9270 C   0  0  0  0  0  0  0  0  0  0  0  0
   69.9260   37.8480    0.3790 C   0  0  0  0  0  0  0  0  0  0  0  0
   68.6060   37.8890    0.7360 O   0  0  0  0  0  0  0  0  0  0  0  0
   70.5110   38.7720   -0.4930 C   0  0  0  0  0  0  0  0  0  0  0  0
   69.7380   39.8630   -1.0910 C   0  0  0  0  0  0  0  0  0  0  0  0
   68.5440   40.0220   -0.8510 O   0  0  0  0  0  0  0  0  0  0  0  0
   70.4510   40.7820   -2.0070 C   0  0  0  0  0  0  0  0  0  0  0  0
   69.7150   41.8160   -2.5560 O   0  0  0  0  0  0  0  0  0  0  0  0
   72.2800   41.5050   -4.4890 C   0  0  0  0  0  0  0  0  0  0  0  0
   73.0270   42.3260   -5.3380 C   0  0  0  0  0  0  0  0  0  0  0  0
   74.0870   43.1010   -4.8440 C   0  0  0  0  0  0  0  0  0  0  0  0
   74.8560   43.9730   -5.7990 C   0  0  0  0  0  0  0  0  0  0  0  0
   76.0501   43.3066   -0.8414 H   0  0  0  0  0  0  0  0  0  0  0  0
   76.1116   41.9603   -2.0290 H   0  0  0  0  0  0  0  0  0  0  0  0
   77.3949   43.2172   -2.0290 H   0  0  0  0  0  0  0  0  0  0  0  0
   75.0847   44.7224   -2.3221 H   0  0  0  0  0  0  0  0  0  0  0  0
   76.1806   44.1810   -3.6629 H   0  0  0  0  0  0  0  0  0  0  0  0
   73.8590   42.1837   -1.5543 H   0  0  0  0  0  0  0  0  0  0  0  0
   73.7013   37.5678   -0.5186 H   0  0  0  0  0  0  0  0  0  0  0  0
   72.6589   35.9169    1.0394 H   0  0  0  0  0  0  0  0  0  0  0  0
   70.2342   36.0955    1.6110 H   0  0  0  0  0  0  0  0  0  0  0  0
   68.2630   38.6430    1.1760 H   0  0  0  0  0  0  0  0  0  0  0  0
   69.4220   42.5230   -2.0150 H   0  0  0  0  0  0  0  0  0  0  0  0
   71.4516   40.9085   -4.8987 H   0  0  0  0  0  0  0  0  0  0  0  0
   72.7803   42.3652   -6.4093 H   0  0  0  0  0  0  0  0  0  0  0  0
   75.4788   44.6792   -5.2303 H   0  0  0  0  0  0  0  0  0  0  0  0
   75.4993   43.3446   -6.4324 H   0  0  0  0  0  0  0  0  0  0  0  0
   74.1521   44.5327   -6.4324 H   0  0  0  0  0  0  0  0  0  0  0  0
  1  2  1  0
  2  3  1  0
  3  4  2  0
  4  5  1  0
  5  6  1  0
  6  7  1  0
  7  8  1  0
  8  9  2  0
  9 10  1  0
 10 11  2  0
 11 12  1  0
 12 13  1  0
 12 14  2  0
 14 15  1  0
 15 16  2  0
 15 17  1  0
 17 18  1  0
  5 19  2  0
 19 20  1  0
 20 21  2  0
 21 22  1  0
 21  3  1  0
 17  6  2  0
 14  8  1  0
  1 23  1  0
  1 24  1  0
  1 25  1  0
  2 26  1  0
  2 27  1  0
  4 28  1  0
  9 29  1  0
 10 30  1  0
 11 31  1  0
 13 32  1  0
 18 33  1  0
 19 34  1  0
 20 35  1  0
 22 36  1  0
 22 37  1  0
 22 38  1  0
M  END
>  <meeko>  (5) 
{"is_sidechain": [false], "free_energy": -7.678, "intermolecular_energy": -9.031, "internal_energy": -0.357}

$$$$
cand_028_out
     RDKit          3D

 38 40  0  0  0  0  0  0  0  0999 V2000
   76.3520   42.3250   -1.4850 C   0  0  0  0  0  0  0  0  0  0  0  0
   75.7270   42.1350   -2.8590 C   0  0  0  0  0  0  0  0  0  0  0  0
   74.4000   42.8500   -2.9790 C   0  0  0  0  0  0  0  0  0  0  0  0
   73.2220   42.1170   -2.7310 C   0  0  0  0  0  0  0  0  0  0  0  0
   71.9530   42.7010   -2.8410 C   0  0  0  0  0  0  0  0  0  0  0  0
   70.7180   41.9400   -2.5550 C   0  0  0  0  0  0  0  0  0  0  0  0
   70.8180   41.1590   -1.4090 O   0  0  0  0  0  0  0  0  0  0  0  0
   69.7420   40.3990   -1.0280 C   0  0  0  0  0  0  0  0  0  0  0  0
   69.8920   39.6190    0.1190 C   0  0  0  0  0  0  0  0  0  0  0  0
   68.8330   38.8240    0.5640 C   0  0  0  0  0  0  0  0  0  0  0  0
   67.6260   38.8080   -0.1380 C   0  0  0  0  0  0  0  0  0  0  0  0
   67.4790   39.5880   -1.2820 C   0  0  0  0  0  0  0  0  0  0  0  0
   66.2700   39.5270   -1.9210 O   0  0  0  0  0  0  0  0  0  0  0  0
   68.5390   40.3830   -1.7270 C   0  0  0  0  0  0  0  0  0  0  0  0
   68.4270   41.2180   -2.9250 C   0  0  0  0  0  0  0  0  0  0  0  0
   67.3950   41.2640   -3.5910 O   0  0  0  0  0  0  0  0  0  0  0  0
   69.6100   42.0170   -3.3160 C   0  0  0  0  0  0  0  0  0  0  0  0
   69.4880   42.8110   -4.4410 O   0  0  0  0  0  0  0  0  0  0  0  0
   71.8730   44.0520   -3.1940 C   0  0  0  0  0  0  0  0  0  0  0  0
   73.0310   44.7920   -3.4490 C   0  0  0  0  0  0  0  0  0  0  0  0
   74.3000   44.2030   -3.3560 C   0  0  0  0  0  0  0  0  0  0  0  0
   75.5140   45.0460   -3.6350 C   0  0  0  0  0  0  0  0  0  0  0  0
   75.6065   42.0984   -0.7086 H   0  0  0  0  0  0  0  0  0  0  0  0
   77.2119   41.6477   -1.3765 H   0  0  0  0  0  0  0  0  0  0  0  0
   76.6895   43.3663   -1.3765 H   0  0  0  0  0  0  0  0  0  0  0  0
   76.4147   42.5316   -3.6204 H   0  0  0  0  0  0  0  0  0  0  0  0
   75.5492   41.0596   -3.0067 H   0  0  0  0  0  0  0  0  0  0  0  0
   73.3009   41.0582   -2.4434 H   0  0  0  0  0  0  0  0  0  0  0  0
   70.8428   39.6300    0.6721 H   0  0  0  0  0  0  0  0  0  0  0  0
   68.9501   38.2096    1.4689 H   0  0  0  0  0  0  0  0  0  0  0  0
   66.7931   38.1805    0.2120 H   0  0  0  0  0  0  0  0  0  0  0  0
   66.0150   40.2140   -2.5050 H   0  0  0  0  0  0  0  0  0  0  0  0
   70.1890   42.8580   -5.0610 H   0  0  0  0  0  0  0  0  0  0  0  0
   70.8888   44.5370   -3.2717 H   0  0  0  0  0  0  0  0  0  0  0  0
   72.9455   45.8529   -3.7269 H   0  0  0  0  0  0  0  0  0  0  0  0
   75.9680   45.3612   -2.6839 H   0  0  0  0  0  0  0  0  0  0  0  0
   76.2432   44.4589   -4.2126 H   0  0  0  0  0  0  0  0  0  0  0  0
   75.2187   45.9344   -4.2126 H   0  0  0  0  0  0  0  0  0  0  0  0
  1  2  1  0
  2  3  1  0
  3  4  2  0
  4  5  1  0
  5  6  1  0
  6  7  1  0
  7  8  1  0
  8  9  2  0
  9 10  1  0
 10 11  2  0
 11 12  1  0
 12 13  1  0
 12 14  2  0
 14 15  1  0
 15 16  2  0
 15 17  1  0
 17 18  1  0
  5 19  2  0
 19 20  1  0
 20 21  2  0
 21 22  1  0
 21  3  1  0
 17  6  2  0
 14  8  1  0
  1 23  1  0
  1 24  1  0
  1 25  1  0
  2 26  1  0
  2 27  1  0
  4 28  1  0
  9 29  1  0
 10 30  1  0
 11 31  1  0
 13 32  1  0
 18 33  1  0
 19 34  1  0
 20 35  1  0
 22 36  1  0
 22 37  1  0
 22 38  1  0
M  END
>  <meeko>  (6) 
{"is_sidechain": [false], "free_energy": -7.647, "intermolecular_energy": -9.27, "internal_energy": -0.082}

$$$$
cand_028_out
     RDKit          3D

 38 40  0  0  0  0  0  0  0  0999 V2000
   73.7620   46.1780   -3.2810 C   0  0  0  0  0  0  0  0  0  0  0  0
   75.0360   45.3590   -3.4220 C   0  0  0  0  0  0  0  0  0  0  0  0
   74.8240   43.9130   -3.0340 C   0  0  0  0  0  0  0  0  0  0  0  0
   73.5020   43.4400   -2.9230 C   0  0  0  0  0  0  0  0  0  0  0  0
   73.2200   42.1180   -2.5490 C   0  0  0  0  0  0  0  0  0  0  0  0
   71.8340   41.6130   -2.4580 C   0  0  0  0  0  0  0  0  0  0  0  0
   71.6100   40.8570   -1.3130 O   0  0  0  0  0  0  0  0  0  0  0  0
   70.3630   40.3250   -1.1020 C   0  0  0  0  0  0  0  0  0  0  0  0
   70.1880   39.5600    0.0510 C   0  0  0  0  0  0  0  0  0  0  0  0
   68.9420   38.9910    0.3270 C   0  0  0  0  0  0  0  0  0  0  0  0
   67.8730   39.1860   -0.5510 C   0  0  0  0  0  0  0  0  0  0  0  0
   68.0520   39.9500   -1.7010 C   0  0  0  0  0  0  0  0  0  0  0  0
   66.9630   40.1020   -2.5170 O   0  0  0  0  0  0  0  0  0  0  0  0
   69.2990   40.5180   -1.9770 C   0  0  0  0  0  0  0  0  0  0  0  0
   69.5290   41.3280   -3.1750 C   0  0  0  0  0  0  0  0  0  0  0  0
   68.6370   41.5510   -3.9900 O   0  0  0  0  0  0  0  0  0  0  0  0
   70.8880   41.8780   -3.3780 C   0  0  0  0  0  0  0  0  0  0  0  0
   71.0900   42.6520   -4.5060 O   0  0  0  0  0  0  0  0  0  0  0  0
   74.2930   41.2570   -2.2980 C   0  0  0  0  0  0  0  0  0  0  0  0
   75.6110   41.7120   -2.3980 C   0  0  0  0  0  0  0  0  0  0  0  0
   75.8920   43.0390   -2.7560 C   0  0  0  0  0  0  0  0  0  0  0  0
   77.3280   43.4760   -2.8550 C   0  0  0  0  0  0  0  0  0  0  0  0
   73.5358   46.3234   -2.2144 H   0  0  0  0  0  0  0  0  0  0  0  0
   73.9001   47.1569   -3.7633 H   0  0  0  0  0  0  0  0  0  0  0  0
   72.9288   45.6459   -3.7633 H   0  0  0  0  0  0  0  0  0  0  0  0
   75.3712   45.4006   -4.4689 H   0  0  0  0  0  0  0  0  0  0  0  0
   75.7915   45.7856   -2.7458 H   0  0  0  0  0  0  0  0  0  0  0  0
   72.6685   44.1257   -3.1353 H   0  0  0  0  0  0  0  0  0  0  0  0
   71.0296   39.4048    0.7421 H   0  0  0  0  0  0  0  0  0  0  0  0
   68.8026   38.3887    1.2368 H   0  0  0  0  0  0  0  0  0  0  0  0
   66.8924   38.7371   -0.3343 H   0  0  0  0  0  0  0  0  0  0  0  0
   67.0050   40.6860   -3.2480 H   0  0  0  0  0  0  0  0  0  0  0  0
   71.3400   42.2480   -5.3140 H   0  0  0  0  0  0  0  0  0  0  0  0
   74.0979   40.2110   -2.0190 H   0  0  0  0  0  0  0  0  0  0  0  0
   76.4403   41.0191   -2.1929 H   0  0  0  0  0  0  0  0  0  0  0  0
   77.7433   43.6024   -1.8443 H   0  0  0  0  0  0  0  0  0  0  0  0
   77.9069   42.7133   -3.3966 H   0  0  0  0  0  0  0  0  0  0  0  0
   77.3839   44.4318   -3.3966 H   0  0  0  0  0  0  0  0  0  0  0  0
  1  2  1  0
  2  3  1  0
  3  4  2  0
  4  5  1  0
  5  6  1  0
  6  7  1  0
  7  8  1  0
  8  9  2  0
  9 10  1  0
 10 11  2  0
 11 12  1  0
 12 13  1  0
 12 14  2  0
 14 15  1  0
 15 16  2  0
 15 17  1  0
 17 18  1  0
  5 19  2  0
 19 20  1  0
 20 21  2  0
 21 22  1  0
 21  3  1  0
 17  6  2  0
 14  8  1  0
  1 23  1  0
  1 24  1  0
  1 25  1  0
  2 26  1  0
  2 27  1  0
  4 28  1  0
  9 29  1  0
 10 30  1  0
 11 31  1  0
 13 32  1  0
 18 33  1  0
 19 34  1  0
 20 35  1  0
 22 36  1  0
 22 37  1  0
 22 38  1  0
M  END
>  <meeko>  (7) 
{"is_sidechain": [false], "free_energy": -7.629, "intermolecular_energy": -9.184, "internal_energy": -0.146}

$$$$
cand_028_out
     RDKit          3D

 38 40  0  0  0  0  0  0  0  0999 V2000
   73.3400   39.0440   -0.9940 C   0  0  0  0  0  0  0  0  0  0  0  0
   72.5130   39.4170    0.2280 C   0  0  0  0  0  0  0  0  0  0  0  0
   71.0300   39.3940   -0.0660 C   0  0  0  0  0  0  0  0  0  0  0  0
   70.4900   40.4330   -0.8520 C   0  0  0  0  0  0  0  0  0  0  0  0
   69.1220   40.4950   -1.1520 C   0  0  0  0  0  0  0  0  0  0  0  0
   68.5590   41.5690   -1.9980 C   0  0  0  0  0  0  0  0  0  0  0  0
   67.6550   42.3760   -1.3150 O   0  0  0  0  0  0  0  0  0  0  0  0
   67.0550   43.4120   -1.9840 C   0  0  0  0  0  0  0  0  0  0  0  0
   66.1430   44.1860   -1.2640 C   0  0  0  0  0  0  0  0  0  0  0  0
   65.4980   45.2590   -1.8840 C   0  0  0  0  0  0  0  0  0  0  0  0
   65.7650   45.5570   -3.2230 C   0  0  0  0  0  0  0  0  0  0  0  0
   66.6750   44.7840   -3.9370 C   0  0  0  0  0  0  0  0  0  0  0  0
   66.8910   45.1320   -5.2430 O   0  0  0  0  0  0  0  0  0  0  0  0
   67.3200   43.7100   -3.3170 C   0  0  0  0  0  0  0  0  0  0  0  0
   68.2840   42.8710   -4.0320 C   0  0  0  0  0  0  0  0  0  0  0  0
   68.5760   43.0760   -5.2080 O   0  0  0  0  0  0  0  0  0  0  0  0
   68.9050   41.7540   -3.2850 C   0  0  0  0  0  0  0  0  0  0  0  0
   69.8230   40.9770   -3.9680 O   0  0  0  0  0  0  0  0  0  0  0  0
   68.2880   39.4840   -0.6630 C   0  0  0  0  0  0  0  0  0  0  0  0
   68.8060   38.4510    0.1230 C   0  0  0  0  0  0  0  0  0  0  0  0
   70.1720   38.3980    0.4380 C   0  0  0  0  0  0  0  0  0  0  0  0
   70.6790   37.2610    1.2820 C   0  0  0  0  0  0  0  0  0  0  0  0
   74.2983   38.6118   -0.6702 H   0  0  0  0  0  0  0  0  0  0  0  0
   72.7904   38.3066   -1.5975 H   0  0  0  0  0  0  0  0  0  0  0  0
   73.5290   39.9440   -1.5975 H   0  0  0  0  0  0  0  0  0  0  0  0
   72.7268   38.7000    1.0344 H   0  0  0  0  0  0  0  0  0  0  0  0
   72.7858   40.4405    0.5246 H   0  0  0  0  0  0  0  0  0  0  0  0
   71.1595   41.2149   -1.2397 H   0  0  0  0  0  0  0  0  0  0  0  0
   65.9326   43.9513   -0.2101 H   0  0  0  0  0  0  0  0  0  0  0  0
   64.7794   45.8698   -1.3178 H   0  0  0  0  0  0  0  0  0  0  0  0
   65.2565   46.4013   -3.7115 H   0  0  0  0  0  0  0  0  0  0  0  0
   67.6760   44.8590   -5.6760 H   0  0  0  0  0  0  0  0  0  0  0  0
   69.5650   40.1500   -4.3240 H   0  0  0  0  0  0  0  0  0  0  0  0
   67.2139   39.5022   -0.8994 H   0  0  0  0  0  0  0  0  0  0  0  0
   68.1323   37.6676    0.5004 H   0  0  0  0  0  0  0  0  0  0  0  0
   70.5656   37.5153    2.3462 H   0  0  0  0  0  0  0  0  0  0  0  0
   70.1008   36.3523    1.0586 H   0  0  0  0  0  0  0  0  0  0  0  0
   71.7414   37.0838    1.0586 H   0  0  0  0  0  0  0  0  0  0  0  0
  1  2  1  0
  2  3  1  0
  3  4  2  0
  4  5  1  0
  5  6  1  0
  6  7  1  0
  7  8  1  0
  8  9  2  0
  9 10  1  0
 10 11  2  0
 11 12  1  0
 12 13  1  0
 12 14  2  0
 14 15  1  0
 15 16  2  0
 15 17  1  0
 17 18  1  0
  5 19  2  0
 19 20  1  0
 20 21  2  0
 21 22  1  0
 21  3  1  0
 17  6  2  0
 14  8  1  0
  1 23  1  0
  1 24  1  0
  1 25  1  0
  2 26  1  0
  2 27  1  0
  4 28  1  0
  9 29  1  0
 10 30  1  0
 11 31  1  0
 13 32  1  0
 18 33  1  0
 19 34  1  0
 20 35  1  0
 22 36  1  0
 22 37  1  0
 22 38  1  0
M  END
>  <meeko>  (8) 
{"is_sidechain": [false], "free_energy": -7.58, "intermolecular_energy": -8.907, "internal_energy": -0.365}

$$$$
cand_028_out
     RDKit          3D

 38 40  0  0  0  0  0  0  0  0999 V2000
   70.8310   36.9430    0.7380 C   0  0  0  0  0  0  0  0  0  0  0  0
   70.4040   38.3290    1.1970 C   0  0  0  0  0  0  0  0  0  0  0  0
   70.2290   39.2800    0.0340 C   0  0  0  0  0  0  0  0  0  0  0  0
   71.3670   39.9520   -0.4550 C   0  0  0  0  0  0  0  0  0  0  0  0
   71.2870   40.8640   -1.5160 C   0  0  0  0  0  0  0  0  0  0  0  0
   72.4840   41.5490   -2.0470 C   0  0  0  0  0  0  0  0  0  0  0  0
   72.2290   42.8610   -2.4320 O   0  0  0  0  0  0  0  0  0  0  0  0
   73.2540   43.6140   -2.9450 C   0  0  0  0  0  0  0  0  0  0  0  0
   72.9500   44.9190   -3.3310 C   0  0  0  0  0  0  0  0  0  0  0  0
   73.9490   45.7400   -3.8600 C   0  0  0  0  0  0  0  0  0  0  0  0
   75.2510   45.2560   -4.0010 C   0  0  0  0  0  0  0  0  0  0  0  0
   75.5520   43.9530   -3.6140 C   0  0  0  0  0  0  0  0  0  0  0  0
   76.8470   43.5430   -3.7780 O   0  0  0  0  0  0  0  0  0  0  0  0
   74.5510   43.1310   -3.0860 C   0  0  0  0  0  0  0  0  0  0  0  0
   74.8250   41.7550   -2.6670 C   0  0  0  0  0  0  0  0  0  0  0  0
   75.9470   41.2610   -2.7530 O   0  0  0  0  0  0  0  0  0  0  0  0
   73.6940   40.9670   -2.1280 C   0  0  0  0  0  0  0  0  0  0  0  0
   73.9670   39.6730   -1.7230 O   0  0  0  0  0  0  0  0  0  0  0  0
   70.0360   41.0910   -2.1020 C   0  0  0  0  0  0  0  0  0  0  0  0
   68.8970   40.4380   -1.6250 C   0  0  0  0  0  0  0  0  0  0  0  0
   68.9750   39.5380   -0.5530 C   0  0  0  0  0  0  0  0  0  0  0  0
   67.7190   38.8570   -0.0820 C   0  0  0  0  0  0  0  0  0  0  0  0
   71.0261   36.3099    1.6161 H   0  0  0  0  0  0  0  0  0  0  0  0
   70.0295   36.4940    0.1330 H   0  0  0  0  0  0  0  0  0  0  0  0
   71.7462   37.0229    0.1330 H   0  0  0  0  0  0  0  0  0  0  0  0
   69.4484   38.2464    1.7356 H   0  0  0  0  0  0  0  0  0  0  0  0
   71.1938   38.7302    1.8491 H   0  0  0  0  0  0  0  0  0  0  0  0
   72.3449   39.7553    0.0088 H   0  0  0  0  0  0  0  0  0  0  0  0
   71.9248   45.3016   -3.2191 H   0  0  0  0  0  0  0  0  0  0  0  0
   73.7094   46.7691   -4.1658 H   0  0  0  0  0  0  0  0  0  0  0  0
   76.0374   45.9029   -4.4170 H   0  0  0  0  0  0  0  0  0  0  0  0
   77.0500   42.8720   -4.4000 H   0  0  0  0  0  0  0  0  0  0  0  0
   73.2710   39.0520   -1.6350 H   0  0  0  0  0  0  0  0  0  0  0  0
   69.9491   41.7905   -2.9465 H   0  0  0  0  0  0  0  0  0  0  0  0
   67.9233   40.6331   -2.0981 H   0  0  0  0  0  0  0  0  0  0  0  0
   67.6983   38.8458    1.0177 H   0  0  0  0  0  0  0  0  0  0  0  0
   66.8421   39.4032   -0.4597 H   0  0  0  0  0  0  0  0  0  0  0  0
   67.6982   37.8241   -0.4597 H   0  0  0  0  0  0  0  0  0  0  0  0
  1  2  1  0
  2  3  1  0
  3  4  2  0
  4  5  1  0
  5  6  1  0
  6  7  1  0
  7  8  1  0
  8  9  2  0
  9 10  1  0
 10 11  2  0
 11 12  1  0
 12 13  1  0
 12 14  2  0
 14 15  1  0
 15 16  2  0
 15 17  1  0
 17 18  1  0
  5 19  2  0
 19 20  1  0
 20 21  2  0
 21 22  1  0
 21  3  1  0
 17  6  2  0
 14  8  1  0
  1 23  1  0
  1 24  1  0
  1 25  1  0
  2 26  1  0
  2 27  1  0
  4 28  1  0
  9 29  1  0
 10 30  1  0
 11 31  1  0
 13 32  1  0
 18 33  1  0
 19 34  1  0
 20 35  1  0
 22 36  1  0
 22 37  1  0
 22 38  1  0
M  END
>  <meeko>  (9) 
{"is_sidechain": [false], "free_energy": -7.51, "intermolecular_energy": -9.121, "internal_energy": -0.069}

$$$$
