cand_022_out
     RDKit          3D

 41 43  0  0  0  0  0  0  0  0999 V2000
   66.7470   39.3700   -0.8960 C   0  0  0  0  0  0  0  0  0  0  0  0
   68.2270   39.7190   -0.9030 C   0  0  0  0  0  0  0  0  0  0  0  0
   68.9900   38.9340    0.1660 C   0  0  0  0  0  0  0  0  0  0  0  0
   70.4360   38.7200   -0.2230 C   0  0  0  0  0  0  0  0  0  0  0  0
   71.0460   39.6650   -1.0730 C   0  0  0  0  0  0  0  0  0  0  0  0
   72.3750   39.5280   -1.4980 C   0  0  0  0  0  0  0  0  0  0  0  0
   73.0230   40.5310   -2.3670 C   0  0  0  0  0  0  0  0  0  0  0  0
   74.1780   41.0660   -1.8080 O   0  0  0  0  0  0  0  0  0  0  0  0
   74.8790   42.0110   -2.5120 C   0  0  0  0  0  0  0  0  0  0  0  0
   76.0240   42.5310   -1.9060 C   0  0  0  0  0  0  0  0  0  0  0  0
   76.7860   43.4960   -2.5700 C   0  0  0  0  0  0  0  0  0  0  0  0
   76.4040   43.9400   -3.8380 C   0  0  0  0  0  0  0  0  0  0  0  0
   75.2610   43.4180   -4.4400 C   0  0  0  0  0  0  0  0  0  0  0  0
   74.9440   43.8960   -5.6810 O   0  0  0  0  0  0  0  0  0  0  0  0
   74.4990   42.4530   -3.7750 C   0  0  0  0  0  0  0  0  0  0  0  0
   73.2910   41.8800   -4.3720 C   0  0  0  0  0  0  0  0  0  0  0  0
   72.8950   42.2150   -5.4860 O   0  0  0  0  0  0  0  0  0  0  0  0
   72.5510   40.8700   -3.5820 C   0  0  0  0  0  0  0  0  0  0  0  0
   71.4190   40.3260   -4.1610 O   0  0  0  0  0  0  0  0  0  0  0  0
   73.1050   38.4260   -1.0400 C   0  0  0  0  0  0  0  0  0  0  0  0
   72.5150   37.4760   -0.2010 C   0  0  0  0  0  0  0  0  0  0  0  0
   71.1800   37.6040    0.2090 C   0  0  0  0  0  0  0  0  0  0  0  0
   70.5940   36.5580    1.1170 C   0  0  0  0  0  0  0  0  0  0  0  0
   66.3948   39.2869    0.1428 H   0  0  0  0  0  0  0  0  0  0  0  0
   66.1817   40.1595   -1.4129 H   0  0  0  0  0  0  0  0  0  0  0  0
   66.5939   38.4111   -1.4129 H   0  0  0  0  0  0  0  0  0  0  0  0
   68.6467   39.4792   -1.8911 H   0  0  0  0  0  0  0  0  0  0  0  0
   68.3310   40.7922   -0.6851 H   0  0  0  0  0  0  0  0  0  0  0  0
   68.9544   39.4934    1.1125 H   0  0  0  0  0  0  0  0  0  0  0  0
   68.5140   37.9481    0.2728 H   0  0  0  0  0  0  0  0  0  0  0  0
   70.4630   40.5340   -1.4122 H   0  0  0  0  0  0  0  0  0  0  0  0
   76.3259   42.1818   -0.9076 H   0  0  0  0  0  0  0  0  0  0  0  0
   77.6883   43.9067   -2.0932 H   0  0  0  0  0  0  0  0  0  0  0  0
   77.0040   44.6999   -4.3600 H   0  0  0  0  0  0  0  0  0  0  0  0
   74.0470   43.9480   -5.9480 H   0  0  0  0  0  0  0  0  0  0  0  0
   71.2430   39.4100   -4.0750 H   0  0  0  0  0  0  0  0  0  0  0  0
   74.1554   38.3056   -1.3435 H   0  0  0  0  0  0  0  0  0  0  0  0
   73.1070   36.6150    0.1428 H   0  0  0  0  0  0  0  0  0  0  0  0
   70.7572   36.8492    2.1651 H   0  0  0  0  0  0  0  0  0  0  0  0
   69.5146   36.4688    0.9250 H   0  0  0  0  0  0  0  0  0  0  0  0
   71.0817   35.5909    0.9250 H   0  0  0  0  0  0  0  0  0  0  0  0
  1  2  1  0
  2  3  1  0
  3  4  1  0
  4  5  2  0
  5  6  1  0
  6  7  1  0
  7  8  1  0
  8  9  1  0
  9 10  2  0
 10 11  1  0
 11 12  2  0
 12 13  1  0
 13 14  1  0
 13 15  2  0
 15 16  1  0
 16 17  2  0
 16 18  1  0
 18 19  1  0
  6 20  2  0
 20 21  1  0
 21 22  2  0
 22 23  1  0
 22  4  1  0
 18  7  2  0
 15  9  1  0
  1 24  1  0
  1 25  1  0
  1 26  1  0
  2 27  1  0
  2 28  1  0
  3 29  1  0
  3 30  1  0
  5 31  1  0
 10 32  1  0
 11 33  1  0
 12 34  1  0
 14 35  1  0
 19 36  1  0
 20 37  1  0
 21 38  1  0
 23 39  1  0
 23 40  1  0
 23 41  1  0
M  END
>  <meeko>  (1) 
{"is_sidechain": [false], "free_energy": -8.059, "intermolecular_energy": -9.944, "internal_energy": -0.419}

$$$$
cand_022_out
     RDKit          3D

 41 43  0  0  0  0  0  0  0  0999 V2000
   72.6530   38.2860   -2.1380 C   0  0  0  0  0  0  0  0  0  0  0  0
   73.2170   39.3230   -1.1800 C   0  0  0  0  0  0  0  0  0  0  0  0
   72.4070   39.3840    0.1160 C   0  0  0  0  0  0  0  0  0  0  0  0
   70.9180   39.3800   -0.1540 C   0  0  0  0  0  0  0  0  0  0  0  0
   70.3770   40.4280   -0.9260 C   0  0  0  0  0  0  0  0  0  0  0  0
   69.0050   40.5090   -1.2040 C   0  0  0  0  0  0  0  0  0  0  0  0
   68.4410   41.5930   -2.0350 C   0  0  0  0  0  0  0  0  0  0  0  0
   67.5600   42.4080   -1.3350 O   0  0  0  0  0  0  0  0  0  0  0  0
   66.9630   43.4560   -1.9890 C   0  0  0  0  0  0  0  0  0  0  0  0
   66.0740   44.2390   -1.2510 C   0  0  0  0  0  0  0  0  0  0  0  0
   65.4330   45.3220   -1.8570 C   0  0  0  0  0  0  0  0  0  0  0  0
   65.6810   45.6230   -3.1980 C   0  0  0  0  0  0  0  0  0  0  0  0
   66.5690   44.8400   -3.9310 C   0  0  0  0  0  0  0  0  0  0  0  0
   66.7660   45.1890   -5.2390 O   0  0  0  0  0  0  0  0  0  0  0  0
   67.2090   43.7550   -3.3250 C   0  0  0  0  0  0  0  0  0  0  0  0
   68.1490   42.9060   -4.0600 C   0  0  0  0  0  0  0  0  0  0  0  0
   68.4240   43.1110   -5.2410 O   0  0  0  0  0  0  0  0  0  0  0  0
   68.7680   41.7780   -3.3280 C   0  0  0  0  0  0  0  0  0  0  0  0
   69.6640   40.9910   -4.0280 O   0  0  0  0  0  0  0  0  0  0  0  0
   68.1690   39.5040   -0.7070 C   0  0  0  0  0  0  0  0  0  0  0  0
   68.6880   38.4600    0.0650 C   0  0  0  0  0  0  0  0  0  0  0  0
   70.0580   38.3890    0.3570 C   0  0  0  0  0  0  0  0  0  0  0  0
   70.5660   37.2430    1.1870 C   0  0  0  0  0  0  0  0  0  0  0  0
   72.2047   37.4618   -1.5638 H   0  0  0  0  0  0  0  0  0  0  0  0
   71.8841   38.7521   -2.7717 H   0  0  0  0  0  0  0  0  0  0  0  0
   73.4621   37.8938   -2.7717 H   0  0  0  0  0  0  0  0  0  0  0  0
   74.2576   39.0597   -0.9396 H   0  0  0  0  0  0  0  0  0  0  0  0
   73.1662   40.3081   -1.6668 H   0  0  0  0  0  0  0  0  0  0  0  0
   72.6593   38.5108    0.7355 H   0  0  0  0  0  0  0  0  0  0  0  0
   72.6591   40.3210    0.6342 H   0  0  0  0  0  0  0  0  0  0  0  0
   71.0496   41.2036   -1.3212 H   0  0  0  0  0  0  0  0  0  0  0  0
   65.8786   44.0037   -0.1944 H   0  0  0  0  0  0  0  0  0  0  0  0
   64.7313   45.9392   -1.2767 H   0  0  0  0  0  0  0  0  0  0  0  0
   65.1761   46.4765   -3.6740 H   0  0  0  0  0  0  0  0  0  0  0  0
   66.3620   44.6920   -5.9220 H   0  0  0  0  0  0  0  0  0  0  0  0
   70.3840   41.3880   -4.4790 H   0  0  0  0  0  0  0  0  0  0  0  0
   67.0914   39.5352   -0.9258 H   0  0  0  0  0  0  0  0  0  0  0  0
   68.0114   37.6824    0.4492 H   0  0  0  0  0  0  0  0  0  0  0  0
   70.4579   37.4869    2.2541 H   0  0  0  0  0  0  0  0  0  0  0  0
   69.9848   36.3378    0.9571 H   0  0  0  0  0  0  0  0  0  0  0  0
   71.6270   37.0658    0.9571 H   0  0  0  0  0  0  0  0  0  0  0  0
  1  2  1  0
  2  3  1  0
  3  4  1  0
  4  5  2  0
  5  6  1  0
  6  7  1  0
  7  8  1  0
  8  9  1  0
  9 10  2  0
 10 11  1  0
 11 12  2  0
 12 13  1  0
 13 14  1  0
 13 15  2  0
 15 16  1  0
 16 17  2  0
 16 18  1  0
 18 19  1  0
  6 20  2  0
 20 21  1  0
 21 22  2  0
 22 23  1  0
 22  4  1  0
 18  7  2  0
 15  9  1  0
  1 24  1  0
  1 25  1  0
  1 26  1  0
  2 27  1  0
  2 28  1  0
  3 29  1  0
  3 30  1  0
  5 31  1  0
 10 32  1  0
 11 33  1  0
 12 34  1  0
 14 35  1  0
 19 36  1  0
 20 37  1  0
 21 38  1  0
 23 39  1  0
 23 40  1  0
 23 41  1  0
M  END
>  <meeko>  (2) 
{"is_sidechain": [false], "free_energy": -7.832, "intermolecular_energy": -9.618, "internal_energy": -0.465}

$$$$
cand_022_out
     RDKit          3D

 41 43  0  0  0  0  0  0  0  0999 V2000
   72.1010   36.8250    0.3830 C   0  0  0  0  0  0  0  0  0  0  0  0
   70.6640   37.0650    0.8160 C   0  0  0  0  0  0  0  0  0  0  0  0
   70.4390   38.5250    1.2170 C   0  0  0  0  0  0  0  0  0  0  0  0
   70.2840   39.4200    0.0070 C   0  0  0  0  0  0  0  0  0  0  0  0
   71.4280   40.0830   -0.4830 C   0  0  0  0  0  0  0  0  0  0  0  0
   71.3660   40.9470   -1.5850 C   0  0  0  0  0  0  0  0  0  0  0  0
   72.5680   41.6220   -2.1150 C   0  0  0  0  0  0  0  0  0  0  0  0
   72.3350   42.9470   -2.4640 O   0  0  0  0  0  0  0  0  0  0  0  0
   73.3690   43.6910   -2.9710 C   0  0  0  0  0  0  0  0  0  0  0  0
   73.0860   45.0130   -3.3210 C   0  0  0  0  0  0  0  0  0  0  0  0
   74.0950   45.8260   -3.8410 C   0  0  0  0  0  0  0  0  0  0  0  0
   75.3860   45.3200   -4.0110 C   0  0  0  0  0  0  0  0  0  0  0  0
   75.6650   44.0020   -3.6600 C   0  0  0  0  0  0  0  0  0  0  0  0
   76.9490   43.5710   -3.8510 O   0  0  0  0  0  0  0  0  0  0  0  0
   74.6550   43.1880   -3.1400 C   0  0  0  0  0  0  0  0  0  0  0  0
   74.9060   41.7960   -2.7590 C   0  0  0  0  0  0  0  0  0  0  0  0
   76.0170   41.2820   -2.8720 O   0  0  0  0  0  0  0  0  0  0  0  0
   73.7660   41.0170   -2.2260 C   0  0  0  0  0  0  0  0  0  0  0  0
   74.0180   39.7080   -1.8570 O   0  0  0  0  0  0  0  0  0  0  0  0
   70.1290   41.1290   -2.2140 C   0  0  0  0  0  0  0  0  0  0  0  0
   68.9840   40.4830   -1.7400 C   0  0  0  0  0  0  0  0  0  0  0  0
   69.0430   39.6330   -0.6250 C   0  0  0  0  0  0  0  0  0  0  0  0
   67.7840   38.9580   -0.1570 C   0  0  0  0  0  0  0  0  0  0  0  0
   72.7391   36.7184    1.2727 H   0  0  0  0  0  0  0  0  0  0  0  0
   72.1540   35.9056   -0.2185 H   0  0  0  0  0  0  0  0  0  0  0  0
   72.4499   37.6773   -0.2185 H   0  0  0  0  0  0  0  0  0  0  0  0
   69.9921   36.8152   -0.0184 H   0  0  0  0  0  0  0  0  0  0  0  0
   70.4543   36.4295    1.6890 H   0  0  0  0  0  0  0  0  0  0  0  0
   69.5266   38.5904    1.8280 H   0  0  0  0  0  0  0  0  0  0  0  0
   71.3183   38.8643    1.7842 H   0  0  0  0  0  0  0  0  0  0  0  0
   72.3957   39.9176    0.0132 H   0  0  0  0  0  0  0  0  0  0  0  0
   72.0701   45.4130   -3.1873 H   0  0  0  0  0  0  0  0  0  0  0  0
   73.8729   46.8673   -4.1174 H   0  0  0  0  0  0  0  0  0  0  0  0
   76.1800   45.9613   -4.4211 H   0  0  0  0  0  0  0  0  0  0  0  0
   77.3470   42.9960   -3.2270 H   0  0  0  0  0  0  0  0  0  0  0  0
   74.2150   39.5030   -0.9640 H   0  0  0  0  0  0  0  0  0  0  0  0
   70.0572   41.7882   -3.0917 H   0  0  0  0  0  0  0  0  0  0  0  0
   68.0219   40.6432   -2.2486 H   0  0  0  0  0  0  0  0  0  0  0  0
   67.7615   38.9459    0.9427 H   0  0  0  0  0  0  0  0  0  0  0  0
   66.9102   39.5086   -0.5356 H   0  0  0  0  0  0  0  0  0  0  0  0
   67.7590   37.9255   -0.5356 H   0  0  0  0  0  0  0  0  0  0  0  0
  1  2  1  0
  2  3  1  0
  3  4  1  0
  4  5  2  0
  5  6  1  0
  6  7  1  0
  7  8  1  0
  8  9  1  0
  9 10  2  0
 10 11  1  0
 11 12  2  0
 12 13  1  0
 13 14  1  0
 13 15  2  0
 15 16  1  0
 16 17  2  0
 16 18  1  0
 18 19  1  0
  6 20  2  0
 20 21  1  0
 21 22  2  0
 22 23  1  0
 22  4  1  0
 18  7  2  0
 15  9  1  0
  1 24  1  0
  1 25  1  0
  1 26  1  0
  2 27  1  0
  2 28  1  0
  3 29  1  0
  3 30  1  0
  5 31  1  0
 10 32  1  0
 11 33  1  0
 12 34  1  0
 14 35  1  0
 19 36  1  0
 20 37  1  0
 21 38  1  0
 23 39  1  0
 23 40  1  0
 23 41  1  0
M  END
>  <meeko>  (3) 
{"is_sidechain": [false], "free_energy": -7.734, "intermolecular_energy": -9.795, "internal_energy": -0.167}

$$$$
cand_022_out
     RDKit          3D

 41 43  0  0  0  0  0  0  0  0999 V2000
   75.8250   43.5510   -7.8310 C   0  0  0  0  0  0  0  0  0  0  0  0
   75.2180   42.6050   -6.8080 C   0  0  0  0  0  0  0  0  0  0  0  0
   73.6930   42.7240   -6.7740 C   0  0  0  0  0  0  0  0  0  0  0  0
   73.1860   43.0300   -5.3820 C   0  0  0  0  0  0  0  0  0  0  0  0
   72.9390   41.9500   -4.5090 C   0  0  0  0  0  0  0  0  0  0  0  0
   72.4490   42.1470   -3.2110 C   0  0  0  0  0  0  0  0  0  0  0  0
   72.2150   41.0180   -2.2870 C   0  0  0  0  0  0  0  0  0  0  0  0
   70.8770   40.8680   -1.9440 O   0  0  0  0  0  0  0  0  0  0  0  0
   70.5200   39.8550   -1.0900 C   0  0  0  0  0  0  0  0  0  0  0  0
   69.1680   39.7510   -0.7610 C   0  0  0  0  0  0  0  0  0  0  0  0
   68.7370   38.7410    0.1020 C   0  0  0  0  0  0  0  0  0  0  0  0
   69.6570   37.8360    0.6360 C   0  0  0  0  0  0  0  0  0  0  0  0
   71.0060   37.9420    0.3050 C   0  0  0  0  0  0  0  0  0  0  0  0
   71.8520   37.0230    0.8620 O   0  0  0  0  0  0  0  0  0  0  0  0
   71.4360   38.9540   -0.5580 C   0  0  0  0  0  0  0  0  0  0  0  0
   72.8450   39.1010   -0.9310 C   0  0  0  0  0  0  0  0  0  0  0  0
   73.7120   38.3390   -0.5080 O   0  0  0  0  0  0  0  0  0  0  0  0
   73.1980   40.2100   -1.8450 C   0  0  0  0  0  0  0  0  0  0  0  0
   74.5290   40.3320   -2.2010 O   0  0  0  0  0  0  0  0  0  0  0  0
   72.2190   43.4580   -2.7820 C   0  0  0  0  0  0  0  0  0  0  0  0
   72.4530   44.5400   -3.6350 C   0  0  0  0  0  0  0  0  0  0  0  0
   72.9270   44.3420   -4.9400 C   0  0  0  0  0  0  0  0  0  0  0  0
   73.1680   45.5410   -5.8170 C   0  0  0  0  0  0  0  0  0  0  0  0
   76.3484   44.3667   -7.3108 H   0  0  0  0  0  0  0  0  0  0  0  0
   76.5389   43.0004   -8.4613 H   0  0  0  0  0  0  0  0  0  0  0  0
   75.0270   43.9705   -8.4613 H   0  0  0  0  0  0  0  0  0  0  0  0
   75.4907   41.5720   -7.0697 H   0  0  0  0  0  0  0  0  0  0  0  0
   75.6085   42.8720   -5.8149 H   0  0  0  0  0  0  0  0  0  0  0  0
   73.3835   43.5331   -7.4519 H   0  0  0  0  0  0  0  0  0  0  0  0
   73.2670   41.7602   -7.0897 H   0  0  0  0  0  0  0  0  0  0  0  0
   73.1364   40.9252   -4.8565 H   0  0  0  0  0  0  0  0  0  0  0  0
   68.4426   40.4635   -1.1807 H   0  0  0  0  0  0  0  0  0  0  0  0
   67.6713   38.6582    0.3615 H   0  0  0  0  0  0  0  0  0  0  0  0
   69.3172   37.0413    1.3164 H   0  0  0  0  0  0  0  0  0  0  0  0
   71.5240   36.3960    1.4750 H   0  0  0  0  0  0  0  0  0  0  0  0
   74.9760   41.1450   -2.0710 H   0  0  0  0  0  0  0  0  0  0  0  0
   71.8498   43.6396   -1.7618 H   0  0  0  0  0  0  0  0  0  0  0  0
   72.2625   45.5626   -3.2774 H   0  0  0  0  0  0  0  0  0  0  0  0
   73.3458   46.4256   -5.1879 H   0  0  0  0  0  0  0  0  0  0  0  0
   74.0477   45.3599   -6.4521 H   0  0  0  0  0  0  0  0  0  0  0  0
   72.2866   45.7139   -6.4521 H   0  0  0  0  0  0  0  0  0  0  0  0
  1  2  1  0
  2  3  1  0
  3  4  1  0
  4  5  2  0
  5  6  1  0
  6  7  1  0
  7  8  1  0
  8  9  1  0
  9 10  2  0
 10 11  1  0
 11 12  2  0
 12 13  1  0
 13 14  1  0
 13 15  2  0
 15 16  1  0
 16 17  2  0
 16 18  1  0
 18 19  1  0
  6 20  2  0
 20 21  1  0
 21 22  2  0
 22 23  1  0
 22  4  1  0
 18  7  2  0
 15  9  1  0
  1 24  1  0
  1 25  1  0
  1 26  1  0
  2 27  1  0
  2 28  1  0
  3 29  1  0
  3 30  1  0
  5 31  1  0
 10 32  1  0
 11 33  1  0
 12 34  1  0
 14 35  1  0
 19 36  1  0
 20 37  1  0
 21 38  1  0
 23 39  1  0
 23 40  1  0
 23 41  1  0
M  END
>  <meeko>  (4) 
{"is_sidechain": [false], "free_energy": -7.63, "intermolecular_energy": -9.297, "internal_energy": -0.536}

$$$$
cand_022_out
     RDKit          3D

 41 43  0  0  0  0  0  0  0  0999 V2000
   72.3390   36.8830    0.1670 C   0  0  0  0  0  0  0  0  0  0  0  0
   73.0110   38.2450    0.0900 C   0  0  0  0  0  0  0  0  0  0  0  0
   72.0780   39.3560    0.5760 C   0  0  0  0  0  0  0  0  0  0  0  0
   71.2330   39.9100   -0.5510 C   0  0  0  0  0  0  0  0  0  0  0  0
   71.8630   40.7100   -1.5260 C   0  0  0  0  0  0  0  0  0  0  0  0
   71.1480   41.2790   -2.5890 C   0  0  0  0  0  0  0  0  0  0  0  0
   71.8120   42.0950   -3.6260 C   0  0  0  0  0  0  0  0  0  0  0  0
   71.9400   43.4310   -3.2620 O   0  0  0  0  0  0  0  0  0  0  0  0
   72.5400   44.3010   -4.1360 C   0  0  0  0  0  0  0  0  0  0  0  0
   72.6350   45.6360   -3.7350 C   0  0  0  0  0  0  0  0  0  0  0  0
   73.2360   46.5740   -4.5770 C   0  0  0  0  0  0  0  0  0  0  0  0
   73.7430   46.1800   -5.8170 C   0  0  0  0  0  0  0  0  0  0  0  0
   73.6480   44.8480   -6.2130 C   0  0  0  0  0  0  0  0  0  0  0  0
   74.1650   44.5300   -7.4390 O   0  0  0  0  0  0  0  0  0  0  0  0
   73.0450   43.9090   -5.3710 C   0  0  0  0  0  0  0  0  0  0  0  0
   72.9240   42.5000   -5.7500 C   0  0  0  0  0  0  0  0  0  0  0  0
   73.3530   42.0750   -6.8210 O   0  0  0  0  0  0  0  0  0  0  0  0
   72.2630   41.5880   -4.7890 C   0  0  0  0  0  0  0  0  0  0  0  0
   72.1660   40.2570   -5.1510 O   0  0  0  0  0  0  0  0  0  0  0  0
   69.7770   41.0190   -2.6770 C   0  0  0  0  0  0  0  0  0  0  0  0
   69.1350   40.2320   -1.7170 C   0  0  0  0  0  0  0  0  0  0  0  0
   69.8470   39.6780   -0.6430 C   0  0  0  0  0  0  0  0  0  0  0  0
   69.1110   38.8340    0.3600 C   0  0  0  0  0  0  0  0  0  0  0  0
   72.2002   36.6017    1.2213 H   0  0  0  0  0  0  0  0  0  0  0  0
   71.3599   36.9285   -0.3323 H   0  0  0  0  0  0  0  0  0  0  0  0
   72.9708   36.1337   -0.3323 H   0  0  0  0  0  0  0  0  0  0  0  0
   73.9135   38.2349    0.7188 H   0  0  0  0  0  0  0  0  0  0  0  0
   73.2694   38.4447   -0.9604 H   0  0  0  0  0  0  0  0  0  0  0  0
   71.4139   38.9494    1.3529 H   0  0  0  0  0  0  0  0  0  0  0  0
   72.6966   40.1735    0.9747 H   0  0  0  0  0  0  0  0  0  0  0  0
   72.9451   40.8927   -1.4505 H   0  0  0  0  0  0  0  0  0  0  0  0
   72.2372   45.9476   -2.7579 H   0  0  0  0  0  0  0  0  0  0  0  0
   73.3102   47.6256   -4.2628 H   0  0  0  0  0  0  0  0  0  0  0  0
   74.2162   46.9197   -6.4794 H   0  0  0  0  0  0  0  0  0  0  0  0
   74.5950   43.7070   -7.5660 H   0  0  0  0  0  0  0  0  0  0  0  0
   72.4470   39.5890   -4.5580 H   0  0  0  0  0  0  0  0  0  0  0  0
   69.1968   41.4389   -3.5119 H   0  0  0  0  0  0  0  0  0  0  0  0
   68.0547   40.0441   -1.8050 H   0  0  0  0  0  0  0  0  0  0  0  0
   69.3863   39.1496    1.3772 H   0  0  0  0  0  0  0  0  0  0  0  0
   68.0272   38.9577    0.2184 H   0  0  0  0  0  0  0  0  0  0  0  0
   69.3810   37.7771    0.2184 H   0  0  0  0  0  0  0  0  0  0  0  0
  1  2  1  0
  2  3  1  0
  3  4  1  0
  4  5  2  0
  5  6  1  0
  6  7  1  0
  7  8  1  0
  8  9  1  0
  9 10  2  0
 10 11  1  0
 11 12  2  0
 12 13  1  0
 13 14  1  0
 13 15  2  0
 15 16  1  0
 16 17  2  0
 16 18  1  0
 18 19  1  0
  6 20  2  0
 20 21  1  0
 21 22  2  0
 22 23  1  0
 22  4  1  0
 18  7  2  0
 15  9  1  0
  1 24  1  0
  1 25  1  0
  1 26  1  0
  2 27  1  0
  2 28  1  0
  3 29  1  0
  3 30  1  0
  5 31  1  0
 10 32  1  0
 11 33  1  0
 12 34  1  0
 14 35  1  0
 19 36  1  0
 20 37  1  0
 21 38  1  0
 23 39  1  0
 23 40  1  0
 23 41  1  0
M  END
>  <meeko>  (5) 
{"is_sidechain": [false], "free_energy": -7.563, "intermolecular_energy": -9.027, "internal_energy": -0.724}

$$$$
cand_022_out
     RDKit          3D

 41 43  0  0  0  0  0  0  0  0999 V2000
   76.3880   42.7460   -1.7230 C   0  0  0  0  0  0  0  0  0  0  0  0
   76.2970   43.6090   -2.9720 C   0  0  0  0  0  0  0  0  0  0  0  0
   74.9230   44.2710   -3.0930 C   0  0  0  0  0  0  0  0  0  0  0  0
   73.8960   43.3260   -3.6800 C   0  0  0  0  0  0  0  0  0  0  0  0
   73.2140   42.4560   -2.8050 C   0  0  0  0  0  0  0  0  0  0  0  0
   72.2640   41.5370   -3.2710 C   0  0  0  0  0  0  0  0  0  0  0  0
   71.5280   40.6430   -2.3530 C   0  0  0  0  0  0  0  0  0  0  0  0
   72.3270   39.6360   -1.8230 O   0  0  0  0  0  0  0  0  0  0  0  0
   71.7670   38.7350   -0.9530 C   0  0  0  0  0  0  0  0  0  0  0  0
   72.6020   37.7320   -0.4570 C   0  0  0  0  0  0  0  0  0  0  0  0
   72.0970   36.7830    0.4340 C   0  0  0  0  0  0  0  0  0  0  0  0
   70.7580   36.8360    0.8290 C   0  0  0  0  0  0  0  0  0  0  0  0
   69.9280   37.8380    0.3330 C   0  0  0  0  0  0  0  0  0  0  0  0
   68.6290   37.8330    0.7620 O   0  0  0  0  0  0  0  0  0  0  0  0
   70.4350   38.7880   -0.5600 C   0  0  0  0  0  0  0  0  0  0  0  0
   69.5960   39.8570   -1.1050 C   0  0  0  0  0  0  0  0  0  0  0  0
   68.4110   39.9740   -0.7980 O   0  0  0  0  0  0  0  0  0  0  0  0
   70.2270   40.8070   -2.0490 C   0  0  0  0  0  0  0  0  0  0  0  0
   69.4280   41.8200   -2.5480 O   0  0  0  0  0  0  0  0  0  0  0  0
   71.9880   41.5080   -4.6420 C   0  0  0  0  0  0  0  0  0  0  0  0
   72.6590   42.3590   -5.5240 C   0  0  0  0  0  0  0  0  0  0  0  0
   73.6220   43.2670   -5.0600 C   0  0  0  0  0  0  0  0  0  0  0  0
   74.3120   44.1650   -6.0490 C   0  0  0  0  0  0  0  0  0  0  0  0
   76.3206   43.3849   -0.8301 H   0  0  0  0  0  0  0  0  0  0  0  0
   75.5614   42.0202   -1.7178 H   0  0  0  0  0  0  0  0  0  0  0  0
   77.3478   42.2086   -1.7178 H   0  0  0  0  0  0  0  0  0  0  0  0
   77.0685   44.3916   -2.9235 H   0  0  0  0  0  0  0  0  0  0  0  0
   76.4499   42.9647   -3.8504 H   0  0  0  0  0  0  0  0  0  0  0  0
   74.5888   44.5841   -2.0929 H   0  0  0  0  0  0  0  0  0  0  0  0
   75.0172   45.1361   -3.7659 H   0  0  0  0  0  0  0  0  0  0  0  0
   73.4333   42.4997   -1.7280 H   0  0  0  0  0  0  0  0  0  0  0  0
   73.6563   37.6895   -0.7678 H   0  0  0  0  0  0  0  0  0  0  0  0
   72.7543   35.9926    0.8254 H   0  0  0  0  0  0  0  0  0  0  0  0
   70.3602   36.0878    1.5304 H   0  0  0  0  0  0  0  0  0  0  0  0
   68.2610   37.0530    1.1290 H   0  0  0  0  0  0  0  0  0  0  0  0
   69.0560   41.7450   -3.4040 H   0  0  0  0  0  0  0  0  0  0  0  0
   71.2341   40.8073   -5.0302 H   0  0  0  0  0  0  0  0  0  0  0  0
   72.4284   42.3162   -6.5987 H   0  0  0  0  0  0  0  0  0  0  0  0
   74.8959   44.9249   -5.5090 H   0  0  0  0  0  0  0  0  0  0  0  0
   74.9846   43.5663   -6.6808 H   0  0  0  0  0  0  0  0  0  0  0  0
   73.5603   44.6608   -6.6808 H   0  0  0  0  0  0  0  0  0  0  0  0
  1  2  1  0
  2  3  1  0
  3  4  1  0
  4  5  2  0
  5  6  1  0
  6  7  1  0
  7  8  1  0
  8  9  1  0
  9 10  2  0
 10 11  1  0
 11 12  2  0
 12 13  1  0
 13 14  1  0
 13 15  2  0
 15 16  1  0
 16 17  2  0
 16 18  1  0
 18 19  1  0
  6 20  2  0
 20 21  1  0
 21 22  2  0
 22 23  1  0
 22  4  1  0
 18  7  2  0
 15  9  1  0
  1 24  1  0
  1 25  1  0
  1 26  1  0
  2 27  1  0
  2 28  1  0
  3 29  1  0
  3 30  1  0
  5 31  1  0
 10 32  1  0
 11 33  1  0
 12 34  1  0
 14 35  1  0
 19 36  1  0
 20 37  1  0
 21 38  1  0
 23 39  1  0
 23 40  1  0
 23 41  1  0
M  END
>  <meeko>  (6) 
{"is_sidechain": [false], "free_energy": -7.563, "intermolecular_energy": -9.309, "internal_energy": -0.442}

$$$$
cand_022_out
     RDKit          3D

 41 43  0  0  0  0  0  0  0  0999 V2000
   73.9570   47.5790   -2.9960 C   0  0  0  0  0  0  0  0  0  0  0  0
   73.6400   46.1260   -3.3150 C   0  0  0  0  0  0  0  0  0  0  0  0
   74.9170   45.3050   -3.5050 C   0  0  0  0  0  0  0  0  0  0  0  0
   74.7310   43.8710   -3.0620 C   0  0  0  0  0  0  0  0  0  0  0  0
   73.4170   43.3820   -2.9170 C   0  0  0  0  0  0  0  0  0  0  0  0
   73.1590   42.0720   -2.4900 C   0  0  0  0  0  0  0  0  0  0  0  0
   71.7820   41.5500   -2.3630 C   0  0  0  0  0  0  0  0  0  0  0  0
   71.5990   40.7790   -1.2220 O   0  0  0  0  0  0  0  0  0  0  0  0
   70.3640   40.2320   -0.9820 C   0  0  0  0  0  0  0  0  0  0  0  0
   70.2300   39.4520    0.1690 C   0  0  0  0  0  0  0  0  0  0  0  0
   68.9990   38.8670    0.4730 C   0  0  0  0  0  0  0  0  0  0  0  0
   67.9030   39.0620   -0.3710 C   0  0  0  0  0  0  0  0  0  0  0  0
   68.0400   39.8400   -1.5170 C   0  0  0  0  0  0  0  0  0  0  0  0
   66.9280   39.9900   -2.2990 O   0  0  0  0  0  0  0  0  0  0  0  0
   69.2730   40.4250   -1.8220 C   0  0  0  0  0  0  0  0  0  0  0  0
   69.4600   41.2500   -3.0170 C   0  0  0  0  0  0  0  0  0  0  0  0
   68.5420   41.4720   -3.8040 O   0  0  0  0  0  0  0  0  0  0  0  0
   70.8070   41.8170   -3.2530 C   0  0  0  0  0  0  0  0  0  0  0  0
   70.9690   42.6050   -4.3780 O   0  0  0  0  0  0  0  0  0  0  0  0
   74.2480   41.2370   -2.2210 C   0  0  0  0  0  0  0  0  0  0  0  0
   75.5580   41.7060   -2.3540 C   0  0  0  0  0  0  0  0  0  0  0  0
   75.8160   43.0230   -2.7640 C   0  0  0  0  0  0  0  0  0  0  0  0
   77.2430   43.4770   -2.8970 C   0  0  0  0  0  0  0  0  0  0  0  0
   73.9871   47.7168   -1.9051 H   0  0  0  0  0  0  0  0  0  0  0  0
   74.9341   47.8441   -3.4261 H   0  0  0  0  0  0  0  0  0  0  0  0
   73.1791   48.2270   -3.4261 H   0  0  0  0  0  0  0  0  0  0  0  0
   73.0582   45.6963   -2.4862 H   0  0  0  0  0  0  0  0  0  0  0  0
   73.0655   46.0947   -4.2525 H   0  0  0  0  0  0  0  0  0  0  0  0
   75.1929   45.3163   -4.5698 H   0  0  0  0  0  0  0  0  0  0  0  0
   75.7088   45.7546   -2.8879 H   0  0  0  0  0  0  0  0  0  0  0  0
   72.5707   44.0466   -3.1452 H   0  0  0  0  0  0  0  0  0  0  0  0
   71.0923   39.2989    0.8345 H   0  0  0  0  0  0  0  0  0  0  0  0
   68.8921   38.2516    1.3785 H   0  0  0  0  0  0  0  0  0  0  0  0
   66.9334   38.6015   -0.1303 H   0  0  0  0  0  0  0  0  0  0  0  0
   66.2190   40.5290   -2.0060 H   0  0  0  0  0  0  0  0  0  0  0  0
   71.4010   43.4340   -4.3110 H   0  0  0  0  0  0  0  0  0  0  0  0
   74.0717   40.1994   -1.9011 H   0  0  0  0  0  0  0  0  0  0  0  0
   76.3994   41.0325   -2.1339 H   0  0  0  0  0  0  0  0  0  0  0  0
   77.6785   43.6155   -1.8964 H   0  0  0  0  0  0  0  0  0  0  0  0
   77.8196   42.7180   -3.4460 H   0  0  0  0  0  0  0  0  0  0  0  0
   77.2750   44.4297   -3.4460 H   0  0  0  0  0  0  0  0  0  0  0  0
  1  2  1  0
  2  3  1  0
  3  4  1  0
  4  5  2  0
  5  6  1  0
  6  7  1  0
  7  8  1  0
  8  9  1  0
  9 10  2  0
 10 11  1  0
 11 12  2  0
 12 13  1  0
 13 14  1  0
 13 15  2  0
 15 16  1  0
 16 17  2  0
 16 18  1  0
 18 19  1  0
  6 20  2  0
 20 21  1  0
 21 22  2  0
 22 23  1  0
 22  4  1  0
 18  7  2  0
 15  9  1  0
  1 24  1  0
  1 25  1  0
  1 26  1  0
  2 27  1  0
  2 28  1  0
  3 29  1  0
  3 30  1  0
  5 31  1  0
 10 32  1  0
 11 33  1  0
 12 34  1  0
 14 35  1  0
 19 36  1  0
 20 37  1  0
 21 38  1  0
 23 39  1  0
 23 40  1  0
 23 41  1  0
M  END
>  <meeko>  (7) 
{"is_sidechain": [false], "free_energy": -7.536, "intermolecular_energy": -9.5, "internal_energy": -0.217}

$$$$
cand_022_out
     RDKit          3D

 41 43  0  0  0  0  0  0  0  0999 V2000
   75.9390   47.1570   -2.9180 C   0  0  0  0  0  0  0  0  0  0  0  0
   75.2750   45.8410   -3.2920 C   0  0  0  0  0  0  0  0  0  0  0  0
   73.7500   45.9550   -3.2550 C   0  0  0  0  0  0  0  0  0  0  0  0
   73.0830   44.7190   -3.8180 C   0  0  0  0  0  0  0  0  0  0  0  0
   72.9250   43.6020   -2.9720 C   0  0  0  0  0  0  0  0  0  0  0  0
   72.3370   42.4120   -3.4220 C   0  0  0  0  0  0  0  0  0  0  0  0
   72.1460   41.2510   -2.5290 C   0  0  0  0  0  0  0  0  0  0  0  0
   70.8380   41.1260   -2.0750 O   0  0  0  0  0  0  0  0  0  0  0  0
   70.5230   40.0870   -1.2360 C   0  0  0  0  0  0  0  0  0  0  0  0
   69.2020   40.0100   -0.7940 C   0  0  0  0  0  0  0  0  0  0  0  0
   68.8140   38.9760    0.0610 C   0  0  0  0  0  0  0  0  0  0  0  0
   69.7450   38.0200    0.4720 C   0  0  0  0  0  0  0  0  0  0  0  0
   71.0620   38.1000    0.0280 C   0  0  0  0  0  0  0  0  0  0  0  0
   71.9220   37.1310    0.4690 O   0  0  0  0  0  0  0  0  0  0  0  0
   71.4510   39.1360   -0.8270 C   0  0  0  0  0  0  0  0  0  0  0  0
   72.8260   39.2560   -1.3150 C   0  0  0  0  0  0  0  0  0  0  0  0
   73.7000   38.4500   -1.0040 O   0  0  0  0  0  0  0  0  0  0  0  0
   73.1350   40.3940   -2.2100 C   0  0  0  0  0  0  0  0  0  0  0  0
   74.4340   40.4910   -2.6770 O   0  0  0  0  0  0  0  0  0  0  0  0
   71.8850   42.3560   -4.7450 C   0  0  0  0  0  0  0  0  0  0  0  0
   72.0380   43.4510   -5.5990 C   0  0  0  0  0  0  0  0  0  0  0  0
   72.6430   44.6360   -5.1530 C   0  0  0  0  0  0  0  0  0  0  0  0
   72.7790   45.7880   -6.1110 C   0  0  0  0  0  0  0  0  0  0  0  0
   75.9842   47.2466   -1.8226 H   0  0  0  0  0  0  0  0  0  0  0  0
   76.9584   47.1836   -3.3304 H   0  0  0  0  0  0  0  0  0  0  0  0
   75.3547   47.9927   -3.3304 H   0  0  0  0  0  0  0  0  0  0  0  0
   75.5882   45.5581   -4.3078 H   0  0  0  0  0  0  0  0  0  0  0  0
   75.5830   45.0781   -2.5619 H   0  0  0  0  0  0  0  0  0  0  0  0
   73.4278   46.0903   -2.2120 H   0  0  0  0  0  0  0  0  0  0  0  0
   73.4552   46.8157   -3.8733 H   0  0  0  0  0  0  0  0  0  0  0  0
   73.2727   43.6664   -1.9304 H   0  0  0  0  0  0  0  0  0  0  0  0
   68.4676   40.7620   -1.1182 H   0  0  0  0  0  0  0  0  0  0  0  0
   67.7731   38.9147    0.4112 H   0  0  0  0  0  0  0  0  0  0  0  0
   69.4386   37.2056    1.1450 H   0  0  0  0  0  0  0  0  0  0  0  0
   72.7730   37.3690    0.7840 H   0  0  0  0  0  0  0  0  0  0  0  0
   74.7710   41.3200   -2.9550 H   0  0  0  0  0  0  0  0  0  0  0  0
   71.4037   41.4394   -5.1169 H   0  0  0  0  0  0  0  0  0  0  0  0
   71.6789   43.3833   -6.6365 H   0  0  0  0  0  0  0  0  0  0  0  0
   72.8896   46.7246   -5.5448 H   0  0  0  0  0  0  0  0  0  0  0  0
   73.6654   45.6355   -6.7443 H   0  0  0  0  0  0  0  0  0  0  0  0
   71.8815   45.8461   -6.7443 H   0  0  0  0  0  0  0  0  0  0  0  0
  1  2  1  0
  2  3  1  0
  3  4  1  0
  4  5  2  0
  5  6  1  0
  6  7  1  0
  7  8  1  0
  8  9  1  0
  9 10  2  0
 10 11  1  0
 11 12  2  0
 12 13  1  0
 13 14  1  0
 13 15  2  0
 15 16  1  0
 16 17  2  0
 16 18  1  0
 18 19  1  0
  6 20  2  0
 20 21  1  0
 21 22  2  0
 22 23  1  0
 22  4  1  0
 18  7  2  0
 15  9  1  0
  1 24  1  0
  1 25  1  0
  1 26  1  0
  2 27  1  0
  2 28  1  0
  3 29  1  0
  3 30  1  0
  5 31  1  0
 10 32  1  0
 11 33  1  0
 12 34  1  0
 14 35  1  0
 19 36  1  0
 20 37  1  0
 21 38  1  0
 23 39  1  0
 23 40  1  0
 23 41  1  0
M  END
>  <meeko>  (8) 
{"is_sidechain": [false], "free_energy": -7.523, "intermolecular_energy": -9.118, "internal_energy": -0.583}

$$$$
cand_022_out
     RDKit          3D

 41 43  0  0  0  0  0  0  0  0999 V2000
   74.0840   44.2090   -6.6260 C   0  0  0  0  0  0  0  0  0  0  0  0
   74.3710   42.7180   -6.7060 C   0  0  0  0  0  0  0  0  0  0  0  0
   75.7150   42.3730   -6.0610 C   0  0  0  0  0  0  0  0  0  0  0  0
   75.6080   42.2890   -4.5540 C   0  0  0  0  0  0  0  0  0  0  0  0
   74.4680   41.6720   -4.0000 C   0  0  0  0  0  0  0  0  0  0  0  0
   74.2820   41.5720   -2.6140 C   0  0  0  0  0  0  0  0  0  0  0  0
   73.1010   40.9020   -2.0320 C   0  0  0  0  0  0  0  0  0  0  0  0
   73.4160   39.7070   -1.3960 O   0  0  0  0  0  0  0  0  0  0  0  0
   72.4090   38.9820   -0.8110 C   0  0  0  0  0  0  0  0  0  0  0  0
   72.7680   37.7810   -0.1970 C   0  0  0  0  0  0  0  0  0  0  0  0
   71.7920   36.9950    0.4190 C   0  0  0  0  0  0  0  0  0  0  0  0
   70.4580   37.4080    0.4220 C   0  0  0  0  0  0  0  0  0  0  0  0
   70.1030   38.6070   -0.1910 C   0  0  0  0  0  0  0  0  0  0  0  0
   68.7800   38.9530   -0.1520 O   0  0  0  0  0  0  0  0  0  0  0  0
   71.0810   39.3930   -0.8090 C   0  0  0  0  0  0  0  0  0  0  0  0
   70.7490   40.6600   -1.4650 C   0  0  0  0  0  0  0  0  0  0  0  0
   69.5990   41.0940   -1.4980 O   0  0  0  0  0  0  0  0  0  0  0  0
   71.8570   41.4130   -2.0960 C   0  0  0  0  0  0  0  0  0  0  0  0
   71.5350   42.6140   -2.7010 O   0  0  0  0  0  0  0  0  0  0  0  0
   75.2750   42.0890   -1.7750 C   0  0  0  0  0  0  0  0  0  0  0  0
   76.4090   42.7080   -2.3070 C   0  0  0  0  0  0  0  0  0  0  0  0
   76.5860   42.8240   -3.6930 C   0  0  0  0  0  0  0  0  0  0  0  0
   77.8270   43.4950   -4.2150 C   0  0  0  0  0  0  0  0  0  0  0  0
   74.0251   44.5150   -5.5711 H   0  0  0  0  0  0  0  0  0  0  0  0
   74.8916   44.7651   -7.1245 H   0  0  0  0  0  0  0  0  0  0  0  0
   73.1277   44.4256   -7.1245 H   0  0  0  0  0  0  0  0  0  0  0  0
   73.5723   42.1712   -6.1834 H   0  0  0  0  0  0  0  0  0  0  0  0
   74.4118   42.4296   -7.7667 H   0  0  0  0  0  0  0  0  0  0  0  0
   76.0576   41.4022   -6.4486 H   0  0  0  0  0  0  0  0  0  0  0  0
   76.4295   43.1715   -6.3098 H   0  0  0  0  0  0  0  0  0  0  0  0
   73.7034   41.2577   -4.6736 H   0  0  0  0  0  0  0  0  0  0  0  0
   73.8183   37.4542   -0.1984 H   0  0  0  0  0  0  0  0  0  0  0  0
   72.0745   36.0484    0.9029 H   0  0  0  0  0  0  0  0  0  0  0  0
   69.6898   36.7880    0.9072 H   0  0  0  0  0  0  0  0  0  0  0  0
   68.5350   39.8520   -0.0550 H   0  0  0  0  0  0  0  0  0  0  0  0
   72.1800   43.2890   -2.7750 H   0  0  0  0  0  0  0  0  0  0  0  0
   75.1617   42.0072   -0.6839 H   0  0  0  0  0  0  0  0  0  0  0  0
   77.1749   43.1106   -1.6278 H   0  0  0  0  0  0  0  0  0  0  0  0
   78.4461   43.8297   -3.3696 H   0  0  0  0  0  0  0  0  0  0  0  0
   78.3984   42.7829   -4.8286 H   0  0  0  0  0  0  0  0  0  0  0  0
   77.5440   44.3630   -4.8286 H   0  0  0  0  0  0  0  0  0  0  0  0
  1  2  1  0
  2  3  1  0
  3  4  1  0
  4  5  2  0
  5  6  1  0
  6  7  1  0
  7  8  1  0
  8  9  1  0
  9 10  2  0
 10 11  1  0
 11 12  2  0
 12 13  1  0
 13 14  1  0
 13 15  2  0
 15 16  1  0
 16 17  2  0
 16 18  1  0
 18 19  1  0
  6 20  2  0
 20 21  1  0
 21 22  2  0
 22 23  1  0
 22  4  1  0
 18  7  2  0
 15  9  1  0
  1 24  1  0
  1 25  1  0
  1 26  1  0
  2 27  1  0
  2 28  1  0
  3 29  1  0
  3 30  1  0
  5 31  1  0
 10 32  1  0
 11 33  1  0
 12 34  1  0
 14 35  1  0
 19 36  1  0
 20 37  1  0
 21 38  1  0
 23 39  1  0
 23 40  1  0
 23 41  1  0
M  END
>  <meeko>  (9) 
{"is_sidechain": [false], "free_energy": -7.343, "intermolecular_energy": -8.851, "internal_energy": -0.628}

$$$$
