cand_011_out
     RDKit          3D

 35 37  0  0  0  0  0  0  0  0999 V2000
   70.5640   37.0680    1.4930 C   0  0  0  0  0  0  0  0  0  0  0  0
   70.2910   38.1210    0.4520 C   0  0  0  0  0  0  0  0  0  0  0  0
   69.0500   38.7740    0.4490 C   0  0  0  0  0  0  0  0  0  0  0  0
   68.7630   39.7590   -0.4980 C   0  0  0  0  0  0  0  0  0  0  0  0
   69.7040   40.1170   -1.4700 C   0  0  0  0  0  0  0  0  0  0  0  0
   69.3850   41.1760   -2.4500 C   0  0  0  0  0  0  0  0  0  0  0  0
   70.4230   42.0850   -2.6230 O   0  0  0  0  0  0  0  0  0  0  0  0
   70.2560   43.1200   -3.5070 C   0  0  0  0  0  0  0  0  0  0  0  0
   71.3280   44.0010   -3.6600 C   0  0  0  0  0  0  0  0  0  0  0  0
   71.2240   45.0780   -4.5440 C   0  0  0  0  0  0  0  0  0  0  0  0
   70.0480   45.2740   -5.2730 C   0  0  0  0  0  0  0  0  0  0  0  0
   68.9810   44.3930   -5.1180 C   0  0  0  0  0  0  0  0  0  0  0  0
   67.8600   44.6450   -5.8620 O   0  0  0  0  0  0  0  0  0  0  0  0
   69.0850   43.3160   -4.2340 C   0  0  0  0  0  0  0  0  0  0  0  0
   67.9870   42.3680   -4.0420 C   0  0  0  0  0  0  0  0  0  0  0  0
   66.9190   42.4770   -4.6410 O   0  0  0  0  0  0  0  0  0  0  0  0
   68.2020   41.2550   -3.0890 C   0  0  0  0  0  0  0  0  0  0  0  0
   67.1560   40.3710   -2.9030 O   0  0  0  0  0  0  0  0  0  0  0  0
   70.9520   39.4760   -1.4560 C   0  0  0  0  0  0  0  0  0  0  0  0
   71.2620   38.4790   -0.5070 C   0  0  0  0  0  0  0  0  0  0  0  0
   72.6220   37.8160   -0.5480 C   0  0  0  0  0  0  0  0  0  0  0  0
   73.3150   38.1130   -1.6830 F   0  0  0  0  0  0  0  0  0  0  0  0
   73.4380   38.1730    0.4850 F   0  0  0  0  0  0  0  0  0  0  0  0
   72.5480   36.4560   -0.5000 F   0  0  0  0  0  0  0  0  0  0  0  0
   70.4505   37.5057    2.4958 H   0  0  0  0  0  0  0  0  0  0  0  0
   69.8511   36.2391    1.3719 H   0  0  0  0  0  0  0  0  0  0  0  0
   71.5899   36.6899    1.3719 H   0  0  0  0  0  0  0  0  0  0  0  0
   68.2936   38.5070    1.2017 H   0  0  0  0  0  0  0  0  0  0  0  0
   67.7841   40.2604   -0.4798 H   0  0  0  0  0  0  0  0  0  0  0  0
   72.2533   43.8475   -3.0854 H   0  0  0  0  0  0  0  0  0  0  0  0
   72.0685   45.7722   -4.6662 H   0  0  0  0  0  0  0  0  0  0  0  0
   69.9654   46.1227   -5.9680 H   0  0  0  0  0  0  0  0  0  0  0  0
   67.0350   44.7690   -5.4360 H   0  0  0  0  0  0  0  0  0  0  0  0
   66.6470   40.0870   -3.6370 H   0  0  0  0  0  0  0  0  0  0  0  0
   71.7079   39.7579   -2.2038 H   0  0  0  0  0  0  0  0  0  0  0  0
  1  2  1  0
  2  3  2  0
  3  4  1  0
  4  5  2  0
  5  6  1  0
  6  7  1  0
  7  8  1  0
  8  9  2  0
  9 10  1  0
 10 11  2  0
 11 12  1  0
 12 13  1  0
 12 14  2  0
 14 15  1  0
 15 16  2  0
 15 17  1  0
 17 18  1  0
  5 19  1  0
 19 20  2  0
 20 21  1  0
 21 22  1  0
 21 23  1  0
 21 24  1  0
 20  2  1  0
 17  6  2  0
 14  8  1  0
  1 25  1  0
  1 26  1  0
  1 27  1  0
  3 28  1  0
  4 29  1  0
  9 30  1  0
 10 31  1  0
 11 32  1  0
 13 33  1  0
 18 34  1  0
 19 35  1  0
M  END
>  <meeko>  (1) 
{"is_sidechain": [false], "free_energy": -8.691, "intermolecular_energy": -10.216, "internal_energy": -0.044}

$$$$
cand_011_out
     RDKit          3D

 35 37  0  0  0  0  0  0  0  0999 V2000
   72.3100   36.7340    0.2400 C   0  0  0  0  0  0  0  0  0  0  0  0
   72.1110   37.9880   -0.5690 C   0  0  0  0  0  0  0  0  0  0  0  0
   72.9740   38.2550   -1.6410 C   0  0  0  0  0  0  0  0  0  0  0  0
   72.8170   39.4050   -2.4160 C   0  0  0  0  0  0  0  0  0  0  0  0
   71.7970   40.3220   -2.1420 C   0  0  0  0  0  0  0  0  0  0  0  0
   71.6380   41.5230   -2.9880 C   0  0  0  0  0  0  0  0  0  0  0  0
   72.6490   42.4580   -2.7950 O   0  0  0  0  0  0  0  0  0  0  0  0
   72.6210   43.6230   -3.5200 C   0  0  0  0  0  0  0  0  0  0  0  0
   73.6620   44.5270   -3.3060 C   0  0  0  0  0  0  0  0  0  0  0  0
   73.6940   45.7330   -4.0110 C   0  0  0  0  0  0  0  0  0  0  0  0
   72.6840   46.0340   -4.9280 C   0  0  0  0  0  0  0  0  0  0  0  0
   71.6460   45.1290   -5.1400 C   0  0  0  0  0  0  0  0  0  0  0  0
   70.6910   45.4880   -6.0500 O   0  0  0  0  0  0  0  0  0  0  0  0
   71.6150   43.9230   -4.4350 C   0  0  0  0  0  0  0  0  0  0  0  0
   70.5430   42.9460   -4.6270 C   0  0  0  0  0  0  0  0  0  0  0  0
   69.6150   43.1410   -5.4100 O   0  0  0  0  0  0  0  0  0  0  0  0
   70.6080   41.6940   -3.8380 C   0  0  0  0  0  0  0  0  0  0  0  0
   69.5850   40.7820   -4.0150 O   0  0  0  0  0  0  0  0  0  0  0  0
   70.9220   40.0470   -1.0800 C   0  0  0  0  0  0  0  0  0  0  0  0
   71.0630   38.8900   -0.2850 C   0  0  0  0  0  0  0  0  0  0  0  0
   70.0940   38.6510    0.8520 C   0  0  0  0  0  0  0  0  0  0  0  0
   69.4300   37.4670    0.7350 F   0  0  0  0  0  0  0  0  0  0  0  0
   70.6860   38.6200    2.0810 F   0  0  0  0  0  0  0  0  0  0  0  0
   69.1320   39.6140    0.9370 F   0  0  0  0  0  0  0  0  0  0  0  0
   72.2711   36.9790    1.3117 H   0  0  0  0  0  0  0  0  0  0  0  0
   71.5151   36.0126   -0.0003 H   0  0  0  0  0  0  0  0  0  0  0  0
   73.2892   36.2942   -0.0003 H   0  0  0  0  0  0  0  0  0  0  0  0
   73.7850   37.5494   -1.8742 H   0  0  0  0  0  0  0  0  0  0  0  0
   73.5048   39.5928   -3.2537 H   0  0  0  0  0  0  0  0  0  0  0  0
   74.4567   44.2906   -2.5831 H   0  0  0  0  0  0  0  0  0  0  0  0
   74.5150   46.4458   -3.8438 H   0  0  0  0  0  0  0  0  0  0  0  0
   72.7081   46.9841   -5.4819 H   0  0  0  0  0  0  0  0  0  0  0  0
   70.2790   44.8340   -6.5800 H   0  0  0  0  0  0  0  0  0  0  0  0
   68.7070   41.0130   -3.7840 H   0  0  0  0  0  0  0  0  0  0  0  0
   70.1056   40.7512   -0.8618 H   0  0  0  0  0  0  0  0  0  0  0  0
  1  2  1  0
  2  3  2  0
  3  4  1  0
  4  5  2  0
  5  6  1  0
  6  7  1  0
  7  8  1  0
  8  9  2  0
  9 10  1  0
 10 11  2  0
 11 12  1  0
 12 13  1  0
 12 14  2  0
 14 15  1  0
 15 16  2  0
 15 17  1  0
 17 18  1  0
  5 19  1  0
 19 20  2  0
 20 21  1  0
 21 22  1  0
 21 23  1  0
 21 24  1  0
 20  2  1  0
 17  6  2  0
 14  8  1  0
  1 25  1  0
  1 26  1  0
  1 27  1  0
  3 28  1  0
  4 29  1  0
  9 30  1  0
 10 31  1  0
 11 32  1  0
 13 33  1  0
 18 34  1  0
 19 35  1  0
M  END
>  <meeko>  (2) 
{"is_sidechain": [false], "free_energy": -8.529, "intermolecular_energy": -9.701, "internal_energy": -0.368}

$$$$
cand_011_out
     RDKit          3D

 35 37  0  0  0  0  0  0  0  0999 V2000
   72.4940   36.7880    0.1300 C   0  0  0  0  0  0  0  0  0  0  0  0
   72.0610   37.9360   -0.7410 C   0  0  0  0  0  0  0  0  0  0  0  0
   72.7820   38.2160   -1.9110 C   0  0  0  0  0  0  0  0  0  0  0  0
   72.4070   39.2710   -2.7470 C   0  0  0  0  0  0  0  0  0  0  0  0
   71.3070   40.0760   -2.4370 C   0  0  0  0  0  0  0  0  0  0  0  0
   70.9180   41.1750   -3.3460 C   0  0  0  0  0  0  0  0  0  0  0  0
   69.5670   41.4920   -3.2650 O   0  0  0  0  0  0  0  0  0  0  0  0
   69.0740   42.4960   -4.0590 C   0  0  0  0  0  0  0  0  0  0  0  0
   67.7150   42.7920   -3.9350 C   0  0  0  0  0  0  0  0  0  0  0  0
   67.1490   43.8030   -4.7150 C   0  0  0  0  0  0  0  0  0  0  0  0
   67.9400   44.5170   -5.6180 C   0  0  0  0  0  0  0  0  0  0  0  0
   69.2950   44.2200   -5.7380 C   0  0  0  0  0  0  0  0  0  0  0  0
   70.0100   44.9570   -6.6420 O   0  0  0  0  0  0  0  0  0  0  0  0
   69.8620   43.2090   -4.9580 C   0  0  0  0  0  0  0  0  0  0  0  0
   71.2810   42.8650   -5.0540 C   0  0  0  0  0  0  0  0  0  0  0  0
   72.0410   43.4420   -5.8300 O   0  0  0  0  0  0  0  0  0  0  0  0
   71.7850   41.7840   -4.1760 C   0  0  0  0  0  0  0  0  0  0  0  0
   73.1230   41.4560   -4.2820 O   0  0  0  0  0  0  0  0  0  0  0  0
   70.5760   39.7860   -1.2750 C   0  0  0  0  0  0  0  0  0  0  0  0
   70.9370   38.7250   -0.4180 C   0  0  0  0  0  0  0  0  0  0  0  0
   70.1140   38.4660    0.8250 C   0  0  0  0  0  0  0  0  0  0  0  0
   69.6610   37.1830    0.8960 F   0  0  0  0  0  0  0  0  0  0  0  0
   70.7940   38.6790    1.9880 F   0  0  0  0  0  0  0  0  0  0  0  0
   69.0080   39.2580    0.9010 F   0  0  0  0  0  0  0  0  0  0  0  0
   72.3877   37.0700    1.1879 H   0  0  0  0  0  0  0  0  0  0  0  0
   71.8651   35.9104   -0.0806 H   0  0  0  0  0  0  0  0  0  0  0  0
   73.5458   36.5444   -0.0806 H   0  0  0  0  0  0  0  0  0  0  0  0
   73.6531   37.5977   -2.1736 H   0  0  0  0  0  0  0  0  0  0  0  0
   72.9851   39.4707   -3.6613 H   0  0  0  0  0  0  0  0  0  0  0  0
   67.0913   42.2300   -3.2243 H   0  0  0  0  0  0  0  0  0  0  0  0
   66.0786   44.0373   -4.6180 H   0  0  0  0  0  0  0  0  0  0  0  0
   67.4934   45.3122   -6.2330 H   0  0  0  0  0  0  0  0  0  0  0  0
   70.7850   45.4080   -6.3700 H   0  0  0  0  0  0  0  0  0  0  0  0
   73.7220   41.7100   -3.6080 H   0  0  0  0  0  0  0  0  0  0  0  0
   69.6991   40.4016   -1.0258 H   0  0  0  0  0  0  0  0  0  0  0  0
  1  2  1  0
  2  3  2  0
  3  4  1  0
  4  5  2  0
  5  6  1  0
  6  7  1  0
  7  8  1  0
  8  9  2  0
  9 10  1  0
 10 11  2  0
 11 12  1  0
 12 13  1  0
 12 14  2  0
 14 15  1  0
 15 16  2  0
 15 17  1  0
 17 18  1  0
  5 19  1  0
 19 20  2  0
 20 21  1  0
 21 22  1  0
 21 23  1  0
 21 24  1  0
 20  2  1  0
 17  6  2  0
 14  8  1  0
  1 25  1  0
  1 26  1  0
  1 27  1  0
  3 28  1  0
  4 29  1  0
  9 30  1  0
 10 31  1  0
 11 32  1  0
 13 33  1  0
 18 34  1  0
 19 35  1  0
M  END
>  <meeko>  (3) 
{"is_sidechain": [false], "free_energy": -8.353, "intermolecular_energy": -10.008, "internal_energy": 0.146}

$$$$
cand_011_out
     RDKit          3D

 35 37  0  0  0  0  0  0  0  0999 V2000
   75.5350   45.0110   -3.4090 C   0  0  0  0  0  0  0  0  0  0  0  0
   74.2970   44.1930   -3.1520 C   0  0  0  0  0  0  0  0  0  0  0  0
   73.0440   44.7270   -3.4820 C   0  0  0  0  0  0  0  0  0  0  0  0
   71.8740   43.9960   -3.2620 C   0  0  0  0  0  0  0  0  0  0  0  0
   71.9240   42.7130   -2.7060 C   0  0  0  0  0  0  0  0  0  0  0  0
   70.6740   41.9500   -2.5010 C   0  0  0  0  0  0  0  0  0  0  0  0
   70.7160   41.1380   -1.3740 O   0  0  0  0  0  0  0  0  0  0  0  0
   69.6190   40.3730   -1.0680 C   0  0  0  0  0  0  0  0  0  0  0  0
   69.6970   39.5830    0.0790 C   0  0  0  0  0  0  0  0  0  0  0  0
   68.6150   38.7800    0.4480 C   0  0  0  0  0  0  0  0  0  0  0  0
   67.4560   38.7670   -0.3310 C   0  0  0  0  0  0  0  0  0  0  0  0
   67.3800   39.5570   -1.4750 C   0  0  0  0  0  0  0  0  0  0  0  0
   66.2170   39.4950   -2.1920 O   0  0  0  0  0  0  0  0  0  0  0  0
   68.4630   40.3610   -1.8430 C   0  0  0  0  0  0  0  0  0  0  0  0
   68.4240   41.2050   -3.0380 C   0  0  0  0  0  0  0  0  0  0  0  0
   67.4440   41.2430   -3.7790 O   0  0  0  0  0  0  0  0  0  0  0  0
   69.6210   42.0260   -3.3350 C   0  0  0  0  0  0  0  0  0  0  0  0
   69.5820   42.8110   -4.4720 O   0  0  0  0  0  0  0  0  0  0  0  0
   73.1790   42.1720   -2.3930 C   0  0  0  0  0  0  0  0  0  0  0  0
   74.3720   42.8930   -2.6070 C   0  0  0  0  0  0  0  0  0  0  0  0
   75.6960   42.2600   -2.2400 C   0  0  0  0  0  0  0  0  0  0  0  0
   76.5990   42.3060   -3.2600 F   0  0  0  0  0  0  0  0  0  0  0  0
   76.3130   42.8510   -1.1770 F   0  0  0  0  0  0  0  0  0  0  0  0
   75.5770   40.9440   -1.9050 F   0  0  0  0  0  0  0  0  0  0  0  0
   75.9841   45.3077   -2.4497 H   0  0  0  0  0  0  0  0  0  0  0  0
   76.2577   44.4120   -3.9825 H   0  0  0  0  0  0  0  0  0  0  0  0
   75.2675   45.9107   -3.9825 H   0  0  0  0  0  0  0  0  0  0  0  0
   72.9810   45.7342   -3.9197 H   0  0  0  0  0  0  0  0  0  0  0  0
   70.9013   44.4346   -3.5292 H   0  0  0  0  0  0  0  0  0  0  0  0
   70.6099   39.5923    0.6926 H   0  0  0  0  0  0  0  0  0  0  0  0
   68.6760   38.1575    1.3528 H   0  0  0  0  0  0  0  0  0  0  0  0
   66.6046   38.1337   -0.0413 H   0  0  0  0  0  0  0  0  0  0  0  0
   65.8020   38.6680   -2.3410 H   0  0  0  0  0  0  0  0  0  0  0  0
   70.3700   42.9860   -4.9470 H   0  0  0  0  0  0  0  0  0  0  0  0
   73.2346   41.1584   -1.9693 H   0  0  0  0  0  0  0  0  0  0  0  0
  1  2  1  0
  2  3  2  0
  3  4  1  0
  4  5  2  0
  5  6  1  0
  6  7  1  0
  7  8  1  0
  8  9  2  0
  9 10  1  0
 10 11  2  0
 11 12  1  0
 12 13  1  0
 12 14  2  0
 14 15  1  0
 15 16  2  0
 15 17  1  0
 17 18  1  0
  5 19  1  0
 19 20  2  0
 20 21  1  0
 21 22  1  0
 21 23  1  0
 21 24  1  0
 20  2  1  0
 17  6  2  0
 14  8  1  0
  1 25  1  0
  1 26  1  0
  1 27  1  0
  3 28  1  0
  4 29  1  0
  9 30  1  0
 10 31  1  0
 11 32  1  0
 13 33  1  0
 18 34  1  0
 19 35  1  0
M  END
>  <meeko>  (4) 
{"is_sidechain": [false], "free_energy": -8.289, "intermolecular_energy": -9.845, "internal_energy": 0.059}

$$$$
cand_011_out
     RDKit          3D

 35 37  0  0  0  0  0  0  0  0999 V2000
   70.8040   37.3090    1.1960 C   0  0  0  0  0  0  0  0  0  0  0  0
   70.2540   38.4230    0.3470 C   0  0  0  0  0  0  0  0  0  0  0  0
   68.8700   38.5000    0.1310 C   0  0  0  0  0  0  0  0  0  0  0  0
   68.3230   39.5210   -0.6480 C   0  0  0  0  0  0  0  0  0  0  0  0
   69.1400   40.4920   -1.2350 C   0  0  0  0  0  0  0  0  0  0  0  0
   68.5370   41.5750   -2.0400 C   0  0  0  0  0  0  0  0  0  0  0  0
   67.6380   42.3500   -1.3170 O   0  0  0  0  0  0  0  0  0  0  0  0
   67.0050   43.3910   -1.9470 C   0  0  0  0  0  0  0  0  0  0  0  0
   66.1210   44.1530   -1.1810 C   0  0  0  0  0  0  0  0  0  0  0  0
   65.4430   45.2270   -1.7610 C   0  0  0  0  0  0  0  0  0  0  0  0
   65.6480   45.5390   -3.1080 C   0  0  0  0  0  0  0  0  0  0  0  0
   66.5300   44.7780   -3.8700 C   0  0  0  0  0  0  0  0  0  0  0  0
   66.6810   45.1370   -5.1810 O   0  0  0  0  0  0  0  0  0  0  0  0
   67.2090   43.7030   -3.2880 C   0  0  0  0  0  0  0  0  0  0  0  0
   68.1440   42.8780   -4.0540 C   0  0  0  0  0  0  0  0  0  0  0  0
   68.3710   43.0840   -5.2450 O   0  0  0  0  0  0  0  0  0  0  0  0
   68.8190   41.7690   -3.3420 C   0  0  0  0  0  0  0  0  0  0  0  0
   69.6900   40.9850   -4.0750 O   0  0  0  0  0  0  0  0  0  0  0  0
   70.5230   40.4260   -1.0060 C   0  0  0  0  0  0  0  0  0  0  0  0
   71.0960   39.4030   -0.2220 C   0  0  0  0  0  0  0  0  0  0  0  0
   72.5950   39.3790   -0.0170 C   0  0  0  0  0  0  0  0  0  0  0  0
   73.2550   40.1940   -0.8870 F   0  0  0  0  0  0  0  0  0  0  0  0
   72.9860   39.7750    1.2270 F   0  0  0  0  0  0  0  0  0  0  0  0
   73.1310   38.1370   -0.1880 F   0  0  0  0  0  0  0  0  0  0  0  0
   70.6790   37.5622    2.2591 H   0  0  0  0  0  0  0  0  0  0  0  0
   70.2622   36.3776    0.9748 H   0  0  0  0  0  0  0  0  0  0  0  0
   71.8729   37.1728    0.9748 H   0  0  0  0  0  0  0  0  0  0  0  0
   68.2074   37.7462    0.5812 H   0  0  0  0  0  0  0  0  0  0  0  0
   67.2346   39.5622   -0.8021 H   0  0  0  0  0  0  0  0  0  0  0  0
   65.9587   43.9075   -0.1211 H   0  0  0  0  0  0  0  0  0  0  0  0
   64.7470   45.8281   -1.1574 H   0  0  0  0  0  0  0  0  0  0  0  0
   65.1132   46.3846   -3.5652 H   0  0  0  0  0  0  0  0  0  0  0  0
   66.4180   44.5480   -5.8610 H   0  0  0  0  0  0  0  0  0  0  0  0
   69.4490   40.6920   -4.9320 H   0  0  0  0  0  0  0  0  0  0  0  0
   71.1768   41.1916   -1.4492 H   0  0  0  0  0  0  0  0  0  0  0  0
  1  2  1  0
  2  3  2  0
  3  4  1  0
  4  5  2  0
  5  6  1  0
  6  7  1  0
  7  8  1  0
  8  9  2  0
  9 10  1  0
 10 11  2  0
 11 12  1  0
 12 13  1  0
 12 14  2  0
 14 15  1  0
 15 16  2  0
 15 17  1  0
 17 18  1  0
  5 19  1  0
 19 20  2  0
 20 21  1  0
 21 22  1  0
 21 23  1  0
 21 24  1  0
 20  2  1  0
 17  6  2  0
 14  8  1  0
  1 25  1  0
  1 26  1  0
  1 27  1  0
  3 28  1  0
  4 29  1  0
  9 30  1  0
 10 31  1  0
 11 32  1  0
 13 33  1  0
 18 34  1  0
 19 35  1  0
M  END
>  <meeko>  (5) 
{"is_sidechain": [false], "free_energy": -8.264, "intermolecular_energy": -9.517, "internal_energy": -0.241}

$$$$
cand_011_out
     RDKit          3D

 35 37  0  0  0  0  0  0  0  0999 V2000
   75.4100   43.8150   -5.4540 C   0  0  0  0  0  0  0  0  0  0  0  0
   74.5750   42.9520   -4.5470 C   0  0  0  0  0  0  0  0  0  0  0  0
   73.4400   42.3130   -5.0650 C   0  0  0  0  0  0  0  0  0  0  0  0
   72.6440   41.5020   -4.2540 C   0  0  0  0  0  0  0  0  0  0  0  0
   72.9570   41.3070   -2.9050 C   0  0  0  0  0  0  0  0  0  0  0  0
   72.1100   40.4290   -2.0700 C   0  0  0  0  0  0  0  0  0  0  0  0
   70.7690   40.7920   -2.0910 O   0  0  0  0  0  0  0  0  0  0  0  0
   69.8720   40.0570   -1.3560 C   0  0  0  0  0  0  0  0  0  0  0  0
   68.5340   40.4480   -1.4160 C   0  0  0  0  0  0  0  0  0  0  0  0
   67.5700   39.7430   -0.6910 C   0  0  0  0  0  0  0  0  0  0  0  0
   67.9450   38.6500    0.0940 C   0  0  0  0  0  0  0  0  0  0  0  0
   69.2810   38.2630    0.1510 C   0  0  0  0  0  0  0  0  0  0  0  0
   69.5780   37.1850    0.9400 O   0  0  0  0  0  0  0  0  0  0  0  0
   70.2450   38.9670   -0.5750 C   0  0  0  0  0  0  0  0  0  0  0  0
   71.6600   38.5940   -0.5410 C   0  0  0  0  0  0  0  0  0  0  0  0
   72.0690   37.6490    0.1310 O   0  0  0  0  0  0  0  0  0  0  0  0
   72.6000   39.4000   -1.3530 C   0  0  0  0  0  0  0  0  0  0  0  0
   73.9360   39.0490   -1.3060 O   0  0  0  0  0  0  0  0  0  0  0  0
   74.1030   41.9320   -2.3900 C   0  0  0  0  0  0  0  0  0  0  0  0
   74.9200   42.7560   -3.1920 C   0  0  0  0  0  0  0  0  0  0  0  0
   76.1390   43.4100   -2.5790 C   0  0  0  0  0  0  0  0  0  0  0  0
   76.3090   43.0780   -1.2680 F   0  0  0  0  0  0  0  0  0  0  0  0
   77.3090   43.0800   -3.1960 F   0  0  0  0  0  0  0  0  0  0  0  0
   76.0810   44.7720   -2.6160 F   0  0  0  0  0  0  0  0  0  0  0  0
   76.0481   44.4745   -4.8474 H   0  0  0  0  0  0  0  0  0  0  0  0
   76.0416   43.1761   -6.0888 H   0  0  0  0  0  0  0  0  0  0  0  0
   74.7507   44.4252   -6.0888 H   0  0  0  0  0  0  0  0  0  0  0  0
   73.1733   42.4522   -6.1231 H   0  0  0  0  0  0  0  0  0  0  0  0
   71.7584   41.0096   -4.6820 H   0  0  0  0  0  0  0  0  0  0  0  0
   68.2387   41.3096   -2.0329 H   0  0  0  0  0  0  0  0  0  0  0  0
   66.5145   40.0489   -0.7384 H   0  0  0  0  0  0  0  0  0  0  0  0
   67.1860   38.0962    0.6660 H   0  0  0  0  0  0  0  0  0  0  0  0
   70.4680   37.0040    1.1700 H   0  0  0  0  0  0  0  0  0  0  0  0
   74.4570   39.2900   -0.5660 H   0  0  0  0  0  0  0  0  0  0  0  0
   74.3709   41.7755   -1.3347 H   0  0  0  0  0  0  0  0  0  0  0  0
  1  2  1  0
  2  3  2  0
  3  4  1  0
  4  5  2  0
  5  6  1  0
  6  7  1  0
  7  8  1  0
  8  9  2  0
  9 10  1  0
 10 11  2  0
 11 12  1  0
 12 13  1  0
 12 14  2  0
 14 15  1  0
 15 16  2  0
 15 17  1  0
 17 18  1  0
  5 19  1  0
 19 20  2  0
 20 21  1  0
 21 22  1  0
 21 23  1  0
 21 24  1  0
 20  2  1  0
 17  6  2  0
 14  8  1  0
  1 25  1  0
  1 26  1  0
  1 27  1  0
  3 28  1  0
  4 29  1  0
  9 30  1  0
 10 31  1  0
 11 32  1  0
 13 33  1  0
 18 34  1  0
 19 35  1  0
M  END
>  <meeko>  (6) 
{"is_sidechain": [false], "free_energy": -8.237, "intermolecular_energy": -9.518, "internal_energy": -0.208}

$$$$
cand_011_out
     RDKit          3D

 35 37  0  0  0  0  0  0  0  0999 V2000
   77.4430   43.5800   -4.3430 C   0  0  0  0  0  0  0  0  0  0  0  0
   76.2820   42.8390   -3.7340 C   0  0  0  0  0  0  0  0  0  0  0  0
   76.2560   42.6300   -2.3480 C   0  0  0  0  0  0  0  0  0  0  0  0
   75.1940   41.9500   -1.7470 C   0  0  0  0  0  0  0  0  0  0  0  0
   74.1320   41.4590   -2.5120 C   0  0  0  0  0  0  0  0  0  0  0  0
   73.0100   40.7590   -1.8520 C   0  0  0  0  0  0  0  0  0  0  0  0
   73.3700   39.5160   -1.3450 O   0  0  0  0  0  0  0  0  0  0  0  0
   72.4200   38.7600   -0.7070 C   0  0  0  0  0  0  0  0  0  0  0  0
   72.8280   37.5250   -0.2010 C   0  0  0  0  0  0  0  0  0  0  0  0
   71.9100   36.7050    0.4600 C   0  0  0  0  0  0  0  0  0  0  0  0
   70.5850   37.1200    0.6120 C   0  0  0  0  0  0  0  0  0  0  0  0
   70.1800   38.3520    0.1060 C   0  0  0  0  0  0  0  0  0  0  0  0
   68.8690   38.6950    0.2890 O   0  0  0  0  0  0  0  0  0  0  0  0
   71.1000   39.1730   -0.5540 C   0  0  0  0  0  0  0  0  0  0  0  0
   70.7160   40.4740   -1.1010 C   0  0  0  0  0  0  0  0  0  0  0  0
   69.5680   40.9060   -1.0140 O   0  0  0  0  0  0  0  0  0  0  0  0
   71.7670   41.2710   -1.7740 C   0  0  0  0  0  0  0  0  0  0  0  0
   71.3940   42.4930   -2.3000 O   0  0  0  0  0  0  0  0  0  0  0  0
   74.1500   41.6820   -3.8970 C   0  0  0  0  0  0  0  0  0  0  0  0
   75.2120   42.3670   -4.5230 C   0  0  0  0  0  0  0  0  0  0  0  0
   75.1800   42.5710   -6.0220 C   0  0  0  0  0  0  0  0  0  0  0  0
   74.0640   42.0420   -6.5990 F   0  0  0  0  0  0  0  0  0  0  0  0
   75.2020   43.8810   -6.3990 F   0  0  0  0  0  0  0  0  0  0  0  0
   76.2390   41.9930   -6.6570 F   0  0  0  0  0  0  0  0  0  0  0  0
   78.0792   43.9861   -3.5428 H   0  0  0  0  0  0  0  0  0  0  0  0
   78.0321   42.8905   -4.9655 H   0  0  0  0  0  0  0  0  0  0  0  0
   77.0657   44.4047   -4.9655 H   0  0  0  0  0  0  0  0  0  0  0  0
   77.0818   43.0060   -1.7262 H   0  0  0  0  0  0  0  0  0  0  0  0
   75.1934   41.7989   -0.6574 H   0  0  0  0  0  0  0  0  0  0  0  0
   73.8711   37.1976   -0.3224 H   0  0  0  0  0  0  0  0  0  0  0  0
   72.2309   35.7322    0.8609 H   0  0  0  0  0  0  0  0  0  0  0  0
   69.8620   36.4737    1.1312 H   0  0  0  0  0  0  0  0  0  0  0  0
   68.5480   39.5110   -0.0410 H   0  0  0  0  0  0  0  0  0  0  0  0
   71.3740   42.6180   -3.2280 H   0  0  0  0  0  0  0  0  0  0  0  0
   73.3146   41.3132   -4.5102 H   0  0  0  0  0  0  0  0  0  0  0  0
  1  2  1  0
  2  3  2  0
  3  4  1  0
  4  5  2  0
  5  6  1  0
  6  7  1  0
  7  8  1  0
  8  9  2  0
  9 10  1  0
 10 11  2  0
 11 12  1  0
 12 13  1  0
 12 14  2  0
 14 15  1  0
 15 16  2  0
 15 17  1  0
 17 18  1  0
  5 19  1  0
 19 20  2  0
 20 21  1  0
 21 22  1  0
 21 23  1  0
 21 24  1  0
 20  2  1  0
 17  6  2  0
 14  8  1  0
  1 25  1  0
  1 26  1  0
  1 27  1  0
  3 28  1  0
  4 29  1  0
  9 30  1  0
 10 31  1  0
 11 32  1  0
 13 33  1  0
 18 34  1  0
 19 35  1  0
M  END
>  <meeko>  (7) 
{"is_sidechain": [false], "free_energy": -8.169, "intermolecular_energy": -9.287, "internal_energy": -0.358}

$$$$
cand_011_out
     RDKit          3D

 35 37  0  0  0  0  0  0  0  0999 V2000
   75.4610   43.7320   -5.5920 C   0  0  0  0  0  0  0  0  0  0  0  0
   74.5560   42.9500   -4.6780 C   0  0  0  0  0  0  0  0  0  0  0  0
   73.4390   42.2950   -5.2160 C   0  0  0  0  0  0  0  0  0  0  0  0
   72.5800   41.5570   -4.4000 C   0  0  0  0  0  0  0  0  0  0  0  0
   72.8100   41.4540   -3.0240 C   0  0  0  0  0  0  0  0  0  0  0  0
   71.8980   40.6520   -2.1820 C   0  0  0  0  0  0  0  0  0  0  0  0
   72.5380   39.5960   -1.5440 O   0  0  0  0  0  0  0  0  0  0  0  0
   71.8040   38.7700   -0.7310 C   0  0  0  0  0  0  0  0  0  0  0  0
   72.4890   37.7320   -0.0980 C   0  0  0  0  0  0  0  0  0  0  0  0
   71.8020   36.8540    0.7420 C   0  0  0  0  0  0  0  0  0  0  0  0
   70.4290   37.0130    0.9490 C   0  0  0  0  0  0  0  0  0  0  0  0
   69.7480   38.0500    0.3170 C   0  0  0  0  0  0  0  0  0  0  0  0
   68.4060   38.1480    0.5630 O   0  0  0  0  0  0  0  0  0  0  0  0
   70.4370   38.9290   -0.5240 C   0  0  0  0  0  0  0  0  0  0  0  0
   69.7590   40.0310   -1.2070 C   0  0  0  0  0  0  0  0  0  0  0  0
   68.5530   40.2330   -1.0820 O   0  0  0  0  0  0  0  0  0  0  0  0
   70.5810   40.9110   -2.0690 C   0  0  0  0  0  0  0  0  0  0  0  0
   69.9320   41.9420   -2.7220 O   0  0  0  0  0  0  0  0  0  0  0  0
   73.9360   42.0950   -2.4870 C   0  0  0  0  0  0  0  0  0  0  0  0
   74.8170   42.8450   -3.2950 C   0  0  0  0  0  0  0  0  0  0  0  0
   76.0110   43.5220   -2.6570 C   0  0  0  0  0  0  0  0  0  0  0  0
   76.1660   43.1830   -1.3460 F   0  0  0  0  0  0  0  0  0  0  0  0
   77.1980   43.2210   -3.2570 F   0  0  0  0  0  0  0  0  0  0  0  0
   75.9240   44.8820   -2.6850 F   0  0  0  0  0  0  0  0  0  0  0  0
   76.1579   44.3342   -4.9906 H   0  0  0  0  0  0  0  0  0  0  0  0
   76.0304   43.0370   -6.2267 H   0  0  0  0  0  0  0  0  0  0  0  0
   74.8560   44.3962   -6.2267 H   0  0  0  0  0  0  0  0  0  0  0  0
   73.2371   42.3636   -6.2951 H   0  0  0  0  0  0  0  0  0  0  0  0
   71.7110   41.0499   -4.8447 H   0  0  0  0  0  0  0  0  0  0  0  0
   73.5695   37.6058   -0.2609 H   0  0  0  0  0  0  0  0  0  0  0  0
   72.3418   36.0361    1.2416 H   0  0  0  0  0  0  0  0  0  0  0  0
   69.8875   36.3202    1.6099 H   0  0  0  0  0  0  0  0  0  0  0  0
   68.1040   38.4940    1.3790 H   0  0  0  0  0  0  0  0  0  0  0  0
   70.2120   42.2050   -3.5760 H   0  0  0  0  0  0  0  0  0  0  0  0
   74.1375   42.0110   -1.4089 H   0  0  0  0  0  0  0  0  0  0  0  0
  1  2  1  0
  2  3  2  0
  3  4  1  0
  4  5  2  0
  5  6  1  0
  6  7  1  0
  7  8  1  0
  8  9  2  0
  9 10  1  0
 10 11  2  0
 11 12  1  0
 12 13  1  0
 12 14  2  0
 14 15  1  0
 15 16  2  0
 15 17  1  0
 17 18  1  0
  5 19  1  0
 19 20  2  0
 20 21  1  0
 21 22  1  0
 21 23  1  0
 21 24  1  0
 20  2  1  0
 17  6  2  0
 14  8  1  0
  1 25  1  0
  1 26  1  0
  1 27  1  0
  3 28  1  0
  4 29  1  0
  9 30  1  0
 10 31  1  0
 11 32  1  0
 13 33  1  0
 18 34  1  0
 19 35  1  0
M  END
>  <meeko>  (8) 
{"is_sidechain": [false], "free_energy": -8.131, "intermolecular_energy": -9.336, "internal_energy": -0.266}

$$$$
cand_011_out
     RDKit          3D

 35 37  0  0  0  0  0  0  0  0999 V2000
   68.0840   38.7260    0.0610 C   0  0  0  0  0  0  0  0  0  0  0  0
   69.2810   39.4400   -0.5080 C   0  0  0  0  0  0  0  0  0  0  0  0
   69.0820   40.5260   -1.3730 C   0  0  0  0  0  0  0  0  0  0  0  0
   70.1670   41.2160   -1.9170 C   0  0  0  0  0  0  0  0  0  0  0  0
   71.4800   40.8400   -1.6150 C   0  0  0  0  0  0  0  0  0  0  0  0
   72.6140   41.5960   -2.1880 C   0  0  0  0  0  0  0  0  0  0  0  0
   72.2800   42.9050   -2.5160 O   0  0  0  0  0  0  0  0  0  0  0  0
   73.2430   43.7180   -3.0580 C   0  0  0  0  0  0  0  0  0  0  0  0
   72.8690   45.0290   -3.3590 C   0  0  0  0  0  0  0  0  0  0  0  0
   73.8010   45.9090   -3.9140 C   0  0  0  0  0  0  0  0  0  0  0  0
   75.1050   45.4770   -4.1690 C   0  0  0  0  0  0  0  0  0  0  0  0
   75.4750   44.1700   -3.8680 C   0  0  0  0  0  0  0  0  0  0  0  0
   76.7670   43.8140   -4.1440 O   0  0  0  0  0  0  0  0  0  0  0  0
   74.5430   43.2890   -3.3110 C   0  0  0  0  0  0  0  0  0  0  0  0
   74.8900   41.9070   -2.9800 C   0  0  0  0  0  0  0  0  0  0  0  0
   76.0140   41.4510   -3.1820 O   0  0  0  0  0  0  0  0  0  0  0  0
   73.8320   41.0590   -2.3860 C   0  0  0  0  0  0  0  0  0  0  0  0
   74.1640   39.7510   -2.0880 O   0  0  0  0  0  0  0  0  0  0  0  0
   71.6800   39.7640   -0.7360 C   0  0  0  0  0  0  0  0  0  0  0  0
   70.5970   39.0550   -0.1760 C   0  0  0  0  0  0  0  0  0  0  0  0
   70.8750   37.8980    0.7590 C   0  0  0  0  0  0  0  0  0  0  0  0
   72.1930   37.5530    0.7880 F   0  0  0  0  0  0  0  0  0  0  0  0
   70.5310   38.1450    2.0550 F   0  0  0  0  0  0  0  0  0  0  0  0
   70.1990   36.7660    0.4130 F   0  0  0  0  0  0  0  0  0  0  0  0
   68.1291   38.7529    1.1597 H   0  0  0  0  0  0  0  0  0  0  0  0
   67.1640   39.2230   -0.2805 H   0  0  0  0  0  0  0  0  0  0  0  0
   68.0842   37.6804   -0.2805 H   0  0  0  0  0  0  0  0  0  0  0  0
   68.0580   40.8381   -1.6260 H   0  0  0  0  0  0  0  0  0  0  0  0
   69.9870   42.0660   -2.5916 H   0  0  0  0  0  0  0  0  0  0  0  0
   71.8419   45.3684   -3.1594 H   0  0  0  0  0  0  0  0  0  0  0  0
   73.5082   46.9426   -4.1504 H   0  0  0  0  0  0  0  0  0  0  0  0
   75.8385   46.1697   -4.6074 H   0  0  0  0  0  0  0  0  0  0  0  0
   77.4030   43.7900   -3.4570 H   0  0  0  0  0  0  0  0  0  0  0  0
   74.9630   39.3850   -2.4120 H   0  0  0  0  0  0  0  0  0  0  0  0
   72.7069   39.4664   -0.4775 H   0  0  0  0  0  0  0  0  0  0  0  0
  1  2  1  0
  2  3  2  0
  3  4  1  0
  4  5  2  0
  5  6  1  0
  6  7  1  0
  7  8  1  0
  8  9  2  0
  9 10  1  0
 10 11  2  0
 11 12  1  0
 12 13  1  0
 12 14  2  0
 14 15  1  0
 15 16  2  0
 15 17  1  0
 17 18  1  0
  5 19  1  0
 19 20  2  0
 20 21  1  0
 21 22  1  0
 21 23  1  0
 21 24  1  0
 20  2  1  0
 17  6  2  0
 14  8  1  0
  1 25  1  0
  1 26  1  0
  1 27  1  0
  3 28  1  0
  4 29  1  0
  9 30  1  0
 10 31  1  0
 11 32  1  0
 13 33  1  0
 18 34  1  0
 19 35  1  0
M  END
>  <meeko>  (9) 
{"is_sidechain": [false], "free_energy": -8.13, "intermolecular_energy": -9.698, "internal_energy": 0.097}

$$$$
