cand_007_out
     RDKit          3D

 35 37  0  0  0  0  0  0  0  0999 V2000
   69.9660   43.1760   -5.5210 O   0  0  0  0  0  0  0  0  0  0  0  0
   70.8360   42.8830   -4.7030 C   0  0  0  0  0  0  0  0  0  0  0  0
   70.7080   41.6590   -3.8780 C   0  0  0  0  0  0  0  0  0  0  0  0
   69.5740   40.8900   -4.0640 O   0  0  0  0  0  0  0  0  0  0  0  0
   71.6820   41.3760   -2.9930 C   0  0  0  0  0  0  0  0  0  0  0  0
   71.6540   40.1910   -2.1100 C   0  0  0  0  0  0  0  0  0  0  0  0
   72.6090   39.1740   -2.2100 C   0  0  0  0  0  0  0  0  0  0  0  0
   72.5740   38.0740   -1.3500 C   0  0  0  0  0  0  0  0  0  0  0  0
   71.5850   37.9620   -0.3590 C   0  0  0  0  0  0  0  0  0  0  0  0
   71.5750   36.7570    0.5560 C   0  0  0  0  0  0  0  0  0  0  0  0
   70.4840   35.9670    0.3570 F   0  0  0  0  0  0  0  0  0  0  0  0
   72.6560   35.9510    0.3670 F   0  0  0  0  0  0  0  0  0  0  0  0
   71.5720   37.0710    1.8810 F   0  0  0  0  0  0  0  0  0  0  0  0
   70.6220   38.9870   -0.2350 C   0  0  0  0  0  0  0  0  0  0  0  0
   69.5310   38.9250    0.8090 C   0  0  0  0  0  0  0  0  0  0  0  0
   68.4390   38.2130    0.4070 F   0  0  0  0  0  0  0  0  0  0  0  0
   70.6710   40.0880   -1.1130 C   0  0  0  0  0  0  0  0  0  0  0  0
   72.8050   42.1710   -2.7960 O   0  0  0  0  0  0  0  0  0  0  0  0
   72.9530   43.3080   -3.5490 C   0  0  0  0  0  0  0  0  0  0  0  0
   74.1000   44.0710   -3.3240 C   0  0  0  0  0  0  0  0  0  0  0  0
   74.3120   45.2410   -4.0560 C   0  0  0  0  0  0  0  0  0  0  0  0
   73.3800   45.6470   -5.0120 C   0  0  0  0  0  0  0  0  0  0  0  0
   72.2360   44.8840   -5.2350 C   0  0  0  0  0  0  0  0  0  0  0  0
   71.3650   45.3400   -6.1850 O   0  0  0  0  0  0  0  0  0  0  0  0
   72.0240   43.7130   -4.5020 C   0  0  0  0  0  0  0  0  0  0  0  0
   69.6280   39.9550   -4.0190 H   0  0  0  0  0  0  0  0  0  0  0  0
   73.3968   39.2413   -2.9748 H   0  0  0  0  0  0  0  0  0  0  0  0
   73.3324   37.2835   -1.4503 H   0  0  0  0  0  0  0  0  0  0  0  0
   69.9408   38.4540    1.7146 H   0  0  0  0  0  0  0  0  0  0  0  0
   69.1973   39.9569    0.9931 H   0  0  0  0  0  0  0  0  0  0  0  0
   69.9207   40.8863   -1.0148 H   0  0  0  0  0  0  0  0  0  0  0  0
   74.8356   43.7511   -2.5713 H   0  0  0  0  0  0  0  0  0  0  0  0
   75.2150   45.8436   -3.8788 H   0  0  0  0  0  0  0  0  0  0  0  0
   73.5485   46.5684   -5.5888 H   0  0  0  0  0  0  0  0  0  0  0  0
   71.6360   46.0000   -6.7920 H   0  0  0  0  0  0  0  0  0  0  0  0
  1  2  2  0
  2  3  1  0
  3  4  1  0
  3  5  2  0
  5  6  1  0
  6  7  2  0
  7  8  1  0
  8  9  2  0
  9 10  1  0
 10 11  1  0
 10 12  1  0
 10 13  1  0
  9 14  1  0
 14 15  1  0
 15 16  1  0
 14 17  2  0
  5 18  1  0
 18 19  1  0
 19 20  2  0
 20 21  1  0
 21 22  2  0
 22 23  1  0
 23 24  1  0
 23 25  2  0
 25  2  1  0
 17  6  1  0
 25 19  1  0
  4 26  1  0
  7 27  1  0
  8 28  1  0
 15 29  1  0
 15 30  1  0
 17 31  1  0
 20 32  1  0
 21 33  1  0
 22 34  1  0
 24 35  1  0
M  END
>  <meeko>  (1) 
{"is_sidechain": [false], "free_energy": -8.149, "intermolecular_energy": -10.055, "internal_energy": -0.404}

$$$$
cand_007_out
     RDKit          3D

 35 37  0  0  0  0  0  0  0  0999 V2000
   77.3450   42.4020   -3.9680 O   0  0  0  0  0  0  0  0  0  0  0  0
   76.1660   42.1990   -4.2500 C   0  0  0  0  0  0  0  0  0  0  0  0
   75.2680   41.5290   -3.2810 C   0  0  0  0  0  0  0  0  0  0  0  0
   75.8220   41.1380   -2.0750 O   0  0  0  0  0  0  0  0  0  0  0  0
   73.9840   41.3240   -3.6300 C   0  0  0  0  0  0  0  0  0  0  0  0
   73.0030   40.6540   -2.7510 C   0  0  0  0  0  0  0  0  0  0  0  0
   73.0450   39.2760   -2.5150 C   0  0  0  0  0  0  0  0  0  0  0  0
   72.1190   38.6680   -1.6640 C   0  0  0  0  0  0  0  0  0  0  0  0
   71.1260   39.4240   -1.0180 C   0  0  0  0  0  0  0  0  0  0  0  0
   70.1390   38.7350   -0.1010 C   0  0  0  0  0  0  0  0  0  0  0  0
   68.8550   38.8620   -0.5390 F   0  0  0  0  0  0  0  0  0  0  0  0
   70.3660   37.3960   -0.0030 F   0  0  0  0  0  0  0  0  0  0  0  0
   70.1470   39.2080    1.1750 F   0  0  0  0  0  0  0  0  0  0  0  0
   71.0800   40.8190   -1.2330 C   0  0  0  0  0  0  0  0  0  0  0  0
   70.0370   41.6870   -0.5690 C   0  0  0  0  0  0  0  0  0  0  0  0
   70.3430   43.0160   -0.5970 F   0  0  0  0  0  0  0  0  0  0  0  0
   72.0200   41.4130   -2.0970 C   0  0  0  0  0  0  0  0  0  0  0  0
   73.4460   41.6970   -4.8560 O   0  0  0  0  0  0  0  0  0  0  0  0
   74.2520   42.3250   -5.7710 C   0  0  0  0  0  0  0  0  0  0  0  0
   73.6670   42.6880   -6.9850 C   0  0  0  0  0  0  0  0  0  0  0  0
   74.4320   43.3310   -7.9610 C   0  0  0  0  0  0  0  0  0  0  0  0
   75.7790   43.6080   -7.7240 C   0  0  0  0  0  0  0  0  0  0  0  0
   76.3600   43.2440   -6.5120 C   0  0  0  0  0  0  0  0  0  0  0  0
   77.6850   43.5450   -6.3470 O   0  0  0  0  0  0  0  0  0  0  0  0
   75.5950   42.6010   -5.5360 C   0  0  0  0  0  0  0  0  0  0  0  0
   76.6470   40.6940   -2.0600 H   0  0  0  0  0  0  0  0  0  0  0  0
   73.8163   38.6638   -3.0053 H   0  0  0  0  0  0  0  0  0  0  0  0
   72.1678   37.5818   -1.4971 H   0  0  0  0  0  0  0  0  0  0  0  0
   69.0781   41.5386   -1.0872 H   0  0  0  0  0  0  0  0  0  0  0  0
   69.9882   41.3864    0.4880 H   0  0  0  0  0  0  0  0  0  0  0  0
   71.9830   42.4997   -2.2637 H   0  0  0  0  0  0  0  0  0  0  0  0
   72.6057   42.4682   -7.1729 H   0  0  0  0  0  0  0  0  0  0  0  0
   73.9720   43.6194   -8.9177 H   0  0  0  0  0  0  0  0  0  0  0  0
   76.3810   44.1132   -8.4936 H   0  0  0  0  0  0  0  0  0  0  0  0
   78.1800   43.1240   -5.6740 H   0  0  0  0  0  0  0  0  0  0  0  0
  1  2  2  0
  2  3  1  0
  3  4  1  0
  3  5  2  0
  5  6  1  0
  6  7  2  0
  7  8  1  0
  8  9  2  0
  9 10  1  0
 10 11  1  0
 10 12  1  0
 10 13  1  0
  9 14  1  0
 14 15  1  0
 15 16  1  0
 14 17  2  0
  5 18  1  0
 18 19  1  0
 19 20  2  0
 20 21  1  0
 21 22  2  0
 22 23  1  0
 23 24  1  0
 23 25  2  0
 25  2  1  0
 17  6  1  0
 25 19  1  0
  4 26  1  0
  7 27  1  0
  8 28  1  0
 15 29  1  0
 15 30  1  0
 17 31  1  0
 20 32  1  0
 21 33  1  0
 22 34  1  0
 24 35  1  0
M  END
>  <meeko>  (2) 
{"is_sidechain": [false], "free_energy": -7.87, "intermolecular_energy": -9.732, "internal_energy": -0.383}

$$$$
cand_007_out
     RDKit          3D

 35 37  0  0  0  0  0  0  0  0999 V2000
   74.0640   42.3980   -6.2160 O   0  0  0  0  0  0  0  0  0  0  0  0
   74.2100   42.3690   -4.9960 C   0  0  0  0  0  0  0  0  0  0  0  0
   73.2990   41.5620   -4.1510 C   0  0  0  0  0  0  0  0  0  0  0  0
   72.2890   40.8710   -4.7950 O   0  0  0  0  0  0  0  0  0  0  0  0
   73.4920   41.5590   -2.8190 C   0  0  0  0  0  0  0  0  0  0  0  0
   72.6390   40.8020   -1.8780 C   0  0  0  0  0  0  0  0  0  0  0  0
   71.3280   41.1950   -1.5930 C   0  0  0  0  0  0  0  0  0  0  0  0
   70.5330   40.4530   -0.7160 C   0  0  0  0  0  0  0  0  0  0  0  0
   71.0270   39.2890   -0.1030 C   0  0  0  0  0  0  0  0  0  0  0  0
   70.1410   38.5070    0.8420 C   0  0  0  0  0  0  0  0  0  0  0  0
   68.8770   39.0110    0.8990 F   0  0  0  0  0  0  0  0  0  0  0  0
   70.0050   37.2050    0.4680 F   0  0  0  0  0  0  0  0  0  0  0  0
   70.5920   38.4800    2.1260 F   0  0  0  0  0  0  0  0  0  0  0  0
   72.3440   38.8700   -0.3920 C   0  0  0  0  0  0  0  0  0  0  0  0
   72.9350   37.6290    0.2360 C   0  0  0  0  0  0  0  0  0  0  0  0
   72.6090   36.4810   -0.4250 F   0  0  0  0  0  0  0  0  0  0  0  0
   73.1310   39.6340   -1.2760 C   0  0  0  0  0  0  0  0  0  0  0  0
   74.4950   42.2790   -2.1800 O   0  0  0  0  0  0  0  0  0  0  0  0
   75.3570   43.0310   -2.9370 C   0  0  0  0  0  0  0  0  0  0  0  0
   76.3530   43.7310   -2.2540 C   0  0  0  0  0  0  0  0  0  0  0  0
   77.2630   44.5160   -2.9650 C   0  0  0  0  0  0  0  0  0  0  0  0
   77.1770   44.6030   -4.3550 C   0  0  0  0  0  0  0  0  0  0  0  0
   76.1820   43.9040   -5.0340 C   0  0  0  0  0  0  0  0  0  0  0  0
   76.1550   44.0340   -6.3950 O   0  0  0  0  0  0  0  0  0  0  0  0
   75.2710   43.1180   -4.3220 C   0  0  0  0  0  0  0  0  0  0  0  0
   71.9020   40.1200   -4.3890 H   0  0  0  0  0  0  0  0  0  0  0  0
   70.9173   42.0997   -2.0651 H   0  0  0  0  0  0  0  0  0  0  0  0
   69.5061   40.7845   -0.5024 H   0  0  0  0  0  0  0  0  0  0  0  0
   74.0304   37.7290    0.2423 H   0  0  0  0  0  0  0  0  0  0  0  0
   72.5197   37.5489    1.2514 H   0  0  0  0  0  0  0  0  0  0  0  0
   74.1570   39.3067   -1.4999 H   0  0  0  0  0  0  0  0  0  0  0  0
   76.4209   43.6644   -1.1581 H   0  0  0  0  0  0  0  0  0  0  0  0
   78.0493   45.0670   -2.4282 H   0  0  0  0  0  0  0  0  0  0  0  0
   77.8939   45.2227   -4.9136 H   0  0  0  0  0  0  0  0  0  0  0  0
   75.4280   43.7030   -6.8830 H   0  0  0  0  0  0  0  0  0  0  0  0
  1  2  2  0
  2  3  1  0
  3  4  1  0
  3  5  2  0
  5  6  1  0
  6  7  2  0
  7  8  1  0
  8  9  2  0
  9 10  1  0
 10 11  1  0
 10 12  1  0
 10 13  1  0
  9 14  1  0
 14 15  1  0
 15 16  1  0
 14 17  2  0
  5 18  1  0
 18 19  1  0
 19 20  2  0
 20 21  1  0
 21 22  2  0
 22 23  1  0
 23 24  1  0
 23 25  2  0
 25  2  1  0
 17  6  1  0
 25 19  1  0
  4 26  1  0
  7 27  1  0
  8 28  1  0
 15 29  1  0
 15 30  1  0
 17 31  1  0
 20 32  1  0
 21 33  1  0
 22 34  1  0
 24 35  1  0
M  END
>  <meeko>  (3) 
{"is_sidechain": [false], "free_energy": -7.827, "intermolecular_energy": -9.622, "internal_energy": -0.44}

$$$$
cand_007_out
     RDKit          3D

 35 37  0  0  0  0  0  0  0  0999 V2000
   67.6940   41.4320   -3.7000 O   0  0  0  0  0  0  0  0  0  0  0  0
   68.6980   41.3510   -2.9960 C   0  0  0  0  0  0  0  0  0  0  0  0
   69.9020   42.1540   -3.3120 C   0  0  0  0  0  0  0  0  0  0  0  0
   69.8400   42.9710   -4.4260 O   0  0  0  0  0  0  0  0  0  0  0  0
   70.9810   42.0340   -2.5160 C   0  0  0  0  0  0  0  0  0  0  0  0
   72.2400   42.7760   -2.7420 C   0  0  0  0  0  0  0  0  0  0  0  0
   72.2450   44.0960   -3.2030 C   0  0  0  0  0  0  0  0  0  0  0  0
   73.4470   44.7830   -3.3890 C   0  0  0  0  0  0  0  0  0  0  0  0
   74.6810   44.1700   -3.1130 C   0  0  0  0  0  0  0  0  0  0  0  0
   75.9650   44.9410   -3.3250 C   0  0  0  0  0  0  0  0  0  0  0  0
   75.7380   46.2000   -3.7940 F   0  0  0  0  0  0  0  0  0  0  0  0
   76.6740   45.0970   -2.1730 F   0  0  0  0  0  0  0  0  0  0  0  0
   76.8190   44.3600   -4.2120 F   0  0  0  0  0  0  0  0  0  0  0  0
   74.6920   42.8420   -2.6320 C   0  0  0  0  0  0  0  0  0  0  0  0
   75.9850   42.1260   -2.3180 C   0  0  0  0  0  0  0  0  0  0  0  0
   76.4510   42.3790   -1.0610 F   0  0  0  0  0  0  0  0  0  0  0  0
   73.4700   42.1640   -2.4540 C   0  0  0  0  0  0  0  0  0  0  0  0
   71.0410   41.1900   -1.4130 O   0  0  0  0  0  0  0  0  0  0  0  0
   69.9390   40.4380   -1.0940 C   0  0  0  0  0  0  0  0  0  0  0  0
   70.0410   39.6110    0.0260 C   0  0  0  0  0  0  0  0  0  0  0  0
   68.9560   38.8180    0.4070 C   0  0  0  0  0  0  0  0  0  0  0  0
   67.7720   38.8510   -0.3310 C   0  0  0  0  0  0  0  0  0  0  0  0
   67.6730   39.6770   -1.4480 C   0  0  0  0  0  0  0  0  0  0  0  0
   66.4840   39.6600   -2.1250 O   0  0  0  0  0  0  0  0  0  0  0  0
   68.7590   40.4710   -1.8290 C   0  0  0  0  0  0  0  0  0  0  0  0
   69.0640   43.4660   -4.6020 H   0  0  0  0  0  0  0  0  0  0  0  0
   71.2916   44.5992   -3.4217 H   0  0  0  0  0  0  0  0  0  0  0  0
   73.4273   45.8194   -3.7570 H   0  0  0  0  0  0  0  0  0  0  0  0
   75.8174   41.0433   -2.4168 H   0  0  0  0  0  0  0  0  0  0  0  0
   76.7417   42.4948   -3.0261 H   0  0  0  0  0  0  0  0  0  0  0  0
   73.4800   41.1295   -2.0801 H   0  0  0  0  0  0  0  0  0  0  0  0
   70.9743   39.5839    0.6076 H   0  0  0  0  0  0  0  0  0  0  0  0
   69.0349   38.1667    1.2899 H   0  0  0  0  0  0  0  0  0  0  0  0
   66.9183   38.2256   -0.0310 H   0  0  0  0  0  0  0  0  0  0  0  0
   66.2120   38.8860   -2.5750 H   0  0  0  0  0  0  0  0  0  0  0  0
  1  2  2  0
  2  3  1  0
  3  4  1  0
  3  5  2  0
  5  6  1  0
  6  7  2  0
  7  8  1  0
  8  9  2  0
  9 10  1  0
 10 11  1  0
 10 12  1  0
 10 13  1  0
  9 14  1  0
 14 15  1  0
 15 16  1  0
 14 17  2  0
  5 18  1  0
 18 19  1  0
 19 20  2  0
 20 21  1  0
 21 22  2  0
 22 23  1  0
 23 24  1  0
 23 25  2  0
 25  2  1  0
 17  6  1  0
 25 19  1  0
  4 26  1  0
  7 27  1  0
  8 28  1  0
 15 29  1  0
 15 30  1  0
 17 31  1  0
 20 32  1  0
 21 33  1  0
 22 34  1  0
 24 35  1  0
M  END
>  <meeko>  (4) 
{"is_sidechain": [false], "free_energy": -7.803, "intermolecular_energy": -9.895, "internal_energy": -0.137}

$$$$
cand_007_out
     RDKit          3D

 35 37  0  0  0  0  0  0  0  0999 V2000
   77.2470   42.3760   -3.8260 O   0  0  0  0  0  0  0  0  0  0  0  0
   76.0540   42.1650   -4.0350 C   0  0  0  0  0  0  0  0  0  0  0  0
   75.2040   41.5600   -2.9840 C   0  0  0  0  0  0  0  0  0  0  0  0
   75.8160   41.2380   -1.7860 O   0  0  0  0  0  0  0  0  0  0  0  0
   73.9030   41.3440   -3.2540 C   0  0  0  0  0  0  0  0  0  0  0  0
   72.9650   40.7350   -2.2880 C   0  0  0  0  0  0  0  0  0  0  0  0
   71.8400   41.4220   -1.8190 C   0  0  0  0  0  0  0  0  0  0  0  0
   70.9560   40.8180   -0.9210 C   0  0  0  0  0  0  0  0  0  0  0  0
   71.1690   39.5050   -0.4710 C   0  0  0  0  0  0  0  0  0  0  0  0
   70.1930   38.8790    0.5010 C   0  0  0  0  0  0  0  0  0  0  0  0
   70.7480   38.6730    1.7270 F   0  0  0  0  0  0  0  0  0  0  0  0
   69.0990   39.6610    0.7150 F   0  0  0  0  0  0  0  0  0  0  0  0
   69.7130   37.6690    0.1000 F   0  0  0  0  0  0  0  0  0  0  0  0
   72.2910   38.7920   -0.9470 C   0  0  0  0  0  0  0  0  0  0  0  0
   72.5770   37.3760   -0.5000 C   0  0  0  0  0  0  0  0  0  0  0  0
   73.2830   37.3110    0.6650 F   0  0  0  0  0  0  0  0  0  0  0  0
   73.1730   39.4190   -1.8490 C   0  0  0  0  0  0  0  0  0  0  0  0
   73.3040   41.6480   -4.4720 O   0  0  0  0  0  0  0  0  0  0  0  0
   74.0650   42.2140   -5.4620 C   0  0  0  0  0  0  0  0  0  0  0  0
   73.4210   42.5090   -6.6650 C   0  0  0  0  0  0  0  0  0  0  0  0
   74.1380   43.0870   -7.7150 C   0  0  0  0  0  0  0  0  0  0  0  0
   75.4970   43.3680   -7.5630 C   0  0  0  0  0  0  0  0  0  0  0  0
   76.1370   43.0720   -6.3630 C   0  0  0  0  0  0  0  0  0  0  0  0
   77.4700   43.3720   -6.2830 O   0  0  0  0  0  0  0  0  0  0  0  0
   75.4200   42.4940   -5.3120 C   0  0  0  0  0  0  0  0  0  0  0  0
   76.7470   41.3070   -1.7020 H   0  0  0  0  0  0  0  0  0  0  0  0
   71.6491   42.4498   -2.1612 H   0  0  0  0  0  0  0  0  0  0  0  0
   70.0808   41.3791   -0.5615 H   0  0  0  0  0  0  0  0  0  0  0  0
   71.6190   36.8545   -0.3574 H   0  0  0  0  0  0  0  0  0  0  0  0
   73.1924   36.9055   -1.2810 H   0  0  0  0  0  0  0  0  0  0  0  0
   74.0470   38.8625   -2.2184 H   0  0  0  0  0  0  0  0  0  0  0  0
   72.3505   42.2866   -6.7857 H   0  0  0  0  0  0  0  0  0  0  0  0
   73.6313   43.3211   -8.6629 H   0  0  0  0  0  0  0  0  0  0  0  0
   76.0613   43.8227   -8.3905 H   0  0  0  0  0  0  0  0  0  0  0  0
   78.0950   42.8570   -6.7520 H   0  0  0  0  0  0  0  0  0  0  0  0
  1  2  2  0
  2  3  1  0
  3  4  1  0
  3  5  2  0
  5  6  1  0
  6  7  2  0
  7  8  1  0
  8  9  2  0
  9 10  1  0
 10 11  1  0
 10 12  1  0
 10 13  1  0
  9 14  1  0
 14 15  1  0
 15 16  1  0
 14 17  2  0
  5 18  1  0
 18 19  1  0
 19 20  2  0
 20 21  1  0
 21 22  2  0
 22 23  1  0
 23 24  1  0
 23 25  2  0
 25  2  1  0
 17  6  1  0
 25 19  1  0
  4 26  1  0
  7 27  1  0
  8 28  1  0
 15 29  1  0
 15 30  1  0
 17 31  1  0
 20 32  1  0
 21 33  1  0
 22 34  1  0
 24 35  1  0
M  END
>  <meeko>  (5) 
{"is_sidechain": [false], "free_energy": -7.727, "intermolecular_energy": -9.567, "internal_energy": -0.371}

$$$$
cand_007_out
     RDKit          3D

 35 37  0  0  0  0  0  0  0  0999 V2000
   68.6150   43.0640   -5.1450 O   0  0  0  0  0  0  0  0  0  0  0  0
   68.3560   42.8350   -3.9660 C   0  0  0  0  0  0  0  0  0  0  0  0
   69.0150   41.7130   -3.2580 C   0  0  0  0  0  0  0  0  0  0  0  0
   69.9070   40.9460   -3.9850 O   0  0  0  0  0  0  0  0  0  0  0  0
   68.7010   41.4950   -1.9670 C   0  0  0  0  0  0  0  0  0  0  0  0
   69.2850   40.3990   -1.1650 C   0  0  0  0  0  0  0  0  0  0  0  0
   68.5050   39.3440   -0.6790 C   0  0  0  0  0  0  0  0  0  0  0  0
   69.0820   38.3090    0.0600 C   0  0  0  0  0  0  0  0  0  0  0  0
   70.4610   38.2950    0.3280 C   0  0  0  0  0  0  0  0  0  0  0  0
   71.0560   37.1590    1.1310 C   0  0  0  0  0  0  0  0  0  0  0  0
   70.3790   35.9910    0.9510 F   0  0  0  0  0  0  0  0  0  0  0  0
   72.3470   36.8970    0.7830 F   0  0  0  0  0  0  0  0  0  0  0  0
   71.0710   37.3800    2.4740 F   0  0  0  0  0  0  0  0  0  0  0  0
   71.2650   39.3440   -0.1690 C   0  0  0  0  0  0  0  0  0  0  0  0
   72.7540   39.3890    0.0870 C   0  0  0  0  0  0  0  0  0  0  0  0
   73.4990   39.0070   -0.9900 F   0  0  0  0  0  0  0  0  0  0  0  0
   70.6640   40.3820   -0.9080 C   0  0  0  0  0  0  0  0  0  0  0  0
   67.7820   42.2560   -1.2540 O   0  0  0  0  0  0  0  0  0  0  0  0
   67.1600   43.3050   -1.8820 C   0  0  0  0  0  0  0  0  0  0  0  0
   66.2510   44.0470   -1.1260 C   0  0  0  0  0  0  0  0  0  0  0  0
   65.5830   45.1280   -1.7050 C   0  0  0  0  0  0  0  0  0  0  0  0
   65.8210   45.4650   -3.0380 C   0  0  0  0  0  0  0  0  0  0  0  0
   66.7280   44.7230   -3.7900 C   0  0  0  0  0  0  0  0  0  0  0  0
   66.9130   45.1080   -5.0900 O   0  0  0  0  0  0  0  0  0  0  0  0
   67.3970   43.6420   -3.2110 C   0  0  0  0  0  0  0  0  0  0  0  0
   70.4330   41.3440   -4.6510 H   0  0  0  0  0  0  0  0  0  0  0  0
   67.4239   39.3296   -0.8815 H   0  0  0  0  0  0  0  0  0  0  0  0
   68.4479   37.4933    0.4375 H   0  0  0  0  0  0  0  0  0  0  0  0
   73.0310   40.4192    0.3553 H   0  0  0  0  0  0  0  0  0  0  0  0
   72.9664   38.6775    0.8986 H   0  0  0  0  0  0  0  0  0  0  0  0
   71.2915   41.1993   -1.2930 H   0  0  0  0  0  0  0  0  0  0  0  0
   66.0611   43.7806   -0.0758 H   0  0  0  0  0  0  0  0  0  0  0  0
   64.8681   45.7147   -1.1094 H   0  0  0  0  0  0  0  0  0  0  0  0
   65.2930   46.3154   -3.4940 H   0  0  0  0  0  0  0  0  0  0  0  0
   67.7280   45.4840   -5.3550 H   0  0  0  0  0  0  0  0  0  0  0  0
  1  2  2  0
  2  3  1  0
  3  4  1  0
  3  5  2  0
  5  6  1  0
  6  7  2  0
  7  8  1  0
  8  9  2  0
  9 10  1  0
 10 11  1  0
 10 12  1  0
 10 13  1  0
  9 14  1  0
 14 15  1  0
 15 16  1  0
 14 17  2  0
  5 18  1  0
 18 19  1  0
 19 20  2  0
 20 21  1  0
 21 22  2  0
 22 23  1  0
 23 24  1  0
 23 25  2  0
 25  2  1  0
 17  6  1  0
 25 19  1  0
  4 26  1  0
  7 27  1  0
  8 28  1  0
 15 29  1  0
 15 30  1  0
 17 31  1  0
 20 32  1  0
 21 33  1  0
 22 34  1  0
 24 35  1  0
M  END
>  <meeko>  (6) 
{"is_sidechain": [false], "free_energy": -7.707, "intermolecular_energy": -9.87, "internal_energy": -0.043}

$$$$
cand_007_out
     RDKit          3D

 35 37  0  0  0  0  0  0  0  0999 V2000
   72.0930   37.6020    0.0520 O   0  0  0  0  0  0  0  0  0  0  0  0
   71.6720   38.5510   -0.6060 C   0  0  0  0  0  0  0  0  0  0  0  0
   72.5990   39.3630   -1.4280 C   0  0  0  0  0  0  0  0  0  0  0  0
   73.9360   39.0120   -1.4010 O   0  0  0  0  0  0  0  0  0  0  0  0
   72.0980   40.3950   -2.1320 C   0  0  0  0  0  0  0  0  0  0  0  0
   72.9290   41.2810   -2.9740 C   0  0  0  0  0  0  0  0  0  0  0  0
   72.6430   41.4930   -4.3270 C   0  0  0  0  0  0  0  0  0  0  0  0
   73.4310   42.3500   -5.0980 C   0  0  0  0  0  0  0  0  0  0  0  0
   74.5260   43.0270   -4.5360 C   0  0  0  0  0  0  0  0  0  0  0  0
   75.3590   43.9490   -5.3980 C   0  0  0  0  0  0  0  0  0  0  0  0
   74.9210   43.9850   -6.6870 F   0  0  0  0  0  0  0  0  0  0  0  0
   75.3290   45.2390   -4.9600 F   0  0  0  0  0  0  0  0  0  0  0  0
   76.6760   43.6080   -5.4600 F   0  0  0  0  0  0  0  0  0  0  0  0
   74.8190   42.8360   -3.1670 C   0  0  0  0  0  0  0  0  0  0  0  0
   75.9830   43.5330   -2.5030 C   0  0  0  0  0  0  0  0  0  0  0  0
   76.2790   43.0340   -1.2690 F   0  0  0  0  0  0  0  0  0  0  0  0
   74.0150   41.9640   -2.4070 C   0  0  0  0  0  0  0  0  0  0  0  0
   70.7540   40.7550   -2.1290 O   0  0  0  0  0  0  0  0  0  0  0  0
   69.8720   40.0180   -1.3820 C   0  0  0  0  0  0  0  0  0  0  0  0
   68.5330   40.4100   -1.4150 C   0  0  0  0  0  0  0  0  0  0  0  0
   67.5820   39.7020   -0.6780 C   0  0  0  0  0  0  0  0  0  0  0  0
   67.9690   38.6050    0.0940 C   0  0  0  0  0  0  0  0  0  0  0  0
   69.3060   38.2160    0.1260 C   0  0  0  0  0  0  0  0  0  0  0  0
   69.6150   37.1340    0.9030 O   0  0  0  0  0  0  0  0  0  0  0  0
   70.2570   38.9240   -0.6130 C   0  0  0  0  0  0  0  0  0  0  0  0
   74.5740   39.5650   -1.8090 H   0  0  0  0  0  0  0  0  0  0  0  0
   71.7874   40.9786   -4.7888 H   0  0  0  0  0  0  0  0  0  0  0  0
   73.1907   42.4972   -6.1613 H   0  0  0  0  0  0  0  0  0  0  0  0
   76.8688   43.4223   -3.1458 H   0  0  0  0  0  0  0  0  0  0  0  0
   75.6972   44.5866   -2.3679 H   0  0  0  0  0  0  0  0  0  0  0  0
   74.2447   41.8149   -1.3416 H   0  0  0  0  0  0  0  0  0  0  0  0
   68.2274   41.2757   -2.0209 H   0  0  0  0  0  0  0  0  0  0  0  0
   66.5260   40.0089   -0.7056 H   0  0  0  0  0  0  0  0  0  0  0  0
   67.2193   38.0489    0.6760 H   0  0  0  0  0  0  0  0  0  0  0  0
   70.3990   37.1330    1.4150 H   0  0  0  0  0  0  0  0  0  0  0  0
  1  2  2  0
  2  3  1  0
  3  4  1  0
  3  5  2  0
  5  6  1  0
  6  7  2  0
  7  8  1  0
  8  9  2  0
  9 10  1  0
 10 11  1  0
 10 12  1  0
 10 13  1  0
  9 14  1  0
 14 15  1  0
 15 16  1  0
 14 17  2  0
  5 18  1  0
 18 19  1  0
 19 20  2  0
 20 21  1  0
 21 22  2  0
 22 23  1  0
 23 24  1  0
 23 25  2  0
 25  2  1  0
 17  6  1  0
 25 19  1  0
  4 26  1  0
  7 27  1  0
  8 28  1  0
 15 29  1  0
 15 30  1  0
 17 31  1  0
 20 32  1  0
 21 33  1  0
 22 34  1  0
 24 35  1  0
M  END
>  <meeko>  (7) 
{"is_sidechain": [false], "free_energy": -7.533, "intermolecular_energy": -9.488, "internal_energy": -0.211}

$$$$
cand_007_out
     RDKit          3D

 35 37  0  0  0  0  0  0  0  0999 V2000
   72.1470   37.5680    0.1850 O   0  0  0  0  0  0  0  0  0  0  0  0
   71.7790   38.5450   -0.4640 C   0  0  0  0  0  0  0  0  0  0  0  0
   72.7620   39.3590   -1.2160 C   0  0  0  0  0  0  0  0  0  0  0  0
   74.0890   38.9770   -1.1360 O   0  0  0  0  0  0  0  0  0  0  0  0
   72.3180   40.4220   -1.9120 C   0  0  0  0  0  0  0  0  0  0  0  0
   73.2080   41.3130   -2.6870 C   0  0  0  0  0  0  0  0  0  0  0  0
   74.3830   41.8370   -2.1400 C   0  0  0  0  0  0  0  0  0  0  0  0
   75.2190   42.6610   -2.8990 C   0  0  0  0  0  0  0  0  0  0  0  0
   74.9050   42.9780   -4.2310 C   0  0  0  0  0  0  0  0  0  0  0  0
   75.8320   43.8720   -5.0260 C   0  0  0  0  0  0  0  0  0  0  0  0
   75.1830   44.9460   -5.5550 F   0  0  0  0  0  0  0  0  0  0  0  0
   76.8390   44.3850   -4.2660 F   0  0  0  0  0  0  0  0  0  0  0  0
   76.4370   43.2480   -6.0740 F   0  0  0  0  0  0  0  0  0  0  0  0
   73.7300   42.4430   -4.8030 C   0  0  0  0  0  0  0  0  0  0  0  0
   73.3360   42.7480   -6.2300 C   0  0  0  0  0  0  0  0  0  0  0  0
   74.0310   42.0200   -7.1490 F   0  0  0  0  0  0  0  0  0  0  0  0
   72.8980   41.6180   -4.0210 C   0  0  0  0  0  0  0  0  0  0  0  0
   70.9840   40.8130   -1.9630 O   0  0  0  0  0  0  0  0  0  0  0  0
   70.0510   40.0740   -1.2810 C   0  0  0  0  0  0  0  0  0  0  0  0
   68.7240   40.4980   -1.3670 C   0  0  0  0  0  0  0  0  0  0  0  0
   67.7230   39.7910   -0.6970 C   0  0  0  0  0  0  0  0  0  0  0  0
   68.0490   38.6640    0.0600 C   0  0  0  0  0  0  0  0  0  0  0  0
   69.3740   38.2440    0.1440 C   0  0  0  0  0  0  0  0  0  0  0  0
   69.6220   37.1330    0.9020 O   0  0  0  0  0  0  0  0  0  0  0  0
   70.3750   38.9510   -0.5280 C   0  0  0  0  0  0  0  0  0  0  0  0
   74.6560   39.3780   -0.5060 H   0  0  0  0  0  0  0  0  0  0  0  0
   74.6527   41.5982   -1.1007 H   0  0  0  0  0  0  0  0  0  0  0  0
   76.1359   43.0670   -2.4468 H   0  0  0  0  0  0  0  0  0  0  0  0
   72.2645   42.5304   -6.3504 H   0  0  0  0  0  0  0  0  0  0  0  0
   73.5670   43.8079   -6.4121 H   0  0  0  0  0  0  0  0  0  0  0  0
   71.9825   41.2025   -4.4673 H   0  0  0  0  0  0  0  0  0  0  0  0
   68.4670   41.3873   -1.9613 H   0  0  0  0  0  0  0  0  0  0  0  0
   66.6764   40.1225   -0.7658 H   0  0  0  0  0  0  0  0  0  0  0  0
   67.2605   38.1088    0.5892 H   0  0  0  0  0  0  0  0  0  0  0  0
   69.6000   36.2830    0.5090 H   0  0  0  0  0  0  0  0  0  0  0  0
  1  2  2  0
  2  3  1  0
  3  4  1  0
  3  5  2  0
  5  6  1  0
  6  7  2  0
  7  8  1  0
  8  9  2  0
  9 10  1  0
 10 11  1  0
 10 12  1  0
 10 13  1  0
  9 14  1  0
 14 15  1  0
 15 16  1  0
 14 17  2  0
  5 18  1  0
 18 19  1  0
 19 20  2  0
 20 21  1  0
 21 22  2  0
 22 23  1  0
 23 24  1  0
 23 25  2  0
 25  2  1  0
 17  6  1  0
 25 19  1  0
  4 26  1  0
  7 27  1  0
  8 28  1  0
 15 29  1  0
 15 30  1  0
 17 31  1  0
 20 32  1  0
 21 33  1  0
 22 34  1  0
 24 35  1  0
M  END
>  <meeko>  (8) 
{"is_sidechain": [false], "free_energy": -7.45, "intermolecular_energy": -9.353, "internal_energy": -0.244}

$$$$
cand_007_out
     RDKit          3D

 35 37  0  0  0  0  0  0  0  0999 V2000
   68.6780   40.3500   -1.0810 O   0  0  0  0  0  0  0  0  0  0  0  0
   69.8710   40.0780   -1.1970 C   0  0  0  0  0  0  0  0  0  0  0  0
   70.7600   40.9360   -2.0140 C   0  0  0  0  0  0  0  0  0  0  0  0
   70.1820   42.0270   -2.6380 O   0  0  0  0  0  0  0  0  0  0  0  0
   72.0600   40.6020   -2.1180 C   0  0  0  0  0  0  0  0  0  0  0  0
   73.0340   41.3760   -2.9150 C   0  0  0  0  0  0  0  0  0  0  0  0
   72.8380   41.6270   -4.2770 C   0  0  0  0  0  0  0  0  0  0  0  0
   73.7630   42.3780   -5.0060 C   0  0  0  0  0  0  0  0  0  0  0  0
   74.9100   42.9060   -4.3910 C   0  0  0  0  0  0  0  0  0  0  0  0
   75.8930   43.7160   -5.2080 C   0  0  0  0  0  0  0  0  0  0  0  0
   75.5190   43.8130   -6.5150 F   0  0  0  0  0  0  0  0  0  0  0  0
   76.0110   44.9960   -4.7600 F   0  0  0  0  0  0  0  0  0  0  0  0
   77.1550   43.2070   -5.2180 F   0  0  0  0  0  0  0  0  0  0  0  0
   75.1160   42.6740   -3.0130 C   0  0  0  0  0  0  0  0  0  0  0  0
   76.3300   43.2130   -2.2930 C   0  0  0  0  0  0  0  0  0  0  0  0
   76.3790   42.8590   -0.9770 F   0  0  0  0  0  0  0  0  0  0  0  0
   74.1730   41.9110   -2.2960 C   0  0  0  0  0  0  0  0  0  0  0  0
   72.6240   39.4870   -1.5070 O   0  0  0  0  0  0  0  0  0  0  0  0
   71.8260   38.6770   -0.7400 C   0  0  0  0  0  0  0  0  0  0  0  0
   72.4370   37.5750   -0.1390 C   0  0  0  0  0  0  0  0  0  0  0  0
   71.6820   36.7090    0.6560 C   0  0  0  0  0  0  0  0  0  0  0  0
   70.3200   36.9440    0.8490 C   0  0  0  0  0  0  0  0  0  0  0  0
   69.7140   38.0450    0.2480 C   0  0  0  0  0  0  0  0  0  0  0  0
   68.3760   38.2150    0.4790 O   0  0  0  0  0  0  0  0  0  0  0  0
   70.4690   38.9110   -0.5460 C   0  0  0  0  0  0  0  0  0  0  0  0
   70.5630   42.8780   -2.5420 H   0  0  0  0  0  0  0  0  0  0  0  0
   71.9447   41.2282   -4.7800 H   0  0  0  0  0  0  0  0  0  0  0  0
   73.5906   42.5585   -6.0773 H   0  0  0  0  0  0  0  0  0  0  0  0
   77.2314   42.8274   -2.7919 H   0  0  0  0  0  0  0  0  0  0  0  0
   76.2711   44.3107   -2.3327 H   0  0  0  0  0  0  0  0  0  0  0  0
   74.3344   41.7303   -1.2230 H   0  0  0  0  0  0  0  0  0  0  0  0
   73.5104   37.3889   -0.2910 H   0  0  0  0  0  0  0  0  0  0  0  0
   72.1620   35.8404    1.1306 H   0  0  0  0  0  0  0  0  0  0  0  0
   69.7261   36.2612    1.4744 H   0  0  0  0  0  0  0  0  0  0  0  0
   67.9490   37.7190    1.1480 H   0  0  0  0  0  0  0  0  0  0  0  0
  1  2  2  0
  2  3  1  0
  3  4  1  0
  3  5  2  0
  5  6  1  0
  6  7  2  0
  7  8  1  0
  8  9  2  0
  9 10  1  0
 10 11  1  0
 10 12  1  0
 10 13  1  0
  9 14  1  0
 14 15  1  0
 15 16  1  0
 14 17  2  0
  5 18  1  0
 18 19  1  0
 19 20  2  0
 20 21  1  0
 21 22  2  0
 22 23  1  0
 23 24  1  0
 23 25  2  0
 25  2  1  0
 17  6  1  0
 25 19  1  0
  4 26  1  0
  7 27  1  0
  8 28  1  0
 15 29  1  0
 15 30  1  0
 17 31  1  0
 20 32  1  0
 21 33  1  0
 22 34  1  0
 24 35  1  0
M  END
>  <meeko>  (9) 
{"is_sidechain": [false], "free_energy": -7.447, "intermolecular_energy": -9.351, "internal_energy": -0.242}

$$$$
