cand_002_out
     RDKit          3D

 45 48  0  0  0  0  0  0  0  0999 V2000
   72.5980   38.0900   -1.2410 C   0  0  0  0  0  0  0  0  0  0  0  0
   72.5470   39.5410   -1.6320 C   0  0  0  0  0  0  0  0  0  0  0  0
   73.4600   40.0110   -2.5960 C   0  0  0  0  0  0  0  0  0  0  0  0
   73.4850   41.3540   -3.0000 C   0  0  0  0  0  0  0  0  0  0  0  0
   74.4770   41.8050   -3.9990 C   0  0  0  0  0  0  0  0  0  0  0  0
   73.8920   42.2560   -5.1760 O   0  0  0  0  0  0  0  0  0  0  0  0
   74.6990   42.7050   -6.1900 C   0  0  0  0  0  0  0  0  0  0  0  0
   74.0700   43.1360   -7.3580 C   0  0  0  0  0  0  0  0  0  0  0  0
   74.8340   43.6060   -8.4290 C   0  0  0  0  0  0  0  0  0  0  0  0
   76.2260   43.6450   -8.3300 C   0  0  0  0  0  0  0  0  0  0  0  0
   76.8510   43.2150   -7.1630 C   0  0  0  0  0  0  0  0  0  0  0  0
   78.2180   43.2810   -7.1350 O   0  0  0  0  0  0  0  0  0  0  0  0
   76.0870   42.7430   -6.0930 C   0  0  0  0  0  0  0  0  0  0  0  0
   76.7040   42.2820   -4.8490 C   0  0  0  0  0  0  0  0  0  0  0  0
   77.9230   42.2920   -4.6850 O   0  0  0  0  0  0  0  0  0  0  0  0
   75.8050   41.7940   -3.7780 C   0  0  0  0  0  0  0  0  0  0  0  0
   76.3990   41.3730   -2.6020 O   0  0  0  0  0  0  0  0  0  0  0  0
   72.5850   42.2410   -2.4050 C   0  0  0  0  0  0  0  0  0  0  0  0
   71.6790   41.7970   -1.4390 C   0  0  0  0  0  0  0  0  0  0  0  0
   71.6480   40.4500   -1.0370 C   0  0  0  0  0  0  0  0  0  0  0  0
   70.6460   40.0350    0.0260 C   0  0  0  0  0  0  0  0  0  0  0  0
   69.2420   39.7760   -0.4750 C   0  0  0  0  0  0  0  0  0  0  0  0
   68.7830   40.4120   -1.6380 C   0  0  0  0  0  0  0  0  0  0  0  0
   67.4820   40.2010   -2.0980 C   0  0  0  0  0  0  0  0  0  0  0  0
   66.6210   39.3600   -1.3970 C   0  0  0  0  0  0  0  0  0  0  0  0
   67.0590   38.7320   -0.2330 C   0  0  0  0  0  0  0  0  0  0  0  0
   68.3600   38.9410    0.2280 C   0  0  0  0  0  0  0  0  0  0  0  0
   72.6010   38.0057   -0.1442 H   0  0  0  0  0  0  0  0  0  0  0  0
   71.7176   37.5699   -1.6464 H   0  0  0  0  0  0  0  0  0  0  0  0
   73.5128   37.6330   -1.6464 H   0  0  0  0  0  0  0  0  0  0  0  0
   74.1739   39.3047   -3.0449 H   0  0  0  0  0  0  0  0  0  0  0  0
   72.9732   43.1058   -7.4357 H   0  0  0  0  0  0  0  0  0  0  0  0
   74.3386   43.9455   -9.3506 H   0  0  0  0  0  0  0  0  0  0  0  0
   76.8280   44.0150   -9.1730 H   0  0  0  0  0  0  0  0  0  0  0  0
   78.6690   43.8970   -7.6780 H   0  0  0  0  0  0  0  0  0  0  0  0
   76.7480   42.0030   -2.0020 H   0  0  0  0  0  0  0  0  0  0  0  0
   72.5897   43.3006   -2.7003 H   0  0  0  0  0  0  0  0  0  0  0  0
   70.9781   42.5131   -0.9852 H   0  0  0  0  0  0  0  0  0  0  0  0
   71.0140   39.1122    0.4981 H   0  0  0  0  0  0  0  0  0  0  0  0
   70.5694   40.8848    0.7202 H   0  0  0  0  0  0  0  0  0  0  0  0
   69.4547   41.0835   -2.1929 H   0  0  0  0  0  0  0  0  0  0  0  0
   67.1363   40.6997   -3.0155 H   0  0  0  0  0  0  0  0  0  0  0  0
   65.5969   39.1919   -1.7618 H   0  0  0  0  0  0  0  0  0  0  0  0
   66.3787   38.0706    0.3235 H   0  0  0  0  0  0  0  0  0  0  0  0
   68.6970   38.4465    1.1510 H   0  0  0  0  0  0  0  0  0  0  0  0
  1  2  1  0
  2  3  2  0
  3  4  1  0
  4  5  1  0
  5  6  1  0
  6  7  1  0
  7  8  2  0
  8  9  1  0
  9 10  2  0
 10 11  1  0
 11 12  1  0
 11 13  2  0
 13 14  1  0
 14 15  2  0
 14 16  1  0
 16 17  1  0
  4 18  2  0
 18 19  1  0
 19 20  2  0
 20 21  1  0
 21 22  1  0
 22 23  2  0
 23 24  1  0
 24 25  2  0
 25 26  1  0
 26 27  2  0
 20  2  1  0
 27 22  1  0
 16  5  2  0
 13  7  1  0
  1 28  1  0
  1 29  1  0
  1 30  1  0
  3 31  1  0
  8 32  1  0
  9 33  1  0
 10 34  1  0
 12 35  1  0
 17 36  1  0
 18 37  1  0
 19 38  1  0
 21 39  1  0
 21 40  1  0
 23 41  1  0
 24 42  1  0
 25 43  1  0
 26 44  1  0
 27 45  1  0
M  END
>  <meeko>  (1) 
{"is_sidechain": [false], "free_energy": -8.562, "intermolecular_energy": -10.565, "internal_energy": -0.607}

$$$$
cand_002_out
     RDKit          3D

 45 48  0  0  0  0  0  0  0  0999 V2000
   71.4590   40.2860   -4.4240 C   0  0  0  0  0  0  0  0  0  0  0  0
   72.5670   40.6280   -3.4660 C   0  0  0  0  0  0  0  0  0  0  0  0
   73.1900   41.8860   -3.5810 C   0  0  0  0  0  0  0  0  0  0  0  0
   74.2410   42.2710   -2.7340 C   0  0  0  0  0  0  0  0  0  0  0  0
   74.8790   43.5940   -2.9070 C   0  0  0  0  0  0  0  0  0  0  0  0
   73.9570   44.6260   -3.0260 O   0  0  0  0  0  0  0  0  0  0  0  0
   74.4130   45.9090   -3.1920 C   0  0  0  0  0  0  0  0  0  0  0  0
   73.4520   46.9120   -3.3200 C   0  0  0  0  0  0  0  0  0  0  0  0
   73.8500   48.2400   -3.4910 C   0  0  0  0  0  0  0  0  0  0  0  0
   75.2070   48.5640   -3.5310 C   0  0  0  0  0  0  0  0  0  0  0  0
   76.1640   47.5610   -3.4020 C   0  0  0  0  0  0  0  0  0  0  0  0
   77.4760   47.9490   -3.4500 O   0  0  0  0  0  0  0  0  0  0  0  0
   75.7660   46.2330   -3.2330 C   0  0  0  0  0  0  0  0  0  0  0  0
   76.7380   45.1480   -3.0940 C   0  0  0  0  0  0  0  0  0  0  0  0
   77.9500   45.3550   -3.1130 O   0  0  0  0  0  0  0  0  0  0  0  0
   76.2130   43.7730   -2.9270 C   0  0  0  0  0  0  0  0  0  0  0  0
   77.1410   42.7580   -2.7820 O   0  0  0  0  0  0  0  0  0  0  0  0
   74.6830   41.3610   -1.7710 C   0  0  0  0  0  0  0  0  0  0  0  0
   74.0850   40.1050   -1.6500 C   0  0  0  0  0  0  0  0  0  0  0  0
   73.0270   39.7190   -2.4920 C   0  0  0  0  0  0  0  0  0  0  0  0
   72.4300   38.3340   -2.3160 C   0  0  0  0  0  0  0  0  0  0  0  0
   71.8090   38.0670   -0.9610 C   0  0  0  0  0  0  0  0  0  0  0  0
   72.2450   36.9790   -0.1900 C   0  0  0  0  0  0  0  0  0  0  0  0
   71.6640   36.7060    1.0490 C   0  0  0  0  0  0  0  0  0  0  0  0
   70.6340   37.5110    1.5300 C   0  0  0  0  0  0  0  0  0  0  0  0
   70.1810   38.5860    0.7680 C   0  0  0  0  0  0  0  0  0  0  0  0
   70.7610   38.8610   -0.4710 C   0  0  0  0  0  0  0  0  0  0  0  0
   70.5577   40.0078   -3.8580 H   0  0  0  0  0  0  0  0  0  0  0  0
   71.2396   41.1582   -5.0573 H   0  0  0  0  0  0  0  0  0  0  0  0
   71.7694   39.4418   -5.0573 H   0  0  0  0  0  0  0  0  0  0  0  0
   72.8435   42.5858   -4.3557 H   0  0  0  0  0  0  0  0  0  0  0  0
   72.3824   46.6575   -3.2863 H   0  0  0  0  0  0  0  0  0  0  0  0
   73.0930   49.0314   -3.5943 H   0  0  0  0  0  0  0  0  0  0  0  0
   75.5199   49.6101   -3.6642 H   0  0  0  0  0  0  0  0  0  0  0  0
   78.1110   47.5210   -2.9110 H   0  0  0  0  0  0  0  0  0  0  0  0
   77.1330   42.2220   -2.0140 H   0  0  0  0  0  0  0  0  0  0  0  0
   75.5107   41.6366   -1.1010 H   0  0  0  0  0  0  0  0  0  0  0  0
   74.4479   39.4053   -0.8827 H   0  0  0  0  0  0  0  0  0  0  0  0
   71.6501   38.2000   -3.0801 H   0  0  0  0  0  0  0  0  0  0  0  0
   73.2666   37.6264   -2.4131 H   0  0  0  0  0  0  0  0  0  0  0  0
   73.0532   36.3345   -0.5661 H   0  0  0  0  0  0  0  0  0  0  0  0
   72.0199   35.8539    1.6467 H   0  0  0  0  0  0  0  0  0  0  0  0
   70.1794   37.2986    2.5089 H   0  0  0  0  0  0  0  0  0  0  0  0
   69.3641   39.2195    1.1441 H   0  0  0  0  0  0  0  0  0  0  0  0
   70.3933   39.7079   -1.0690 H   0  0  0  0  0  0  0  0  0  0  0  0
  1  2  1  0
  2  3  2  0
  3  4  1  0
  4  5  1  0
  5  6  1  0
  6  7  1  0
  7  8  2  0
  8  9  1  0
  9 10  2  0
 10 11  1  0
 11 12  1  0
 11 13  2  0
 13 14  1  0
 14 15  2  0
 14 16  1  0
 16 17  1  0
  4 18  2  0
 18 19  1  0
 19 20  2  0
 20 21  1  0
 21 22  1  0
 22 23  2  0
 23 24  1  0
 24 25  2  0
 25 26  1  0
 26 27  2  0
 20  2  1  0
 27 22  1  0
 16  5  2  0
 13  7  1  0
  1 28  1  0
  1 29  1  0
  1 30  1  0
  3 31  1  0
  8 32  1  0
  9 33  1  0
 10 34  1  0
 12 35  1  0
 17 36  1  0
 18 37  1  0
 19 38  1  0
 21 39  1  0
 21 40  1  0
 23 41  1  0
 24 42  1  0
 25 43  1  0
 26 44  1  0
 27 45  1  0
M  END
>  <meeko>  (2) 
{"is_sidechain": [false], "free_energy": -8.543, "intermolecular_energy": -10.478, "internal_energy": -0.67}

$$$$
cand_002_out
     RDKit          3D

 45 48  0  0  0  0  0  0  0  0999 V2000
   65.1220   44.2380   -0.6040 C   0  0  0  0  0  0  0  0  0  0  0  0
   65.5090   42.7860   -0.5730 C   0  0  0  0  0  0  0  0  0  0  0  0
   66.7950   42.4230   -1.0190 C   0  0  0  0  0  0  0  0  0  0  0  0
   67.2240   41.0870   -1.0350 C   0  0  0  0  0  0  0  0  0  0  0  0
   68.5750   40.7530   -1.5330 C   0  0  0  0  0  0  0  0  0  0  0  0
   69.4160   40.2770   -0.5340 O   0  0  0  0  0  0  0  0  0  0  0  0
   70.7020   39.9280   -0.8580 C   0  0  0  0  0  0  0  0  0  0  0  0
   71.5150   39.4680    0.1780 C   0  0  0  0  0  0  0  0  0  0  0  0
   72.8350   39.0960   -0.0840 C   0  0  0  0  0  0  0  0  0  0  0  0
   73.3410   39.1820   -1.3830 C   0  0  0  0  0  0  0  0  0  0  0  0
   72.5280   39.6410   -2.4150 C   0  0  0  0  0  0  0  0  0  0  0  0
   73.0880   39.7010   -3.6630 O   0  0  0  0  0  0  0  0  0  0  0  0
   71.2080   40.0160   -2.1520 C   0  0  0  0  0  0  0  0  0  0  0  0
   70.3200   40.5030   -3.2080 C   0  0  0  0  0  0  0  0  0  0  0  0
   70.6900   40.6010   -4.3760 O   0  0  0  0  0  0  0  0  0  0  0  0
   68.9400   40.8810   -2.8230 C   0  0  0  0  0  0  0  0  0  0  0  0
   68.1050   41.3270   -3.8310 O   0  0  0  0  0  0  0  0  0  0  0  0
   66.3300   40.0990   -0.6140 C   0  0  0  0  0  0  0  0  0  0  0  0
   65.0460   40.4390   -0.1800 C   0  0  0  0  0  0  0  0  0  0  0  0
   64.6170   41.7770   -0.1560 C   0  0  0  0  0  0  0  0  0  0  0  0
   63.2050   42.0760    0.3170 C   0  0  0  0  0  0  0  0  0  0  0  0
   62.9760   41.9250    1.8050 C   0  0  0  0  0  0  0  0  0  0  0  0
   61.8840   41.1810    2.2760 C   0  0  0  0  0  0  0  0  0  0  0  0
   61.6470   41.0530    3.6460 C   0  0  0  0  0  0  0  0  0  0  0  0
   62.4930   41.6750    4.5620 C   0  0  0  0  0  0  0  0  0  0  0  0
   63.5740   42.4280    4.1080 C   0  0  0  0  0  0  0  0  0  0  0  0
   63.8120   42.5560    2.7380 C   0  0  0  0  0  0  0  0  0  0  0  0
   65.0221   44.6129    0.4253 H   0  0  0  0  0  0  0  0  0  0  0  0
   65.8982   44.8132   -1.1300 H   0  0  0  0  0  0  0  0  0  0  0  0
   64.1625   44.3506   -1.1300 H   0  0  0  0  0  0  0  0  0  0  0  0
   67.4824   43.2092   -1.3645 H   0  0  0  0  0  0  0  0  0  0  0  0
   71.1163   39.3984    1.2009 H   0  0  0  0  0  0  0  0  0  0  0  0
   73.4768   38.7350    0.7331 H   0  0  0  0  0  0  0  0  0  0  0  0
   74.3804   38.8874   -1.5900 H   0  0  0  0  0  0  0  0  0  0  0  0
   72.9510   40.4540   -4.2020 H   0  0  0  0  0  0  0  0  0  0  0  0
   67.4990   42.0220   -3.6630 H   0  0  0  0  0  0  0  0  0  0  0  0
   66.6399   39.0436   -0.6243 H   0  0  0  0  0  0  0  0  0  0  0  0
   64.3589   39.6453    0.1487 H   0  0  0  0  0  0  0  0  0  0  0  0
   62.9663   43.1134    0.0400 H   0  0  0  0  0  0  0  0  0  0  0  0
   62.5576   41.3304   -0.1676 H   0  0  0  0  0  0  0  0  0  0  0  0
   61.2075   40.6934    1.5586 H   0  0  0  0  0  0  0  0  0  0  0  0
   60.7915   40.4605    4.0026 H   0  0  0  0  0  0  0  0  0  0  0  0
   62.3079   41.5718    5.6414 H   0  0  0  0  0  0  0  0  0  0  0  0
   64.2408   42.9223    4.8298 H   0  0  0  0  0  0  0  0  0  0  0  0
   64.6634   43.1576    2.3870 H   0  0  0  0  0  0  0  0  0  0  0  0
  1  2  1  0
  2  3  2  0
  3  4  1  0
  4  5  1  0
  5  6  1  0
  6  7  1  0
  7  8  2  0
  8  9  1  0
  9 10  2  0
 10 11  1  0
 11 12  1  0
 11 13  2  0
 13 14  1  0
 14 15  2  0
 14 16  1  0
 16 17  1  0
  4 18  2  0
 18 19  1  0
 19 20  2  0
 20 21  1  0
 21 22  1  0
 22 23  2  0
 23 24  1  0
 24 25  2  0
 25 26  1  0
 26 27  2  0
 20  2  1  0
 27 22  1  0
 16  5  2  0
 13  7  1  0
  1 28  1  0
  1 29  1  0
  1 30  1  0
  3 31  1  0
  8 32  1  0
  9 33  1  0
 10 34  1  0
 12 35  1  0
 17 36  1  0
 18 37  1  0
 19 38  1  0
 21 39  1  0
 21 40  1  0
 23 41  1  0
 24 42  1  0
 25 43  1  0
 26 44  1  0
 27 45  1  0
M  END
>  <meeko>  (3) 
{"is_sidechain": [false], "free_energy": -8.314, "intermolecular_energy": -9.956, "internal_energy": -0.909}

$$$$
cand_002_out
     RDKit          3D

 45 48  0  0  0  0  0  0  0  0999 V2000
   75.3370   44.0560   -2.9010 C   0  0  0  0  0  0  0  0  0  0  0  0
   74.2830   43.1890   -3.5320 C   0  0  0  0  0  0  0  0  0  0  0  0
   73.5240   42.3420   -2.7020 C   0  0  0  0  0  0  0  0  0  0  0  0
   72.5340   41.4920   -3.2190 C   0  0  0  0  0  0  0  0  0  0  0  0
   71.7770   40.6040   -2.3110 C   0  0  0  0  0  0  0  0  0  0  0  0
   72.5510   39.5710   -1.7980 O   0  0  0  0  0  0  0  0  0  0  0  0
   71.9730   38.6710   -0.9390 C   0  0  0  0  0  0  0  0  0  0  0  0
   72.7840   37.6420   -0.4590 C   0  0  0  0  0  0  0  0  0  0  0  0
   72.2580   36.6920    0.4200 C   0  0  0  0  0  0  0  0  0  0  0  0
   70.9220   36.7730    0.8190 C   0  0  0  0  0  0  0  0  0  0  0  0
   70.1160   37.8020    0.3390 C   0  0  0  0  0  0  0  0  0  0  0  0
   68.8170   37.8210    0.7710 O   0  0  0  0  0  0  0  0  0  0  0  0
   70.6420   38.7500   -0.5410 C   0  0  0  0  0  0  0  0  0  0  0  0
   69.8290   39.8460   -1.0690 C   0  0  0  0  0  0  0  0  0  0  0  0
   68.6480   39.9890   -0.7590 O   0  0  0  0  0  0  0  0  0  0  0  0
   70.4800   40.7950   -2.0020 C   0  0  0  0  0  0  0  0  0  0  0  0
   69.7070   41.8350   -2.4840 O   0  0  0  0  0  0  0  0  0  0  0  0
   72.3230   41.4840   -4.6000 C   0  0  0  0  0  0  0  0  0  0  0  0
   73.0750   42.3090   -5.4400 C   0  0  0  0  0  0  0  0  0  0  0  0
   74.0630   43.1660   -4.9240 C   0  0  0  0  0  0  0  0  0  0  0  0
   74.8520   44.0280   -5.8940 C   0  0  0  0  0  0  0  0  0  0  0  0
   76.1210   43.4010   -6.4300 C   0  0  0  0  0  0  0  0  0  0  0  0
   76.7990   43.9960   -7.5040 C   0  0  0  0  0  0  0  0  0  0  0  0
   77.9560   43.4150   -8.0250 C   0  0  0  0  0  0  0  0  0  0  0  0
   78.4460   42.2280   -7.4850 C   0  0  0  0  0  0  0  0  0  0  0  0
   77.7750   41.6180   -6.4270 C   0  0  0  0  0  0  0  0  0  0  0  0
   76.6170   42.1990   -5.9050 C   0  0  0  0  0  0  0  0  0  0  0  0
   75.2579   43.9909   -1.8058 H   0  0  0  0  0  0  0  0  0  0  0  0
   76.3327   43.7120   -3.2178 H   0  0  0  0  0  0  0  0  0  0  0  0
   75.1915   45.0993   -3.2178 H   0  0  0  0  0  0  0  0  0  0  0  0
   73.7122   42.3466   -1.6182 H   0  0  0  0  0  0  0  0  0  0  0  0
   73.8365   37.5788   -0.7724 H   0  0  0  0  0  0  0  0  0  0  0  0
   72.8964   35.8798    0.7980 H   0  0  0  0  0  0  0  0  0  0  0  0
   70.5073   36.0253    1.5111 H   0  0  0  0  0  0  0  0  0  0  0  0
   68.1300   37.5370    0.2020 H   0  0  0  0  0  0  0  0  0  0  0  0
   69.1480   42.3120   -1.9020 H   0  0  0  0  0  0  0  0  0  0  0  0
   71.5573   40.8217   -5.0302 H   0  0  0  0  0  0  0  0  0  0  0  0
   72.8909   42.2877   -6.5243 H   0  0  0  0  0  0  0  0  0  0  0  0
   74.2005   44.2612   -6.7491 H   0  0  0  0  0  0  0  0  0  0  0  0
   75.1672   44.9156   -5.3258 H   0  0  0  0  0  0  0  0  0  0  0  0
   76.4149   44.9300   -7.9401 H   0  0  0  0  0  0  0  0  0  0  0  0
   78.4819   43.8951   -8.8634 H   0  0  0  0  0  0  0  0  0  0  0  0
   79.3607   41.7732   -7.8930 H   0  0  0  0  0  0  0  0  0  0  0  0
   78.1576   40.6781   -6.0025 H   0  0  0  0  0  0  0  0  0  0  0  0
   76.0889   41.7088   -5.0739 H   0  0  0  0  0  0  0  0  0  0  0  0
  1  2  1  0
  2  3  2  0
  3  4  1  0
  4  5  1  0
  5  6  1  0
  6  7  1  0
  7  8  2  0
  8  9  1  0
  9 10  2  0
 10 11  1  0
 11 12  1  0
 11 13  2  0
 13 14  1  0
 14 15  2  0
 14 16  1  0
 16 17  1  0
  4 18  2  0
 18 19  1  0
 19 20  2  0
 20 21  1  0
 21 22  1  0
 22 23  2  0
 23 24  1  0
 24 25  2  0
 25 26  1  0
 26 27  2  0
 20  2  1  0
 27 22  1  0
 16  5  2  0
 13  7  1  0
  1 28  1  0
  1 29  1  0
  1 30  1  0
  3 31  1  0
  8 32  1  0
  9 33  1  0
 10 34  1  0
 12 35  1  0
 17 36  1  0
 18 37  1  0
 19 38  1  0
 21 39  1  0
 21 40  1  0
 23 41  1  0
 24 42  1  0
 25 43  1  0
 26 44  1  0
 27 45  1  0
M  END
>  <meeko>  (4) 
{"is_sidechain": [false], "free_energy": -8.299, "intermolecular_energy": -9.985, "internal_energy": -0.862}

$$$$
cand_002_out
     RDKit          3D

 45 48  0  0  0  0  0  0  0  0999 V2000
   71.8650   39.7270   -3.4530 C   0  0  0  0  0  0  0  0  0  0  0  0
   70.9990   40.7090   -2.7130 C   0  0  0  0  0  0  0  0  0  0  0  0
   70.0030   41.4000   -3.4290 C   0  0  0  0  0  0  0  0  0  0  0  0
   69.1670   42.3430   -2.8120 C   0  0  0  0  0  0  0  0  0  0  0  0
   68.1490   43.0600   -3.6110 C   0  0  0  0  0  0  0  0  0  0  0  0
   68.5540   43.2890   -4.9210 O   0  0  0  0  0  0  0  0  0  0  0  0
   67.7040   43.9460   -5.7730 C   0  0  0  0  0  0  0  0  0  0  0  0
   68.1570   44.1660   -7.0750 C   0  0  0  0  0  0  0  0  0  0  0  0
   67.3400   44.8280   -7.9940 C   0  0  0  0  0  0  0  0  0  0  0  0
   66.0720   45.2690   -7.6120 C   0  0  0  0  0  0  0  0  0  0  0  0
   65.6220   45.0480   -6.3120 C   0  0  0  0  0  0  0  0  0  0  0  0
   64.3700   45.5060   -6.0060 O   0  0  0  0  0  0  0  0  0  0  0  0
   66.4400   44.3870   -5.3930 C   0  0  0  0  0  0  0  0  0  0  0  0
   66.0070   44.1340   -4.0180 C   0  0  0  0  0  0  0  0  0  0  0  0
   64.9020   44.4860   -3.6090 O   0  0  0  0  0  0  0  0  0  0  0  0
   66.9520   43.4310   -3.1200 C   0  0  0  0  0  0  0  0  0  0  0  0
   66.5270   43.1860   -1.8270 O   0  0  0  0  0  0  0  0  0  0  0  0
   69.3550   42.6070   -1.4530 C   0  0  0  0  0  0  0  0  0  0  0  0
   70.3460   41.9400   -0.7290 C   0  0  0  0  0  0  0  0  0  0  0  0
   71.1810   40.9900   -1.3440 C   0  0  0  0  0  0  0  0  0  0  0  0
   72.2450   40.3090   -0.5010 C   0  0  0  0  0  0  0  0  0  0  0  0
   71.8620   38.9550    0.0540 C   0  0  0  0  0  0  0  0  0  0  0  0
   72.6210   37.8210   -0.2720 C   0  0  0  0  0  0  0  0  0  0  0  0
   72.2630   36.5610    0.2120 C   0  0  0  0  0  0  0  0  0  0  0  0
   71.1390   36.4180    1.0220 C   0  0  0  0  0  0  0  0  0  0  0  0
   70.3680   37.5330    1.3430 C   0  0  0  0  0  0  0  0  0  0  0  0
   70.7240   38.7940    0.8590 C   0  0  0  0  0  0  0  0  0  0  0  0
   72.4136   39.1049   -2.7305 H   0  0  0  0  0  0  0  0  0  0  0  0
   71.2338   39.0849   -4.0848 H   0  0  0  0  0  0  0  0  0  0  0  0
   72.5810   40.2730   -4.0848 H   0  0  0  0  0  0  0  0  0  0  0  0
   69.8766   41.1949   -4.5023 H   0  0  0  0  0  0  0  0  0  0  0  0
   69.1561   43.8184   -7.3767 H   0  0  0  0  0  0  0  0  0  0  0  0
   67.6962   45.0021   -9.0201 H   0  0  0  0  0  0  0  0  0  0  0  0
   65.4289   45.7903   -8.3363 H   0  0  0  0  0  0  0  0  0  0  0  0
   63.8040   44.9950   -5.4610 H   0  0  0  0  0  0  0  0  0  0  0  0
   67.1380   42.8870   -1.1820 H   0  0  0  0  0  0  0  0  0  0  0  0
   68.7166   43.3471   -0.9484 H   0  0  0  0  0  0  0  0  0  0  0  0
   70.4756   42.1616    0.3406 H   0  0  0  0  0  0  0  0  0  0  0  0
   73.1414   40.1791   -1.1252 H   0  0  0  0  0  0  0  0  0  0  0  0
   72.4052   40.9605    0.3707 H   0  0  0  0  0  0  0  0  0  0  0  0
   73.5071   37.9255   -0.9154 H   0  0  0  0  0  0  0  0  0  0  0  0
   72.8694   35.6804   -0.0467 H   0  0  0  0  0  0  0  0  0  0  0  0
   70.8605   35.4262    1.4077 H   0  0  0  0  0  0  0  0  0  0  0  0
   69.4774   37.4202    1.9787 H   0  0  0  0  0  0  0  0  0  0  0  0
   70.1066   39.6688    1.1112 H   0  0  0  0  0  0  0  0  0  0  0  0
  1  2  1  0
  2  3  2  0
  3  4  1  0
  4  5  1  0
  5  6  1  0
  6  7  1  0
  7  8  2  0
  8  9  1  0
  9 10  2  0
 10 11  1  0
 11 12  1  0
 11 13  2  0
 13 14  1  0
 14 15  2  0
 14 16  1  0
 16 17  1  0
  4 18  2  0
 18 19  1  0
 19 20  2  0
 20 21  1  0
 21 22  1  0
 22 23  2  0
 23 24  1  0
 24 25  2  0
 25 26  1  0
 26 27  2  0
 20  2  1  0
 27 22  1  0
 16  5  2  0
 13  7  1  0
  1 28  1  0
  1 29  1  0
  1 30  1  0
  3 31  1  0
  8 32  1  0
  9 33  1  0
 10 34  1  0
 12 35  1  0
 17 36  1  0
 18 37  1  0
 19 38  1  0
 21 39  1  0
 21 40  1  0
 23 41  1  0
 24 42  1  0
 25 43  1  0
 26 44  1  0
 27 45  1  0
M  END
>  <meeko>  (5) 
{"is_sidechain": [false], "free_energy": -8.26, "intermolecular_energy": -10.262, "internal_energy": -0.537}

$$$$
cand_002_out
     RDKit          3D

 45 48  0  0  0  0  0  0  0  0999 V2000
   75.5510   43.9030   -2.6960 C   0  0  0  0  0  0  0  0  0  0  0  0
   74.4850   43.0730   -3.3570 C   0  0  0  0  0  0  0  0  0  0  0  0
   73.6970   42.2270   -2.5530 C   0  0  0  0  0  0  0  0  0  0  0  0
   72.6940   41.4110   -3.0980 C   0  0  0  0  0  0  0  0  0  0  0  0
   71.9070   40.5230   -2.2170 C   0  0  0  0  0  0  0  0  0  0  0  0
   70.5520   40.8340   -2.2060 O   0  0  0  0  0  0  0  0  0  0  0  0
   69.7050   40.0870   -1.4290 C   0  0  0  0  0  0  0  0  0  0  0  0
   68.3560   40.4430   -1.4380 C   0  0  0  0  0  0  0  0  0  0  0  0
   67.4390   39.7230   -0.6700 C   0  0  0  0  0  0  0  0  0  0  0  0
   67.8720   38.6460    0.1070 C   0  0  0  0  0  0  0  0  0  0  0  0
   69.2180   38.2920    0.1140 C   0  0  0  0  0  0  0  0  0  0  0  0
   69.5730   37.2270    0.8980 O   0  0  0  0  0  0  0  0  0  0  0  0
   70.1350   39.0140   -0.6540 C   0  0  0  0  0  0  0  0  0  0  0  0
   71.5580   38.6760   -0.6740 C   0  0  0  0  0  0  0  0  0  0  0  0
   72.0140   37.7380   -0.0230 O   0  0  0  0  0  0  0  0  0  0  0  0
   72.4490   39.5080   -1.5160 C   0  0  0  0  0  0  0  0  0  0  0  0
   73.7900   39.1710   -1.5390 O   0  0  0  0  0  0  0  0  0  0  0  0
   72.4990   41.4350   -4.4820 C   0  0  0  0  0  0  0  0  0  0  0  0
   73.2790   42.2590   -5.2960 C   0  0  0  0  0  0  0  0  0  0  0  0
   74.2800   43.0830   -4.7510 C   0  0  0  0  0  0  0  0  0  0  0  0
   75.1000   43.9460   -5.6950 C   0  0  0  0  0  0  0  0  0  0  0  0
   76.3330   43.2840   -6.2690 C   0  0  0  0  0  0  0  0  0  0  0  0
   76.9710   43.8370   -7.3890 C   0  0  0  0  0  0  0  0  0  0  0  0
   78.0950   43.2230   -7.9450 C   0  0  0  0  0  0  0  0  0  0  0  0
   78.5900   42.0430   -7.3930 C   0  0  0  0  0  0  0  0  0  0  0  0
   77.9580   41.4750   -6.2890 C   0  0  0  0  0  0  0  0  0  0  0  0
   76.8340   42.0890   -5.7320 C   0  0  0  0  0  0  0  0  0  0  0  0
   75.4512   43.8253   -1.6033 H   0  0  0  0  0  0  0  0  0  0  0  0
   76.5425   43.5367   -3.0006 H   0  0  0  0  0  0  0  0  0  0  0  0
   75.4389   44.9540   -3.0006 H   0  0  0  0  0  0  0  0  0  0  0  0
   73.8727   42.2053   -1.4673 H   0  0  0  0  0  0  0  0  0  0  0  0
   68.0150   41.2909   -2.0502 H   0  0  0  0  0  0  0  0  0  0  0  0
   66.3755   40.0038   -0.6768 H   0  0  0  0  0  0  0  0  0  0  0  0
   67.1501   38.0784    0.7126 H   0  0  0  0  0  0  0  0  0  0  0  0
   70.2850   37.3060    1.5010 H   0  0  0  0  0  0  0  0  0  0  0  0
   74.1280   38.6430   -2.2350 H   0  0  0  0  0  0  0  0  0  0  0  0
   71.7238   40.7988   -4.9341 H   0  0  0  0  0  0  0  0  0  0  0  0
   73.1075   42.2637   -6.3825 H   0  0  0  0  0  0  0  0  0  0  0  0
   74.4524   44.2430   -6.5331 H   0  0  0  0  0  0  0  0  0  0  0  0
   75.4614   44.7944   -5.0953 H   0  0  0  0  0  0  0  0  0  0  0  0
   76.5816   44.7645   -7.8342 H   0  0  0  0  0  0  0  0  0  0  0  0
   78.5901   43.6709   -8.8192 H   0  0  0  0  0  0  0  0  0  0  0  0
   79.4779   41.5611   -7.8281 H   0  0  0  0  0  0  0  0  0  0  0  0
   78.3450   40.5412   -5.8552 H   0  0  0  0  0  0  0  0  0  0  0  0
   76.3370   41.6311   -4.8640 H   0  0  0  0  0  0  0  0  0  0  0  0
  1  2  1  0
  2  3  2  0
  3  4  1  0
  4  5  1  0
  5  6  1  0
  6  7  1  0
  7  8  2  0
  8  9  1  0
  9 10  2  0
 10 11  1  0
 11 12  1  0
 11 13  2  0
 13 14  1  0
 14 15  2  0
 14 16  1  0
 16 17  1  0
  4 18  2  0
 18 19  1  0
 19 20  2  0
 20 21  1  0
 21 22  1  0
 22 23  2  0
 23 24  1  0
 24 25  2  0
 25 26  1  0
 26 27  2  0
 20  2  1  0
 27 22  1  0
 16  5  2  0
 13  7  1  0
  1 28  1  0
  1 29  1  0
  1 30  1  0
  3 31  1  0
  8 32  1  0
  9 33  1  0
 10 34  1  0
 12 35  1  0
 17 36  1  0
 18 37  1  0
 19 38  1  0
 21 39  1  0
 21 40  1  0
 23 41  1  0
 24 42  1  0
 25 43  1  0
 26 44  1  0
 27 45  1  0
M  END
>  <meeko>  (6) 
{"is_sidechain": [false], "free_energy": -8.201, "intermolecular_energy": -9.935, "internal_energy": -0.791}

$$$$
cand_002_out
     RDKit          3D

 45 48  0  0  0  0  0  0  0  0999 V2000
   71.7760   40.0140   -4.0030 C   0  0  0  0  0  0  0  0  0  0  0  0
   71.0540   40.9950   -3.1200 C   0  0  0  0  0  0  0  0  0  0  0  0
   70.1190   41.8680   -3.7090 C   0  0  0  0  0  0  0  0  0  0  0  0
   69.4190   42.8210   -2.9550 C   0  0  0  0  0  0  0  0  0  0  0  0
   68.4630   43.7300   -3.6210 C   0  0  0  0  0  0  0  0  0  0  0  0
   68.8500   45.0640   -3.5550 O   0  0  0  0  0  0  0  0  0  0  0  0
   68.0520   46.0170   -4.1360 C   0  0  0  0  0  0  0  0  0  0  0  0
   68.4720   47.3430   -4.0330 C   0  0  0  0  0  0  0  0  0  0  0  0
   67.7060   48.3620   -4.6030 C   0  0  0  0  0  0  0  0  0  0  0  0
   66.5220   48.0550   -5.2750 C   0  0  0  0  0  0  0  0  0  0  0  0
   66.1050   46.7310   -5.3760 C   0  0  0  0  0  0  0  0  0  0  0  0
   64.9350   46.5010   -6.0480 O   0  0  0  0  0  0  0  0  0  0  0  0
   66.8710   45.7110   -4.8040 C   0  0  0  0  0  0  0  0  0  0  0  0
   66.4690   44.3070   -4.8870 C   0  0  0  0  0  0  0  0  0  0  0  0
   65.4430   43.9560   -5.4680 O   0  0  0  0  0  0  0  0  0  0  0  0
   67.3470   43.3030   -4.2420 C   0  0  0  0  0  0  0  0  0  0  0  0
   66.9640   41.9780   -4.3390 O   0  0  0  0  0  0  0  0  0  0  0  0
   69.6840   42.9070   -1.5860 C   0  0  0  0  0  0  0  0  0  0  0  0
   70.6170   42.0590   -0.9860 C   0  0  0  0  0  0  0  0  0  0  0  0
   71.3150   41.0980   -1.7390 C   0  0  0  0  0  0  0  0  0  0  0  0
   72.3240   40.2140   -1.0270 C   0  0  0  0  0  0  0  0  0  0  0  0
   71.7560   38.9570   -0.4040 C   0  0  0  0  0  0  0  0  0  0  0  0
   70.4000   38.9000   -0.0480 C   0  0  0  0  0  0  0  0  0  0  0  0
   69.8690   37.7570    0.5510 C   0  0  0  0  0  0  0  0  0  0  0  0
   70.6860   36.6590    0.8090 C   0  0  0  0  0  0  0  0  0  0  0  0
   72.0380   36.7060    0.4730 C   0  0  0  0  0  0  0  0  0  0  0  0
   72.5710   37.8500   -0.1260 C   0  0  0  0  0  0  0  0  0  0  0  0
   72.3128   39.2847   -3.3785 H   0  0  0  0  0  0  0  0  0  0  0  0
   71.0482   39.4876   -4.6380 H   0  0  0  0  0  0  0  0  0  0  0  0
   72.4949   40.5524   -4.6380 H   0  0  0  0  0  0  0  0  0  0  0  0
   69.9325   41.8005   -4.7910 H   0  0  0  0  0  0  0  0  0  0  0  0
   69.4052   47.5857   -3.5036 H   0  0  0  0  0  0  0  0  0  0  0  0
   68.0363   49.4081   -4.5222 H   0  0  0  0  0  0  0  0  0  0  0  0
   65.9193   48.8582   -5.7241 H   0  0  0  0  0  0  0  0  0  0  0  0
   64.3750   47.2170   -6.2720 H   0  0  0  0  0  0  0  0  0  0  0  0
   66.4030   41.7010   -5.0370 H   0  0  0  0  0  0  0  0  0  0  0  0
   69.1520   43.6506   -0.9744 H   0  0  0  0  0  0  0  0  0  0  0  0
   70.8093   42.1440    0.0937 H   0  0  0  0  0  0  0  0  0  0  0  0
   73.0896   39.9150   -1.7581 H   0  0  0  0  0  0  0  0  0  0  0  0
   72.7203   40.8140   -0.1946 H   0  0  0  0  0  0  0  0  0  0  0  0
   69.7490   39.7650   -0.2430 H   0  0  0  0  0  0  0  0  0  0  0  0
   68.8029   37.7231    0.8200 H   0  0  0  0  0  0  0  0  0  0  0  0
   70.2653   35.7567    1.2769 H   0  0  0  0  0  0  0  0  0  0  0  0
   72.6859   35.8414    0.6797 H   0  0  0  0  0  0  0  0  0  0  0  0
   73.6403   37.8829   -0.3821 H   0  0  0  0  0  0  0  0  0  0  0  0
  1  2  1  0
  2  3  2  0
  3  4  1  0
  4  5  1  0
  5  6  1  0
  6  7  1  0
  7  8  2  0
  8  9  1  0
  9 10  2  0
 10 11  1  0
 11 12  1  0
 11 13  2  0
 13 14  1  0
 14 15  2  0
 14 16  1  0
 16 17  1  0
  4 18  2  0
 18 19  1  0
 19 20  2  0
 20 21  1  0
 21 22  1  0
 22 23  2  0
 23 24  1  0
 24 25  2  0
 25 26  1  0
 26 27  2  0
 20  2  1  0
 27 22  1  0
 16  5  2  0
 13  7  1  0
  1 28  1  0
  1 29  1  0
  1 30  1  0
  3 31  1  0
  8 32  1  0
  9 33  1  0
 10 34  1  0
 12 35  1  0
 17 36  1  0
 18 37  1  0
 19 38  1  0
 21 39  1  0
 21 40  1  0
 23 41  1  0
 24 42  1  0
 25 43  1  0
 26 44  1  0
 27 45  1  0
M  END
>  <meeko>  (7) 
{"is_sidechain": [false], "free_energy": -8.181, "intermolecular_energy": -10.019, "internal_energy": -0.682}

$$$$
cand_002_out
     RDKit          3D

 45 48  0  0  0  0  0  0  0  0999 V2000
   73.9390   45.5960   -3.3270 C   0  0  0  0  0  0  0  0  0  0  0  0
   73.4220   44.2970   -3.8830 C   0  0  0  0  0  0  0  0  0  0  0  0
   73.0600   43.2780   -2.9820 C   0  0  0  0  0  0  0  0  0  0  0  0
   72.5850   42.0330   -3.4250 C   0  0  0  0  0  0  0  0  0  0  0  0
   72.2380   40.9850   -2.4420 C   0  0  0  0  0  0  0  0  0  0  0  0
   70.8770   40.9320   -2.1670 O   0  0  0  0  0  0  0  0  0  0  0  0
   70.4160   40.0020   -1.2700 C   0  0  0  0  0  0  0  0  0  0  0  0
   69.0440   39.9940   -1.0150 C   0  0  0  0  0  0  0  0  0  0  0  0
   68.5090   39.0720   -0.1120 C   0  0  0  0  0  0  0  0  0  0  0  0
   69.3460   38.1590    0.5330 C   0  0  0  0  0  0  0  0  0  0  0  0
   70.7140   38.1700    0.2760 C   0  0  0  0  0  0  0  0  0  0  0  0
   71.4750   37.2480    0.9430 O   0  0  0  0  0  0  0  0  0  0  0  0
   71.2490   39.0930   -0.6250 C   0  0  0  0  0  0  0  0  0  0  0  0
   72.6800   39.1380   -0.9240 C   0  0  0  0  0  0  0  0  0  0  0  0
   73.4790   38.3640   -0.4010 O   0  0  0  0  0  0  0  0  0  0  0  0
   73.1480   40.1600   -1.8890 C   0  0  0  0  0  0  0  0  0  0  0  0
   74.5010   40.1850   -2.1740 O   0  0  0  0  0  0  0  0  0  0  0  0
   72.4960   41.8100   -4.8010 C   0  0  0  0  0  0  0  0  0  0  0  0
   72.8620   42.8050   -5.7090 C   0  0  0  0  0  0  0  0  0  0  0  0
   73.3310   44.0550   -5.2690 C   0  0  0  0  0  0  0  0  0  0  0  0
   73.7230   45.0900   -6.3090 C   0  0  0  0  0  0  0  0  0  0  0  0
   74.9670   44.7640   -7.1080 C   0  0  0  0  0  0  0  0  0  0  0  0
   74.9070   44.6990   -8.5080 C   0  0  0  0  0  0  0  0  0  0  0  0
   76.0410   44.3750   -9.2550 C   0  0  0  0  0  0  0  0  0  0  0  0
   77.2460   44.1030   -8.6120 C   0  0  0  0  0  0  0  0  0  0  0  0
   77.3170   44.1500   -7.2210 C   0  0  0  0  0  0  0  0  0  0  0  0
   76.1840   44.4740   -6.4730 C   0  0  0  0  0  0  0  0  0  0  0  0
   73.9233   45.5565   -2.2278 H   0  0  0  0  0  0  0  0  0  0  0  0
   74.9703   45.7585   -3.6733 H   0  0  0  0  0  0  0  0  0  0  0  0
   73.3014   46.4227   -3.6733 H   0  0  0  0  0  0  0  0  0  0  0  0
   73.1517   43.4619   -1.9014 H   0  0  0  0  0  0  0  0  0  0  0  0
   68.3848   40.7125   -1.5242 H   0  0  0  0  0  0  0  0  0  0  0  0
   67.4279   39.0652    0.0910 H   0  0  0  0  0  0  0  0  0  0  0  0
   68.9248   37.4322    1.2432 H   0  0  0  0  0  0  0  0  0  0  0  0
   71.0960   36.7380    1.6310 H   0  0  0  0  0  0  0  0  0  0  0  0
   74.8620   40.8920   -2.6720 H   0  0  0  0  0  0  0  0  0  0  0  0
   72.1337   40.8402   -5.1729 H   0  0  0  0  0  0  0  0  0  0  0  0
   72.7820   42.6074   -6.7881 H   0  0  0  0  0  0  0  0  0  0  0  0
   72.8851   45.1984   -7.0134 H   0  0  0  0  0  0  0  0  0  0  0  0
   73.9515   46.0104   -5.7517 H   0  0  0  0  0  0  0  0  0  0  0  0
   73.9568   44.9054   -9.0224 H   0  0  0  0  0  0  0  0  0  0  0  0
   75.9827   44.3345  -10.3527 H   0  0  0  0  0  0  0  0  0  0  0  0
   78.1403   43.8515   -9.2011 H   0  0  0  0  0  0  0  0  0  0  0  0
   78.2673   43.9315   -6.7118 H   0  0  0  0  0  0  0  0  0  0  0  0
   76.2458   44.5022   -5.3751 H   0  0  0  0  0  0  0  0  0  0  0  0
  1  2  1  0
  2  3  2  0
  3  4  1  0
  4  5  1  0
  5  6  1  0
  6  7  1  0
  7  8  2  0
  8  9  1  0
  9 10  2  0
 10 11  1  0
 11 12  1  0
 11 13  2  0
 13 14  1  0
 14 15  2  0
 14 16  1  0
 16 17  1  0
  4 18  2  0
 18 19  1  0
 19 20  2  0
 20 21  1  0
 21 22  1  0
 22 23  2  0
 23 24  1  0
 24 25  2  0
 25 26  1  0
 26 27  2  0
 20  2  1  0
 27 22  1  0
 16  5  2  0
 13  7  1  0
  1 28  1  0
  1 29  1  0
  1 30  1  0
  3 31  1  0
  8 32  1  0
  9 33  1  0
 10 34  1  0
 12 35  1  0
 17 36  1  0
 18 37  1  0
 19 38  1  0
 21 39  1  0
 21 40  1  0
 23 41  1  0
 24 42  1  0
 25 43  1  0
 26 44  1  0
 27 45  1  0
M  END
>  <meeko>  (8) 
{"is_sidechain": [false], "free_energy": -8.119, "intermolecular_energy": -9.604, "internal_energy": -1.021}

$$$$
cand_002_out
     RDKit          3D

 45 48  0  0  0  0  0  0  0  0999 V2000
   70.9450   45.1700   -4.7200 C   0  0  0  0  0  0  0  0  0  0  0  0
   72.0670   44.4700   -4.0040 C   0  0  0  0  0  0  0  0  0  0  0  0
   71.7890   43.2610   -3.3390 C   0  0  0  0  0  0  0  0  0  0  0  0
   72.7800   42.5580   -2.6360 C   0  0  0  0  0  0  0  0  0  0  0  0
   72.4350   41.3030   -1.9340 C   0  0  0  0  0  0  0  0  0  0  0  0
   71.0890   41.2260   -1.5960 O   0  0  0  0  0  0  0  0  0  0  0  0
   70.6320   40.1120   -0.9400 C   0  0  0  0  0  0  0  0  0  0  0  0
   69.2770   40.0830   -0.6090 C   0  0  0  0  0  0  0  0  0  0  0  0
   68.7460   38.9770    0.0600 C   0  0  0  0  0  0  0  0  0  0  0  0
   69.5710   37.9010    0.3950 C   0  0  0  0  0  0  0  0  0  0  0  0
   70.9220   37.9330    0.0630 C   0  0  0  0  0  0  0  0  0  0  0  0
   71.6720   36.8450    0.4220 O   0  0  0  0  0  0  0  0  0  0  0  0
   71.4530   39.0400   -0.6040 C   0  0  0  0  0  0  0  0  0  0  0  0
   72.8670   39.1130   -0.9710 C   0  0  0  0  0  0  0  0  0  0  0  0
   73.6540   38.2040   -0.7160 O   0  0  0  0  0  0  0  0  0  0  0  0
   73.3310   40.3340   -1.6700 C   0  0  0  0  0  0  0  0  0  0  0  0
   74.6670   40.3870   -2.0240 O   0  0  0  0  0  0  0  0  0  0  0  0
   74.0670   43.0980   -2.5880 C   0  0  0  0  0  0  0  0  0  0  0  0
   74.3590   44.3030   -3.2320 C   0  0  0  0  0  0  0  0  0  0  0  0
   73.3700   45.0050   -3.9430 C   0  0  0  0  0  0  0  0  0  0  0  0
   73.7510   46.3150   -4.6110 C   0  0  0  0  0  0  0  0  0  0  0  0
   74.2610   47.3920   -3.6770 C   0  0  0  0  0  0  0  0  0  0  0  0
   75.6230   47.7250   -3.6670 C   0  0  0  0  0  0  0  0  0  0  0  0
   76.1110   48.6980   -2.7930 C   0  0  0  0  0  0  0  0  0  0  0  0
   75.2450   49.3450   -1.9140 C   0  0  0  0  0  0  0  0  0  0  0  0
   73.8920   49.0140   -1.9040 C   0  0  0  0  0  0  0  0  0  0  0  0
   73.4020   48.0410   -2.7780 C   0  0  0  0  0  0  0  0  0  0  0  0
   70.2525   45.6020   -3.9826 H   0  0  0  0  0  0  0  0  0  0  0  0
   71.3563   45.9720   -5.3506 H   0  0  0  0  0  0  0  0  0  0  0  0
   70.4055   44.4480   -5.3506 H   0  0  0  0  0  0  0  0  0  0  0  0
   70.7668   42.8558   -3.3711 H   0  0  0  0  0  0  0  0  0  0  0  0
   68.6272   40.9300   -0.8744 H   0  0  0  0  0  0  0  0  0  0  0  0
   67.6781   38.9538    0.3228 H   0  0  0  0  0  0  0  0  0  0  0  0
   69.1534   37.0295    0.9205 H   0  0  0  0  0  0  0  0  0  0  0  0
   72.2450   36.8950    1.1610 H   0  0  0  0  0  0  0  0  0  0  0  0
   75.1510   41.1810   -1.9080 H   0  0  0  0  0  0  0  0  0  0  0  0
   74.8590   42.5692   -2.0375 H   0  0  0  0  0  0  0  0  0  0  0  0
   75.3800   44.7093   -3.1819 H   0  0  0  0  0  0  0  0  0  0  0  0
   74.5389   46.1038   -5.3490 H   0  0  0  0  0  0  0  0  0  0  0  0
   72.8259   46.7105   -5.0558 H   0  0  0  0  0  0  0  0  0  0  0  0
   76.3136   47.2146   -4.3545 H   0  0  0  0  0  0  0  0  0  0  0  0
   77.1807   48.9542   -2.7983 H   0  0  0  0  0  0  0  0  0  0  0  0
   75.6290   50.1156   -1.2293 H   0  0  0  0  0  0  0  0  0  0  0  0
   73.2082   49.5199   -1.2065 H   0  0  0  0  0  0  0  0  0  0  0  0
   72.3332   47.7814   -2.7612 H   0  0  0  0  0  0  0  0  0  0  0  0
  1  2  1  0
  2  3  2  0
  3  4  1  0
  4  5  1  0
  5  6  1  0
  6  7  1  0
  7  8  2  0
  8  9  1  0
  9 10  2  0
 10 11  1  0
 11 12  1  0
 11 13  2  0
 13 14  1  0
 14 15  2  0
 14 16  1  0
 16 17  1  0
  4 18  2  0
 18 19  1  0
 19 20  2  0
 20 21  1  0
 21 22  1  0
 22 23  2  0
 23 24  1  0
 24 25  2  0
 25 26  1  0
 26 27  2  0
 20  2  1  0
 27 22  1  0
 16  5  2  0
 13  7  1  0
  1 28  1  0
  1 29  1  0
  1 30  1  0
  3 31  1  0
  8 32  1  0
  9 33  1  0
 10 34  1  0
 12 35  1  0
 17 36  1  0
 18 37  1  0
 19 38  1  0
 21 39  1  0
 21 40  1  0
 23 41  1  0
 24 42  1  0
 25 43  1  0
 26 44  1  0
 27 45  1  0
M  END
>  <meeko>  (9) 
{"is_sidechain": [false], "free_energy": -8.025, "intermolecular_energy": -10.021, "internal_energy": -0.487}

$$$$
