cand_025_out
     RDKit          3D

 53 56  0  0  0  0  0  0  0  0999 V2000
   76.3690   42.8120   -1.7790 C   0  0  0  0  0  0  0  0  0  0  0  0
   75.8080   43.4770   -3.0270 C   0  0  0  0  0  0  0  0  0  0  0  0
   74.6130   42.7300   -3.5770 C   0  0  0  0  0  0  0  0  0  0  0  0
   73.8430   41.9440   -2.6970 C   0  0  0  0  0  0  0  0  0  0  0  0
   72.7300   41.2200   -3.1420 C   0  0  0  0  0  0  0  0  0  0  0  0
   71.9340   40.3740   -2.2280 C   0  0  0  0  0  0  0  0  0  0  0  0
   70.5850   40.7090   -2.2190 O   0  0  0  0  0  0  0  0  0  0  0  0
   69.7300   40.0010   -1.4140 C   0  0  0  0  0  0  0  0  0  0  0  0
   68.3830   40.3610   -1.4470 C   0  0  0  0  0  0  0  0  0  0  0  0
   67.4590   39.6800   -0.6500 C   0  0  0  0  0  0  0  0  0  0  0  0
   67.8840   38.6410    0.1800 C   0  0  0  0  0  0  0  0  0  0  0  0
   69.2290   38.2840    0.2110 C   0  0  0  0  0  0  0  0  0  0  0  0
   69.5760   37.2570    1.0470 O   0  0  0  0  0  0  0  0  0  0  0  0
   70.1520   38.9640   -0.5860 C   0  0  0  0  0  0  0  0  0  0  0  0
   71.5750   38.6200   -0.5840 C   0  0  0  0  0  0  0  0  0  0  0  0
   72.0250   37.7220    0.1250 O   0  0  0  0  0  0  0  0  0  0  0  0
   72.4700   39.3970   -1.4720 C   0  0  0  0  0  0  0  0  0  0  0  0
   73.8130   39.0720   -1.4510 O   0  0  0  0  0  0  0  0  0  0  0  0
   72.4030   41.2790   -4.5000 C   0  0  0  0  0  0  0  0  0  0  0  0
   73.1630   42.0490   -5.3860 C   0  0  0  0  0  0  0  0  0  0  0  0
   74.2780   42.7780   -4.9460 C   0  0  0  0  0  0  0  0  0  0  0  0
   75.0530   43.5630   -5.8200 N   0  0  0  0  0  0  0  0  0  0  0  0
   75.8970   42.7830   -6.7510 C   0  0  0  0  0  0  0  0  0  0  0  0
   76.8010   43.7410   -7.5630 C   0  0  0  0  0  0  0  0  0  0  0  0
   76.0210   44.7550   -8.3130 N   0  0  0  0  0  0  0  0  0  0  0  0
   76.9130   45.6700   -9.0210 C   0  0  0  0  0  0  0  0  0  0  0  0
   75.1550   45.4980   -7.3660 C   0  0  0  0  0  0  0  0  0  0  0  0
   74.2370   44.5670   -6.5390 C   0  0  0  0  0  0  0  0  0  0  0  0
   75.9556   43.3020   -0.8851 H   0  0  0  0  0  0  0  0  0  0  0  0
   76.0920   41.7475   -1.7748 H   0  0  0  0  0  0  0  0  0  0  0  0
   77.4650   42.9057   -1.7748 H   0  0  0  0  0  0  0  0  0  0  0  0
   75.5009   44.5029   -2.7755 H   0  0  0  0  0  0  0  0  0  0  0  0
   76.5942   43.4751   -3.7964 H   0  0  0  0  0  0  0  0  0  0  0  0
   74.1230   41.8979   -1.6342 H   0  0  0  0  0  0  0  0  0  0  0  0
   68.0482   41.1805   -2.1000 H   0  0  0  0  0  0  0  0  0  0  0  0
   66.3963   39.9627   -0.6766 H   0  0  0  0  0  0  0  0  0  0  0  0
   67.1572   38.1054    0.8084 H   0  0  0  0  0  0  0  0  0  0  0  0
   70.4720   37.1410    1.2990 H   0  0  0  0  0  0  0  0  0  0  0  0
   74.2580   38.9680   -0.6340 H   0  0  0  0  0  0  0  0  0  0  0  0
   71.5378   40.7132   -4.8759 H   0  0  0  0  0  0  0  0  0  0  0  0
   72.8811   42.0838   -6.4487 H   0  0  0  0  0  0  0  0  0  0  0  0
   76.5253   42.0854   -6.1778 H   0  0  0  0  0  0  0  0  0  0  0  0
   75.2525   42.2183   -7.4407 H   0  0  0  0  0  0  0  0  0  0  0  0
   77.4793   44.2593   -6.8693 H   0  0  0  0  0  0  0  0  0  0  0  0
   77.3572   43.1371   -8.2951 H   0  0  0  0  0  0  0  0  0  0  0  0
   75.4380   44.2860   -9.0070 H   0  0  0  0  0  0  0  0  0  0  0  0
   77.4877   46.2596   -8.2915 H   0  0  0  0  0  0  0  0  0  0  0  0
   77.6046   45.0928   -9.6523 H   0  0  0  0  0  0  0  0  0  0  0  0
   76.3183   46.3467   -9.6523 H   0  0  0  0  0  0  0  0  0  0  0  0
   75.7954   46.0652   -6.6746 H   0  0  0  0  0  0  0  0  0  0  0  0
   74.5078   46.1614   -7.9585 H   0  0  0  0  0  0  0  0  0  0  0  0
   73.6710   45.1662   -5.8106 H   0  0  0  0  0  0  0  0  0  0  0  0
   73.5412   44.0500   -7.2163 H   0  0  0  0  0  0  0  0  0  0  0  0
  1  2  1  0
  2  3  1  0
  3  4  2  0
  4  5  1  0
  5  6  1  0
  6  7  1  0
  7  8  1  0
  8  9  2  0
  9 10  1  0
 10 11  2  0
 11 12  1  0
 12 13  1  0
 12 14  2  0
 14 15  1  0
 15 16  2  0
 15 17  1  0
 17 18  1  0
  5 19  2  0
 19 20  1  0
 20 21  2  0
 21 22  1  0
 22 23  1  0
 23 24  1  0
 24 25  1  0
 25 26  1  0
 25 27  1  0
 27 28  1  0
 21  3  1  0
 28 22  1  0
 17  6  2  0
 14  8  1  0
  1 29  1  0
  1 30  1  0
  1 31  1  0
  2 32  1  0
  2 33  1  0
  4 34  1  0
  9 35  1  0
 10 36  1  0
 11 37  1  0
 13 38  1  0
 18 39  1  0
 19 40  1  0
 20 41  1  0
 23 42  1  0
 23 43  1  0
 24 44  1  0
 24 45  1  0
 25 46  1  0
 26 47  1  0
 26 48  1  0
 26 49  1  0
 27 50  1  0
 27 51  1  0
 28 52  1  0
 28 53  1  0
M  CHG  1  25   1
M  END
>  <meeko>  (1) 
{"is_sidechain": [false], "free_energy": -8.078, "intermolecular_energy": -9.967, "internal_energy": -0.518}

$$$$
cand_025_out
     RDKit          3D

 53 56  0  0  0  0  0  0  0  0999 V2000
   76.3110   42.8910   -1.9380 C   0  0  0  0  0  0  0  0  0  0  0  0
   75.5690   43.6670   -3.0160 C   0  0  0  0  0  0  0  0  0  0  0  0
   74.3900   42.8930   -3.5620 C   0  0  0  0  0  0  0  0  0  0  0  0
   73.6270   42.1090   -2.6730 C   0  0  0  0  0  0  0  0  0  0  0  0
   72.5280   41.3610   -3.1130 C   0  0  0  0  0  0  0  0  0  0  0  0
   71.7390   40.5180   -2.1910 C   0  0  0  0  0  0  0  0  0  0  0  0
   72.4850   39.4910   -1.6240 O   0  0  0  0  0  0  0  0  0  0  0  0
   71.8750   38.6320   -0.7470 C   0  0  0  0  0  0  0  0  0  0  0  0
   72.6650   37.6270   -0.1900 C   0  0  0  0  0  0  0  0  0  0  0  0
   72.1050   36.7170    0.7100 C   0  0  0  0  0  0  0  0  0  0  0  0
   70.7550   36.8140    1.0520 C   0  0  0  0  0  0  0  0  0  0  0  0
   69.9680   37.8180    0.4950 C   0  0  0  0  0  0  0  0  0  0  0  0
   68.6540   37.8550    0.8730 O   0  0  0  0  0  0  0  0  0  0  0  0
   70.5290   38.7280   -0.4050 C   0  0  0  0  0  0  0  0  0  0  0  0
   69.7380   39.8000   -1.0130 C   0  0  0  0  0  0  0  0  0  0  0  0
   68.5420   39.9440   -0.7660 O   0  0  0  0  0  0  0  0  0  0  0  0
   70.4290   40.7160   -1.9480 C   0  0  0  0  0  0  0  0  0  0  0  0
   69.6690   41.7150   -2.5260 O   0  0  0  0  0  0  0  0  0  0  0  0
   72.2090   41.3920   -4.4750 C   0  0  0  0  0  0  0  0  0  0  0  0
   72.9630   42.1600   -5.3680 C   0  0  0  0  0  0  0  0  0  0  0  0
   74.0630   42.9130   -4.9330 C   0  0  0  0  0  0  0  0  0  0  0  0
   74.8320   43.6960   -5.8150 N   0  0  0  0  0  0  0  0  0  0  0  0
   75.5150   42.9220   -6.8750 C   0  0  0  0  0  0  0  0  0  0  0  0
   76.4330   43.8600   -7.6950 C   0  0  0  0  0  0  0  0  0  0  0  0
   75.6920   44.9970   -8.2920 N   0  0  0  0  0  0  0  0  0  0  0  0
   76.6030   45.8850   -9.0100 C   0  0  0  0  0  0  0  0  0  0  0  0
   74.9860   45.7340   -7.2170 C   0  0  0  0  0  0  0  0  0  0  0  0
   74.0570   44.8240   -6.3790 C   0  0  0  0  0  0  0  0  0  0  0  0
   75.9820   43.2351   -0.9464 H   0  0  0  0  0  0  0  0  0  0  0  0
   76.0946   41.8177   -2.0441 H   0  0  0  0  0  0  0  0  0  0  0  0
   77.3929   43.0591   -2.0441 H   0  0  0  0  0  0  0  0  0  0  0  0
   75.2051   44.6120   -2.5864 H   0  0  0  0  0  0  0  0  0  0  0  0
   76.2685   43.8498   -3.8451 H   0  0  0  0  0  0  0  0  0  0  0  0
   73.9015   42.0842   -1.6081 H   0  0  0  0  0  0  0  0  0  0  0  0
   73.7288   37.5507   -0.4592 H   0  0  0  0  0  0  0  0  0  0  0  0
   72.7279   35.9239    1.1493 H   0  0  0  0  0  0  0  0  0  0  0  0
   70.3137   36.0979    1.7608 H   0  0  0  0  0  0  0  0  0  0  0  0
   68.2880   37.1470    1.3670 H   0  0  0  0  0  0  0  0  0  0  0  0
   68.8500   41.5070   -2.9310 H   0  0  0  0  0  0  0  0  0  0  0  0
   71.3559   40.8059   -4.8474 H   0  0  0  0  0  0  0  0  0  0  0  0
   72.6876   42.1737   -6.4329 H   0  0  0  0  0  0  0  0  0  0  0  0
   76.1210   42.1275   -6.4151 H   0  0  0  0  0  0  0  0  0  0  0  0
   74.7632   42.4737   -7.5412 H   0  0  0  0  0  0  0  0  0  0  0  0
   77.2149   44.2576   -7.0313 H   0  0  0  0  0  0  0  0  0  0  0  0
   76.8637   43.2714   -8.5184 H   0  0  0  0  0  0  0  0  0  0  0  0
   75.0100   44.6410   -8.9620 H   0  0  0  0  0  0  0  0  0  0  0  0
   77.1967   46.4637   -8.2870 H   0  0  0  0  0  0  0  0  0  0  0  0
   77.2761   45.2868   -9.6418 H   0  0  0  0  0  0  0  0  0  0  0  0
   76.0222   46.5731   -9.6418 H   0  0  0  0  0  0  0  0  0  0  0  0
   75.7349   46.1834   -6.5482 H   0  0  0  0  0  0  0  0  0  0  0  0
   74.3572   46.4987   -7.6965 H   0  0  0  0  0  0  0  0  0  0  0  0
   73.6157   45.4095   -5.5590 H   0  0  0  0  0  0  0  0  0  0  0  0
   73.2590   44.4283   -7.0245 H   0  0  0  0  0  0  0  0  0  0  0  0
  1  2  1  0
  2  3  1  0
  3  4  2  0
  4  5  1  0
  5  6  1  0
  6  7  1  0
  7  8  1  0
  8  9  2  0
  9 10  1  0
 10 11  2  0
 11 12  1  0
 12 13  1  0
 12 14  2  0
 14 15  1  0
 15 16  2  0
 15 17  1  0
 17 18  1  0
  5 19  2  0
 19 20  1  0
 20 21  2  0
 21 22  1  0
 22 23  1  0
 23 24  1  0
 24 25  1  0
 25 26  1  0
 25 27  1  0
 27 28  1  0
 21  3  1  0
 28 22  1  0
 17  6  2  0
 14  8  1  0
  1 29  1  0
  1 30  1  0
  1 31  1  0
  2 32  1  0
  2 33  1  0
  4 34  1  0
  9 35  1  0
 10 36  1  0
 11 37  1  0
 13 38  1  0
 18 39  1  0
 19 40  1  0
 20 41  1  0
 23 42  1  0
 23 43  1  0
 24 44  1  0
 24 45  1  0
 25 46  1  0
 26 47  1  0
 26 48  1  0
 26 49  1  0
 27 50  1  0
 27 51  1  0
 28 52  1  0
 28 53  1  0
M  CHG  1  25   1
M  END
>  <meeko>  (2) 
{"is_sidechain": [false], "free_energy": -8.04, "intermolecular_energy": -9.849, "internal_energy": -0.59}

$$$$
cand_025_out
     RDKit          3D

 53 56  0  0  0  0  0  0  0  0999 V2000
   66.5600   44.6360   -2.1290 C   0  0  0  0  0  0  0  0  0  0  0  0
   67.7640   45.1220   -2.9210 C   0  0  0  0  0  0  0  0  0  0  0  0
   68.6860   43.9860   -3.3050 C   0  0  0  0  0  0  0  0  0  0  0  0
   68.7890   42.8780   -2.4390 C   0  0  0  0  0  0  0  0  0  0  0  0
   69.6290   41.7960   -2.7300 C   0  0  0  0  0  0  0  0  0  0  0  0
   69.7610   40.6430   -1.8140 C   0  0  0  0  0  0  0  0  0  0  0  0
   71.0530   40.1320   -1.7710 O   0  0  0  0  0  0  0  0  0  0  0  0
   71.3160   39.0590   -0.9580 C   0  0  0  0  0  0  0  0  0  0  0  0
   72.6290   38.5890   -0.9330 C   0  0  0  0  0  0  0  0  0  0  0  0
   72.9640   37.4980   -0.1280 C   0  0  0  0  0  0  0  0  0  0  0  0
   71.9850   36.8770    0.6500 C   0  0  0  0  0  0  0  0  0  0  0  0
   70.6750   37.3480    0.6240 C   0  0  0  0  0  0  0  0  0  0  0  0
   69.7670   36.6940    1.4110 O   0  0  0  0  0  0  0  0  0  0  0  0
   70.3410   38.4400   -0.1810 C   0  0  0  0  0  0  0  0  0  0  0  0
   68.9760   38.9670   -0.2380 C   0  0  0  0  0  0  0  0  0  0  0  0
   68.0600   38.4700    0.4130 O   0  0  0  0  0  0  0  0  0  0  0  0
   68.7280   40.1330   -1.1170 C   0  0  0  0  0  0  0  0  0  0  0  0
   67.4340   40.6130   -1.1730 O   0  0  0  0  0  0  0  0  0  0  0  0
   70.3900   41.8450   -3.9020 C   0  0  0  0  0  0  0  0  0  0  0  0
   70.3030   42.9420   -4.7660 C   0  0  0  0  0  0  0  0  0  0  0  0
   69.4610   44.0270   -4.4820 C   0  0  0  0  0  0  0  0  0  0  0  0
   69.3550   45.1380   -5.3400 N   0  0  0  0  0  0  0  0  0  0  0  0
   70.6510   45.7610   -5.6900 C   0  0  0  0  0  0  0  0  0  0  0  0
   70.4050   47.0440   -6.5190 C   0  0  0  0  0  0  0  0  0  0  0  0
   69.6180   46.7830   -7.7470 N   0  0  0  0  0  0  0  0  0  0  0  0
   69.3630   48.0270   -8.4690 C   0  0  0  0  0  0  0  0  0  0  0  0
   68.3420   46.1260   -7.3750 C   0  0  0  0  0  0  0  0  0  0  0  0
   68.5530   44.8360   -6.5470 C   0  0  0  0  0  0  0  0  0  0  0  0
   66.7705   44.7210   -1.0527 H   0  0  0  0  0  0  0  0  0  0  0  0
   65.6831   45.2506   -2.3807 H   0  0  0  0  0  0  0  0  0  0  0  0
   66.3555   43.5849   -2.3807 H   0  0  0  0  0  0  0  0  0  0  0  0
   67.4100   45.6172   -3.8372 H   0  0  0  0  0  0  0  0  0  0  0  0
   68.3300   45.8188   -2.2853 H   0  0  0  0  0  0  0  0  0  0  0  0
   68.1955   42.8632   -1.5130 H   0  0  0  0  0  0  0  0  0  0  0  0
   73.4001   39.0773   -1.5469 H   0  0  0  0  0  0  0  0  0  0  0  0
   73.9996   37.1278   -0.1069 H   0  0  0  0  0  0  0  0  0  0  0  0
   72.2483   36.0166    1.2828 H   0  0  0  0  0  0  0  0  0  0  0  0
   69.6280   36.9710    2.2950 H   0  0  0  0  0  0  0  0  0  0  0  0
   66.9210   40.6720   -0.3910 H   0  0  0  0  0  0  0  0  0  0  0  0
   71.0647   41.0116   -4.1475 H   0  0  0  0  0  0  0  0  0  0  0  0
   70.9065   42.9537   -5.6856 H   0  0  0  0  0  0  0  0  0  0  0  0
   71.1934   46.0193   -4.7685 H   0  0  0  0  0  0  0  0  0  0  0  0
   71.2478   45.0525   -6.2832 H   0  0  0  0  0  0  0  0  0  0  0  0
   69.8579   47.7671   -5.8962 H   0  0  0  0  0  0  0  0  0  0  0  0
   71.3854   47.4364   -6.8270 H   0  0  0  0  0  0  0  0  0  0  0  0
   70.1480   46.1660   -8.3630 H   0  0  0  0  0  0  0  0  0  0  0  0
   69.1961   48.8414   -7.7487 H   0  0  0  0  0  0  0  0  0  0  0  0
   70.2303   48.2685   -9.1010 H   0  0  0  0  0  0  0  0  0  0  0  0
   68.4706   47.9078   -9.1010 H   0  0  0  0  0  0  0  0  0  0  0  0
   67.7432   46.8317   -6.7804 H   0  0  0  0  0  0  0  0  0  0  0  0
   67.8306   45.8425   -8.3067 H   0  0  0  0  0  0  0  0  0  0  0  0
   67.5754   44.4330   -6.2440 H   0  0  0  0  0  0  0  0  0  0  0  0
   69.0865   44.0950   -7.1604 H   0  0  0  0  0  0  0  0  0  0  0  0
  1  2  1  0
  2  3  1  0
  3  4  2  0
  4  5  1  0
  5  6  1  0
  6  7  1  0
  7  8  1  0
  8  9  2  0
  9 10  1  0
 10 11  2  0
 11 12  1  0
 12 13  1  0
 12 14  2  0
 14 15  1  0
 15 16  2  0
 15 17  1  0
 17 18  1  0
  5 19  2  0
 19 20  1  0
 20 21  2  0
 21 22  1  0
 22 23  1  0
 23 24  1  0
 24 25  1  0
 25 26  1  0
 25 27  1  0
 27 28  1  0
 21  3  1  0
 28 22  1  0
 17  6  2  0
 14  8  1  0
  1 29  1  0
  1 30  1  0
  1 31  1  0
  2 32  1  0
  2 33  1  0
  4 34  1  0
  9 35  1  0
 10 36  1  0
 11 37  1  0
 13 38  1  0
 18 39  1  0
 19 40  1  0
 20 41  1  0
 23 42  1  0
 23 43  1  0
 24 44  1  0
 24 45  1  0
 25 46  1  0
 26 47  1  0
 26 48  1  0
 26 49  1  0
 27 50  1  0
 27 51  1  0
 28 52  1  0
 28 53  1  0
M  CHG  1  25   1
M  END
>  <meeko>  (3) 
{"is_sidechain": [false], "free_energy": -7.905, "intermolecular_energy": -9.947, "internal_energy": -0.325}

$$$$
cand_025_out
     RDKit          3D

 53 56  0  0  0  0  0  0  0  0999 V2000
   75.2810   42.6090   -6.9740 C   0  0  0  0  0  0  0  0  0  0  0  0
   73.7700   42.7580   -6.8820 C   0  0  0  0  0  0  0  0  0  0  0  0
   73.3160   43.0700   -5.4740 C   0  0  0  0  0  0  0  0  0  0  0  0
   73.0490   41.9990   -4.5970 C   0  0  0  0  0  0  0  0  0  0  0  0
   72.6180   42.2160   -3.2830 C   0  0  0  0  0  0  0  0  0  0  0  0
   72.3110   41.0970   -2.3670 C   0  0  0  0  0  0  0  0  0  0  0  0
   70.9630   41.0240   -2.0350 O   0  0  0  0  0  0  0  0  0  0  0  0
   70.5400   40.0300   -1.1910 C   0  0  0  0  0  0  0  0  0  0  0  0
   69.1780   39.9840   -0.8980 C   0  0  0  0  0  0  0  0  0  0  0  0
   68.6810   38.9970   -0.0430 C   0  0  0  0  0  0  0  0  0  0  0  0
   69.5480   38.0560    0.5170 C   0  0  0  0  0  0  0  0  0  0  0  0
   70.9080   38.1030    0.2210 C   0  0  0  0  0  0  0  0  0  0  0  0
   71.7000   37.1520    0.8040 O   0  0  0  0  0  0  0  0  0  0  0  0
   71.4040   39.0900   -0.6330 C   0  0  0  0  0  0  0  0  0  0  0  0
   72.8260   39.1760   -0.9700 C   0  0  0  0  0  0  0  0  0  0  0  0
   73.6500   38.3880   -0.5110 O   0  0  0  0  0  0  0  0  0  0  0  0
   73.2480   40.2550   -1.8920 C   0  0  0  0  0  0  0  0  0  0  0  0
   74.5950   40.3340   -2.1920 O   0  0  0  0  0  0  0  0  0  0  0  0
   72.4360   43.5360   -2.8560 C   0  0  0  0  0  0  0  0  0  0  0  0
   72.6910   44.6080   -3.7170 C   0  0  0  0  0  0  0  0  0  0  0  0
   73.1260   44.3960   -5.0340 C   0  0  0  0  0  0  0  0  0  0  0  0
   73.3920   45.4610   -5.9160 N   0  0  0  0  0  0  0  0  0  0  0  0
   72.2640   46.4010   -6.0920 C   0  0  0  0  0  0  0  0  0  0  0  0
   72.6190   47.4440   -7.1780 C   0  0  0  0  0  0  0  0  0  0  0  0
   73.8590   48.1920   -6.8610 N   0  0  0  0  0  0  0  0  0  0  0  0
   74.1860   49.1260   -7.9350 C   0  0  0  0  0  0  0  0  0  0  0  0
   74.9660   47.2280   -6.6520 C   0  0  0  0  0  0  0  0  0  0  0  0
   74.6430   46.1720   -5.5690 C   0  0  0  0  0  0  0  0  0  0  0  0
   75.7076   42.5669   -5.9610 H   0  0  0  0  0  0  0  0  0  0  0  0
   75.5259   41.6824   -7.5138 H   0  0  0  0  0  0  0  0  0  0  0  0
   75.7022   43.4700   -7.5138 H   0  0  0  0  0  0  0  0  0  0  0  0
   73.4526   43.5750   -7.5467 H   0  0  0  0  0  0  0  0  0  0  0  0
   73.3156   41.8020   -7.1814 H   0  0  0  0  0  0  0  0  0  0  0  0
   73.1827   40.9672   -4.9541 H   0  0  0  0  0  0  0  0  0  0  0  0
   68.4948   40.7244   -1.3397 H   0  0  0  0  0  0  0  0  0  0  0  0
   67.6064   38.9610    0.1892 H   0  0  0  0  0  0  0  0  0  0  0  0
   69.1573   37.2791    1.1907 H   0  0  0  0  0  0  0  0  0  0  0  0
   72.4700   36.8490    0.3630 H   0  0  0  0  0  0  0  0  0  0  0  0
   75.0020   41.1700   -2.3060 H   0  0  0  0  0  0  0  0  0  0  0  0
   72.0883   43.7328   -1.8311 H   0  0  0  0  0  0  0  0  0  0  0  0
   72.5479   45.6368   -3.3550 H   0  0  0  0  0  0  0  0  0  0  0  0
   71.3676   45.8429   -6.4002 H   0  0  0  0  0  0  0  0  0  0  0  0
   72.0686   46.9177   -5.1408 H   0  0  0  0  0  0  0  0  0  0  0  0
   72.7566   46.9225   -8.1367 H   0  0  0  0  0  0  0  0  0  0  0  0
   71.7938   48.1696   -7.2279 H   0  0  0  0  0  0  0  0  0  0  0  0
   73.7170   48.7340   -6.0080 H   0  0  0  0  0  0  0  0  0  0  0  0
   74.5201   50.0804   -7.5019 H   0  0  0  0  0  0  0  0  0  0  0  0
   74.9898   48.7038   -8.5560 H   0  0  0  0  0  0  0  0  0  0  0  0
   73.2944   49.2974   -8.5560 H   0  0  0  0  0  0  0  0  0  0  0  0
   75.1642   46.7089   -7.6013 H   0  0  0  0  0  0  0  0  0  0  0  0
   75.8419   47.7980   -6.3087 H   0  0  0  0  0  0  0  0  0  0  0  0
   75.4690   45.4481   -5.5076 H   0  0  0  0  0  0  0  0  0  0  0  0
   74.5166   46.6750   -4.5990 H   0  0  0  0  0  0  0  0  0  0  0  0
  1  2  1  0
  2  3  1  0
  3  4  2  0
  4  5  1  0
  5  6  1  0
  6  7  1  0
  7  8  1  0
  8  9  2  0
  9 10  1  0
 10 11  2  0
 11 12  1  0
 12 13  1  0
 12 14  2  0
 14 15  1  0
 15 16  2  0
 15 17  1  0
 17 18  1  0
  5 19  2  0
 19 20  1  0
 20 21  2  0
 21 22  1  0
 22 23  1  0
 23 24  1  0
 24 25  1  0
 25 26  1  0
 25 27  1  0
 27 28  1  0
 21  3  1  0
 28 22  1  0
 17  6  2  0
 14  8  1  0
  1 29  1  0
  1 30  1  0
  1 31  1  0
  2 32  1  0
  2 33  1  0
  4 34  1  0
  9 35  1  0
 10 36  1  0
 11 37  1  0
 13 38  1  0
 18 39  1  0
 19 40  1  0
 20 41  1  0
 23 42  1  0
 23 43  1  0
 24 44  1  0
 24 45  1  0
 25 46  1  0
 26 47  1  0
 26 48  1  0
 26 49  1  0
 27 50  1  0
 27 51  1  0
 28 52  1  0
 28 53  1  0
M  CHG  1  25   1
M  END
>  <meeko>  (4) 
{"is_sidechain": [false], "free_energy": -7.789, "intermolecular_energy": -9.469, "internal_energy": -0.66}

$$$$
cand_025_out
     RDKit          3D

 53 56  0  0  0  0  0  0  0  0999 V2000
   76.1670   44.7250   -2.9110 C   0  0  0  0  0  0  0  0  0  0  0  0
   74.7840   45.2460   -3.2710 C   0  0  0  0  0  0  0  0  0  0  0  0
   73.8810   44.1460   -3.7830 C   0  0  0  0  0  0  0  0  0  0  0  0
   73.4820   43.1300   -2.8920 C   0  0  0  0  0  0  0  0  0  0  0  0
   72.6530   42.0780   -3.3020 C   0  0  0  0  0  0  0  0  0  0  0  0
   72.2520   40.9960   -2.3790 C   0  0  0  0  0  0  0  0  0  0  0  0
   70.8900   40.9990   -2.1030 O   0  0  0  0  0  0  0  0  0  0  0  0
   70.3820   40.0450   -1.2590 C   0  0  0  0  0  0  0  0  0  0  0  0
   69.0080   40.0750   -1.0220 C   0  0  0  0  0  0  0  0  0  0  0  0
   68.4250   39.1320   -0.1710 C   0  0  0  0  0  0  0  0  0  0  0  0
   69.2190   38.1600    0.4430 C   0  0  0  0  0  0  0  0  0  0  0  0
   70.5900   38.1320    0.2040 C   0  0  0  0  0  0  0  0  0  0  0  0
   71.3070   37.1540    0.8370 O   0  0  0  0  0  0  0  0  0  0  0  0
   71.1710   39.0750   -0.6480 C   0  0  0  0  0  0  0  0  0  0  0  0
   72.6090   39.0800   -0.9260 C   0  0  0  0  0  0  0  0  0  0  0  0
   73.3720   38.2610   -0.4180 O   0  0  0  0  0  0  0  0  0  0  0  0
   73.1240   40.1170   -1.8490 C   0  0  0  0  0  0  0  0  0  0  0  0
   74.4840   40.1210   -2.0940 O   0  0  0  0  0  0  0  0  0  0  0  0
   72.2390   42.0450   -4.6380 C   0  0  0  0  0  0  0  0  0  0  0  0
   72.6330   43.0430   -5.5340 C   0  0  0  0  0  0  0  0  0  0  0  0
   73.4610   44.1010   -5.1280 C   0  0  0  0  0  0  0  0  0  0  0  0
   73.8650   45.1180   -6.0140 N   0  0  0  0  0  0  0  0  0  0  0  0
   74.4880   44.6250   -7.2620 C   0  0  0  0  0  0  0  0  0  0  0  0
   75.0140   45.8210   -8.0900 C   0  0  0  0  0  0  0  0  0  0  0  0
   73.9490   46.8020   -8.4060 N   0  0  0  0  0  0  0  0  0  0  0  0
   74.4980   47.9400   -9.1400 C   0  0  0  0  0  0  0  0  0  0  0  0
   73.3150   47.2540   -7.1440 C   0  0  0  0  0  0  0  0  0  0  0  0
   72.7760   46.0790   -6.2930 C   0  0  0  0  0  0  0  0  0  0  0  0
   76.2707   44.6859   -1.8166 H   0  0  0  0  0  0  0  0  0  0  0  0
   76.2986   43.7157   -3.3280 H   0  0  0  0  0  0  0  0  0  0  0  0
   76.9319   45.3966   -3.3280 H   0  0  0  0  0  0  0  0  0  0  0  0
   74.3279   45.6919   -2.3748 H   0  0  0  0  0  0  0  0  0  0  0  0
   74.8990   45.9919   -4.0713 H   0  0  0  0  0  0  0  0  0  0  0  0
   73.8300   43.1638   -1.8490 H   0  0  0  0  0  0  0  0  0  0  0  0
   68.3832   40.8408   -1.5048 H   0  0  0  0  0  0  0  0  0  0  0  0
   67.3412   39.1550    0.0154 H   0  0  0  0  0  0  0  0  0  0  0  0
   68.7615   37.4182    1.1141 H   0  0  0  0  0  0  0  0  0  0  0  0
   72.1350   36.8810    0.4910 H   0  0  0  0  0  0  0  0  0  0  0  0
   74.8020   40.1850   -2.9730 H   0  0  0  0  0  0  0  0  0  0  0  0
   71.5958   41.2239   -4.9875 H   0  0  0  0  0  0  0  0  0  0  0  0
   72.2874   42.9983   -6.5774 H   0  0  0  0  0  0  0  0  0  0  0  0
   75.3251   43.9561   -7.0133 H   0  0  0  0  0  0  0  0  0  0  0  0
   73.7386   44.0758   -7.8509 H   0  0  0  0  0  0  0  0  0  0  0  0
   75.8026   46.3288   -7.5153 H   0  0  0  0  0  0  0  0  0  0  0  0
   75.3991   45.4262   -9.0417 H   0  0  0  0  0  0  0  0  0  0  0  0
   73.2460   46.3580   -8.9970 H   0  0  0  0  0  0  0  0  0  0  0  0
   74.8621   48.6948   -8.4274 H   0  0  0  0  0  0  0  0  0  0  0  0
   75.3315   47.6007   -9.7726 H   0  0  0  0  0  0  0  0  0  0  0  0
   73.7137   48.3812   -9.7726 H   0  0  0  0  0  0  0  0  0  0  0  0
   74.0616   47.8038   -6.5522 H   0  0  0  0  0  0  0  0  0  0  0  0
   72.4590   47.8910   -7.4114 H   0  0  0  0  0  0  0  0  0  0  0  0
   72.3807   46.4680   -5.3431 H   0  0  0  0  0  0  0  0  0  0  0  0
   71.9754   45.5678   -6.8476 H   0  0  0  0  0  0  0  0  0  0  0  0
  1  2  1  0
  2  3  1  0
  3  4  2  0
  4  5  1  0
  5  6  1  0
  6  7  1  0
  7  8  1  0
  8  9  2  0
  9 10  1  0
 10 11  2  0
 11 12  1  0
 12 13  1  0
 12 14  2  0
 14 15  1  0
 15 16  2  0
 15 17  1  0
 17 18  1  0
  5 19  2  0
 19 20  1  0
 20 21  2  0
 21 22  1  0
 22 23  1  0
 23 24  1  0
 24 25  1  0
 25 26  1  0
 25 27  1  0
 27 28  1  0
 21  3  1  0
 28 22  1  0
 17  6  2  0
 14  8  1  0
  1 29  1  0
  1 30  1  0
  1 31  1  0
  2 32  1  0
  2 33  1  0
  4 34  1  0
  9 35  1  0
 10 36  1  0
 11 37  1  0
 13 38  1  0
 18 39  1  0
 19 40  1  0
 20 41  1  0
 23 42  1  0
 23 43  1  0
 24 44  1  0
 24 45  1  0
 25 46  1  0
 26 47  1  0
 26 48  1  0
 26 49  1  0
 27 50  1  0
 27 51  1  0
 28 52  1  0
 28 53  1  0
M  CHG  1  25   1
M  END
>  <meeko>  (5) 
{"is_sidechain": [false], "free_energy": -7.748, "intermolecular_energy": -9.456, "internal_energy": -0.623}

$$$$
cand_025_out
     RDKit          3D

 53 56  0  0  0  0  0  0  0  0999 V2000
   72.5200   42.6430   -5.4270 C   0  0  0  0  0  0  0  0  0  0  0  0
   71.2990   43.5320   -5.6030 C   0  0  0  0  0  0  0  0  0  0  0  0
   70.1210   43.0440   -4.7900 C   0  0  0  0  0  0  0  0  0  0  0  0
   70.3370   42.0450   -3.8190 C   0  0  0  0  0  0  0  0  0  0  0  0
   69.2900   41.5430   -3.0380 C   0  0  0  0  0  0  0  0  0  0  0  0
   69.5060   40.4780   -2.0360 C   0  0  0  0  0  0  0  0  0  0  0  0
   70.8100   39.9960   -2.0310 O   0  0  0  0  0  0  0  0  0  0  0  0
   71.1480   39.0040   -1.1470 C   0  0  0  0  0  0  0  0  0  0  0  0
   72.4710   38.5620   -1.1660 C   0  0  0  0  0  0  0  0  0  0  0  0
   72.8810   37.5520   -0.2920 C   0  0  0  0  0  0  0  0  0  0  0  0
   71.9680   36.9850    0.5990 C   0  0  0  0  0  0  0  0  0  0  0  0
   70.6490   37.4290    0.6170 C   0  0  0  0  0  0  0  0  0  0  0  0
   69.8070   36.8300    1.5150 O   0  0  0  0  0  0  0  0  0  0  0  0
   70.2390   38.4390   -0.2570 C   0  0  0  0  0  0  0  0  0  0  0  0
   68.8610   38.9340   -0.2720 C   0  0  0  0  0  0  0  0  0  0  0  0
   68.0000   38.4800    0.4780 O   0  0  0  0  0  0  0  0  0  0  0  0
   68.5310   40.0130   -1.2310 C   0  0  0  0  0  0  0  0  0  0  0  0
   67.2250   40.4640   -1.2450 O   0  0  0  0  0  0  0  0  0  0  0  0
   68.0020   42.0440   -3.2550 C   0  0  0  0  0  0  0  0  0  0  0  0
   67.7720   43.0290   -4.2200 C   0  0  0  0  0  0  0  0  0  0  0  0
   68.8180   43.5390   -5.0040 C   0  0  0  0  0  0  0  0  0  0  0  0
   68.6080   44.5340   -5.9780 N   0  0  0  0  0  0  0  0  0  0  0  0
   67.4990   44.2460   -6.9130 C   0  0  0  0  0  0  0  0  0  0  0  0
   67.4490   45.3310   -8.0140 C   0  0  0  0  0  0  0  0  0  0  0  0
   67.3030   46.6970   -7.4560 N   0  0  0  0  0  0  0  0  0  0  0  0
   67.3150   47.6930   -8.5250 C   0  0  0  0  0  0  0  0  0  0  0  0
   68.4040   46.9490   -6.4960 C   0  0  0  0  0  0  0  0  0  0  0  0
   68.4790   45.8810   -5.3790 C   0  0  0  0  0  0  0  0  0  0  0  0
   72.7174   42.4993   -4.3544 H   0  0  0  0  0  0  0  0  0  0  0  0
   72.3343   41.6672   -5.8996 H   0  0  0  0  0  0  0  0  0  0  0  0
   73.3916   43.1194   -5.8996 H   0  0  0  0  0  0  0  0  0  0  0  0
   71.5537   44.5528   -5.2818 H   0  0  0  0  0  0  0  0  0  0  0  0
   71.0120   43.5088   -6.6647 H   0  0  0  0  0  0  0  0  0  0  0  0
   71.3532   41.6506   -3.6717 H   0  0  0  0  0  0  0  0  0  0  0  0
   73.1906   39.0081   -1.8683 H   0  0  0  0  0  0  0  0  0  0  0  0
   73.9242   37.2033   -0.3060 H   0  0  0  0  0  0  0  0  0  0  0  0
   72.2905   36.1886    1.2858 H   0  0  0  0  0  0  0  0  0  0  0  0
   69.0300   36.4000    1.2140 H   0  0  0  0  0  0  0  0  0  0  0  0
   66.5450   39.9220   -1.5960 H   0  0  0  0  0  0  0  0  0  0  0  0
   67.1610   41.6587   -2.6598 H   0  0  0  0  0  0  0  0  0  0  0  0
   66.7513   43.4116   -4.3675 H   0  0  0  0  0  0  0  0  0  0  0  0
   67.6586   43.2615   -7.3771 H   0  0  0  0  0  0  0  0  0  0  0  0
   66.5480   44.2446   -6.3601 H   0  0  0  0  0  0  0  0  0  0  0  0
   68.3805   45.2855   -8.5972 H   0  0  0  0  0  0  0  0  0  0  0  0
   66.5691   45.1300   -8.6428 H   0  0  0  0  0  0  0  0  0  0  0  0
   66.4080   46.7690   -6.9720 H   0  0  0  0  0  0  0  0  0  0  0  0
   67.3272   48.7016   -8.0863 H   0  0  0  0  0  0  0  0  0  0  0  0
   68.2115   47.5528   -9.1468 H   0  0  0  0  0  0  0  0  0  0  0  0
   66.4154   47.5744   -9.1468 H   0  0  0  0  0  0  0  0  0  0  0  0
   69.3567   46.9506   -7.0458 H   0  0  0  0  0  0  0  0  0  0  0  0
   68.2099   47.9192   -6.0153 H   0  0  0  0  0  0  0  0  0  0  0  0
   69.3521   46.0815   -4.7407 H   0  0  0  0  0  0  0  0  0  0  0  0
   67.5601   45.9226   -4.7758 H   0  0  0  0  0  0  0  0  0  0  0  0
  1  2  1  0
  2  3  1  0
  3  4  2  0
  4  5  1  0
  5  6  1  0
  6  7  1  0
  7  8  1  0
  8  9  2  0
  9 10  1  0
 10 11  2  0
 11 12  1  0
 12 13  1  0
 12 14  2  0
 14 15  1  0
 15 16  2  0
 15 17  1  0
 17 18  1  0
  5 19  2  0
 19 20  1  0
 20 21  2  0
 21 22  1  0
 22 23  1  0
 23 24  1  0
 24 25  1  0
 25 26  1  0
 25 27  1  0
 27 28  1  0
 21  3  1  0
 28 22  1  0
 17  6  2  0
 14  8  1  0
  1 29  1  0
  1 30  1  0
  1 31  1  0
  2 32  1  0
  2 33  1  0
  4 34  1  0
  9 35  1  0
 10 36  1  0
 11 37  1  0
 13 38  1  0
 18 39  1  0
 19 40  1  0
 20 41  1  0
 23 42  1  0
 23 43  1  0
 24 44  1  0
 24 45  1  0
 25 46  1  0
 26 47  1  0
 26 48  1  0
 26 49  1  0
 27 50  1  0
 27 51  1  0
 28 52  1  0
 28 53  1  0
M  CHG  1  25   1
M  END
>  <meeko>  (6) 
{"is_sidechain": [false], "free_energy": -7.682, "intermolecular_energy": -10.007, "internal_energy": 0.009}

$$$$
cand_025_out
     RDKit          3D

 53 56  0  0  0  0  0  0  0  0999 V2000
   67.0510   43.9750   -2.1370 C   0  0  0  0  0  0  0  0  0  0  0  0
   68.0950   44.7200   -2.9550 C   0  0  0  0  0  0  0  0  0  0  0  0
   69.1530   43.7900   -3.5060 C   0  0  0  0  0  0  0  0  0  0  0  0
   69.6170   42.7370   -2.6920 C   0  0  0  0  0  0  0  0  0  0  0  0
   70.6010   41.8460   -3.1370 C   0  0  0  0  0  0  0  0  0  0  0  0
   71.1110   40.7550   -2.2790 C   0  0  0  0  0  0  0  0  0  0  0  0
   70.1170   40.1660   -1.5060 O   0  0  0  0  0  0  0  0  0  0  0  0
   70.4530   39.1370   -0.6640 C   0  0  0  0  0  0  0  0  0  0  0  0
   69.4220   38.5650    0.0810 C   0  0  0  0  0  0  0  0  0  0  0  0
   69.6970   37.5140    0.9600 C   0  0  0  0  0  0  0  0  0  0  0  0
   71.0020   37.0380    1.0930 C   0  0  0  0  0  0  0  0  0  0  0  0
   72.0300   37.6110    0.3490 C   0  0  0  0  0  0  0  0  0  0  0  0
   73.2850   37.0960    0.5290 O   0  0  0  0  0  0  0  0  0  0  0  0
   71.7540   38.6610   -0.5300 C   0  0  0  0  0  0  0  0  0  0  0  0
   72.8050   39.2920   -1.3320 C   0  0  0  0  0  0  0  0  0  0  0  0
   73.9780   38.9320   -1.2630 O   0  0  0  0  0  0  0  0  0  0  0  0
   72.4070   40.3920   -2.2390 C   0  0  0  0  0  0  0  0  0  0  0  0
   73.4090   40.9890   -2.9810 O   0  0  0  0  0  0  0  0  0  0  0  0
   71.1350   42.0330   -4.4160 C   0  0  0  0  0  0  0  0  0  0  0  0
   70.6880   43.0780   -5.2310 C   0  0  0  0  0  0  0  0  0  0  0  0
   69.7010   43.9730   -4.7920 C   0  0  0  0  0  0  0  0  0  0  0  0
   69.2340   45.0290   -5.5990 N   0  0  0  0  0  0  0  0  0  0  0  0
   70.2920   45.9510   -6.0650 C   0  0  0  0  0  0  0  0  0  0  0  0
   69.6520   47.1390   -6.8220 C   0  0  0  0  0  0  0  0  0  0  0  0
   68.8200   46.6980   -7.9670 N   0  0  0  0  0  0  0  0  0  0  0  0
   68.1920   47.8450   -8.6190 C   0  0  0  0  0  0  0  0  0  0  0  0
   67.7910   45.7470   -7.4810 C   0  0  0  0  0  0  0  0  0  0  0  0
   68.4000   44.5440   -6.7210 C   0  0  0  0  0  0  0  0  0  0  0  0
   67.2533   44.1194   -1.0654 H   0  0  0  0  0  0  0  0  0  0  0  0
   66.0507   44.3645   -2.3770 H   0  0  0  0  0  0  0  0  0  0  0  0
   67.0941   42.9024   -2.3770 H   0  0  0  0  0  0  0  0  0  0  0  0
   67.5944   45.2252   -3.7942 H   0  0  0  0  0  0  0  0  0  0  0  0
   68.5914   45.4448   -2.2930 H   0  0  0  0  0  0  0  0  0  0  0  0
   69.1961   42.6123   -1.6834 H   0  0  0  0  0  0  0  0  0  0  0  0
   68.3934   38.9408   -0.0232 H   0  0  0  0  0  0  0  0  0  0  0  0
   68.8843   37.0617    1.5474 H   0  0  0  0  0  0  0  0  0  0  0  0
   71.2184   36.2108    1.7850 H   0  0  0  0  0  0  0  0  0  0  0  0
   73.3910   36.2270    0.8640 H   0  0  0  0  0  0  0  0  0  0  0  0
   73.1910   41.5840   -3.6710 H   0  0  0  0  0  0  0  0  0  0  0  0
   71.9150   41.3508   -4.7850 H   0  0  0  0  0  0  0  0  0  0  0  0
   71.1187   43.2005   -6.2357 H   0  0  0  0  0  0  0  0  0  0  0  0
   70.8545   46.3297   -5.1989 H   0  0  0  0  0  0  0  0  0  0  0  0
   70.9727   45.4126   -6.7408 H   0  0  0  0  0  0  0  0  0  0  0  0
   69.0186   47.7037   -6.1221 H   0  0  0  0  0  0  0  0  0  0  0  0
   70.4673   47.7610   -7.2201 H   0  0  0  0  0  0  0  0  0  0  0  0
   69.4120   46.2330   -8.6550 H   0  0  0  0  0  0  0  0  0  0  0  0
   67.8122   48.5387   -7.8545 H   0  0  0  0  0  0  0  0  0  0  0  0
   68.9333   48.3612   -9.2467 H   0  0  0  0  0  0  0  0  0  0  0  0
   67.3577   47.4985   -9.2467 H   0  0  0  0  0  0  0  0  0  0  0  0
   67.1091   46.2822   -6.8038 H   0  0  0  0  0  0  0  0  0  0  0  0
   67.2630   45.3509   -8.3609 H   0  0  0  0  0  0  0  0  0  0  0  0
   67.5897   43.9129   -6.3273 H   0  0  0  0  0  0  0  0  0  0  0  0
   69.0251   43.9579   -7.4108 H   0  0  0  0  0  0  0  0  0  0  0  0
  1  2  1  0
  2  3  1  0
  3  4  2  0
  4  5  1  0
  5  6  1  0
  6  7  1  0
  7  8  1  0
  8  9  2  0
  9 10  1  0
 10 11  2  0
 11 12  1  0
 12 13  1  0
 12 14  2  0
 14 15  1  0
 15 16  2  0
 15 17  1  0
 17 18  1  0
  5 19  2  0
 19 20  1  0
 20 21  2  0
 21 22  1  0
 22 23  1  0
 23 24  1  0
 24 25  1  0
 25 26  1  0
 25 27  1  0
 27 28  1  0
 21  3  1  0
 28 22  1  0
 17  6  2  0
 14  8  1  0
  1 29  1  0
  1 30  1  0
  1 31  1  0
  2 32  1  0
  2 33  1  0
  4 34  1  0
  9 35  1  0
 10 36  1  0
 11 37  1  0
 13 38  1  0
 18 39  1  0
 19 40  1  0
 20 41  1  0
 23 42  1  0
 23 43  1  0
 24 44  1  0
 24 45  1  0
 25 46  1  0
 26 47  1  0
 26 48  1  0
 26 49  1  0
 27 50  1  0
 27 51  1  0
 28 52  1  0
 28 53  1  0
M  CHG  1  25   1
M  END
>  <meeko>  (7) 
{"is_sidechain": [false], "free_energy": -7.667, "intermolecular_energy": -9.69, "internal_energy": -0.289}

$$$$
cand_025_out
     RDKit          3D

 53 56  0  0  0  0  0  0  0  0999 V2000
   76.2950   42.3600   -1.5790 C   0  0  0  0  0  0  0  0  0  0  0  0
   75.7120   42.2020   -2.9750 C   0  0  0  0  0  0  0  0  0  0  0  0
   74.3710   42.8880   -3.1100 C   0  0  0  0  0  0  0  0  0  0  0  0
   73.2050   42.1620   -2.7940 C   0  0  0  0  0  0  0  0  0  0  0  0
   71.9320   42.7340   -2.9050 C   0  0  0  0  0  0  0  0  0  0  0  0
   70.7040   41.9690   -2.6000 C   0  0  0  0  0  0  0  0  0  0  0  0
   70.8290   41.1750   -1.4660 O   0  0  0  0  0  0  0  0  0  0  0  0
   69.7610   40.4120   -1.0680 C   0  0  0  0  0  0  0  0  0  0  0  0
   69.9250   39.6440    0.0840 C   0  0  0  0  0  0  0  0  0  0  0  0
   68.8760   38.8420    0.5430 C   0  0  0  0  0  0  0  0  0  0  0  0
   67.6660   38.8110   -0.1510 C   0  0  0  0  0  0  0  0  0  0  0  0
   67.5040   39.5790   -1.3010 C   0  0  0  0  0  0  0  0  0  0  0  0
   66.2920   39.5010   -1.9320 O   0  0  0  0  0  0  0  0  0  0  0  0
   68.5530   40.3810   -1.7590 C   0  0  0  0  0  0  0  0  0  0  0  0
   68.4250   41.2040   -2.9630 C   0  0  0  0  0  0  0  0  0  0  0  0
   67.3930   41.2230   -3.6300 O   0  0  0  0  0  0  0  0  0  0  0  0
   69.5930   42.0240   -3.3590 C   0  0  0  0  0  0  0  0  0  0  0  0
   69.4650   42.7870   -4.5040 O   0  0  0  0  0  0  0  0  0  0  0  0
   71.8360   44.0530   -3.3580 C   0  0  0  0  0  0  0  0  0  0  0  0
   72.9840   44.7830   -3.6810 C   0  0  0  0  0  0  0  0  0  0  0  0
   74.2630   44.2160   -3.5700 C   0  0  0  0  0  0  0  0  0  0  0  0
   75.4310   44.9360   -3.8860 N   0  0  0  0  0  0  0  0  0  0  0  0
   75.7900   44.9120   -5.3210 C   0  0  0  0  0  0  0  0  0  0  0  0
   77.1540   45.6120   -5.5290 C   0  0  0  0  0  0  0  0  0  0  0  0
   77.1560   47.0070   -5.0270 N   0  0  0  0  0  0  0  0  0  0  0  0
   78.4750   47.6120   -5.1930 C   0  0  0  0  0  0  0  0  0  0  0  0
   76.7570   47.0100   -3.5990 C   0  0  0  0  0  0  0  0  0  0  0  0
   75.3940   46.3170   -3.3570 C   0  0  0  0  0  0  0  0  0  0  0  0
   75.5169   42.1491   -0.8307 H   0  0  0  0  0  0  0  0  0  0  0  0
   77.1298   41.6557   -1.4484 H   0  0  0  0  0  0  0  0  0  0  0  0
   76.6599   43.3894   -1.4484 H   0  0  0  0  0  0  0  0  0  0  0  0
   76.4102   42.6406   -3.7031 H   0  0  0  0  0  0  0  0  0  0  0  0
   75.5646   41.1281   -3.1621 H   0  0  0  0  0  0  0  0  0  0  0  0
   73.2974   41.1207   -2.4518 H   0  0  0  0  0  0  0  0  0  0  0  0
   70.8789   39.6691    0.6312 H   0  0  0  0  0  0  0  0  0  0  0  0
   69.0046   38.2353    1.4515 H   0  0  0  0  0  0  0  0  0  0  0  0
   66.8405   38.1801    0.2102 H   0  0  0  0  0  0  0  0  0  0  0  0
   65.5080   39.3980   -1.4290 H   0  0  0  0  0  0  0  0  0  0  0  0
   69.8670   43.6320   -4.5520 H   0  0  0  0  0  0  0  0  0  0  0  0
   70.8463   44.5218   -3.4615 H   0  0  0  0  0  0  0  0  0  0  0  0
   72.8827   45.8216   -4.0288 H   0  0  0  0  0  0  0  0  0  0  0  0
   75.8583   43.8689   -5.6634 H   0  0  0  0  0  0  0  0  0  0  0  0
   75.0174   45.4405   -5.8987 H   0  0  0  0  0  0  0  0  0  0  0  0
   77.9283   45.0429   -4.9937 H   0  0  0  0  0  0  0  0  0  0  0  0
   77.3527   45.6445   -6.6104 H   0  0  0  0  0  0  0  0  0  0  0  0
   76.4880   47.5600   -5.5650 H   0  0  0  0  0  0  0  0  0  0  0  0
   78.9133   47.8130   -4.2043 H   0  0  0  0  0  0  0  0  0  0  0  0
   79.1270   46.9229   -5.7499 H   0  0  0  0  0  0  0  0  0  0  0  0
   78.3781   48.5557   -5.7499 H   0  0  0  0  0  0  0  0  0  0  0  0
   77.5277   46.4830   -3.0174 H   0  0  0  0  0  0  0  0  0  0  0  0
   76.6561   48.0594   -3.2849 H   0  0  0  0  0  0  0  0  0  0  0  0
   75.1857   46.2886   -2.2773 H   0  0  0  0  0  0  0  0  0  0  0  0
   74.6036   46.8817   -3.8731 H   0  0  0  0  0  0  0  0  0  0  0  0
  1  2  1  0
  2  3  1  0
  3  4  2  0
  4  5  1  0
  5  6  1  0
  6  7  1  0
  7  8  1  0
  8  9  2  0
  9 10  1  0
 10 11  2  0
 11 12  1  0
 12 13  1  0
 12 14  2  0
 14 15  1  0
 15 16  2  0
 15 17  1  0
 17 18  1  0
  5 19  2  0
 19 20  1  0
 20 21  2  0
 21 22  1  0
 22 23  1  0
 23 24  1  0
 24 25  1  0
 25 26  1  0
 25 27  1  0
 27 28  1  0
 21  3  1  0
 28 22  1  0
 17  6  2  0
 14  8  1  0
  1 29  1  0
  1 30  1  0
  1 31  1  0
  2 32  1  0
  2 33  1  0
  4 34  1  0
  9 35  1  0
 10 36  1  0
 11 37  1  0
 13 38  1  0
 18 39  1  0
 19 40  1  0
 20 41  1  0
 23 42  1  0
 23 43  1  0
 24 44  1  0
 24 45  1  0
 25 46  1  0
 26 47  1  0
 26 48  1  0
 26 49  1  0
 27 50  1  0
 27 51  1  0
 28 52  1  0
 28 53  1  0
M  CHG  1  25   1
M  END
>  <meeko>  (8) 
{"is_sidechain": [false], "free_energy": -7.656, "intermolecular_energy": -9.689, "internal_energy": -0.276}

$$$$
cand_025_out
     RDKit          3D

 53 56  0  0  0  0  0  0  0  0999 V2000
   75.1850   42.3840   -6.5820 C   0  0  0  0  0  0  0  0  0  0  0  0
   73.6650   42.4530   -6.5730 C   0  0  0  0  0  0  0  0  0  0  0  0
   73.1240   42.8420   -5.2150 C   0  0  0  0  0  0  0  0  0  0  0  0
   72.5760   41.8370   -4.3930 C   0  0  0  0  0  0  0  0  0  0  0  0
   72.0510   42.1290   -3.1290 C   0  0  0  0  0  0  0  0  0  0  0  0
   71.4520   41.0840   -2.2720 C   0  0  0  0  0  0  0  0  0  0  0  0
   72.3900   40.1820   -1.7840 O   0  0  0  0  0  0  0  0  0  0  0  0
   71.9690   39.1590   -0.9730 C   0  0  0  0  0  0  0  0  0  0  0  0
   72.9460   38.2870   -0.4930 C   0  0  0  0  0  0  0  0  0  0  0  0
   72.5840   37.2230    0.3370 C   0  0  0  0  0  0  0  0  0  0  0  0
   71.2460   37.0320    0.6840 C   0  0  0  0  0  0  0  0  0  0  0  0
   70.2720   37.9040    0.2040 C   0  0  0  0  0  0  0  0  0  0  0  0
   68.9810   37.6580    0.5840 O   0  0  0  0  0  0  0  0  0  0  0  0
   70.6350   38.9680   -0.6250 C   0  0  0  0  0  0  0  0  0  0  0  0
   69.6430   39.9080   -1.1510 C   0  0  0  0  0  0  0  0  0  0  0  0
   68.4460   39.8010   -0.8950 O   0  0  0  0  0  0  0  0  0  0  0  0
   70.1320   41.0070   -2.0150 C   0  0  0  0  0  0  0  0  0  0  0  0
   69.1860   41.8800   -2.5170 O   0  0  0  0  0  0  0  0  0  0  0  0
   72.0620   43.4600   -2.6990 C   0  0  0  0  0  0  0  0  0  0  0  0
   72.5960   44.4680   -3.5070 C   0  0  0  0  0  0  0  0  0  0  0  0
   73.1270   44.1810   -4.7740 C   0  0  0  0  0  0  0  0  0  0  0  0
   73.6730   45.1810   -5.6020 N   0  0  0  0  0  0  0  0  0  0  0  0
   72.7080   46.2240   -6.0120 C   0  0  0  0  0  0  0  0  0  0  0  0
   73.3780   47.1850   -7.0220 C   0  0  0  0  0  0  0  0  0  0  0  0
   74.6060   47.8130   -6.4780 N   0  0  0  0  0  0  0  0  0  0  0  0
   75.2350   48.6690   -7.4810 C   0  0  0  0  0  0  0  0  0  0  0  0
   75.5410   46.7500   -6.0390 C   0  0  0  0  0  0  0  0  0  0  0  0
   74.9010   45.7720   -5.0250 C   0  0  0  0  0  0  0  0  0  0  0  0
   75.5574   42.3671   -5.5471 H   0  0  0  0  0  0  0  0  0  0  0  0
   75.5075   41.4703   -7.1027 H   0  0  0  0  0  0  0  0  0  0  0  0
   75.5889   43.2647   -7.1027 H   0  0  0  0  0  0  0  0  0  0  0  0
   73.3389   43.1993   -7.3124 H   0  0  0  0  0  0  0  0  0  0  0  0
   73.2778   41.4534   -6.8196 H   0  0  0  0  0  0  0  0  0  0  0  0
   72.5605   40.7979   -4.7536 H   0  0  0  0  0  0  0  0  0  0  0  0
   74.0006   38.4368   -0.7677 H   0  0  0  0  0  0  0  0  0  0  0  0
   73.3541   36.5356    0.7171 H   0  0  0  0  0  0  0  0  0  0  0  0
   70.9608   36.1933    1.3362 H   0  0  0  0  0  0  0  0  0  0  0  0
   68.4240   38.3690    0.8390 H   0  0  0  0  0  0  0  0  0  0  0  0
   69.2580   42.1960   -3.3960 H   0  0  0  0  0  0  0  0  0  0  0  0
   71.6456   43.7165   -1.7137 H   0  0  0  0  0  0  0  0  0  0  0  0
   72.6001   45.5059   -3.1428 H   0  0  0  0  0  0  0  0  0  0  0  0
   71.8345   45.7494   -6.4829 H   0  0  0  0  0  0  0  0  0  0  0  0
   72.3868   46.7919   -5.1264 H   0  0  0  0  0  0  0  0  0  0  0  0
   73.6426   46.6178   -7.9266 H   0  0  0  0  0  0  0  0  0  0  0  0
   72.6613   47.9892   -7.2447 H   0  0  0  0  0  0  0  0  0  0  0  0
   74.3590   48.3970   -5.6780 H   0  0  0  0  0  0  0  0  0  0  0  0
   75.8145   49.4576   -6.9787 H   0  0  0  0  0  0  0  0  0  0  0  0
   75.9058   48.0651   -8.1098 H   0  0  0  0  0  0  0  0  0  0  0  0
   74.4583   49.1288   -8.1098 H   0  0  0  0  0  0  0  0  0  0  0  0
   75.8644   46.1793   -6.9220 H   0  0  0  0  0  0  0  0  0  0  0  0
   76.3888   47.2399   -5.5378 H   0  0  0  0  0  0  0  0  0  0  0  0
   75.6164   44.9700   -4.7903 H   0  0  0  0  0  0  0  0  0  0  0  0
   74.6425   46.3199   -4.1068 H   0  0  0  0  0  0  0  0  0  0  0  0
  1  2  1  0
  2  3  1  0
  3  4  2  0
  4  5  1  0
  5  6  1  0
  6  7  1  0
  7  8  1  0
  8  9  2  0
  9 10  1  0
 10 11  2  0
 11 12  1  0
 12 13  1  0
 12 14  2  0
 14 15  1  0
 15 16  2  0
 15 17  1  0
 17 18  1  0
  5 19  2  0
 19 20  1  0
 20 21  2  0
 21 22  1  0
 22 23  1  0
 23 24  1  0
 24 25  1  0
 25 26  1  0
 25 27  1  0
 27 28  1  0
 21  3  1  0
 28 22  1  0
 17  6  2  0
 14  8  1  0
  1 29  1  0
  1 30  1  0
  1 31  1  0
  2 32  1  0
  2 33  1  0
  4 34  1  0
  9 35  1  0
 10 36  1  0
 11 37  1  0
 13 38  1  0
 18 39  1  0
 19 40  1  0
 20 41  1  0
 23 42  1  0
 23 43  1  0
 24 44  1  0
 24 45  1  0
 25 46  1  0
 26 47  1  0
 26 48  1  0
 26 49  1  0
 27 50  1  0
 27 51  1  0
 28 52  1  0
 28 53  1  0
M  CHG  1  25   1
M  END
>  <meeko>  (9) 
{"is_sidechain": [false], "free_energy": -7.506, "intermolecular_energy": -9.242, "internal_energy": -0.537}

$$$$
