cand_055_out
     RDKit          3D

 41 43  0  0  0  0  0  0  0  0999 V2000
   70.6240   37.1040    1.2510 C   0  0  0  0  0  0  0  0  0  0  0  0
   70.7330   38.6170    1.1520 C   0  0  0  0  0  0  0  0  0  0  0  0
   70.0750   39.1410   -0.1260 C   0  0  0  0  0  0  0  0  0  0  0  0
   71.0820   39.7820   -1.0550 C   0  0  0  0  0  0  0  0  0  0  0  0
   72.0030   38.9510   -1.7160 C   0  0  0  0  0  0  0  0  0  0  0  0
   72.9630   39.4840   -2.5790 C   0  0  0  0  0  0  0  0  0  0  0  0
   73.0280   40.8610   -2.8100 C   0  0  0  0  0  0  0  0  0  0  0  0
   74.0500   41.4540   -3.6990 C   0  0  0  0  0  0  0  0  0  0  0  0
   73.5350   41.8380   -4.9330 O   0  0  0  0  0  0  0  0  0  0  0  0
   74.3760   42.4040   -5.8560 C   0  0  0  0  0  0  0  0  0  0  0  0
   73.8140   42.7870   -7.0750 C   0  0  0  0  0  0  0  0  0  0  0  0
   74.6150   43.3680   -8.0600 C   0  0  0  0  0  0  0  0  0  0  0  0
   75.9780   43.5640   -7.8270 C   0  0  0  0  0  0  0  0  0  0  0  0
   76.5360   43.1820   -6.6100 C   0  0  0  0  0  0  0  0  0  0  0  0
   77.8770   43.4020   -6.4480 O   0  0  0  0  0  0  0  0  0  0  0  0
   75.7330   42.6010   -5.6240 C   0  0  0  0  0  0  0  0  0  0  0  0
   76.2800   42.1840   -4.3320 C   0  0  0  0  0  0  0  0  0  0  0  0
   77.4700   42.3180   -4.0550 O   0  0  0  0  0  0  0  0  0  0  0  0
   75.3440   41.5850   -3.3530 C   0  0  0  0  0  0  0  0  0  0  0  0
   75.8740   41.1840   -2.1400 O   0  0  0  0  0  0  0  0  0  0  0  0
   72.1190   41.6930   -2.1380 C   0  0  0  0  0  0  0  0  0  0  0  0
   71.1490   41.1740   -1.2590 C   0  0  0  0  0  0  0  0  0  0  0  0
   70.1960   42.1230   -0.5880 C   0  0  0  0  0  0  0  0  0  0  0  0
   70.6026   36.8064    2.3098 H   0  0  0  0  0  0  0  0  0  0  0  0
   69.6995   36.7699    0.7574 H   0  0  0  0  0  0  0  0  0  0  0  0
   71.4911   36.6408    0.7574 H   0  0  0  0  0  0  0  0  0  0  0  0
   70.2353   39.0695    2.0224 H   0  0  0  0  0  0  0  0  0  0  0  0
   71.7992   38.8868    1.1285 H   0  0  0  0  0  0  0  0  0  0  0  0
   69.5931   38.3013   -0.6482 H   0  0  0  0  0  0  0  0  0  0  0  0
   69.3374   39.9059    0.1584 H   0  0  0  0  0  0  0  0  0  0  0  0
   71.9671   37.8640   -1.5510 H   0  0  0  0  0  0  0  0  0  0  0  0
   73.6752   38.8134   -3.0820 H   0  0  0  0  0  0  0  0  0  0  0  0
   72.7408   42.6312   -7.2594 H   0  0  0  0  0  0  0  0  0  0  0  0
   74.1723   43.6715   -9.0201 H   0  0  0  0  0  0  0  0  0  0  0  0
   76.6097   44.0195   -8.6038 H   0  0  0  0  0  0  0  0  0  0  0  0
   78.4680   42.6760   -6.3980 H   0  0  0  0  0  0  0  0  0  0  0  0
   75.3210   40.7900   -1.4950 H   0  0  0  0  0  0  0  0  0  0  0  0
   72.1656   42.7796   -2.3024 H   0  0  0  0  0  0  0  0  0  0  0  0
   70.2916   42.0278    0.5037 H   0  0  0  0  0  0  0  0  0  0  0  0
   70.4332   43.1543   -0.8883 H   0  0  0  0  0  0  0  0  0  0  0  0
   69.1657   41.8814   -0.8883 H   0  0  0  0  0  0  0  0  0  0  0  0
  1  2  1  0
  2  3  1  0
  3  4  1  0
  4  5  2  0
  5  6  1  0
  6  7  2  0
  7  8  1  0
  8  9  1  0
  9 10  1  0
 10 11  2  0
 11 12  1  0
 12 13  2  0
 13 14  1  0
 14 15  1  0
 14 16  2  0
 16 17  1  0
 17 18  2  0
 17 19  1  0
 19 20  1  0
  7 21  1  0
 21 22  2  0
 22 23  1  0
 22  4  1  0
 19  8  2  0
 16 10  1  0
  1 24  1  0
  1 25  1  0
  1 26  1  0
  2 27  1  0
  2 28  1  0
  3 29  1  0
  3 30  1  0
  5 31  1  0
  6 32  1  0
 11 33  1  0
 12 34  1  0
 13 35  1  0
 15 36  1  0
 20 37  1  0
 21 38  1  0
 23 39  1  0
 23 40  1  0
 23 41  1  0
M  END
>  <meeko>  (1) 
{"is_sidechain": [false], "free_energy": -7.549, "intermolecular_energy": -9.314, "internal_energy": -0.565}

$$$$
cand_055_out
     RDKit          3D

 41 43  0  0  0  0  0  0  0  0999 V2000
   76.5450   42.3190   -6.4990 C   0  0  0  0  0  0  0  0  0  0  0  0
   75.3810   43.1610   -6.9950 C   0  0  0  0  0  0  0  0  0  0  0  0
   74.7570   43.9750   -5.8610 C   0  0  0  0  0  0  0  0  0  0  0  0
   74.0020   43.0970   -4.8870 C   0  0  0  0  0  0  0  0  0  0  0  0
   72.9910   42.2600   -5.3880 C   0  0  0  0  0  0  0  0  0  0  0  0
   72.2530   41.4340   -4.5380 C   0  0  0  0  0  0  0  0  0  0  0  0
   72.5080   41.4160   -3.1640 C   0  0  0  0  0  0  0  0  0  0  0  0
   71.7260   40.5680   -2.2380 C   0  0  0  0  0  0  0  0  0  0  0  0
   72.4820   39.5510   -1.6670 O   0  0  0  0  0  0  0  0  0  0  0  0
   71.8800   38.6900   -0.7870 C   0  0  0  0  0  0  0  0  0  0  0  0
   72.6800   37.6930   -0.2270 C   0  0  0  0  0  0  0  0  0  0  0  0
   72.1290   36.7810    0.6760 C   0  0  0  0  0  0  0  0  0  0  0  0
   70.7770   36.8650    1.0170 C   0  0  0  0  0  0  0  0  0  0  0  0
   69.9810   37.8610    0.4570 C   0  0  0  0  0  0  0  0  0  0  0  0
   68.6660   37.8850    0.8340 O   0  0  0  0  0  0  0  0  0  0  0  0
   70.5340   38.7730   -0.4460 C   0  0  0  0  0  0  0  0  0  0  0  0
   69.7320   39.8340   -1.0570 C   0  0  0  0  0  0  0  0  0  0  0  0
   68.5350   39.9690   -0.8120 O   0  0  0  0  0  0  0  0  0  0  0  0
   70.4150   40.7550   -1.9960 C   0  0  0  0  0  0  0  0  0  0  0  0
   69.6440   41.7450   -2.5770 O   0  0  0  0  0  0  0  0  0  0  0  0
   73.5070   42.2620   -2.6600 C   0  0  0  0  0  0  0  0  0  0  0  0
   74.2560   43.1070   -3.5020 C   0  0  0  0  0  0  0  0  0  0  0  0
   75.3230   43.9750   -2.8950 C   0  0  0  0  0  0  0  0  0  0  0  0
   76.5516   42.3142   -5.3990 H   0  0  0  0  0  0  0  0  0  0  0  0
   76.4365   41.2890   -6.8695 H   0  0  0  0  0  0  0  0  0  0  0  0
   77.4893   42.7444   -6.8695 H   0  0  0  0  0  0  0  0  0  0  0  0
   75.7434   43.8498   -7.7723 H   0  0  0  0  0  0  0  0  0  0  0  0
   74.6128   42.4852   -7.3989 H   0  0  0  0  0  0  0  0  0  0  0  0
   75.5565   44.5017   -5.3193 H   0  0  0  0  0  0  0  0  0  0  0  0
   74.0437   44.6859   -6.3035 H   0  0  0  0  0  0  0  0  0  0  0  0
   72.7774   42.2553   -6.4671 H   0  0  0  0  0  0  0  0  0  0  0  0
   71.4632   40.7911   -4.9538 H   0  0  0  0  0  0  0  0  0  0  0  0
   73.7443   37.6254   -0.4967 H   0  0  0  0  0  0  0  0  0  0  0  0
   72.7600   35.9963    1.1188 H   0  0  0  0  0  0  0  0  0  0  0  0
   70.3419   36.1458    1.7265 H   0  0  0  0  0  0  0  0  0  0  0  0
   68.4110   38.3340    1.6160 H   0  0  0  0  0  0  0  0  0  0  0  0
   70.0550   42.4990   -2.9520 H   0  0  0  0  0  0  0  0  0  0  0  0
   73.7108   42.2656   -1.5790 H   0  0  0  0  0  0  0  0  0  0  0  0
   75.2584   43.9225   -1.7982 H   0  0  0  0  0  0  0  0  0  0  0  0
   76.3124   43.6221   -3.2214 H   0  0  0  0  0  0  0  0  0  0  0  0
   75.1788   45.0155   -3.2214 H   0  0  0  0  0  0  0  0  0  0  0  0
  1  2  1  0
  2  3  1  0
  3  4  1  0
  4  5  2  0
  5  6  1  0
  6  7  2  0
  7  8  1  0
  8  9  1  0
  9 10  1  0
 10 11  2  0
 11 12  1  0
 12 13  2  0
 13 14  1  0
 14 15  1  0
 14 16  2  0
 16 17  1  0
 17 18  2  0
 17 19  1  0
 19 20  1  0
  7 21  1  0
 21 22  2  0
 22 23  1  0
 22  4  1  0
 19  8  2  0
 16 10  1  0
  1 24  1  0
  1 25  1  0
  1 26  1  0
  2 27  1  0
  2 28  1  0
  3 29  1  0
  3 30  1  0
  5 31  1  0
  6 32  1  0
 11 33  1  0
 12 34  1  0
 13 35  1  0
 15 36  1  0
 20 37  1  0
 21 38  1  0
 23 39  1  0
 23 40  1  0
 23 41  1  0
M  END
>  <meeko>  (2) 
{"is_sidechain": [false], "free_energy": -7.457, "intermolecular_energy": -9.143, "internal_energy": -0.624}

$$$$
cand_055_out
     RDKit          3D

 41 43  0  0  0  0  0  0  0  0999 V2000
   77.0110   42.1340   -6.3960 C   0  0  0  0  0  0  0  0  0  0  0  0
   75.9550   43.1890   -6.6880 C   0  0  0  0  0  0  0  0  0  0  0  0
   75.5040   43.8950   -5.4080 C   0  0  0  0  0  0  0  0  0  0  0  0
   74.6730   42.9870   -4.5280 C   0  0  0  0  0  0  0  0  0  0  0  0
   73.5480   42.3610   -5.0890 C   0  0  0  0  0  0  0  0  0  0  0  0
   72.7370   41.5190   -4.3240 C   0  0  0  0  0  0  0  0  0  0  0  0
   73.0300   41.2750   -2.9790 C   0  0  0  0  0  0  0  0  0  0  0  0
   72.1750   40.4080   -2.1410 C   0  0  0  0  0  0  0  0  0  0  0  0
   70.8370   40.7840   -2.1640 O   0  0  0  0  0  0  0  0  0  0  0  0
   69.9320   40.0640   -1.4280 C   0  0  0  0  0  0  0  0  0  0  0  0
   68.5970   40.4680   -1.4920 C   0  0  0  0  0  0  0  0  0  0  0  0
   67.6250   39.7780   -0.7660 C   0  0  0  0  0  0  0  0  0  0  0  0
   67.9860   38.6850    0.0250 C   0  0  0  0  0  0  0  0  0  0  0  0
   69.3180   38.2830    0.0870 C   0  0  0  0  0  0  0  0  0  0  0  0
   69.6020   37.2070    0.8810 O   0  0  0  0  0  0  0  0  0  0  0  0
   70.2910   38.9740   -0.6410 C   0  0  0  0  0  0  0  0  0  0  0  0
   71.7020   38.5850   -0.6040 C   0  0  0  0  0  0  0  0  0  0  0  0
   72.0980   37.6390    0.0730 O   0  0  0  0  0  0  0  0  0  0  0  0
   72.6520   39.3780   -1.4170 C   0  0  0  0  0  0  0  0  0  0  0  0
   73.9840   39.0090   -1.3640 O   0  0  0  0  0  0  0  0  0  0  0  0
   74.1460   41.9120   -2.4150 C   0  0  0  0  0  0  0  0  0  0  0  0
   74.9700   42.7700   -3.1680 C   0  0  0  0  0  0  0  0  0  0  0  0
   76.1590   43.4040   -2.5020 C   0  0  0  0  0  0  0  0  0  0  0  0
   77.1247   42.0204   -5.3078 H   0  0  0  0  0  0  0  0  0  0  0  0
   76.7012   41.1739   -6.8345 H   0  0  0  0  0  0  0  0  0  0  0  0
   77.9708   42.4447   -6.8345 H   0  0  0  0  0  0  0  0  0  0  0  0
   76.3752   43.9345   -7.3791 H   0  0  0  0  0  0  0  0  0  0  0  0
   75.0820   42.6912   -7.1353 H   0  0  0  0  0  0  0  0  0  0  0  0
   76.3935   44.2177   -4.8471 H   0  0  0  0  0  0  0  0  0  0  0  0
   74.8825   44.7564   -5.6937 H   0  0  0  0  0  0  0  0  0  0  0  0
   73.3016   42.5362   -6.1466 H   0  0  0  0  0  0  0  0  0  0  0  0
   71.8588   41.0431   -4.7848 H   0  0  0  0  0  0  0  0  0  0  0  0
   68.3116   41.3292   -2.1140 H   0  0  0  0  0  0  0  0  0  0  0  0
   66.5730   40.0955   -0.8169 H   0  0  0  0  0  0  0  0  0  0  0  0
   67.2196   38.1426    0.5980 H   0  0  0  0  0  0  0  0  0  0  0  0
   70.3080   37.2520    1.4960 H   0  0  0  0  0  0  0  0  0  0  0  0
   74.2210   38.1490   -1.0780 H   0  0  0  0  0  0  0  0  0  0  0  0
   74.3835   41.7361   -1.3554 H   0  0  0  0  0  0  0  0  0  0  0  0
   76.0436   43.3424   -1.4098 H   0  0  0  0  0  0  0  0  0  0  0  0
   77.0744   42.8743   -2.8044 H   0  0  0  0  0  0  0  0  0  0  0  0
   76.2292   44.4593   -2.8044 H   0  0  0  0  0  0  0  0  0  0  0  0
  1  2  1  0
  2  3  1  0
  3  4  1  0
  4  5  2  0
  5  6  1  0
  6  7  2  0
  7  8  1  0
  8  9  1  0
  9 10  1  0
 10 11  2  0
 11 12  1  0
 12 13  2  0
 13 14  1  0
 14 15  1  0
 14 16  2  0
 16 17  1  0
 17 18  2  0
 17 19  1  0
 19 20  1  0
  7 21  1  0
 21 22  2  0
 22 23  1  0
 22  4  1  0
 19  8  2  0
 16 10  1  0
  1 24  1  0
  1 25  1  0
  1 26  1  0
  2 27  1  0
  2 28  1  0
  3 29  1  0
  3 30  1  0
  5 31  1  0
  6 32  1  0
 11 33  1  0
 12 34  1  0
 13 35  1  0
 15 36  1  0
 20 37  1  0
 21 38  1  0
 23 39  1  0
 23 40  1  0
 23 41  1  0
M  END
>  <meeko>  (3) 
{"is_sidechain": [false], "free_energy": -7.401, "intermolecular_energy": -9.217, "internal_energy": -0.48}

$$$$
cand_055_out
     RDKit          3D

 41 43  0  0  0  0  0  0  0  0999 V2000
   72.4180   36.5420    0.0870 C   0  0  0  0  0  0  0  0  0  0  0  0
   70.9990   36.4440    0.6250 C   0  0  0  0  0  0  0  0  0  0  0  0
   70.6180   37.6910    1.4250 C   0  0  0  0  0  0  0  0  0  0  0  0
   70.0690   38.7840    0.5350 C   0  0  0  0  0  0  0  0  0  0  0  0
   68.7270   38.7030    0.1300 C   0  0  0  0  0  0  0  0  0  0  0  0
   68.1650   39.6770   -0.6990 C   0  0  0  0  0  0  0  0  0  0  0  0
   68.9270   40.7610   -1.1420 C   0  0  0  0  0  0  0  0  0  0  0  0
   68.3640   41.7930   -2.0400 C   0  0  0  0  0  0  0  0  0  0  0  0
   67.4680   42.6390   -1.3960 O   0  0  0  0  0  0  0  0  0  0  0  0
   66.8710   43.6430   -2.1130 C   0  0  0  0  0  0  0  0  0  0  0  0
   65.9890   44.4770   -1.4230 C   0  0  0  0  0  0  0  0  0  0  0  0
   65.3460   45.5190   -2.0940 C   0  0  0  0  0  0  0  0  0  0  0  0
   65.5830   45.7260   -3.4550 C   0  0  0  0  0  0  0  0  0  0  0  0
   66.4630   44.8930   -4.1400 C   0  0  0  0  0  0  0  0  0  0  0  0
   66.6480   45.1520   -5.4710 O   0  0  0  0  0  0  0  0  0  0  0  0
   67.1070   43.8510   -3.4680 C   0  0  0  0  0  0  0  0  0  0  0  0
   68.0390   42.9530   -4.1520 C   0  0  0  0  0  0  0  0  0  0  0  0
   68.2930   43.0670   -5.3480 O   0  0  0  0  0  0  0  0  0  0  0  0
   68.6750   41.8840   -3.3460 C   0  0  0  0  0  0  0  0  0  0  0  0
   69.5430   41.0330   -4.0060 O   0  0  0  0  0  0  0  0  0  0  0  0
   70.2720   40.8350   -0.7510 C   0  0  0  0  0  0  0  0  0  0  0  0
   70.8570   39.8590    0.0780 C   0  0  0  0  0  0  0  0  0  0  0  0
   72.3000   40.0120    0.4720 C   0  0  0  0  0  0  0  0  0  0  0  0
   73.1262   36.5909    0.9273 H   0  0  0  0  0  0  0  0  0  0  0  0
   72.6390   35.6570   -0.5277 H   0  0  0  0  0  0  0  0  0  0  0  0
   72.5152   37.4490   -0.5277 H   0  0  0  0  0  0  0  0  0  0  0  0
   70.3028   36.3341   -0.2196 H   0  0  0  0  0  0  0  0  0  0  0  0
   70.9418   35.5727    1.2940 H   0  0  0  0  0  0  0  0  0  0  0  0
   69.8529   37.4181    2.1667 H   0  0  0  0  0  0  0  0  0  0  0  0
   71.5257   38.0731    1.9151 H   0  0  0  0  0  0  0  0  0  0  0  0
   68.1086   37.8595    0.4707 H   0  0  0  0  0  0  0  0  0  0  0  0
   67.1123   39.5896   -1.0059 H   0  0  0  0  0  0  0  0  0  0  0  0
   65.8009   44.3132   -0.3516 H   0  0  0  0  0  0  0  0  0  0  0  0
   64.6523   46.1774   -1.5505 H   0  0  0  0  0  0  0  0  0  0  0  0
   65.0752   46.5457   -3.9844 H   0  0  0  0  0  0  0  0  0  0  0  0
   66.4900   46.0120   -5.8080 H   0  0  0  0  0  0  0  0  0  0  0  0
   70.3590   41.3590   -4.3330 H   0  0  0  0  0  0  0  0  0  0  0  0
   70.8859   41.6778   -1.1013 H   0  0  0  0  0  0  0  0  0  0  0  0
   72.3816   40.0207    1.5689 H   0  0  0  0  0  0  0  0  0  0  0  0
   72.8817   39.1705    0.0677 H   0  0  0  0  0  0  0  0  0  0  0  0
   72.6923   40.9568    0.0677 H   0  0  0  0  0  0  0  0  0  0  0  0
  1  2  1  0
  2  3  1  0
  3  4  1  0
  4  5  2  0
  5  6  1  0
  6  7  2  0
  7  8  1  0
  8  9  1  0
  9 10  1  0
 10 11  2  0
 11 12  1  0
 12 13  2  0
 13 14  1  0
 14 15  1  0
 14 16  2  0
 16 17  1  0
 17 18  2  0
 17 19  1  0
 19 20  1  0
  7 21  1  0
 21 22  2  0
 22 23  1  0
 22  4  1  0
 19  8  2  0
 16 10  1  0
  1 24  1  0
  1 25  1  0
  1 26  1  0
  2 27  1  0
  2 28  1  0
  3 29  1  0
  3 30  1  0
  5 31  1  0
  6 32  1  0
 11 33  1  0
 12 34  1  0
 13 35  1  0
 15 36  1  0
 20 37  1  0
 21 38  1  0
 23 39  1  0
 23 40  1  0
 23 41  1  0
M  END
>  <meeko>  (4) 
{"is_sidechain": [false], "free_energy": -7.371, "intermolecular_energy": -9.114, "internal_energy": -0.546}

$$$$
cand_055_out
     RDKit          3D

 41 43  0  0  0  0  0  0  0  0999 V2000
   70.7590   36.3540    1.1970 C   0  0  0  0  0  0  0  0  0  0  0  0
   69.9890   37.5820    0.7390 C   0  0  0  0  0  0  0  0  0  0  0  0
   70.6540   38.8710    1.2250 C   0  0  0  0  0  0  0  0  0  0  0  0
   71.1740   39.7050    0.0750 C   0  0  0  0  0  0  0  0  0  0  0  0
   70.3520   40.7240   -0.4350 C   0  0  0  0  0  0  0  0  0  0  0  0
   70.7730   41.5210   -1.5020 C   0  0  0  0  0  0  0  0  0  0  0  0
   72.0270   41.3260   -2.0870 C   0  0  0  0  0  0  0  0  0  0  0  0
   72.4860   42.1390   -3.2340 C   0  0  0  0  0  0  0  0  0  0  0  0
   72.8020   43.4450   -2.8770 O   0  0  0  0  0  0  0  0  0  0  0  0
   73.2430   44.3090   -3.8460 C   0  0  0  0  0  0  0  0  0  0  0  0
   73.5620   45.6060   -3.4400 C   0  0  0  0  0  0  0  0  0  0  0  0
   74.0160   46.5370   -4.3770 C   0  0  0  0  0  0  0  0  0  0  0  0
   74.1480   46.1730   -5.7190 C   0  0  0  0  0  0  0  0  0  0  0  0
   73.8290   44.8780   -6.1200 C   0  0  0  0  0  0  0  0  0  0  0  0
   73.9810   44.5880   -7.4490 O   0  0  0  0  0  0  0  0  0  0  0  0
   73.3760   43.9470   -5.1820 C   0  0  0  0  0  0  0  0  0  0  0  0
   73.0300   42.5760   -5.5620 C   0  0  0  0  0  0  0  0  0  0  0  0
   73.1140   42.1820   -6.7230 O   0  0  0  0  0  0  0  0  0  0  0  0
   72.5670   41.6640   -4.4900 C   0  0  0  0  0  0  0  0  0  0  0  0
   72.2300   40.3760   -4.8640 O   0  0  0  0  0  0  0  0  0  0  0  0
   72.8410   40.2980   -1.5890 C   0  0  0  0  0  0  0  0  0  0  0  0
   72.4310   39.4800   -0.5190 C   0  0  0  0  0  0  0  0  0  0  0  0
   73.3640   38.4090   -0.0250 C   0  0  0  0  0  0  0  0  0  0  0  0
   70.7787   36.3225    2.2964 H   0  0  0  0  0  0  0  0  0  0  0  0
   70.2668   35.4483    0.8130 H   0  0  0  0  0  0  0  0  0  0  0  0
   71.7887   36.4026    0.8130 H   0  0  0  0  0  0  0  0  0  0  0  0
   69.9511   37.5913   -0.3603 H   0  0  0  0  0  0  0  0  0  0  0  0
   68.9756   37.5337    1.1641 H   0  0  0  0  0  0  0  0  0  0  0  0
   69.9161   39.4617    1.7877 H   0  0  0  0  0  0  0  0  0  0  0  0
   71.5086   38.5954    1.8604 H   0  0  0  0  0  0  0  0  0  0  0  0
   69.3622   40.8967    0.0127 H   0  0  0  0  0  0  0  0  0  0  0  0
   70.1104   42.3106   -1.8859 H   0  0  0  0  0  0  0  0  0  0  0  0
   73.4560   45.8943   -2.3838 H   0  0  0  0  0  0  0  0  0  0  0  0
   74.2700   47.5585   -4.0575 H   0  0  0  0  0  0  0  0  0  0  0  0
   74.5030   46.9072   -6.4572 H   0  0  0  0  0  0  0  0  0  0  0  0
   74.4590   45.1720   -8.0040 H   0  0  0  0  0  0  0  0  0  0  0  0
   71.3850   40.0320   -4.6510 H   0  0  0  0  0  0  0  0  0  0  0  0
   73.8263   40.1263   -2.0468 H   0  0  0  0  0  0  0  0  0  0  0  0
   73.3677   38.4047    1.0750 H   0  0  0  0  0  0  0  0  0  0  0  0
   73.0262   37.4295   -0.3943 H   0  0  0  0  0  0  0  0  0  0  0  0
   74.3806   38.6094   -0.3943 H   0  0  0  0  0  0  0  0  0  0  0  0
  1  2  1  0
  2  3  1  0
  3  4  1  0
  4  5  2  0
  5  6  1  0
  6  7  2  0
  7  8  1  0
  8  9  1  0
  9 10  1  0
 10 11  2  0
 11 12  1  0
 12 13  2  0
 13 14  1  0
 14 15  1  0
 14 16  2  0
 16 17  1  0
 17 18  2  0
 17 19  1  0
 19 20  1  0
  7 21  1  0
 21 22  2  0
 22 23  1  0
 22  4  1  0
 19  8  2  0
 16 10  1  0
  1 24  1  0
  1 25  1  0
  1 26  1  0
  2 27  1  0
  2 28  1  0
  3 29  1  0
  3 30  1  0
  5 31  1  0
  6 32  1  0
 11 33  1  0
 12 34  1  0
 13 35  1  0
 15 36  1  0
 20 37  1  0
 21 38  1  0
 23 39  1  0
 23 40  1  0
 23 41  1  0
M  END
>  <meeko>  (5) 
{"is_sidechain": [false], "free_energy": -7.31, "intermolecular_energy": -9.106, "internal_energy": -0.478}

$$$$
cand_055_out
     RDKit          3D

 41 43  0  0  0  0  0  0  0  0999 V2000
   76.1110   45.4720   -5.6820 C   0  0  0  0  0  0  0  0  0  0  0  0
   74.8480   46.2930   -5.4810 C   0  0  0  0  0  0  0  0  0  0  0  0
   73.6090   45.5420   -5.9730 C   0  0  0  0  0  0  0  0  0  0  0  0
   73.2750   44.3650   -5.0820 C   0  0  0  0  0  0  0  0  0  0  0  0
   72.9290   44.6180   -3.7450 C   0  0  0  0  0  0  0  0  0  0  0  0
   72.6190   43.5730   -2.8710 C   0  0  0  0  0  0  0  0  0  0  0  0
   72.6420   42.2460   -3.3110 C   0  0  0  0  0  0  0  0  0  0  0  0
   72.3420   41.1190   -2.4010 C   0  0  0  0  0  0  0  0  0  0  0  0
   70.9940   41.0370   -2.0700 O   0  0  0  0  0  0  0  0  0  0  0  0
   70.5770   40.0350   -1.2320 C   0  0  0  0  0  0  0  0  0  0  0  0
   69.2140   39.9810   -0.9380 C   0  0  0  0  0  0  0  0  0  0  0  0
   68.7230   38.9870   -0.0890 C   0  0  0  0  0  0  0  0  0  0  0  0
   69.5950   38.0480    0.4660 C   0  0  0  0  0  0  0  0  0  0  0  0
   70.9540   38.1030    0.1700 C   0  0  0  0  0  0  0  0  0  0  0  0
   71.7510   37.1540    0.7490 O   0  0  0  0  0  0  0  0  0  0  0  0
   71.4450   39.0990   -0.6800 C   0  0  0  0  0  0  0  0  0  0  0  0
   72.8670   39.1930   -1.0150 C   0  0  0  0  0  0  0  0  0  0  0  0
   73.6960   38.4080   -0.5610 O   0  0  0  0  0  0  0  0  0  0  0  0
   73.2830   40.2800   -1.9310 C   0  0  0  0  0  0  0  0  0  0  0  0
   74.6310   40.3670   -2.2310 O   0  0  0  0  0  0  0  0  0  0  0  0
   73.0020   41.9920   -4.6430 C   0  0  0  0  0  0  0  0  0  0  0  0
   73.3250   43.0320   -5.5350 C   0  0  0  0  0  0  0  0  0  0  0  0
   73.6850   42.6870   -6.9530 C   0  0  0  0  0  0  0  0  0  0  0  0
   76.5307   45.1992   -4.7025 H   0  0  0  0  0  0  0  0  0  0  0  0
   75.8687   44.5583   -6.2445 H   0  0  0  0  0  0  0  0  0  0  0  0
   76.8477   46.0643   -6.2445 H   0  0  0  0  0  0  0  0  0  0  0  0
   74.7310   46.5130   -4.4096 H   0  0  0  0  0  0  0  0  0  0  0  0
   74.9430   47.2219   -6.0625 H   0  0  0  0  0  0  0  0  0  0  0  0
   72.7541   46.2341   -5.9841 H   0  0  0  0  0  0  0  0  0  0  0  0
   73.8199   45.1582   -6.9821 H   0  0  0  0  0  0  0  0  0  0  0  0
   72.9016   45.6553   -3.3799 H   0  0  0  0  0  0  0  0  0  0  0  0
   72.3544   43.7963   -1.8269 H   0  0  0  0  0  0  0  0  0  0  0  0
   68.5269   40.7208   -1.3746 H   0  0  0  0  0  0  0  0  0  0  0  0
   67.6486   38.9436    0.1428 H   0  0  0  0  0  0  0  0  0  0  0  0
   69.2085   37.2660    1.1361 H   0  0  0  0  0  0  0  0  0  0  0  0
   72.4630   37.4130    1.3010 H   0  0  0  0  0  0  0  0  0  0  0  0
   75.2610   40.4270   -1.5410 H   0  0  0  0  0  0  0  0  0  0  0  0
   73.0327   40.9520   -5.0000 H   0  0  0  0  0  0  0  0  0  0  0  0
   74.4792   41.9259   -6.9549 H   0  0  0  0  0  0  0  0  0  0  0  0
   72.7982   42.2929   -7.4709 H   0  0  0  0  0  0  0  0  0  0  0  0
   74.0411   43.5898   -7.4709 H   0  0  0  0  0  0  0  0  0  0  0  0
  1  2  1  0
  2  3  1  0
  3  4  1  0
  4  5  2  0
  5  6  1  0
  6  7  2  0
  7  8  1  0
  8  9  1  0
  9 10  1  0
 10 11  2  0
 11 12  1  0
 12 13  2  0
 13 14  1  0
 14 15  1  0
 14 16  2  0
 16 17  1  0
 17 18  2  0
 17 19  1  0
 19 20  1  0
  7 21  1  0
 21 22  2  0
 22 23  1  0
 22  4  1  0
 19  8  2  0
 16 10  1  0
  1 24  1  0
  1 25  1  0
  1 26  1  0
  2 27  1  0
  2 28  1  0
  3 29  1  0
  3 30  1  0
  5 31  1  0
  6 32  1  0
 11 33  1  0
 12 34  1  0
 13 35  1  0
 15 36  1  0
 20 37  1  0
 21 38  1  0
 23 39  1  0
 23 40  1  0
 23 41  1  0
M  END
>  <meeko>  (6) 
{"is_sidechain": [false], "free_energy": -7.305, "intermolecular_energy": -8.904, "internal_energy": -0.674}

$$$$
cand_055_out
     RDKit          3D

 41 43  0  0  0  0  0  0  0  0999 V2000
   70.4410   47.3070   -5.0010 C   0  0  0  0  0  0  0  0  0  0  0  0
   70.9010   46.5020   -6.2050 C   0  0  0  0  0  0  0  0  0  0  0  0
   72.2930   45.9080   -5.9810 C   0  0  0  0  0  0  0  0  0  0  0  0
   72.2520   44.7090   -5.0600 C   0  0  0  0  0  0  0  0  0  0  0  0
   71.5380   43.5730   -5.4770 C   0  0  0  0  0  0  0  0  0  0  0  0
   71.4550   42.4380   -4.6670 C   0  0  0  0  0  0  0  0  0  0  0  0
   72.0870   42.4040   -3.4210 C   0  0  0  0  0  0  0  0  0  0  0  0
   71.9960   41.2240   -2.5330 C   0  0  0  0  0  0  0  0  0  0  0  0
   70.7190   41.0350   -2.0170 O   0  0  0  0  0  0  0  0  0  0  0  0
   70.4930   39.9750   -1.1770 C   0  0  0  0  0  0  0  0  0  0  0  0
   69.1930   39.8150   -0.6940 C   0  0  0  0  0  0  0  0  0  0  0  0
   68.8960   38.7560    0.1680 C   0  0  0  0  0  0  0  0  0  0  0  0
   69.8970   37.8600    0.5470 C   0  0  0  0  0  0  0  0  0  0  0  0
   71.1930   38.0220    0.0630 C   0  0  0  0  0  0  0  0  0  0  0  0
   72.1250   37.1090    0.4750 O   0  0  0  0  0  0  0  0  0  0  0  0
   71.4900   39.0810   -0.8000 C   0  0  0  0  0  0  0  0  0  0  0  0
   72.8380   39.2880   -1.3300 C   0  0  0  0  0  0  0  0  0  0  0  0
   73.7730   38.5450   -1.0380 O   0  0  0  0  0  0  0  0  0  0  0  0
   73.0470   40.4360   -2.2430 C   0  0  0  0  0  0  0  0  0  0  0  0
   74.3280   40.6280   -2.7280 O   0  0  0  0  0  0  0  0  0  0  0  0
   72.7870   43.5440   -2.9980 C   0  0  0  0  0  0  0  0  0  0  0  0
   72.8750   44.6990   -3.7970 C   0  0  0  0  0  0  0  0  0  0  0  0
   73.6570   45.8770   -3.2870 C   0  0  0  0  0  0  0  0  0  0  0  0
   70.7377   46.7878   -4.0777 H   0  0  0  0  0  0  0  0  0  0  0  0
   70.9060   48.3036   -5.0269 H   0  0  0  0  0  0  0  0  0  0  0  0
   69.3464   47.4123   -5.0269 H   0  0  0  0  0  0  0  0  0  0  0  0
   70.1872   45.6840   -6.3824 H   0  0  0  0  0  0  0  0  0  0  0  0
   70.9477   47.1750   -7.0739 H   0  0  0  0  0  0  0  0  0  0  0  0
   72.7076   45.5973   -6.9513 H   0  0  0  0  0  0  0  0  0  0  0  0
   72.9212   46.6786   -5.5103 H   0  0  0  0  0  0  0  0  0  0  0  0
   71.0368   43.5775   -6.4562 H   0  0  0  0  0  0  0  0  0  0  0  0
   70.8865   41.5623   -5.0133 H   0  0  0  0  0  0  0  0  0  0  0  0
   68.4039   40.5213   -0.9914 H   0  0  0  0  0  0  0  0  0  0  0  0
   67.8718   38.6283    0.5485 H   0  0  0  0  0  0  0  0  0  0  0  0
   69.6628   37.0275    1.2267 H   0  0  0  0  0  0  0  0  0  0  0  0
   72.2550   36.9530    1.3900 H   0  0  0  0  0  0  0  0  0  0  0  0
   74.7090   41.4840   -2.7160 H   0  0  0  0  0  0  0  0  0  0  0  0
   73.2805   43.5346   -2.0150 H   0  0  0  0  0  0  0  0  0  0  0  0
   73.6531   45.8712   -2.1870 H   0  0  0  0  0  0  0  0  0  0  0  0
   74.6933   45.8142   -3.6504 H   0  0  0  0  0  0  0  0  0  0  0  0
   73.1968   46.8077   -3.6504 H   0  0  0  0  0  0  0  0  0  0  0  0
  1  2  1  0
  2  3  1  0
  3  4  1  0
  4  5  2  0
  5  6  1  0
  6  7  2  0
  7  8  1  0
  8  9  1  0
  9 10  1  0
 10 11  2  0
 11 12  1  0
 12 13  2  0
 13 14  1  0
 14 15  1  0
 14 16  2  0
 16 17  1  0
 17 18  2  0
 17 19  1  0
 19 20  1  0
  7 21  1  0
 21 22  2  0
 22 23  1  0
 22  4  1  0
 19  8  2  0
 16 10  1  0
  1 24  1  0
  1 25  1  0
  1 26  1  0
  2 27  1  0
  2 28  1  0
  3 29  1  0
  3 30  1  0
  5 31  1  0
  6 32  1  0
 11 33  1  0
 12 34  1  0
 13 35  1  0
 15 36  1  0
 20 37  1  0
 21 38  1  0
 23 39  1  0
 23 40  1  0
 23 41  1  0
M  END
>  <meeko>  (7) 
{"is_sidechain": [false], "free_energy": -7.247, "intermolecular_energy": -8.855, "internal_energy": -0.652}

$$$$
cand_055_out
     RDKit          3D

 41 43  0  0  0  0  0  0  0  0999 V2000
   70.7770   36.4560    0.9890 C   0  0  0  0  0  0  0  0  0  0  0  0
   70.3470   37.8930    0.7420 C   0  0  0  0  0  0  0  0  0  0  0  0
   71.5500   38.7960    0.4670 C   0  0  0  0  0  0  0  0  0  0  0  0
   71.2690   39.7850   -0.6430 C   0  0  0  0  0  0  0  0  0  0  0  0
   70.4960   40.9200   -0.3450 C   0  0  0  0  0  0  0  0  0  0  0  0
   70.1950   41.8640   -1.3290 C   0  0  0  0  0  0  0  0  0  0  0  0
   70.6600   41.7040   -2.6370 C   0  0  0  0  0  0  0  0  0  0  0  0
   70.3350   42.6760   -3.7040 C   0  0  0  0  0  0  0  0  0  0  0  0
   68.9990   42.6300   -4.0870 O   0  0  0  0  0  0  0  0  0  0  0  0
   68.5620   43.4800   -5.0690 C   0  0  0  0  0  0  0  0  0  0  0  0
   67.2100   43.4100   -5.4120 C   0  0  0  0  0  0  0  0  0  0  0  0
   66.7000   44.2480   -6.4060 C   0  0  0  0  0  0  0  0  0  0  0  0
   67.5400   45.1530   -7.0580 C   0  0  0  0  0  0  0  0  0  0  0  0
   68.8870   45.2210   -6.7130 C   0  0  0  0  0  0  0  0  0  0  0  0
   69.6530   46.1290   -7.3920 O   0  0  0  0  0  0  0  0  0  0  0  0
   69.3970   44.3830   -5.7180 C   0  0  0  0  0  0  0  0  0  0  0  0
   70.8070   44.4220   -5.3270 C   0  0  0  0  0  0  0  0  0  0  0  0
   71.6100   45.1870   -5.8580 O   0  0  0  0  0  0  0  0  0  0  0  0
   71.2460   43.4980   -4.2550 C   0  0  0  0  0  0  0  0  0  0  0  0
   72.5830   43.5350   -3.9020 O   0  0  0  0  0  0  0  0  0  0  0  0
   71.4190   40.5630   -2.9390 C   0  0  0  0  0  0  0  0  0  0  0  0
   71.7260   39.5970   -1.9620 C   0  0  0  0  0  0  0  0  0  0  0  0
   72.5590   38.4080   -2.3530 C   0  0  0  0  0  0  0  0  0  0  0  0
   70.8324   36.2708    2.0719 H   0  0  0  0  0  0  0  0  0  0  0  0
   70.0444   35.7712    0.5369 H   0  0  0  0  0  0  0  0  0  0  0  0
   71.7653   36.2861    0.5369 H   0  0  0  0  0  0  0  0  0  0  0  0
   69.6728   37.9205   -0.1268 H   0  0  0  0  0  0  0  0  0  0  0  0
   69.8366   38.2615    1.6440 H   0  0  0  0  0  0  0  0  0  0  0  0
   71.7956   39.3510    1.3844 H   0  0  0  0  0  0  0  0  0  0  0  0
   72.3902   38.1594    0.1527 H   0  0  0  0  0  0  0  0  0  0  0  0
   70.1223   41.0671    0.6791 H   0  0  0  0  0  0  0  0  0  0  0  0
   69.5854   42.7428   -1.0718 H   0  0  0  0  0  0  0  0  0  0  0  0
   66.5480   42.6961   -4.9001 H   0  0  0  0  0  0  0  0  0  0  0  0
   65.6349   44.1950   -6.6757 H   0  0  0  0  0  0  0  0  0  0  0  0
   67.1382   45.8109   -7.8427 H   0  0  0  0  0  0  0  0  0  0  0  0
   69.2500   46.7300   -7.9880 H   0  0  0  0  0  0  0  0  0  0  0  0
   73.1660   42.8660   -4.2050 H   0  0  0  0  0  0  0  0  0  0  0  0
   71.7839   40.4195   -3.9667 H   0  0  0  0  0  0  0  0  0  0  0  0
   72.9169   37.8971   -1.4469 H   0  0  0  0  0  0  0  0  0  0  0  0
   71.9492   37.7131   -2.9491 H   0  0  0  0  0  0  0  0  0  0  0  0
   73.4204   38.7438   -2.9491 H   0  0  0  0  0  0  0  0  0  0  0  0
  1  2  1  0
  2  3  1  0
  3  4  1  0
  4  5  2  0
  5  6  1  0
  6  7  2  0
  7  8  1  0
  8  9  1  0
  9 10  1  0
 10 11  2  0
 11 12  1  0
 12 13  2  0
 13 14  1  0
 14 15  1  0
 14 16  2  0
 16 17  1  0
 17 18  2  0
 17 19  1  0
 19 20  1  0
  7 21  1  0
 21 22  2  0
 22 23  1  0
 22  4  1  0
 19  8  2  0
 16 10  1  0
  1 24  1  0
  1 25  1  0
  1 26  1  0
  2 27  1  0
  2 28  1  0
  3 29  1  0
  3 30  1  0
  5 31  1  0
  6 32  1  0
 11 33  1  0
 12 34  1  0
 13 35  1  0
 15 36  1  0
 20 37  1  0
 21 38  1  0
 23 39  1  0
 23 40  1  0
 23 41  1  0
M  END
>  <meeko>  (8) 
{"is_sidechain": [false], "free_energy": -7.191, "intermolecular_energy": -8.892, "internal_energy": -0.546}

$$$$
cand_055_out
     RDKit          3D

 41 43  0  0  0  0  0  0  0  0999 V2000
   70.7050   36.7000    0.9870 C   0  0  0  0  0  0  0  0  0  0  0  0
   70.7170   38.2100    1.1660 C   0  0  0  0  0  0  0  0  0  0  0  0
   71.8610   38.8560    0.3830 C   0  0  0  0  0  0  0  0  0  0  0  0
   71.3500   39.8060   -0.6770 C   0  0  0  0  0  0  0  0  0  0  0  0
   70.4970   40.8500   -0.2820 C   0  0  0  0  0  0  0  0  0  0  0  0
   69.9850   41.7540   -1.2160 C   0  0  0  0  0  0  0  0  0  0  0  0
   70.3150   41.6440   -2.5690 C   0  0  0  0  0  0  0  0  0  0  0  0
   69.7680   42.5730   -3.5820 C   0  0  0  0  0  0  0  0  0  0  0  0
   70.6690   43.5680   -3.9440 O   0  0  0  0  0  0  0  0  0  0  0  0
   70.2900   44.4990   -4.8770 C   0  0  0  0  0  0  0  0  0  0  0  0
   71.2300   45.4710   -5.2210 C   0  0  0  0  0  0  0  0  0  0  0  0
   70.9080   46.4500   -6.1630 C   0  0  0  0  0  0  0  0  0  0  0  0
   69.6460   46.4570   -6.7610 C   0  0  0  0  0  0  0  0  0  0  0  0
   68.7100   45.4850   -6.4170 C   0  0  0  0  0  0  0  0  0  0  0  0
   67.4930   45.5520   -7.0390 O   0  0  0  0  0  0  0  0  0  0  0  0
   69.0330   44.5060   -5.4740 C   0  0  0  0  0  0  0  0  0  0  0  0
   68.0780   43.4670   -5.0830 C   0  0  0  0  0  0  0  0  0  0  0  0
   66.9470   43.4110   -5.5590 O   0  0  0  0  0  0  0  0  0  0  0  0
   68.5220   42.4710   -4.0800 C   0  0  0  0  0  0  0  0  0  0  0  0
   67.6070   41.5020   -3.7100 O   0  0  0  0  0  0  0  0  0  0  0  0
   71.1550   40.5920   -2.9670 C   0  0  0  0  0  0  0  0  0  0  0  0
   71.6740   39.6680   -2.0410 C   0  0  0  0  0  0  0  0  0  0  0  0
   72.5820   38.5760   -2.5360 C   0  0  0  0  0  0  0  0  0  0  0  0
   70.7011   36.2138    1.9737 H   0  0  0  0  0  0  0  0  0  0  0  0
   69.8045   36.4041    0.4289 H   0  0  0  0  0  0  0  0  0  0  0  0
   71.6007   36.3898    0.4289 H   0  0  0  0  0  0  0  0  0  0  0  0
   69.7615   38.6204    0.8075 H   0  0  0  0  0  0  0  0  0  0  0  0
   70.8607   38.4307    2.2340 H   0  0  0  0  0  0  0  0  0  0  0  0
   72.5008   39.4139    1.0826 H   0  0  0  0  0  0  0  0  0  0  0  0
   72.4264   38.0566   -0.1183 H   0  0  0  0  0  0  0  0  0  0  0  0
   70.2281   40.9573    0.7792 H   0  0  0  0  0  0  0  0  0  0  0  0
   69.3153   42.5605   -0.8827 H   0  0  0  0  0  0  0  0  0  0  0  0
   72.2242   45.4660   -4.7503 H   0  0  0  0  0  0  0  0  0  0  0  0
   71.6490   47.2164   -6.4343 H   0  0  0  0  0  0  0  0  0  0  0  0
   69.3918   47.2289   -7.5024 H   0  0  0  0  0  0  0  0  0  0  0  0
   66.7810   46.0020   -6.6290 H   0  0  0  0  0  0  0  0  0  0  0  0
   67.6740   40.6360   -4.0610 H   0  0  0  0  0  0  0  0  0  0  0  0
   71.4144   40.4871   -4.0308 H   0  0  0  0  0  0  0  0  0  0  0  0
   73.0216   38.0473   -1.6774 H   0  0  0  0  0  0  0  0  0  0  0  0
   72.0037   37.8668   -3.1463 H   0  0  0  0  0  0  0  0  0  0  0  0
   73.3848   39.0152   -3.1463 H   0  0  0  0  0  0  0  0  0  0  0  0
  1  2  1  0
  2  3  1  0
  3  4  1  0
  4  5  2  0
  5  6  1  0
  6  7  2  0
  7  8  1  0
  8  9  1  0
  9 10  1  0
 10 11  2  0
 11 12  1  0
 12 13  2  0
 13 14  1  0
 14 15  1  0
 14 16  2  0
 16 17  1  0
 17 18  2  0
 17 19  1  0
 19 20  1  0
  7 21  1  0
 21 22  2  0
 22 23  1  0
 22  4  1  0
 19  8  2  0
 16 10  1  0
  1 24  1  0
  1 25  1  0
  1 26  1  0
  2 27  1  0
  2 28  1  0
  3 29  1  0
  3 30  1  0
  5 31  1  0
  6 32  1  0
 11 33  1  0
 12 34  1  0
 13 35  1  0
 15 36  1  0
 20 37  1  0
 21 38  1  0
 23 39  1  0
 23 40  1  0
 23 41  1  0
M  END
>  <meeko>  (9) 
{"is_sidechain": [false], "free_energy": -7.09, "intermolecular_energy": -8.702, "internal_energy": -0.611}

$$$$
