cand_001_out
     RDKit          3D

 45 48  0  0  0  0  0  0  0  0999 V2000
   67.9450   40.5070   -2.3090 C   0  0  0  0  0  0  0  0  0  0  0  0
   69.3500   41.0180   -2.4750 C   0  0  0  0  0  0  0  0  0  0  0  0
   69.6900   41.6770   -3.6660 C   0  0  0  0  0  0  0  0  0  0  0  0
   70.9720   42.1980   -3.8600 C   0  0  0  0  0  0  0  0  0  0  0  0
   71.9470   42.0860   -2.8630 C   0  0  0  0  0  0  0  0  0  0  0  0
   73.3020   42.6310   -3.0920 C   0  0  0  0  0  0  0  0  0  0  0  0
   73.3360   44.0210   -3.0630 O   0  0  0  0  0  0  0  0  0  0  0  0
   74.5350   44.6580   -3.2610 C   0  0  0  0  0  0  0  0  0  0  0  0
   74.5220   46.0540   -3.2380 C   0  0  0  0  0  0  0  0  0  0  0  0
   75.7080   46.7640   -3.4310 C   0  0  0  0  0  0  0  0  0  0  0  0
   76.9060   46.0810   -3.6450 C   0  0  0  0  0  0  0  0  0  0  0  0
   76.9170   44.6890   -3.6670 C   0  0  0  0  0  0  0  0  0  0  0  0
   78.1250   44.0840   -3.8810 O   0  0  0  0  0  0  0  0  0  0  0  0
   75.7290   43.9780   -3.4750 C   0  0  0  0  0  0  0  0  0  0  0  0
   75.6970   42.5150   -3.4900 C   0  0  0  0  0  0  0  0  0  0  0  0
   76.7100   41.8420   -3.6650 O   0  0  0  0  0  0  0  0  0  0  0  0
   74.3850   41.8570   -3.2840 C   0  0  0  0  0  0  0  0  0  0  0  0
   74.3680   40.4740   -3.2870 O   0  0  0  0  0  0  0  0  0  0  0  0
   71.6100   41.4230   -1.6750 C   0  0  0  0  0  0  0  0  0  0  0  0
   70.3200   40.8940   -1.4590 C   0  0  0  0  0  0  0  0  0  0  0  0
   70.0310   40.2230   -0.1280 C   0  0  0  0  0  0  0  0  0  0  0  0
   70.6730   38.8650    0.0570 C   0  0  0  0  0  0  0  0  0  0  0  0
   71.9380   38.6040   -0.4910 C   0  0  0  0  0  0  0  0  0  0  0  0
   72.5500   37.3620   -0.3060 C   0  0  0  0  0  0  0  0  0  0  0  0
   71.9090   36.3710    0.4340 C   0  0  0  0  0  0  0  0  0  0  0  0
   70.6580   36.6220    0.9940 C   0  0  0  0  0  0  0  0  0  0  0  0
   70.0460   37.8620    0.8120 C   0  0  0  0  0  0  0  0  0  0  0  0
   67.7101   40.4216   -1.2378 H   0  0  0  0  0  0  0  0  0  0  0  0
   67.2418   41.2069   -2.7839 H   0  0  0  0  0  0  0  0  0  0  0  0
   67.8557   39.5188   -2.7839 H   0  0  0  0  0  0  0  0  0  0  0  0
   68.9357   41.7852   -4.4593 H   0  0  0  0  0  0  0  0  0  0  0  0
   71.2172   42.7016   -4.8067 H   0  0  0  0  0  0  0  0  0  0  0  0
   73.5785   46.5934   -3.0680 H   0  0  0  0  0  0  0  0  0  0  0  0
   75.6984   47.8638   -3.4144 H   0  0  0  0  0  0  0  0  0  0  0  0
   77.8403   46.6417   -3.7961 H   0  0  0  0  0  0  0  0  0  0  0  0
   78.2770   43.6080   -4.6740 H   0  0  0  0  0  0  0  0  0  0  0  0
   74.9810   39.9990   -3.8130 H   0  0  0  0  0  0  0  0  0  0  0  0
   72.3721   41.3121   -0.8896 H   0  0  0  0  0  0  0  0  0  0  0  0
   70.3938   40.8838    0.6731 H   0  0  0  0  0  0  0  0  0  0  0  0
   68.9442   40.0557   -0.0979 H   0  0  0  0  0  0  0  0  0  0  0  0
   72.4523   39.3842   -1.0714 H   0  0  0  0  0  0  0  0  0  0  0  0
   73.5393   37.1663   -0.7452 H   0  0  0  0  0  0  0  0  0  0  0  0
   72.3897   35.3918    0.5760 H   0  0  0  0  0  0  0  0  0  0  0  0
   70.1523   35.8409    1.5806 H   0  0  0  0  0  0  0  0  0  0  0  0
   69.0623   38.0556    1.2647 H   0  0  0  0  0  0  0  0  0  0  0  0
  1  2  1  0
  2  3  2  0
  3  4  1  0
  4  5  2  0
  5  6  1  0
  6  7  1  0
  7  8  1  0
  8  9  2  0
  9 10  1  0
 10 11  2  0
 11 12  1  0
 12 13  1  0
 12 14  2  0
 14 15  1  0
 15 16  2  0
 15 17  1  0
 17 18  1  0
  5 19  1  0
 19 20  2  0
 20 21  1  0
 21 22  1  0
 22 23  2  0
 23 24  1  0
 24 25  2  0
 25 26  1  0
 26 27  2  0
 20  2  1  0
 27 22  1  0
 17  6  2  0
 14  8  1  0
  1 28  1  0
  1 29  1  0
  1 30  1  0
  3 31  1  0
  4 32  1  0
  9 33  1  0
 10 34  1  0
 11 35  1  0
 13 36  1  0
 18 37  1  0
 19 38  1  0
 21 39  1  0
 21 40  1  0
 23 41  1  0
 24 42  1  0
 25 43  1  0
 26 44  1  0
 27 45  1  0
M  END
>  <meeko>  (1) 
{"is_sidechain": [false], "free_energy": -8.841, "intermolecular_energy": -10.909, "internal_energy": -0.575}

$$$$
cand_001_out
     RDKit          3D

 45 48  0  0  0  0  0  0  0  0999 V2000
   74.3980   41.1790   -2.0600 C   0  0  0  0  0  0  0  0  0  0  0  0
   73.0450   41.6240   -2.5460 C   0  0  0  0  0  0  0  0  0  0  0  0
   72.8110   42.9960   -2.7180 C   0  0  0  0  0  0  0  0  0  0  0  0
   71.5830   43.4630   -3.1960 C   0  0  0  0  0  0  0  0  0  0  0  0
   70.5600   42.5690   -3.5260 C   0  0  0  0  0  0  0  0  0  0  0  0
   69.2620   43.0820   -4.0170 C   0  0  0  0  0  0  0  0  0  0  0  0
   69.2810   43.3850   -5.3740 O   0  0  0  0  0  0  0  0  0  0  0  0
   68.1390   43.8710   -5.9590 C   0  0  0  0  0  0  0  0  0  0  0  0
   68.2050   44.1770   -7.3190 C   0  0  0  0  0  0  0  0  0  0  0  0
   67.0780   44.6740   -7.9770 C   0  0  0  0  0  0  0  0  0  0  0  0
   65.8860   44.8640   -7.2760 C   0  0  0  0  0  0  0  0  0  0  0  0
   65.8220   44.5580   -5.9190 C   0  0  0  0  0  0  0  0  0  0  0  0
   64.6230   44.7680   -5.2950 O   0  0  0  0  0  0  0  0  0  0  0  0
   66.9510   44.0610   -5.2610 C   0  0  0  0  0  0  0  0  0  0  0  0
   66.9260   43.7270   -3.8360 C   0  0  0  0  0  0  0  0  0  0  0  0
   65.9130   43.8600   -3.1530 O   0  0  0  0  0  0  0  0  0  0  0  0
   68.1780   43.2150   -3.2320 C   0  0  0  0  0  0  0  0  0  0  0  0
   68.1400   42.8890   -1.8880 O   0  0  0  0  0  0  0  0  0  0  0  0
   70.7910   41.1980   -3.3500 C   0  0  0  0  0  0  0  0  0  0  0  0
   72.0250   40.7070   -2.8730 C   0  0  0  0  0  0  0  0  0  0  0  0
   72.2010   39.2050   -2.7460 C   0  0  0  0  0  0  0  0  0  0  0  0
   71.7640   38.6190   -1.4210 C   0  0  0  0  0  0  0  0  0  0  0  0
   70.5710   39.0480   -0.8210 C   0  0  0  0  0  0  0  0  0  0  0  0
   70.1460   38.4970    0.3900 C   0  0  0  0  0  0  0  0  0  0  0  0
   70.9030   37.5060    1.0100 C   0  0  0  0  0  0  0  0  0  0  0  0
   72.0840   37.0620    0.4190 C   0  0  0  0  0  0  0  0  0  0  0  0
   72.5100   37.6100   -0.7920 C   0  0  0  0  0  0  0  0  0  0  0  0
   74.4095   41.1752   -0.9601 H   0  0  0  0  0  0  0  0  0  0  0  0
   74.6061   40.1651   -2.4324 H   0  0  0  0  0  0  0  0  0  0  0  0
   75.1673   41.8714   -2.4324 H   0  0  0  0  0  0  0  0  0  0  0  0
   73.6059   43.7158   -2.4730 H   0  0  0  0  0  0  0  0  0  0  0  0
   71.4201   44.5445   -3.3136 H   0  0  0  0  0  0  0  0  0  0  0  0
   69.1439   44.0268   -7.8721 H   0  0  0  0  0  0  0  0  0  0  0  0
   67.1297   44.9160   -9.0488 H   0  0  0  0  0  0  0  0  0  0  0  0
   64.9983   45.2549   -7.7948 H   0  0  0  0  0  0  0  0  0  0  0  0
   64.2800   44.1210   -4.7100 H   0  0  0  0  0  0  0  0  0  0  0  0
   67.3510   42.5540   -1.5090 H   0  0  0  0  0  0  0  0  0  0  0  0
   69.9885   40.4851   -3.5902 H   0  0  0  0  0  0  0  0  0  0  0  0
   71.6134   38.7242   -3.5420 H   0  0  0  0  0  0  0  0  0  0  0  0
   73.2815   39.0147   -2.8246 H   0  0  0  0  0  0  0  0  0  0  0  0
   69.9646   39.8255   -1.3086 H   0  0  0  0  0  0  0  0  0  0  0  0
   69.2121   38.8463    0.8547 H   0  0  0  0  0  0  0  0  0  0  0  0
   70.5689   37.0744    1.9650 H   0  0  0  0  0  0  0  0  0  0  0  0
   72.6817   36.2783    0.9075 H   0  0  0  0  0  0  0  0  0  0  0  0
   73.4385   37.2479   -1.2575 H   0  0  0  0  0  0  0  0  0  0  0  0
  1  2  1  0
  2  3  2  0
  3  4  1  0
  4  5  2  0
  5  6  1  0
  6  7  1  0
  7  8  1  0
  8  9  2  0
  9 10  1  0
 10 11  2  0
 11 12  1  0
 12 13  1  0
 12 14  2  0
 14 15  1  0
 15 16  2  0
 15 17  1  0
 17 18  1  0
  5 19  1  0
 19 20  2  0
 20 21  1  0
 21 22  1  0
 22 23  2  0
 23 24  1  0
 24 25  2  0
 25 26  1  0
 26 27  2  0
 20  2  1  0
 27 22  1  0
 17  6  2  0
 14  8  1  0
  1 28  1  0
  1 29  1  0
  1 30  1  0
  3 31  1  0
  4 32  1  0
  9 33  1  0
 10 34  1  0
 11 35  1  0
 13 36  1  0
 18 37  1  0
 19 38  1  0
 21 39  1  0
 21 40  1  0
 23 41  1  0
 24 42  1  0
 25 43  1  0
 26 44  1  0
 27 45  1  0
M  END
>  <meeko>  (2) 
{"is_sidechain": [false], "free_energy": -8.729, "intermolecular_energy": -10.468, "internal_energy": -0.877}

$$$$
cand_001_out
     RDKit          3D

 45 48  0  0  0  0  0  0  0  0999 V2000
   66.8890   39.5570   -1.7300 C   0  0  0  0  0  0  0  0  0  0  0  0
   68.1630   40.3280   -1.9420 C   0  0  0  0  0  0  0  0  0  0  0  0
   68.2520   41.1880   -3.0470 C   0  0  0  0  0  0  0  0  0  0  0  0
   69.4010   41.9510   -3.2740 C   0  0  0  0  0  0  0  0  0  0  0  0
   70.4870   41.8850   -2.3960 C   0  0  0  0  0  0  0  0  0  0  0  0
   71.6990   42.6890   -2.6600 C   0  0  0  0  0  0  0  0  0  0  0  0
   72.8710   42.0360   -2.2930 O   0  0  0  0  0  0  0  0  0  0  0  0
   74.0720   42.6710   -2.4860 C   0  0  0  0  0  0  0  0  0  0  0  0
   75.2210   41.9860   -2.0900 C   0  0  0  0  0  0  0  0  0  0  0  0
   76.4750   42.5740   -2.2590 C   0  0  0  0  0  0  0  0  0  0  0  0
   76.5810   43.8460   -2.8240 C   0  0  0  0  0  0  0  0  0  0  0  0
   75.4330   44.5280   -3.2190 C   0  0  0  0  0  0  0  0  0  0  0  0
   75.6090   45.7690   -3.7660 O   0  0  0  0  0  0  0  0  0  0  0  0
   74.1770   43.9380   -3.0490 C   0  0  0  0  0  0  0  0  0  0  0  0
   72.9460   44.6210   -3.4500 C   0  0  0  0  0  0  0  0  0  0  0  0
   72.9570   45.7380   -3.9610 O   0  0  0  0  0  0  0  0  0  0  0  0
   71.6650   43.9120   -3.2190 C   0  0  0  0  0  0  0  0  0  0  0  0
   70.5080   44.5610   -3.6140 O   0  0  0  0  0  0  0  0  0  0  0  0
   70.4010   41.0220   -1.2950 C   0  0  0  0  0  0  0  0  0  0  0  0
   69.2480   40.2470   -1.0460 C   0  0  0  0  0  0  0  0  0  0  0  0
   69.2260   39.3670    0.1900 C   0  0  0  0  0  0  0  0  0  0  0  0
   70.3580   38.3660    0.2840 C   0  0  0  0  0  0  0  0  0  0  0  0
   71.4840   38.4970   -0.5440 C   0  0  0  0  0  0  0  0  0  0  0  0
   72.5440   37.5930   -0.4500 C   0  0  0  0  0  0  0  0  0  0  0  0
   72.4960   36.5540    0.4760 C   0  0  0  0  0  0  0  0  0  0  0  0
   71.3900   36.4200    1.3130 C   0  0  0  0  0  0  0  0  0  0  0  0
   70.3290   37.3230    1.2210 C   0  0  0  0  0  0  0  0  0  0  0  0
   66.7035   39.4447   -0.6516 H   0  0  0  0  0  0  0  0  0  0  0  0
   66.0509   40.0996   -2.1917 H   0  0  0  0  0  0  0  0  0  0  0  0
   66.9809   38.5628   -2.1917 H   0  0  0  0  0  0  0  0  0  0  0  0
   67.4051   41.2629   -3.7450 H   0  0  0  0  0  0  0  0  0  0  0  0
   69.4513   42.6105   -4.1529 H   0  0  0  0  0  0  0  0  0  0  0  0
   75.1384   40.9834   -1.6450 H   0  0  0  0  0  0  0  0  0  0  0  0
   77.3813   42.0345   -1.9466 H   0  0  0  0  0  0  0  0  0  0  0  0
   77.5699   44.3090   -2.9570 H   0  0  0  0  0  0  0  0  0  0  0  0
   75.9840   45.8560   -4.6200 H   0  0  0  0  0  0  0  0  0  0  0  0
   69.8690   44.8080   -2.9760 H   0  0  0  0  0  0  0  0  0  0  0  0
   71.2554   40.9466   -0.6062 H   0  0  0  0  0  0  0  0  0  0  0  0
   69.2735   40.0196    1.0742 H   0  0  0  0  0  0  0  0  0  0  0  0
   68.2991   38.7776    0.1309 H   0  0  0  0  0  0  0  0  0  0  0  0
   71.5317   39.3191   -1.2733 H   0  0  0  0  0  0  0  0  0  0  0  0
   73.4184   37.7017   -1.1085 H   0  0  0  0  0  0  0  0  0  0  0  0
   73.3299   35.8401    0.5466 H   0  0  0  0  0  0  0  0  0  0  0  0
   71.3527   35.6017    2.0472 H   0  0  0  0  0  0  0  0  0  0  0  0
   69.4623   37.2153    1.8897 H   0  0  0  0  0  0  0  0  0  0  0  0
  1  2  1  0
  2  3  2  0
  3  4  1  0
  4  5  2  0
  5  6  1  0
  6  7  1  0
  7  8  1  0
  8  9  2  0
  9 10  1  0
 10 11  2  0
 11 12  1  0
 12 13  1  0
 12 14  2  0
 14 15  1  0
 15 16  2  0
 15 17  1  0
 17 18  1  0
  5 19  1  0
 19 20  2  0
 20 21  1  0
 21 22  1  0
 22 23  2  0
 23 24  1  0
 24 25  2  0
 25 26  1  0
 26 27  2  0
 20  2  1  0
 27 22  1  0
 17  6  2  0
 14  8  1  0
  1 28  1  0
  1 29  1  0
  1 30  1  0
  3 31  1  0
  4 32  1  0
  9 33  1  0
 10 34  1  0
 11 35  1  0
 13 36  1  0
 18 37  1  0
 19 38  1  0
 21 39  1  0
 21 40  1  0
 23 41  1  0
 24 42  1  0
 25 43  1  0
 26 44  1  0
 27 45  1  0
M  END
>  <meeko>  (3) 
{"is_sidechain": [false], "free_energy": -8.65, "intermolecular_energy": -11.343, "internal_energy": 0.095}

$$$$
cand_001_out
     RDKit          3D

 45 48  0  0  0  0  0  0  0  0999 V2000
   73.1380   45.5260   -5.8740 C   0  0  0  0  0  0  0  0  0  0  0  0
   72.9370   44.3330   -4.9810 C   0  0  0  0  0  0  0  0  0  0  0  0
   72.5310   44.5460   -3.6550 C   0  0  0  0  0  0  0  0  0  0  0  0
   72.3000   43.4720   -2.7910 C   0  0  0  0  0  0  0  0  0  0  0  0
   72.4570   42.1540   -3.2330 C   0  0  0  0  0  0  0  0  0  0  0  0
   72.2220   41.0310   -2.3000 C   0  0  0  0  0  0  0  0  0  0  0  0
   70.8840   40.8950   -1.9450 O   0  0  0  0  0  0  0  0  0  0  0  0
   70.5270   39.8890   -1.0840 C   0  0  0  0  0  0  0  0  0  0  0  0
   69.1770   39.7980   -0.7420 C   0  0  0  0  0  0  0  0  0  0  0  0
   68.7450   38.7960    0.1280 C   0  0  0  0  0  0  0  0  0  0  0  0
   69.6610   37.8860    0.6570 C   0  0  0  0  0  0  0  0  0  0  0  0
   71.0080   37.9780    0.3150 C   0  0  0  0  0  0  0  0  0  0  0  0
   71.8500   37.0540    0.8680 O   0  0  0  0  0  0  0  0  0  0  0  0
   71.4400   38.9820   -0.5570 C   0  0  0  0  0  0  0  0  0  0  0  0
   72.8450   39.1140   -0.9420 C   0  0  0  0  0  0  0  0  0  0  0  0
   73.7100   38.3470   -0.5250 O   0  0  0  0  0  0  0  0  0  0  0  0
   73.2010   40.2170   -1.8650 C   0  0  0  0  0  0  0  0  0  0  0  0
   74.5300   40.3250   -2.2340 O   0  0  0  0  0  0  0  0  0  0  0  0
   72.8680   41.9400   -4.5550 C   0  0  0  0  0  0  0  0  0  0  0  0
   73.1010   43.0110   -5.4440 C   0  0  0  0  0  0  0  0  0  0  0  0
   73.5090   42.6880   -6.8700 C   0  0  0  0  0  0  0  0  0  0  0  0
   74.9700   42.9210   -7.1860 C   0  0  0  0  0  0  0  0  0  0  0  0
   75.3360   43.8040   -8.2140 C   0  0  0  0  0  0  0  0  0  0  0  0
   76.6820   44.0450   -8.4990 C   0  0  0  0  0  0  0  0  0  0  0  0
   77.6770   43.4130   -7.7560 C   0  0  0  0  0  0  0  0  0  0  0  0
   77.3270   42.5430   -6.7250 C   0  0  0  0  0  0  0  0  0  0  0  0
   75.9830   42.3020   -6.4380 C   0  0  0  0  0  0  0  0  0  0  0  0
   73.2893   46.4242   -5.2573 H   0  0  0  0  0  0  0  0  0  0  0  0
   74.0215   45.3640   -6.5090 H   0  0  0  0  0  0  0  0  0  0  0  0
   72.2502   45.6625   -6.5090 H   0  0  0  0  0  0  0  0  0  0  0  0
   72.3923   45.5743   -3.2897 H   0  0  0  0  0  0  0  0  0  0  0  0
   71.9916   43.6650   -1.7529 H   0  0  0  0  0  0  0  0  0  0  0  0
   68.4542   40.5154   -1.1578 H   0  0  0  0  0  0  0  0  0  0  0  0
   67.6809   38.7235    0.3971 H   0  0  0  0  0  0  0  0  0  0  0  0
   69.3197   37.0970    1.3433 H   0  0  0  0  0  0  0  0  0  0  0  0
   72.5870   36.7410    0.3820 H   0  0  0  0  0  0  0  0  0  0  0  0
   74.7610   40.7470   -3.0370 H   0  0  0  0  0  0  0  0  0  0  0  0
   73.0131   40.9090   -4.9099 H   0  0  0  0  0  0  0  0  0  0  0  0
   73.2844   41.6276   -7.0572 H   0  0  0  0  0  0  0  0  0  0  0  0
   72.9419   43.3753   -7.5149 H   0  0  0  0  0  0  0  0  0  0  0  0
   74.5556   44.3108   -8.8006 H   0  0  0  0  0  0  0  0  0  0  0  0
   76.9568   44.7345   -9.3109 H   0  0  0  0  0  0  0  0  0  0  0  0
   78.7369   43.6004   -7.9828 H   0  0  0  0  0  0  0  0  0  0  0  0
   78.1118   42.0454   -6.1364 H   0  0  0  0  0  0  0  0  0  0  0  0
   75.7150   41.6202   -5.6175 H   0  0  0  0  0  0  0  0  0  0  0  0
  1  2  1  0
  2  3  2  0
  3  4  1  0
  4  5  2  0
  5  6  1  0
  6  7  1  0
  7  8  1  0
  8  9  2  0
  9 10  1  0
 10 11  2  0
 11 12  1  0
 12 13  1  0
 12 14  2  0
 14 15  1  0
 15 16  2  0
 15 17  1  0
 17 18  1  0
  5 19  1  0
 19 20  2  0
 20 21  1  0
 21 22  1  0
 22 23  2  0
 23 24  1  0
 24 25  2  0
 25 26  1  0
 26 27  2  0
 20  2  1  0
 27 22  1  0
 17  6  2  0
 14  8  1  0
  1 28  1  0
  1 29  1  0
  1 30  1  0
  3 31  1  0
  4 32  1  0
  9 33  1  0
 10 34  1  0
 11 35  1  0
 13 36  1  0
 18 37  1  0
 19 38  1  0
 21 39  1  0
 21 40  1  0
 23 41  1  0
 24 42  1  0
 25 43  1  0
 26 44  1  0
 27 45  1  0
M  END
>  <meeko>  (4) 
{"is_sidechain": [false], "free_energy": -8.631, "intermolecular_energy": -10.372, "internal_energy": -0.852}

$$$$
cand_001_out
     RDKit          3D

 45 48  0  0  0  0  0  0  0  0999 V2000
   74.4510   41.1010   -2.1850 C   0  0  0  0  0  0  0  0  0  0  0  0
   73.0630   41.5920   -2.4950 C   0  0  0  0  0  0  0  0  0  0  0  0
   72.8450   42.9740   -2.5960 C   0  0  0  0  0  0  0  0  0  0  0  0
   71.5820   43.4830   -2.9120 C   0  0  0  0  0  0  0  0  0  0  0  0
   70.5050   42.6230   -3.1480 C   0  0  0  0  0  0  0  0  0  0  0  0
   69.1730   43.1800   -3.4670 C   0  0  0  0  0  0  0  0  0  0  0  0
   68.3780   43.3570   -2.3390 O   0  0  0  0  0  0  0  0  0  0  0  0
   67.1150   43.8690   -2.4930 C   0  0  0  0  0  0  0  0  0  0  0  0
   66.3460   44.0170   -1.3380 C   0  0  0  0  0  0  0  0  0  0  0  0
   65.0520   44.5340   -1.4240 C   0  0  0  0  0  0  0  0  0  0  0  0
   64.5270   44.9030   -2.6640 C   0  0  0  0  0  0  0  0  0  0  0  0
   65.2950   44.7540   -3.8150 C   0  0  0  0  0  0  0  0  0  0  0  0
   64.7200   45.1360   -4.9960 O   0  0  0  0  0  0  0  0  0  0  0  0
   66.5910   44.2360   -3.7280 C   0  0  0  0  0  0  0  0  0  0  0  0
   67.4320   44.0650   -4.9140 C   0  0  0  0  0  0  0  0  0  0  0  0
   67.0440   44.3730   -6.0390 O   0  0  0  0  0  0  0  0  0  0  0  0
   68.7870   43.5000   -4.7150 C   0  0  0  0  0  0  0  0  0  0  0  0
   69.5790   43.3540   -5.8410 O   0  0  0  0  0  0  0  0  0  0  0  0
   70.7200   41.2420   -3.0420 C   0  0  0  0  0  0  0  0  0  0  0  0
   71.9880   40.7090   -2.7290 C   0  0  0  0  0  0  0  0  0  0  0  0
   72.1410   39.2000   -2.6700 C   0  0  0  0  0  0  0  0  0  0  0  0
   71.7220   38.5650   -1.3620 C   0  0  0  0  0  0  0  0  0  0  0  0
   72.5520   37.6170   -0.7420 C   0  0  0  0  0  0  0  0  0  0  0  0
   72.1870   37.0420    0.4770 C   0  0  0  0  0  0  0  0  0  0  0  0
   70.9950   37.4130    1.0950 C   0  0  0  0  0  0  0  0  0  0  0  0
   70.1680   38.3610    0.4960 C   0  0  0  0  0  0  0  0  0  0  0  0
   70.5310   38.9380   -0.7220 C   0  0  0  0  0  0  0  0  0  0  0  0
   74.5878   41.0526   -1.0946 H   0  0  0  0  0  0  0  0  0  0  0  0
   74.5905   40.0990   -2.6169 H   0  0  0  0  0  0  0  0  0  0  0  0
   75.1895   41.7924   -2.6169 H   0  0  0  0  0  0  0  0  0  0  0  0
   73.6809   43.6680   -2.4239 H   0  0  0  0  0  0  0  0  0  0  0  0
   71.4339   44.5711   -2.9757 H   0  0  0  0  0  0  0  0  0  0  0  0
   66.7590   43.7266   -0.3607 H   0  0  0  0  0  0  0  0  0  0  0  0
   64.4454   44.6508   -0.5138 H   0  0  0  0  0  0  0  0  0  0  0  0
   63.5077   45.3110   -2.7311 H   0  0  0  0  0  0  0  0  0  0  0  0
   65.2340   45.5640   -5.6510 H   0  0  0  0  0  0  0  0  0  0  0  0
   69.2130   43.4950   -6.6910 H   0  0  0  0  0  0  0  0  0  0  0  0
   69.8769   40.5551   -3.2074 H   0  0  0  0  0  0  0  0  0  0  0  0
   71.5287   38.7634   -3.4728 H   0  0  0  0  0  0  0  0  0  0  0  0
   73.2162   38.9957   -2.7802 H   0  0  0  0  0  0  0  0  0  0  0  0
   73.4982   37.3248   -1.2209 H   0  0  0  0  0  0  0  0  0  0  0  0
   72.8416   36.2951    0.9499 H   0  0  0  0  0  0  0  0  0  0  0  0
   70.7071   36.9583    2.0543 H   0  0  0  0  0  0  0  0  0  0  0  0
   69.2271   38.6553    0.9840 H   0  0  0  0  0  0  0  0  0  0  0  0
   69.8770   39.6921   -1.1842 H   0  0  0  0  0  0  0  0  0  0  0  0
  1  2  1  0
  2  3  2  0
  3  4  1  0
  4  5  2  0
  5  6  1  0
  6  7  1  0
  7  8  1  0
  8  9  2  0
  9 10  1  0
 10 11  2  0
 11 12  1  0
 12 13  1  0
 12 14  2  0
 14 15  1  0
 15 16  2  0
 15 17  1  0
 17 18  1  0
  5 19  1  0
 19 20  2  0
 20 21  1  0
 21 22  1  0
 22 23  2  0
 23 24  1  0
 24 25  2  0
 25 26  1  0
 26 27  2  0
 20  2  1  0
 27 22  1  0
 17  6  2  0
 14  8  1  0
  1 28  1  0
  1 29  1  0
  1 30  1  0
  3 31  1  0
  4 32  1  0
  9 33  1  0
 10 34  1  0
 11 35  1  0
 13 36  1  0
 18 37  1  0
 19 38  1  0
 21 39  1  0
 21 40  1  0
 23 41  1  0
 24 42  1  0
 25 43  1  0
 26 44  1  0
 27 45  1  0
M  END
>  <meeko>  (5) 
{"is_sidechain": [false], "free_energy": -8.354, "intermolecular_energy": -10.045, "internal_energy": -0.838}

$$$$
cand_001_out
     RDKit          3D

 45 48  0  0  0  0  0  0  0  0999 V2000
   77.2770   43.5990   -2.9240 C   0  0  0  0  0  0  0  0  0  0  0  0
   75.8490   43.1300   -2.8680 C   0  0  0  0  0  0  0  0  0  0  0  0
   75.5540   41.9570   -2.1570 C   0  0  0  0  0  0  0  0  0  0  0  0
   74.2410   41.4930   -2.0470 C   0  0  0  0  0  0  0  0  0  0  0  0
   73.1840   42.1960   -2.6340 C   0  0  0  0  0  0  0  0  0  0  0  0
   71.8020   41.6820   -2.5200 C   0  0  0  0  0  0  0  0  0  0  0  0
   71.6040   40.9200   -1.3730 O   0  0  0  0  0  0  0  0  0  0  0  0
   70.3630   40.3820   -1.1420 C   0  0  0  0  0  0  0  0  0  0  0  0
   70.2110   39.6120    0.0120 C   0  0  0  0  0  0  0  0  0  0  0  0
   68.9740   39.0370    0.3080 C   0  0  0  0  0  0  0  0  0  0  0  0
   67.8900   39.2310   -0.5490 C   0  0  0  0  0  0  0  0  0  0  0  0
   68.0430   39.9990   -1.7000 C   0  0  0  0  0  0  0  0  0  0  0  0
   66.9400   40.1480   -2.4940 O   0  0  0  0  0  0  0  0  0  0  0  0
   69.2820   40.5740   -1.9960 C   0  0  0  0  0  0  0  0  0  0  0  0
   69.4860   41.3890   -3.1950 C   0  0  0  0  0  0  0  0  0  0  0  0
   68.5790   41.6110   -3.9940 O   0  0  0  0  0  0  0  0  0  0  0  0
   70.8400   41.9470   -3.4210 C   0  0  0  0  0  0  0  0  0  0  0  0
   71.0180   42.7260   -4.5500 O   0  0  0  0  0  0  0  0  0  0  0  0
   73.4780   43.3650   -3.3490 C   0  0  0  0  0  0  0  0  0  0  0  0
   74.7970   43.8520   -3.4670 C   0  0  0  0  0  0  0  0  0  0  0  0
   75.0200   45.1460   -4.2290 C   0  0  0  0  0  0  0  0  0  0  0  0
   74.6700   46.4060   -3.4680 C   0  0  0  0  0  0  0  0  0  0  0  0
   75.6630   47.0990   -2.7580 C   0  0  0  0  0  0  0  0  0  0  0  0
   75.3560   48.2760   -2.0720 C   0  0  0  0  0  0  0  0  0  0  0  0
   74.0570   48.7770   -2.0930 C   0  0  0  0  0  0  0  0  0  0  0  0
   73.0640   48.1060   -2.8030 C   0  0  0  0  0  0  0  0  0  0  0  0
   73.3690   46.9300   -3.4910 C   0  0  0  0  0  0  0  0  0  0  0  0
   77.6618   43.7254   -1.9013 H   0  0  0  0  0  0  0  0  0  0  0  0
   77.8870   42.8540   -3.4558 H   0  0  0  0  0  0  0  0  0  0  0  0
   77.3265   44.5606   -3.4558 H   0  0  0  0  0  0  0  0  0  0  0  0
   76.3692   41.3941   -1.6788 H   0  0  0  0  0  0  0  0  0  0  0  0
   74.0363   40.5650   -1.4929 H   0  0  0  0  0  0  0  0  0  0  0  0
   71.0653   39.4584    0.6877 H   0  0  0  0  0  0  0  0  0  0  0  0
   68.8536   38.4304    1.2177 H   0  0  0  0  0  0  0  0  0  0  0  0
   66.9155   38.7775   -0.3153 H   0  0  0  0  0  0  0  0  0  0  0  0
   66.9930   39.9590   -3.4100 H   0  0  0  0  0  0  0  0  0  0  0  0
   70.8550   43.6480   -4.5140 H   0  0  0  0  0  0  0  0  0  0  0  0
   72.6583   43.9178   -3.8312 H   0  0  0  0  0  0  0  0  0  0  0  0
   76.0831   45.1994   -4.5065 H   0  0  0  0  0  0  0  0  0  0  0  0
   74.3429   45.1126   -5.0953 H   0  0  0  0  0  0  0  0  0  0  0  0
   76.6923   46.7114   -2.7418 H   0  0  0  0  0  0  0  0  0  0  0  0
   76.1411   48.8078   -1.5145 H   0  0  0  0  0  0  0  0  0  0  0  0
   73.8151   49.7021   -1.5492 H   0  0  0  0  0  0  0  0  0  0  0  0
   72.0384   48.5031   -2.8216 H   0  0  0  0  0  0  0  0  0  0  0  0
   72.5818   46.4096   -4.0563 H   0  0  0  0  0  0  0  0  0  0  0  0
  1  2  1  0
  2  3  2  0
  3  4  1  0
  4  5  2  0
  5  6  1  0
  6  7  1  0
  7  8  1  0
  8  9  2  0
  9 10  1  0
 10 11  2  0
 11 12  1  0
 12 13  1  0
 12 14  2  0
 14 15  1  0
 15 16  2  0
 15 17  1  0
 17 18  1  0
  5 19  1  0
 19 20  2  0
 20 21  1  0
 21 22  1  0
 22 23  2  0
 23 24  1  0
 24 25  2  0
 25 26  1  0
 26 27  2  0
 20  2  1  0
 27 22  1  0
 17  6  2  0
 14  8  1  0
  1 28  1  0
  1 29  1  0
  1 30  1  0
  3 31  1  0
  4 32  1  0
  9 33  1  0
 10 34  1  0
 11 35  1  0
 13 36  1  0
 18 37  1  0
 19 38  1  0
 21 39  1  0
 21 40  1  0
 23 41  1  0
 24 42  1  0
 25 43  1  0
 26 44  1  0
 27 45  1  0
M  END
>  <meeko>  (6) 
{"is_sidechain": [false], "free_energy": -8.339, "intermolecular_energy": -10.365, "internal_energy": -0.5}

$$$$
cand_001_out
     RDKit          3D

 45 48  0  0  0  0  0  0  0  0999 V2000
   72.6090   45.8530   -5.8880 C   0  0  0  0  0  0  0  0  0  0  0  0
   72.4880   44.6860   -4.9470 C   0  0  0  0  0  0  0  0  0  0  0  0
   71.5760   43.6650   -5.2550 C   0  0  0  0  0  0  0  0  0  0  0  0
   71.4450   42.5440   -4.4310 C   0  0  0  0  0  0  0  0  0  0  0  0
   72.2310   42.4060   -3.2830 C   0  0  0  0  0  0  0  0  0  0  0  0
   72.0690   41.2190   -2.4160 C   0  0  0  0  0  0  0  0  0  0  0  0
   70.7650   41.0600   -1.9590 O   0  0  0  0  0  0  0  0  0  0  0  0
   70.4750   39.9950   -1.1430 C   0  0  0  0  0  0  0  0  0  0  0  0
   69.1580   39.8820   -0.6940 C   0  0  0  0  0  0  0  0  0  0  0  0
   68.7950   38.8210    0.1360 C   0  0  0  0  0  0  0  0  0  0  0  0
   69.7470   37.8730    0.5190 C   0  0  0  0  0  0  0  0  0  0  0  0
   71.0600   37.9890    0.0700 C   0  0  0  0  0  0  0  0  0  0  0  0
   71.9400   37.0260    0.4820 O   0  0  0  0  0  0  0  0  0  0  0  0
   71.4230   39.0520   -0.7620 C   0  0  0  0  0  0  0  0  0  0  0  0
   72.7920   39.2090   -1.2560 C   0  0  0  0  0  0  0  0  0  0  0  0
   73.6830   38.4140   -0.9700 O   0  0  0  0  0  0  0  0  0  0  0  0
   73.0750   40.3750   -2.1250 C   0  0  0  0  0  0  0  0  0  0  0  0
   74.3690   40.5070   -2.5970 O   0  0  0  0  0  0  0  0  0  0  0  0
   73.1390   43.4270   -2.9720 C   0  0  0  0  0  0  0  0  0  0  0  0
   73.2890   44.5640   -3.7930 C   0  0  0  0  0  0  0  0  0  0  0  0
   74.3220   45.6050   -3.4000 C   0  0  0  0  0  0  0  0  0  0  0  0
   75.7540   45.2400   -3.7240 C   0  0  0  0  0  0  0  0  0  0  0  0
   76.6860   45.0550   -2.6900 C   0  0  0  0  0  0  0  0  0  0  0  0
   78.0040   44.6940   -2.9770 C   0  0  0  0  0  0  0  0  0  0  0  0
   78.4050   44.5060   -4.2970 C   0  0  0  0  0  0  0  0  0  0  0  0
   77.4880   44.6740   -5.3320 C   0  0  0  0  0  0  0  0  0  0  0  0
   76.1690   45.0330   -5.0480 C   0  0  0  0  0  0  0  0  0  0  0  0
   72.7054   46.7829   -5.3084 H   0  0  0  0  0  0  0  0  0  0  0  0
   73.4984   45.7222   -6.5219 H   0  0  0  0  0  0  0  0  0  0  0  0
   71.7117   45.9074   -6.5219 H   0  0  0  0  0  0  0  0  0  0  0  0
   70.9547   43.7483   -6.1589 H   0  0  0  0  0  0  0  0  0  0  0  0
   70.7157   41.7618   -4.6883 H   0  0  0  0  0  0  0  0  0  0  0  0
   68.4077   40.6283   -0.9941 H   0  0  0  0  0  0  0  0  0  0  0  0
   67.7573   38.7307    0.4895 H   0  0  0  0  0  0  0  0  0  0  0  0
   69.4601   37.0369    1.1737 H   0  0  0  0  0  0  0  0  0  0  0  0
   72.8540   37.2220    0.5420 H   0  0  0  0  0  0  0  0  0  0  0  0
   74.5490   40.3920   -3.5090 H   0  0  0  0  0  0  0  0  0  0  0  0
   73.7516   43.3393   -2.0626 H   0  0  0  0  0  0  0  0  0  0  0  0
   74.0810   46.5403   -3.9263 H   0  0  0  0  0  0  0  0  0  0  0  0
   74.2678   45.6931   -2.3049 H   0  0  0  0  0  0  0  0  0  0  0  0
   76.3749   45.1958   -1.6443 H   0  0  0  0  0  0  0  0  0  0  0  0
   78.7266   44.5579   -2.1589 H   0  0  0  0  0  0  0  0  0  0  0  0
   79.4444   44.2252   -4.5222 H   0  0  0  0  0  0  0  0  0  0  0  0
   77.8036   44.5236   -6.3750 H   0  0  0  0  0  0  0  0  0  0  0  0
   75.4484   45.1547   -5.8702 H   0  0  0  0  0  0  0  0  0  0  0  0
  1  2  1  0
  2  3  2  0
  3  4  1  0
  4  5  2  0
  5  6  1  0
  6  7  1  0
  7  8  1  0
  8  9  2  0
  9 10  1  0
 10 11  2  0
 11 12  1  0
 12 13  1  0
 12 14  2  0
 14 15  1  0
 15 16  2  0
 15 17  1  0
 17 18  1  0
  5 19  1  0
 19 20  2  0
 20 21  1  0
 21 22  1  0
 22 23  2  0
 23 24  1  0
 24 25  2  0
 25 26  1  0
 26 27  2  0
 20  2  1  0
 27 22  1  0
 17  6  2  0
 14  8  1  0
  1 28  1  0
  1 29  1  0
  1 30  1  0
  3 31  1  0
  4 32  1  0
  9 33  1  0
 10 34  1  0
 11 35  1  0
 13 36  1  0
 18 37  1  0
 19 38  1  0
 21 39  1  0
 21 40  1  0
 23 41  1  0
 24 42  1  0
 25 43  1  0
 26 44  1  0
 27 45  1  0
M  END
>  <meeko>  (7) 
{"is_sidechain": [false], "free_energy": -8.273, "intermolecular_energy": -9.843, "internal_energy": -0.94}

$$$$
cand_001_out
     RDKit          3D

 45 48  0  0  0  0  0  0  0  0999 V2000
   71.4410   45.3310   -5.5800 C   0  0  0  0  0  0  0  0  0  0  0  0
   71.2750   44.1980   -4.6050 C   0  0  0  0  0  0  0  0  0  0  0  0
   70.2170   43.2960   -4.7970 C   0  0  0  0  0  0  0  0  0  0  0  0
   70.0340   42.2080   -3.9390 C   0  0  0  0  0  0  0  0  0  0  0  0
   70.9110   41.9850   -2.8730 C   0  0  0  0  0  0  0  0  0  0  0  0
   70.6930   40.8360   -1.9670 C   0  0  0  0  0  0  0  0  0  0  0  0
   71.8500   40.0970   -1.7460 O   0  0  0  0  0  0  0  0  0  0  0  0
   71.7880   39.0010   -0.9220 C   0  0  0  0  0  0  0  0  0  0  0  0
   72.9680   38.2790   -0.7390 C   0  0  0  0  0  0  0  0  0  0  0  0
   72.9760   37.1550    0.0880 C   0  0  0  0  0  0  0  0  0  0  0  0
   71.8040   36.7530    0.7330 C   0  0  0  0  0  0  0  0  0  0  0  0
   70.6280   37.4750    0.5490 C   0  0  0  0  0  0  0  0  0  0  0  0
   69.5180   37.0260    1.2110 O   0  0  0  0  0  0  0  0  0  0  0  0
   70.6210   38.6000   -0.2800 C   0  0  0  0  0  0  0  0  0  0  0  0
   69.4070   39.3870   -0.4990 C   0  0  0  0  0  0  0  0  0  0  0  0
   68.3390   39.1010    0.0380 O   0  0  0  0  0  0  0  0  0  0  0  0
   69.5040   40.5570   -1.4030 C   0  0  0  0  0  0  0  0  0  0  0  0
   68.3540   41.3020   -1.5930 O   0  0  0  0  0  0  0  0  0  0  0  0
   71.9640   42.8880   -2.6770 C   0  0  0  0  0  0  0  0  0  0  0  0
   72.1680   43.9890   -3.5350 C   0  0  0  0  0  0  0  0  0  0  0  0
   73.3560   44.8970   -3.2710 C   0  0  0  0  0  0  0  0  0  0  0  0
   74.7040   44.3050   -3.6220 C   0  0  0  0  0  0  0  0  0  0  0  0
   75.5390   43.8050   -2.6110 C   0  0  0  0  0  0  0  0  0  0  0  0
   76.7750   43.2360   -2.9270 C   0  0  0  0  0  0  0  0  0  0  0  0
   77.1870   43.1520   -4.2550 C   0  0  0  0  0  0  0  0  0  0  0  0
   76.3620   43.6340   -5.2690 C   0  0  0  0  0  0  0  0  0  0  0  0
   75.1260   44.2020   -4.9570 C   0  0  0  0  0  0  0  0  0  0  0  0
   71.5789   46.2725   -5.0281 H   0  0  0  0  0  0  0  0  0  0  0  0
   72.3214   45.1444   -6.2125 H   0  0  0  0  0  0  0  0  0  0  0  0
   70.5441   45.4048   -6.2125 H   0  0  0  0  0  0  0  0  0  0  0  0
   69.5213   43.4477   -5.6354 H   0  0  0  0  0  0  0  0  0  0  0  0
   69.1916   41.5202   -4.1040 H   0  0  0  0  0  0  0  0  0  0  0  0
   73.8913   38.5956   -1.2463 H   0  0  0  0  0  0  0  0  0  0  0  0
   73.9058   36.5852    0.2321 H   0  0  0  0  0  0  0  0  0  0  0  0
   71.8103   35.8673    1.3853 H   0  0  0  0  0  0  0  0  0  0  0  0
   69.1710   36.1770    1.0210 H   0  0  0  0  0  0  0  0  0  0  0  0
   67.8510   41.5830   -0.8550 H   0  0  0  0  0  0  0  0  0  0  0  0
   72.6503   42.7343   -1.8312 H   0  0  0  0  0  0  0  0  0  0  0  0
   73.2220   45.8149   -3.8623 H   0  0  0  0  0  0  0  0  0  0  0  0
   73.3716   45.0750   -2.1856 H   0  0  0  0  0  0  0  0  0  0  0  0
   75.2174   43.8616   -1.5606 H   0  0  0  0  0  0  0  0  0  0  0  0
   77.4242   42.8535   -2.1256 H   0  0  0  0  0  0  0  0  0  0  0  0
   78.1616   42.7061   -4.5026 H   0  0  0  0  0  0  0  0  0  0  0  0
   76.6857   43.5667   -6.3181 H   0  0  0  0  0  0  0  0  0  0  0  0
   74.4768   44.5722   -5.7641 H   0  0  0  0  0  0  0  0  0  0  0  0
  1  2  1  0
  2  3  2  0
  3  4  1  0
  4  5  2  0
  5  6  1  0
  6  7  1  0
  7  8  1  0
  8  9  2  0
  9 10  1  0
 10 11  2  0
 11 12  1  0
 12 13  1  0
 12 14  2  0
 14 15  1  0
 15 16  2  0
 15 17  1  0
 17 18  1  0
  5 19  1  0
 19 20  2  0
 20 21  1  0
 21 22  1  0
 22 23  2  0
 23 24  1  0
 24 25  2  0
 25 26  1  0
 26 27  2  0
 20  2  1  0
 27 22  1  0
 17  6  2  0
 14  8  1  0
  1 28  1  0
  1 29  1  0
  1 30  1  0
  3 31  1  0
  4 32  1  0
  9 33  1  0
 10 34  1  0
 11 35  1  0
 13 36  1  0
 18 37  1  0
 19 38  1  0
 21 39  1  0
 21 40  1  0
 23 41  1  0
 24 42  1  0
 25 43  1  0
 26 44  1  0
 27 45  1  0
M  END
>  <meeko>  (8) 
{"is_sidechain": [false], "free_energy": -8.196, "intermolecular_energy": -9.866, "internal_energy": -0.822}

$$$$
cand_001_out
     RDKit          3D

 45 48  0  0  0  0  0  0  0  0999 V2000
   68.3250   40.7810   -2.4390 C   0  0  0  0  0  0  0  0  0  0  0  0
   69.6510   41.4200   -2.7480 C   0  0  0  0  0  0  0  0  0  0  0  0
   69.8800   41.8990   -4.0470 C   0  0  0  0  0  0  0  0  0  0  0  0
   71.0820   42.5290   -4.3800 C   0  0  0  0  0  0  0  0  0  0  0  0
   72.0840   42.7090   -3.4210 C   0  0  0  0  0  0  0  0  0  0  0  0
   73.3550   43.3650   -3.7960 C   0  0  0  0  0  0  0  0  0  0  0  0
   74.3020   42.4700   -4.2800 O   0  0  0  0  0  0  0  0  0  0  0  0
   75.5290   42.9470   -4.6650 C   0  0  0  0  0  0  0  0  0  0  0  0
   76.4550   42.0130   -5.1300 C   0  0  0  0  0  0  0  0  0  0  0  0
   77.7220   42.4320   -5.5410 C   0  0  0  0  0  0  0  0  0  0  0  0
   78.0630   43.7840   -5.4860 C   0  0  0  0  0  0  0  0  0  0  0  0
   77.1380   44.7150   -5.0220 C   0  0  0  0  0  0  0  0  0  0  0  0
   77.5370   46.0230   -4.9960 O   0  0  0  0  0  0  0  0  0  0  0  0
   75.8690   44.2950   -4.6110 C   0  0  0  0  0  0  0  0  0  0  0  0
   74.8680   45.2410   -4.1170 C   0  0  0  0  0  0  0  0  0  0  0  0
   75.0890   46.4470   -4.0470 O   0  0  0  0  0  0  0  0  0  0  0  0
   73.5560   44.6910   -3.6990 C   0  0  0  0  0  0  0  0  0  0  0  0
   72.6120   45.5960   -3.2460 O   0  0  0  0  0  0  0  0  0  0  0  0
   71.8580   42.2270   -2.1250 C   0  0  0  0  0  0  0  0  0  0  0  0
   70.6490   41.5930   -1.7680 C   0  0  0  0  0  0  0  0  0  0  0  0
   70.4750   41.1330   -0.3310 C   0  0  0  0  0  0  0  0  0  0  0  0
   70.9190   39.7130   -0.0550 C   0  0  0  0  0  0  0  0  0  0  0  0
   69.9700   38.7250    0.2520 C   0  0  0  0  0  0  0  0  0  0  0  0
   70.3660   37.4070    0.4850 C   0  0  0  0  0  0  0  0  0  0  0  0
   71.7120   37.0580    0.4060 C   0  0  0  0  0  0  0  0  0  0  0  0
   72.6630   38.0250    0.0900 C   0  0  0  0  0  0  0  0  0  0  0  0
   72.2690   39.3440   -0.1450 C   0  0  0  0  0  0  0  0  0  0  0  0
   68.1937   40.7177   -1.3487 H   0  0  0  0  0  0  0  0  0  0  0  0
   67.5159   41.3881   -2.8712 H   0  0  0  0  0  0  0  0  0  0  0  0
   68.2957   39.7699   -2.8712 H   0  0  0  0  0  0  0  0  0  0  0  0
   69.1016   41.7767   -4.8146 H   0  0  0  0  0  0  0  0  0  0  0  0
   71.2419   42.8873   -5.4076 H   0  0  0  0  0  0  0  0  0  0  0  0
   76.1872   40.9470   -5.1729 H   0  0  0  0  0  0  0  0  0  0  0  0
   78.4519   41.6957   -5.9084 H   0  0  0  0  0  0  0  0  0  0  0  0
   79.0615   44.1137   -5.8089 H   0  0  0  0  0  0  0  0  0  0  0  0
   76.9060   46.7080   -5.0970 H   0  0  0  0  0  0  0  0  0  0  0  0
   71.7780   45.2920   -2.9480 H   0  0  0  0  0  0  0  0  0  0  0  0
   72.6444   42.3461   -1.3652 H   0  0  0  0  0  0  0  0  0  0  0  0
   71.0591   41.8047    0.3152 H   0  0  0  0  0  0  0  0  0  0  0  0
   69.3942   41.1617   -0.1282 H   0  0  0  0  0  0  0  0  0  0  0  0
   68.9045   38.9921    0.3095 H   0  0  0  0  0  0  0  0  0  0  0  0
   69.6140   36.6429    0.7313 H   0  0  0  0  0  0  0  0  0  0  0  0
   72.0235   36.0197    0.5930 H   0  0  0  0  0  0  0  0  0  0  0  0
   73.7260   37.7495    0.0254 H   0  0  0  0  0  0  0  0  0  0  0  0
   73.0246   40.1006   -0.4031 H   0  0  0  0  0  0  0  0  0  0  0  0
  1  2  1  0
  2  3  2  0
  3  4  1  0
  4  5  2  0
  5  6  1  0
  6  7  1  0
  7  8  1  0
  8  9  2  0
  9 10  1  0
 10 11  2  0
 11 12  1  0
 12 13  1  0
 12 14  2  0
 14 15  1  0
 15 16  2  0
 15 17  1  0
 17 18  1  0
  5 19  1  0
 19 20  2  0
 20 21  1  0
 21 22  1  0
 22 23  2  0
 23 24  1  0
 24 25  2  0
 25 26  1  0
 26 27  2  0
 20  2  1  0
 27 22  1  0
 17  6  2  0
 14  8  1  0
  1 28  1  0
  1 29  1  0
  1 30  1  0
  3 31  1  0
  4 32  1  0
  9 33  1  0
 10 34  1  0
 11 35  1  0
 13 36  1  0
 18 37  1  0
 19 38  1  0
 21 39  1  0
 21 40  1  0
 23 41  1  0
 24 42  1  0
 25 43  1  0
 26 44  1  0
 27 45  1  0
M  END
>  <meeko>  (9) 
{"is_sidechain": [false], "free_energy": -8.184, "intermolecular_energy": -9.671, "internal_energy": -1.002}

$$$$
