cand_027_out
     RDKit          3D

 44 46  0  0  0  0  0  0  0  0999 V2000
   75.0030   43.6520   -6.1430 C   0  0  0  0  0  0  0  0  0  0  0  0
   74.2510   42.8690   -5.1000 C   0  0  0  0  0  0  0  0  0  0  0  0
   73.0450   42.2810   -5.5400 C   0  0  0  0  0  0  0  0  0  0  0  0
   72.2430   41.5240   -4.6910 C   0  0  0  0  0  0  0  0  0  0  0  0
   72.6240   41.3230   -3.3700 C   0  0  0  0  0  0  0  0  0  0  0  0
   71.7940   40.5380   -2.4320 C   0  0  0  0  0  0  0  0  0  0  0  0
   72.4820   39.4730   -1.8610 O   0  0  0  0  0  0  0  0  0  0  0  0
   71.8280   38.6610   -0.9710 C   0  0  0  0  0  0  0  0  0  0  0  0
   72.5610   37.6120   -0.4140 C   0  0  0  0  0  0  0  0  0  0  0  0
   71.9550   36.7460    0.4980 C   0  0  0  0  0  0  0  0  0  0  0  0
   70.6160   36.9280    0.8520 C   0  0  0  0  0  0  0  0  0  0  0  0
   69.8880   37.9750    0.2940 C   0  0  0  0  0  0  0  0  0  0  0  0
   68.5810   38.0940    0.6850 O   0  0  0  0  0  0  0  0  0  0  0  0
   70.4940   38.8420   -0.6180 C   0  0  0  0  0  0  0  0  0  0  0  0
   69.7650   39.9540   -1.2270 C   0  0  0  0  0  0  0  0  0  0  0  0
   68.5830   40.1750   -0.9710 O   0  0  0  0  0  0  0  0  0  0  0  0
   70.5020   40.8180   -2.1780 C   0  0  0  0  0  0  0  0  0  0  0  0
   69.7990   41.8580   -2.7580 O   0  0  0  0  0  0  0  0  0  0  0  0
   73.8130   41.9270   -2.9210 C   0  0  0  0  0  0  0  0  0  0  0  0
   74.6510   42.7240   -3.7450 C   0  0  0  0  0  0  0  0  0  0  0  0
   75.9410   43.3380   -3.1340 C   0  0  0  0  0  0  0  0  0  0  0  0
   77.2050   43.0500   -3.9750 C   0  0  0  0  0  0  0  0  0  0  0  0
   76.1280   42.7970   -1.7010 C   0  0  0  0  0  0  0  0  0  0  0  0
   75.8890   44.8880   -3.0140 C   0  0  0  0  0  0  0  0  0  0  0  0
   75.6838   44.3609   -5.6492 H   0  0  0  0  0  0  0  0  0  0  0  0
   75.5851   42.9615   -6.7710 H   0  0  0  0  0  0  0  0  0  0  0  0
   74.2895   44.2057   -6.7710 H   0  0  0  0  0  0  0  0  0  0  0  0
   72.7302   42.4254   -6.5841 H   0  0  0  0  0  0  0  0  0  0  0  0
   71.3069   41.0846   -5.0660 H   0  0  0  0  0  0  0  0  0  0  0  0
   73.6151   37.4677   -0.6933 H   0  0  0  0  0  0  0  0  0  0  0  0
   72.5324   35.9196    0.9382 H   0  0  0  0  0  0  0  0  0  0  0  0
   70.1380   36.2455    1.5701 H   0  0  0  0  0  0  0  0  0  0  0  0
   68.0770   37.3280    0.8720 H   0  0  0  0  0  0  0  0  0  0  0  0
   69.7540   41.9280   -3.6910 H   0  0  0  0  0  0  0  0  0  0  0  0
   74.1099   41.7731   -1.8731 H   0  0  0  0  0  0  0  0  0  0  0  0
   78.0552   42.8563   -3.3045 H   0  0  0  0  0  0  0  0  0  0  0  0
   77.0302   42.1687   -4.6096 H   0  0  0  0  0  0  0  0  0  0  0  0
   77.4293   43.9201   -4.6096 H   0  0  0  0  0  0  0  0  0  0  0  0
   75.8578   43.5787   -0.9758 H   0  0  0  0  0  0  0  0  0  0  0  0
   75.4809   41.9199   -1.5528 H   0  0  0  0  0  0  0  0  0  0  0  0
   77.1786   42.5067   -1.5528 H   0  0  0  0  0  0  0  0  0  0  0  0
   75.8794   45.1734   -1.9517 H   0  0  0  0  0  0  0  0  0  0  0  0
   76.7730   45.3235   -3.5027 H   0  0  0  0  0  0  0  0  0  0  0  0
   74.9778   45.2632   -3.5027 H   0  0  0  0  0  0  0  0  0  0  0  0
  1  2  1  0
  2  3  2  0
  3  4  1  0
  4  5  2  0
  5  6  1  0
  6  7  1  0
  7  8  1  0
  8  9  2  0
  9 10  1  0
 10 11  2  0
 11 12  1  0
 12 13  1  0
 12 14  2  0
 14 15  1  0
 15 16  2  0
 15 17  1  0
 17 18  1  0
  5 19  1  0
 19 20  2  0
 20 21  1  0
 21 22  1  0
 21 23  1  0
 21 24  1  0
 20  2  1  0
 17  6  2  0
 14  8  1  0
  1 25  1  0
  1 26  1  0
  1 27  1  0
  3 28  1  0
  4 29  1  0
  9 30  1  0
 10 31  1  0
 11 32  1  0
 13 33  1  0
 18 34  1  0
 19 35  1  0
 22 36  1  0
 22 37  1  0
 22 38  1  0
 23 39  1  0
 23 40  1  0
 23 41  1  0
 24 42  1  0
 24 43  1  0
 24 44  1  0
M  END
>  <meeko>  (1) 
{"is_sidechain": [false], "free_energy": -8.066, "intermolecular_energy": -9.48, "internal_energy": -0.087}

$$$$
cand_027_out
     RDKit          3D

 44 46  0  0  0  0  0  0  0  0999 V2000
   74.8850   43.7220   -6.0800 C   0  0  0  0  0  0  0  0  0  0  0  0
   74.1890   42.8830   -5.0410 C   0  0  0  0  0  0  0  0  0  0  0  0
   72.9830   42.2800   -5.4610 C   0  0  0  0  0  0  0  0  0  0  0  0
   72.2300   41.4720   -4.6150 C   0  0  0  0  0  0  0  0  0  0  0  0
   72.6620   41.2330   -3.3160 C   0  0  0  0  0  0  0  0  0  0  0  0
   71.8840   40.3940   -2.3790 C   0  0  0  0  0  0  0  0  0  0  0  0
   70.5370   40.7350   -2.3400 O   0  0  0  0  0  0  0  0  0  0  0  0
   69.7000   40.0360   -1.5090 C   0  0  0  0  0  0  0  0  0  0  0  0
   68.3540   40.4040   -1.5110 C   0  0  0  0  0  0  0  0  0  0  0  0
   67.4470   39.7340   -0.6860 C   0  0  0  0  0  0  0  0  0  0  0  0
   67.8870   38.6970    0.1400 C   0  0  0  0  0  0  0  0  0  0  0  0
   69.2300   38.3330    0.1400 C   0  0  0  0  0  0  0  0  0  0  0  0
   69.5930   37.3100    0.9730 O   0  0  0  0  0  0  0  0  0  0  0  0
   70.1370   39.0030   -0.6860 C   0  0  0  0  0  0  0  0  0  0  0  0
   71.5570   38.6520   -0.7160 C   0  0  0  0  0  0  0  0  0  0  0  0
   72.0200   37.7560   -0.0140 O   0  0  0  0  0  0  0  0  0  0  0  0
   72.4330   39.4200   -1.6310 C   0  0  0  0  0  0  0  0  0  0  0  0
   73.7760   39.0890   -1.6420 O   0  0  0  0  0  0  0  0  0  0  0  0
   73.8510   41.8520   -2.8850 C   0  0  0  0  0  0  0  0  0  0  0  0
   74.6390   42.7000   -3.7070 C   0  0  0  0  0  0  0  0  0  0  0  0
   75.9340   43.3250   -3.1170 C   0  0  0  0  0  0  0  0  0  0  0  0
   77.1790   43.0830   -4.0010 C   0  0  0  0  0  0  0  0  0  0  0  0
   76.1720   42.7530   -1.7040 C   0  0  0  0  0  0  0  0  0  0  0  0
   75.8550   44.8710   -2.9580 C   0  0  0  0  0  0  0  0  0  0  0  0
   75.5113   44.4770   -5.5823 H   0  0  0  0  0  0  0  0  0  0  0  0
   75.5173   43.0775   -6.7083 H   0  0  0  0  0  0  0  0  0  0  0  0
   74.1348   44.2244   -6.7083 H   0  0  0  0  0  0  0  0  0  0  0  0
   72.6285   42.4544   -6.4876 H   0  0  0  0  0  0  0  0  0  0  0  0
   71.2926   41.0223   -4.9744 H   0  0  0  0  0  0  0  0  0  0  0  0
   68.0074   41.2206   -2.1614 H   0  0  0  0  0  0  0  0  0  0  0  0
   66.3857   40.0233   -0.6869 H   0  0  0  0  0  0  0  0  0  0  0  0
   67.1731   38.1691    0.7893 H   0  0  0  0  0  0  0  0  0  0  0  0
   70.4610   37.2750    1.3220 H   0  0  0  0  0  0  0  0  0  0  0  0
   74.3010   39.2410   -0.8810 H   0  0  0  0  0  0  0  0  0  0  0  0
   74.1881   41.6684   -1.8541 H   0  0  0  0  0  0  0  0  0  0  0  0
   78.0564   42.9125   -3.3598 H   0  0  0  0  0  0  0  0  0  0  0  0
   77.0119   42.2005   -4.6361 H   0  0  0  0  0  0  0  0  0  0  0  0
   77.3546   43.9638   -4.6361 H   0  0  0  0  0  0  0  0  0  0  0  0
   75.8637   43.4940   -0.9517 H   0  0  0  0  0  0  0  0  0  0  0  0
   75.5818   41.8336   -1.5764 H   0  0  0  0  0  0  0  0  0  0  0  0
   77.2402   42.5236   -1.5764 H   0  0  0  0  0  0  0  0  0  0  0  0
   75.8418   45.1294   -1.8889 H   0  0  0  0  0  0  0  0  0  0  0  0
   76.7307   45.3340   -3.4364 H   0  0  0  0  0  0  0  0  0  0  0  0
   74.9367   45.2424   -3.4364 H   0  0  0  0  0  0  0  0  0  0  0  0
  1  2  1  0
  2  3  2  0
  3  4  1  0
  4  5  2  0
  5  6  1  0
  6  7  1  0
  7  8  1  0
  8  9  2  0
  9 10  1  0
 10 11  2  0
 11 12  1  0
 12 13  1  0
 12 14  2  0
 14 15  1  0
 15 16  2  0
 15 17  1  0
 17 18  1  0
  5 19  1  0
 19 20  2  0
 20 21  1  0
 21 22  1  0
 21 23  1  0
 21 24  1  0
 20  2  1  0
 17  6  2  0
 14  8  1  0
  1 25  1  0
  1 26  1  0
  1 27  1  0
  3 28  1  0
  4 29  1  0
  9 30  1  0
 10 31  1  0
 11 32  1  0
 13 33  1  0
 18 34  1  0
 19 35  1  0
 22 36  1  0
 22 37  1  0
 22 38  1  0
 23 39  1  0
 23 40  1  0
 23 41  1  0
 24 42  1  0
 24 43  1  0
 24 44  1  0
M  END
>  <meeko>  (2) 
{"is_sidechain": [false], "free_energy": -7.983, "intermolecular_energy": -9.484, "internal_energy": 0.013}

$$$$
cand_027_out
     RDKit          3D

 44 46  0  0  0  0  0  0  0  0999 V2000
   77.5300   43.6120   -4.2290 C   0  0  0  0  0  0  0  0  0  0  0  0
   76.2960   42.9270   -3.7050 C   0  0  0  0  0  0  0  0  0  0  0  0
   76.3440   42.5570   -2.3430 C   0  0  0  0  0  0  0  0  0  0  0  0
   75.2780   41.9200   -1.7150 C   0  0  0  0  0  0  0  0  0  0  0  0
   74.1200   41.6360   -2.4290 C   0  0  0  0  0  0  0  0  0  0  0  0
   72.9710   40.9470   -1.8050 C   0  0  0  0  0  0  0  0  0  0  0  0
   73.2950   39.6840   -1.3220 O   0  0  0  0  0  0  0  0  0  0  0  0
   72.3190   38.9330   -0.7200 C   0  0  0  0  0  0  0  0  0  0  0  0
   72.6920   37.6770   -0.2390 C   0  0  0  0  0  0  0  0  0  0  0  0
   71.7460   36.8600    0.3840 C   0  0  0  0  0  0  0  0  0  0  0  0
   70.4270   37.2980    0.5250 C   0  0  0  0  0  0  0  0  0  0  0  0
   70.0590   38.5520    0.0450 C   0  0  0  0  0  0  0  0  0  0  0  0
   68.7510   38.9180    0.2160 O   0  0  0  0  0  0  0  0  0  0  0  0
   71.0050   39.3690   -0.5780 C   0  0  0  0  0  0  0  0  0  0  0  0
   70.6590   40.6920   -1.0960 C   0  0  0  0  0  0  0  0  0  0  0  0
   69.5190   41.1460   -1.0150 O   0  0  0  0  0  0  0  0  0  0  0  0
   71.7380   41.4830   -1.7340 C   0  0  0  0  0  0  0  0  0  0  0  0
   71.3970   42.7260   -2.2330 O   0  0  0  0  0  0  0  0  0  0  0  0
   74.0760   41.9820   -3.7930 C   0  0  0  0  0  0  0  0  0  0  0  0
   75.1480   42.6130   -4.4790 C   0  0  0  0  0  0  0  0  0  0  0  0
   74.9800   42.9460   -5.9870 C   0  0  0  0  0  0  0  0  0  0  0  0
   76.1400   42.4090   -6.8570 C   0  0  0  0  0  0  0  0  0  0  0  0
   74.8600   44.4750   -6.1560 C   0  0  0  0  0  0  0  0  0  0  0  0
   73.6970   42.3310   -6.6160 C   0  0  0  0  0  0  0  0  0  0  0  0
   78.1461   43.9540   -3.3844 H   0  0  0  0  0  0  0  0  0  0  0  0
   78.1086   42.9060   -4.8427 H   0  0  0  0  0  0  0  0  0  0  0  0
   77.2368   44.4765   -4.8427 H   0  0  0  0  0  0  0  0  0  0  0  0
   77.2509   42.7789   -1.7613 H   0  0  0  0  0  0  0  0  0  0  0  0
   75.3519   41.6413   -0.6535 H   0  0  0  0  0  0  0  0  0  0  0  0
   73.7302   37.3309   -0.3505 H   0  0  0  0  0  0  0  0  0  0  0  0
   72.0399   35.8705    0.7641 H   0  0  0  0  0  0  0  0  0  0  0  0
   69.6812   36.6539    1.0139 H   0  0  0  0  0  0  0  0  0  0  0  0
   68.5390   39.6680    0.7350 H   0  0  0  0  0  0  0  0  0  0  0  0
   70.5290   43.0580   -2.1100 H   0  0  0  0  0  0  0  0  0  0  0  0
   73.1612   41.7510   -4.3586 H   0  0  0  0  0  0  0  0  0  0  0  0
   76.9446   42.0365   -6.2059 H   0  0  0  0  0  0  0  0  0  0  0  0
   75.7730   41.5892   -7.4920 H   0  0  0  0  0  0  0  0  0  0  0  0
   76.5276   43.2193   -7.4920 H   0  0  0  0  0  0  0  0  0  0  0  0
   74.8226   44.9516   -5.1653 H   0  0  0  0  0  0  0  0  0  0  0  0
   75.7313   44.8520   -6.7116 H   0  0  0  0  0  0  0  0  0  0  0  0
   73.9405   44.7114   -6.7116 H   0  0  0  0  0  0  0  0  0  0  0  0
   73.0165   42.0048   -5.8157 H   0  0  0  0  0  0  0  0  0  0  0  0
   73.1954   43.0866   -7.2385 H   0  0  0  0  0  0  0  0  0  0  0  0
   73.9719   41.4668   -7.2385 H   0  0  0  0  0  0  0  0  0  0  0  0
  1  2  1  0
  2  3  2  0
  3  4  1  0
  4  5  2  0
  5  6  1  0
  6  7  1  0
  7  8  1  0
  8  9  2  0
  9 10  1  0
 10 11  2  0
 11 12  1  0
 12 13  1  0
 12 14  2  0
 14 15  1  0
 15 16  2  0
 15 17  1  0
 17 18  1  0
  5 19  1  0
 19 20  2  0
 20 21  1  0
 21 22  1  0
 21 23  1  0
 21 24  1  0
 20  2  1  0
 17  6  2  0
 14  8  1  0
  1 25  1  0
  1 26  1  0
  1 27  1  0
  3 28  1  0
  4 29  1  0
  9 30  1  0
 10 31  1  0
 11 32  1  0
 13 33  1  0
 18 34  1  0
 19 35  1  0
 22 36  1  0
 22 37  1  0
 22 38  1  0
 23 39  1  0
 23 40  1  0
 23 41  1  0
 24 42  1  0
 24 43  1  0
 24 44  1  0
M  END
>  <meeko>  (3) 
{"is_sidechain": [false], "free_energy": -7.825, "intermolecular_energy": -9.161, "internal_energy": -0.124}

$$$$
cand_027_out
     RDKit          3D

 44 46  0  0  0  0  0  0  0  0999 V2000
   77.2620   43.4350   -3.0290 C   0  0  0  0  0  0  0  0  0  0  0  0
   75.8150   43.0460   -2.8830 C   0  0  0  0  0  0  0  0  0  0  0  0
   75.5870   41.7140   -2.4720 C   0  0  0  0  0  0  0  0  0  0  0  0
   74.3030   41.2100   -2.2880 C   0  0  0  0  0  0  0  0  0  0  0  0
   73.1990   42.0250   -2.5050 C   0  0  0  0  0  0  0  0  0  0  0  0
   71.8180   41.5240   -2.3370 C   0  0  0  0  0  0  0  0  0  0  0  0
   71.6710   40.7050   -1.2230 O   0  0  0  0  0  0  0  0  0  0  0  0
   70.4390   40.1700   -0.9500 C   0  0  0  0  0  0  0  0  0  0  0  0
   70.3350   39.3640    0.1850 C   0  0  0  0  0  0  0  0  0  0  0  0
   69.1080   38.7860    0.5190 C   0  0  0  0  0  0  0  0  0  0  0  0
   67.9860   39.0130   -0.2810 C   0  0  0  0  0  0  0  0  0  0  0  0
   68.0930   39.8170   -1.4120 C   0  0  0  0  0  0  0  0  0  0  0  0
   66.9550   39.9970   -2.1510 O   0  0  0  0  0  0  0  0  0  0  0  0
   69.3200   40.3960   -1.7460 C   0  0  0  0  0  0  0  0  0  0  0  0
   69.4750   41.2470   -2.9260 C   0  0  0  0  0  0  0  0  0  0  0  0
   68.5370   41.4880   -3.6820 O   0  0  0  0  0  0  0  0  0  0  0  0
   70.8170   41.8170   -3.1890 C   0  0  0  0  0  0  0  0  0  0  0  0
   70.9560   42.6080   -4.3140 O   0  0  0  0  0  0  0  0  0  0  0  0
   73.4200   43.3450   -2.9380 C   0  0  0  0  0  0  0  0  0  0  0  0
   74.7110   43.8950   -3.1580 C   0  0  0  0  0  0  0  0  0  0  0  0
   74.8270   45.3690   -3.6360 C   0  0  0  0  0  0  0  0  0  0  0  0
   75.8680   46.1840   -2.8350 C   0  0  0  0  0  0  0  0  0  0  0  0
   73.4430   46.0430   -3.5380 C   0  0  0  0  0  0  0  0  0  0  0  0
   75.2770   45.5020   -5.1200 C   0  0  0  0  0  0  0  0  0  0  0  0
   77.7116   43.5559   -2.0324 H   0  0  0  0  0  0  0  0  0  0  0  0
   77.7990   42.6493   -3.5807 H   0  0  0  0  0  0  0  0  0  0  0  0
   77.3327   44.3840   -3.5807 H   0  0  0  0  0  0  0  0  0  0  0  0
   76.4497   41.0557   -2.2921 H   0  0  0  0  0  0  0  0  0  0  0  0
   74.1622   40.1662   -1.9707 H   0  0  0  0  0  0  0  0  0  0  0  0
   71.2182   39.1843    0.8156 H   0  0  0  0  0  0  0  0  0  0  0  0
   69.0254   38.1511    1.4135 H   0  0  0  0  0  0  0  0  0  0  0  0
   67.0200   38.5574   -0.0178 H   0  0  0  0  0  0  0  0  0  0  0  0
   66.2710   39.3590   -2.1200 H   0  0  0  0  0  0  0  0  0  0  0  0
   70.1960   42.9300   -4.7560 H   0  0  0  0  0  0  0  0  0  0  0  0
   72.5446   43.9868   -3.1161 H   0  0  0  0  0  0  0  0  0  0  0  0
   75.6918   46.0460   -1.7580 H   0  0  0  0  0  0  0  0  0  0  0  0
   76.8802   45.8358   -3.0885 H   0  0  0  0  0  0  0  0  0  0  0  0
   75.7728   47.2502   -3.0885 H   0  0  0  0  0  0  0  0  0  0  0  0
   73.1733   46.1744   -2.4797 H   0  0  0  0  0  0  0  0  0  0  0  0
   73.4776   47.0251   -4.0322 H   0  0  0  0  0  0  0  0  0  0  0  0
   72.6912   45.4102   -4.0322 H   0  0  0  0  0  0  0  0  0  0  0  0
   76.3313   45.8136   -5.1569 H   0  0  0  0  0  0  0  0  0  0  0  0
   75.1634   44.5319   -5.6259 H   0  0  0  0  0  0  0  0  0  0  0  0
   74.6543   46.2545   -5.6259 H   0  0  0  0  0  0  0  0  0  0  0  0
  1  2  1  0
  2  3  2  0
  3  4  1  0
  4  5  2  0
  5  6  1  0
  6  7  1  0
  7  8  1  0
  8  9  2  0
  9 10  1  0
 10 11  2  0
 11 12  1  0
 12 13  1  0
 12 14  2  0
 14 15  1  0
 15 16  2  0
 15 17  1  0
 17 18  1  0
  5 19  1  0
 19 20  2  0
 20 21  1  0
 21 22  1  0
 21 23  1  0
 21 24  1  0
 20  2  1  0
 17  6  2  0
 14  8  1  0
  1 25  1  0
  1 26  1  0
  1 27  1  0
  3 28  1  0
  4 29  1  0
  9 30  1  0
 10 31  1  0
 11 32  1  0
 13 33  1  0
 18 34  1  0
 19 35  1  0
 22 36  1  0
 22 37  1  0
 22 38  1  0
 23 39  1  0
 23 40  1  0
 23 41  1  0
 24 42  1  0
 24 43  1  0
 24 44  1  0
M  END
>  <meeko>  (4) 
{"is_sidechain": [false], "free_energy": -7.813, "intermolecular_energy": -9.436, "internal_energy": 0.165}

$$$$
cand_027_out
     RDKit          3D

 44 46  0  0  0  0  0  0  0  0999 V2000
   73.3560   46.2680   -4.9450 C   0  0  0  0  0  0  0  0  0  0  0  0
   73.2010   44.9840   -4.1730 C   0  0  0  0  0  0  0  0  0  0  0  0
   71.8880   44.4670   -4.1190 C   0  0  0  0  0  0  0  0  0  0  0  0
   71.5890   43.2860   -3.4470 C   0  0  0  0  0  0  0  0  0  0  0  0
   72.5980   42.5750   -2.8090 C   0  0  0  0  0  0  0  0  0  0  0  0
   72.3210   41.3250   -2.0700 C   0  0  0  0  0  0  0  0  0  0  0  0
   70.9910   41.2110   -1.6800 O   0  0  0  0  0  0  0  0  0  0  0  0
   70.5960   40.0980   -0.9830 C   0  0  0  0  0  0  0  0  0  0  0  0
   69.2510   40.0200   -0.6230 C   0  0  0  0  0  0  0  0  0  0  0  0
   68.7830   38.9130    0.0890 C   0  0  0  0  0  0  0  0  0  0  0  0
   69.6610   37.8860    0.4420 C   0  0  0  0  0  0  0  0  0  0  0  0
   71.0030   37.9670    0.0810 C   0  0  0  0  0  0  0  0  0  0  0  0
   71.8080   36.9260    0.4590 O   0  0  0  0  0  0  0  0  0  0  0  0
   71.4710   39.0730   -0.6320 C   0  0  0  0  0  0  0  0  0  0  0  0
   72.8730   39.1980   -1.0300 C   0  0  0  0  0  0  0  0  0  0  0  0
   73.7070   38.3390   -0.7520 O   0  0  0  0  0  0  0  0  0  0  0  0
   73.2650   40.4080   -1.7890 C   0  0  0  0  0  0  0  0  0  0  0  0
   74.5950   40.5220   -2.1480 O   0  0  0  0  0  0  0  0  0  0  0  0
   73.9040   43.0990   -2.8390 C   0  0  0  0  0  0  0  0  0  0  0  0
   74.2510   44.3100   -3.4940 C   0  0  0  0  0  0  0  0  0  0  0  0
   75.7290   44.7860   -3.4590 C   0  0  0  0  0  0  0  0  0  0  0  0
   76.4120   44.7410   -4.8450 C   0  0  0  0  0  0  0  0  0  0  0  0
   76.5160   43.9160   -2.4570 C   0  0  0  0  0  0  0  0  0  0  0  0
   75.8920   46.2590   -2.9850 C   0  0  0  0  0  0  0  0  0  0  0  0
   73.4574   47.1083   -4.2424 H   0  0  0  0  0  0  0  0  0  0  0  0
   74.2536   46.2091   -5.5782 H   0  0  0  0  0  0  0  0  0  0  0  0
   72.4702   46.4244   -5.5782 H   0  0  0  0  0  0  0  0  0  0  0  0
   71.0777   45.0141   -4.6231 H   0  0  0  0  0  0  0  0  0  0  0  0
   70.5537   42.9151   -3.4208 H   0  0  0  0  0  0  0  0  0  0  0  0
   68.5593   40.8294   -0.8994 H   0  0  0  0  0  0  0  0  0  0  0  0
   67.7219   38.8502    0.3719 H   0  0  0  0  0  0  0  0  0  0  0  0
   69.2930   37.0150    1.0041 H   0  0  0  0  0  0  0  0  0  0  0  0
   71.4750   36.2590    1.0250 H   0  0  0  0  0  0  0  0  0  0  0  0
   74.8490   40.4160   -3.0440 H   0  0  0  0  0  0  0  0  0  0  0  0
   74.7002   42.5391   -2.3265 H   0  0  0  0  0  0  0  0  0  0  0  0
   77.5019   44.6692   -4.7145 H   0  0  0  0  0  0  0  0  0  0  0  0
   76.0510   43.8647   -5.4034 H   0  0  0  0  0  0  0  0  0  0  0  0
   76.1691   45.6571   -5.4034 H   0  0  0  0  0  0  0  0  0  0  0  0
   76.2512   44.2087   -1.4303 H   0  0  0  0  0  0  0  0  0  0  0  0
   76.2629   42.8570   -2.6132 H   0  0  0  0  0  0  0  0  0  0  0  0
   77.5950   44.0620   -2.6132 H   0  0  0  0  0  0  0  0  0  0  0  0
   75.8957   46.2921   -1.8855 H   0  0  0  0  0  0  0  0  0  0  0  0
   76.8405   46.6643   -3.3672 H   0  0  0  0  0  0  0  0  0  0  0  0
   75.0551   46.8619   -3.3672 H   0  0  0  0  0  0  0  0  0  0  0  0
  1  2  1  0
  2  3  2  0
  3  4  1  0
  4  5  2  0
  5  6  1  0
  6  7  1  0
  7  8  1  0
  8  9  2  0
  9 10  1  0
 10 11  2  0
 11 12  1  0
 12 13  1  0
 12 14  2  0
 14 15  1  0
 15 16  2  0
 15 17  1  0
 17 18  1  0
  5 19  1  0
 19 20  2  0
 20 21  1  0
 21 22  1  0
 21 23  1  0
 21 24  1  0
 20  2  1  0
 17  6  2  0
 14  8  1  0
  1 25  1  0
  1 26  1  0
  1 27  1  0
  3 28  1  0
  4 29  1  0
  9 30  1  0
 10 31  1  0
 11 32  1  0
 13 33  1  0
 18 34  1  0
 19 35  1  0
 22 36  1  0
 22 37  1  0
 22 38  1  0
 23 39  1  0
 23 40  1  0
 23 41  1  0
 24 42  1  0
 24 43  1  0
 24 44  1  0
M  END
>  <meeko>  (5) 
{"is_sidechain": [false], "free_energy": -7.725, "intermolecular_energy": -9.455, "internal_energy": 0.288}

$$$$
cand_027_out
     RDKit          3D

 44 46  0  0  0  0  0  0  0  0999 V2000
   70.1800   37.0390    1.0860 C   0  0  0  0  0  0  0  0  0  0  0  0
   69.8290   38.2250    0.2290 C   0  0  0  0  0  0  0  0  0  0  0  0
   68.4570   38.5640    0.2000 C   0  0  0  0  0  0  0  0  0  0  0  0
   67.9790   39.6390   -0.5430 C   0  0  0  0  0  0  0  0  0  0  0  0
   68.8600   40.4190   -1.2820 C   0  0  0  0  0  0  0  0  0  0  0  0
   68.3920   41.5590   -2.0980 C   0  0  0  0  0  0  0  0  0  0  0  0
   67.4990   42.3800   -1.4180 O   0  0  0  0  0  0  0  0  0  0  0  0
   66.9840   43.4760   -2.0600 C   0  0  0  0  0  0  0  0  0  0  0  0
   66.1010   44.2780   -1.3360 C   0  0  0  0  0  0  0  0  0  0  0  0
   65.5380   45.4090   -1.9310 C   0  0  0  0  0  0  0  0  0  0  0  0
   65.8590   45.7380   -3.2510 C   0  0  0  0  0  0  0  0  0  0  0  0
   66.7400   44.9360   -3.9700 C   0  0  0  0  0  0  0  0  0  0  0  0
   67.0090   45.3160   -5.2570 O   0  0  0  0  0  0  0  0  0  0  0  0
   67.3030   43.8050   -3.3750 C   0  0  0  0  0  0  0  0  0  0  0  0
   68.2320   42.9350   -4.0950 C   0  0  0  0  0  0  0  0  0  0  0  0
   68.5580   43.1550   -5.2600 O   0  0  0  0  0  0  0  0  0  0  0  0
   68.7780   41.7640   -3.3710 C   0  0  0  0  0  0  0  0  0  0  0  0
   69.6450   40.9410   -4.0660 O   0  0  0  0  0  0  0  0  0  0  0  0
   70.2240   40.0710   -1.2760 C   0  0  0  0  0  0  0  0  0  0  0  0
   70.7530   38.9720   -0.5490 C   0  0  0  0  0  0  0  0  0  0  0  0
   72.2790   38.6880   -0.6210 C   0  0  0  0  0  0  0  0  0  0  0  0
   72.6290   37.2020   -0.3790 C   0  0  0  0  0  0  0  0  0  0  0  0
   73.0060   39.5760    0.4100 C   0  0  0  0  0  0  0  0  0  0  0  0
   72.9030   39.0220   -2.0060 C   0  0  0  0  0  0  0  0  0  0  0  0
   70.0979   37.3164    2.1473 H   0  0  0  0  0  0  0  0  0  0  0  0
   69.4881   36.2119    0.8686 H   0  0  0  0  0  0  0  0  0  0  0  0
   71.2106   36.7217    0.8686 H   0  0  0  0  0  0  0  0  0  0  0  0
   67.7458   37.9598    0.7823 H   0  0  0  0  0  0  0  0  0  0  0  0
   66.9038   39.8713   -0.5453 H   0  0  0  0  0  0  0  0  0  0  0  0
   65.8485   44.0195   -0.2971 H   0  0  0  0  0  0  0  0  0  0  0  0
   64.8416   46.0412   -1.3606 H   0  0  0  0  0  0  0  0  0  0  0  0
   65.4162   46.6289   -3.7204 H   0  0  0  0  0  0  0  0  0  0  0  0
   66.6140   44.8580   -5.9730 H   0  0  0  0  0  0  0  0  0  0  0  0
   70.5400   40.8730   -3.7990 H   0  0  0  0  0  0  0  0  0  0  0  0
   70.9190   40.6849   -1.8677 H   0  0  0  0  0  0  0  0  0  0  0  0
   72.6748   37.0075    0.7027 H   0  0  0  0  0  0  0  0  0  0  0  0
   71.8564   36.5646   -0.8337 H   0  0  0  0  0  0  0  0  0  0  0  0
   73.6049   36.9764   -0.8337 H   0  0  0  0  0  0  0  0  0  0  0  0
   72.7397   39.2508    1.4265 H   0  0  0  0  0  0  0  0  0  0  0  0
   74.0933   39.4862    0.2693 H   0  0  0  0  0  0  0  0  0  0  0  0
   72.7034   40.6241    0.2693 H   0  0  0  0  0  0  0  0  0  0  0  0
   73.8643   39.5365   -1.8606 H   0  0  0  0  0  0  0  0  0  0  0  0
   73.0668   38.0910   -2.5685 H   0  0  0  0  0  0  0  0  0  0  0  0
   72.2192   39.6747   -2.5685 H   0  0  0  0  0  0  0  0  0  0  0  0
  1  2  1  0
  2  3  2  0
  3  4  1  0
  4  5  2  0
  5  6  1  0
  6  7  1  0
  7  8  1  0
  8  9  2  0
  9 10  1  0
 10 11  2  0
 11 12  1  0
 12 13  1  0
 12 14  2  0
 14 15  1  0
 15 16  2  0
 15 17  1  0
 17 18  1  0
  5 19  1  0
 19 20  2  0
 20 21  1  0
 21 22  1  0
 21 23  1  0
 21 24  1  0
 20  2  1  0
 17  6  2  0
 14  8  1  0
  1 25  1  0
  1 26  1  0
  1 27  1  0
  3 28  1  0
  4 29  1  0
  9 30  1  0
 10 31  1  0
 11 32  1  0
 13 33  1  0
 18 34  1  0
 19 35  1  0
 22 36  1  0
 22 37  1  0
 22 38  1  0
 23 39  1  0
 23 40  1  0
 23 41  1  0
 24 42  1  0
 24 43  1  0
 24 44  1  0
M  END
>  <meeko>  (6) 
{"is_sidechain": [false], "free_energy": -7.722, "intermolecular_energy": -9.518, "internal_energy": 0.355}

$$$$
cand_027_out
     RDKit          3D

 44 46  0  0  0  0  0  0  0  0999 V2000
   76.3610   43.7560   -4.5840 C   0  0  0  0  0  0  0  0  0  0  0  0
   75.2950   42.9100   -3.9400 C   0  0  0  0  0  0  0  0  0  0  0  0
   75.6840   42.2520   -2.7530 C   0  0  0  0  0  0  0  0  0  0  0  0
   74.8070   41.4390   -2.0410 C   0  0  0  0  0  0  0  0  0  0  0  0
   73.5050   41.2610   -2.4900 C   0  0  0  0  0  0  0  0  0  0  0  0
   72.5460   40.3930   -1.7730 C   0  0  0  0  0  0  0  0  0  0  0  0
   71.2340   40.8440   -1.8670 O   0  0  0  0  0  0  0  0  0  0  0  0
   70.2410   40.1320   -1.2450 C   0  0  0  0  0  0  0  0  0  0  0  0
   68.9380   40.6140   -1.3760 C   0  0  0  0  0  0  0  0  0  0  0  0
   67.8800   39.9370   -0.7650 C   0  0  0  0  0  0  0  0  0  0  0  0
   68.1250   38.7800   -0.0230 C   0  0  0  0  0  0  0  0  0  0  0  0
   69.4260   38.3020    0.1060 C   0  0  0  0  0  0  0  0  0  0  0  0
   69.5950   37.1630    0.8470 O   0  0  0  0  0  0  0  0  0  0  0  0
   70.4840   38.9780   -0.5060 C   0  0  0  0  0  0  0  0  0  0  0  0
   71.8660   38.5100   -0.3950 C   0  0  0  0  0  0  0  0  0  0  0  0
   72.1620   37.5030    0.2460 O   0  0  0  0  0  0  0  0  0  0  0  0
   72.9140   39.2960   -1.0860 C   0  0  0  0  0  0  0  0  0  0  0  0
   74.2180   38.8520   -0.9630 O   0  0  0  0  0  0  0  0  0  0  0  0
   73.1190   41.8950   -3.6860 C   0  0  0  0  0  0  0  0  0  0  0  0
   73.9860   42.7160   -4.4550 C   0  0  0  0  0  0  0  0  0  0  0  0
   73.4450   43.3650   -5.7590 C   0  0  0  0  0  0  0  0  0  0  0  0
   73.7930   44.8660   -5.8770 C   0  0  0  0  0  0  0  0  0  0  0  0
   71.9150   43.1730   -5.8210 C   0  0  0  0  0  0  0  0  0  0  0  0
   74.0210   42.7210   -7.0530 C   0  0  0  0  0  0  0  0  0  0  0  0
   76.9681   44.2378   -3.8034 H   0  0  0  0  0  0  0  0  0  0  0  0
   77.0052   43.1206   -5.2096 H   0  0  0  0  0  0  0  0  0  0  0  0
   75.8885   44.5277   -5.2096 H   0  0  0  0  0  0  0  0  0  0  0  0
   76.7102   42.3858   -2.3800 H   0  0  0  0  0  0  0  0  0  0  0  0
   75.1453   40.9373   -1.1224 H   0  0  0  0  0  0  0  0  0  0  0  0
   68.7443   41.5260   -1.9597 H   0  0  0  0  0  0  0  0  0  0  0  0
   66.8525   40.3159   -0.8686 H   0  0  0  0  0  0  0  0  0  0  0  0
   67.2918   38.2473    0.4586 H   0  0  0  0  0  0  0  0  0  0  0  0
   70.3130   36.5900    0.6680 H   0  0  0  0  0  0  0  0  0  0  0  0
   74.9210   39.4700   -0.9260 H   0  0  0  0  0  0  0  0  0  0  0  0
   72.0898   41.7465   -4.0446 H   0  0  0  0  0  0  0  0  0  0  0  0
   73.8935   45.2993   -4.8709 H   0  0  0  0  0  0  0  0  0  0  0  0
   74.7416   44.9807   -6.4220 H   0  0  0  0  0  0  0  0  0  0  0  0
   72.9917   45.3864   -6.4220 H   0  0  0  0  0  0  0  0  0  0  0  0
   71.5101   43.1222   -4.7995 H   0  0  0  0  0  0  0  0  0  0  0  0
   71.4603   44.0211   -6.3539 H   0  0  0  0  0  0  0  0  0  0  0  0
   71.6840   42.2388   -6.3539 H   0  0  0  0  0  0  0  0  0  0  0  0
   74.7317   41.9264   -6.7820 H   0  0  0  0  0  0  0  0  0  0  0  0
   73.1998   42.2919   -7.6459 H   0  0  0  0  0  0  0  0  0  0  0  0
   74.5387   43.4894   -7.6459 H   0  0  0  0  0  0  0  0  0  0  0  0
  1  2  1  0
  2  3  2  0
  3  4  1  0
  4  5  2  0
  5  6  1  0
  6  7  1  0
  7  8  1  0
  8  9  2  0
  9 10  1  0
 10 11  2  0
 11 12  1  0
 12 13  1  0
 12 14  2  0
 14 15  1  0
 15 16  2  0
 15 17  1  0
 17 18  1  0
  5 19  1  0
 19 20  2  0
 20 21  1  0
 21 22  1  0
 21 23  1  0
 21 24  1  0
 20  2  1  0
 17  6  2  0
 14  8  1  0
  1 25  1  0
  1 26  1  0
  1 27  1  0
  3 28  1  0
  4 29  1  0
  9 30  1  0
 10 31  1  0
 11 32  1  0
 13 33  1  0
 18 34  1  0
 19 35  1  0
 22 36  1  0
 22 37  1  0
 22 38  1  0
 23 39  1  0
 23 40  1  0
 23 41  1  0
 24 42  1  0
 24 43  1  0
 24 44  1  0
M  END
>  <meeko>  (7) 
{"is_sidechain": [false], "free_energy": -7.641, "intermolecular_energy": -9.286, "internal_energy": 0.218}

$$$$
cand_027_out
     RDKit          3D

 44 46  0  0  0  0  0  0  0  0999 V2000
   69.5610   38.3920    0.4470 C   0  0  0  0  0  0  0  0  0  0  0  0
   69.6200   39.4640   -0.6080 C   0  0  0  0  0  0  0  0  0  0  0  0
   68.3700   39.9850   -1.0090 C   0  0  0  0  0  0  0  0  0  0  0  0
   68.2640   40.9840   -1.9720 C   0  0  0  0  0  0  0  0  0  0  0  0
   69.4080   41.5040   -2.5640 C   0  0  0  0  0  0  0  0  0  0  0  0
   69.3390   42.5540   -3.6010 C   0  0  0  0  0  0  0  0  0  0  0  0
   70.4510   43.3900   -3.5990 O   0  0  0  0  0  0  0  0  0  0  0  0
   70.5140   44.4120   -4.5110 C   0  0  0  0  0  0  0  0  0  0  0  0
   71.6530   45.2180   -4.4810 C   0  0  0  0  0  0  0  0  0  0  0  0
   71.7810   46.2770   -5.3820 C   0  0  0  0  0  0  0  0  0  0  0  0
   70.7700   46.5310   -6.3120 C   0  0  0  0  0  0  0  0  0  0  0  0
   69.6360   45.7250   -6.3400 C   0  0  0  0  0  0  0  0  0  0  0  0
   68.6850   46.0300   -7.2760 O   0  0  0  0  0  0  0  0  0  0  0  0
   69.5080   44.6650   -5.4390 C   0  0  0  0  0  0  0  0  0  0  0  0
   68.3320   43.7950   -5.4340 C   0  0  0  0  0  0  0  0  0  0  0  0
   67.3990   43.9580   -6.2170 O   0  0  0  0  0  0  0  0  0  0  0  0
   68.2970   42.6950   -4.4420 C   0  0  0  0  0  0  0  0  0  0  0  0
   67.1750   41.8870   -4.4360 O   0  0  0  0  0  0  0  0  0  0  0  0
   70.6550   40.9710   -2.1850 C   0  0  0  0  0  0  0  0  0  0  0  0
   70.8090   39.9380   -1.2230 C   0  0  0  0  0  0  0  0  0  0  0  0
   72.2400   39.4330   -0.8870 C   0  0  0  0  0  0  0  0  0  0  0  0
   72.5700   39.5110    0.6210 C   0  0  0  0  0  0  0  0  0  0  0  0
   73.2680   40.2530   -1.6940 C   0  0  0  0  0  0  0  0  0  0  0  0
   72.4720   37.9420   -1.2660 C   0  0  0  0  0  0  0  0  0  0  0  0
   69.5866   38.8567    1.4437 H   0  0  0  0  0  0  0  0  0  0  0  0
   68.6299   37.8173    0.3341 H   0  0  0  0  0  0  0  0  0  0  0  0
   70.4234   37.7186    0.3341 H   0  0  0  0  0  0  0  0  0  0  0  0
   67.4535   39.5896   -0.5466 H   0  0  0  0  0  0  0  0  0  0  0  0
   67.2734   41.3622   -2.2647 H   0  0  0  0  0  0  0  0  0  0  0  0
   72.4490   45.0192   -3.7483 H   0  0  0  0  0  0  0  0  0  0  0  0
   72.6789   46.9120   -5.3595 H   0  0  0  0  0  0  0  0  0  0  0  0
   70.8701   47.3663   -7.0206 H   0  0  0  0  0  0  0  0  0  0  0  0
   68.2070   45.3440   -7.6990 H   0  0  0  0  0  0  0  0  0  0  0  0
   66.3240   42.2670   -4.5360 H   0  0  0  0  0  0  0  0  0  0  0  0
   71.5599   41.3773   -2.6605 H   0  0  0  0  0  0  0  0  0  0  0  0
   71.6636   39.2968    1.2063 H   0  0  0  0  0  0  0  0  0  0  0  0
   73.3472   38.7718    0.8650 H   0  0  0  0  0  0  0  0  0  0  0  0
   72.9340   40.5199    0.8650 H   0  0  0  0  0  0  0  0  0  0  0  0
   73.9364   40.7861   -1.0019 H   0  0  0  0  0  0  0  0  0  0  0  0
   73.8603   39.5766   -2.3277 H   0  0  0  0  0  0  0  0  0  0  0  0
   72.7402   40.9809   -2.3277 H   0  0  0  0  0  0  0  0  0  0  0  0
   72.5655   37.3410   -0.3495 H   0  0  0  0  0  0  0  0  0  0  0  0
   71.6198   37.5773   -1.8582 H   0  0  0  0  0  0  0  0  0  0  0  0
   73.3947   37.8535   -1.8582 H   0  0  0  0  0  0  0  0  0  0  0  0
  1  2  1  0
  2  3  2  0
  3  4  1  0
  4  5  2  0
  5  6  1  0
  6  7  1  0
  7  8  1  0
  8  9  2  0
  9 10  1  0
 10 11  2  0
 11 12  1  0
 12 13  1  0
 12 14  2  0
 14 15  1  0
 15 16  2  0
 15 17  1  0
 17 18  1  0
  5 19  1  0
 19 20  2  0
 20 21  1  0
 21 22  1  0
 21 23  1  0
 21 24  1  0
 20  2  1  0
 17  6  2  0
 14  8  1  0
  1 25  1  0
  1 26  1  0
  1 27  1  0
  3 28  1  0
  4 29  1  0
  9 30  1  0
 10 31  1  0
 11 32  1  0
 13 33  1  0
 18 34  1  0
 19 35  1  0
 22 36  1  0
 22 37  1  0
 22 38  1  0
 23 39  1  0
 23 40  1  0
 23 41  1  0
 24 42  1  0
 24 43  1  0
 24 44  1  0
M  END
>  <meeko>  (8) 
{"is_sidechain": [false], "free_energy": -7.537, "intermolecular_energy": -9.127, "internal_energy": 0.181}

$$$$
cand_027_out
     RDKit          3D

 44 46  0  0  0  0  0  0  0  0999 V2000
   69.5750   38.1350    0.5220 C   0  0  0  0  0  0  0  0  0  0  0  0
   69.5890   39.1850   -0.5570 C   0  0  0  0  0  0  0  0  0  0  0  0
   68.3180   39.6280   -0.9830 C   0  0  0  0  0  0  0  0  0  0  0  0
   68.1690   40.5990   -1.9700 C   0  0  0  0  0  0  0  0  0  0  0  0
   69.2910   41.1660   -2.5610 C   0  0  0  0  0  0  0  0  0  0  0  0
   69.1780   42.1880   -3.6240 C   0  0  0  0  0  0  0  0  0  0  0  0
   67.8580   42.4950   -3.9400 O   0  0  0  0  0  0  0  0  0  0  0  0
   67.6090   43.4280   -4.9130 C   0  0  0  0  0  0  0  0  0  0  0  0
   66.2720   43.7140   -5.1880 C   0  0  0  0  0  0  0  0  0  0  0  0
   65.9480   44.6540   -6.1690 C   0  0  0  0  0  0  0  0  0  0  0  0
   66.9610   45.3060   -6.8750 C   0  0  0  0  0  0  0  0  0  0  0  0
   68.2950   45.0180   -6.5980 C   0  0  0  0  0  0  0  0  0  0  0  0
   69.2360   45.6940   -7.3270 O   0  0  0  0  0  0  0  0  0  0  0  0
   68.6190   44.0790   -5.6160 C   0  0  0  0  0  0  0  0  0  0  0  0
   70.0060   43.7470   -5.2940 C   0  0  0  0  0  0  0  0  0  0  0  0
   70.9530   44.2740   -5.8750 O   0  0  0  0  0  0  0  0  0  0  0  0
   70.2430   42.7420   -4.2320 C   0  0  0  0  0  0  0  0  0  0  0  0
   71.5580   42.4250   -3.9460 O   0  0  0  0  0  0  0  0  0  0  0  0
   70.5600   40.7100   -2.1570 C   0  0  0  0  0  0  0  0  0  0  0  0
   70.7580   39.7080   -1.1700 C   0  0  0  0  0  0  0  0  0  0  0  0
   72.2090   39.2890   -0.8070 C   0  0  0  0  0  0  0  0  0  0  0  0
   72.5570   39.5380    0.6780 C   0  0  0  0  0  0  0  0  0  0  0  0
   73.1970   40.0520   -1.7150 C   0  0  0  0  0  0  0  0  0  0  0  0
   72.4880   37.7740   -1.0310 C   0  0  0  0  0  0  0  0  0  0  0  0
   69.5815   38.6224    1.5081 H   0  0  0  0  0  0  0  0  0  0  0  0
   68.6686   37.5197    0.4231 H   0  0  0  0  0  0  0  0  0  0  0  0
   70.4647   37.4957    0.4231 H   0  0  0  0  0  0  0  0  0  0  0  0
   67.4189   39.1934   -0.5217 H   0  0  0  0  0  0  0  0  0  0  0  0
   67.1631   40.9169   -2.2816 H   0  0  0  0  0  0  0  0  0  0  0  0
   65.4735   43.1999   -4.6329 H   0  0  0  0  0  0  0  0  0  0  0  0
   64.8937   44.8809   -6.3856 H   0  0  0  0  0  0  0  0  0  0  0  0
   66.7058   46.0455   -7.6483 H   0  0  0  0  0  0  0  0  0  0  0  0
   69.1610   46.6190   -7.4450 H   0  0  0  0  0  0  0  0  0  0  0  0
   72.2480   42.9880   -4.2370 H   0  0  0  0  0  0  0  0  0  0  0  0
   71.4472   41.1542   -2.6319 H   0  0  0  0  0  0  0  0  0  0  0  0
   71.8291   39.0172    1.3175 H   0  0  0  0  0  0  0  0  0  0  0  0
   73.5674   39.1566    0.8868 H   0  0  0  0  0  0  0  0  0  0  0  0
   72.5222   40.6174    0.8868 H   0  0  0  0  0  0  0  0  0  0  0  0
   73.9145   40.6061   -1.0920 H   0  0  0  0  0  0  0  0  0  0  0  0
   73.7392   39.3360   -2.3500 H   0  0  0  0  0  0  0  0  0  0  0  0
   72.6413   40.7577   -2.3500 H   0  0  0  0  0  0  0  0  0  0  0  0
   72.5807   37.2704   -0.0575 H   0  0  0  0  0  0  0  0  0  0  0  0
   71.6569   37.3279   -1.5969 H   0  0  0  0  0  0  0  0  0  0  0  0
   73.4235   37.6532   -1.5969 H   0  0  0  0  0  0  0  0  0  0  0  0
  1  2  1  0
  2  3  2  0
  3  4  1  0
  4  5  2  0
  5  6  1  0
  6  7  1  0
  7  8  1  0
  8  9  2  0
  9 10  1  0
 10 11  2  0
 11 12  1  0
 12 13  1  0
 12 14  2  0
 14 15  1  0
 15 16  2  0
 15 17  1  0
 17 18  1  0
  5 19  1  0
 19 20  2  0
 20 21  1  0
 21 22  1  0
 21 23  1  0
 21 24  1  0
 20  2  1  0
 17  6  2  0
 14  8  1  0
  1 25  1  0
  1 26  1  0
  1 27  1  0
  3 28  1  0
  4 29  1  0
  9 30  1  0
 10 31  1  0
 11 32  1  0
 13 33  1  0
 18 34  1  0
 19 35  1  0
 22 36  1  0
 22 37  1  0
 22 38  1  0
 23 39  1  0
 23 40  1  0
 23 41  1  0
 24 42  1  0
 24 43  1  0
 24 44  1  0
M  END
>  <meeko>  (9) 
{"is_sidechain": [false], "free_energy": -7.527, "intermolecular_energy": -9.315, "internal_energy": 0.38}

$$$$
