cand_004_out
     RDKit          3D

 38 40  0  0  0  0  0  0  0  0999 V2000
   67.8940   39.3850   -0.6620 C   0  0  0  0  0  0  0  0  0  0  0  0
   68.9890   38.9290    0.2910 C   0  0  0  0  0  0  0  0  0  0  0  0
   70.3650   39.0550   -0.3270 C   0  0  0  0  0  0  0  0  0  0  0  0
   70.5900   40.1130   -1.2330 C   0  0  0  0  0  0  0  0  0  0  0  0
   71.8270   40.2910   -1.8690 C   0  0  0  0  0  0  0  0  0  0  0  0
   72.0670   41.4130   -2.8010 C   0  0  0  0  0  0  0  0  0  0  0  0
   73.1910   42.1600   -2.4680 O   0  0  0  0  0  0  0  0  0  0  0  0
   73.5300   43.2330   -3.2530 C   0  0  0  0  0  0  0  0  0  0  0  0
   74.6570   43.9650   -2.8730 C   0  0  0  0  0  0  0  0  0  0  0  0
   75.0580   45.0680   -3.6300 C   0  0  0  0  0  0  0  0  0  0  0  0
   74.3330   45.4390   -4.7650 C   0  0  0  0  0  0  0  0  0  0  0  0
   73.2100   44.7080   -5.1400 C   0  0  0  0  0  0  0  0  0  0  0  0
   72.5480   45.1260   -6.2620 O   0  0  0  0  0  0  0  0  0  0  0  0
   72.8080   43.6040   -4.3840 C   0  0  0  0  0  0  0  0  0  0  0  0
   71.6340   42.8090   -4.7430 C   0  0  0  0  0  0  0  0  0  0  0  0
   70.9490   43.0680   -5.7310 O   0  0  0  0  0  0  0  0  0  0  0  0
   71.2890   41.6640   -3.8710 C   0  0  0  0  0  0  0  0  0  0  0  0
   70.1860   40.9100   -4.2260 O   0  0  0  0  0  0  0  0  0  0  0  0
   72.8590   39.3960   -1.5740 C   0  0  0  0  0  0  0  0  0  0  0  0
   72.6550   38.3410   -0.6800 C   0  0  0  0  0  0  0  0  0  0  0  0
   71.4110   38.1490   -0.0510 C   0  0  0  0  0  0  0  0  0  0  0  0
   71.2460   36.9910    0.9120 C   0  0  0  0  0  0  0  0  0  0  0  0
   70.7580   37.3710    2.1250 F   0  0  0  0  0  0  0  0  0  0  0  0
   72.4210   36.3490    1.1620 F   0  0  0  0  0  0  0  0  0  0  0  0
   70.3920   36.0280    0.4620 F   0  0  0  0  0  0  0  0  0  0  0  0
   67.0305   39.7446   -0.0832 H   0  0  0  0  0  0  0  0  0  0  0  0
   68.2752   40.1992   -1.2959 H   0  0  0  0  0  0  0  0  0  0  0  0
   67.5847   38.5409   -1.2959 H   0  0  0  0  0  0  0  0  0  0  0  0
   68.9495   39.5475    1.1998 H   0  0  0  0  0  0  0  0  0  0  0  0
   68.8167   37.8681    0.5250 H   0  0  0  0  0  0  0  0  0  0  0  0
   69.7726   40.8175   -1.4463 H   0  0  0  0  0  0  0  0  0  0  0  0
   75.2278   43.6733   -1.9791 H   0  0  0  0  0  0  0  0  0  0  0  0
   75.9457   45.6453   -3.3322 H   0  0  0  0  0  0  0  0  0  0  0  0
   74.6494   46.3076   -5.3613 H   0  0  0  0  0  0  0  0  0  0  0  0
   73.0240   45.5060   -6.9730 H   0  0  0  0  0  0  0  0  0  0  0  0
   70.2820   39.9960   -4.4110 H   0  0  0  0  0  0  0  0  0  0  0  0
   73.8423   39.5231   -2.0504 H   0  0  0  0  0  0  0  0  0  0  0  0
   73.4819   37.6484   -0.4643 H   0  0  0  0  0  0  0  0  0  0  0  0
  1  2  1  0
  2  3  1  0
  3  4  2  0
  4  5  1  0
  5  6  1  0
  6  7  1  0
  7  8  1  0
  8  9  2  0
  9 10  1  0
 10 11  2  0
 11 12  1  0
 12 13  1  0
 12 14  2  0
 14 15  1  0
 15 16  2  0
 15 17  1  0
 17 18  1  0
  5 19  2  0
 19 20  1  0
 20 21  2  0
 21 22  1  0
 22 23  1  0
 22 24  1  0
 22 25  1  0
 21  3  1  0
 17  6  2  0
 14  8  1  0
  1 26  1  0
  1 27  1  0
  1 28  1  0
  2 29  1  0
  2 30  1  0
  4 31  1  0
  9 32  1  0
 10 33  1  0
 11 34  1  0
 13 35  1  0
 18 36  1  0
 19 37  1  0
 20 38  1  0
M  END
>  <meeko>  (1) 
{"is_sidechain": [false], "free_energy": -8.405, "intermolecular_energy": -10.371, "internal_energy": -0.422}

$$$$
cand_004_out
     RDKit          3D

 38 40  0  0  0  0  0  0  0  0999 V2000
   69.8430   43.0570   -1.2730 C   0  0  0  0  0  0  0  0  0  0  0  0
   70.1140   41.7900   -0.4750 C   0  0  0  0  0  0  0  0  0  0  0  0
   71.1050   40.8840   -1.1740 C   0  0  0  0  0  0  0  0  0  0  0  0
   72.0490   41.4760   -2.0380 C   0  0  0  0  0  0  0  0  0  0  0  0
   72.9890   40.7090   -2.7430 C   0  0  0  0  0  0  0  0  0  0  0  0
   73.9920   41.3330   -3.6310 C   0  0  0  0  0  0  0  0  0  0  0  0
   73.4590   41.7310   -4.8520 O   0  0  0  0  0  0  0  0  0  0  0  0
   74.2840   42.3260   -5.7720 C   0  0  0  0  0  0  0  0  0  0  0  0
   73.7110   42.6960   -6.9910 C   0  0  0  0  0  0  0  0  0  0  0  0
   74.4950   43.3080   -7.9710 C   0  0  0  0  0  0  0  0  0  0  0  0
   75.8510   43.5500   -7.7340 C   0  0  0  0  0  0  0  0  0  0  0  0
   76.4190   43.1800   -6.5180 C   0  0  0  0  0  0  0  0  0  0  0  0
   77.7500   43.4470   -6.3530 O   0  0  0  0  0  0  0  0  0  0  0  0
   75.6350   42.5680   -5.5380 C   0  0  0  0  0  0  0  0  0  0  0  0
   76.1920   42.1620   -4.2460 C   0  0  0  0  0  0  0  0  0  0  0  0
   77.3740   42.3480   -3.9600 O   0  0  0  0  0  0  0  0  0  0  0  0
   75.2790   41.5140   -3.2790 C   0  0  0  0  0  0  0  0  0  0  0  0
   75.8110   41.1470   -2.0570 O   0  0  0  0  0  0  0  0  0  0  0  0
   72.9850   39.3230   -2.5600 C   0  0  0  0  0  0  0  0  0  0  0  0
   72.0550   38.7180   -1.7100 C   0  0  0  0  0  0  0  0  0  0  0  0
   71.1020   39.4820   -1.0120 C   0  0  0  0  0  0  0  0  0  0  0  0
   70.1200   38.7750   -0.1000 C   0  0  0  0  0  0  0  0  0  0  0  0
   70.3400   37.4340   -0.0160 F   0  0  0  0  0  0  0  0  0  0  0  0
   68.8290   38.9210   -0.5090 F   0  0  0  0  0  0  0  0  0  0  0  0
   70.1500   39.2290    1.1860 F   0  0  0  0  0  0  0  0  0  0  0  0
   69.6639   43.8941   -0.5822 H   0  0  0  0  0  0  0  0  0  0  0  0
   70.7129   43.2842   -1.9068 H   0  0  0  0  0  0  0  0  0  0  0  0
   68.9563   42.9085   -1.9068 H   0  0  0  0  0  0  0  0  0  0  0  0
   70.5197   42.0691    0.5086 H   0  0  0  0  0  0  0  0  0  0  0  0
   69.1655   41.2426   -0.3718 H   0  0  0  0  0  0  0  0  0  0  0  0
   72.0486   42.5689   -2.1628 H   0  0  0  0  0  0  0  0  0  0  0  0
   72.6440   42.5056   -7.1786 H   0  0  0  0  0  0  0  0  0  0  0  0
   74.0447   43.6002   -8.9311 H   0  0  0  0  0  0  0  0  0  0  0  0
   76.4681   44.0318   -8.5067 H   0  0  0  0  0  0  0  0  0  0  0  0
   78.0290   44.0470   -5.6890 H   0  0  0  0  0  0  0  0  0  0  0  0
   75.3590   41.3630   -1.2650 H   0  0  0  0  0  0  0  0  0  0  0  0
   73.7217   38.7020   -3.0907 H   0  0  0  0  0  0  0  0  0  0  0  0
   72.0685   37.6253   -1.5846 H   0  0  0  0  0  0  0  0  0  0  0  0
  1  2  1  0
  2  3  1  0
  3  4  2  0
  4  5  1  0
  5  6  1  0
  6  7  1  0
  7  8  1  0
  8  9  2  0
  9 10  1  0
 10 11  2  0
 11 12  1  0
 12 13  1  0
 12 14  2  0
 14 15  1  0
 15 16  2  0
 15 17  1  0
 17 18  1  0
  5 19  2  0
 19 20  1  0
 20 21  2  0
 21 22  1  0
 22 23  1  0
 22 24  1  0
 22 25  1  0
 21  3  1  0
 17  6  2  0
 14  8  1  0
  1 26  1  0
  1 27  1  0
  1 28  1  0
  2 29  1  0
  2 30  1  0
  4 31  1  0
  9 32  1  0
 10 33  1  0
 11 34  1  0
 13 35  1  0
 18 36  1  0
 19 37  1  0
 20 38  1  0
M  END
>  <meeko>  (2) 
{"is_sidechain": [false], "free_energy": -8.244, "intermolecular_energy": -9.993, "internal_energy": -0.601}

$$$$
cand_004_out
     RDKit          3D

 38 40  0  0  0  0  0  0  0  0999 V2000
   73.4960   39.5460   -1.3610 C   0  0  0  0  0  0  0  0  0  0  0  0
   72.7590   39.3630   -0.0420 C   0  0  0  0  0  0  0  0  0  0  0  0
   71.2590   39.3070   -0.2350 C   0  0  0  0  0  0  0  0  0  0  0  0
   70.6460   40.3440   -0.9690 C   0  0  0  0  0  0  0  0  0  0  0  0
   69.2600   40.3840   -1.1770 C   0  0  0  0  0  0  0  0  0  0  0  0
   68.6220   41.4590   -1.9640 C   0  0  0  0  0  0  0  0  0  0  0  0
   67.7280   42.2170   -1.2170 O   0  0  0  0  0  0  0  0  0  0  0  0
   67.0650   43.2520   -1.8270 C   0  0  0  0  0  0  0  0  0  0  0  0
   66.1650   43.9770   -1.0440 C   0  0  0  0  0  0  0  0  0  0  0  0
   65.4580   45.0440   -1.6030 C   0  0  0  0  0  0  0  0  0  0  0  0
   65.6510   45.3850   -2.9440 C   0  0  0  0  0  0  0  0  0  0  0  0
   66.5480   44.6600   -3.7220 C   0  0  0  0  0  0  0  0  0  0  0  0
   66.6880   45.0490   -5.0260 O   0  0  0  0  0  0  0  0  0  0  0  0
   67.2550   43.5930   -3.1630 C   0  0  0  0  0  0  0  0  0  0  0  0
   68.2080   42.8040   -3.9460 C   0  0  0  0  0  0  0  0  0  0  0  0
   68.4370   43.0470   -5.1290 O   0  0  0  0  0  0  0  0  0  0  0  0
   68.8990   41.6880   -3.2610 C   0  0  0  0  0  0  0  0  0  0  0  0
   69.8070   40.9580   -4.0050 O   0  0  0  0  0  0  0  0  0  0  0  0
   68.4810   39.3490   -0.6490 C   0  0  0  0  0  0  0  0  0  0  0  0
   69.0700   38.3130    0.0820 C   0  0  0  0  0  0  0  0  0  0  0  0
   70.4580   38.2780    0.3060 C   0  0  0  0  0  0  0  0  0  0  0  0
   71.0450   37.1300    1.1010 C   0  0  0  0  0  0  0  0  0  0  0  0
   72.3310   36.8440    0.7580 F   0  0  0  0  0  0  0  0  0  0  0  0
   70.3440   35.9720    0.9400 F   0  0  0  0  0  0  0  0  0  0  0  0
   71.0700   37.3580    2.4460 F   0  0  0  0  0  0  0  0  0  0  0  0
   74.5458   39.8067   -1.1613 H   0  0  0  0  0  0  0  0  0  0  0  0
   73.4539   38.6101   -1.9375 H   0  0  0  0  0  0  0  0  0  0  0  0
   73.0210   40.3535   -1.9375 H   0  0  0  0  0  0  0  0  0  0  0  0
   73.0926   38.4242    0.4242 H   0  0  0  0  0  0  0  0  0  0  0  0
   72.9876   40.2277    0.5983 H   0  0  0  0  0  0  0  0  0  0  0  0
   71.2730   41.1438   -1.3900 H   0  0  0  0  0  0  0  0  0  0  0  0
   66.0128   43.7083    0.0118 H   0  0  0  0  0  0  0  0  0  0  0  0
   64.7487   45.6162   -0.9870 H   0  0  0  0  0  0  0  0  0  0  0  0
   65.0945   46.2256   -3.3841 H   0  0  0  0  0  0  0  0  0  0  0  0
   66.4320   45.9110   -5.2890 H   0  0  0  0  0  0  0  0  0  0  0  0
   69.8440   40.0260   -3.9170 H   0  0  0  0  0  0  0  0  0  0  0  0
   67.3930   39.3503   -0.8108 H   0  0  0  0  0  0  0  0  0  0  0  0
   68.4366   37.5111    0.4891 H   0  0  0  0  0  0  0  0  0  0  0  0
  1  2  1  0
  2  3  1  0
  3  4  2  0
  4  5  1  0
  5  6  1  0
  6  7  1  0
  7  8  1  0
  8  9  2  0
  9 10  1  0
 10 11  2  0
 11 12  1  0
 12 13  1  0
 12 14  2  0
 14 15  1  0
 15 16  2  0
 15 17  1  0
 17 18  1  0
  5 19  2  0
 19 20  1  0
 20 21  2  0
 21 22  1  0
 22 23  1  0
 22 24  1  0
 22 25  1  0
 21  3  1  0
 17  6  2  0
 14  8  1  0
  1 26  1  0
  1 27  1  0
  1 28  1  0
  2 29  1  0
  2 30  1  0
  4 31  1  0
  9 32  1  0
 10 33  1  0
 11 34  1  0
 13 35  1  0
 18 36  1  0
 19 37  1  0
 20 38  1  0
M  END
>  <meeko>  (3) 
{"is_sidechain": [false], "free_energy": -8.025, "intermolecular_energy": -10.091, "internal_energy": -0.232}

$$$$
cand_004_out
     RDKit          3D

 38 40  0  0  0  0  0  0  0  0999 V2000
   72.9150   37.5810   -0.1630 C   0  0  0  0  0  0  0  0  0  0  0  0
   72.5720   38.9800    0.3300 C   0  0  0  0  0  0  0  0  0  0  0  0
   71.6540   39.7070   -0.6290 C   0  0  0  0  0  0  0  0  0  0  0  0
   72.2410   40.5280   -1.6140 C   0  0  0  0  0  0  0  0  0  0  0  0
   71.4660   41.2560   -2.5290 C   0  0  0  0  0  0  0  0  0  0  0  0
   72.0830   42.0980   -3.5750 C   0  0  0  0  0  0  0  0  0  0  0  0
   72.3120   43.4020   -3.1530 O   0  0  0  0  0  0  0  0  0  0  0  0
   72.8820   44.2920   -4.0270 C   0  0  0  0  0  0  0  0  0  0  0  0
   73.0790   45.5950   -3.5680 C   0  0  0  0  0  0  0  0  0  0  0  0
   73.6570   46.5500   -4.4070 C   0  0  0  0  0  0  0  0  0  0  0  0
   74.0370   46.2020   -5.7060 C   0  0  0  0  0  0  0  0  0  0  0  0
   73.8390   44.9010   -6.1620 C   0  0  0  0  0  0  0  0  0  0  0  0
   74.2340   44.6300   -7.4430 O   0  0  0  0  0  0  0  0  0  0  0  0
   73.2610   43.9470   -5.3220 C   0  0  0  0  0  0  0  0  0  0  0  0
   73.0340   42.5690   -5.7610 C   0  0  0  0  0  0  0  0  0  0  0  0
   73.3480   42.1850   -6.8870 O   0  0  0  0  0  0  0  0  0  0  0  0
   72.4080   41.6360   -4.7970 C   0  0  0  0  0  0  0  0  0  0  0  0
   72.2110   40.3340   -5.2170 O   0  0  0  0  0  0  0  0  0  0  0  0
   70.0740   41.1400   -2.4570 C   0  0  0  0  0  0  0  0  0  0  0  0
   69.4740   40.3330   -1.4860 C   0  0  0  0  0  0  0  0  0  0  0  0
   70.2480   39.6140   -0.5570 C   0  0  0  0  0  0  0  0  0  0  0  0
   69.5450   38.7510    0.4710 C   0  0  0  0  0  0  0  0  0  0  0  0
   69.7680   37.4200    0.2930 F   0  0  0  0  0  0  0  0  0  0  0  0
   68.1930   38.9140    0.4520 F   0  0  0  0  0  0  0  0  0  0  0  0
   69.9280   39.0140    1.7530 F   0  0  0  0  0  0  0  0  0  0  0  0
   73.0776   36.9179    0.6995 H   0  0  0  0  0  0  0  0  0  0  0  0
   72.0853   37.1933   -0.7723 H   0  0  0  0  0  0  0  0  0  0  0  0
   73.8299   37.6210   -0.7723 H   0  0  0  0  0  0  0  0  0  0  0  0
   72.0741   38.9004    1.3076 H   0  0  0  0  0  0  0  0  0  0  0  0
   73.5076   39.5533    0.4070 H   0  0  0  0  0  0  0  0  0  0  0  0
   73.3374   40.5995   -1.6663 H   0  0  0  0  0  0  0  0  0  0  0  0
   72.7792   45.8697   -2.5459 H   0  0  0  0  0  0  0  0  0  0  0  0
   73.8133   47.5769   -4.0451 H   0  0  0  0  0  0  0  0  0  0  0  0
   74.4917   46.9543   -6.3672 H   0  0  0  0  0  0  0  0  0  0  0  0
   75.1280   44.4110   -7.6210 H   0  0  0  0  0  0  0  0  0  0  0  0
   72.0500   39.6580   -4.5880 H   0  0  0  0  0  0  0  0  0  0  0  0
   69.4446   41.6898   -3.1722 H   0  0  0  0  0  0  0  0  0  0  0  0
   68.3772   40.2589   -1.4476 H   0  0  0  0  0  0  0  0  0  0  0  0
  1  2  1  0
  2  3  1  0
  3  4  2  0
  4  5  1  0
  5  6  1  0
  6  7  1  0
  7  8  1  0
  8  9  2  0
  9 10  1  0
 10 11  2  0
 11 12  1  0
 12 13  1  0
 12 14  2  0
 14 15  1  0
 15 16  2  0
 15 17  1  0
 17 18  1  0
  5 19  2  0
 19 20  1  0
 20 21  2  0
 21 22  1  0
 22 23  1  0
 22 24  1  0
 22 25  1  0
 21  3  1  0
 17  6  2  0
 14  8  1  0
  1 26  1  0
  1 27  1  0
  1 28  1  0
  2 29  1  0
  2 30  1  0
  4 31  1  0
  9 32  1  0
 10 33  1  0
 11 34  1  0
 13 35  1  0
 18 36  1  0
 19 37  1  0
 20 38  1  0
M  END
>  <meeko>  (4) 
{"is_sidechain": [false], "free_energy": -7.925, "intermolecular_energy": -9.554, "internal_energy": -0.646}

$$$$
cand_004_out
     RDKit          3D

 38 40  0  0  0  0  0  0  0  0999 V2000
   76.5980   42.8480   -1.8300 C   0  0  0  0  0  0  0  0  0  0  0  0
   75.7570   43.7150   -2.7560 C   0  0  0  0  0  0  0  0  0  0  0  0
   74.6090   42.9400   -3.3670 C   0  0  0  0  0  0  0  0  0  0  0  0
   73.8570   42.0940   -2.5250 C   0  0  0  0  0  0  0  0  0  0  0  0
   72.7920   41.3230   -3.0110 C   0  0  0  0  0  0  0  0  0  0  0  0
   71.9910   40.4550   -2.1240 C   0  0  0  0  0  0  0  0  0  0  0  0
   70.6360   40.7630   -2.1460 O   0  0  0  0  0  0  0  0  0  0  0  0
   69.7770   40.0310   -1.3660 C   0  0  0  0  0  0  0  0  0  0  0  0
   68.4270   40.3840   -1.4060 C   0  0  0  0  0  0  0  0  0  0  0  0
   67.4990   39.6780   -0.6370 C   0  0  0  0  0  0  0  0  0  0  0  0
   67.9210   38.6210    0.1730 C   0  0  0  0  0  0  0  0  0  0  0  0
   69.2680   38.2710    0.2110 C   0  0  0  0  0  0  0  0  0  0  0  0
   69.6110   37.2260    1.0250 O   0  0  0  0  0  0  0  0  0  0  0  0
   70.1960   38.9770   -0.5580 C   0  0  0  0  0  0  0  0  0  0  0  0
   71.6210   38.6430   -0.5460 C   0  0  0  0  0  0  0  0  0  0  0  0
   72.0680   37.7220    0.1350 O   0  0  0  0  0  0  0  0  0  0  0  0
   72.5230   39.4580   -1.3910 C   0  0  0  0  0  0  0  0  0  0  0  0
   73.8650   39.1260   -1.3840 O   0  0  0  0  0  0  0  0  0  0  0  0
   72.4690   41.4200   -4.3690 C   0  0  0  0  0  0  0  0  0  0  0  0
   73.2040   42.2510   -5.2190 C   0  0  0  0  0  0  0  0  0  0  0  0
   74.2830   43.0140   -4.7380 C   0  0  0  0  0  0  0  0  0  0  0  0
   75.0430   43.9010   -5.7040 C   0  0  0  0  0  0  0  0  0  0  0  0
   74.9820   45.2210   -5.3760 F   0  0  0  0  0  0  0  0  0  0  0  0
   74.5730   43.8070   -6.9790 F   0  0  0  0  0  0  0  0  0  0  0  0
   76.3720   43.6070   -5.7810 F   0  0  0  0  0  0  0  0  0  0  0  0
   76.3613   43.0920   -0.7839 H   0  0  0  0  0  0  0  0  0  0  0  0
   76.3756   41.7873   -2.0184 H   0  0  0  0  0  0  0  0  0  0  0  0
   77.6650   43.0380   -2.0184 H   0  0  0  0  0  0  0  0  0  0  0  0
   75.3496   44.5591   -2.1802 H   0  0  0  0  0  0  0  0  0  0  0  0
   76.4034   44.0676   -3.5732 H   0  0  0  0  0  0  0  0  0  0  0  0
   74.1137   42.0378   -1.4568 H   0  0  0  0  0  0  0  0  0  0  0  0
   68.0944   41.2173   -2.0424 H   0  0  0  0  0  0  0  0  0  0  0  0
   66.4348   39.9546   -0.6692 H   0  0  0  0  0  0  0  0  0  0  0  0
   67.1903   38.0661    0.7798 H   0  0  0  0  0  0  0  0  0  0  0  0
   69.4600   37.2810    1.9470 H   0  0  0  0  0  0  0  0  0  0  0  0
   74.1460   38.3200   -0.9960 H   0  0  0  0  0  0  0  0  0  0  0  0
   71.6281   40.8363   -4.7716 H   0  0  0  0  0  0  0  0  0  0  0  0
   72.9336   42.3093   -6.2836 H   0  0  0  0  0  0  0  0  0  0  0  0
  1  2  1  0
  2  3  1  0
  3  4  2  0
  4  5  1  0
  5  6  1  0
  6  7  1  0
  7  8  1  0
  8  9  2  0
  9 10  1  0
 10 11  2  0
 11 12  1  0
 12 13  1  0
 12 14  2  0
 14 15  1  0
 15 16  2  0
 15 17  1  0
 17 18  1  0
  5 19  2  0
 19 20  1  0
 20 21  2  0
 21 22  1  0
 22 23  1  0
 22 24  1  0
 22 25  1  0
 21  3  1  0
 17  6  2  0
 14  8  1  0
  1 26  1  0
  1 27  1  0
  1 28  1  0
  2 29  1  0
  2 30  1  0
  4 31  1  0
  9 32  1  0
 10 33  1  0
 11 34  1  0
 13 35  1  0
 18 36  1  0
 19 37  1  0
 20 38  1  0
M  END
>  <meeko>  (5) 
{"is_sidechain": [false], "free_energy": -7.784, "intermolecular_energy": -9.525, "internal_energy": -0.501}

$$$$
cand_004_out
     RDKit          3D

 38 40  0  0  0  0  0  0  0  0999 V2000
   67.7750   39.1060   -0.3870 C   0  0  0  0  0  0  0  0  0  0  0  0
   68.9000   38.6510    0.5310 C   0  0  0  0  0  0  0  0  0  0  0  0
   70.2510   38.7350   -0.1470 C   0  0  0  0  0  0  0  0  0  0  0  0
   70.4360   39.7230   -1.1370 C   0  0  0  0  0  0  0  0  0  0  0  0
   71.6470   39.8570   -1.8310 C   0  0  0  0  0  0  0  0  0  0  0  0
   71.8470   40.9060   -2.8520 C   0  0  0  0  0  0  0  0  0  0  0  0
   70.6880   41.6240   -3.1220 O   0  0  0  0  0  0  0  0  0  0  0  0
   70.7330   42.6310   -4.0530 C   0  0  0  0  0  0  0  0  0  0  0  0
   69.5430   43.3150   -4.3050 C   0  0  0  0  0  0  0  0  0  0  0  0
   69.5210   44.3530   -5.2400 C   0  0  0  0  0  0  0  0  0  0  0  0
   70.6880   44.7060   -5.9210 C   0  0  0  0  0  0  0  0  0  0  0  0
   71.8730   44.0210   -5.6680 C   0  0  0  0  0  0  0  0  0  0  0  0
   72.9780   44.4200   -6.3700 O   0  0  0  0  0  0  0  0  0  0  0  0
   71.8950   42.9830   -4.7330 C   0  0  0  0  0  0  0  0  0  0  0  0
   73.1200   42.2380   -4.4370 C   0  0  0  0  0  0  0  0  0  0  0  0
   74.1880   42.4940   -4.9900 O   0  0  0  0  0  0  0  0  0  0  0  0
   73.0350   41.1510   -3.4360 C   0  0  0  0  0  0  0  0  0  0  0  0
   74.2000   40.4620   -3.1530 O   0  0  0  0  0  0  0  0  0  0  0  0
   72.6950   38.9880   -1.5100 C   0  0  0  0  0  0  0  0  0  0  0  0
   72.5290   38.0010   -0.5340 C   0  0  0  0  0  0  0  0  0  0  0  0
   71.3110   37.8540    0.1550 C   0  0  0  0  0  0  0  0  0  0  0  0
   71.1890   36.7700    1.2060 C   0  0  0  0  0  0  0  0  0  0  0  0
   70.7260   37.2340    2.4000 F   0  0  0  0  0  0  0  0  0  0  0  0
   72.3790   36.1640    1.4720 F   0  0  0  0  0  0  0  0  0  0  0  0
   70.3370   35.7640    0.8530 F   0  0  0  0  0  0  0  0  0  0  0  0
   66.9239   39.4502    0.2189 H   0  0  0  0  0  0  0  0  0  0  0  0
   68.1307   39.9310   -1.0218 H   0  0  0  0  0  0  0  0  0  0  0  0
   67.4572   38.2657   -1.0218 H   0  0  0  0  0  0  0  0  0  0  0  0
   68.9104   39.2916    1.4252 H   0  0  0  0  0  0  0  0  0  0  0  0
   68.7176   37.5997    0.7984 H   0  0  0  0  0  0  0  0  0  0  0  0
   69.6071   40.4073   -1.3710 H   0  0  0  0  0  0  0  0  0  0  0  0
   68.6238   43.0374   -3.7684 H   0  0  0  0  0  0  0  0  0  0  0  0
   68.5836   44.8927   -5.4399 H   0  0  0  0  0  0  0  0  0  0  0  0
   70.6708   45.5241   -6.6562 H   0  0  0  0  0  0  0  0  0  0  0  0
   72.8860   45.0070   -7.0940 H   0  0  0  0  0  0  0  0  0  0  0  0
   74.8270   40.8260   -2.5590 H   0  0  0  0  0  0  0  0  0  0  0  0
   73.6594   39.0822   -2.0307 H   0  0  0  0  0  0  0  0  0  0  0  0
   73.3661   37.3268   -0.3003 H   0  0  0  0  0  0  0  0  0  0  0  0
  1  2  1  0
  2  3  1  0
  3  4  2  0
  4  5  1  0
  5  6  1  0
  6  7  1  0
  7  8  1  0
  8  9  2  0
  9 10  1  0
 10 11  2  0
 11 12  1  0
 12 13  1  0
 12 14  2  0
 14 15  1  0
 15 16  2  0
 15 17  1  0
 17 18  1  0
  5 19  2  0
 19 20  1  0
 20 21  2  0
 21 22  1  0
 22 23  1  0
 22 24  1  0
 22 25  1  0
 21  3  1  0
 17  6  2  0
 14  8  1  0
  1 26  1  0
  1 27  1  0
  1 28  1  0
  2 29  1  0
  2 30  1  0
  4 31  1  0
  9 32  1  0
 10 33  1  0
 11 34  1  0
 13 35  1  0
 18 36  1  0
 19 37  1  0
 20 38  1  0
M  END
>  <meeko>  (6) 
{"is_sidechain": [false], "free_energy": -7.765, "intermolecular_energy": -10.097, "internal_energy": 0.094}

$$$$
cand_004_out
     RDKit          3D

 38 40  0  0  0  0  0  0  0  0999 V2000
   76.1860   42.4650   -1.6880 C   0  0  0  0  0  0  0  0  0  0  0  0
   75.4620   43.5590   -2.4590 C   0  0  0  0  0  0  0  0  0  0  0  0
   74.4310   42.9920   -3.4110 C   0  0  0  0  0  0  0  0  0  0  0  0
   73.2250   42.5010   -2.8670 C   0  0  0  0  0  0  0  0  0  0  0  0
   72.2250   41.9380   -3.6740 C   0  0  0  0  0  0  0  0  0  0  0  0
   70.9540   41.4440   -3.1050 C   0  0  0  0  0  0  0  0  0  0  0  0
   71.1400   40.6000   -2.0170 O   0  0  0  0  0  0  0  0  0  0  0  0
   70.0400   40.0700   -1.3930 C   0  0  0  0  0  0  0  0  0  0  0  0
   70.2740   39.2140   -0.3150 C   0  0  0  0  0  0  0  0  0  0  0  0
   69.1970   38.6420    0.3660 C   0  0  0  0  0  0  0  0  0  0  0  0
   67.8880   38.9250   -0.0310 C   0  0  0  0  0  0  0  0  0  0  0  0
   67.6580   39.7780   -1.1070 C   0  0  0  0  0  0  0  0  0  0  0  0
   66.3520   40.0110   -1.4410 O   0  0  0  0  0  0  0  0  0  0  0  0
   68.7350   40.3500   -1.7880 C   0  0  0  0  0  0  0  0  0  0  0  0
   68.5380   41.2520   -2.9240 C   0  0  0  0  0  0  0  0  0  0  0  0
   67.4160   41.5540   -3.3280 O   0  0  0  0  0  0  0  0  0  0  0  0
   69.7460   41.7990   -3.5820 C   0  0  0  0  0  0  0  0  0  0  0  0
   69.5490   42.6600   -4.6450 O   0  0  0  0  0  0  0  0  0  0  0  0
   72.4400   41.8840   -5.0540 C   0  0  0  0  0  0  0  0  0  0  0  0
   73.6290   42.3630   -5.6110 C   0  0  0  0  0  0  0  0  0  0  0  0
   74.6400   42.9150   -4.8040 C   0  0  0  0  0  0  0  0  0  0  0  0
   75.9080   43.4240   -5.4610 C   0  0  0  0  0  0  0  0  0  0  0  0
   76.0880   44.7640   -5.3080 F   0  0  0  0  0  0  0  0  0  0  0  0
   75.9290   43.1910   -6.8030 F   0  0  0  0  0  0  0  0  0  0  0  0
   77.0420   42.8470   -4.9720 F   0  0  0  0  0  0  0  0  0  0  0  0
   76.0705   42.6396   -0.6081 H   0  0  0  0  0  0  0  0  0  0  0  0
   75.7565   41.4866   -1.9493 H   0  0  0  0  0  0  0  0  0  0  0  0
   77.2544   42.4780   -1.9493 H   0  0  0  0  0  0  0  0  0  0  0  0
   74.9569   44.2239   -1.7429 H   0  0  0  0  0  0  0  0  0  0  0  0
   76.2079   44.1080   -3.0524 H   0  0  0  0  0  0  0  0  0  0  0  0
   73.0646   42.5614   -1.7804 H   0  0  0  0  0  0  0  0  0  0  0  0
   71.3048   38.9905   -0.0026 H   0  0  0  0  0  0  0  0  0  0  0  0
   69.3798   37.9680    1.2158 H   0  0  0  0  0  0  0  0  0  0  0  0
   67.0401   38.4745    0.5058 H   0  0  0  0  0  0  0  0  0  0  0  0
   66.1260   40.7640   -1.9500 H   0  0  0  0  0  0  0  0  0  0  0  0
   69.7960   42.4010   -5.5110 H   0  0  0  0  0  0  0  0  0  0  0  0
   71.6648   41.4598   -5.7090 H   0  0  0  0  0  0  0  0  0  0  0  0
   73.7767   42.3073   -6.6996 H   0  0  0  0  0  0  0  0  0  0  0  0
  1  2  1  0
  2  3  1  0
  3  4  2  0
  4  5  1  0
  5  6  1  0
  6  7  1  0
  7  8  1  0
  8  9  2  0
  9 10  1  0
 10 11  2  0
 11 12  1  0
 12 13  1  0
 12 14  2  0
 14 15  1  0
 15 16  2  0
 15 17  1  0
 17 18  1  0
  5 19  2  0
 19 20  1  0
 20 21  2  0
 21 22  1  0
 22 23  1  0
 22 24  1  0
 22 25  1  0
 21  3  1  0
 17  6  2  0
 14  8  1  0
  1 26  1  0
  1 27  1  0
  1 28  1  0
  2 29  1  0
  2 30  1  0
  4 31  1  0
  9 32  1  0
 10 33  1  0
 11 34  1  0
 13 35  1  0
 18 36  1  0
 19 37  1  0
 20 38  1  0
M  END
>  <meeko>  (7) 
{"is_sidechain": [false], "free_energy": -7.765, "intermolecular_energy": -9.581, "internal_energy": -0.421}

$$$$
cand_004_out
     RDKit          3D

 38 40  0  0  0  0  0  0  0  0999 V2000
   70.3290   37.6310    0.5310 C   0  0  0  0  0  0  0  0  0  0  0  0
   69.5870   38.9500    0.6920 C   0  0  0  0  0  0  0  0  0  0  0  0
   69.7000   39.8160   -0.5440 C   0  0  0  0  0  0  0  0  0  0  0  0
   70.9530   40.3920   -0.8380 C   0  0  0  0  0  0  0  0  0  0  0  0
   71.1420   41.2260   -1.9500 C   0  0  0  0  0  0  0  0  0  0  0  0
   72.4610   41.8110   -2.2680 C   0  0  0  0  0  0  0  0  0  0  0  0
   72.3890   43.1600   -2.5950 O   0  0  0  0  0  0  0  0  0  0  0  0
   73.5450   43.8280   -2.9120 C   0  0  0  0  0  0  0  0  0  0  0  0
   73.4240   45.1770   -3.2490 C   0  0  0  0  0  0  0  0  0  0  0  0
   74.5620   45.9160   -3.5810 C   0  0  0  0  0  0  0  0  0  0  0  0
   75.8190   45.3060   -3.5750 C   0  0  0  0  0  0  0  0  0  0  0  0
   75.9360   43.9610   -3.2390 C   0  0  0  0  0  0  0  0  0  0  0  0
   77.1960   43.4280   -3.2530 O   0  0  0  0  0  0  0  0  0  0  0  0
   74.7980   43.2210   -2.9070 C   0  0  0  0  0  0  0  0  0  0  0  0
   74.8760   41.8050   -2.5480 C   0  0  0  0  0  0  0  0  0  0  0  0
   75.9460   41.2000   -2.5140 O   0  0  0  0  0  0  0  0  0  0  0  0
   73.6100   41.1100   -2.2210 C   0  0  0  0  0  0  0  0  0  0  0  0
   73.6960   39.7760   -1.8700 O   0  0  0  0  0  0  0  0  0  0  0  0
   70.0510   41.4690   -2.7890 C   0  0  0  0  0  0  0  0  0  0  0  0
   68.8000   40.9080   -2.5140 C   0  0  0  0  0  0  0  0  0  0  0  0
   68.6030   40.0840   -1.3910 C   0  0  0  0  0  0  0  0  0  0  0  0
   67.2270   39.4990   -1.1430 C   0  0  0  0  0  0  0  0  0  0  0  0
   67.2320   38.4940   -0.2250 F   0  0  0  0  0  0  0  0  0  0  0  0
   66.6700   38.9770   -2.2710 F   0  0  0  0  0  0  0  0  0  0  0  0
   66.3250   40.4110   -0.6780 F   0  0  0  0  0  0  0  0  0  0  0  0
   70.5616   37.2176    1.5235 H   0  0  0  0  0  0  0  0  0  0  0  0
   69.6981   36.9207   -0.0234 H   0  0  0  0  0  0  0  0  0  0  0  0
   71.2637   37.8014   -0.0234 H   0  0  0  0  0  0  0  0  0  0  0  0
   68.5243   38.7392    0.8825 H   0  0  0  0  0  0  0  0  0  0  0  0
   70.0402   39.4955    1.5329 H   0  0  0  0  0  0  0  0  0  0  0  0
   71.8064   40.1814   -0.1767 H   0  0  0  0  0  0  0  0  0  0  0  0
   72.4344   45.6573   -3.2532 H   0  0  0  0  0  0  0  0  0  0  0  0
   74.4684   46.9791   -3.8474 H   0  0  0  0  0  0  0  0  0  0  0  0
   76.7150   45.8885   -3.8356 H   0  0  0  0  0  0  0  0  0  0  0  0
   77.4380   42.7800   -2.6220 H   0  0  0  0  0  0  0  0  0  0  0  0
   73.0830   39.1580   -2.2190 H   0  0  0  0  0  0  0  0  0  0  0  0
   70.1778   42.1084   -3.6751 H   0  0  0  0  0  0  0  0  0  0  0  0
   67.9552   41.1146   -3.1875 H   0  0  0  0  0  0  0  0  0  0  0  0
  1  2  1  0
  2  3  1  0
  3  4  2  0
  4  5  1  0
  5  6  1  0
  6  7  1  0
  7  8  1  0
  8  9  2  0
  9 10  1  0
 10 11  2  0
 11 12  1  0
 12 13  1  0
 12 14  2  0
 14 15  1  0
 15 16  2  0
 15 17  1  0
 17 18  1  0
  5 19  2  0
 19 20  1  0
 20 21  2  0
 21 22  1  0
 22 23  1  0
 22 24  1  0
 22 25  1  0
 21  3  1  0
 17  6  2  0
 14  8  1  0
  1 26  1  0
  1 27  1  0
  1 28  1  0
  2 29  1  0
  2 30  1  0
  4 31  1  0
  9 32  1  0
 10 33  1  0
 11 34  1  0
 13 35  1  0
 18 36  1  0
 19 37  1  0
 20 38  1  0
M  END
>  <meeko>  (8) 
{"is_sidechain": [false], "free_energy": -7.758, "intermolecular_energy": -10.095, "internal_energy": 0.102}

$$$$
cand_004_out
     RDKit          3D

 38 40  0  0  0  0  0  0  0  0999 V2000
   76.3250   43.1410   -2.0980 C   0  0  0  0  0  0  0  0  0  0  0  0
   75.3370   43.9640   -2.9130 C   0  0  0  0  0  0  0  0  0  0  0  0
   74.2480   43.1030   -3.5160 C   0  0  0  0  0  0  0  0  0  0  0  0
   73.5100   42.2660   -2.6530 C   0  0  0  0  0  0  0  0  0  0  0  0
   72.4990   41.4200   -3.1300 C   0  0  0  0  0  0  0  0  0  0  0  0
   71.7110   40.5600   -2.2220 C   0  0  0  0  0  0  0  0  0  0  0  0
   72.4680   39.5450   -1.6470 O   0  0  0  0  0  0  0  0  0  0  0  0
   71.8590   38.6730   -0.7810 C   0  0  0  0  0  0  0  0  0  0  0  0
   72.6520   37.6600   -0.2400 C   0  0  0  0  0  0  0  0  0  0  0  0
   72.0940   36.7400    0.6510 C   0  0  0  0  0  0  0  0  0  0  0  0
   70.7440   36.8320    0.9980 C   0  0  0  0  0  0  0  0  0  0  0  0
   69.9560   37.8440    0.4570 C   0  0  0  0  0  0  0  0  0  0  0  0
   68.6430   37.8760    0.8410 O   0  0  0  0  0  0  0  0  0  0  0  0
   70.5140   38.7640   -0.4340 C   0  0  0  0  0  0  0  0  0  0  0  0
   69.7210   39.8420   -1.0270 C   0  0  0  0  0  0  0  0  0  0  0  0
   68.5280   39.9930   -0.7640 O   0  0  0  0  0  0  0  0  0  0  0  0
   70.4050   40.7600   -1.9650 C   0  0  0  0  0  0  0  0  0  0  0  0
   69.6510   41.7830   -2.5090 O   0  0  0  0  0  0  0  0  0  0  0  0
   72.2170   41.4290   -4.5000 C   0  0  0  0  0  0  0  0  0  0  0  0
   72.9400   42.2500   -5.3710 C   0  0  0  0  0  0  0  0  0  0  0  0
   73.9650   43.0900   -4.8990 C   0  0  0  0  0  0  0  0  0  0  0  0
   74.7130   43.9620   -5.8870 C   0  0  0  0  0  0  0  0  0  0  0  0
   74.6150   45.2910   -5.6070 F   0  0  0  0  0  0  0  0  0  0  0  0
   74.2610   43.8100   -7.1630 F   0  0  0  0  0  0  0  0  0  0  0  0
   76.0500   43.6990   -5.9390 F   0  0  0  0  0  0  0  0  0  0  0  0
   76.1364   43.2981   -1.0257 H   0  0  0  0  0  0  0  0  0  0  0  0
   76.2014   42.0750   -2.3397 H   0  0  0  0  0  0  0  0  0  0  0  0
   77.3511   43.4552   -2.3397 H   0  0  0  0  0  0  0  0  0  0  0  0
   74.8738   44.7156   -2.2569 H   0  0  0  0  0  0  0  0  0  0  0  0
   75.8886   44.4422   -3.7359 H   0  0  0  0  0  0  0  0  0  0  0  0
   73.7340   42.2774   -1.5761 H   0  0  0  0  0  0  0  0  0  0  0  0
   73.7146   37.5861   -0.5147 H   0  0  0  0  0  0  0  0  0  0  0  0
   72.7184   35.9423    1.0798 H   0  0  0  0  0  0  0  0  0  0  0  0
   70.3043   36.1059    1.6976 H   0  0  0  0  0  0  0  0  0  0  0  0
   68.2510   37.1200    1.2310 H   0  0  0  0  0  0  0  0  0  0  0  0
   69.7570   42.6600   -2.1980 H   0  0  0  0  0  0  0  0  0  0  0  0
   71.4188   40.7840   -4.8961 H   0  0  0  0  0  0  0  0  0  0  0  0
   72.7029   42.2388   -6.4451 H   0  0  0  0  0  0  0  0  0  0  0  0
  1  2  1  0
  2  3  1  0
  3  4  2  0
  4  5  1  0
  5  6  1  0
  6  7  1  0
  7  8  1  0
  8  9  2  0
  9 10  1  0
 10 11  2  0
 11 12  1  0
 12 13  1  0
 12 14  2  0
 14 15  1  0
 15 16  2  0
 15 17  1  0
 17 18  1  0
  5 19  2  0
 19 20  1  0
 20 21  2  0
 21 22  1  0
 22 23  1  0
 22 24  1  0
 22 25  1  0
 21  3  1  0
 17  6  2  0
 14  8  1  0
  1 26  1  0
  1 27  1  0
  1 28  1  0
  2 29  1  0
  2 30  1  0
  4 31  1  0
  9 32  1  0
 10 33  1  0
 11 34  1  0
 13 35  1  0
 18 36  1  0
 19 37  1  0
 20 38  1  0
M  END
>  <meeko>  (9) 
{"is_sidechain": [false], "free_energy": -7.756, "intermolecular_energy": -9.412, "internal_energy": -0.58}

$$$$
