cand_024_out
     RDKit          3D

 47 49  0  0  0  0  0  0  0  0999 V2000
   75.0230   43.7020   -8.2550 C   0  0  0  0  0  0  0  0  0  0  0  0
   74.1760   44.7760   -7.7310 N   0  0  0  0  0  0  0  0  0  0  0  0
   74.5240   46.0380   -8.3930 C   0  0  0  0  0  0  0  0  0  0  0  0
   74.3170   44.9220   -6.2690 C   0  0  0  0  0  0  0  0  0  0  0  0
   75.2110   43.8400   -5.6360 C   0  0  0  0  0  0  0  0  0  0  0  0
   74.4350   42.9540   -4.6790 C   0  0  0  0  0  0  0  0  0  0  0  0
   73.3030   42.2810   -5.1700 C   0  0  0  0  0  0  0  0  0  0  0  0
   72.5390   41.4590   -4.3390 C   0  0  0  0  0  0  0  0  0  0  0  0
   72.8860   41.2790   -2.9960 C   0  0  0  0  0  0  0  0  0  0  0  0
   72.0530   40.4180   -2.1290 C   0  0  0  0  0  0  0  0  0  0  0  0
   70.7080   40.7630   -2.1550 O   0  0  0  0  0  0  0  0  0  0  0  0
   69.8240   40.0400   -1.3950 C   0  0  0  0  0  0  0  0  0  0  0  0
   68.4850   40.4300   -1.4390 C   0  0  0  0  0  0  0  0  0  0  0  0
   67.5320   39.7360   -0.6900 C   0  0  0  0  0  0  0  0  0  0  0  0
   67.9190   38.6530    0.1030 C   0  0  0  0  0  0  0  0  0  0  0  0
   69.2550   38.2660    0.1450 C   0  0  0  0  0  0  0  0  0  0  0  0
   69.5650   37.1980    0.9410 O   0  0  0  0  0  0  0  0  0  0  0  0
   70.2080   38.9620   -0.6040 C   0  0  0  0  0  0  0  0  0  0  0  0
   71.6240   38.5880   -0.5880 C   0  0  0  0  0  0  0  0  0  0  0  0
   72.0400   37.6430    0.0780 O   0  0  0  0  0  0  0  0  0  0  0  0
   72.5530   39.3940   -1.4120 C   0  0  0  0  0  0  0  0  0  0  0  0
   73.8860   39.0260   -1.4020 O   0  0  0  0  0  0  0  0  0  0  0  0
   74.0080   41.9600   -2.5020 C   0  0  0  0  0  0  0  0  0  0  0  0
   74.7930   42.7990   -3.3230 C   0  0  0  0  0  0  0  0  0  0  0  0
   76.0010   43.4830   -2.7220 C   0  0  0  0  0  0  0  0  0  0  0  0
   77.1770   43.1600   -3.3350 F   0  0  0  0  0  0  0  0  0  0  0  0
   75.9180   44.8410   -2.7790 F   0  0  0  0  0  0  0  0  0  0  0  0
   76.1860   43.1740   -1.4060 F   0  0  0  0  0  0  0  0  0  0  0  0
   75.4648   43.1418   -7.4177 H   0  0  0  0  0  0  0  0  0  0  0  0
   74.4149   43.0226   -8.8704 H   0  0  0  0  0  0  0  0  0  0  0  0
   75.8254   44.1350   -8.8704 H   0  0  0  0  0  0  0  0  0  0  0  0
   73.2030   44.5370   -7.9250 H   0  0  0  0  0  0  0  0  0  0  0  0
   74.7354   46.8046   -7.6330 H   0  0  0  0  0  0  0  0  0  0  0  0
   75.4146   45.8891   -9.0212 H   0  0  0  0  0  0  0  0  0  0  0  0
   73.6829   46.3666   -9.0212 H   0  0  0  0  0  0  0  0  0  0  0  0
   74.7570   45.9076   -6.0567 H   0  0  0  0  0  0  0  0  0  0  0  0
   73.3136   44.8151   -5.8310 H   0  0  0  0  0  0  0  0  0  0  0  0
   75.6335   43.2147   -6.4363 H   0  0  0  0  0  0  0  0  0  0  0  0
   76.0052   44.3443   -5.0660 H   0  0  0  0  0  0  0  0  0  0  0  0
   73.0146   42.4036   -6.2244 H   0  0  0  0  0  0  0  0  0  0  0  0
   71.6541   40.9472   -4.7452 H   0  0  0  0  0  0  0  0  0  0  0  0
   68.1803   41.2831   -2.0629 H   0  0  0  0  0  0  0  0  0  0  0  0
   66.4761   40.0424   -0.7246 H   0  0  0  0  0  0  0  0  0  0  0  0
   67.1686   38.1068    0.6935 H   0  0  0  0  0  0  0  0  0  0  0  0
   68.9590   36.9110    1.5960 H   0  0  0  0  0  0  0  0  0  0  0  0
   74.5200   39.5470   -1.8570 H   0  0  0  0  0  0  0  0  0  0  0  0
   74.2846   41.8371   -1.4445 H   0  0  0  0  0  0  0  0  0  0  0  0
  1  2  1  0
  2  3  1  0
  2  4  1  0
  4  5  1  0
  5  6  1  0
  6  7  2  0
  7  8  1  0
  8  9  2  0
  9 10  1  0
 10 11  1  0
 11 12  1  0
 12 13  2  0
 13 14  1  0
 14 15  2  0
 15 16  1  0
 16 17  1  0
 16 18  2  0
 18 19  1  0
 19 20  2  0
 19 21  1  0
 21 22  1  0
  9 23  1  0
 23 24  2  0
 24 25  1  0
 25 26  1  0
 25 27  1  0
 25 28  1  0
 24  6  1  0
 21 10  2  0
 18 12  1  0
  1 29  1  0
  1 30  1  0
  1 31  1  0
  2 32  1  0
  3 33  1  0
  3 34  1  0
  3 35  1  0
  4 36  1  0
  4 37  1  0
  5 38  1  0
  5 39  1  0
  7 40  1  0
  8 41  1  0
 13 42  1  0
 14 43  1  0
 15 44  1  0
 17 45  1  0
 22 46  1  0
 23 47  1  0
M  CHG  1   2   1
M  END
>  <meeko>  (1) 
{"is_sidechain": [false], "free_energy": -7.722, "intermolecular_energy": -10.431, "internal_energy": -0.606}

$$$$
cand_024_out
     RDKit          3D

 47 49  0  0  0  0  0  0  0  0999 V2000
   77.6200   41.6370   -6.2150 C   0  0  0  0  0  0  0  0  0  0  0  0
   77.2520   42.9020   -6.8560 N   0  0  0  0  0  0  0  0  0  0  0  0
   77.9870   44.0010   -6.2220 C   0  0  0  0  0  0  0  0  0  0  0  0
   75.8000   43.1560   -6.7720 C   0  0  0  0  0  0  0  0  0  0  0  0
   75.3860   43.8900   -5.4830 C   0  0  0  0  0  0  0  0  0  0  0  0
   74.5870   42.9940   -4.5540 C   0  0  0  0  0  0  0  0  0  0  0  0
   73.4470   42.3550   -5.0680 C   0  0  0  0  0  0  0  0  0  0  0  0
   72.6620   41.5270   -4.2630 C   0  0  0  0  0  0  0  0  0  0  0  0
   72.9960   41.3070   -2.9230 C   0  0  0  0  0  0  0  0  0  0  0  0
   72.1420   40.4410   -2.0830 C   0  0  0  0  0  0  0  0  0  0  0  0
   70.8020   40.8030   -2.1180 O   0  0  0  0  0  0  0  0  0  0  0  0
   69.8990   40.0780   -1.3830 C   0  0  0  0  0  0  0  0  0  0  0  0
   68.5660   40.4850   -1.4360 C   0  0  0  0  0  0  0  0  0  0  0  0
   67.5950   39.7890   -0.7120 C   0  0  0  0  0  0  0  0  0  0  0  0
   67.9590   38.6870    0.0640 C   0  0  0  0  0  0  0  0  0  0  0  0
   69.2900   38.2820    0.1150 C   0  0  0  0  0  0  0  0  0  0  0  0
   69.5750   37.1950    0.8940 O   0  0  0  0  0  0  0  0  0  0  0  0
   70.2610   38.9790   -0.6090 C   0  0  0  0  0  0  0  0  0  0  0  0
   71.6710   38.5870   -0.5830 C   0  0  0  0  0  0  0  0  0  0  0  0
   72.0670   37.6250    0.0700 O   0  0  0  0  0  0  0  0  0  0  0  0
   72.6200   39.3970   -1.3800 C   0  0  0  0  0  0  0  0  0  0  0  0
   73.9490   39.0120   -1.3600 O   0  0  0  0  0  0  0  0  0  0  0  0
   74.1270   41.9560   -2.4040 C   0  0  0  0  0  0  0  0  0  0  0  0
   74.9320   42.8000   -3.1990 C   0  0  0  0  0  0  0  0  0  0  0  0
   76.1490   43.4480   -2.5730 C   0  0  0  0  0  0  0  0  0  0  0  0
   77.3250   43.0960   -3.1680 F   0  0  0  0  0  0  0  0  0  0  0  0
   76.1040   44.8080   -2.6240 F   0  0  0  0  0  0  0  0  0  0  0  0
   76.3020   43.1260   -1.2570 F   0  0  0  0  0  0  0  0  0  0  0  0
   77.5854   41.7561   -5.1220 H   0  0  0  0  0  0  0  0  0  0  0  0
   76.9131   40.8517   -6.5209 H   0  0  0  0  0  0  0  0  0  0  0  0
   78.6379   41.3535   -6.5209 H   0  0  0  0  0  0  0  0  0  0  0  0
   77.4980   42.8420   -7.8440 H   0  0  0  0  0  0  0  0  0  0  0  0
   77.9215   43.9031   -5.1283 H   0  0  0  0  0  0  0  0  0  0  0  0
   79.0420   43.9629   -6.5310 H   0  0  0  0  0  0  0  0  0  0  0  0
   77.5489   44.9615   -6.5310 H   0  0  0  0  0  0  0  0  0  0  0  0
   75.5020   43.7697   -7.6349 H   0  0  0  0  0  0  0  0  0  0  0  0
   75.2968   42.1778   -6.7671 H   0  0  0  0  0  0  0  0  0  0  0  0
   76.2924   44.2276   -4.9591 H   0  0  0  0  0  0  0  0  0  0  0  0
   74.7505   44.7425   -5.7649 H   0  0  0  0  0  0  0  0  0  0  0  0
   73.1682   42.5091   -6.1209 H   0  0  0  0  0  0  0  0  0  0  0  0
   71.7706   41.0422   -4.6878 H   0  0  0  0  0  0  0  0  0  0  0  0
   68.2795   41.3534   -2.0474 H   0  0  0  0  0  0  0  0  0  0  0  0
   66.5435   40.1093   -0.7533 H   0  0  0  0  0  0  0  0  0  0  0  0
   67.1947   38.1391    0.6347 H   0  0  0  0  0  0  0  0  0  0  0  0
   70.4640   37.0020    1.1220 H   0  0  0  0  0  0  0  0  0  0  0  0
   74.1770   38.1280   -1.1470 H   0  0  0  0  0  0  0  0  0  0  0  0
   74.3936   41.8026   -1.3479 H   0  0  0  0  0  0  0  0  0  0  0  0
  1  2  1  0
  2  3  1  0
  2  4  1  0
  4  5  1  0
  5  6  1  0
  6  7  2  0
  7  8  1  0
  8  9  2  0
  9 10  1  0
 10 11  1  0
 11 12  1  0
 12 13  2  0
 13 14  1  0
 14 15  2  0
 15 16  1  0
 16 17  1  0
 16 18  2  0
 18 19  1  0
 19 20  2  0
 19 21  1  0
 21 22  1  0
  9 23  1  0
 23 24  2  0
 24 25  1  0
 25 26  1  0
 25 27  1  0
 25 28  1  0
 24  6  1  0
 21 10  2  0
 18 12  1  0
  1 29  1  0
  1 30  1  0
  1 31  1  0
  2 32  1  0
  3 33  1  0
  3 34  1  0
  3 35  1  0
  4 36  1  0
  4 37  1  0
  5 38  1  0
  5 39  1  0
  7 40  1  0
  8 41  1  0
 13 42  1  0
 14 43  1  0
 15 44  1  0
 17 45  1  0
 22 46  1  0
 23 47  1  0
M  CHG  1   2   1
M  END
>  <meeko>  (2) 
{"is_sidechain": [false], "free_energy": -7.702, "intermolecular_energy": -10.299, "internal_energy": -0.711}

$$$$
cand_024_out
     RDKit          3D

 47 49  0  0  0  0  0  0  0  0999 V2000
   77.0000   44.0710   -6.3260 C   0  0  0  0  0  0  0  0  0  0  0  0
   75.6500   44.3370   -5.8210 N   0  0  0  0  0  0  0  0  0  0  0  0
   74.7290   44.4940   -6.9520 C   0  0  0  0  0  0  0  0  0  0  0  0
   75.6100   45.5430   -4.9720 C   0  0  0  0  0  0  0  0  0  0  0  0
   75.4210   45.2250   -3.4770 C   0  0  0  0  0  0  0  0  0  0  0  0
   74.2180   44.3310   -3.2370 C   0  0  0  0  0  0  0  0  0  0  0  0
   72.9440   44.8380   -3.5450 C   0  0  0  0  0  0  0  0  0  0  0  0
   71.7960   44.0700   -3.3370 C   0  0  0  0  0  0  0  0  0  0  0  0
   71.8860   42.7730   -2.8210 C   0  0  0  0  0  0  0  0  0  0  0  0
   70.6570   41.9840   -2.5930 C   0  0  0  0  0  0  0  0  0  0  0  0
   70.7210   41.2030   -1.4460 O   0  0  0  0  0  0  0  0  0  0  0  0
   69.6430   40.4220   -1.1150 C   0  0  0  0  0  0  0  0  0  0  0  0
   69.7540   39.6420    0.0370 C   0  0  0  0  0  0  0  0  0  0  0  0
   68.6930   38.8250    0.4310 C   0  0  0  0  0  0  0  0  0  0  0  0
   67.5210   38.7870   -0.3270 C   0  0  0  0  0  0  0  0  0  0  0  0
   67.4110   39.5660   -1.4760 C   0  0  0  0  0  0  0  0  0  0  0  0
   66.2360   39.4820   -2.1700 O   0  0  0  0  0  0  0  0  0  0  0  0
   68.4740   40.3830   -1.8700 C   0  0  0  0  0  0  0  0  0  0  0  0
   68.4000   41.2170   -3.0710 C   0  0  0  0  0  0  0  0  0  0  0  0
   67.4010   41.2440   -3.7850 O   0  0  0  0  0  0  0  0  0  0  0  0
   69.5850   42.0410   -3.4040 C   0  0  0  0  0  0  0  0  0  0  0  0
   69.5020   42.8370   -4.5330 O   0  0  0  0  0  0  0  0  0  0  0  0
   73.1560   42.2720   -2.5010 C   0  0  0  0  0  0  0  0  0  0  0  0
   74.3300   43.0310   -2.7000 C   0  0  0  0  0  0  0  0  0  0  0  0
   75.6660   42.4120   -2.3500 C   0  0  0  0  0  0  0  0  0  0  0  0
   76.5440   42.3750   -3.3930 F   0  0  0  0  0  0  0  0  0  0  0  0
   76.3090   43.0810   -1.3520 F   0  0  0  0  0  0  0  0  0  0  0  0
   75.5570   41.1210   -1.9260 F   0  0  0  0  0  0  0  0  0  0  0  0
   77.6883   43.9354   -5.4787 H   0  0  0  0  0  0  0  0  0  0  0  0
   76.9888   43.1578   -6.9391 H   0  0  0  0  0  0  0  0  0  0  0  0
   77.3361   44.9202   -6.9391 H   0  0  0  0  0  0  0  0  0  0  0  0
   75.3640   43.5440   -5.2460 H   0  0  0  0  0  0  0  0  0  0  0  0
   73.7106   44.6676   -6.5742 H   0  0  0  0  0  0  0  0  0  0  0  0
   75.0438   45.3514   -7.5649 H   0  0  0  0  0  0  0  0  0  0  0  0
   74.7420   43.5807   -7.5649 H   0  0  0  0  0  0  0  0  0  0  0  0
   76.5562   46.0900   -5.0964 H   0  0  0  0  0  0  0  0  0  0  0  0
   74.7432   46.1400   -5.2919 H   0  0  0  0  0  0  0  0  0  0  0  0
   76.3224   44.7161   -3.1048 H   0  0  0  0  0  0  0  0  0  0  0  0
   75.2532   46.1731   -2.9450 H   0  0  0  0  0  0  0  0  0  0  0  0
   72.8495   45.8541   -3.9557 H   0  0  0  0  0  0  0  0  0  0  0  0
   70.8093   44.4902   -3.5819 H   0  0  0  0  0  0  0  0  0  0  0  0
   70.6773   39.6710    0.6343 H   0  0  0  0  0  0  0  0  0  0  0  0
   68.7803   38.2107    1.3393 H   0  0  0  0  0  0  0  0  0  0  0  0
   66.6854   38.1423   -0.0168 H   0  0  0  0  0  0  0  0  0  0  0  0
   66.1070   38.7910   -2.7900 H   0  0  0  0  0  0  0  0  0  0  0  0
   69.5220   42.4450   -5.3840 H   0  0  0  0  0  0  0  0  0  0  0  0
   73.2402   41.2581   -2.0827 H   0  0  0  0  0  0  0  0  0  0  0  0
  1  2  1  0
  2  3  1  0
  2  4  1  0
  4  5  1  0
  5  6  1  0
  6  7  2  0
  7  8  1  0
  8  9  2  0
  9 10  1  0
 10 11  1  0
 11 12  1  0
 12 13  2  0
 13 14  1  0
 14 15  2  0
 15 16  1  0
 16 17  1  0
 16 18  2  0
 18 19  1  0
 19 20  2  0
 19 21  1  0
 21 22  1  0
  9 23  1  0
 23 24  2  0
 24 25  1  0
 25 26  1  0
 25 27  1  0
 25 28  1  0
 24  6  1  0
 21 10  2  0
 18 12  1  0
  1 29  1  0
  1 30  1  0
  1 31  1  0
  2 32  1  0
  3 33  1  0
  3 34  1  0
  3 35  1  0
  4 36  1  0
  4 37  1  0
  5 38  1  0
  5 39  1  0
  7 40  1  0
  8 41  1  0
 13 42  1  0
 14 43  1  0
 15 44  1  0
 17 45  1  0
 22 46  1  0
 23 47  1  0
M  CHG  1   2   1
M  END
>  <meeko>  (3) 
{"is_sidechain": [false], "free_energy": -7.655, "intermolecular_energy": -10.441, "internal_energy": -0.505}

$$$$
cand_024_out
     RDKit          3D

 47 49  0  0  0  0  0  0  0  0999 V2000
   75.1270   43.8140   -8.2570 C   0  0  0  0  0  0  0  0  0  0  0  0
   74.2130   44.8360   -7.7400 N   0  0  0  0  0  0  0  0  0  0  0  0
   74.4730   46.1100   -8.4180 C   0  0  0  0  0  0  0  0  0  0  0  0
   74.3530   45.0070   -6.2800 C   0  0  0  0  0  0  0  0  0  0  0  0
   75.2220   43.9200   -5.6230 C   0  0  0  0  0  0  0  0  0  0  0  0
   74.4150   43.0450   -4.6800 C   0  0  0  0  0  0  0  0  0  0  0  0
   73.2760   42.3980   -5.1870 C   0  0  0  0  0  0  0  0  0  0  0  0
   72.4850   41.5880   -4.3690 C   0  0  0  0  0  0  0  0  0  0  0  0
   72.8110   41.3950   -3.0230 C   0  0  0  0  0  0  0  0  0  0  0  0
   71.9510   40.5480   -2.1700 C   0  0  0  0  0  0  0  0  0  0  0  0
   72.6430   39.5050   -1.5680 O   0  0  0  0  0  0  0  0  0  0  0  0
   71.9620   38.6440   -0.7470 C   0  0  0  0  0  0  0  0  0  0  0  0
   72.6930   37.6020   -0.1750 C   0  0  0  0  0  0  0  0  0  0  0  0
   72.0600   36.6900    0.6720 C   0  0  0  0  0  0  0  0  0  0  0  0
   70.6970   36.8190    0.9450 C   0  0  0  0  0  0  0  0  0  0  0  0
   69.9690   37.8590    0.3730 C   0  0  0  0  0  0  0  0  0  0  0  0
   68.6390   37.9260    0.6840 O   0  0  0  0  0  0  0  0  0  0  0  0
   70.6030   38.7710   -0.4750 C   0  0  0  0  0  0  0  0  0  0  0  0
   69.8750   39.8780   -1.0970 C   0  0  0  0  0  0  0  0  0  0  0  0
   68.6760   40.0620   -0.9000 O   0  0  0  0  0  0  0  0  0  0  0  0
   70.6390   40.7850   -1.9850 C   0  0  0  0  0  0  0  0  0  0  0  0
   69.9470   41.8360   -2.5580 O   0  0  0  0  0  0  0  0  0  0  0  0
   73.9400   42.0520   -2.5120 C   0  0  0  0  0  0  0  0  0  0  0  0
   74.7530   42.8770   -3.3190 C   0  0  0  0  0  0  0  0  0  0  0  0
   75.9670   43.5340   -2.7000 C   0  0  0  0  0  0  0  0  0  0  0  0
   77.1420   43.2030   -3.3100 F   0  0  0  0  0  0  0  0  0  0  0  0
   75.9050   44.8950   -2.7380 F   0  0  0  0  0  0  0  0  0  0  0  0
   76.1380   43.2030   -1.3880 F   0  0  0  0  0  0  0  0  0  0  0  0
   75.5996   43.2855   -7.4160 H   0  0  0  0  0  0  0  0  0  0  0  0
   74.5643   43.0959   -8.8716 H   0  0  0  0  0  0  0  0  0  0  0  0
   75.9032   44.2934   -8.8716 H   0  0  0  0  0  0  0  0  0  0  0  0
   73.2570   44.5310   -7.9250 H   0  0  0  0  0  0  0  0  0  0  0  0
   74.6339   46.8984   -7.6679 H   0  0  0  0  0  0  0  0  0  0  0  0
   75.3701   46.0141   -9.0473 H   0  0  0  0  0  0  0  0  0  0  0  0
   73.6101   46.3732   -9.0473 H   0  0  0  0  0  0  0  0  0  0  0  0
   74.8127   45.9872   -6.0853 H   0  0  0  0  0  0  0  0  0  0  0  0
   73.3463   44.9288   -5.8436 H   0  0  0  0  0  0  0  0  0  0  0  0
   75.6568   43.2875   -6.4110 H   0  0  0  0  0  0  0  0  0  0  0  0
   76.0081   44.4190   -5.0372 H   0  0  0  0  0  0  0  0  0  0  0  0
   73.0029   42.5312   -6.2442 H   0  0  0  0  0  0  0  0  0  0  0  0
   71.5951   41.0961   -4.7886 H   0  0  0  0  0  0  0  0  0  0  0  0
   73.7667   37.4992   -0.3911 H   0  0  0  0  0  0  0  0  0  0  0  0
   72.6358   35.8692    1.1245 H   0  0  0  0  0  0  0  0  0  0  0  0
   70.1986   36.0997    1.6114 H   0  0  0  0  0  0  0  0  0  0  0  0
   68.1990   38.7540    0.6830 H   0  0  0  0  0  0  0  0  0  0  0  0
   69.0170   41.7810   -2.6680 H   0  0  0  0  0  0  0  0  0  0  0  0
   74.1996   41.9205   -1.4512 H   0  0  0  0  0  0  0  0  0  0  0  0
  1  2  1  0
  2  3  1  0
  2  4  1  0
  4  5  1  0
  5  6  1  0
  6  7  2  0
  7  8  1  0
  8  9  2  0
  9 10  1  0
 10 11  1  0
 11 12  1  0
 12 13  2  0
 13 14  1  0
 14 15  2  0
 15 16  1  0
 16 17  1  0
 16 18  2  0
 18 19  1  0
 19 20  2  0
 19 21  1  0
 21 22  1  0
  9 23  1  0
 23 24  2  0
 24 25  1  0
 25 26  1  0
 25 27  1  0
 25 28  1  0
 24  6  1  0
 21 10  2  0
 18 12  1  0
  1 29  1  0
  1 30  1  0
  1 31  1  0
  2 32  1  0
  3 33  1  0
  3 34  1  0
  3 35  1  0
  4 36  1  0
  4 37  1  0
  5 38  1  0
  5 39  1  0
  7 40  1  0
  8 41  1  0
 13 42  1  0
 14 43  1  0
 15 44  1  0
 17 45  1  0
 22 46  1  0
 23 47  1  0
M  CHG  1   2   1
M  END
>  <meeko>  (4) 
{"is_sidechain": [false], "free_energy": -7.643, "intermolecular_energy": -10.313, "internal_energy": -0.617}

$$$$
cand_024_out
     RDKit          3D

 47 49  0  0  0  0  0  0  0  0999 V2000
   70.5890   38.1830    2.1990 C   0  0  0  0  0  0  0  0  0  0  0  0
   70.1800   37.4080    1.0250 N   0  0  0  0  0  0  0  0  0  0  0  0
   71.2010   36.3990    0.7270 C   0  0  0  0  0  0  0  0  0  0  0  0
   69.9680   38.2700   -0.1540 C   0  0  0  0  0  0  0  0  0  0  0  0
   70.2870   39.7520    0.1140 C   0  0  0  0  0  0  0  0  0  0  0  0
   71.2820   40.3070   -0.8900 C   0  0  0  0  0  0  0  0  0  0  0  0
   72.4090   39.5290   -1.2060 C   0  0  0  0  0  0  0  0  0  0  0  0
   73.3670   39.9870   -2.1130 C   0  0  0  0  0  0  0  0  0  0  0  0
   73.2250   41.2310   -2.7370 C   0  0  0  0  0  0  0  0  0  0  0  0
   74.2600   41.7040   -3.6810 C   0  0  0  0  0  0  0  0  0  0  0  0
   73.7340   42.1090   -4.9010 O   0  0  0  0  0  0  0  0  0  0  0  0
   74.5880   42.5740   -5.8690 C   0  0  0  0  0  0  0  0  0  0  0  0
   74.0200   42.9570   -7.0840 C   0  0  0  0  0  0  0  0  0  0  0  0
   74.8330   43.4400   -8.1120 C   0  0  0  0  0  0  0  0  0  0  0  0
   76.2130   43.5390   -7.9240 C   0  0  0  0  0  0  0  0  0  0  0  0
   76.7780   43.1570   -6.7100 C   0  0  0  0  0  0  0  0  0  0  0  0
   78.1350   43.2800   -6.5930 O   0  0  0  0  0  0  0  0  0  0  0  0
   75.9640   42.6730   -5.6820 C   0  0  0  0  0  0  0  0  0  0  0  0
   76.5170   42.2590   -4.3910 C   0  0  0  0  0  0  0  0  0  0  0  0
   77.7190   42.3240   -4.1470 O   0  0  0  0  0  0  0  0  0  0  0  0
   75.5690   41.7540   -3.3720 C   0  0  0  0  0  0  0  0  0  0  0  0
   76.0970   41.3780   -2.1500 O   0  0  0  0  0  0  0  0  0  0  0  0
   72.1080   42.0140   -2.4120 C   0  0  0  0  0  0  0  0  0  0  0  0
   71.1280   41.5730   -1.4960 C   0  0  0  0  0  0  0  0  0  0  0  0
   69.9390   42.4660   -1.2140 C   0  0  0  0  0  0  0  0  0  0  0  0
   68.7380   41.8260   -1.3060 F   0  0  0  0  0  0  0  0  0  0  0  0
   69.9730   43.0050    0.0370 F   0  0  0  0  0  0  0  0  0  0  0  0
   69.8520   43.5200   -2.0740 F   0  0  0  0  0  0  0  0  0  0  0  0
   70.3035   37.6419    3.1132 H   0  0  0  0  0  0  0  0  0  0  0  0
   71.6796   38.3253    2.1827 H   0  0  0  0  0  0  0  0  0  0  0  0
   70.0910   39.1637    2.1827 H   0  0  0  0  0  0  0  0  0  0  0  0
   69.2910   36.9530    1.2390 H   0  0  0  0  0  0  0  0  0  0  0  0
   71.6063   35.9985    1.6679 H   0  0  0  0  0  0  0  0  0  0  0  0
   70.7501   35.5819    0.1447 H   0  0  0  0  0  0  0  0  0  0  0  0
   72.0127   36.8596    0.1447 H   0  0  0  0  0  0  0  0  0  0  0  0
   70.6164   37.9144   -0.9684 H   0  0  0  0  0  0  0  0  0  0  0  0
   68.9019   38.2073   -0.4178 H   0  0  0  0  0  0  0  0  0  0  0  0
   69.3555   40.3335    0.0503 H   0  0  0  0  0  0  0  0  0  0  0  0
   70.7345   39.8289    1.1159 H   0  0  0  0  0  0  0  0  0  0  0  0
   72.5384   38.5449   -0.7319 H   0  0  0  0  0  0  0  0  0  0  0  0
   74.2436   39.3622   -2.3395 H   0  0  0  0  0  0  0  0  0  0  0  0
   72.9329   42.8788   -7.2325 H   0  0  0  0  0  0  0  0  0  0  0  0
   74.3858   43.7426   -9.0703 H   0  0  0  0  0  0  0  0  0  0  0  0
   76.8532   43.9184   -8.7341 H   0  0  0  0  0  0  0  0  0  0  0  0
   78.4990   43.9360   -6.0310 H   0  0  0  0  0  0  0  0  0  0  0  0
   75.5260   41.1440   -1.4450 H   0  0  0  0  0  0  0  0  0  0  0  0
   71.9918   43.0006   -2.8844 H   0  0  0  0  0  0  0  0  0  0  0  0
  1  2  1  0
  2  3  1  0
  2  4  1  0
  4  5  1  0
  5  6  1  0
  6  7  2  0
  7  8  1  0
  8  9  2  0
  9 10  1  0
 10 11  1  0
 11 12  1  0
 12 13  2  0
 13 14  1  0
 14 15  2  0
 15 16  1  0
 16 17  1  0
 16 18  2  0
 18 19  1  0
 19 20  2  0
 19 21  1  0
 21 22  1  0
  9 23  1  0
 23 24  2  0
 24 25  1  0
 25 26  1  0
 25 27  1  0
 25 28  1  0
 24  6  1  0
 21 10  2  0
 18 12  1  0
  1 29  1  0
  1 30  1  0
  1 31  1  0
  2 32  1  0
  3 33  1  0
  3 34  1  0
  3 35  1  0
  4 36  1  0
  4 37  1  0
  5 38  1  0
  5 39  1  0
  7 40  1  0
  8 41  1  0
 13 42  1  0
 14 43  1  0
 15 44  1  0
 17 45  1  0
 22 46  1  0
 23 47  1  0
M  CHG  1   2   1
M  END
>  <meeko>  (5) 
{"is_sidechain": [false], "free_energy": -7.636, "intermolecular_energy": -10.357, "internal_energy": -0.563}

$$$$
cand_024_out
     RDKit          3D

 47 49  0  0  0  0  0  0  0  0999 V2000
   77.8490   41.6110   -6.2270 C   0  0  0  0  0  0  0  0  0  0  0  0
   77.4120   42.8290   -6.9150 N   0  0  0  0  0  0  0  0  0  0  0  0
   78.0940   43.9890   -6.3330 C   0  0  0  0  0  0  0  0  0  0  0  0
   75.9500   43.0120   -6.8300 C   0  0  0  0  0  0  0  0  0  0  0  0
   75.5100   43.8050   -5.5860 C   0  0  0  0  0  0  0  0  0  0  0  0
   74.6370   42.9730   -4.6640 C   0  0  0  0  0  0  0  0  0  0  0  0
   73.4900   42.3670   -5.2050 C   0  0  0  0  0  0  0  0  0  0  0  0
   72.6400   41.5980   -4.4080 C   0  0  0  0  0  0  0  0  0  0  0  0
   72.9110   41.4060   -3.0500 C   0  0  0  0  0  0  0  0  0  0  0  0
   71.9880   40.6030   -2.2200 C   0  0  0  0  0  0  0  0  0  0  0  0
   72.6110   39.5210   -1.6100 O   0  0  0  0  0  0  0  0  0  0  0  0
   71.8660   38.6940   -0.8080 C   0  0  0  0  0  0  0  0  0  0  0  0
   72.5280   37.6120   -0.2260 C   0  0  0  0  0  0  0  0  0  0  0  0
   71.8290   36.7310    0.6020 C   0  0  0  0  0  0  0  0  0  0  0  0
   70.4690   36.9320    0.8470 C   0  0  0  0  0  0  0  0  0  0  0  0
   69.8110   38.0130    0.2660 C   0  0  0  0  0  0  0  0  0  0  0  0
   68.4800   38.1510    0.5490 O   0  0  0  0  0  0  0  0  0  0  0  0
   70.5110   38.8930   -0.5630 C   0  0  0  0  0  0  0  0  0  0  0  0
   69.8570   40.0410   -1.1940 C   0  0  0  0  0  0  0  0  0  0  0  0
   68.6660   40.2890   -1.0210 O   0  0  0  0  0  0  0  0  0  0  0  0
   70.6870   40.9090   -2.0610 C   0  0  0  0  0  0  0  0  0  0  0  0
   70.0660   41.9990   -2.6430 O   0  0  0  0  0  0  0  0  0  0  0  0
   74.0480   42.0220   -2.5060 C   0  0  0  0  0  0  0  0  0  0  0  0
   74.9200   42.8060   -3.2910 C   0  0  0  0  0  0  0  0  0  0  0  0
   76.1380   43.4200   -2.6360 C   0  0  0  0  0  0  0  0  0  0  0  0
   77.3170   43.0590   -3.2210 F   0  0  0  0  0  0  0  0  0  0  0  0
   76.1180   44.7820   -2.6610 F   0  0  0  0  0  0  0  0  0  0  0  0
   76.2670   43.0710   -1.3240 F   0  0  0  0  0  0  0  0  0  0  0  0
   77.7939   41.7645   -5.1392 H   0  0  0  0  0  0  0  0  0  0  0  0
   77.1952   40.7738   -6.5127 H   0  0  0  0  0  0  0  0  0  0  0  0
   78.8859   41.3804   -6.5127 H   0  0  0  0  0  0  0  0  0  0  0  0
   77.6550   42.7400   -7.9030 H   0  0  0  0  0  0  0  0  0  0  0  0
   78.0559   43.9242   -5.2356 H   0  0  0  0  0  0  0  0  0  0  0  0
   79.1431   44.0014   -6.6634 H   0  0  0  0  0  0  0  0  0  0  0  0
   77.5947   44.9118   -6.6634 H   0  0  0  0  0  0  0  0  0  0  0  0
   75.6125   43.5524   -7.7267 H   0  0  0  0  0  0  0  0  0  0  0  0
   75.4988   42.0115   -6.7567 H   0  0  0  0  0  0  0  0  0  0  0  0
   76.4055   44.1261   -5.0338 H   0  0  0  0  0  0  0  0  0  0  0  0
   74.9211   44.6704   -5.9240 H   0  0  0  0  0  0  0  0  0  0  0  0
   73.2587   42.5006   -6.2721 H   0  0  0  0  0  0  0  0  0  0  0  0
   71.7461   41.1375   -4.8540 H   0  0  0  0  0  0  0  0  0  0  0  0
   73.5992   37.4533   -0.4192 H   0  0  0  0  0  0  0  0  0  0  0  0
   72.3501   35.8782    1.0615 H   0  0  0  0  0  0  0  0  0  0  0  0
   69.9182   36.2373    1.4981 H   0  0  0  0  0  0  0  0  0  0  0  0
   67.8420   38.0110   -0.1230 H   0  0  0  0  0  0  0  0  0  0  0  0
   69.1320   42.0810   -2.6050 H   0  0  0  0  0  0  0  0  0  0  0  0
   74.2662   41.8900   -1.4360 H   0  0  0  0  0  0  0  0  0  0  0  0
  1  2  1  0
  2  3  1  0
  2  4  1  0
  4  5  1  0
  5  6  1  0
  6  7  2  0
  7  8  1  0
  8  9  2  0
  9 10  1  0
 10 11  1  0
 11 12  1  0
 12 13  2  0
 13 14  1  0
 14 15  2  0
 15 16  1  0
 16 17  1  0
 16 18  2  0
 18 19  1  0
 19 20  2  0
 19 21  1  0
 21 22  1  0
  9 23  1  0
 23 24  2  0
 24 25  1  0
 25 26  1  0
 25 27  1  0
 25 28  1  0
 24  6  1  0
 21 10  2  0
 18 12  1  0
  1 29  1  0
  1 30  1  0
  1 31  1  0
  2 32  1  0
  3 33  1  0
  3 34  1  0
  3 35  1  0
  4 36  1  0
  4 37  1  0
  5 38  1  0
  5 39  1  0
  7 40  1  0
  8 41  1  0
 13 42  1  0
 14 43  1  0
 15 44  1  0
 17 45  1  0
 22 46  1  0
 23 47  1  0
M  CHG  1   2   1
M  END
>  <meeko>  (6) 
{"is_sidechain": [false], "free_energy": -7.61, "intermolecular_energy": -10.172, "internal_energy": -0.714}

$$$$
cand_024_out
     RDKit          3D

 47 49  0  0  0  0  0  0  0  0999 V2000
   76.4290   46.6540   -5.2990 C   0  0  0  0  0  0  0  0  0  0  0  0
   76.2760   45.7620   -4.1470 N   0  0  0  0  0  0  0  0  0  0  0  0
   75.9320   46.5520   -2.9610 C   0  0  0  0  0  0  0  0  0  0  0  0
   77.5030   44.9820   -3.8910 C   0  0  0  0  0  0  0  0  0  0  0  0
   77.4040   43.5220   -4.3700 C   0  0  0  0  0  0  0  0  0  0  0  0
   76.2030   42.8110   -3.7730 C   0  0  0  0  0  0  0  0  0  0  0  0
   76.1820   42.5970   -2.3840 C   0  0  0  0  0  0  0  0  0  0  0  0
   75.1120   41.9390   -1.7750 C   0  0  0  0  0  0  0  0  0  0  0  0
   74.0290   41.4810   -2.5310 C   0  0  0  0  0  0  0  0  0  0  0  0
   72.9150   40.7710   -1.8680 C   0  0  0  0  0  0  0  0  0  0  0  0
   73.2920   39.5430   -1.3410 O   0  0  0  0  0  0  0  0  0  0  0  0
   72.3520   38.7820   -0.6950 C   0  0  0  0  0  0  0  0  0  0  0  0
   72.7700   37.5490   -0.1930 C   0  0  0  0  0  0  0  0  0  0  0  0
   71.8630   36.7250    0.4760 C   0  0  0  0  0  0  0  0  0  0  0  0
   70.5380   37.1330    0.6430 C   0  0  0  0  0  0  0  0  0  0  0  0
   70.1230   38.3640    0.1430 C   0  0  0  0  0  0  0  0  0  0  0  0
   68.8130   38.7020    0.3420 O   0  0  0  0  0  0  0  0  0  0  0  0
   71.0310   39.1880   -0.5280 C   0  0  0  0  0  0  0  0  0  0  0  0
   70.6360   40.4890   -1.0700 C   0  0  0  0  0  0  0  0  0  0  0  0
   69.4910   40.9210   -0.9570 O   0  0  0  0  0  0  0  0  0  0  0  0
   71.6730   41.2820   -1.7700 C   0  0  0  0  0  0  0  0  0  0  0  0
   71.2950   42.5160   -2.2680 O   0  0  0  0  0  0  0  0  0  0  0  0
   74.0550   41.6810   -3.9190 C   0  0  0  0  0  0  0  0  0  0  0  0
   75.1280   42.3410   -4.5580 C   0  0  0  0  0  0  0  0  0  0  0  0
   75.0730   42.5390   -6.0570 C   0  0  0  0  0  0  0  0  0  0  0  0
   75.0540   43.8490   -6.4380 F   0  0  0  0  0  0  0  0  0  0  0  0
   76.1390   41.9850   -6.6990 F   0  0  0  0  0  0  0  0  0  0  0  0
   73.9650   41.9840   -6.6250 F   0  0  0  0  0  0  0  0  0  0  0  0
   76.6052   47.6810   -4.9466 H   0  0  0  0  0  0  0  0  0  0  0  0
   77.2836   46.3235   -5.9077 H   0  0  0  0  0  0  0  0  0  0  0  0
   75.5131   46.6272   -5.9077 H   0  0  0  0  0  0  0  0  0  0  0  0
   75.5270   45.1000   -4.3550 H   0  0  0  0  0  0  0  0  0  0  0  0
   76.1809   45.9803   -2.0548 H   0  0  0  0  0  0  0  0  0  0  0  0
   76.5019   47.4928   -2.9691 H   0  0  0  0  0  0  0  0  0  0  0  0
   74.8550   46.7757   -2.9691 H   0  0  0  0  0  0  0  0  0  0  0  0
   78.3406   45.4658   -4.4147 H   0  0  0  0  0  0  0  0  0  0  0  0
   77.6549   44.9593   -2.8018 H   0  0  0  0  0  0  0  0  0  0  0  0
   77.3142   43.5126   -5.4663 H   0  0  0  0  0  0  0  0  0  0  0  0
   78.3111   42.9932   -4.0421 H   0  0  0  0  0  0  0  0  0  0  0  0
   77.0208   42.9532   -1.7679 H   0  0  0  0  0  0  0  0  0  0  0  0
   75.1212   41.7789   -0.6867 H   0  0  0  0  0  0  0  0  0  0  0  0
   73.8134   37.2264   -0.3243 H   0  0  0  0  0  0  0  0  0  0  0  0
   72.1926   35.7531    0.8721 H   0  0  0  0  0  0  0  0  0  0  0  0
   69.8234   36.4827    1.1688 H   0  0  0  0  0  0  0  0  0  0  0  0
   68.3800   39.2760   -0.2600 H   0  0  0  0  0  0  0  0  0  0  0  0
   70.5100   42.5960   -2.7750 H   0  0  0  0  0  0  0  0  0  0  0  0
   73.2156   41.3133   -4.5275 H   0  0  0  0  0  0  0  0  0  0  0  0
  1  2  1  0
  2  3  1  0
  2  4  1  0
  4  5  1  0
  5  6  1  0
  6  7  2  0
  7  8  1  0
  8  9  2  0
  9 10  1  0
 10 11  1  0
 11 12  1  0
 12 13  2  0
 13 14  1  0
 14 15  2  0
 15 16  1  0
 16 17  1  0
 16 18  2  0
 18 19  1  0
 19 20  2  0
 19 21  1  0
 21 22  1  0
  9 23  1  0
 23 24  2  0
 24 25  1  0
 25 26  1  0
 25 27  1  0
 25 28  1  0
 24  6  1  0
 21 10  2  0
 18 12  1  0
  1 29  1  0
  1 30  1  0
  1 31  1  0
  2 32  1  0
  3 33  1  0
  3 34  1  0
  3 35  1  0
  4 36  1  0
  4 37  1  0
  5 38  1  0
  5 39  1  0
  7 40  1  0
  8 41  1  0
 13 42  1  0
 14 43  1  0
 15 44  1  0
 17 45  1  0
 22 46  1  0
 23 47  1  0
M  CHG  1   2   1
M  END
>  <meeko>  (7) 
{"is_sidechain": [false], "free_energy": -7.524, "intermolecular_energy": -9.871, "internal_energy": -0.899}

$$$$
cand_024_out
     RDKit          3D

 47 49  0  0  0  0  0  0  0  0999 V2000
   78.5900   41.2540   -6.3720 C   0  0  0  0  0  0  0  0  0  0  0  0
   77.5360   42.2710   -6.3480 N   0  0  0  0  0  0  0  0  0  0  0  0
   77.7410   43.2110   -7.4550 C   0  0  0  0  0  0  0  0  0  0  0  0
   77.5110   43.0040   -5.0670 C   0  0  0  0  0  0  0  0  0  0  0  0
   76.2220   43.8200   -4.8610 C   0  0  0  0  0  0  0  0  0  0  0  0
   75.1460   43.0120   -4.1580 C   0  0  0  0  0  0  0  0  0  0  0  0
   75.3550   42.6580   -2.8140 C   0  0  0  0  0  0  0  0  0  0  0  0
   74.4100   41.9060   -2.1140 C   0  0  0  0  0  0  0  0  0  0  0  0
   73.2260   41.4900   -2.7320 C   0  0  0  0  0  0  0  0  0  0  0  0
   72.2470   40.6790   -1.9780 C   0  0  0  0  0  0  0  0  0  0  0  0
   72.8180   39.5690   -1.3680 O   0  0  0  0  0  0  0  0  0  0  0  0
   72.0170   38.7320   -0.6330 C   0  0  0  0  0  0  0  0  0  0  0  0
   72.6290   37.6220   -0.0490 C   0  0  0  0  0  0  0  0  0  0  0  0
   71.8720   36.7300    0.7130 C   0  0  0  0  0  0  0  0  0  0  0  0
   70.5040   36.9480    0.8920 C   0  0  0  0  0  0  0  0  0  0  0  0
   69.8960   38.0570    0.3090 C   0  0  0  0  0  0  0  0  0  0  0  0
   68.5540   38.2110    0.5250 O   0  0  0  0  0  0  0  0  0  0  0  0
   70.6540   38.9490   -0.4550 C   0  0  0  0  0  0  0  0  0  0  0  0
   70.0540   40.1260   -1.0850 C   0  0  0  0  0  0  0  0  0  0  0  0
   68.8600   40.3900   -0.9680 O   0  0  0  0  0  0  0  0  0  0  0  0
   70.9440   41.0040   -1.8790 C   0  0  0  0  0  0  0  0  0  0  0  0
   70.3730   42.1220   -2.4600 O   0  0  0  0  0  0  0  0  0  0  0  0
   73.0230   41.8300   -4.0780 C   0  0  0  0  0  0  0  0  0  0  0  0
   73.9660   42.5870   -4.8060 C   0  0  0  0  0  0  0  0  0  0  0  0
   73.6660   42.9330   -6.2480 C   0  0  0  0  0  0  0  0  0  0  0  0
   73.7220   44.2700   -6.5150 F   0  0  0  0  0  0  0  0  0  0  0  0
   74.5330   42.3470   -7.1210 F   0  0  0  0  0  0  0  0  0  0  0  0
   72.4190   42.5410   -6.6390 F   0  0  0  0  0  0  0  0  0  0  0  0
   78.8660   40.9876   -5.3411 H   0  0  0  0  0  0  0  0  0  0  0  0
   78.2241   40.3590   -6.8965 H   0  0  0  0  0  0  0  0  0  0  0  0
   79.4714   41.6517   -6.8965 H   0  0  0  0  0  0  0  0  0  0  0  0
   76.6370   41.8000   -6.4520 H   0  0  0  0  0  0  0  0  0  0  0  0
   77.9590   44.2108   -7.0514 H   0  0  0  0  0  0  0  0  0  0  0  0
   78.5864   42.8722   -8.0719 H   0  0  0  0  0  0  0  0  0  0  0  0
   76.8313   43.2550   -8.0719 H   0  0  0  0  0  0  0  0  0  0  0  0
   77.5996   42.2770   -4.2463 H   0  0  0  0  0  0  0  0  0  0  0  0
   78.3499   43.7154   -5.0807 H   0  0  0  0  0  0  0  0  0  0  0  0
   76.4556   44.7062   -4.2526 H   0  0  0  0  0  0  0  0  0  0  0  0
   75.8393   44.1081   -5.8512 H   0  0  0  0  0  0  0  0  0  0  0  0
   76.2768   42.9782   -2.3063 H   0  0  0  0  0  0  0  0  0  0  0  0
   74.5986   41.6374   -1.0641 H   0  0  0  0  0  0  0  0  0  0  0  0
   73.7064   37.4501   -0.1889 H   0  0  0  0  0  0  0  0  0  0  0  0
   72.3535   35.8545    1.1730 H   0  0  0  0  0  0  0  0  0  0  0  0
   69.9080   36.2450    1.4924 H   0  0  0  0  0  0  0  0  0  0  0  0
   68.0130   37.4580    0.6620 H   0  0  0  0  0  0  0  0  0  0  0  0
   69.4680   42.3170   -2.3090 H   0  0  0  0  0  0  0  0  0  0  0  0
   72.1027   41.4971   -4.5803 H   0  0  0  0  0  0  0  0  0  0  0  0
  1  2  1  0
  2  3  1  0
  2  4  1  0
  4  5  1  0
  5  6  1  0
  6  7  2  0
  7  8  1  0
  8  9  2  0
  9 10  1  0
 10 11  1  0
 11 12  1  0
 12 13  2  0
 13 14  1  0
 14 15  2  0
 15 16  1  0
 16 17  1  0
 16 18  2  0
 18 19  1  0
 19 20  2  0
 19 21  1  0
 21 22  1  0
  9 23  1  0
 23 24  2  0
 24 25  1  0
 25 26  1  0
 25 27  1  0
 25 28  1  0
 24  6  1  0
 21 10  2  0
 18 12  1  0
  1 29  1  0
  1 30  1  0
  1 31  1  0
  2 32  1  0
  3 33  1  0
  3 34  1  0
  3 35  1  0
  4 36  1  0
  4 37  1  0
  5 38  1  0
  5 39  1  0
  7 40  1  0
  8 41  1  0
 13 42  1  0
 14 43  1  0
 15 44  1  0
 17 45  1  0
 22 46  1  0
 23 47  1  0
M  CHG  1   2   1
M  END
>  <meeko>  (8) 
{"is_sidechain": [false], "free_energy": -7.369, "intermolecular_energy": -9.928, "internal_energy": -0.632}

$$$$
cand_024_out
     RDKit          3D

 47 49  0  0  0  0  0  0  0  0999 V2000
   66.9480   39.4300   -0.9960 C   0  0  0  0  0  0  0  0  0  0  0  0
   68.4140   39.4570   -1.0110 N   0  0  0  0  0  0  0  0  0  0  0  0
   68.9220   39.0320    0.2970 C   0  0  0  0  0  0  0  0  0  0  0  0
   68.9330   40.8000   -1.3380 C   0  0  0  0  0  0  0  0  0  0  0  0
   70.2290   41.1490   -0.5840 C   0  0  0  0  0  0  0  0  0  0  0  0
   71.3920   41.3750   -1.5330 C   0  0  0  0  0  0  0  0  0  0  0  0
   71.4090   42.5570   -2.2910 C   0  0  0  0  0  0  0  0  0  0  0  0
   72.4450   42.8200   -3.1900 C   0  0  0  0  0  0  0  0  0  0  0  0
   73.4970   41.9140   -3.3540 C   0  0  0  0  0  0  0  0  0  0  0  0
   74.5750   42.2030   -4.3230 C   0  0  0  0  0  0  0  0  0  0  0  0
   74.1160   42.8430   -5.4680 O   0  0  0  0  0  0  0  0  0  0  0  0
   75.0160   43.1720   -6.4490 C   0  0  0  0  0  0  0  0  0  0  0  0
   74.5100   43.8000   -7.5880 C   0  0  0  0  0  0  0  0  0  0  0  0
   75.3720   44.1620   -8.6250 C   0  0  0  0  0  0  0  0  0  0  0  0
   76.7390   43.8970   -8.5230 C   0  0  0  0  0  0  0  0  0  0  0  0
   77.2420   43.2700   -7.3860 C   0  0  0  0  0  0  0  0  0  0  0  0
   78.5900   43.0410   -7.3510 O   0  0  0  0  0  0  0  0  0  0  0  0
   76.3780   42.9070   -6.3490 C   0  0  0  0  0  0  0  0  0  0  0  0
   76.8650   42.2460   -5.1370 C   0  0  0  0  0  0  0  0  0  0  0  0
   78.0540   41.9860   -4.9700 O   0  0  0  0  0  0  0  0  0  0  0  0
   75.8660   41.8970   -4.1000 C   0  0  0  0  0  0  0  0  0  0  0  0
   76.3360   41.2850   -2.9520 O   0  0  0  0  0  0  0  0  0  0  0  0
   73.4750   40.7270   -2.6070 C   0  0  0  0  0  0  0  0  0  0  0  0
   72.4360   40.4390   -1.6950 C   0  0  0  0  0  0  0  0  0  0  0  0
   72.4930   39.1460   -0.9100 C   0  0  0  0  0  0  0  0  0  0  0  0
   73.6900   38.4980   -1.0060 F   0  0  0  0  0  0  0  0  0  0  0  0
   72.2830   39.3320    0.4230 F   0  0  0  0  0  0  0  0  0  0  0  0
   71.5590   38.2380   -1.3140 F   0  0  0  0  0  0  0  0  0  0  0  0
   66.5920   39.4234    0.0448 H   0  0  0  0  0  0  0  0  0  0  0  0
   66.5596   40.3211   -1.5108 H   0  0  0  0  0  0  0  0  0  0  0  0
   66.5926   38.5252   -1.5108 H   0  0  0  0  0  0  0  0  0  0  0  0
   68.7370   38.8160   -1.7360 H   0  0  0  0  0  0  0  0  0  0  0  0
   68.3394   39.5194    1.0926 H   0  0  0  0  0  0  0  0  0  0  0  0
   68.8275   37.9400    0.3899 H   0  0  0  0  0  0  0  0  0  0  0  0
   69.9802   39.3177    0.3899 H   0  0  0  0  0  0  0  0  0  0  0  0
   69.1345   40.8435   -2.4185 H   0  0  0  0  0  0  0  0  0  0  0  0
   68.1692   41.5295   -1.0307 H   0  0  0  0  0  0  0  0  0  0  0  0
   70.0642   42.0657    0.0013 H   0  0  0  0  0  0  0  0  0  0  0  0
   70.4820   40.3014    0.0699 H   0  0  0  0  0  0  0  0  0  0  0  0
   70.5941   43.2867   -2.1750 H   0  0  0  0  0  0  0  0  0  0  0  0
   72.4331   43.7509   -3.7759 H   0  0  0  0  0  0  0  0  0  0  0  0
   73.4332   44.0096   -7.6687 H   0  0  0  0  0  0  0  0  0  0  0  0
   74.9737   44.6565   -9.5233 H   0  0  0  0  0  0  0  0  0  0  0  0
   77.4178   44.1832   -9.3399 H   0  0  0  0  0  0  0  0  0  0  0  0
   79.0840   43.0330   -8.1480 H   0  0  0  0  0  0  0  0  0  0  0  0
   77.2160   40.9620   -2.9200 H   0  0  0  0  0  0  0  0  0  0  0  0
   74.2903   39.9998   -2.7352 H   0  0  0  0  0  0  0  0  0  0  0  0
  1  2  1  0
  2  3  1  0
  2  4  1  0
  4  5  1  0
  5  6  1  0
  6  7  2  0
  7  8  1  0
  8  9  2  0
  9 10  1  0
 10 11  1  0
 11 12  1  0
 12 13  2  0
 13 14  1  0
 14 15  2  0
 15 16  1  0
 16 17  1  0
 16 18  2  0
 18 19  1  0
 19 20  2  0
 19 21  1  0
 21 22  1  0
  9 23  1  0
 23 24  2  0
 24 25  1  0
 25 26  1  0
 25 27  1  0
 25 28  1  0
 24  6  1  0
 21 10  2  0
 18 12  1  0
  1 29  1  0
  1 30  1  0
  1 31  1  0
  2 32  1  0
  3 33  1  0
  3 34  1  0
  3 35  1  0
  4 36  1  0
  4 37  1  0
  5 38  1  0
  5 39  1  0
  7 40  1  0
  8 41  1  0
 13 42  1  0
 14 43  1  0
 15 44  1  0
 17 45  1  0
 22 46  1  0
 23 47  1  0
M  CHG  1   2   1
M  END
>  <meeko>  (9) 
{"is_sidechain": [false], "free_energy": -7.369, "intermolecular_energy": -10.114, "internal_energy": -0.446}

$$$$
