cand_034_out
     RDKit          3D

 40 42  0  0  0  0  0  0  0  0999 V2000
   76.2440   43.0160   -6.3950 C   0  0  0  0  0  0  0  0  0  0  0  0
   75.7420   43.6060   -5.1500 N   0  0  0  0  0  0  0  0  0  0  0  0
   75.1580   44.9440   -5.3260 C   0  0  0  0  0  0  0  0  0  0  0  0
   74.8760   42.7730   -4.4090 C   0  0  0  0  0  0  0  0  0  0  0  0
   73.6450   42.3310   -4.9200 C   0  0  0  0  0  0  0  0  0  0  0  0
   72.7910   41.5230   -4.1590 C   0  0  0  0  0  0  0  0  0  0  0  0
   73.1400   41.1330   -2.8650 C   0  0  0  0  0  0  0  0  0  0  0  0
   72.2420   40.3080   -2.0280 C   0  0  0  0  0  0  0  0  0  0  0  0
   70.9130   40.7110   -2.1020 O   0  0  0  0  0  0  0  0  0  0  0  0
   69.9720   40.0340   -1.3690 C   0  0  0  0  0  0  0  0  0  0  0  0
   68.6500   40.4680   -1.4820 C   0  0  0  0  0  0  0  0  0  0  0  0
   67.6420   39.8220   -0.7630 C   0  0  0  0  0  0  0  0  0  0  0  0
   67.9560   38.7450    0.0690 C   0  0  0  0  0  0  0  0  0  0  0  0
   69.2760   38.3150    0.1810 C   0  0  0  0  0  0  0  0  0  0  0  0
   69.5130   37.2560    1.0130 O   0  0  0  0  0  0  0  0  0  0  0  0
   70.2850   38.9610   -0.5410 C   0  0  0  0  0  0  0  0  0  0  0  0
   71.6840   38.5430   -0.4520 C   0  0  0  0  0  0  0  0  0  0  0  0
   72.0400   37.6090    0.2630 O   0  0  0  0  0  0  0  0  0  0  0  0
   72.6750   39.2910   -1.2600 C   0  0  0  0  0  0  0  0  0  0  0  0
   73.9970   38.8970   -1.1560 O   0  0  0  0  0  0  0  0  0  0  0  0
   74.3610   41.5840   -2.3440 C   0  0  0  0  0  0  0  0  0  0  0  0
   75.2340   42.3880   -3.1040 C   0  0  0  0  0  0  0  0  0  0  0  0
   76.5330   42.8440   -2.4910 C   0  0  0  0  0  0  0  0  0  0  0  0
   76.8620   42.1390   -1.3660 F   0  0  0  0  0  0  0  0  0  0  0  0
   76.4930   44.1490   -2.0930 F   0  0  0  0  0  0  0  0  0  0  0  0
   76.9402   42.1978   -6.1584 H   0  0  0  0  0  0  0  0  0  0  0  0
   75.4002   42.6218   -6.9803 H   0  0  0  0  0  0  0  0  0  0  0  0
   76.7683   43.7858   -6.9803 H   0  0  0  0  0  0  0  0  0  0  0  0
   74.9627   45.3914   -4.3402 H   0  0  0  0  0  0  0  0  0  0  0  0
   75.8604   45.5800   -5.8847 H   0  0  0  0  0  0  0  0  0  0  0  0
   74.2140   44.8615   -5.8847 H   0  0  0  0  0  0  0  0  0  0  0  0
   73.3459   42.6249   -5.9369 H   0  0  0  0  0  0  0  0  0  0  0  0
   71.8332   41.1915   -4.5864 H   0  0  0  0  0  0  0  0  0  0  0  0
   68.4028   41.3171   -2.1361 H   0  0  0  0  0  0  0  0  0  0  0  0
   66.5996   40.1618   -0.8520 H   0  0  0  0  0  0  0  0  0  0  0  0
   67.1615   38.2369    0.6353 H   0  0  0  0  0  0  0  0  0  0  0  0
   68.8630   36.5900    1.1200 H   0  0  0  0  0  0  0  0  0  0  0  0
   74.5870   39.0490   -1.8680 H   0  0  0  0  0  0  0  0  0  0  0  0
   74.6440   41.3039   -1.3186 H   0  0  0  0  0  0  0  0  0  0  0  0
   77.2702   42.6876   -3.2923 H   0  0  0  0  0  0  0  0  0  0  0  0
  1  2  1  0
  2  3  1  0
  2  4  1  0
  4  5  2  0
  5  6  1  0
  6  7  2  0
  7  8  1  0
  8  9  1  0
  9 10  1  0
 10 11  2  0
 11 12  1  0
 12 13  2  0
 13 14  1  0
 14 15  1  0
 14 16  2  0
 16 17  1  0
 17 18  2  0
 17 19  1  0
 19 20  1  0
  7 21  1  0
 21 22  2  0
 22 23  1  0
 23 24  1  0
 23 25  1  0
 22  4  1  0
 19  8  2  0
 16 10  1  0
  1 26  1  0
  1 27  1  0
  1 28  1  0
  3 29  1  0
  3 30  1  0
  3 31  1  0
  5 32  1  0
  6 33  1  0
 11 34  1  0
 12 35  1  0
 13 36  1  0
 15 37  1  0
 20 38  1  0
 21 39  1  0
 23 40  1  0
M  END
>  <meeko>  (1) 
{"is_sidechain": [false], "free_energy": -7.976, "intermolecular_energy": -9.841, "internal_energy": -0.311}

$$$$
cand_034_out
     RDKit          3D

 40 42  0  0  0  0  0  0  0  0999 V2000
   76.3670   42.7990   -6.4950 C   0  0  0  0  0  0  0  0  0  0  0  0
   75.8450   43.4770   -5.3040 N   0  0  0  0  0  0  0  0  0  0  0  0
   75.3340   44.8290   -5.5730 C   0  0  0  0  0  0  0  0  0  0  0  0
   74.9100   42.7260   -4.5590 C   0  0  0  0  0  0  0  0  0  0  0  0
   73.6910   42.2960   -5.1050 C   0  0  0  0  0  0  0  0  0  0  0  0
   72.7680   41.5710   -4.3400 C   0  0  0  0  0  0  0  0  0  0  0  0
   73.0360   41.2530   -3.0070 C   0  0  0  0  0  0  0  0  0  0  0  0
   72.0660   40.5170   -2.1680 C   0  0  0  0  0  0  0  0  0  0  0  0
   72.6190   39.3980   -1.5570 O   0  0  0  0  0  0  0  0  0  0  0  0
   71.8250   38.6210   -0.7530 C   0  0  0  0  0  0  0  0  0  0  0  0
   72.4260   37.5130   -0.1520 C   0  0  0  0  0  0  0  0  0  0  0  0
   71.6740   36.6790    0.6780 C   0  0  0  0  0  0  0  0  0  0  0  0
   70.3240   36.9520    0.9070 C   0  0  0  0  0  0  0  0  0  0  0  0
   69.7270   38.0570    0.3060 C   0  0  0  0  0  0  0  0  0  0  0  0
   68.4010   38.2650    0.5710 O   0  0  0  0  0  0  0  0  0  0  0  0
   70.4800   38.8920   -0.5250 C   0  0  0  0  0  0  0  0  0  0  0  0
   69.8930   40.0630   -1.1770 C   0  0  0  0  0  0  0  0  0  0  0  0
   68.7110   40.3650   -1.0310 O   0  0  0  0  0  0  0  0  0  0  0  0
   70.7770   40.8850   -2.0340 C   0  0  0  0  0  0  0  0  0  0  0  0
   70.2080   41.9800   -2.6590 O   0  0  0  0  0  0  0  0  0  0  0  0
   74.2470   41.6920   -2.4530 C   0  0  0  0  0  0  0  0  0  0  0  0
   75.1880   42.4130   -3.2150 C   0  0  0  0  0  0  0  0  0  0  0  0
   76.4720   42.8600   -2.5650 C   0  0  0  0  0  0  0  0  0  0  0  0
   76.7570   42.1620   -1.4230 F   0  0  0  0  0  0  0  0  0  0  0  0
   76.4340   44.1690   -2.1800 F   0  0  0  0  0  0  0  0  0  0  0  0
   77.0113   41.9621   -6.1877 H   0  0  0  0  0  0  0  0  0  0  0  0
   75.5289   42.4153   -7.0953 H   0  0  0  0  0  0  0  0  0  0  0  0
   76.9523   43.5111   -7.0953 H   0  0  0  0  0  0  0  0  0  0  0  0
   75.1395   45.3437   -4.6205 H   0  0  0  0  0  0  0  0  0  0  0  0
   76.0802   45.3950   -6.1499 H   0  0  0  0  0  0  0  0  0  0  0  0
   74.4000   44.7599   -6.1499 H   0  0  0  0  0  0  0  0  0  0  0  0
   73.4557   42.5326   -6.1532 H   0  0  0  0  0  0  0  0  0  0  0  0
   71.8201   41.2482   -4.7952 H   0  0  0  0  0  0  0  0  0  0  0  0
   73.4896   37.2976   -0.3320 H   0  0  0  0  0  0  0  0  0  0  0  0
   72.1459   35.8057    1.1521 H   0  0  0  0  0  0  0  0  0  0  0  0
   69.7327   36.2948    1.5615 H   0  0  0  0  0  0  0  0  0  0  0  0
   67.7670   37.6220    0.3230 H   0  0  0  0  0  0  0  0  0  0  0  0
   69.3160   42.2070   -2.4830 H   0  0  0  0  0  0  0  0  0  0  0  0
   74.4677   41.4684   -1.3988 H   0  0  0  0  0  0  0  0  0  0  0  0
   77.2324   42.6876   -3.3409 H   0  0  0  0  0  0  0  0  0  0  0  0
  1  2  1  0
  2  3  1  0
  2  4  1  0
  4  5  2  0
  5  6  1  0
  6  7  2  0
  7  8  1  0
  8  9  1  0
  9 10  1  0
 10 11  2  0
 11 12  1  0
 12 13  2  0
 13 14  1  0
 14 15  1  0
 14 16  2  0
 16 17  1  0
 17 18  2  0
 17 19  1  0
 19 20  1  0
  7 21  1  0
 21 22  2  0
 22 23  1  0
 23 24  1  0
 23 25  1  0
 22  4  1  0
 19  8  2  0
 16 10  1  0
  1 26  1  0
  1 27  1  0
  1 28  1  0
  3 29  1  0
  3 30  1  0
  3 31  1  0
  5 32  1  0
  6 33  1  0
 11 34  1  0
 12 35  1  0
 13 36  1  0
 15 37  1  0
 20 38  1  0
 21 39  1  0
 23 40  1  0
M  END
>  <meeko>  (2) 
{"is_sidechain": [false], "free_energy": -7.882, "intermolecular_energy": -9.584, "internal_energy": -0.452}

$$$$
cand_034_out
     RDKit          3D

 40 42  0  0  0  0  0  0  0  0999 V2000
   76.3710   44.7890   -4.4090 C   0  0  0  0  0  0  0  0  0  0  0  0
   75.9110   43.5420   -5.0290 N   0  0  0  0  0  0  0  0  0  0  0  0
   77.0010   42.7140   -5.5650 C   0  0  0  0  0  0  0  0  0  0  0  0
   75.0410   42.7700   -4.2280 C   0  0  0  0  0  0  0  0  0  0  0  0
   75.4300   42.2570   -2.9810 C   0  0  0  0  0  0  0  0  0  0  0  0
   74.5580   41.4750   -2.2140 C   0  0  0  0  0  0  0  0  0  0  0  0
   73.2710   41.1810   -2.6690 C   0  0  0  0  0  0  0  0  0  0  0  0
   72.3420   40.3310   -1.8930 C   0  0  0  0  0  0  0  0  0  0  0  0
   71.0210   40.7530   -1.9820 O   0  0  0  0  0  0  0  0  0  0  0  0
   70.0540   40.0540   -1.3050 C   0  0  0  0  0  0  0  0  0  0  0  0
   68.7400   40.5090   -1.4310 C   0  0  0  0  0  0  0  0  0  0  0  0
   67.7070   39.8440   -0.7670 C   0  0  0  0  0  0  0  0  0  0  0  0
   67.9870   38.7260    0.0220 C   0  0  0  0  0  0  0  0  0  0  0  0
   69.2990   38.2760    0.1460 C   0  0  0  0  0  0  0  0  0  0  0  0
   69.5030   37.1760    0.9350 O   0  0  0  0  0  0  0  0  0  0  0  0
   70.3330   38.9420   -0.5190 C   0  0  0  0  0  0  0  0  0  0  0  0
   71.7250   38.5030   -0.4150 C   0  0  0  0  0  0  0  0  0  0  0  0
   72.0520   37.5320    0.2650 O   0  0  0  0  0  0  0  0  0  0  0  0
   72.7440   39.2740   -1.1620 C   0  0  0  0  0  0  0  0  0  0  0  0
   74.0590   38.8600   -1.0440 O   0  0  0  0  0  0  0  0  0  0  0  0
   72.8830   41.6790   -3.9200 C   0  0  0  0  0  0  0  0  0  0  0  0
   73.7470   42.4760   -4.6980 C   0  0  0  0  0  0  0  0  0  0  0  0
   73.2750   42.9820   -6.0360 C   0  0  0  0  0  0  0  0  0  0  0  0
   71.9110   43.0200   -6.1350 F   0  0  0  0  0  0  0  0  0  0  0  0
   73.6830   42.1880   -7.0680 F   0  0  0  0  0  0  0  0  0  0  0  0
   76.3343   44.6894   -3.3141 H   0  0  0  0  0  0  0  0  0  0  0  0
   77.4045   44.9956   -4.7239 H   0  0  0  0  0  0  0  0  0  0  0  0
   75.7192   45.6173   -4.7239 H   0  0  0  0  0  0  0  0  0  0  0  0
   77.5740   42.2787   -4.7330 H   0  0  0  0  0  0  0  0  0  0  0  0
   76.5790   41.9066   -6.1815 H   0  0  0  0  0  0  0  0  0  0  0  0
   77.6656   43.3370   -6.1815 H   0  0  0  0  0  0  0  0  0  0  0  0
   76.4387   42.4733   -2.5991 H   0  0  0  0  0  0  0  0  0  0  0  0
   74.8911   41.0871   -1.2401 H   0  0  0  0  0  0  0  0  0  0  0  0
   68.5189   41.3896   -2.0521 H   0  0  0  0  0  0  0  0  0  0  0  0
   66.6713   40.2012   -0.8655 H   0  0  0  0  0  0  0  0  0  0  0  0
   67.1729   38.2021    0.5443 H   0  0  0  0  0  0  0  0  0  0  0  0
   68.8230   36.8750    1.5040 H   0  0  0  0  0  0  0  0  0  0  0  0
   74.5950   38.7840   -1.8070 H   0  0  0  0  0  0  0  0  0  0  0  0
   71.8799   41.4422   -4.3042 H   0  0  0  0  0  0  0  0  0  0  0  0
   73.7106   43.9898   -6.1035 H   0  0  0  0  0  0  0  0  0  0  0  0
  1  2  1  0
  2  3  1  0
  2  4  1  0
  4  5  2  0
  5  6  1  0
  6  7  2  0
  7  8  1  0
  8  9  1  0
  9 10  1  0
 10 11  2  0
 11 12  1  0
 12 13  2  0
 13 14  1  0
 14 15  1  0
 14 16  2  0
 16 17  1  0
 17 18  2  0
 17 19  1  0
 19 20  1  0
  7 21  1  0
 21 22  2  0
 22 23  1  0
 23 24  1  0
 23 25  1  0
 22  4  1  0
 19  8  2  0
 16 10  1  0
  1 26  1  0
  1 27  1  0
  1 28  1  0
  3 29  1  0
  3 30  1  0
  3 31  1  0
  5 32  1  0
  6 33  1  0
 11 34  1  0
 12 35  1  0
 13 36  1  0
 15 37  1  0
 20 38  1  0
 21 39  1  0
 23 40  1  0
M  END
>  <meeko>  (3) 
{"is_sidechain": [false], "free_energy": -7.824, "intermolecular_energy": -9.69, "internal_energy": -0.274}

$$$$
cand_034_out
     RDKit          3D

 40 42  0  0  0  0  0  0  0  0999 V2000
   76.3260   45.0990   -4.8030 C   0  0  0  0  0  0  0  0  0  0  0  0
   75.8000   45.1310   -3.4350 N   0  0  0  0  0  0  0  0  0  0  0  0
   75.6840   46.4880   -2.8810 C   0  0  0  0  0  0  0  0  0  0  0  0
   74.6030   44.4070   -3.2450 C   0  0  0  0  0  0  0  0  0  0  0  0
   73.3500   44.9260   -3.6040 C   0  0  0  0  0  0  0  0  0  0  0  0
   72.1730   44.1990   -3.3860 C   0  0  0  0  0  0  0  0  0  0  0  0
   72.2130   42.9310   -2.8020 C   0  0  0  0  0  0  0  0  0  0  0  0
   70.9820   42.1560   -2.5300 C   0  0  0  0  0  0  0  0  0  0  0  0
   71.1020   41.3230   -1.4230 O   0  0  0  0  0  0  0  0  0  0  0  0
   70.0340   40.5430   -1.0610 C   0  0  0  0  0  0  0  0  0  0  0  0
   70.1960   39.7300    0.0620 C   0  0  0  0  0  0  0  0  0  0  0  0
   69.1480   38.9100    0.4850 C   0  0  0  0  0  0  0  0  0  0  0  0
   67.9400   38.9020   -0.2150 C   0  0  0  0  0  0  0  0  0  0  0  0
   67.7810   39.7140   -1.3350 C   0  0  0  0  0  0  0  0  0  0  0  0
   66.5720   39.6570   -1.9740 O   0  0  0  0  0  0  0  0  0  0  0  0
   68.8300   40.5350   -1.7580 C   0  0  0  0  0  0  0  0  0  0  0  0
   68.7070   41.4020   -2.9300 C   0  0  0  0  0  0  0  0  0  0  0  0
   67.6780   41.4460   -3.6010 O   0  0  0  0  0  0  0  0  0  0  0  0
   69.8750   42.2370   -3.2910 C   0  0  0  0  0  0  0  0  0  0  0  0
   69.7530   43.0400   -4.4100 O   0  0  0  0  0  0  0  0  0  0  0  0
   73.4610   42.4140   -2.4270 C   0  0  0  0  0  0  0  0  0  0  0  0
   74.6530   43.1310   -2.6510 C   0  0  0  0  0  0  0  0  0  0  0  0
   75.9660   42.5260   -2.2270 C   0  0  0  0  0  0  0  0  0  0  0  0
   75.9450   41.1570   -2.2400 F   0  0  0  0  0  0  0  0  0  0  0  0
   76.3070   42.8620   -0.9490 F   0  0  0  0  0  0  0  0  0  0  0  0
   77.4235   45.0322   -4.7724 H   0  0  0  0  0  0  0  0  0  0  0  0
   75.9200   44.2239   -5.3316 H   0  0  0  0  0  0  0  0  0  0  0  0
   76.0291   46.0169   -5.3316 H   0  0  0  0  0  0  0  0  0  0  0  0
   75.6884   46.4371   -1.7822 H   0  0  0  0  0  0  0  0  0  0  0  0
   76.5333   47.0976   -3.2232 H   0  0  0  0  0  0  0  0  0  0  0  0
   74.7435   46.9446   -3.2232 H   0  0  0  0  0  0  0  0  0  0  0  0
   73.2909   45.9228   -4.0654 H   0  0  0  0  0  0  0  0  0  0  0  0
   71.2050   44.6321   -3.6784 H   0  0  0  0  0  0  0  0  0  0  0  0
   71.1480   39.7353    0.6130 H   0  0  0  0  0  0  0  0  0  0  0  0
   69.2742   38.2697    1.3705 H   0  0  0  0  0  0  0  0  0  0  0  0
   67.1149   38.2551    0.1178 H   0  0  0  0  0  0  0  0  0  0  0  0
   66.0320   40.4210   -2.0230 H   0  0  0  0  0  0  0  0  0  0  0  0
   70.4270   43.0430   -5.0600 H   0  0  0  0  0  0  0  0  0  0  0  0
   73.5107   41.4256   -1.9467 H   0  0  0  0  0  0  0  0  0  0  0  0
   76.6863   42.9241   -2.9569 H   0  0  0  0  0  0  0  0  0  0  0  0
  1  2  1  0
  2  3  1  0
  2  4  1  0
  4  5  2  0
  5  6  1  0
  6  7  2  0
  7  8  1  0
  8  9  1  0
  9 10  1  0
 10 11  2  0
 11 12  1  0
 12 13  2  0
 13 14  1  0
 14 15  1  0
 14 16  2  0
 16 17  1  0
 17 18  2  0
 17 19  1  0
 19 20  1  0
  7 21  1  0
 21 22  2  0
 22 23  1  0
 23 24  1  0
 23 25  1  0
 22  4  1  0
 19  8  2  0
 16 10  1  0
  1 26  1  0
  1 27  1  0
  1 28  1  0
  3 29  1  0
  3 30  1  0
  3 31  1  0
  5 32  1  0
  6 33  1  0
 11 34  1  0
 12 35  1  0
 13 36  1  0
 15 37  1  0
 20 38  1  0
 21 39  1  0
 23 40  1  0
M  END
>  <meeko>  (4) 
{"is_sidechain": [false], "free_energy": -7.796, "intermolecular_energy": -9.731, "internal_energy": -0.199}

$$$$
cand_034_out
     RDKit          3D

 40 42  0  0  0  0  0  0  0  0999 V2000
   76.9610   44.4140   -4.3560 C   0  0  0  0  0  0  0  0  0  0  0  0
   76.3650   43.2310   -4.9850 N   0  0  0  0  0  0  0  0  0  0  0  0
   77.3570   42.2790   -5.5070 C   0  0  0  0  0  0  0  0  0  0  0  0
   75.3980   42.5680   -4.1980 C   0  0  0  0  0  0  0  0  0  0  0  0
   75.6950   42.0490   -2.9280 C   0  0  0  0  0  0  0  0  0  0  0  0
   74.7270   41.3750   -2.1750 C   0  0  0  0  0  0  0  0  0  0  0  0
   73.4310   41.1980   -2.6670 C   0  0  0  0  0  0  0  0  0  0  0  0
   72.3990   40.4620   -1.9060 C   0  0  0  0  0  0  0  0  0  0  0  0
   72.9000   39.3290   -1.2730 O   0  0  0  0  0  0  0  0  0  0  0  0
   72.0470   38.5490   -0.5350 C   0  0  0  0  0  0  0  0  0  0  0  0
   72.5950   37.4280    0.0900 C   0  0  0  0  0  0  0  0  0  0  0  0
   71.7820   36.5910    0.8560 C   0  0  0  0  0  0  0  0  0  0  0  0
   70.4220   36.8730    0.9960 C   0  0  0  0  0  0  0  0  0  0  0  0
   69.8770   37.9920    0.3710 C   0  0  0  0  0  0  0  0  0  0  0  0
   68.5380   38.2100    0.5490 O   0  0  0  0  0  0  0  0  0  0  0  0
   70.6920   38.8310   -0.3960 C   0  0  0  0  0  0  0  0  0  0  0  0
   70.1610   40.0150   -1.0710 C   0  0  0  0  0  0  0  0  0  0  0  0
   68.9740   40.3270   -1.0000 O   0  0  0  0  0  0  0  0  0  0  0  0
   71.1080   40.8400   -1.8540 C   0  0  0  0  0  0  0  0  0  0  0  0
   70.5920   41.9490   -2.5010 O   0  0  0  0  0  0  0  0  0  0  0  0
   73.1340   41.7020   -3.9410 C   0  0  0  0  0  0  0  0  0  0  0  0
   74.0970   42.3910   -4.7050 C   0  0  0  0  0  0  0  0  0  0  0  0
   73.7200   42.9090   -6.0690 C   0  0  0  0  0  0  0  0  0  0  0  0
   72.3660   43.0270   -6.2330 F   0  0  0  0  0  0  0  0  0  0  0  0
   74.1280   42.0800   -7.0730 F   0  0  0  0  0  0  0  0  0  0  0  0
   76.9099   44.3125   -3.2619 H   0  0  0  0  0  0  0  0  0  0  0  0
   78.0122   44.5043   -4.6671 H   0  0  0  0  0  0  0  0  0  0  0  0
   76.4080   45.3125   -4.6671 H   0  0  0  0  0  0  0  0  0  0  0  0
   77.8699   41.7868   -4.6676 H   0  0  0  0  0  0  0  0  0  0  0  0
   76.8497   41.5211   -6.1219 H   0  0  0  0  0  0  0  0  0  0  0  0
   78.0934   42.8171   -6.1219 H   0  0  0  0  0  0  0  0  0  0  0  0
   76.7076   42.1744   -2.5170 H   0  0  0  0  0  0  0  0  0  0  0  0
   74.9897   40.9793   -1.1828 H   0  0  0  0  0  0  0  0  0  0  0  0
   73.6663   37.2043   -0.0209 H   0  0  0  0  0  0  0  0  0  0  0  0
   72.2135   35.7080    1.3500 H   0  0  0  0  0  0  0  0  0  0  0  0
   69.7817   36.2124    1.5990 H   0  0  0  0  0  0  0  0  0  0  0  0
   68.1920   38.3230    1.4120 H   0  0  0  0  0  0  0  0  0  0  0  0
   70.8070   42.8080   -2.1980 H   0  0  0  0  0  0  0  0  0  0  0  0
   72.1250   41.5561   -4.3542 H   0  0  0  0  0  0  0  0  0  0  0  0
   74.2179   43.8883   -6.1250 H   0  0  0  0  0  0  0  0  0  0  0  0
  1  2  1  0
  2  3  1  0
  2  4  1  0
  4  5  2  0
  5  6  1  0
  6  7  2  0
  7  8  1  0
  8  9  1  0
  9 10  1  0
 10 11  2  0
 11 12  1  0
 12 13  2  0
 13 14  1  0
 14 15  1  0
 14 16  2  0
 16 17  1  0
 17 18  2  0
 17 19  1  0
 19 20  1  0
  7 21  1  0
 21 22  2  0
 22 23  1  0
 23 24  1  0
 23 25  1  0
 22  4  1  0
 19  8  2  0
 16 10  1  0
  1 26  1  0
  1 27  1  0
  1 28  1  0
  3 29  1  0
  3 30  1  0
  3 31  1  0
  5 32  1  0
  6 33  1  0
 11 34  1  0
 12 35  1  0
 13 36  1  0
 15 37  1  0
 20 38  1  0
 21 39  1  0
 23 40  1  0
M  END
>  <meeko>  (5) 
{"is_sidechain": [false], "free_energy": -7.788, "intermolecular_energy": -9.632, "internal_energy": -0.287}

$$$$
cand_034_out
     RDKit          3D

 40 42  0  0  0  0  0  0  0  0999 V2000
   72.6130   46.5030   -6.1370 C   0  0  0  0  0  0  0  0  0  0  0  0
   73.7260   45.6400   -5.7300 N   0  0  0  0  0  0  0  0  0  0  0  0
   74.8660   46.3760   -5.1630 C   0  0  0  0  0  0  0  0  0  0  0  0
   73.3620   44.5600   -4.8960 C   0  0  0  0  0  0  0  0  0  0  0  0
   72.7900   44.7530   -3.6290 C   0  0  0  0  0  0  0  0  0  0  0  0
   72.4570   43.6680   -2.8090 C   0  0  0  0  0  0  0  0  0  0  0  0
   72.6850   42.3560   -3.2300 C   0  0  0  0  0  0  0  0  0  0  0  0
   72.3740   41.1930   -2.3710 C   0  0  0  0  0  0  0  0  0  0  0  0
   71.0280   41.1190   -2.0290 O   0  0  0  0  0  0  0  0  0  0  0  0
   70.6020   40.0900   -1.2290 C   0  0  0  0  0  0  0  0  0  0  0  0
   69.2420   40.0510   -0.9200 C   0  0  0  0  0  0  0  0  0  0  0  0
   68.7420   39.0290   -0.1090 C   0  0  0  0  0  0  0  0  0  0  0  0
   69.6010   38.0490    0.3920 C   0  0  0  0  0  0  0  0  0  0  0  0
   70.9580   38.0910    0.0820 C   0  0  0  0  0  0  0  0  0  0  0  0
   71.7430   37.1010    0.6060 O   0  0  0  0  0  0  0  0  0  0  0  0
   71.4580   39.1140   -0.7300 C   0  0  0  0  0  0  0  0  0  0  0  0
   72.8760   39.1970   -1.0790 C   0  0  0  0  0  0  0  0  0  0  0  0
   73.6960   38.3760   -0.6720 O   0  0  0  0  0  0  0  0  0  0  0  0
   73.3040   40.3160   -1.9490 C   0  0  0  0  0  0  0  0  0  0  0  0
   74.6490   40.3930   -2.2590 O   0  0  0  0  0  0  0  0  0  0  0  0
   73.2700   42.1580   -4.4890 C   0  0  0  0  0  0  0  0  0  0  0  0
   73.6000   43.2410   -5.3280 C   0  0  0  0  0  0  0  0  0  0  0  0
   74.2280   42.9670   -6.6700 C   0  0  0  0  0  0  0  0  0  0  0  0
   73.3400   42.4460   -7.5710 F   0  0  0  0  0  0  0  0  0  0  0  0
   75.2370   42.0510   -6.5970 F   0  0  0  0  0  0  0  0  0  0  0  0
   72.1071   46.8953   -5.2425 H   0  0  0  0  0  0  0  0  0  0  0  0
   72.9987   47.3404   -6.7370 H   0  0  0  0  0  0  0  0  0  0  0  0
   71.8980   45.9209   -6.7370 H   0  0  0  0  0  0  0  0  0  0  0  0
   74.8143   46.3426   -4.0647 H   0  0  0  0  0  0  0  0  0  0  0  0
   75.8053   45.9134   -5.5001 H   0  0  0  0  0  0  0  0  0  0  0  0
   74.8310   47.4225   -5.5001 H   0  0  0  0  0  0  0  0  0  0  0  0
   72.5996   45.7763   -3.2733 H   0  0  0  0  0  0  0  0  0  0  0  0
   72.0102   43.8513   -1.8207 H   0  0  0  0  0  0  0  0  0  0  0  0
   68.5649   40.8232   -1.3140 H   0  0  0  0  0  0  0  0  0  0  0  0
   67.6699   38.9965    0.1351 H   0  0  0  0  0  0  0  0  0  0  0  0
   69.2065   37.2449    1.0306 H   0  0  0  0  0  0  0  0  0  0  0  0
   72.6760   37.1870    0.5930 H   0  0  0  0  0  0  0  0  0  0  0  0
   75.2890   40.3700   -1.5750 H   0  0  0  0  0  0  0  0  0  0  0  0
   73.4762   41.1327   -4.8298 H   0  0  0  0  0  0  0  0  0  0  0  0
   74.5974   43.9515   -6.9931 H   0  0  0  0  0  0  0  0  0  0  0  0
  1  2  1  0
  2  3  1  0
  2  4  1  0
  4  5  2  0
  5  6  1  0
  6  7  2  0
  7  8  1  0
  8  9  1  0
  9 10  1  0
 10 11  2  0
 11 12  1  0
 12 13  2  0
 13 14  1  0
 14 15  1  0
 14 16  2  0
 16 17  1  0
 17 18  2  0
 17 19  1  0
 19 20  1  0
  7 21  1  0
 21 22  2  0
 22 23  1  0
 23 24  1  0
 23 25  1  0
 22  4  1  0
 19  8  2  0
 16 10  1  0
  1 26  1  0
  1 27  1  0
  1 28  1  0
  3 29  1  0
  3 30  1  0
  3 31  1  0
  5 32  1  0
  6 33  1  0
 11 34  1  0
 12 35  1  0
 13 36  1  0
 15 37  1  0
 20 38  1  0
 21 39  1  0
 23 40  1  0
M  END
>  <meeko>  (6) 
{"is_sidechain": [false], "free_energy": -7.774, "intermolecular_energy": -9.438, "internal_energy": -0.465}

$$$$
cand_034_out
     RDKit          3D

 40 42  0  0  0  0  0  0  0  0999 V2000
   76.7150   42.3080   -6.4390 C   0  0  0  0  0  0  0  0  0  0  0  0
   76.1090   43.1790   -5.4270 N   0  0  0  0  0  0  0  0  0  0  0  0
   75.9810   44.5790   -5.8560 C   0  0  0  0  0  0  0  0  0  0  0  0
   74.8910   42.7040   -4.8920 C   0  0  0  0  0  0  0  0  0  0  0  0
   73.7800   42.4170   -5.7000 C   0  0  0  0  0  0  0  0  0  0  0  0
   72.5750   41.9680   -5.1460 C   0  0  0  0  0  0  0  0  0  0  0  0
   72.4430   41.7920   -3.7670 C   0  0  0  0  0  0  0  0  0  0  0  0
   71.1720   41.3510   -3.1530 C   0  0  0  0  0  0  0  0  0  0  0  0
   71.3610   40.4750   -2.0900 O   0  0  0  0  0  0  0  0  0  0  0  0
   70.2630   39.9840   -1.4320 C   0  0  0  0  0  0  0  0  0  0  0  0
   70.5000   39.1150   -0.3650 C   0  0  0  0  0  0  0  0  0  0  0  0
   69.4260   38.5780    0.3470 C   0  0  0  0  0  0  0  0  0  0  0  0
   68.1170   38.9080   -0.0060 C   0  0  0  0  0  0  0  0  0  0  0  0
   67.8820   39.7740   -1.0710 C   0  0  0  0  0  0  0  0  0  0  0  0
   66.5760   40.0550   -1.3650 O   0  0  0  0  0  0  0  0  0  0  0  0
   68.9580   40.3120   -1.7840 C   0  0  0  0  0  0  0  0  0  0  0  0
   68.7570   41.2250   -2.9100 C   0  0  0  0  0  0  0  0  0  0  0  0
   67.6350   41.5580   -3.2860 O   0  0  0  0  0  0  0  0  0  0  0  0
   69.9630   41.7430   -3.5960 C   0  0  0  0  0  0  0  0  0  0  0  0
   69.7610   42.5920   -4.6690 O   0  0  0  0  0  0  0  0  0  0  0  0
   73.5460   42.0910   -2.9540 C   0  0  0  0  0  0  0  0  0  0  0  0
   74.7670   42.5330   -3.5000 C   0  0  0  0  0  0  0  0  0  0  0  0
   75.9170   42.8400   -2.5760 C   0  0  0  0  0  0  0  0  0  0  0  0
   75.7870   42.2410   -1.3530 F   0  0  0  0  0  0  0  0  0  0  0  0
   76.0280   44.1730   -2.3070 F   0  0  0  0  0  0  0  0  0  0  0  0
   77.2753   41.5026   -5.9416 H   0  0  0  0  0  0  0  0  0  0  0  0
   75.9249   41.8710   -7.0673 H   0  0  0  0  0  0  0  0  0  0  0  0
   77.3994   42.8969   -7.0673 H   0  0  0  0  0  0  0  0  0  0  0  0
   75.9215   45.2297   -4.9711 H   0  0  0  0  0  0  0  0  0  0  0  0
   76.8573   44.8593   -6.4590 H   0  0  0  0  0  0  0  0  0  0  0  0
   75.0684   44.6958   -6.4590 H   0  0  0  0  0  0  0  0  0  0  0  0
   73.8573   42.5473   -6.7895 H   0  0  0  0  0  0  0  0  0  0  0  0
   71.7216   41.7512   -5.8053 H   0  0  0  0  0  0  0  0  0  0  0  0
   71.5315   38.8540   -0.0859 H   0  0  0  0  0  0  0  0  0  0  0  0
   69.6120   37.8935    1.1878 H   0  0  0  0  0  0  0  0  0  0  0  0
   67.2717   38.4846    0.5563 H   0  0  0  0  0  0  0  0  0  0  0  0
   66.3490   40.4030   -2.2040 H   0  0  0  0  0  0  0  0  0  0  0  0
   68.9480   43.0500   -4.7550 H   0  0  0  0  0  0  0  0  0  0  0  0
   73.4555   41.9776   -1.8636 H   0  0  0  0  0  0  0  0  0  0  0  0
   76.7963   42.4604   -3.1170 H   0  0  0  0  0  0  0  0  0  0  0  0
  1  2  1  0
  2  3  1  0
  2  4  1  0
  4  5  2  0
  5  6  1  0
  6  7  2  0
  7  8  1  0
  8  9  1  0
  9 10  1  0
 10 11  2  0
 11 12  1  0
 12 13  2  0
 13 14  1  0
 14 15  1  0
 14 16  2  0
 16 17  1  0
 17 18  2  0
 17 19  1  0
 19 20  1  0
  7 21  1  0
 21 22  2  0
 22 23  1  0
 23 24  1  0
 23 25  1  0
 22  4  1  0
 19  8  2  0
 16 10  1  0
  1 26  1  0
  1 27  1  0
  1 28  1  0
  3 29  1  0
  3 30  1  0
  3 31  1  0
  5 32  1  0
  6 33  1  0
 11 34  1  0
 12 35  1  0
 13 36  1  0
 15 37  1  0
 20 38  1  0
 21 39  1  0
 23 40  1  0
M  END
>  <meeko>  (7) 
{"is_sidechain": [false], "free_energy": -7.717, "intermolecular_energy": -9.543, "internal_energy": -0.289}

$$$$
cand_034_out
     RDKit          3D

 40 42  0  0  0  0  0  0  0  0999 V2000
   73.8150   45.6730   -7.0180 C   0  0  0  0  0  0  0  0  0  0  0  0
   72.9120   45.8430   -5.8750 N   0  0  0  0  0  0  0  0  0  0  0  0
   71.6180   46.4440   -6.2320 C   0  0  0  0  0  0  0  0  0  0  0  0
   72.7280   44.6850   -5.0890 C   0  0  0  0  0  0  0  0  0  0  0  0
   71.8430   43.6610   -5.4610 C   0  0  0  0  0  0  0  0  0  0  0  0
   71.6600   42.5310   -4.6550 C   0  0  0  0  0  0  0  0  0  0  0  0
   72.3550   42.3890   -3.4530 C   0  0  0  0  0  0  0  0  0  0  0  0
   72.1560   41.2210   -2.5670 C   0  0  0  0  0  0  0  0  0  0  0  0
   70.8550   41.1250   -2.0860 O   0  0  0  0  0  0  0  0  0  0  0  0
   70.5320   40.0880   -1.2480 C   0  0  0  0  0  0  0  0  0  0  0  0
   69.2130   40.0260   -0.7970 C   0  0  0  0  0  0  0  0  0  0  0  0
   68.8180   38.9960    0.0600 C   0  0  0  0  0  0  0  0  0  0  0  0
   69.7410   38.0320    0.4670 C   0  0  0  0  0  0  0  0  0  0  0  0
   71.0580   38.0970    0.0170 C   0  0  0  0  0  0  0  0  0  0  0  0
   71.9100   37.1210    0.4540 O   0  0  0  0  0  0  0  0  0  0  0  0
   71.4520   39.1270   -0.8420 C   0  0  0  0  0  0  0  0  0  0  0  0
   72.8250   39.2340   -1.3370 C   0  0  0  0  0  0  0  0  0  0  0  0
   73.6960   38.4280   -1.0190 O   0  0  0  0  0  0  0  0  0  0  0  0
   73.1400   40.3610   -2.2460 C   0  0  0  0  0  0  0  0  0  0  0  0
   74.4440   40.4610   -2.6950 O   0  0  0  0  0  0  0  0  0  0  0  0
   73.2290   43.4160   -3.0690 C   0  0  0  0  0  0  0  0  0  0  0  0
   73.4310   44.5530   -3.8760 C   0  0  0  0  0  0  0  0  0  0  0  0
   74.3820   45.6250   -3.4120 C   0  0  0  0  0  0  0  0  0  0  0  0
   75.4030   45.1300   -2.6460 F   0  0  0  0  0  0  0  0  0  0  0  0
   73.7720   46.5600   -2.6270 F   0  0  0  0  0  0  0  0  0  0  0  0
   74.8351   45.4810   -6.6540 H   0  0  0  0  0  0  0  0  0  0  0  0
   73.4774   44.8226   -7.6287 H   0  0  0  0  0  0  0  0  0  0  0  0
   73.8098   46.5879   -7.6287 H   0  0  0  0  0  0  0  0  0  0  0  0
   71.0671   46.6999   -5.3149 H   0  0  0  0  0  0  0  0  0  0  0  0
   71.7879   47.3554   -6.8240 H   0  0  0  0  0  0  0  0  0  0  0  0
   71.0312   45.7262   -6.8240 H   0  0  0  0  0  0  0  0  0  0  0  0
   71.2827   43.7480   -6.4036 H   0  0  0  0  0  0  0  0  0  0  0  0
   70.9594   41.7449   -4.9732 H   0  0  0  0  0  0  0  0  0  0  0  0
   68.4854   40.7869   -1.1158 H   0  0  0  0  0  0  0  0  0  0  0  0
   67.7779   38.9448    0.4144 H   0  0  0  0  0  0  0  0  0  0  0  0
   69.4292   37.2216    1.1424 H   0  0  0  0  0  0  0  0  0  0  0  0
   71.7560   36.6980    1.2760 H   0  0  0  0  0  0  0  0  0  0  0  0
   75.0790   39.8260   -2.4310 H   0  0  0  0  0  0  0  0  0  0  0  0
   73.7699   43.3319   -2.1148 H   0  0  0  0  0  0  0  0  0  0  0  0
   74.7584   46.0643   -4.3476 H   0  0  0  0  0  0  0  0  0  0  0  0
  1  2  1  0
  2  3  1  0
  2  4  1  0
  4  5  2  0
  5  6  1  0
  6  7  2  0
  7  8  1  0
  8  9  1  0
  9 10  1  0
 10 11  2  0
 11 12  1  0
 12 13  2  0
 13 14  1  0
 14 15  1  0
 14 16  2  0
 16 17  1  0
 17 18  2  0
 17 19  1  0
 19 20  1  0
  7 21  1  0
 21 22  2  0
 22 23  1  0
 23 24  1  0
 23 25  1  0
 22  4  1  0
 19  8  2  0
 16 10  1  0
  1 26  1  0
  1 27  1  0
  1 28  1  0
  3 29  1  0
  3 30  1  0
  3 31  1  0
  5 32  1  0
  6 33  1  0
 11 34  1  0
 12 35  1  0
 13 36  1  0
 15 37  1  0
 20 38  1  0
 21 39  1  0
 23 40  1  0
M  END
>  <meeko>  (8) 
{"is_sidechain": [false], "free_energy": -7.575, "intermolecular_energy": -9.165, "internal_energy": -0.492}

$$$$
cand_034_out
     RDKit          3D

 40 42  0  0  0  0  0  0  0  0999 V2000
   76.2290   45.5000   -4.7030 C   0  0  0  0  0  0  0  0  0  0  0  0
   76.1350   44.0380   -4.7510 N   0  0  0  0  0  0  0  0  0  0  0  0
   77.2730   43.3540   -4.1180 C   0  0  0  0  0  0  0  0  0  0  0  0
   74.9110   43.5080   -4.2880 C   0  0  0  0  0  0  0  0  0  0  0  0
   74.5520   43.5300   -2.9310 C   0  0  0  0  0  0  0  0  0  0  0  0
   73.3420   42.9800   -2.4910 C   0  0  0  0  0  0  0  0  0  0  0  0
   72.4530   42.3900   -3.3930 C   0  0  0  0  0  0  0  0  0  0  0  0
   71.1850   41.7720   -2.9500 C   0  0  0  0  0  0  0  0  0  0  0  0
   71.3410   40.9620   -1.8310 O   0  0  0  0  0  0  0  0  0  0  0  0
   70.2420   40.3220   -1.3170 C   0  0  0  0  0  0  0  0  0  0  0  0
   70.4440   39.5270   -0.1880 C   0  0  0  0  0  0  0  0  0  0  0  0
   69.3680   38.8460    0.3860 C   0  0  0  0  0  0  0  0  0  0  0  0
   68.0920   38.9600   -0.1700 C   0  0  0  0  0  0  0  0  0  0  0  0
   67.8930   39.7530   -1.2970 C   0  0  0  0  0  0  0  0  0  0  0  0
   66.6190   39.8190   -1.7910 O   0  0  0  0  0  0  0  0  0  0  0  0
   68.9710   40.4350   -1.8710 C   0  0  0  0  0  0  0  0  0  0  0  0
   68.8080   41.2770   -3.0550 C   0  0  0  0  0  0  0  0  0  0  0  0
   67.7180   41.4220   -3.6060 O   0  0  0  0  0  0  0  0  0  0  0  0
   70.0120   41.9600   -3.5820 C   0  0  0  0  0  0  0  0  0  0  0  0
   69.8480   42.7410   -4.7120 O   0  0  0  0  0  0  0  0  0  0  0  0
   72.8140   42.3530   -4.7470 C   0  0  0  0  0  0  0  0  0  0  0  0
   74.0240   42.9130   -5.2040 C   0  0  0  0  0  0  0  0  0  0  0  0
   74.3580   42.8420   -6.6710 C   0  0  0  0  0  0  0  0  0  0  0  0
   73.3260   42.3530   -7.4250 F   0  0  0  0  0  0  0  0  0  0  0  0
   75.4090   42.0090   -6.9270 F   0  0  0  0  0  0  0  0  0  0  0  0
   76.2503   45.8318   -3.6545 H   0  0  0  0  0  0  0  0  0  0  0  0
   77.1499   45.8250   -5.2093 H   0  0  0  0  0  0  0  0  0  0  0  0
   75.3573   45.9403   -5.2093 H   0  0  0  0  0  0  0  0  0  0  0  0
   77.1742   43.4134   -3.0241 H   0  0  0  0  0  0  0  0  0  0  0  0
   77.2853   42.2987   -4.4283 H   0  0  0  0  0  0  0  0  0  0  0  0
   78.2106   43.8383   -4.4283 H   0  0  0  0  0  0  0  0  0  0  0  0
   75.2342   43.9880   -2.1997 H   0  0  0  0  0  0  0  0  0  0  0  0
   73.0880   43.0128   -1.4212 H   0  0  0  0  0  0  0  0  0  0  0  0
   71.4493   39.4368    0.2493 H   0  0  0  0  0  0  0  0  0  0  0  0
   69.5258   38.2196    1.2764 H   0  0  0  0  0  0  0  0  0  0  0  0
   67.2447   38.4236    0.2821 H   0  0  0  0  0  0  0  0  0  0  0  0
   66.0310   40.4800   -1.4810 H   0  0  0  0  0  0  0  0  0  0  0  0
   69.3160   43.5110   -4.6750 H   0  0  0  0  0  0  0  0  0  0  0  0
   72.1366   41.8754   -5.4703 H   0  0  0  0  0  0  0  0  0  0  0  0
   74.5912   43.8834   -6.9375 H   0  0  0  0  0  0  0  0  0  0  0  0
  1  2  1  0
  2  3  1  0
  2  4  1  0
  4  5  2  0
  5  6  1  0
  6  7  2  0
  7  8  1  0
  8  9  1  0
  9 10  1  0
 10 11  2  0
 11 12  1  0
 12 13  2  0
 13 14  1  0
 14 15  1  0
 14 16  2  0
 16 17  1  0
 17 18  2  0
 17 19  1  0
 19 20  1  0
  7 21  1  0
 21 22  2  0
 22 23  1  0
 23 24  1  0
 23 25  1  0
 22  4  1  0
 19  8  2  0
 16 10  1  0
  1 26  1  0
  1 27  1  0
  1 28  1  0
  3 29  1  0
  3 30  1  0
  3 31  1  0
  5 32  1  0
  6 33  1  0
 11 34  1  0
 12 35  1  0
 13 36  1  0
 15 37  1  0
 20 38  1  0
 21 39  1  0
 23 40  1  0
M  END
>  <meeko>  (9) 
{"is_sidechain": [false], "free_energy": -7.472, "intermolecular_energy": -9.229, "internal_energy": -0.301}

$$$$
