cand_009_out
     RDKit          3D

 41 43  0  0  0  0  0  0  0  0999 V2000
   70.6300   36.7710    0.9700 C   0  0  0  0  0  0  0  0  0  0  0  0
   70.1440   37.9500    0.1730 C   0  0  0  0  0  0  0  0  0  0  0  0
   68.8160   38.3730    0.3490 C   0  0  0  0  0  0  0  0  0  0  0  0
   68.3050   39.4600   -0.3630 C   0  0  0  0  0  0  0  0  0  0  0  0
   69.1040   40.1520   -1.2770 C   0  0  0  0  0  0  0  0  0  0  0  0
   68.5540   41.3150   -2.0030 C   0  0  0  0  0  0  0  0  0  0  0  0
   67.6530   42.0510   -1.2420 O   0  0  0  0  0  0  0  0  0  0  0  0
   67.0680   43.1610   -1.7940 C   0  0  0  0  0  0  0  0  0  0  0  0
   66.1810   43.8780   -0.9890 C   0  0  0  0  0  0  0  0  0  0  0  0
   65.5490   45.0170   -1.4920 C   0  0  0  0  0  0  0  0  0  0  0  0
   65.8020   45.4390   -2.7990 C   0  0  0  0  0  0  0  0  0  0  0  0
   66.6860   44.7210   -3.6000 C   0  0  0  0  0  0  0  0  0  0  0  0
   66.8870   45.1880   -4.8710 O   0  0  0  0  0  0  0  0  0  0  0  0
   67.3190   43.5820   -3.0970 C   0  0  0  0  0  0  0  0  0  0  0  0
   68.2550   42.8000   -3.9050 C   0  0  0  0  0  0  0  0  0  0  0  0
   68.5230   43.1020   -5.0660 O   0  0  0  0  0  0  0  0  0  0  0  0
   68.8800   41.6130   -3.2750 C   0  0  0  0  0  0  0  0  0  0  0  0
   69.7520   40.8750   -4.0530 O   0  0  0  0  0  0  0  0  0  0  0  0
   70.4330   39.7360   -1.4450 C   0  0  0  0  0  0  0  0  0  0  0  0
   70.9730   38.6380   -0.7390 C   0  0  0  0  0  0  0  0  0  0  0  0
   72.4230   38.2350   -0.9810 C   0  0  0  0  0  0  0  0  0  0  0  0
   73.3700   38.9200    0.0100 C   0  0  0  0  0  0  0  0  0  0  0  0
   72.8530   38.5100   -2.4260 C   0  0  0  0  0  0  0  0  0  0  0  0
   70.5390   36.9917    2.0438 H   0  0  0  0  0  0  0  0  0  0  0  0
   70.0229   35.8872    0.7246 H   0  0  0  0  0  0  0  0  0  0  0  0
   71.6836   36.5717    0.7246 H   0  0  0  0  0  0  0  0  0  0  0  0
   68.1679   37.8390    1.0595 H   0  0  0  0  0  0  0  0  0  0  0  0
   67.2632   39.7747   -0.2028 H   0  0  0  0  0  0  0  0  0  0  0  0
   65.9802   43.5461    0.0403 H   0  0  0  0  0  0  0  0  0  0  0  0
   64.8507   45.5828   -0.8578 H   0  0  0  0  0  0  0  0  0  0  0  0
   65.3041   46.3365   -3.1947 H   0  0  0  0  0  0  0  0  0  0  0  0
   67.7400   45.1440   -5.2550 H   0  0  0  0  0  0  0  0  0  0  0  0
   69.6200   39.9530   -4.1590 H   0  0  0  0  0  0  0  0  0  0  0  0
   71.0762   40.2830   -2.1500 H   0  0  0  0  0  0  0  0  0  0  0  0
   72.4872   37.1497   -0.8136 H   0  0  0  0  0  0  0  0  0  0  0  0
   73.0532   38.6908    1.0381 H   0  0  0  0  0  0  0  0  0  0  0  0
   74.3947   38.5527   -0.1484 H   0  0  0  0  0  0  0  0  0  0  0  0
   73.3419   40.0082   -0.1484 H   0  0  0  0  0  0  0  0  0  0  0  0
   73.7797   39.1026   -2.4263 H   0  0  0  0  0  0  0  0  0  0  0  0
   73.0279   37.5557   -2.9444 H   0  0  0  0  0  0  0  0  0  0  0  0
   72.0601   39.0690   -2.9444 H   0  0  0  0  0  0  0  0  0  0  0  0
  1  2  1  0
  2  3  2  0
  3  4  1  0
  4  5  2  0
  5  6  1  0
  6  7  1  0
  7  8  1  0
  8  9  2  0
  9 10  1  0
 10 11  2  0
 11 12  1  0
 12 13  1  0
 12 14  2  0
 14 15  1  0
 15 16  2  0
 15 17  1  0
 17 18  1  0
  5 19  1  0
 19 20  2  0
 20 21  1  0
 21 22  1  0
 21 23  1  0
 20  2  1  0
 17  6  2  0
 14  8  1  0
  1 24  1  0
  1 25  1  0
  1 26  1  0
  3 27  1  0
  4 28  1  0
  9 29  1  0
 10 30  1  0
 11 31  1  0
 13 32  1  0
 18 33  1  0
 19 34  1  0
 21 35  1  0
 22 36  1  0
 22 37  1  0
 22 38  1  0
 23 39  1  0
 23 40  1  0
 23 41  1  0
M  END
>  <meeko>  (1) 
{"is_sidechain": [false], "free_energy": -8.002, "intermolecular_energy": -9.406, "internal_energy": -0.211}

$$$$
cand_009_out
     RDKit          3D

 41 43  0  0  0  0  0  0  0  0999 V2000
   77.2040   43.5380   -2.9070 C   0  0  0  0  0  0  0  0  0  0  0  0
   75.7790   43.0720   -2.7840 C   0  0  0  0  0  0  0  0  0  0  0  0
   75.5410   41.7790   -2.2870 C   0  0  0  0  0  0  0  0  0  0  0  0
   74.2410   41.2870   -2.1510 C   0  0  0  0  0  0  0  0  0  0  0  0
   73.1430   42.0700   -2.5130 C   0  0  0  0  0  0  0  0  0  0  0  0
   71.7730   41.5420   -2.3390 C   0  0  0  0  0  0  0  0  0  0  0  0
   71.6480   40.7230   -1.2230 O   0  0  0  0  0  0  0  0  0  0  0  0
   70.4270   40.1660   -0.9410 C   0  0  0  0  0  0  0  0  0  0  0  0
   70.3440   39.3620    0.1970 C   0  0  0  0  0  0  0  0  0  0  0  0
   69.1300   38.7630    0.5390 C   0  0  0  0  0  0  0  0  0  0  0  0
   67.9990   38.9670   -0.2560 C   0  0  0  0  0  0  0  0  0  0  0  0
   68.0860   39.7690   -1.3900 C   0  0  0  0  0  0  0  0  0  0  0  0
   66.9420   39.9260   -2.1250 O   0  0  0  0  0  0  0  0  0  0  0  0
   69.3010   40.3690   -1.7330 C   0  0  0  0  0  0  0  0  0  0  0  0
   69.4330   41.2190   -2.9160 C   0  0  0  0  0  0  0  0  0  0  0  0
   68.4880   41.4400   -3.6690 O   0  0  0  0  0  0  0  0  0  0  0  0
   70.7630   41.8150   -3.1870 C   0  0  0  0  0  0  0  0  0  0  0  0
   70.8800   42.6050   -4.3140 O   0  0  0  0  0  0  0  0  0  0  0  0
   73.3800   43.3650   -2.9980 C   0  0  0  0  0  0  0  0  0  0  0  0
   74.6850   43.8840   -3.1490 C   0  0  0  0  0  0  0  0  0  0  0  0
   74.8680   45.2960   -3.6940 C   0  0  0  0  0  0  0  0  0  0  0  0
   73.7430   46.2280   -3.2300 C   0  0  0  0  0  0  0  0  0  0  0  0
   74.9860   45.3010   -5.2220 C   0  0  0  0  0  0  0  0  0  0  0  0
   77.6319   43.6779   -1.9034 H   0  0  0  0  0  0  0  0  0  0  0  0
   77.7902   42.7847   -3.4538 H   0  0  0  0  0  0  0  0  0  0  0  0
   77.2319   44.4921   -3.4538 H   0  0  0  0  0  0  0  0  0  0  0  0
   76.3925   41.1443   -2.0005 H   0  0  0  0  0  0  0  0  0  0  0  0
   74.0806   40.2733   -1.7551 H   0  0  0  0  0  0  0  0  0  0  0  0
   71.2337   39.2005    0.8234 H   0  0  0  0  0  0  0  0  0  0  0  0
   69.0638   38.1294    1.4358 H   0  0  0  0  0  0  0  0  0  0  0  0
   67.0427   38.4950    0.0138 H   0  0  0  0  0  0  0  0  0  0  0  0
   66.8880   40.6050   -2.7670 H   0  0  0  0  0  0  0  0  0  0  0  0
   71.5950   42.4760   -4.9060 H   0  0  0  0  0  0  0  0  0  0  0  0
   72.5215   43.9968   -3.2695 H   0  0  0  0  0  0  0  0  0  0  0  0
   75.8140   45.6794   -3.2839 H   0  0  0  0  0  0  0  0  0  0  0  0
   73.7156   46.2507   -2.1306 H   0  0  0  0  0  0  0  0  0  0  0  0
   73.9260   47.2427   -3.6132 H   0  0  0  0  0  0  0  0  0  0  0  0
   72.7800   45.8595   -3.6132 H   0  0  0  0  0  0  0  0  0  0  0  0
   76.0473   45.3459   -5.5076 H   0  0  0  0  0  0  0  0  0  0  0  0
   74.5357   44.3830   -5.6275 H   0  0  0  0  0  0  0  0  0  0  0  0
   74.4597   46.1777   -5.6275 H   0  0  0  0  0  0  0  0  0  0  0  0
  1  2  1  0
  2  3  2  0
  3  4  1  0
  4  5  2  0
  5  6  1  0
  6  7  1  0
  7  8  1  0
  8  9  2  0
  9 10  1  0
 10 11  2  0
 11 12  1  0
 12 13  1  0
 12 14  2  0
 14 15  1  0
 15 16  2  0
 15 17  1  0
 17 18  1  0
  5 19  1  0
 19 20  2  0
 20 21  1  0
 21 22  1  0
 21 23  1  0
 20  2  1  0
 17  6  2  0
 14  8  1  0
  1 24  1  0
  1 25  1  0
  1 26  1  0
  3 27  1  0
  4 28  1  0
  9 29  1  0
 10 30  1  0
 11 31  1  0
 13 32  1  0
 18 33  1  0
 19 34  1  0
 21 35  1  0
 22 36  1  0
 22 37  1  0
 22 38  1  0
 23 39  1  0
 23 40  1  0
 23 41  1  0
M  END
>  <meeko>  (2) 
{"is_sidechain": [false], "free_energy": -7.889, "intermolecular_energy": -9.264, "internal_energy": -0.219}

$$$$
cand_009_out
     RDKit          3D

 41 43  0  0  0  0  0  0  0  0999 V2000
   75.0240   43.5570   -6.0470 C   0  0  0  0  0  0  0  0  0  0  0  0
   74.2660   42.7490   -5.0300 C   0  0  0  0  0  0  0  0  0  0  0  0
   73.0980   42.0840   -5.4410 C   0  0  0  0  0  0  0  0  0  0  0  0
   72.3490   41.3210   -4.5430 C   0  0  0  0  0  0  0  0  0  0  0  0
   72.7410   41.2040   -3.2080 C   0  0  0  0  0  0  0  0  0  0  0  0
   71.9500   40.3710   -2.2780 C   0  0  0  0  0  0  0  0  0  0  0  0
   70.6020   40.7140   -2.2590 O   0  0  0  0  0  0  0  0  0  0  0  0
   69.7510   40.0180   -1.4400 C   0  0  0  0  0  0  0  0  0  0  0  0
   68.4050   40.3860   -1.4640 C   0  0  0  0  0  0  0  0  0  0  0  0
   67.4870   39.7180   -0.6510 C   0  0  0  0  0  0  0  0  0  0  0  0
   67.9130   38.6840    0.1860 C   0  0  0  0  0  0  0  0  0  0  0  0
   69.2560   38.3200    0.2080 C   0  0  0  0  0  0  0  0  0  0  0  0
   69.6070   37.3000    1.0510 O   0  0  0  0  0  0  0  0  0  0  0  0
   70.1760   38.9880   -0.6060 C   0  0  0  0  0  0  0  0  0  0  0  0
   71.5960   38.6350   -0.6130 C   0  0  0  0  0  0  0  0  0  0  0  0
   72.0500   37.7430    0.1010 O   0  0  0  0  0  0  0  0  0  0  0  0
   72.4870   39.3990   -1.5180 C   0  0  0  0  0  0  0  0  0  0  0  0
   73.8290   39.0670   -1.5060 O   0  0  0  0  0  0  0  0  0  0  0  0
   73.9120   41.8580   -2.8000 C   0  0  0  0  0  0  0  0  0  0  0  0
   74.6860   42.6390   -3.6880 C   0  0  0  0  0  0  0  0  0  0  0  0
   75.9420   43.3320   -3.1710 C   0  0  0  0  0  0  0  0  0  0  0  0
   76.4320   42.7040   -1.8620 C   0  0  0  0  0  0  0  0  0  0  0  0
   75.7290   44.8410   -3.0060 C   0  0  0  0  0  0  0  0  0  0  0  0
   75.6886   44.2655   -5.5309 H   0  0  0  0  0  0  0  0  0  0  0  0
   75.6239   42.8838   -6.6770 H   0  0  0  0  0  0  0  0  0  0  0  0
   74.3139   44.1128   -6.6770 H   0  0  0  0  0  0  0  0  0  0  0  0
   72.7685   42.1660   -6.4873 H   0  0  0  0  0  0  0  0  0  0  0  0
   71.4409   40.8068   -4.8908 H   0  0  0  0  0  0  0  0  0  0  0  0
   68.0680   41.2005   -2.1220 H   0  0  0  0  0  0  0  0  0  0  0  0
   66.4257   40.0068   -0.6697 H   0  0  0  0  0  0  0  0  0  0  0  0
   67.1888   38.1588    0.8261 H   0  0  0  0  0  0  0  0  0  0  0  0
   69.5740   36.4130    0.7510 H   0  0  0  0  0  0  0  0  0  0  0  0
   74.4770   39.7350   -1.4030 H   0  0  0  0  0  0  0  0  0  0  0  0
   74.2392   41.7601   -1.7544 H   0  0  0  0  0  0  0  0  0  0  0  0
   76.7250   43.1857   -3.9296 H   0  0  0  0  0  0  0  0  0  0  0  0
   76.0043   43.2522   -1.0097 H   0  0  0  0  0  0  0  0  0  0  0  0
   76.1136   41.6520   -1.8183 H   0  0  0  0  0  0  0  0  0  0  0  0
   77.5299   42.7570   -1.8183 H   0  0  0  0  0  0  0  0  0  0  0  0
   75.6936   45.0914   -1.9355 H   0  0  0  0  0  0  0  0  0  0  0  0
   76.5596   45.3828   -3.4821 H   0  0  0  0  0  0  0  0  0  0  0  0
   74.7809   45.1317   -3.4821 H   0  0  0  0  0  0  0  0  0  0  0  0
  1  2  1  0
  2  3  2  0
  3  4  1  0
  4  5  2  0
  5  6  1  0
  6  7  1  0
  7  8  1  0
  8  9  2  0
  9 10  1  0
 10 11  2  0
 11 12  1  0
 12 13  1  0
 12 14  2  0
 14 15  1  0
 15 16  2  0
 15 17  1  0
 17 18  1  0
  5 19  1  0
 19 20  2  0
 20 21  1  0
 21 22  1  0
 21 23  1  0
 20  2  1  0
 17  6  2  0
 14  8  1  0
  1 24  1  0
  1 25  1  0
  1 26  1  0
  3 27  1  0
  4 28  1  0
  9 29  1  0
 10 30  1  0
 11 31  1  0
 13 32  1  0
 18 33  1  0
 19 34  1  0
 21 35  1  0
 22 36  1  0
 22 37  1  0
 22 38  1  0
 23 39  1  0
 23 40  1  0
 23 41  1  0
M  END
>  <meeko>  (3) 
{"is_sidechain": [false], "free_energy": -7.887, "intermolecular_energy": -9.264, "internal_energy": -0.217}

$$$$
cand_009_out
     RDKit          3D

 41 43  0  0  0  0  0  0  0  0999 V2000
   67.8340   38.6430    0.0010 C   0  0  0  0  0  0  0  0  0  0  0  0
   69.0840   39.3130   -0.5000 C   0  0  0  0  0  0  0  0  0  0  0  0
   68.9530   40.4750   -1.2790 C   0  0  0  0  0  0  0  0  0  0  0  0
   70.0750   41.1400   -1.7760 C   0  0  0  0  0  0  0  0  0  0  0  0
   71.3610   40.6610   -1.5140 C   0  0  0  0  0  0  0  0  0  0  0  0
   72.5380   41.3940   -2.0270 C   0  0  0  0  0  0  0  0  0  0  0  0
   72.2320   42.6830   -2.4460 O   0  0  0  0  0  0  0  0  0  0  0  0
   73.2340   43.4750   -2.9440 C   0  0  0  0  0  0  0  0  0  0  0  0
   72.8840   44.7670   -3.3400 C   0  0  0  0  0  0  0  0  0  0  0  0
   73.8570   45.6240   -3.8580 C   0  0  0  0  0  0  0  0  0  0  0  0
   75.1790   45.1910   -3.9800 C   0  0  0  0  0  0  0  0  0  0  0  0
   75.5250   43.9010   -3.5850 C   0  0  0  0  0  0  0  0  0  0  0  0
   76.8370   43.5400   -3.7340 O   0  0  0  0  0  0  0  0  0  0  0  0
   74.5510   43.0430   -3.0670 C   0  0  0  0  0  0  0  0  0  0  0  0
   74.8730   41.6810   -2.6390 C   0  0  0  0  0  0  0  0  0  0  0  0
   76.0110   41.2240   -2.7230 O   0  0  0  0  0  0  0  0  0  0  0  0
   73.7700   40.8550   -2.0960 C   0  0  0  0  0  0  0  0  0  0  0  0
   74.0830   39.5660   -1.7080 O   0  0  0  0  0  0  0  0  0  0  0  0
   71.4920   39.5080   -0.7270 C   0  0  0  0  0  0  0  0  0  0  0  0
   70.3730   38.8150   -0.2160 C   0  0  0  0  0  0  0  0  0  0  0  0
   70.5910   37.5600    0.6230 C   0  0  0  0  0  0  0  0  0  0  0  0
   70.6150   37.8830    2.1210 C   0  0  0  0  0  0  0  0  0  0  0  0
   71.8630   36.8150    0.2050 C   0  0  0  0  0  0  0  0  0  0  0  0
   67.8337   38.6429    1.1010 H   0  0  0  0  0  0  0  0  0  0  0  0
   66.9528   39.1897   -0.3658 H   0  0  0  0  0  0  0  0  0  0  0  0
   67.8013   37.6065   -0.3658 H   0  0  0  0  0  0  0  0  0  0  0  0
   67.9495   40.8671   -1.5009 H   0  0  0  0  0  0  0  0  0  0  0  0
   69.9454   42.0502   -2.3799 H   0  0  0  0  0  0  0  0  0  0  0  0
   71.8431   45.1095   -3.2441 H   0  0  0  0  0  0  0  0  0  0  0  0
   73.5817   46.6421   -4.1706 H   0  0  0  0  0  0  0  0  0  0  0  0
   75.9453   45.8671   -4.3871 H   0  0  0  0  0  0  0  0  0  0  0  0
   77.4860   43.8870   -3.1540 H   0  0  0  0  0  0  0  0  0  0  0  0
   73.6950   38.8360   -2.1490 H   0  0  0  0  0  0  0  0  0  0  0  0
   72.5001   39.1308   -0.5001 H   0  0  0  0  0  0  0  0  0  0  0  0
   69.7359   36.8941    0.4350 H   0  0  0  0  0  0  0  0  0  0  0  0
   70.5456   36.9494    2.6986 H   0  0  0  0  0  0  0  0  0  0  0  0
   71.5540   38.3992    2.3698 H   0  0  0  0  0  0  0  0  0  0  0  0
   69.7626   38.5323    2.3698 H   0  0  0  0  0  0  0  0  0  0  0  0
   72.4115   36.4937    1.1027 H   0  0  0  0  0  0  0  0  0  0  0  0
   71.5914   35.9332   -0.3939 H   0  0  0  0  0  0  0  0  0  0  0  0
   72.4992   37.4832   -0.3939 H   0  0  0  0  0  0  0  0  0  0  0  0
  1  2  1  0
  2  3  2  0
  3  4  1  0
  4  5  2  0
  5  6  1  0
  6  7  1  0
  7  8  1  0
  8  9  2  0
  9 10  1  0
 10 11  2  0
 11 12  1  0
 12 13  1  0
 12 14  2  0
 14 15  1  0
 15 16  2  0
 15 17  1  0
 17 18  1  0
  5 19  1  0
 19 20  2  0
 20 21  1  0
 21 22  1  0
 21 23  1  0
 20  2  1  0
 17  6  2  0
 14  8  1  0
  1 24  1  0
  1 25  1  0
  1 26  1  0
  3 27  1  0
  4 28  1  0
  9 29  1  0
 10 30  1  0
 11 31  1  0
 13 32  1  0
 18 33  1  0
 19 34  1  0
 21 35  1  0
 22 36  1  0
 22 37  1  0
 22 38  1  0
 23 39  1  0
 23 40  1  0
 23 41  1  0
M  END
>  <meeko>  (4) 
{"is_sidechain": [false], "free_energy": -7.885, "intermolecular_energy": -9.453, "internal_energy": -0.026}

$$$$
cand_009_out
     RDKit          3D

 41 43  0  0  0  0  0  0  0  0999 V2000
   75.1990   43.5320   -6.0680 C   0  0  0  0  0  0  0  0  0  0  0  0
   74.3390   42.7980   -5.0760 C   0  0  0  0  0  0  0  0  0  0  0  0
   73.1610   42.1870   -5.5370 C   0  0  0  0  0  0  0  0  0  0  0  0
   72.3190   41.4940   -4.6660 C   0  0  0  0  0  0  0  0  0  0  0  0
   72.6260   41.3950   -3.3070 C   0  0  0  0  0  0  0  0  0  0  0  0
   71.7360   40.6360   -2.4030 C   0  0  0  0  0  0  0  0  0  0  0  0
   72.3850   39.5860   -1.7630 O   0  0  0  0  0  0  0  0  0  0  0  0
   71.6750   38.7980   -0.8940 C   0  0  0  0  0  0  0  0  0  0  0  0
   72.3700   37.7650   -0.2630 C   0  0  0  0  0  0  0  0  0  0  0  0
   71.7050   36.9250    0.6330 C   0  0  0  0  0  0  0  0  0  0  0  0
   70.3470   37.1170    0.8980 C   0  0  0  0  0  0  0  0  0  0  0  0
   69.6570   38.1480    0.2660 C   0  0  0  0  0  0  0  0  0  0  0  0
   68.3290   38.2790    0.5690 O   0  0  0  0  0  0  0  0  0  0  0  0
   70.3220   38.9890   -0.6300 C   0  0  0  0  0  0  0  0  0  0  0  0
   69.6340   40.0840   -1.3140 C   0  0  0  0  0  0  0  0  0  0  0  0
   68.4390   40.3120   -1.1410 O   0  0  0  0  0  0  0  0  0  0  0  0
   70.4320   40.9240   -2.2390 C   0  0  0  0  0  0  0  0  0  0  0  0
   69.7680   41.9460   -2.8900 O   0  0  0  0  0  0  0  0  0  0  0  0
   73.8080   41.9950   -2.8480 C   0  0  0  0  0  0  0  0  0  0  0  0
   74.6750   42.7050   -3.7090 C   0  0  0  0  0  0  0  0  0  0  0  0
   75.9370   43.3420   -3.1370 C   0  0  0  0  0  0  0  0  0  0  0  0
   76.3740   42.6550   -1.8390 C   0  0  0  0  0  0  0  0  0  0  0  0
   75.7630   44.8500   -2.9260 C   0  0  0  0  0  0  0  0  0  0  0  0
   75.9289   44.1550   -5.5302 H   0  0  0  0  0  0  0  0  0  0  0  0
   75.7316   42.8058   -6.6996 H   0  0  0  0  0  0  0  0  0  0  0  0
   74.5655   44.1721   -6.6996 H   0  0  0  0  0  0  0  0  0  0  0  0
   72.8977   42.2560   -6.6028 H   0  0  0  0  0  0  0  0  0  0  0  0
   71.4046   41.0211   -5.0536 H   0  0  0  0  0  0  0  0  0  0  0  0
   73.4394   37.6128   -0.4710 H   0  0  0  0  0  0  0  0  0  0  0  0
   72.2517   36.1107    1.1310 H   0  0  0  0  0  0  0  0  0  0  0  0
   69.8241   36.4553    1.6042 H   0  0  0  0  0  0  0  0  0  0  0  0
   67.9810   37.8670    1.3360 H   0  0  0  0  0  0  0  0  0  0  0  0
   70.2530   42.5980   -3.3560 H   0  0  0  0  0  0  0  0  0  0  0  0
   74.0686   41.9100   -1.7827 H   0  0  0  0  0  0  0  0  0  0  0  0
   76.7358   43.1984   -3.8795 H   0  0  0  0  0  0  0  0  0  0  0  0
   76.0070   43.2319   -0.9773 H   0  0  0  0  0  0  0  0  0  0  0  0
   75.9565   41.6379   -1.8039 H   0  0  0  0  0  0  0  0  0  0  0  0
   77.4722   42.6020   -1.8039 H   0  0  0  0  0  0  0  0  0  0  0  0
   75.7377   45.0689   -1.8483 H   0  0  0  0  0  0  0  0  0  0  0  0
   76.6054   45.3846   -3.3891 H   0  0  0  0  0  0  0  0  0  0  0  0
   74.8210   45.1788   -3.3891 H   0  0  0  0  0  0  0  0  0  0  0  0
  1  2  1  0
  2  3  2  0
  3  4  1  0
  4  5  2  0
  5  6  1  0
  6  7  1  0
  7  8  1  0
  8  9  2  0
  9 10  1  0
 10 11  2  0
 11 12  1  0
 12 13  1  0
 12 14  2  0
 14 15  1  0
 15 16  2  0
 15 17  1  0
 17 18  1  0
  5 19  1  0
 19 20  2  0
 20 21  1  0
 21 22  1  0
 21 23  1  0
 20  2  1  0
 17  6  2  0
 14  8  1  0
  1 24  1  0
  1 25  1  0
  1 26  1  0
  3 27  1  0
  4 28  1  0
  9 29  1  0
 10 30  1  0
 11 31  1  0
 13 32  1  0
 18 33  1  0
 19 34  1  0
 21 35  1  0
 22 36  1  0
 22 37  1  0
 22 38  1  0
 23 39  1  0
 23 40  1  0
 23 41  1  0
M  END
>  <meeko>  (5) 
{"is_sidechain": [false], "free_energy": -7.863, "intermolecular_energy": -9.123, "internal_energy": -0.33}

$$$$
cand_009_out
     RDKit          3D

 41 43  0  0  0  0  0  0  0  0999 V2000
   75.4610   45.6890   -3.8560 C   0  0  0  0  0  0  0  0  0  0  0  0
   74.3140   44.7740   -3.5240 C   0  0  0  0  0  0  0  0  0  0  0  0
   73.0100   45.2940   -3.5740 C   0  0  0  0  0  0  0  0  0  0  0  0
   71.9040   44.4970   -3.2740 C   0  0  0  0  0  0  0  0  0  0  0  0
   72.0690   43.1580   -2.9110 C   0  0  0  0  0  0  0  0  0  0  0  0
   70.8840   42.3220   -2.6230 C   0  0  0  0  0  0  0  0  0  0  0  0
   71.0570   41.5050   -1.5120 O   0  0  0  0  0  0  0  0  0  0  0  0
   70.0330   40.6770   -1.1300 C   0  0  0  0  0  0  0  0  0  0  0  0
   70.2460   39.8850   -0.0010 C   0  0  0  0  0  0  0  0  0  0  0  0
   69.2430   39.0180    0.4400 C   0  0  0  0  0  0  0  0  0  0  0  0
   68.0300   38.9420   -0.2480 C   0  0  0  0  0  0  0  0  0  0  0  0
   67.8220   39.7330   -1.3740 C   0  0  0  0  0  0  0  0  0  0  0  0
   66.6120   39.6090   -2.0010 O   0  0  0  0  0  0  0  0  0  0  0  0
   68.8240   40.6010   -1.8150 C   0  0  0  0  0  0  0  0  0  0  0  0
   68.6450   41.4500   -2.9940 C   0  0  0  0  0  0  0  0  0  0  0  0
   67.6100   41.4350   -3.6560 O   0  0  0  0  0  0  0  0  0  0  0  0
   69.7670   42.3410   -3.3730 C   0  0  0  0  0  0  0  0  0  0  0  0
   69.5910   43.1280   -4.4960 O   0  0  0  0  0  0  0  0  0  0  0  0
   73.3690   42.6350   -2.8730 C   0  0  0  0  0  0  0  0  0  0  0  0
   74.5050   43.4220   -3.1680 C   0  0  0  0  0  0  0  0  0  0  0  0
   75.8910   42.7900   -3.0950 C   0  0  0  0  0  0  0  0  0  0  0  0
   76.0320   41.6310   -4.0870 C   0  0  0  0  0  0  0  0  0  0  0  0
   76.2290   42.3350   -1.6710 C   0  0  0  0  0  0  0  0  0  0  0  0
   75.9195   46.0548   -2.9254 H   0  0  0  0  0  0  0  0  0  0  0  0
   76.2112   45.1385   -4.4427 H   0  0  0  0  0  0  0  0  0  0  0  0
   75.0910   46.5428   -4.4427 H   0  0  0  0  0  0  0  0  0  0  0  0
   72.8579   46.3468   -3.8542 H   0  0  0  0  0  0  0  0  0  0  0  0
   70.8929   44.9273   -3.3239 H   0  0  0  0  0  0  0  0  0  0  0  0
   71.2016   39.9431    0.5407 H   0  0  0  0  0  0  0  0  0  0  0  0
   69.4090   38.3942    1.3307 H   0  0  0  0  0  0  0  0  0  0  0  0
   67.2410   38.2587    0.0992 H   0  0  0  0  0  0  0  0  0  0  0  0
   66.2800   38.7590   -2.2130 H   0  0  0  0  0  0  0  0  0  0  0  0
   68.7620   43.1460   -4.9320 H   0  0  0  0  0  0  0  0  0  0  0  0
   73.5094   41.5775   -2.6048 H   0  0  0  0  0  0  0  0  0  0  0  0
   76.6160   43.5669   -3.3792 H   0  0  0  0  0  0  0  0  0  0  0  0
   76.1468   40.6870   -3.5341 H   0  0  0  0  0  0  0  0  0  0  0  0
   75.1336   41.5784   -4.7196 H   0  0  0  0  0  0  0  0  0  0  0  0
   76.9168   41.7954   -4.7196 H   0  0  0  0  0  0  0  0  0  0  0  0
   75.7353   42.9996   -0.9468 H   0  0  0  0  0  0  0  0  0  0  0  0
   75.8762   41.3038   -1.5221 H   0  0  0  0  0  0  0  0  0  0  0  0
   77.3181   42.3750   -1.5221 H   0  0  0  0  0  0  0  0  0  0  0  0
  1  2  1  0
  2  3  2  0
  3  4  1  0
  4  5  2  0
  5  6  1  0
  6  7  1  0
  7  8  1  0
  8  9  2  0
  9 10  1  0
 10 11  2  0
 11 12  1  0
 12 13  1  0
 12 14  2  0
 14 15  1  0
 15 16  2  0
 15 17  1  0
 17 18  1  0
  5 19  1  0
 19 20  2  0
 20 21  1  0
 21 22  1  0
 21 23  1  0
 20  2  1  0
 17  6  2  0
 14  8  1  0
  1 24  1  0
  1 25  1  0
  1 26  1  0
  3 27  1  0
  4 28  1  0
  9 29  1  0
 10 30  1  0
 11 31  1  0
 13 32  1  0
 18 33  1  0
 19 34  1  0
 21 35  1  0
 22 36  1  0
 22 37  1  0
 22 38  1  0
 23 39  1  0
 23 40  1  0
 23 41  1  0
M  END
>  <meeko>  (6) 
{"is_sidechain": [false], "free_energy": -7.861, "intermolecular_energy": -9.162, "internal_energy": -0.288}

$$$$
cand_009_out
     RDKit          3D

 41 43  0  0  0  0  0  0  0  0999 V2000
   74.0990   46.0610   -5.5010 C   0  0  0  0  0  0  0  0  0  0  0  0
   73.7390   44.8170   -4.7360 C   0  0  0  0  0  0  0  0  0  0  0  0
   72.9840   44.9530   -3.5590 C   0  0  0  0  0  0  0  0  0  0  0  0
   72.6200   43.8360   -2.8040 C   0  0  0  0  0  0  0  0  0  0  0  0
   73.0030   42.5530   -3.1990 C   0  0  0  0  0  0  0  0  0  0  0  0
   72.5860   41.3810   -2.4010 C   0  0  0  0  0  0  0  0  0  0  0  0
   71.2220   41.3670   -2.1330 O   0  0  0  0  0  0  0  0  0  0  0  0
   70.7000   40.3320   -1.4000 C   0  0  0  0  0  0  0  0  0  0  0  0
   69.3240   40.3510   -1.1680 C   0  0  0  0  0  0  0  0  0  0  0  0
   68.7290   39.3280   -0.4270 C   0  0  0  0  0  0  0  0  0  0  0  0
   69.5090   38.2870    0.0820 C   0  0  0  0  0  0  0  0  0  0  0  0
   70.8810   38.2710   -0.1520 C   0  0  0  0  0  0  0  0  0  0  0  0
   71.5850   37.2230    0.3760 O   0  0  0  0  0  0  0  0  0  0  0  0
   71.4770   39.2950   -0.8930 C   0  0  0  0  0  0  0  0  0  0  0  0
   72.9150   39.3150   -1.1620 C   0  0  0  0  0  0  0  0  0  0  0  0
   73.6680   38.4400   -0.7420 O   0  0  0  0  0  0  0  0  0  0  0  0
   73.4460   40.4410   -1.9650 C   0  0  0  0  0  0  0  0  0  0  0  0
   74.8080   40.4570   -2.2010 O   0  0  0  0  0  0  0  0  0  0  0  0
   73.7470   42.4160   -4.3800 C   0  0  0  0  0  0  0  0  0  0  0  0
   74.1310   43.5300   -5.1610 C   0  0  0  0  0  0  0  0  0  0  0  0
   74.9500   43.3060   -6.4270 C   0  0  0  0  0  0  0  0  0  0  0  0
   74.0750   42.8020   -7.5800 C   0  0  0  0  0  0  0  0  0  0  0  0
   76.1270   42.3580   -6.1800 C   0  0  0  0  0  0  0  0  0  0  0  0
   74.3334   46.8709   -4.7946 H   0  0  0  0  0  0  0  0  0  0  0  0
   74.9762   45.8612   -6.1340 H   0  0  0  0  0  0  0  0  0  0  0  0
   73.2507   46.3606   -6.1340 H   0  0  0  0  0  0  0  0  0  0  0  0
   72.6747   45.9550   -3.2270 H   0  0  0  0  0  0  0  0  0  0  0  0
   72.0251   43.9685   -1.8883 H   0  0  0  0  0  0  0  0  0  0  0  0
   68.7091   41.1706   -1.5683 H   0  0  0  0  0  0  0  0  0  0  0  0
   67.6444   39.3419   -0.2438 H   0  0  0  0  0  0  0  0  0  0  0  0
   69.0400   37.4817    0.6664 H   0  0  0  0  0  0  0  0  0  0  0  0
   71.1560   36.6050    0.9340 H   0  0  0  0  0  0  0  0  0  0  0  0
   75.4080   40.3050   -1.4970 H   0  0  0  0  0  0  0  0  0  0  0  0
   74.0414   41.4086   -4.7094 H   0  0  0  0  0  0  0  0  0  0  0  0
   75.3640   44.2824   -6.7190 H   0  0  0  0  0  0  0  0  0  0  0  0
   73.1896   42.2920   -7.1726 H   0  0  0  0  0  0  0  0  0  0  0  0
   73.7554   43.6544   -8.1975 H   0  0  0  0  0  0  0  0  0  0  0  0
   74.6520   42.0979   -8.1975 H   0  0  0  0  0  0  0  0  0  0  0  0
   76.2785   42.2359   -5.0973 H   0  0  0  0  0  0  0  0  0  0  0  0
   75.9106   41.3791   -6.6326 H   0  0  0  0  0  0  0  0  0  0  0  0
   77.0373   42.7780   -6.6326 H   0  0  0  0  0  0  0  0  0  0  0  0
  1  2  1  0
  2  3  2  0
  3  4  1  0
  4  5  2  0
  5  6  1  0
  6  7  1  0
  7  8  1  0
  8  9  2  0
  9 10  1  0
 10 11  2  0
 11 12  1  0
 12 13  1  0
 12 14  2  0
 14 15  1  0
 15 16  2  0
 15 17  1  0
 17 18  1  0
  5 19  1  0
 19 20  2  0
 20 21  1  0
 21 22  1  0
 21 23  1  0
 20  2  1  0
 17  6  2  0
 14  8  1  0
  1 24  1  0
  1 25  1  0
  1 26  1  0
  3 27  1  0
  4 28  1  0
  9 29  1  0
 10 30  1  0
 11 31  1  0
 13 32  1  0
 18 33  1  0
 19 34  1  0
 21 35  1  0
 22 36  1  0
 22 37  1  0
 22 38  1  0
 23 39  1  0
 23 40  1  0
 23 41  1  0
M  END
>  <meeko>  (7) 
{"is_sidechain": [false], "free_energy": -7.802, "intermolecular_energy": -8.946, "internal_energy": -0.435}

$$$$
cand_009_out
     RDKit          3D

 41 43  0  0  0  0  0  0  0  0999 V2000
   72.2490   36.6160    0.0370 C   0  0  0  0  0  0  0  0  0  0  0  0
   72.0370   37.8770   -0.7550 C   0  0  0  0  0  0  0  0  0  0  0  0
   72.9980   38.2300   -1.7170 C   0  0  0  0  0  0  0  0  0  0  0  0
   72.8590   39.3890   -2.4830 C   0  0  0  0  0  0  0  0  0  0  0  0
   71.7590   40.2320   -2.3060 C   0  0  0  0  0  0  0  0  0  0  0  0
   71.6160   41.4410   -3.1440 C   0  0  0  0  0  0  0  0  0  0  0  0
   72.7020   42.3030   -3.0390 O   0  0  0  0  0  0  0  0  0  0  0  0
   72.7000   43.4660   -3.7670 C   0  0  0  0  0  0  0  0  0  0  0  0
   73.8170   44.2930   -3.6420 C   0  0  0  0  0  0  0  0  0  0  0  0
   73.8770   45.4930   -4.3540 C   0  0  0  0  0  0  0  0  0  0  0  0
   72.8210   45.8660   -5.1890 C   0  0  0  0  0  0  0  0  0  0  0  0
   71.7090   45.0380   -5.3110 C   0  0  0  0  0  0  0  0  0  0  0  0
   70.7100   45.4630   -6.1450 O   0  0  0  0  0  0  0  0  0  0  0  0
   71.6480   43.8370   -4.5990 C   0  0  0  0  0  0  0  0  0  0  0  0
   70.4980   42.9380   -4.7000 C   0  0  0  0  0  0  0  0  0  0  0  0
   69.5270   43.2000   -5.4070 O   0  0  0  0  0  0  0  0  0  0  0  0
   70.5360   41.6850   -3.9100 C   0  0  0  0  0  0  0  0  0  0  0  0
   69.4380   40.8510   -4.0020 O   0  0  0  0  0  0  0  0  0  0  0  0
   70.7940   39.8740   -1.3540 C   0  0  0  0  0  0  0  0  0  0  0  0
   70.9130   38.7080   -0.5640 C   0  0  0  0  0  0  0  0  0  0  0  0
   69.8310   38.3880    0.4610 C   0  0  0  0  0  0  0  0  0  0  0  0
   68.4680   38.9380    0.0280 C   0  0  0  0  0  0  0  0  0  0  0  0
   70.2070   38.8950    1.8570 C   0  0  0  0  0  0  0  0  0  0  0  0
   72.2101   36.8471    1.1117 H   0  0  0  0  0  0  0  0  0  0  0  0
   71.4602   35.8904   -0.2108 H   0  0  0  0  0  0  0  0  0  0  0  0
   73.2317   36.1882   -0.2108 H   0  0  0  0  0  0  0  0  0  0  0  0
   73.8743   37.5827   -1.8692 H   0  0  0  0  0  0  0  0  0  0  0  0
   73.6230   39.6409   -3.2332 H   0  0  0  0  0  0  0  0  0  0  0  0
   74.6485   44.0004   -2.9840 H   0  0  0  0  0  0  0  0  0  0  0  0
   74.7572   46.1455   -4.2571 H   0  0  0  0  0  0  0  0  0  0  0  0
   72.8682   46.8118   -5.7487 H   0  0  0  0  0  0  0  0  0  0  0  0
   70.3550   46.3250   -6.0480 H   0  0  0  0  0  0  0  0  0  0  0  0
   68.6510   41.1540   -4.4110 H   0  0  0  0  0  0  0  0  0  0  0  0
   69.9155   40.5218   -1.2174 H   0  0  0  0  0  0  0  0  0  0  0  0
   69.7510   37.2922    0.5144 H   0  0  0  0  0  0  0  0  0  0  0  0
   67.8701   39.1793    0.9192 H   0  0  0  0  0  0  0  0  0  0  0  0
   68.6138   39.8477   -0.5730 H   0  0  0  0  0  0  0  0  0  0  0  0
   67.9416   38.1819   -0.5730 H   0  0  0  0  0  0  0  0  0  0  0  0
   69.7341   38.2573    2.6184 H   0  0  0  0  0  0  0  0  0  0  0  0
   71.2999   38.8608    1.9775 H   0  0  0  0  0  0  0  0  0  0  0  0
   69.8570   39.9309    1.9775 H   0  0  0  0  0  0  0  0  0  0  0  0
  1  2  1  0
  2  3  2  0
  3  4  1  0
  4  5  2  0
  5  6  1  0
  6  7  1  0
  7  8  1  0
  8  9  2  0
  9 10  1  0
 10 11  2  0
 11 12  1  0
 12 13  1  0
 12 14  2  0
 14 15  1  0
 15 16  2  0
 15 17  1  0
 17 18  1  0
  5 19  1  0
 19 20  2  0
 20 21  1  0
 21 22  1  0
 21 23  1  0
 20  2  1  0
 17  6  2  0
 14  8  1  0
  1 24  1  0
  1 25  1  0
  1 26  1  0
  3 27  1  0
  4 28  1  0
  9 29  1  0
 10 30  1  0
 11 31  1  0
 13 32  1  0
 18 33  1  0
 19 34  1  0
 21 35  1  0
 22 36  1  0
 22 37  1  0
 22 38  1  0
 23 39  1  0
 23 40  1  0
 23 41  1  0
M  END
>  <meeko>  (8) 
{"is_sidechain": [false], "free_energy": -7.8, "intermolecular_energy": -9.002, "internal_energy": -0.376}

$$$$
cand_009_out
     RDKit          3D

 41 43  0  0  0  0  0  0  0  0999 V2000
   72.9000   45.6940   -6.2460 C   0  0  0  0  0  0  0  0  0  0  0  0
   72.7490   44.5650   -5.2630 C   0  0  0  0  0  0  0  0  0  0  0  0
   71.7880   43.5740   -5.5280 C   0  0  0  0  0  0  0  0  0  0  0  0
   71.5990   42.5020   -4.6530 C   0  0  0  0  0  0  0  0  0  0  0  0
   72.3600   42.3920   -3.4870 C   0  0  0  0  0  0  0  0  0  0  0  0
   72.1630   41.2360   -2.5860 C   0  0  0  0  0  0  0  0  0  0  0  0
   70.8620   41.1410   -2.1060 O   0  0  0  0  0  0  0  0  0  0  0  0
   70.5400   40.1120   -1.2590 C   0  0  0  0  0  0  0  0  0  0  0  0
   69.2190   40.0470   -0.8130 C   0  0  0  0  0  0  0  0  0  0  0  0
   68.8270   39.0240    0.0530 C   0  0  0  0  0  0  0  0  0  0  0  0
   69.7530   38.0670    0.4730 C   0  0  0  0  0  0  0  0  0  0  0  0
   71.0700   38.1350    0.0270 C   0  0  0  0  0  0  0  0  0  0  0  0
   71.9260   37.1680    0.4780 O   0  0  0  0  0  0  0  0  0  0  0  0
   71.4630   39.1590   -0.8400 C   0  0  0  0  0  0  0  0  0  0  0  0
   72.8370   39.2650   -1.3330 C   0  0  0  0  0  0  0  0  0  0  0  0
   73.7120   38.4680   -1.0020 O   0  0  0  0  0  0  0  0  0  0  0  0
   73.1500   40.3830   -2.2550 C   0  0  0  0  0  0  0  0  0  0  0  0
   74.4530   40.4810   -2.7030 O   0  0  0  0  0  0  0  0  0  0  0  0
   73.3260   43.3740   -3.2290 C   0  0  0  0  0  0  0  0  0  0  0  0
   73.5350   44.4700   -4.0960 C   0  0  0  0  0  0  0  0  0  0  0  0
   74.5960   45.5080   -3.7450 C   0  0  0  0  0  0  0  0  0  0  0  0
   75.7430   44.8870   -2.9400 C   0  0  0  0  0  0  0  0  0  0  0  0
   73.9930   46.7050   -3.0030 C   0  0  0  0  0  0  0  0  0  0  0  0
   73.0266   46.6407   -5.7004 H   0  0  0  0  0  0  0  0  0  0  0  0
   73.7821   45.5143   -6.8781 H   0  0  0  0  0  0  0  0  0  0  0  0
   72.0017   45.7524   -6.8781 H   0  0  0  0  0  0  0  0  0  0  0  0
   71.1752   43.6439   -6.4388 H   0  0  0  0  0  0  0  0  0  0  0  0
   70.8434   41.7368   -4.8844 H   0  0  0  0  0  0  0  0  0  0  0  0
   68.4882   40.8000   -1.1430 H   0  0  0  0  0  0  0  0  0  0  0  0
   67.7862   38.9720    0.4051 H   0  0  0  0  0  0  0  0  0  0  0  0
   69.4426   37.2613    1.1546 H   0  0  0  0  0  0  0  0  0  0  0  0
   71.9300   36.9330    1.3860 H   0  0  0  0  0  0  0  0  0  0  0  0
   74.9880   41.2030   -2.4360 H   0  0  0  0  0  0  0  0  0  0  0  0
   73.9419   43.2887   -2.3216 H   0  0  0  0  0  0  0  0  0  0  0  0
   75.0110   45.8786   -4.6939 H   0  0  0  0  0  0  0  0  0  0  0  0
   75.5384   44.9978   -1.8649 H   0  0  0  0  0  0  0  0  0  0  0  0
   75.8293   43.8190   -3.1887 H   0  0  0  0  0  0  0  0  0  0  0  0
   76.6845   45.3986   -3.1887 H   0  0  0  0  0  0  0  0  0  0  0  0
   74.0747   46.5429   -1.9181 H   0  0  0  0  0  0  0  0  0  0  0  0
   74.5378   47.6199   -3.2791 H   0  0  0  0  0  0  0  0  0  0  0  0
   72.9336   46.8117   -3.2791 H   0  0  0  0  0  0  0  0  0  0  0  0
  1  2  1  0
  2  3  2  0
  3  4  1  0
  4  5  2  0
  5  6  1  0
  6  7  1  0
  7  8  1  0
  8  9  2  0
  9 10  1  0
 10 11  2  0
 11 12  1  0
 12 13  1  0
 12 14  2  0
 14 15  1  0
 15 16  2  0
 15 17  1  0
 17 18  1  0
  5 19  1  0
 19 20  2  0
 20 21  1  0
 21 22  1  0
 21 23  1  0
 20  2  1  0
 17  6  2  0
 14  8  1  0
  1 24  1  0
  1 25  1  0
  1 26  1  0
  3 27  1  0
  4 28  1  0
  9 29  1  0
 10 30  1  0
 11 31  1  0
 13 32  1  0
 18 33  1  0
 19 34  1  0
 21 35  1  0
 22 36  1  0
 22 37  1  0
 22 38  1  0
 23 39  1  0
 23 40  1  0
 23 41  1  0
M  END
>  <meeko>  (9) 
{"is_sidechain": [false], "free_energy": -7.712, "intermolecular_energy": -8.88, "internal_energy": -0.396}

$$$$
