cand_038_out
     RDKit          3D

 47 49  0  0  0  0  0  0  0  0999 V2000
   69.9640   43.0540   -1.5480 C   0  0  0  0  0  0  0  0  0  0  0  0
   70.2730   41.9260   -0.5700 C   0  0  0  0  0  0  0  0  0  0  0  0
   71.3040   40.9570   -1.1130 C   0  0  0  0  0  0  0  0  0  0  0  0
   72.2240   41.5390   -2.0270 C   0  0  0  0  0  0  0  0  0  0  0  0
   73.2590   40.8180   -2.6260 C   0  0  0  0  0  0  0  0  0  0  0  0
   74.1940   41.4320   -3.5910 C   0  0  0  0  0  0  0  0  0  0  0  0
   73.5830   41.7690   -4.7950 O   0  0  0  0  0  0  0  0  0  0  0  0
   74.3370   42.3490   -5.7810 C   0  0  0  0  0  0  0  0  0  0  0  0
   73.6810   42.6830   -6.9670 C   0  0  0  0  0  0  0  0  0  0  0  0
   74.3910   43.2760   -8.0140 C   0  0  0  0  0  0  0  0  0  0  0  0
   75.7570   43.5330   -7.8750 C   0  0  0  0  0  0  0  0  0  0  0  0
   76.4100   43.1980   -6.6920 C   0  0  0  0  0  0  0  0  0  0  0  0
   77.7470   43.4770   -6.6240 O   0  0  0  0  0  0  0  0  0  0  0  0
   75.6980   42.6060   -5.6450 C   0  0  0  0  0  0  0  0  0  0  0  0
   76.3450   42.2380   -4.3840 C   0  0  0  0  0  0  0  0  0  0  0  0
   77.5450   42.4260   -4.1900 O   0  0  0  0  0  0  0  0  0  0  0  0
   75.5010   41.6230   -3.3340 C   0  0  0  0  0  0  0  0  0  0  0  0
   76.1260   41.2680   -2.1530 O   0  0  0  0  0  0  0  0  0  0  0  0
   73.3610   39.4670   -2.3150 C   0  0  0  0  0  0  0  0  0  0  0  0
   72.4640   38.8690   -1.4190 C   0  0  0  0  0  0  0  0  0  0  0  0
   71.4170   39.5800   -0.7840 C   0  0  0  0  0  0  0  0  0  0  0  0
   70.4720   38.8100    0.1810 C   0  0  0  0  0  0  0  0  0  0  0  0
   70.5750   39.2790    1.6630 C   0  0  0  0  0  0  0  0  0  0  0  0
   68.9820   39.0020   -0.1830 C   0  0  0  0  0  0  0  0  0  0  0  0
   70.8460   37.3120    0.1970 C   0  0  0  0  0  0  0  0  0  0  0  0
   69.7139   43.9669   -0.9876 H   0  0  0  0  0  0  0  0  0  0  0  0
   70.8438   43.2418   -2.1810 H   0  0  0  0  0  0  0  0  0  0  0  0
   69.1113   42.7672   -2.1810 H   0  0  0  0  0  0  0  0  0  0  0  0
   70.6563   42.3631    0.3638 H   0  0  0  0  0  0  0  0  0  0  0  0
   69.3422   41.3650   -0.4000 H   0  0  0  0  0  0  0  0  0  0  0  0
   72.1157   42.6055   -2.2736 H   0  0  0  0  0  0  0  0  0  0  0  0
   72.6056   42.4794   -7.0772 H   0  0  0  0  0  0  0  0  0  0  0  0
   73.8741   43.5406   -8.9482 H   0  0  0  0  0  0  0  0  0  0  0  0
   76.3161   43.9996   -8.6994 H   0  0  0  0  0  0  0  0  0  0  0  0
   78.2840   43.3850   -7.3860 H   0  0  0  0  0  0  0  0  0  0  0  0
   77.0290   41.0150   -2.1580 H   0  0  0  0  0  0  0  0  0  0  0  0
   74.1541   38.8607   -2.7769 H   0  0  0  0  0  0  0  0  0  0  0  0
   72.5788   37.7974   -1.1989 H   0  0  0  0  0  0  0  0  0  0  0  0
   70.3876   38.4258    2.3315 H   0  0  0  0  0  0  0  0  0  0  0  0
   71.5823   39.6786    1.8520 H   0  0  0  0  0  0  0  0  0  0  0  0
   69.8278   40.0639    1.8520 H   0  0  0  0  0  0  0  0  0  0  0  0
   68.3864   39.0788    0.7386 H   0  0  0  0  0  0  0  0  0  0  0  0
   68.8645   39.9227   -0.7733 H   0  0  0  0  0  0  0  0  0  0  0  0
   68.6349   38.1412   -0.7733 H   0  0  0  0  0  0  0  0  0  0  0  0
   70.9322   36.9667    1.2378 H   0  0  0  0  0  0  0  0  0  0  0  0
   70.0647   36.7335   -0.3177 H   0  0  0  0  0  0  0  0  0  0  0  0
   71.8075   37.1686   -0.3177 H   0  0  0  0  0  0  0  0  0  0  0  0
  1  2  1  0
  2  3  1  0
  3  4  2  0
  4  5  1  0
  5  6  1  0
  6  7  1  0
  7  8  1  0
  8  9  2  0
  9 10  1  0
 10 11  2  0
 11 12  1  0
 12 13  1  0
 12 14  2  0
 14 15  1  0
 15 16  2  0
 15 17  1  0
 17 18  1  0
  5 19  2  0
 19 20  1  0
 20 21  2  0
 21 22  1  0
 22 23  1  0
 22 24  1  0
 22 25  1  0
 21  3  1  0
 17  6  2  0
 14  8  1  0
  1 26  1  0
  1 27  1  0
  1 28  1  0
  2 29  1  0
  2 30  1  0
  4 31  1  0
  9 32  1  0
 10 33  1  0
 11 34  1  0
 13 35  1  0
 18 36  1  0
 19 37  1  0
 20 38  1  0
 23 39  1  0
 23 40  1  0
 23 41  1  0
 24 42  1  0
 24 43  1  0
 24 44  1  0
 25 45  1  0
 25 46  1  0
 25 47  1  0
M  END
>  <meeko>  (1) 
{"is_sidechain": [false], "free_energy": -7.882, "intermolecular_energy": -9.725, "internal_energy": -0.446}

$$$$
cand_038_out
     RDKit          3D

 47 49  0  0  0  0  0  0  0  0999 V2000
   76.3330   42.6970   -1.7190 C   0  0  0  0  0  0  0  0  0  0  0  0
   75.6510   43.5720   -2.7660 C   0  0  0  0  0  0  0  0  0  0  0  0
   74.5300   42.8470   -3.4830 C   0  0  0  0  0  0  0  0  0  0  0  0
   73.7050   42.0640   -2.6300 C   0  0  0  0  0  0  0  0  0  0  0  0
   72.6100   41.3330   -3.0950 C   0  0  0  0  0  0  0  0  0  0  0  0
   71.7750   40.5060   -2.1990 C   0  0  0  0  0  0  0  0  0  0  0  0
   72.4840   39.4660   -1.6080 O   0  0  0  0  0  0  0  0  0  0  0  0
   71.8300   38.6210   -0.7500 C   0  0  0  0  0  0  0  0  0  0  0  0
   72.5830   37.6000   -0.1680 C   0  0  0  0  0  0  0  0  0  0  0  0
   71.9770   36.7020    0.7130 C   0  0  0  0  0  0  0  0  0  0  0  0
   70.6180   36.8240    1.0120 C   0  0  0  0  0  0  0  0  0  0  0  0
   69.8680   37.8420    0.4290 C   0  0  0  0  0  0  0  0  0  0  0  0
   68.5430   37.9030    0.7640 O   0  0  0  0  0  0  0  0  0  0  0  0
   70.4760   38.7410   -0.4520 C   0  0  0  0  0  0  0  0  0  0  0  0
   69.7250   39.8260   -1.0860 C   0  0  0  0  0  0  0  0  0  0  0  0
   68.5240   39.9930   -0.8790 O   0  0  0  0  0  0  0  0  0  0  0  0
   70.4630   40.7290   -1.9980 C   0  0  0  0  0  0  0  0  0  0  0  0
   69.7400   41.7420   -2.6020 O   0  0  0  0  0  0  0  0  0  0  0  0
   72.3470   41.3710   -4.4600 C   0  0  0  0  0  0  0  0  0  0  0  0
   73.1480   42.1330   -5.3210 C   0  0  0  0  0  0  0  0  0  0  0  0
   74.2530   42.8980   -4.8750 C   0  0  0  0  0  0  0  0  0  0  0  0
   75.0810   43.6930   -5.9240 C   0  0  0  0  0  0  0  0  0  0  0  0
   74.5670   43.5230   -7.3840 C   0  0  0  0  0  0  0  0  0  0  0  0
   75.0340   45.2180   -5.6720 C   0  0  0  0  0  0  0  0  0  0  0  0
   76.5380   43.1830   -5.9380 C   0  0  0  0  0  0  0  0  0  0  0  0
   76.0593   43.0481   -0.7131 H   0  0  0  0  0  0  0  0  0  0  0  0
   76.0073   41.6538   -1.8445 H   0  0  0  0  0  0  0  0  0  0  0  0
   77.4241   42.7581   -1.8445 H   0  0  0  0  0  0  0  0  0  0  0  0
   75.2354   44.4603   -2.2677 H   0  0  0  0  0  0  0  0  0  0  0  0
   76.4064   43.8475   -3.5166 H   0  0  0  0  0  0  0  0  0  0  0  0
   73.9398   42.0327   -1.5558 H   0  0  0  0  0  0  0  0  0  0  0  0
   73.6532   37.5028   -0.4032 H   0  0  0  0  0  0  0  0  0  0  0  0
   72.5705   35.8976    1.1721 H   0  0  0  0  0  0  0  0  0  0  0  0
   70.1411   36.1171    1.7068 H   0  0  0  0  0  0  0  0  0  0  0  0
   68.2800   38.3250    1.5580 H   0  0  0  0  0  0  0  0  0  0  0  0
   70.1850   42.4820   -2.9650 H   0  0  0  0  0  0  0  0  0  0  0  0
   71.5018   40.7972   -4.8679 H   0  0  0  0  0  0  0  0  0  0  0  0
   72.9070   42.1371   -6.3943 H   0  0  0  0  0  0  0  0  0  0  0  0
   73.5228   43.1776   -7.3672 H   0  0  0  0  0  0  0  0  0  0  0  0
   74.6255   44.4884   -7.9081 H   0  0  0  0  0  0  0  0  0  0  0  0
   75.1896   42.7829   -7.9081 H   0  0  0  0  0  0  0  0  0  0  0  0
   75.0281   45.4107   -4.5890 H   0  0  0  0  0  0  0  0  0  0  0  0
   75.9180   45.6917   -6.1239 H   0  0  0  0  0  0  0  0  0  0  0  0
   74.1225   45.6364   -6.1239 H   0  0  0  0  0  0  0  0  0  0  0  0
   76.8929   43.0588   -4.9043 H   0  0  0  0  0  0  0  0  0  0  0  0
   76.5829   42.2157   -6.4598 H   0  0  0  0  0  0  0  0  0  0  0  0
   77.1764   43.9111   -6.4598 H   0  0  0  0  0  0  0  0  0  0  0  0
  1  2  1  0
  2  3  1  0
  3  4  2  0
  4  5  1  0
  5  6  1  0
  6  7  1  0
  7  8  1  0
  8  9  2  0
  9 10  1  0
 10 11  2  0
 11 12  1  0
 12 13  1  0
 12 14  2  0
 14 15  1  0
 15 16  2  0
 15 17  1  0
 17 18  1  0
  5 19  2  0
 19 20  1  0
 20 21  2  0
 21 22  1  0
 22 23  1  0
 22 24  1  0
 22 25  1  0
 21  3  1  0
 17  6  2  0
 14  8  1  0
  1 26  1  0
  1 27  1  0
  1 28  1  0
  2 29  1  0
  2 30  1  0
  4 31  1  0
  9 32  1  0
 10 33  1  0
 11 34  1  0
 13 35  1  0
 18 36  1  0
 19 37  1  0
 20 38  1  0
 23 39  1  0
 23 40  1  0
 23 41  1  0
 24 42  1  0
 24 43  1  0
 24 44  1  0
 25 45  1  0
 25 46  1  0
 25 47  1  0
M  END
>  <meeko>  (2) 
{"is_sidechain": [false], "free_energy": -7.829, "intermolecular_energy": -9.656, "internal_energy": -0.45}

$$$$
cand_038_out
     RDKit          3D

 47 49  0  0  0  0  0  0  0  0999 V2000
   76.4010   42.7230   -1.5590 C   0  0  0  0  0  0  0  0  0  0  0  0
   75.8350   43.5580   -2.7030 C   0  0  0  0  0  0  0  0  0  0  0  0
   74.7000   42.8580   -3.4220 C   0  0  0  0  0  0  0  0  0  0  0  0
   73.9030   42.0310   -2.5840 C   0  0  0  0  0  0  0  0  0  0  0  0
   72.8000   41.3140   -3.0520 C   0  0  0  0  0  0  0  0  0  0  0  0
   71.9950   40.4410   -2.1730 C   0  0  0  0  0  0  0  0  0  0  0  0
   70.6480   40.7880   -2.1530 O   0  0  0  0  0  0  0  0  0  0  0  0
   69.7870   40.0580   -1.3770 C   0  0  0  0  0  0  0  0  0  0  0  0
   68.4420   40.4320   -1.3980 C   0  0  0  0  0  0  0  0  0  0  0  0
   67.5110   39.7310   -0.6280 C   0  0  0  0  0  0  0  0  0  0  0  0
   67.9240   38.6570    0.1640 C   0  0  0  0  0  0  0  0  0  0  0  0
   69.2670   38.2870    0.1840 C   0  0  0  0  0  0  0  0  0  0  0  0
   69.6020   37.2270    0.9820 O   0  0  0  0  0  0  0  0  0  0  0  0
   70.1970   38.9880   -0.5870 C   0  0  0  0  0  0  0  0  0  0  0  0
   71.6170   38.6320   -0.5950 C   0  0  0  0  0  0  0  0  0  0  0  0
   72.0580   37.7040    0.0810 O   0  0  0  0  0  0  0  0  0  0  0  0
   72.5200   39.4320   -1.4530 C   0  0  0  0  0  0  0  0  0  0  0  0
   73.8610   39.0950   -1.4420 O   0  0  0  0  0  0  0  0  0  0  0  0
   72.5000   41.4130   -4.4060 C   0  0  0  0  0  0  0  0  0  0  0  0
   73.2720   42.2190   -5.2530 C   0  0  0  0  0  0  0  0  0  0  0  0
   74.3850   42.9710   -4.8020 C   0  0  0  0  0  0  0  0  0  0  0  0
   75.1780   43.8190   -5.8350 C   0  0  0  0  0  0  0  0  0  0  0  0
   74.6110   43.7320   -7.2830 C   0  0  0  0  0  0  0  0  0  0  0  0
   75.1500   45.3270   -5.4980 C   0  0  0  0  0  0  0  0  0  0  0  0
   76.6310   43.3050   -5.9310 C   0  0  0  0  0  0  0  0  0  0  0  0
   76.1006   43.1662   -0.5981 H   0  0  0  0  0  0  0  0  0  0  0  0
   76.0119   41.6964   -1.6269 H   0  0  0  0  0  0  0  0  0  0  0  0
   77.4987   42.7043   -1.6269 H   0  0  0  0  0  0  0  0  0  0  0  0
   75.4618   44.5090   -2.2952 H   0  0  0  0  0  0  0  0  0  0  0  0
   76.6433   43.7213   -3.4310 H   0  0  0  0  0  0  0  0  0  0  0  0
   74.1672   41.9525   -1.5191 H   0  0  0  0  0  0  0  0  0  0  0  0
   68.1157   41.2782   -2.0205 H   0  0  0  0  0  0  0  0  0  0  0  0
   66.4512   40.0251   -0.6453 H   0  0  0  0  0  0  0  0  0  0  0  0
   67.1908   38.1049    0.7703 H   0  0  0  0  0  0  0  0  0  0  0  0
   69.9890   37.3780    1.8220 H   0  0  0  0  0  0  0  0  0  0  0  0
   74.4870   39.6510   -1.8630 H   0  0  0  0  0  0  0  0  0  0  0  0
   71.6473   40.8524   -4.8167 H   0  0  0  0  0  0  0  0  0  0  0  0
   73.0014   42.2704   -6.3180 H   0  0  0  0  0  0  0  0  0  0  0  0
   73.5245   43.5653   -7.2419 H   0  0  0  0  0  0  0  0  0  0  0  0
   74.8178   44.6724   -7.8149 H   0  0  0  0  0  0  0  0  0  0  0  0
   75.0903   42.8969   -7.8149 H   0  0  0  0  0  0  0  0  0  0  0  0
   75.1476   45.4587   -4.4059 H   0  0  0  0  0  0  0  0  0  0  0  0
   76.0392   45.8145   -5.9241 H   0  0  0  0  0  0  0  0  0  0  0  0
   74.2433   45.7812   -5.9241 H   0  0  0  0  0  0  0  0  0  0  0  0
   77.0368   43.1615   -4.9187 H   0  0  0  0  0  0  0  0  0  0  0  0
   76.6461   42.3470   -6.4713 H   0  0  0  0  0  0  0  0  0  0  0  0
   77.2451   44.0404   -6.4713 H   0  0  0  0  0  0  0  0  0  0  0  0
  1  2  1  0
  2  3  1  0
  3  4  2  0
  4  5  1  0
  5  6  1  0
  6  7  1  0
  7  8  1  0
  8  9  2  0
  9 10  1  0
 10 11  2  0
 11 12  1  0
 12 13  1  0
 12 14  2  0
 14 15  1  0
 15 16  2  0
 15 17  1  0
 17 18  1  0
  5 19  2  0
 19 20  1  0
 20 21  2  0
 21 22  1  0
 22 23  1  0
 22 24  1  0
 22 25  1  0
 21  3  1  0
 17  6  2  0
 14  8  1  0
  1 26  1  0
  1 27  1  0
  1 28  1  0
  2 29  1  0
  2 30  1  0
  4 31  1  0
  9 32  1  0
 10 33  1  0
 11 34  1  0
 13 35  1  0
 18 36  1  0
 19 37  1  0
 20 38  1  0
 23 39  1  0
 23 40  1  0
 23 41  1  0
 24 42  1  0
 24 43  1  0
 24 44  1  0
 25 45  1  0
 25 46  1  0
 25 47  1  0
M  END
>  <meeko>  (3) 
{"is_sidechain": [false], "free_energy": -7.816, "intermolecular_energy": -9.711, "internal_energy": -0.379}

$$$$
cand_038_out
     RDKit          3D

 47 49  0  0  0  0  0  0  0  0999 V2000
   76.1120   42.3940   -1.7700 C   0  0  0  0  0  0  0  0  0  0  0  0
   75.3900   43.4970   -2.5370 C   0  0  0  0  0  0  0  0  0  0  0  0
   74.4030   42.9460   -3.5460 C   0  0  0  0  0  0  0  0  0  0  0  0
   73.1870   42.4810   -2.9750 C   0  0  0  0  0  0  0  0  0  0  0  0
   72.1430   41.9520   -3.7380 C   0  0  0  0  0  0  0  0  0  0  0  0
   70.8940   41.4520   -3.1270 C   0  0  0  0  0  0  0  0  0  0  0  0
   71.1220   40.5620   -2.0830 O   0  0  0  0  0  0  0  0  0  0  0  0
   70.0470   40.0220   -1.4260 C   0  0  0  0  0  0  0  0  0  0  0  0
   70.3220   39.1450   -0.3760 C   0  0  0  0  0  0  0  0  0  0  0  0
   69.2730   38.5570    0.3340 C   0  0  0  0  0  0  0  0  0  0  0  0
   67.9490   38.8450   -0.0060 C   0  0  0  0  0  0  0  0  0  0  0  0
   67.6780   39.7200   -1.0560 C   0  0  0  0  0  0  0  0  0  0  0  0
   66.3600   39.9560   -1.3360 O   0  0  0  0  0  0  0  0  0  0  0  0
   68.7280   40.3080   -1.7650 C   0  0  0  0  0  0  0  0  0  0  0  0
   68.4870   41.2320   -2.8740 C   0  0  0  0  0  0  0  0  0  0  0  0
   67.3500   41.5290   -3.2380 O   0  0  0  0  0  0  0  0  0  0  0  0
   69.6680   41.8080   -3.5560 C   0  0  0  0  0  0  0  0  0  0  0  0
   69.4280   42.6700   -4.6110 O   0  0  0  0  0  0  0  0  0  0  0  0
   72.3340   41.8680   -5.1130 C   0  0  0  0  0  0  0  0  0  0  0  0
   73.5240   42.3170   -5.6990 C   0  0  0  0  0  0  0  0  0  0  0  0
   74.5920   42.8740   -4.9520 C   0  0  0  0  0  0  0  0  0  0  0  0
   75.8730   43.3250   -5.7070 C   0  0  0  0  0  0  0  0  0  0  0  0
   75.7180   43.3240   -7.2570 C   0  0  0  0  0  0  0  0  0  0  0  0
   76.2770   44.7760   -5.3590 C   0  0  0  0  0  0  0  0  0  0  0  0
   77.0300   42.3470   -5.4090 C   0  0  0  0  0  0  0  0  0  0  0  0
   75.9999   42.5652   -0.6892 H   0  0  0  0  0  0  0  0  0  0  0  0
   75.6769   41.4187   -2.0338 H   0  0  0  0  0  0  0  0  0  0  0  0
   77.1799   42.4025   -2.0338 H   0  0  0  0  0  0  0  0  0  0  0  0
   74.8463   44.1290   -1.8194 H   0  0  0  0  0  0  0  0  0  0  0  0
   76.1472   44.0740   -3.0882 H   0  0  0  0  0  0  0  0  0  0  0  0
   73.0625   42.5403   -1.8837 H   0  0  0  0  0  0  0  0  0  0  0  0
   71.3642   38.9170   -0.1078 H   0  0  0  0  0  0  0  0  0  0  0  0
   69.4896   37.8661    1.1621 H   0  0  0  0  0  0  0  0  0  0  0  0
   67.1227   38.3823    0.5536 H   0  0  0  0  0  0  0  0  0  0  0  0
   65.7390   40.0320   -0.6390 H   0  0  0  0  0  0  0  0  0  0  0  0
   70.1020   42.8400   -5.2390 H   0  0  0  0  0  0  0  0  0  0  0  0
   71.5415   41.4442   -5.7473 H   0  0  0  0  0  0  0  0  0  0  0  0
   73.6351   42.2335   -6.7902 H   0  0  0  0  0  0  0  0  0  0  0  0
   74.6496   43.3171   -7.5186 H   0  0  0  0  0  0  0  0  0  0  0  0
   76.1917   44.2252   -7.6734 H   0  0  0  0  0  0  0  0  0  0  0  0
   76.2033   42.4290   -7.6734 H   0  0  0  0  0  0  0  0  0  0  0  0
   76.3102   44.8953   -4.2660 H   0  0  0  0  0  0  0  0  0  0  0  0
   77.2694   44.9917   -5.7817 H   0  0  0  0  0  0  0  0  0  0  0  0
   75.5389   45.4735   -5.7817 H   0  0  0  0  0  0  0  0  0  0  0  0
   77.1519   42.2440   -4.3206 H   0  0  0  0  0  0  0  0  0  0  0  0
   76.8014   41.3642   -5.8470 H   0  0  0  0  0  0  0  0  0  0  0  0
   77.9610   42.7361   -5.8470 H   0  0  0  0  0  0  0  0  0  0  0  0
  1  2  1  0
  2  3  1  0
  3  4  2  0
  4  5  1  0
  5  6  1  0
  6  7  1  0
  7  8  1  0
  8  9  2  0
  9 10  1  0
 10 11  2  0
 11 12  1  0
 12 13  1  0
 12 14  2  0
 14 15  1  0
 15 16  2  0
 15 17  1  0
 17 18  1  0
  5 19  2  0
 19 20  1  0
 20 21  2  0
 21 22  1  0
 22 23  1  0
 22 24  1  0
 22 25  1  0
 21  3  1  0
 17  6  2  0
 14  8  1  0
  1 26  1  0
  1 27  1  0
  1 28  1  0
  2 29  1  0
  2 30  1  0
  4 31  1  0
  9 32  1  0
 10 33  1  0
 11 34  1  0
 13 35  1  0
 18 36  1  0
 19 37  1  0
 20 38  1  0
 23 39  1  0
 23 40  1  0
 23 41  1  0
 24 42  1  0
 24 43  1  0
 24 44  1  0
 25 45  1  0
 25 46  1  0
 25 47  1  0
M  END
>  <meeko>  (4) 
{"is_sidechain": [false], "free_energy": -7.802, "intermolecular_energy": -9.715, "internal_energy": -0.357}

$$$$
cand_038_out
     RDKit          3D

 47 49  0  0  0  0  0  0  0  0999 V2000
   73.7220   42.7100   -6.5110 C   0  0  0  0  0  0  0  0  0  0  0  0
   75.1360   42.3460   -6.0710 C   0  0  0  0  0  0  0  0  0  0  0  0
   75.2750   42.2900   -4.5630 C   0  0  0  0  0  0  0  0  0  0  0  0
   74.2070   41.6190   -3.9060 C   0  0  0  0  0  0  0  0  0  0  0  0
   74.1570   41.4470   -2.5210 C   0  0  0  0  0  0  0  0  0  0  0  0
   73.0290   40.7660   -1.8510 C   0  0  0  0  0  0  0  0  0  0  0  0
   73.3780   39.5220   -1.3360 O   0  0  0  0  0  0  0  0  0  0  0  0
   72.4250   38.7820   -0.6870 C   0  0  0  0  0  0  0  0  0  0  0  0
   72.8220   37.5460   -0.1730 C   0  0  0  0  0  0  0  0  0  0  0  0
   71.9000   36.7410    0.4980 C   0  0  0  0  0  0  0  0  0  0  0  0
   70.5800   37.1700    0.6550 C   0  0  0  0  0  0  0  0  0  0  0  0
   70.1850   38.4020    0.1400 C   0  0  0  0  0  0  0  0  0  0  0  0
   68.8780   38.7600    0.3280 O   0  0  0  0  0  0  0  0  0  0  0  0
   71.1090   39.2080   -0.5300 C   0  0  0  0  0  0  0  0  0  0  0  0
   70.7370   40.5100   -1.0850 C   0  0  0  0  0  0  0  0  0  0  0  0
   69.5930   40.9530   -0.9950 O   0  0  0  0  0  0  0  0  0  0  0  0
   71.7920   41.2900   -1.7710 C   0  0  0  0  0  0  0  0  0  0  0  0
   71.4250   42.5130   -2.3030 O   0  0  0  0  0  0  0  0  0  0  0  0
   75.1970   41.9830   -1.7710 C   0  0  0  0  0  0  0  0  0  0  0  0
   76.2580   42.6520   -2.3950 C   0  0  0  0  0  0  0  0  0  0  0  0
   76.3450   42.8250   -3.7980 C   0  0  0  0  0  0  0  0  0  0  0  0
   77.5620   43.5970   -4.3800 C   0  0  0  0  0  0  0  0  0  0  0  0
   77.1700   44.9030   -5.1330 C   0  0  0  0  0  0  0  0  0  0  0  0
   78.5400   44.0640   -3.2770 C   0  0  0  0  0  0  0  0  0  0  0  0
   78.2880   42.7220   -5.4240 C   0  0  0  0  0  0  0  0  0  0  0  0
   73.0922   42.8721   -5.6238 H   0  0  0  0  0  0  0  0  0  0  0  0
   73.7508   43.6300   -7.1133 H   0  0  0  0  0  0  0  0  0  0  0  0
   73.3030   41.8904   -7.1133 H   0  0  0  0  0  0  0  0  0  0  0  0
   75.3925   41.3602   -6.4863 H   0  0  0  0  0  0  0  0  0  0  0  0
   75.8146   43.1284   -6.4417 H   0  0  0  0  0  0  0  0  0  0  0  0
   73.3840   41.2178   -4.5156 H   0  0  0  0  0  0  0  0  0  0  0  0
   73.8610   37.2067   -0.2968 H   0  0  0  0  0  0  0  0  0  0  0  0
   72.2133   35.7677    0.9036 H   0  0  0  0  0  0  0  0  0  0  0  0
   69.8538   36.5358    1.1845 H   0  0  0  0  0  0  0  0  0  0  0  0
   68.2810   38.7460   -0.3930 H   0  0  0  0  0  0  0  0  0  0  0  0
   71.4100   42.6330   -3.2330 H   0  0  0  0  0  0  0  0  0  0  0  0
   75.1870   41.8809   -0.6758 H   0  0  0  0  0  0  0  0  0  0  0  0
   77.0614   43.0623   -1.7656 H   0  0  0  0  0  0  0  0  0  0  0  0
   76.9336   45.6906   -4.4024 H   0  0  0  0  0  0  0  0  0  0  0  0
   78.0100   45.2285   -5.7642 H   0  0  0  0  0  0  0  0  0  0  0  0
   76.2896   44.7121   -5.7642 H   0  0  0  0  0  0  0  0  0  0  0  0
   78.1043   43.8560   -2.2886 H   0  0  0  0  0  0  0  0  0  0  0  0
   79.4927   43.5236   -3.3789 H   0  0  0  0  0  0  0  0  0  0  0  0
   78.7187   45.1446   -3.3789 H   0  0  0  0  0  0  0  0  0  0  0  0
   78.9084   41.9743   -4.9081 H   0  0  0  0  0  0  0  0  0  0  0  0
   77.5453   42.2106   -6.0539 H   0  0  0  0  0  0  0  0  0  0  0  0
   78.9277   43.3576   -6.0539 H   0  0  0  0  0  0  0  0  0  0  0  0
  1  2  1  0
  2  3  1  0
  3  4  2  0
  4  5  1  0
  5  6  1  0
  6  7  1  0
  7  8  1  0
  8  9  2  0
  9 10  1  0
 10 11  2  0
 11 12  1  0
 12 13  1  0
 12 14  2  0
 14 15  1  0
 15 16  2  0
 15 17  1  0
 17 18  1  0
  5 19  2  0
 19 20  1  0
 20 21  2  0
 21 22  1  0
 22 23  1  0
 22 24  1  0
 22 25  1  0
 21  3  1  0
 17  6  2  0
 14  8  1  0
  1 26  1  0
  1 27  1  0
  1 28  1  0
  2 29  1  0
  2 30  1  0
  4 31  1  0
  9 32  1  0
 10 33  1  0
 11 34  1  0
 13 35  1  0
 18 36  1  0
 19 37  1  0
 20 38  1  0
 23 39  1  0
 23 40  1  0
 23 41  1  0
 24 42  1  0
 24 43  1  0
 24 44  1  0
 25 45  1  0
 25 46  1  0
 25 47  1  0
M  END
>  <meeko>  (5) 
{"is_sidechain": [false], "free_energy": -7.52, "intermolecular_energy": -9.279, "internal_energy": -0.445}

$$$$
cand_038_out
     RDKit          3D

 47 49  0  0  0  0  0  0  0  0999 V2000
   72.1430   43.8990   -5.8390 C   0  0  0  0  0  0  0  0  0  0  0  0
   73.2540   42.8670   -6.0000 C   0  0  0  0  0  0  0  0  0  0  0  0
   73.8290   42.4260   -4.6700 C   0  0  0  0  0  0  0  0  0  0  0  0
   72.9560   41.6060   -3.9030 C   0  0  0  0  0  0  0  0  0  0  0  0
   73.3060   41.0840   -2.6560 C   0  0  0  0  0  0  0  0  0  0  0  0
   72.3790   40.2510   -1.8610 C   0  0  0  0  0  0  0  0  0  0  0  0
   71.0600   40.6870   -1.9380 O   0  0  0  0  0  0  0  0  0  0  0  0
   70.0950   40.0030   -1.2470 C   0  0  0  0  0  0  0  0  0  0  0  0
   68.7830   40.4660   -1.3640 C   0  0  0  0  0  0  0  0  0  0  0  0
   67.7510   39.8160   -0.6850 C   0  0  0  0  0  0  0  0  0  0  0  0
   68.0290   38.7030    0.1120 C   0  0  0  0  0  0  0  0  0  0  0  0
   69.3380   38.2430    0.2280 C   0  0  0  0  0  0  0  0  0  0  0  0
   69.5400   37.1500    1.0250 O   0  0  0  0  0  0  0  0  0  0  0  0
   70.3710   38.8940   -0.4530 C   0  0  0  0  0  0  0  0  0  0  0  0
   71.7600   38.4430   -0.3590 C   0  0  0  0  0  0  0  0  0  0  0  0
   72.0860   37.4770    0.3280 O   0  0  0  0  0  0  0  0  0  0  0  0
   72.7790   39.1970   -1.1260 C   0  0  0  0  0  0  0  0  0  0  0  0
   74.0900   38.7700   -1.0180 O   0  0  0  0  0  0  0  0  0  0  0  0
   74.5600   41.4110   -2.1530 C   0  0  0  0  0  0  0  0  0  0  0  0
   75.4360   42.2200   -2.8880 C   0  0  0  0  0  0  0  0  0  0  0  0
   75.1160   42.7480   -4.1620 C   0  0  0  0  0  0  0  0  0  0  0  0
   76.1610   43.6470   -4.8810 C   0  0  0  0  0  0  0  0  0  0  0  0
   76.4830   43.1910   -6.3340 C   0  0  0  0  0  0  0  0  0  0  0  0
   75.6730   45.1060   -5.0320 C   0  0  0  0  0  0  0  0  0  0  0  0
   77.5060   43.5940   -4.1250 C   0  0  0  0  0  0  0  0  0  0  0  0
   71.9561   44.0726   -4.7690 H   0  0  0  0  0  0  0  0  0  0  0  0
   72.4470   44.8425   -6.3159 H   0  0  0  0  0  0  0  0  0  0  0  0
   71.2245   43.5264   -6.3159 H   0  0  0  0  0  0  0  0  0  0  0  0
   72.8460   41.9865   -6.5179 H   0  0  0  0  0  0  0  0  0  0  0  0
   74.0650   43.3344   -6.5778 H   0  0  0  0  0  0  0  0  0  0  0  0
   71.9611   41.3727   -4.3101 H   0  0  0  0  0  0  0  0  0  0  0  0
   68.5627   41.3426   -1.9910 H   0  0  0  0  0  0  0  0  0  0  0  0
   66.7174   40.1808   -0.7777 H   0  0  0  0  0  0  0  0  0  0  0  0
   67.2155   38.1910    0.6468 H   0  0  0  0  0  0  0  0  0  0  0  0
   70.2920   37.1090    1.5810 H   0  0  0  0  0  0  0  0  0  0  0  0
   74.5510   38.4800   -1.7810 H   0  0  0  0  0  0  0  0  0  0  0  0
   74.8675   41.0306   -1.1677 H   0  0  0  0  0  0  0  0  0  0  0  0
   76.4191   42.4562   -2.4548 H   0  0  0  0  0  0  0  0  0  0  0  0
   77.1173   42.2928   -6.3043 H   0  0  0  0  0  0  0  0  0  0  0  0
   75.5460   42.9609   -6.8622 H   0  0  0  0  0  0  0  0  0  0  0  0
   77.0133   43.9971   -6.8622 H   0  0  0  0  0  0  0  0  0  0  0  0
   75.5251   45.5481   -4.0357 H   0  0  0  0  0  0  0  0  0  0  0  0
   76.4251   45.6889   -5.5839 H   0  0  0  0  0  0  0  0  0  0  0  0
   74.7215   45.1191   -5.5839 H   0  0  0  0  0  0  0  0  0  0  0  0
   77.3180   43.6014   -3.0412 H   0  0  0  0  0  0  0  0  0  0  0  0
   78.0438   42.6740   -4.3976 H   0  0  0  0  0  0  0  0  0  0  0  0
   78.1145   44.4689   -4.3976 H   0  0  0  0  0  0  0  0  0  0  0  0
  1  2  1  0
  2  3  1  0
  3  4  2  0
  4  5  1  0
  5  6  1  0
  6  7  1  0
  7  8  1  0
  8  9  2  0
  9 10  1  0
 10 11  2  0
 11 12  1  0
 12 13  1  0
 12 14  2  0
 14 15  1  0
 15 16  2  0
 15 17  1  0
 17 18  1  0
  5 19  2  0
 19 20  1  0
 20 21  2  0
 21 22  1  0
 22 23  1  0
 22 24  1  0
 22 25  1  0
 21  3  1  0
 17  6  2  0
 14  8  1  0
  1 26  1  0
  1 27  1  0
  1 28  1  0
  2 29  1  0
  2 30  1  0
  4 31  1  0
  9 32  1  0
 10 33  1  0
 11 34  1  0
 13 35  1  0
 18 36  1  0
 19 37  1  0
 20 38  1  0
 23 39  1  0
 23 40  1  0
 23 41  1  0
 24 42  1  0
 24 43  1  0
 24 44  1  0
 25 45  1  0
 25 46  1  0
 25 47  1  0
M  END
>  <meeko>  (6) 
{"is_sidechain": [false], "free_energy": -7.371, "intermolecular_energy": -9.334, "internal_energy": -0.207}

$$$$
cand_038_out
     RDKit          3D

 47 49  0  0  0  0  0  0  0  0999 V2000
   69.7310   42.9160   -0.7780 C   0  0  0  0  0  0  0  0  0  0  0  0
   69.6870   41.4090   -0.5480 C   0  0  0  0  0  0  0  0  0  0  0  0
   70.9920   40.7310   -0.9100 C   0  0  0  0  0  0  0  0  0  0  0  0
   71.8270   41.4980   -1.7690 C   0  0  0  0  0  0  0  0  0  0  0  0
   73.0780   41.0560   -2.2040 C   0  0  0  0  0  0  0  0  0  0  0  0
   73.9240   41.8560   -3.1150 C   0  0  0  0  0  0  0  0  0  0  0  0
   74.9220   42.5580   -2.4470 O   0  0  0  0  0  0  0  0  0  0  0  0
   75.7800   43.3410   -3.1740 C   0  0  0  0  0  0  0  0  0  0  0  0
   76.7750   44.0170   -2.4650 C   0  0  0  0  0  0  0  0  0  0  0  0
   77.6820   44.8340   -3.1440 C   0  0  0  0  0  0  0  0  0  0  0  0
   77.5940   44.9760   -4.5310 C   0  0  0  0  0  0  0  0  0  0  0  0
   76.6000   44.3020   -5.2360 C   0  0  0  0  0  0  0  0  0  0  0  0
   76.5700   44.4860   -6.5910 O   0  0  0  0  0  0  0  0  0  0  0  0
   75.6930   43.4840   -4.5550 C   0  0  0  0  0  0  0  0  0  0  0  0
   74.6340   42.7570   -5.2570 C   0  0  0  0  0  0  0  0  0  0  0  0
   74.4870   42.8370   -6.4750 O   0  0  0  0  0  0  0  0  0  0  0  0
   73.7300   41.9110   -4.4460 C   0  0  0  0  0  0  0  0  0  0  0  0
   72.7250   41.2390   -5.1180 O   0  0  0  0  0  0  0  0  0  0  0  0
   73.4950   39.7980   -1.7840 C   0  0  0  0  0  0  0  0  0  0  0  0
   72.6890   39.0220   -0.9410 C   0  0  0  0  0  0  0  0  0  0  0  0
   71.4250   39.4520   -0.4680 C   0  0  0  0  0  0  0  0  0  0  0  0
   70.6100   38.5010    0.4510 C   0  0  0  0  0  0  0  0  0  0  0  0
   69.0950   38.4330    0.0950 C   0  0  0  0  0  0  0  0  0  0  0  0
   71.0960   37.0370    0.3560 C   0  0  0  0  0  0  0  0  0  0  0  0
   70.6680   39.0050    1.9100 C   0  0  0  0  0  0  0  0  0  0  0  0
   69.7461   43.4347    0.1919 H   0  0  0  0  0  0  0  0  0  0  0  0
   70.6371   43.1739   -1.3459 H   0  0  0  0  0  0  0  0  0  0  0  0
   68.8415   43.2264   -1.3459 H   0  0  0  0  0  0  0  0  0  0  0  0
   69.4736   41.2200    0.5144 H   0  0  0  0  0  0  0  0  0  0  0  0
   68.9021   40.9936   -1.1971 H   0  0  0  0  0  0  0  0  0  0  0  0
   71.4714   42.4830   -2.1055 H   0  0  0  0  0  0  0  0  0  0  0  0
   76.8445   43.9063   -1.3728 H   0  0  0  0  0  0  0  0  0  0  0  0
   78.4664   45.3662   -2.5860 H   0  0  0  0  0  0  0  0  0  0  0  0
   78.3087   45.6192   -5.0654 H   0  0  0  0  0  0  0  0  0  0  0  0
   76.4370   45.3440   -6.9430 H   0  0  0  0  0  0  0  0  0  0  0  0
   71.8280   41.3930   -4.8930 H   0  0  0  0  0  0  0  0  0  0  0  0
   74.4681   39.4079   -2.1171 H   0  0  0  0  0  0  0  0  0  0  0  0
   73.0551   38.0319   -0.6317 H   0  0  0  0  0  0  0  0  0  0  0  0
   68.5016   38.4064    1.0209 H   0  0  0  0  0  0  0  0  0  0  0  0
   68.8165   39.3195   -0.4936 H   0  0  0  0  0  0  0  0  0  0  0  0
   68.8971   37.5251   -0.4936 H   0  0  0  0  0  0  0  0  0  0  0  0
   71.2314   36.6292    1.3686 H   0  0  0  0  0  0  0  0  0  0  0  0
   70.3489   36.4369   -0.1841 H   0  0  0  0  0  0  0  0  0  0  0  0
   72.0537   37.0029   -0.1841 H   0  0  0  0  0  0  0  0  0  0  0  0
   70.5698   38.1515    2.5969 H   0  0  0  0  0  0  0  0  0  0  0  0
   71.6300   39.5085    2.0860 H   0  0  0  0  0  0  0  0  0  0  0  0
   69.8455   39.7139    2.0860 H   0  0  0  0  0  0  0  0  0  0  0  0
  1  2  1  0
  2  3  1  0
  3  4  2  0
  4  5  1  0
  5  6  1  0
  6  7  1  0
  7  8  1  0
  8  9  2  0
  9 10  1  0
 10 11  2  0
 11 12  1  0
 12 13  1  0
 12 14  2  0
 14 15  1  0
 15 16  2  0
 15 17  1  0
 17 18  1  0
  5 19  2  0
 19 20  1  0
 20 21  2  0
 21 22  1  0
 22 23  1  0
 22 24  1  0
 22 25  1  0
 21  3  1  0
 17  6  2  0
 14  8  1  0
  1 26  1  0
  1 27  1  0
  1 28  1  0
  2 29  1  0
  2 30  1  0
  4 31  1  0
  9 32  1  0
 10 33  1  0
 11 34  1  0
 13 35  1  0
 18 36  1  0
 19 37  1  0
 20 38  1  0
 23 39  1  0
 23 40  1  0
 23 41  1  0
 24 42  1  0
 24 43  1  0
 24 44  1  0
 25 45  1  0
 25 46  1  0
 25 47  1  0
M  END
>  <meeko>  (7) 
{"is_sidechain": [false], "free_energy": -7.338, "intermolecular_energy": -9.068, "internal_energy": -0.431}

$$$$
cand_038_out
     RDKit          3D

 47 49  0  0  0  0  0  0  0  0999 V2000
   75.8440   42.4290   -6.6660 C   0  0  0  0  0  0  0  0  0  0  0  0
   74.4680   43.0830   -6.7280 C   0  0  0  0  0  0  0  0  0  0  0  0
   73.9520   43.4720   -5.3580 C   0  0  0  0  0  0  0  0  0  0  0  0
   73.5520   42.3710   -4.5520 C   0  0  0  0  0  0  0  0  0  0  0  0
   73.0640   42.5190   -3.2520 C   0  0  0  0  0  0  0  0  0  0  0  0
   72.6320   41.3650   -2.4360 C   0  0  0  0  0  0  0  0  0  0  0  0
   71.2620   41.3580   -2.1930 O   0  0  0  0  0  0  0  0  0  0  0  0
   70.7270   40.3410   -1.4470 C   0  0  0  0  0  0  0  0  0  0  0  0
   69.3470   40.3650   -1.2400 C   0  0  0  0  0  0  0  0  0  0  0  0
   68.7370   39.3590   -0.4870 C   0  0  0  0  0  0  0  0  0  0  0  0
   69.5060   38.3300    0.0600 C   0  0  0  0  0  0  0  0  0  0  0  0
   70.8830   38.3080   -0.1470 C   0  0  0  0  0  0  0  0  0  0  0  0
   71.5760   37.2730    0.4170 O   0  0  0  0  0  0  0  0  0  0  0  0
   71.4920   39.3150   -0.9010 C   0  0  0  0  0  0  0  0  0  0  0  0
   72.9360   39.3300   -1.1430 C   0  0  0  0  0  0  0  0  0  0  0  0
   73.6810   38.4630   -0.6890 O   0  0  0  0  0  0  0  0  0  0  0  0
   73.4830   40.4360   -1.9620 C   0  0  0  0  0  0  0  0  0  0  0  0
   74.8500   40.4470   -2.1730 O   0  0  0  0  0  0  0  0  0  0  0  0
   72.9520   43.8110   -2.7530 C   0  0  0  0  0  0  0  0  0  0  0  0
   73.3360   44.9130   -3.5290 C   0  0  0  0  0  0  0  0  0  0  0  0
   73.8520   44.7920   -4.8420 C   0  0  0  0  0  0  0  0  0  0  0  0
   74.2320   46.0860   -5.6160 C   0  0  0  0  0  0  0  0  0  0  0  0
   74.0150   47.3910   -4.7940 C   0  0  0  0  0  0  0  0  0  0  0  0
   75.7270   46.1170   -6.0060 C   0  0  0  0  0  0  0  0  0  0  0  0
   73.3350   46.2320   -6.8650 C   0  0  0  0  0  0  0  0  0  0  0  0
   76.1368   42.2898   -5.6149 H   0  0  0  0  0  0  0  0  0  0  0  0
   75.8084   41.4515   -7.1692 H   0  0  0  0  0  0  0  0  0  0  0  0
   76.5795   43.0739   -7.1692 H   0  0  0  0  0  0  0  0  0  0  0  0
   74.5343   43.9875   -7.3505 H   0  0  0  0  0  0  0  0  0  0  0  0
   73.7672   42.3506   -7.1551 H   0  0  0  0  0  0  0  0  0  0  0  0
   73.6305   41.3571   -4.9714 H   0  0  0  0  0  0  0  0  0  0  0  0
   68.7401   41.1756   -1.6696 H   0  0  0  0  0  0  0  0  0  0  0  0
   67.6492   39.3775   -0.3247 H   0  0  0  0  0  0  0  0  0  0  0  0
   69.0252   37.5383    0.6533 H   0  0  0  0  0  0  0  0  0  0  0  0
   72.3590   36.9570    0.0110 H   0  0  0  0  0  0  0  0  0  0  0  0
   75.3220   41.2560   -2.1380 H   0  0  0  0  0  0  0  0  0  0  0  0
   72.5579   43.9705   -1.7385 H   0  0  0  0  0  0  0  0  0  0  0  0
   73.2316   45.9195   -3.0977 H   0  0  0  0  0  0  0  0  0  0  0  0
   74.0537   47.1583   -3.7196 H   0  0  0  0  0  0  0  0  0  0  0  0
   74.8050   48.1155   -5.0409 H   0  0  0  0  0  0  0  0  0  0  0  0
   73.0330   47.8209   -5.0409 H   0  0  0  0  0  0  0  0  0  0  0  0
   76.3434   46.1298   -5.0950 H   0  0  0  0  0  0  0  0  0  0  0  0
   75.9695   45.2237   -6.6003 H   0  0  0  0  0  0  0  0  0  0  0  0
   75.9323   47.0196   -6.6003 H   0  0  0  0  0  0  0  0  0  0  0  0
   72.2944   46.4014   -6.5513 H   0  0  0  0  0  0  0  0  0  0  0  0
   73.6802   47.0858   -7.4666 H   0  0  0  0  0  0  0  0  0  0  0  0
   73.3916   45.3128   -7.4666 H   0  0  0  0  0  0  0  0  0  0  0  0
  1  2  1  0
  2  3  1  0
  3  4  2  0
  4  5  1  0
  5  6  1  0
  6  7  1  0
  7  8  1  0
  8  9  2  0
  9 10  1  0
 10 11  2  0
 11 12  1  0
 12 13  1  0
 12 14  2  0
 14 15  1  0
 15 16  2  0
 15 17  1  0
 17 18  1  0
  5 19  2  0
 19 20  1  0
 20 21  2  0
 21 22  1  0
 22 23  1  0
 22 24  1  0
 22 25  1  0
 21  3  1  0
 17  6  2  0
 14  8  1  0
  1 26  1  0
  1 27  1  0
  1 28  1  0
  2 29  1  0
  2 30  1  0
  4 31  1  0
  9 32  1  0
 10 33  1  0
 11 34  1  0
 13 35  1  0
 18 36  1  0
 19 37  1  0
 20 38  1  0
 23 39  1  0
 23 40  1  0
 23 41  1  0
 24 42  1  0
 24 43  1  0
 24 44  1  0
 25 45  1  0
 25 46  1  0
 25 47  1  0
M  END
>  <meeko>  (8) 
{"is_sidechain": [false], "free_energy": -7.29, "intermolecular_energy": -8.887, "internal_energy": -0.554}

$$$$
cand_038_out
     RDKit          3D

 47 49  0  0  0  0  0  0  0  0999 V2000
   73.2910   46.8860   -3.2080 C   0  0  0  0  0  0  0  0  0  0  0  0
   73.7150   45.8630   -4.2560 C   0  0  0  0  0  0  0  0  0  0  0  0
   73.8760   44.4730   -3.6730 C   0  0  0  0  0  0  0  0  0  0  0  0
   72.6480   43.8090   -3.4050 C   0  0  0  0  0  0  0  0  0  0  0  0
   72.5830   42.5150   -2.8820 C   0  0  0  0  0  0  0  0  0  0  0  0
   71.2980   41.8470   -2.5890 C   0  0  0  0  0  0  0  0  0  0  0  0
   71.3510   41.0510   -1.4500 O   0  0  0  0  0  0  0  0  0  0  0  0
   70.2250   40.3730   -1.0620 C   0  0  0  0  0  0  0  0  0  0  0  0
   70.3180   39.5970    0.0950 C   0  0  0  0  0  0  0  0  0  0  0  0
   69.2080   38.8790    0.5440 C   0  0  0  0  0  0  0  0  0  0  0  0
   68.0050   38.9340   -0.1630 C   0  0  0  0  0  0  0  0  0  0  0  0
   67.9140   39.7080   -1.3180 C   0  0  0  0  0  0  0  0  0  0  0  0
   66.7080   39.7160   -1.9620 O   0  0  0  0  0  0  0  0  0  0  0  0
   69.0260   40.4270   -1.7660 C   0  0  0  0  0  0  0  0  0  0  0  0
   68.9730   41.2520   -2.9740 C   0  0  0  0  0  0  0  0  0  0  0  0
   67.9530   41.3460   -3.6550 O   0  0  0  0  0  0  0  0  0  0  0  0
   70.2030   41.9810   -3.3600 C   0  0  0  0  0  0  0  0  0  0  0  0
   70.1450   42.7470   -4.5110 O   0  0  0  0  0  0  0  0  0  0  0  0
   73.7850   41.8780   -2.5980 C   0  0  0  0  0  0  0  0  0  0  0  0
   75.0080   42.5130   -2.8500 C   0  0  0  0  0  0  0  0  0  0  0  0
   75.1050   43.8160   -3.3970 C   0  0  0  0  0  0  0  0  0  0  0  0
   76.5160   44.4280   -3.6190 C   0  0  0  0  0  0  0  0  0  0  0  0
   77.6790   43.5030   -3.1520 C   0  0  0  0  0  0  0  0  0  0  0  0
   76.8100   44.6940   -5.1130 C   0  0  0  0  0  0  0  0  0  0  0  0
   76.6630   45.7240   -2.7920 C   0  0  0  0  0  0  0  0  0  0  0  0
   73.4620   46.4735   -2.2027 H   0  0  0  0  0  0  0  0  0  0  0  0
   73.8823   47.8052   -3.3326 H   0  0  0  0  0  0  0  0  0  0  0  0
   72.2229   47.1174   -3.3326 H   0  0  0  0  0  0  0  0  0  0  0  0
   72.9503   45.8286   -5.0460 H   0  0  0  0  0  0  0  0  0  0  0  0
   74.6916   46.1753   -4.6545 H   0  0  0  0  0  0  0  0  0  0  0  0
   71.7072   44.3374   -3.6188 H   0  0  0  0  0  0  0  0  0  0  0  0
   71.2652   39.5514    0.6524 H   0  0  0  0  0  0  0  0  0  0  0  0
   69.2812   38.2689    1.4563 H   0  0  0  0  0  0  0  0  0  0  0  0
   67.1311   38.3675    0.1912 H   0  0  0  0  0  0  0  0  0  0  0  0
   66.6490   40.0280   -2.8430 H   0  0  0  0  0  0  0  0  0  0  0  0
   69.4630   43.3810   -4.6180 H   0  0  0  0  0  0  0  0  0  0  0  0
   73.7760   40.8644   -2.1708 H   0  0  0  0  0  0  0  0  0  0  0  0
   75.9370   41.9742   -2.6118 H   0  0  0  0  0  0  0  0  0  0  0  0
   77.7094   43.4788   -2.0527 H   0  0  0  0  0  0  0  0  0  0  0  0
   77.5154   42.4856   -3.5368 H   0  0  0  0  0  0  0  0  0  0  0  0
   78.6335   43.8914   -3.5368 H   0  0  0  0  0  0  0  0  0  0  0  0
   77.6230   45.4296   -5.2014 H   0  0  0  0  0  0  0  0  0  0  0  0
   77.1107   43.7548   -5.6004 H   0  0  0  0  0  0  0  0  0  0  0  0
   75.9055   45.0868   -5.6004 H   0  0  0  0  0  0  0  0  0  0  0  0
   76.6353   45.4799   -1.7198 H   0  0  0  0  0  0  0  0  0  0  0  0
   77.6216   46.2064   -3.0336 H   0  0  0  0  0  0  0  0  0  0  0  0
   75.8368   46.4088   -3.0336 H   0  0  0  0  0  0  0  0  0  0  0  0
  1  2  1  0
  2  3  1  0
  3  4  2  0
  4  5  1  0
  5  6  1  0
  6  7  1  0
  7  8  1  0
  8  9  2  0
  9 10  1  0
 10 11  2  0
 11 12  1  0
 12 13  1  0
 12 14  2  0
 14 15  1  0
 15 16  2  0
 15 17  1  0
 17 18  1  0
  5 19  2  0
 19 20  1  0
 20 21  2  0
 21 22  1  0
 22 23  1  0
 22 24  1  0
 22 25  1  0
 21  3  1  0
 17  6  2  0
 14  8  1  0
  1 26  1  0
  1 27  1  0
  1 28  1  0
  2 29  1  0
  2 30  1  0
  4 31  1  0
  9 32  1  0
 10 33  1  0
 11 34  1  0
 13 35  1  0
 18 36  1  0
 19 37  1  0
 20 38  1  0
 23 39  1  0
 23 40  1  0
 23 41  1  0
 24 42  1  0
 24 43  1  0
 24 44  1  0
 25 45  1  0
 25 46  1  0
 25 47  1  0
M  END
>  <meeko>  (9) 
{"is_sidechain": [false], "free_energy": -7.251, "intermolecular_energy": -9.199, "internal_energy": -0.193}

$$$$
