cand_042_out
     RDKit          3D

 38 40  0  0  0  0  0  0  0  0999 V2000
   75.7670   46.3910   -2.9610 C   0  0  0  0  0  0  0  0  0  0  0  0
   75.9350   44.9350   -3.3700 C   0  0  0  0  0  0  0  0  0  0  0  0
   74.6690   44.1360   -3.1540 C   0  0  0  0  0  0  0  0  0  0  0  0
   73.4400   44.7300   -3.4810 C   0  0  0  0  0  0  0  0  0  0  0  0
   72.2360   44.0470   -3.2940 C   0  0  0  0  0  0  0  0  0  0  0  0
   72.2260   42.7480   -2.7800 C   0  0  0  0  0  0  0  0  0  0  0  0
   70.9660   42.0100   -2.5490 C   0  0  0  0  0  0  0  0  0  0  0  0
   71.0200   41.1850   -1.4330 O   0  0  0  0  0  0  0  0  0  0  0  0
   69.9160   40.4420   -1.1030 C   0  0  0  0  0  0  0  0  0  0  0  0
   70.0090   39.6380    0.0340 C   0  0  0  0  0  0  0  0  0  0  0  0
   68.9210   38.8550    0.4250 C   0  0  0  0  0  0  0  0  0  0  0  0
   67.7400   38.8740   -0.3210 C   0  0  0  0  0  0  0  0  0  0  0  0
   67.6500   39.6770   -1.4550 C   0  0  0  0  0  0  0  0  0  0  0  0
   66.4660   39.6480   -2.1400 O   0  0  0  0  0  0  0  0  0  0  0  0
   68.7390   40.4620   -1.8460 C   0  0  0  0  0  0  0  0  0  0  0  0
   68.6860   41.3190   -3.0300 C   0  0  0  0  0  0  0  0  0  0  0  0
   67.6850   41.3850   -3.7420 O   0  0  0  0  0  0  0  0  0  0  0  0
   69.8910   42.1160   -3.3530 C   0  0  0  0  0  0  0  0  0  0  0  0
   69.8340   42.9130   -4.4820 O   0  0  0  0  0  0  0  0  0  0  0  0
   73.4540   42.1590   -2.4380 C   0  0  0  0  0  0  0  0  0  0  0  0
   74.6750   42.8360   -2.6120 C   0  0  0  0  0  0  0  0  0  0  0  0
   75.9530   42.1350   -2.2400 C   0  0  0  0  0  0  0  0  0  0  0  0
   75.7585   46.4649   -1.8635 H   0  0  0  0  0  0  0  0  0  0  0  0
   76.6028   46.9833   -3.3619 H   0  0  0  0  0  0  0  0  0  0  0  0
   74.8183   46.7774   -3.3619 H   0  0  0  0  0  0  0  0  0  0  0  0
   76.2031   44.8943   -4.4360 H   0  0  0  0  0  0  0  0  0  0  0  0
   76.7253   44.4952   -2.7438 H   0  0  0  0  0  0  0  0  0  0  0  0
   73.4248   45.7505   -3.8914 H   0  0  0  0  0  0  0  0  0  0  0  0
   71.2861   44.5369   -3.5541 H   0  0  0  0  0  0  0  0  0  0  0  0
   70.9387   39.6212    0.6217 H   0  0  0  0  0  0  0  0  0  0  0  0
   68.9939   38.2222    1.3218 H   0  0  0  0  0  0  0  0  0  0  0  0
   66.8834   38.2562   -0.0134 H   0  0  0  0  0  0  0  0  0  0  0  0
   66.2190   40.3720   -2.6800 H   0  0  0  0  0  0  0  0  0  0  0  0
   70.5570   42.9390   -5.0750 H   0  0  0  0  0  0  0  0  0  0  0  0
   73.4615   41.1404   -2.0227 H   0  0  0  0  0  0  0  0  0  0  0  0
   76.0396   42.0875   -1.1444 H   0  0  0  0  0  0  0  0  0  0  0  0
   75.9450   41.1150   -2.6518 H   0  0  0  0  0  0  0  0  0  0  0  0
   76.8089   42.6899   -2.6518 H   0  0  0  0  0  0  0  0  0  0  0  0
  1  2  1  0
  2  3  1  0
  3  4  2  0
  4  5  1  0
  5  6  2  0
  6  7  1  0
  7  8  1  0
  8  9  1  0
  9 10  2  0
 10 11  1  0
 11 12  2  0
 12 13  1  0
 13 14  1  0
 13 15  2  0
 15 16  1  0
 16 17  2  0
 16 18  1  0
 18 19  1  0
  6 20  1  0
 20 21  2  0
 21 22  1  0
 21  3  1  0
 18  7  2  0
 15  9  1  0
  1 23  1  0
  1 24  1  0
  1 25  1  0
  2 26  1  0
  2 27  1  0
  4 28  1  0
  5 29  1  0
 10 30  1  0
 11 31  1  0
 12 32  1  0
 14 33  1  0
 19 34  1  0
 20 35  1  0
 22 36  1  0
 22 37  1  0
 22 38  1  0
M  END
>  <meeko>  (1) 
{"is_sidechain": [false], "free_energy": -7.795, "intermolecular_energy": -9.162, "internal_energy": -0.064}

$$$$
cand_042_out
     RDKit          3D

 38 40  0  0  0  0  0  0  0  0999 V2000
   75.3040   43.2140   -7.1140 C   0  0  0  0  0  0  0  0  0  0  0  0
   74.7210   44.0030   -5.9510 C   0  0  0  0  0  0  0  0  0  0  0  0
   73.9820   43.1130   -4.9770 C   0  0  0  0  0  0  0  0  0  0  0  0
   72.9870   42.2580   -5.4770 C   0  0  0  0  0  0  0  0  0  0  0  0
   72.2620   41.4200   -4.6270 C   0  0  0  0  0  0  0  0  0  0  0  0
   72.5150   41.4080   -3.2520 C   0  0  0  0  0  0  0  0  0  0  0  0
   71.7480   40.5500   -2.3250 C   0  0  0  0  0  0  0  0  0  0  0  0
   72.5000   39.5000   -1.8120 O   0  0  0  0  0  0  0  0  0  0  0  0
   71.9090   38.6250   -0.9380 C   0  0  0  0  0  0  0  0  0  0  0  0
   72.7060   37.5950   -0.4370 C   0  0  0  0  0  0  0  0  0  0  0  0
   72.1650   36.6680    0.4580 C   0  0  0  0  0  0  0  0  0  0  0  0
   70.8290   36.7710    0.8500 C   0  0  0  0  0  0  0  0  0  0  0  0
   70.0370   37.8000    0.3480 C   0  0  0  0  0  0  0  0  0  0  0  0
   68.7370   37.8410    0.7730 O   0  0  0  0  0  0  0  0  0  0  0  0
   70.5780   38.7280   -0.5460 C   0  0  0  0  0  0  0  0  0  0  0  0
   69.7800   39.8240   -1.0960 C   0  0  0  0  0  0  0  0  0  0  0  0
   68.5950   39.9770   -0.8050 O   0  0  0  0  0  0  0  0  0  0  0  0
   70.4510   40.7570   -2.0300 C   0  0  0  0  0  0  0  0  0  0  0  0
   69.6830   41.7820   -2.5540 O   0  0  0  0  0  0  0  0  0  0  0  0
   73.5000   42.2750   -2.7500 C   0  0  0  0  0  0  0  0  0  0  0  0
   74.2330   43.1310   -3.5920 C   0  0  0  0  0  0  0  0  0  0  0  0
   75.2850   44.0180   -2.9850 C   0  0  0  0  0  0  0  0  0  0  0  0
   75.9156   42.3863   -6.7256 H   0  0  0  0  0  0  0  0  0  0  0  0
   74.4866   42.8089   -7.7286 H   0  0  0  0  0  0  0  0  0  0  0  0
   75.9313   43.8764   -7.7286 H   0  0  0  0  0  0  0  0  0  0  0  0
   75.5401   44.5088   -5.4188 H   0  0  0  0  0  0  0  0  0  0  0  0
   74.0033   44.7298   -6.3592 H   0  0  0  0  0  0  0  0  0  0  0  0
   72.7749   42.2480   -6.5563 H   0  0  0  0  0  0  0  0  0  0  0  0
   71.4843   40.7629   -5.0434 H   0  0  0  0  0  0  0  0  0  0  0  0
   73.7585   37.5128   -0.7460 H   0  0  0  0  0  0  0  0  0  0  0  0
   72.7926   35.8561    0.8541 H   0  0  0  0  0  0  0  0  0  0  0  0
   70.4032   36.0408    1.5539 H   0  0  0  0  0  0  0  0  0  0  0  0
   68.5430   38.0170    1.6730 H   0  0  0  0  0  0  0  0  0  0  0  0
   70.0970   42.5310   -2.9330 H   0  0  0  0  0  0  0  0  0  0  0  0
   73.7036   42.2847   -1.6690 H   0  0  0  0  0  0  0  0  0  0  0  0
   75.2215   43.9644   -1.8881 H   0  0  0  0  0  0  0  0  0  0  0  0
   76.2804   43.6825   -3.3114 H   0  0  0  0  0  0  0  0  0  0  0  0
   75.1225   45.0558   -3.3114 H   0  0  0  0  0  0  0  0  0  0  0  0
  1  2  1  0
  2  3  1  0
  3  4  2  0
  4  5  1  0
  5  6  2  0
  6  7  1  0
  7  8  1  0
  8  9  1  0
  9 10  2  0
 10 11  1  0
 11 12  2  0
 12 13  1  0
 13 14  1  0
 13 15  2  0
 15 16  1  0
 16 17  2  0
 16 18  1  0
 18 19  1  0
  6 20  1  0
 20 21  2  0
 21 22  1  0
 21  3  1  0
 18  7  2  0
 15  9  1  0
  1 23  1  0
  1 24  1  0
  1 25  1  0
  2 26  1  0
  2 27  1  0
  4 28  1  0
  5 29  1  0
 10 30  1  0
 11 31  1  0
 12 32  1  0
 14 33  1  0
 19 34  1  0
 20 35  1  0
 22 36  1  0
 22 37  1  0
 22 38  1  0
M  END
>  <meeko>  (2) 
{"is_sidechain": [false], "free_energy": -7.779, "intermolecular_energy": -8.807, "internal_energy": -0.4}

$$$$
cand_042_out
     RDKit          3D

 38 40  0  0  0  0  0  0  0  0999 V2000
   71.4350   36.3240    1.5750 C   0  0  0  0  0  0  0  0  0  0  0  0
   70.3590   36.9970    0.7370 C   0  0  0  0  0  0  0  0  0  0  0  0
   70.9340   38.0480   -0.1860 C   0  0  0  0  0  0  0  0  0  0  0  0
   72.2800   37.9330   -0.5720 C   0  0  0  0  0  0  0  0  0  0  0  0
   72.8710   38.8780   -1.4140 C   0  0  0  0  0  0  0  0  0  0  0  0
   72.1340   39.9610   -1.9000 C   0  0  0  0  0  0  0  0  0  0  0  0
   72.7400   40.9890   -2.7720 C   0  0  0  0  0  0  0  0  0  0  0  0
   73.8240   41.6280   -2.1830 O   0  0  0  0  0  0  0  0  0  0  0  0
   74.4800   42.6050   -2.8850 C   0  0  0  0  0  0  0  0  0  0  0  0
   75.5720   43.2100   -2.2600 C   0  0  0  0  0  0  0  0  0  0  0  0
   76.2840   44.2140   -2.9200 C   0  0  0  0  0  0  0  0  0  0  0  0
   75.9050   44.6140   -4.2030 C   0  0  0  0  0  0  0  0  0  0  0  0
   74.8160   44.0080   -4.8240 C   0  0  0  0  0  0  0  0  0  0  0  0
   74.4980   44.4480   -6.0800 O   0  0  0  0  0  0  0  0  0  0  0  0
   74.1040   43.0020   -4.1640 C   0  0  0  0  0  0  0  0  0  0  0  0
   72.9540   42.3410   -4.7810 C   0  0  0  0  0  0  0  0  0  0  0  0
   72.5550   42.6430   -5.9040 O   0  0  0  0  0  0  0  0  0  0  0  0
   72.2730   41.2830   -4.0000 C   0  0  0  0  0  0  0  0  0  0  0  0
   71.1790   40.6740   -4.5880 O   0  0  0  0  0  0  0  0  0  0  0  0
   70.7930   40.0850   -1.5010 C   0  0  0  0  0  0  0  0  0  0  0  0
   70.1840   39.1470   -0.6470 C   0  0  0  0  0  0  0  0  0  0  0  0
   68.7380   39.3340   -0.2770 C   0  0  0  0  0  0  0  0  0  0  0  0
   71.2099   36.4648    2.6425 H   0  0  0  0  0  0  0  0  0  0  0  0
   71.4604   35.2488    1.3443 H   0  0  0  0  0  0  0  0  0  0  0  0
   72.4129   36.7717    1.3443 H   0  0  0  0  0  0  0  0  0  0  0  0
   69.8506   36.2324    0.1314 H   0  0  0  0  0  0  0  0  0  0  0  0
   69.6565   37.4942    1.4220 H   0  0  0  0  0  0  0  0  0  0  0  0
   72.8778   37.0855   -0.2054 H   0  0  0  0  0  0  0  0  0  0  0  0
   73.9282   38.7683   -1.6975 H   0  0  0  0  0  0  0  0  0  0  0  0
   75.8712   42.8963   -1.2490 H   0  0  0  0  0  0  0  0  0  0  0  0
   77.1449   44.6905   -2.4282 H   0  0  0  0  0  0  0  0  0  0  0  0
   76.4653   45.4058   -4.7218 H   0  0  0  0  0  0  0  0  0  0  0  0
   74.1450   43.8520   -6.7100 H   0  0  0  0  0  0  0  0  0  0  0  0
   70.6090   40.1380   -4.0750 H   0  0  0  0  0  0  0  0  0  0  0  0
   70.2029   40.9385   -1.8660 H   0  0  0  0  0  0  0  0  0  0  0  0
   68.6385   39.3469    0.8184 H   0  0  0  0  0  0  0  0  0  0  0  0
   68.3742   40.2867   -0.6894 H   0  0  0  0  0  0  0  0  0  0  0  0
   68.1438   38.5052   -0.6894 H   0  0  0  0  0  0  0  0  0  0  0  0
  1  2  1  0
  2  3  1  0
  3  4  2  0
  4  5  1  0
  5  6  2  0
  6  7  1  0
  7  8  1  0
  8  9  1  0
  9 10  2  0
 10 11  1  0
 11 12  2  0
 12 13  1  0
 13 14  1  0
 13 15  2  0
 15 16  1  0
 16 17  2  0
 16 18  1  0
 18 19  1  0
  6 20  1  0
 20 21  2  0
 21 22  1  0
 21  3  1  0
 18  7  2  0
 15  9  1  0
  1 23  1  0
  1 24  1  0
  1 25  1  0
  2 26  1  0
  2 27  1  0
  4 28  1  0
  5 29  1  0
 10 30  1  0
 11 31  1  0
 12 32  1  0
 14 33  1  0
 19 34  1  0
 20 35  1  0
 22 36  1  0
 22 37  1  0
 22 38  1  0
M  END
>  <meeko>  (3) 
{"is_sidechain": [false], "free_energy": -7.745, "intermolecular_energy": -8.886, "internal_energy": -0.281}

$$$$
cand_042_out
     RDKit          3D

 38 40  0  0  0  0  0  0  0  0999 V2000
   74.4920   45.2650   -7.1080 C   0  0  0  0  0  0  0  0  0  0  0  0
   73.3300   45.5640   -6.1730 C   0  0  0  0  0  0  0  0  0  0  0  0
   73.0910   44.4400   -5.1890 C   0  0  0  0  0  0  0  0  0  0  0  0
   72.7180   43.1830   -5.6890 C   0  0  0  0  0  0  0  0  0  0  0  0
   72.4730   42.1090   -4.8300 C   0  0  0  0  0  0  0  0  0  0  0  0
   72.6000   42.2590   -3.4470 C   0  0  0  0  0  0  0  0  0  0  0  0
   72.3240   41.1470   -2.5130 C   0  0  0  0  0  0  0  0  0  0  0  0
   70.9810   41.0470   -2.1720 O   0  0  0  0  0  0  0  0  0  0  0  0
   70.5860   40.0570   -1.3110 C   0  0  0  0  0  0  0  0  0  0  0  0
   69.2260   39.9860   -1.0070 C   0  0  0  0  0  0  0  0  0  0  0  0
   68.7570   39.0000   -0.1350 C   0  0  0  0  0  0  0  0  0  0  0  0
   69.6470   38.0870    0.4330 C   0  0  0  0  0  0  0  0  0  0  0  0
   71.0040   38.1600    0.1280 C   0  0  0  0  0  0  0  0  0  0  0  0
   71.8210   37.2360    0.7200 O   0  0  0  0  0  0  0  0  0  0  0  0
   71.4730   39.1460   -0.7450 C   0  0  0  0  0  0  0  0  0  0  0  0
   72.8900   39.2580   -1.0910 C   0  0  0  0  0  0  0  0  0  0  0  0
   73.7360   38.4960   -0.6260 O   0  0  0  0  0  0  0  0  0  0  0  0
   73.2820   40.3320   -2.0320 C   0  0  0  0  0  0  0  0  0  0  0  0
   74.6260   40.4360   -2.3420 O   0  0  0  0  0  0  0  0  0  0  0  0
   72.9580   43.5210   -2.9450 C   0  0  0  0  0  0  0  0  0  0  0  0
   73.2000   44.6160   -3.7950 C   0  0  0  0  0  0  0  0  0  0  0  0
   73.5970   45.9330   -3.1870 C   0  0  0  0  0  0  0  0  0  0  0  0
   75.3895   45.0341   -6.5153 H   0  0  0  0  0  0  0  0  0  0  0  0
   74.2396   44.4025   -7.7424 H   0  0  0  0  0  0  0  0  0  0  0  0
   74.6872   46.1422   -7.7424 H   0  0  0  0  0  0  0  0  0  0  0  0
   73.5521   46.4846   -5.6135 H   0  0  0  0  0  0  0  0  0  0  0  0
   72.4228   45.6792   -6.7843 H   0  0  0  0  0  0  0  0  0  0  0  0
   72.6169   43.0411   -6.7751 H   0  0  0  0  0  0  0  0  0  0  0  0
   72.1770   41.1351   -5.2470 H   0  0  0  0  0  0  0  0  0  0  0  0
   68.5238   40.7055   -1.4534 H   0  0  0  0  0  0  0  0  0  0  0  0
   67.6848   38.9432    0.1042 H   0  0  0  0  0  0  0  0  0  0  0  0
   69.2774   37.3115    1.1200 H   0  0  0  0  0  0  0  0  0  0  0  0
   71.5740   36.3330    0.7330 H   0  0  0  0  0  0  0  0  0  0  0  0
   74.9270   40.2180   -3.2010 H   0  0  0  0  0  0  0  0  0  0  0  0
   73.0518   43.6571   -1.8575 H   0  0  0  0  0  0  0  0  0  0  0  0
   73.5728   45.8527   -2.0902 H   0  0  0  0  0  0  0  0  0  0  0  0
   74.6142   46.1956   -3.5130 H   0  0  0  0  0  0  0  0  0  0  0  0
   72.8944   46.7140   -3.5130 H   0  0  0  0  0  0  0  0  0  0  0  0
  1  2  1  0
  2  3  1  0
  3  4  2  0
  4  5  1  0
  5  6  2  0
  6  7  1  0
  7  8  1  0
  8  9  1  0
  9 10  2  0
 10 11  1  0
 11 12  2  0
 12 13  1  0
 13 14  1  0
 13 15  2  0
 15 16  1  0
 16 17  2  0
 16 18  1  0
 18 19  1  0
  6 20  1  0
 20 21  2  0
 21 22  1  0
 21  3  1  0
 18  7  2  0
 15  9  1  0
  1 23  1  0
  1 24  1  0
  1 25  1  0
  2 26  1  0
  2 27  1  0
  4 28  1  0
  5 29  1  0
 10 30  1  0
 11 31  1  0
 12 32  1  0
 14 33  1  0
 19 34  1  0
 20 35  1  0
 22 36  1  0
 22 37  1  0
 22 38  1  0
M  END
>  <meeko>  (4) 
{"is_sidechain": [false], "free_energy": -7.727, "intermolecular_energy": -8.671, "internal_energy": -0.475}

$$$$
cand_042_out
     RDKit          3D

 38 40  0  0  0  0  0  0  0  0999 V2000
   70.2280   37.9170    0.3570 C   0  0  0  0  0  0  0  0  0  0  0  0
   69.8280   39.3080   -0.1120 C   0  0  0  0  0  0  0  0  0  0  0  0
   70.8650   39.9160   -1.0310 C   0  0  0  0  0  0  0  0  0  0  0  0
   71.7820   39.0600   -1.6620 C   0  0  0  0  0  0  0  0  0  0  0  0
   72.7680   39.5620   -2.5130 C   0  0  0  0  0  0  0  0  0  0  0  0
   72.8630   40.9340   -2.7630 C   0  0  0  0  0  0  0  0  0  0  0  0
   73.9120   41.4960   -3.6410 C   0  0  0  0  0  0  0  0  0  0  0  0
   73.4310   41.8630   -4.8920 O   0  0  0  0  0  0  0  0  0  0  0  0
   74.3000   42.3990   -5.8060 C   0  0  0  0  0  0  0  0  0  0  0  0
   73.7710   42.7670   -7.0440 C   0  0  0  0  0  0  0  0  0  0  0  0
   74.6030   43.3190   -8.0210 C   0  0  0  0  0  0  0  0  0  0  0  0
   75.9630   43.5020   -7.7610 C   0  0  0  0  0  0  0  0  0  0  0  0
   76.4880   43.1340   -6.5250 C   0  0  0  0  0  0  0  0  0  0  0  0
   77.8270   43.3400   -6.3370 O   0  0  0  0  0  0  0  0  0  0  0  0
   75.6550   42.5830   -5.5460 C   0  0  0  0  0  0  0  0  0  0  0  0
   76.1660   42.1830   -4.2360 C   0  0  0  0  0  0  0  0  0  0  0  0
   77.3520   42.3070   -3.9340 O   0  0  0  0  0  0  0  0  0  0  0  0
   75.2000   41.6170   -3.2670 C   0  0  0  0  0  0  0  0  0  0  0  0
   75.6970   41.2310   -2.0360 O   0  0  0  0  0  0  0  0  0  0  0  0
   71.9560   41.7920   -2.1200 C   0  0  0  0  0  0  0  0  0  0  0  0
   70.9620   41.3030   -1.2530 C   0  0  0  0  0  0  0  0  0  0  0  0
   70.0130   42.2800   -0.6130 C   0  0  0  0  0  0  0  0  0  0  0  0
   70.2360   37.8890    1.4566 H   0  0  0  0  0  0  0  0  0  0  0  0
   69.5054   37.1799   -0.0233 H   0  0  0  0  0  0  0  0  0  0  0  0
   71.2317   37.6764   -0.0233 H   0  0  0  0  0  0  0  0  0  0  0  0
   68.8718   39.2397   -0.6514 H   0  0  0  0  0  0  0  0  0  0  0  0
   69.7394   39.9532    0.7745 H   0  0  0  0  0  0  0  0  0  0  0  0
   71.7224   37.9763   -1.4828 H   0  0  0  0  0  0  0  0  0  0  0  0
   73.4774   38.8709   -2.9917 H   0  0  0  0  0  0  0  0  0  0  0  0
   72.7002   42.6225   -7.2502 H   0  0  0  0  0  0  0  0  0  0  0  0
   74.1864   43.6100   -8.9966 H   0  0  0  0  0  0  0  0  0  0  0  0
   76.6179   43.9359   -8.5310 H   0  0  0  0  0  0  0  0  0  0  0  0
   78.1490   44.2020   -6.1640 H   0  0  0  0  0  0  0  0  0  0  0  0
   75.6820   41.8290   -1.3160 H   0  0  0  0  0  0  0  0  0  0  0  0
   72.0247   42.8752   -2.2991 H   0  0  0  0  0  0  0  0  0  0  0  0
   70.0891   42.2017    0.4816 H   0  0  0  0  0  0  0  0  0  0  0  0
   70.2724   43.3020   -0.9264 H   0  0  0  0  0  0  0  0  0  0  0  0
   68.9839   42.0504   -0.9264 H   0  0  0  0  0  0  0  0  0  0  0  0
  1  2  1  0
  2  3  1  0
  3  4  2  0
  4  5  1  0
  5  6  2  0
  6  7  1  0
  7  8  1  0
  8  9  1  0
  9 10  2  0
 10 11  1  0
 11 12  2  0
 12 13  1  0
 13 14  1  0
 13 15  2  0
 15 16  1  0
 16 17  2  0
 16 18  1  0
 18 19  1  0
  6 20  1  0
 20 21  2  0
 21 22  1  0
 21  3  1  0
 18  7  2  0
 15  9  1  0
  1 23  1  0
  1 24  1  0
  1 25  1  0
  2 26  1  0
  2 27  1  0
  4 28  1  0
  5 29  1  0
 10 30  1  0
 11 31  1  0
 12 32  1  0
 14 33  1  0
 19 34  1  0
 20 35  1  0
 22 36  1  0
 22 37  1  0
 22 38  1  0
M  END
>  <meeko>  (5) 
{"is_sidechain": [false], "free_energy": -7.682, "intermolecular_energy": -8.672, "internal_energy": -0.422}

$$$$
cand_042_out
     RDKit          3D

 38 40  0  0  0  0  0  0  0  0999 V2000
   77.1320   43.1500   -5.4960 C   0  0  0  0  0  0  0  0  0  0  0  0
   75.8480   43.9170   -5.2170 C   0  0  0  0  0  0  0  0  0  0  0  0
   74.8530   43.0900   -4.4330 C   0  0  0  0  0  0  0  0  0  0  0  0
   75.0230   42.9820   -3.0430 C   0  0  0  0  0  0  0  0  0  0  0  0
   74.1440   42.2240   -2.2670 C   0  0  0  0  0  0  0  0  0  0  0  0
   73.0660   41.5580   -2.8550 C   0  0  0  0  0  0  0  0  0  0  0  0
   72.1330   40.7300   -2.0610 C   0  0  0  0  0  0  0  0  0  0  0  0
   72.7440   39.6150   -1.5000 O   0  0  0  0  0  0  0  0  0  0  0  0
   71.9920   38.7590   -0.7370 C   0  0  0  0  0  0  0  0  0  0  0  0
   72.6500   37.6610   -0.1820 C   0  0  0  0  0  0  0  0  0  0  0  0
   71.9410   36.7500    0.6050 C   0  0  0  0  0  0  0  0  0  0  0  0
   70.5760   36.9360    0.8360 C   0  0  0  0  0  0  0  0  0  0  0  0
   69.9230   38.0330    0.2800 C   0  0  0  0  0  0  0  0  0  0  0  0
   68.5860   38.1540    0.5450 O   0  0  0  0  0  0  0  0  0  0  0  0
   70.6320   38.9460   -0.5060 C   0  0  0  0  0  0  0  0  0  0  0  0
   69.9840   40.1100   -1.1090 C   0  0  0  0  0  0  0  0  0  0  0  0
   68.7850   40.3390   -0.9580 O   0  0  0  0  0  0  0  0  0  0  0  0
   70.8270   41.0200   -1.9180 C   0  0  0  0  0  0  0  0  0  0  0  0
   70.2000   42.1110   -2.4930 O   0  0  0  0  0  0  0  0  0  0  0  0
   72.9040   41.6530   -4.2470 C   0  0  0  0  0  0  0  0  0  0  0  0
   73.7860   42.4050   -5.0450 C   0  0  0  0  0  0  0  0  0  0  0  0
   73.5400   42.4770   -6.5270 C   0  0  0  0  0  0  0  0  0  0  0  0
   77.6047   42.8676   -4.5437 H   0  0  0  0  0  0  0  0  0  0  0  0
   76.8992   42.2429   -6.0730 H   0  0  0  0  0  0  0  0  0  0  0  0
   77.8204   43.7850   -6.0730 H   0  0  0  0  0  0  0  0  0  0  0  0
   76.0924   44.8205   -4.6391 H   0  0  0  0  0  0  0  0  0  0  0  0
   75.3893   44.1747   -6.1830 H   0  0  0  0  0  0  0  0  0  0  0  0
   75.8619   43.5028   -2.5581 H   0  0  0  0  0  0  0  0  0  0  0  0
   74.3020   42.1505   -1.1809 H   0  0  0  0  0  0  0  0  0  0  0  0
   73.7247   37.5129   -0.3637 H   0  0  0  0  0  0  0  0  0  0  0  0
   72.4589   35.8843    1.0437 H   0  0  0  0  0  0  0  0  0  0  0  0
   70.0185   36.2179    1.4554 H   0  0  0  0  0  0  0  0  0  0  0  0
   68.2400   37.8440    1.3580 H   0  0  0  0  0  0  0  0  0  0  0  0
   70.5460   42.9720   -2.3640 H   0  0  0  0  0  0  0  0  0  0  0  0
   72.0657   41.1258   -4.7259 H   0  0  0  0  0  0  0  0  0  0  0  0
   72.4993   42.7816   -6.7115 H   0  0  0  0  0  0  0  0  0  0  0  0
   74.2227   43.2130   -6.9767 H   0  0  0  0  0  0  0  0  0  0  0  0
   73.7181   41.4890   -6.9767 H   0  0  0  0  0  0  0  0  0  0  0  0
  1  2  1  0
  2  3  1  0
  3  4  2  0
  4  5  1  0
  5  6  2  0
  6  7  1  0
  7  8  1  0
  8  9  1  0
  9 10  2  0
 10 11  1  0
 11 12  2  0
 12 13  1  0
 13 14  1  0
 13 15  2  0
 15 16  1  0
 16 17  2  0
 16 18  1  0
 18 19  1  0
  6 20  1  0
 20 21  2  0
 21 22  1  0
 21  3  1  0
 18  7  2  0
 15  9  1  0
  1 23  1  0
  1 24  1  0
  1 25  1  0
  2 26  1  0
  2 27  1  0
  4 28  1  0
  5 29  1  0
 10 30  1  0
 11 31  1  0
 12 32  1  0
 14 33  1  0
 19 34  1  0
 20 35  1  0
 22 36  1  0
 22 37  1  0
 22 38  1  0
M  END
>  <meeko>  (6) 
{"is_sidechain": [false], "free_energy": -7.607, "intermolecular_energy": -8.639, "internal_energy": -0.366}

$$$$
cand_042_out
     RDKit          3D

 38 40  0  0  0  0  0  0  0  0999 V2000
   71.5280   36.5080    1.1700 C   0  0  0  0  0  0  0  0  0  0  0  0
   70.4030   37.5150    1.3610 C   0  0  0  0  0  0  0  0  0  0  0  0
   70.4140   38.5860    0.2940 C   0  0  0  0  0  0  0  0  0  0  0  0
   71.6540   39.0440   -0.1800 C   0  0  0  0  0  0  0  0  0  0  0  0
   71.7290   40.0390   -1.1570 C   0  0  0  0  0  0  0  0  0  0  0  0
   70.5680   40.6010   -1.6940 C   0  0  0  0  0  0  0  0  0  0  0  0
   70.6180   41.6720   -2.7120 C   0  0  0  0  0  0  0  0  0  0  0  0
   71.7530   42.4670   -2.6050 O   0  0  0  0  0  0  0  0  0  0  0  0
   71.9250   43.5000   -3.4890 C   0  0  0  0  0  0  0  0  0  0  0  0
   73.0850   44.2630   -3.3540 C   0  0  0  0  0  0  0  0  0  0  0  0
   73.3220   45.3310   -4.2220 C   0  0  0  0  0  0  0  0  0  0  0  0
   72.3980   45.6370   -5.2250 C   0  0  0  0  0  0  0  0  0  0  0  0
   71.2410   44.8730   -5.3570 C   0  0  0  0  0  0  0  0  0  0  0  0
   70.3790   45.2280   -6.3590 O   0  0  0  0  0  0  0  0  0  0  0  0
   71.0050   43.8040   -4.4890 C   0  0  0  0  0  0  0  0  0  0  0  0
   69.8030   42.9770   -4.5940 C   0  0  0  0  0  0  0  0  0  0  0  0
   68.9400   43.1880   -5.4450 O   0  0  0  0  0  0  0  0  0  0  0  0
   69.6520   41.8630   -3.6300 C   0  0  0  0  0  0  0  0  0  0  0  0
   68.5050   41.0960   -3.7310 O   0  0  0  0  0  0  0  0  0  0  0  0
   69.3280   40.1540   -1.2100 C   0  0  0  0  0  0  0  0  0  0  0  0
   69.2340   39.1580   -0.2200 C   0  0  0  0  0  0  0  0  0  0  0  0
   67.8710   38.7170    0.2380 C   0  0  0  0  0  0  0  0  0  0  0  0
   71.8960   36.1786    2.1529 H   0  0  0  0  0  0  0  0  0  0  0  0
   71.1515   35.6396    0.6095 H   0  0  0  0  0  0  0  0  0  0  0  0
   72.3496   36.9780    0.6095 H   0  0  0  0  0  0  0  0  0  0  0  0
   69.4405   36.9839    1.3211 H   0  0  0  0  0  0  0  0  0  0  0  0
   70.5473   38.0048    2.3353 H   0  0  0  0  0  0  0  0  0  0  0  0
   72.5811   38.6121    0.2248 H   0  0  0  0  0  0  0  0  0  0  0  0
   72.7129   40.3841   -1.5076 H   0  0  0  0  0  0  0  0  0  0  0  0
   73.8125   44.0236   -2.5644 H   0  0  0  0  0  0  0  0  0  0  0  0
   74.2371   45.9322   -4.1162 H   0  0  0  0  0  0  0  0  0  0  0  0
   72.5840   46.4788   -5.9082 H   0  0  0  0  0  0  0  0  0  0  0  0
   70.3340   46.1190   -6.6440 H   0  0  0  0  0  0  0  0  0  0  0  0
   67.7050   41.4850   -4.0240 H   0  0  0  0  0  0  0  0  0  0  0  0
   68.4051   40.5942   -1.6156 H   0  0  0  0  0  0  0  0  0  0  0  0
   67.8392   38.7067    1.3375 H   0  0  0  0  0  0  0  0  0  0  0  0
   67.1120   39.4154   -0.1443 H   0  0  0  0  0  0  0  0  0  0  0  0
   67.6650   37.7063   -0.1443 H   0  0  0  0  0  0  0  0  0  0  0  0
  1  2  1  0
  2  3  1  0
  3  4  2  0
  4  5  1  0
  5  6  2  0
  6  7  1  0
  7  8  1  0
  8  9  1  0
  9 10  2  0
 10 11  1  0
 11 12  2  0
 12 13  1  0
 13 14  1  0
 13 15  2  0
 15 16  1  0
 16 17  2  0
 16 18  1  0
 18 19  1  0
  6 20  1  0
 20 21  2  0
 21 22  1  0
 21  3  1  0
 18  7  2  0
 15  9  1  0
  1 23  1  0
  1 24  1  0
  1 25  1  0
  2 26  1  0
  2 27  1  0
  4 28  1  0
  5 29  1  0
 10 30  1  0
 11 31  1  0
 12 32  1  0
 14 33  1  0
 19 34  1  0
 20 35  1  0
 22 36  1  0
 22 37  1  0
 22 38  1  0
M  END
>  <meeko>  (7) 
{"is_sidechain": [false], "free_energy": -7.58, "intermolecular_energy": -9.038, "internal_energy": 0.065}

$$$$
cand_042_out
     RDKit          3D

 38 40  0  0  0  0  0  0  0  0999 V2000
   71.2510   36.3850    0.6830 C   0  0  0  0  0  0  0  0  0  0  0  0
   70.6440   37.5320    1.4770 C   0  0  0  0  0  0  0  0  0  0  0  0
   70.1490   38.6440    0.5790 C   0  0  0  0  0  0  0  0  0  0  0  0
   68.8100   38.6160    0.1580 C   0  0  0  0  0  0  0  0  0  0  0  0
   68.2970   39.6080   -0.6800 C   0  0  0  0  0  0  0  0  0  0  0  0
   69.1060   40.6610   -1.1160 C   0  0  0  0  0  0  0  0  0  0  0  0
   68.5970   41.7120   -2.0230 C   0  0  0  0  0  0  0  0  0  0  0  0
   67.6500   42.5330   -1.4210 O   0  0  0  0  0  0  0  0  0  0  0  0
   67.0940   43.5510   -2.1510 C   0  0  0  0  0  0  0  0  0  0  0  0
   66.1590   44.3590   -1.5030 C   0  0  0  0  0  0  0  0  0  0  0  0
   65.5540   45.4130   -2.1900 C   0  0  0  0  0  0  0  0  0  0  0  0
   65.8830   45.6600   -3.5250 C   0  0  0  0  0  0  0  0  0  0  0  0
   66.8170   44.8520   -4.1690 C   0  0  0  0  0  0  0  0  0  0  0  0
   67.0920   45.1490   -5.4760 O   0  0  0  0  0  0  0  0  0  0  0  0
   67.4230   43.7980   -3.4810 C   0  0  0  0  0  0  0  0  0  0  0  0
   68.4080   42.9260   -4.1200 C   0  0  0  0  0  0  0  0  0  0  0  0
   68.7450   43.0750   -5.2940 O   0  0  0  0  0  0  0  0  0  0  0  0
   68.9970   41.8420   -3.3010 C   0  0  0  0  0  0  0  0  0  0  0  0
   69.9180   41.0160   -3.9200 O   0  0  0  0  0  0  0  0  0  0  0  0
   70.4500   40.6810   -0.7080 C   0  0  0  0  0  0  0  0  0  0  0  0
   70.9850   39.6850    0.1290 C   0  0  0  0  0  0  0  0  0  0  0  0
   72.4280   39.7810    0.5410 C   0  0  0  0  0  0  0  0  0  0  0  0
   71.6505   35.6302    1.3763 H   0  0  0  0  0  0  0  0  0  0  0  0
   70.4769   35.9276    0.0493 H   0  0  0  0  0  0  0  0  0  0  0  0
   72.0645   36.7679    0.0493 H   0  0  0  0  0  0  0  0  0  0  0  0
   69.7979   37.1477    2.0655 H   0  0  0  0  0  0  0  0  0  0  0  0
   71.4274   37.9455    2.1291 H   0  0  0  0  0  0  0  0  0  0  0  0
   68.1543   37.7992    0.4938 H   0  0  0  0  0  0  0  0  0  0  0  0
   67.2457   39.5603   -1.0002 H   0  0  0  0  0  0  0  0  0  0  0  0
   65.8989   44.1657   -0.4518 H   0  0  0  0  0  0  0  0  0  0  0  0
   64.8170   46.0501   -1.6792 H   0  0  0  0  0  0  0  0  0  0  0  0
   65.4058   46.4903   -4.0661 H   0  0  0  0  0  0  0  0  0  0  0  0
   66.8210   45.9700   -5.8370 H   0  0  0  0  0  0  0  0  0  0  0  0
   69.9970   40.1210   -3.6580 H   0  0  0  0  0  0  0  0  0  0  0  0
   71.1017   41.4975   -1.0523 H   0  0  0  0  0  0  0  0  0  0  0  0
   72.4963   39.7855    1.6389 H   0  0  0  0  0  0  0  0  0  0  0  0
   72.9812   38.9177    0.1428 H   0  0  0  0  0  0  0  0  0  0  0  0
   72.8620   40.7100    0.1428 H   0  0  0  0  0  0  0  0  0  0  0  0
  1  2  1  0
  2  3  1  0
  3  4  2  0
  4  5  1  0
  5  6  2  0
  6  7  1  0
  7  8  1  0
  8  9  1  0
  9 10  2  0
 10 11  1  0
 11 12  2  0
 12 13  1  0
 13 14  1  0
 13 15  2  0
 15 16  1  0
 16 17  2  0
 16 18  1  0
 18 19  1  0
  6 20  1  0
 20 21  2  0
 21 22  1  0
 21  3  1  0
 18  7  2  0
 15  9  1  0
  1 23  1  0
  1 24  1  0
  1 25  1  0
  2 26  1  0
  2 27  1  0
  4 28  1  0
  5 29  1  0
 10 30  1  0
 11 31  1  0
 12 32  1  0
 14 33  1  0
 19 34  1  0
 20 35  1  0
 22 36  1  0
 22 37  1  0
 22 38  1  0
M  END
>  <meeko>  (8) 
{"is_sidechain": [false], "free_energy": -7.573, "intermolecular_energy": -8.629, "internal_energy": -0.336}

$$$$
cand_042_out
     RDKit          3D

 38 40  0  0  0  0  0  0  0  0999 V2000
   68.3930   38.7010    0.1670 C   0  0  0  0  0  0  0  0  0  0  0  0
   69.7990   38.6870    0.7490 C   0  0  0  0  0  0  0  0  0  0  0  0
   70.7960   39.3650   -0.1630 C   0  0  0  0  0  0  0  0  0  0  0  0
   70.5210   40.6700   -0.6030 C   0  0  0  0  0  0  0  0  0  0  0  0
   71.3990   41.3440   -1.4550 C   0  0  0  0  0  0  0  0  0  0  0  0
   72.5800   40.7360   -1.8870 C   0  0  0  0  0  0  0  0  0  0  0  0
   73.5160   41.4160   -2.8080 C   0  0  0  0  0  0  0  0  0  0  0  0
   74.6350   41.9270   -2.1620 O   0  0  0  0  0  0  0  0  0  0  0  0
   75.5850   42.5840   -2.9000 C   0  0  0  0  0  0  0  0  0  0  0  0
   76.6990   43.0670   -2.2120 C   0  0  0  0  0  0  0  0  0  0  0  0
   77.7040   43.7470   -2.9040 C   0  0  0  0  0  0  0  0  0  0  0  0
   77.5950   43.9440   -4.2820 C   0  0  0  0  0  0  0  0  0  0  0  0
   76.4830   43.4600   -4.9660 C   0  0  0  0  0  0  0  0  0  0  0  0
   76.4390   43.6890   -6.3140 O   0  0  0  0  0  0  0  0  0  0  0  0
   75.4770   42.7790   -4.2730 C   0  0  0  0  0  0  0  0  0  0  0  0
   74.2930   42.2550   -4.9530 C   0  0  0  0  0  0  0  0  0  0  0  0
   74.1210   42.3950   -6.1630 O   0  0  0  0  0  0  0  0  0  0  0  0
   73.2900   41.5420   -4.1290 C   0  0  0  0  0  0  0  0  0  0  0  0
   72.1680   41.0630   -4.7810 O   0  0  0  0  0  0  0  0  0  0  0  0
   72.8480   39.4250   -1.4610 C   0  0  0  0  0  0  0  0  0  0  0  0
   71.9710   38.7290   -0.6090 C   0  0  0  0  0  0  0  0  0  0  0  0
   72.3330   37.3340   -0.1790 C   0  0  0  0  0  0  0  0  0  0  0  0
   67.6576   38.7083    0.9850 H   0  0  0  0  0  0  0  0  0  0  0  0
   68.2615   39.6005   -0.4524 H   0  0  0  0  0  0  0  0  0  0  0  0
   68.2436   37.8043   -0.4524 H   0  0  0  0  0  0  0  0  0  0  0  0
   69.7884   39.2113    1.7159 H   0  0  0  0  0  0  0  0  0  0  0  0
   70.1068   37.6378    0.8688 H   0  0  0  0  0  0  0  0  0  0  0  0
   69.5989   41.1697   -0.2712 H   0  0  0  0  0  0  0  0  0  0  0  0
   71.1579   42.3639   -1.7891 H   0  0  0  0  0  0  0  0  0  0  0  0
   76.7855   42.9125   -1.1264 H   0  0  0  0  0  0  0  0  0  0  0  0
   78.5825   44.1278   -2.3626 H   0  0  0  0  0  0  0  0  0  0  0  0
   78.3862   44.4806   -4.8262 H   0  0  0  0  0  0  0  0  0  0  0  0
   76.0250   43.0690   -6.8810 H   0  0  0  0  0  0  0  0  0  0  0  0
   72.2420   40.7150   -5.6470 H   0  0  0  0  0  0  0  0  0  0  0  0
   73.7684   38.9289   -1.8026 H   0  0  0  0  0  0  0  0  0  0  0  0
   72.3468   37.2809    0.9196 H   0  0  0  0  0  0  0  0  0  0  0  0
   71.5891   36.6248   -0.5711 H   0  0  0  0  0  0  0  0  0  0  0  0
   73.3278   37.0760   -0.5711 H   0  0  0  0  0  0  0  0  0  0  0  0
  1  2  1  0
  2  3  1  0
  3  4  2  0
  4  5  1  0
  5  6  2  0
  6  7  1  0
  7  8  1  0
  8  9  1  0
  9 10  2  0
 10 11  1  0
 11 12  2  0
 12 13  1  0
 13 14  1  0
 13 15  2  0
 15 16  1  0
 16 17  2  0
 16 18  1  0
 18 19  1  0
  6 20  1  0
 20 21  2  0
 21 22  1  0
 21  3  1  0
 18  7  2  0
 15  9  1  0
  1 23  1  0
  1 24  1  0
  1 25  1  0
  2 26  1  0
  2 27  1  0
  4 28  1  0
  5 29  1  0
 10 30  1  0
 11 31  1  0
 12 32  1  0
 14 33  1  0
 19 34  1  0
 20 35  1  0
 22 36  1  0
 22 37  1  0
 22 38  1  0
M  END
>  <meeko>  (9) 
{"is_sidechain": [false], "free_energy": -7.458, "intermolecular_energy": -8.385, "internal_energy": -0.445}

$$$$
