clorgyline_out
     RDKit          3D

 33 33  0  0  0  0  0  0  0  0999 V2000
  178.2910   23.9280   47.4360 C   0  0  0  0  0  0  0  0  0  0  0  0
  178.1730   22.7360   47.5250 C   0  0  0  0  0  0  0  0  0  0  0  0
  178.0240   21.2750   47.6350 C   0  0  0  0  0  0  0  0  0  0  0  0
  177.7960   20.5790   46.3550 N   0  0  2  0  0  0  0  0  0  0  0  0
  176.9690   19.3860   46.5360 C   0  0  0  0  0  0  0  0  0  0  0  0
  179.0610   20.2900   45.6580 C   0  0  0  0  0  0  0  0  0  0  0  0
  179.6550   18.9330   46.0640 C   0  0  0  0  0  0  0  0  0  0  0  0
  180.8120   18.5270   45.1530 C   0  0  0  0  0  0  0  0  0  0  0  0
  180.8170   17.1070   45.0220 O   0  0  0  0  0  0  0  0  0  0  0  0
  180.8540   16.5760   43.7600 C   0  0  0  0  0  0  0  0  0  0  0  0
  180.9310   17.3310   42.5850 C   0  0  0  0  0  0  0  0  0  0  0  0
  180.9600   16.6950   41.3380 C   0  0  0  0  0  0  0  0  0  0  0  0
  180.9080   15.3050   41.2620 C   0  0  0  0  0  0  0  0  0  0  0  0
  180.9430   14.5340   39.7250 Cl  0  0  0  0  0  0  0  0  0  0  0  0
  180.8290   14.5380   42.4190 C   0  0  0  0  0  0  0  0  0  0  0  0
  180.8000   15.1740   43.6620 C   0  0  0  0  0  0  0  0  0  0  0  0
  180.7040   14.1790   45.0760 Cl  0  0  0  0  0  0  0  0  0  0  0  0
  178.3991   25.0196   47.3545 H   0  0  0  0  0  0  0  0  0  0  0  0
  178.9421   20.8703   48.0859 H   0  0  0  0  0  0  0  0  0  0  0  0
  177.1268   21.1002   48.2469 H   0  0  0  0  0  0  0  0  0  0  0  0
  177.2720   21.2120   45.7490 H   0  0  0  0  0  0  0  0  0  0  0  0
  176.8348   19.1924   47.6105 H   0  0  0  0  0  0  0  0  0  0  0  0
  175.9870   19.5459   46.0668 H   0  0  0  0  0  0  0  0  0  0  0  0
  177.4633   18.5226   46.0668 H   0  0  0  0  0  0  0  0  0  0  0  0
  178.8740   20.2839   44.5740 H   0  0  0  0  0  0  0  0  0  0  0  0
  179.7843   21.0703   45.9372 H   0  0  0  0  0  0  0  0  0  0  0  0
  180.0226   19.0000   47.0986 H   0  0  0  0  0  0  0  0  0  0  0  0
  178.8652   18.1726   45.9745 H   0  0  0  0  0  0  0  0  0  0  0  0
  180.6830   18.9892   44.1632 H   0  0  0  0  0  0  0  0  0  0  0  0
  181.7650   18.8659   45.5854 H   0  0  0  0  0  0  0  0  0  0  0  0
  180.9689   18.4289   42.6409 H   0  0  0  0  0  0  0  0  0  0  0  0
  181.0239   17.2936   40.4173 H   0  0  0  0  0  0  0  0  0  0  0  0
  180.7897   13.4405   42.3559 H   0  0  0  0  0  0  0  0  0  0  0  0
  1  2  3  0
  2  3  1  0
  3  4  1  0
  4  5  1  0
  4  6  1  0
  6  7  1  0
  7  8  1  0
  8  9  1  0
  9 10  1  0
 10 11  2  0
 11 12  1  0
 12 13  2  0
 13 14  1  0
 13 15  1  0
 15 16  2  0
 16 17  1  0
 16 10  1  0
  1 18  1  0
  3 19  1  0
  3 20  1  0
  4 21  1  6
  5 22  1  0
  5 23  1  0
  5 24  1  0
  6 25  1  0
  6 26  1  0
  7 27  1  0
  7 28  1  0
  8 29  1  0
  8 30  1  0
 11 31  1  0
 12 32  1  0
 15 33  1  0
M  CHG  1   4   1
M  END
>  <meeko>  (1) 
{"is_sidechain": [false], "free_energy": -6.747, "intermolecular_energy": -9.114, "internal_energy": -0.375}

$$$$
clorgyline_out
     RDKit          3D

 33 33  0  0  0  0  0  0  0  0999 V2000
  175.5350   19.6150   48.7270 C   0  0  0  0  0  0  0  0  0  0  0  0
  176.3960   19.8120   47.9140 C   0  0  0  0  0  0  0  0  0  0  0  0
  177.4500   20.0560   46.9150 C   0  0  0  0  0  0  0  0  0  0  0  0
  178.6710   20.6890   47.4470 N   0  0  2  0  0  0  0  0  0  0  0  0
  178.6750   22.1320   47.2030 C   0  0  0  0  0  0  0  0  0  0  0  0
  179.8900   20.0280   46.9500 C   0  0  0  0  0  0  0  0  0  0  0  0
  179.5810   18.9300   45.9210 C   0  0  0  0  0  0  0  0  0  0  0  0
  180.8290   18.5200   45.1410 C   0  0  0  0  0  0  0  0  0  0  0  0
  180.8390   17.1010   45.0040 O   0  0  0  0  0  0  0  0  0  0  0  0
  180.8700   16.5750   43.7400 C   0  0  0  0  0  0  0  0  0  0  0  0
  180.9020   17.3350   42.5660 C   0  0  0  0  0  0  0  0  0  0  0  0
  180.9280   16.7040   41.3170 C   0  0  0  0  0  0  0  0  0  0  0  0
  180.9180   15.3130   41.2360 C   0  0  0  0  0  0  0  0  0  0  0  0
  180.9490   14.5480   39.6960 Cl  0  0  0  0  0  0  0  0  0  0  0  0
  180.8850   14.5410   42.3920 C   0  0  0  0  0  0  0  0  0  0  0  0
  180.8580   15.1720   43.6380 C   0  0  0  0  0  0  0  0  0  0  0  0
  180.8190   14.1700   45.0490 Cl  0  0  0  0  0  0  0  0  0  0  0  0
  174.7461   19.4345   49.4720 H   0  0  0  0  0  0  0  0  0  0  0  0
  177.7311   19.0897   46.4710 H   0  0  0  0  0  0  0  0  0  0  0  0
  177.0276   20.7623   46.1851 H   0  0  0  0  0  0  0  0  0  0  0  0
  178.6680   20.5620   48.4600 H   0  0  0  0  0  0  0  0  0  0  0  0
  178.6765   22.6664   48.1644 H   0  0  0  0  0  0  0  0  0  0  0  0
  179.5739   22.4046   46.6306 H   0  0  0  0  0  0  0  0  0  0  0  0
  177.7776   22.4096   46.6306 H   0  0  0  0  0  0  0  0  0  0  0  0
  180.5345   20.7839   46.4776 H   0  0  0  0  0  0  0  0  0  0  0  0
  180.3887   19.5536   47.8081 H   0  0  0  0  0  0  0  0  0  0  0  0
  179.1842   18.0494   46.4474 H   0  0  0  0  0  0  0  0  0  0  0  0
  178.8447   19.3267   45.2065 H   0  0  0  0  0  0  0  0  0  0  0  0
  180.8130   18.9875   44.1454 H   0  0  0  0  0  0  0  0  0  0  0  0
  181.7307   18.8503   45.6776 H   0  0  0  0  0  0  0  0  0  0  0  0
  180.9067   18.4334   42.6248 H   0  0  0  0  0  0  0  0  0  0  0  0
  180.9564   17.3073   40.3976 H   0  0  0  0  0  0  0  0  0  0  0  0
  180.8802   13.4430   42.3259 H   0  0  0  0  0  0  0  0  0  0  0  0
  1  2  3  0
  2  3  1  0
  3  4  1  0
  4  5  1  0
  4  6  1  0
  6  7  1  0
  7  8  1  0
  8  9  1  0
  9 10  1  0
 10 11  2  0
 11 12  1  0
 12 13  2  0
 13 14  1  0
 13 15  1  0
 15 16  2  0
 16 17  1  0
 16 10  1  0
  1 18  1  0
  3 19  1  0
  3 20  1  0
  4 21  1  1
  5 22  1  0
  5 23  1  0
  5 24  1  0
  6 25  1  0
  6 26  1  0
  7 27  1  0
  7 28  1  0
  8 29  1  0
  8 30  1  0
 11 31  1  0
 12 32  1  0
 15 33  1  0
M  CHG  1   4   1
M  END
>  <meeko>  (2) 
{"is_sidechain": [false], "free_energy": -6.715, "intermolecular_energy": -9.042, "internal_energy": -0.403}

$$$$
clorgyline_out
     RDKit          3D

 33 33  0  0  0  0  0  0  0  0999 V2000
  180.9040   14.9600   40.1570 C   0  0  0  0  0  0  0  0  0  0  0  0
  181.5220   14.8810   41.1840 C   0  0  0  0  0  0  0  0  0  0  0  0
  182.2820   14.7870   42.4420 C   0  0  0  0  0  0  0  0  0  0  0  0
  181.5710   15.2910   43.6320 N   0  0  2  0  0  0  0  0  0  0  0  0
  180.4170   14.4530   43.9590 C   0  0  0  0  0  0  0  0  0  0  0  0
  181.2150   16.7140   43.4940 C   0  0  0  0  0  0  0  0  0  0  0  0
  180.4520   17.2460   44.7160 C   0  0  0  0  0  0  0  0  0  0  0  0
  180.7500   18.7240   44.9690 C   0  0  0  0  0  0  0  0  0  0  0  0
  180.5490   19.0020   46.3520 O   0  0  0  0  0  0  0  0  0  0  0  0
  179.6780   20.0040   46.6880 C   0  0  0  0  0  0  0  0  0  0  0  0
  178.2900   19.8520   46.7780 C   0  0  0  0  0  0  0  0  0  0  0  0
  177.4810   20.9400   47.1250 C   0  0  0  0  0  0  0  0  0  0  0  0
  178.0550   22.1830   47.3800 C   0  0  0  0  0  0  0  0  0  0  0  0
  177.0510   23.5140   47.8050 Cl  0  0  0  0  0  0  0  0  0  0  0  0
  179.4320   22.3550   47.2940 C   0  0  0  0  0  0  0  0  0  0  0  0
  180.2380   21.2690   46.9470 C   0  0  0  0  0  0  0  0  0  0  0  0
  181.9470   21.5290   46.8540 Cl  0  0  0  0  0  0  0  0  0  0  0  0
  180.3381   15.0323   39.2165 H   0  0  0  0  0  0  0  0  0  0  0  0
  182.5302   13.7292   42.6139 H   0  0  0  0  0  0  0  0  0  0  0  0
  183.1689   15.4255   42.3170 H   0  0  0  0  0  0  0  0  0  0  0  0
  182.2120   15.2310   44.4240 H   0  0  0  0  0  0  0  0  0  0  0  0
  180.3154   14.3792   45.0518 H   0  0  0  0  0  0  0  0  0  0  0  0
  179.5063   14.9016   43.5355 H   0  0  0  0  0  0  0  0  0  0  0  0
  180.5618   13.4482   43.5355 H   0  0  0  0  0  0  0  0  0  0  0  0
  182.1383   17.2992   43.3714 H   0  0  0  0  0  0  0  0  0  0  0  0
  180.5571   16.8125   42.6179 H   0  0  0  0  0  0  0  0  0  0  0  0
  179.3725   17.1245   44.5429 H   0  0  0  0  0  0  0  0  0  0  0  0
  180.7764   16.6748   45.5983 H   0  0  0  0  0  0  0  0  0  0  0  0
  181.7927   18.9432   44.6954 H   0  0  0  0  0  0  0  0  0  0  0  0
  180.0808   19.3500   44.3605 H   0  0  0  0  0  0  0  0  0  0  0  0
  177.8324   18.8725   46.5750 H   0  0  0  0  0  0  0  0  0  0  0  0
  176.3907   20.8132   47.1964 H   0  0  0  0  0  0  0  0  0  0  0  0
  179.8823   23.3377   47.4975 H   0  0  0  0  0  0  0  0  0  0  0  0
  1  2  3  0
  2  3  1  0
  3  4  1  0
  4  5  1  0
  4  6  1  0
  6  7  1  0
  7  8  1  0
  8  9  1  0
  9 10  1  0
 10 11  2  0
 11 12  1  0
 12 13  2  0
 13 14  1  0
 13 15  1  0
 15 16  2  0
 16 17  1  0
 16 10  1  0
  1 18  1  0
  3 19  1  0
  3 20  1  0
  4 21  1  1
  5 22  1  0
  5 23  1  0
  5 24  1  0
  6 25  1  0
  6 26  1  0
  7 27  1  0
  7 28  1  0
  8 29  1  0
  8 30  1  0
 11 31  1  0
 12 32  1  0
 15 33  1  0
M  CHG  1   4   1
M  END
>  <meeko>  (3) 
{"is_sidechain": [false], "free_energy": -6.374, "intermolecular_energy": -8.595, "internal_energy": -0.39}

$$$$
clorgyline_out
     RDKit          3D

 33 33  0  0  0  0  0  0  0  0999 V2000
  180.9970   14.7870   40.0210 C   0  0  0  0  0  0  0  0  0  0  0  0
  180.9250   15.6850   40.8160 C   0  0  0  0  0  0  0  0  0  0  0  0
  180.8330   16.7830   41.7930 C   0  0  0  0  0  0  0  0  0  0  0  0
  181.6440   16.5970   43.0100 N   0  0  2  0  0  0  0  0  0  0  0  0
  181.3290   15.3310   43.6730 C   0  0  0  0  0  0  0  0  0  0  0  0
  181.5390   17.7530   43.9180 C   0  0  0  0  0  0  0  0  0  0  0  0
  180.4110   17.5860   44.9470 C   0  0  0  0  0  0  0  0  0  0  0  0
  180.1950   18.8610   45.7600 C   0  0  0  0  0  0  0  0  0  0  0  0
  178.8390   18.9010   46.1990 O   0  0  0  0  0  0  0  0  0  0  0  0
  178.3740   20.0650   46.7520 C   0  0  0  0  0  0  0  0  0  0  0  0
  179.1630   21.1910   47.0090 C   0  0  0  0  0  0  0  0  0  0  0  0
  178.5950   22.3340   47.5820 C   0  0  0  0  0  0  0  0  0  0  0  0
  177.2400   22.3550   47.9040 C   0  0  0  0  0  0  0  0  0  0  0  0
  176.5530   23.7660   48.6090 Cl  0  0  0  0  0  0  0  0  0  0  0  0
  176.4400   21.2450   47.6580 C   0  0  0  0  0  0  0  0  0  0  0  0
  177.0080   20.1040   47.0860 C   0  0  0  0  0  0  0  0  0  0  0  0
  175.9740   18.7460   46.7960 Cl  0  0  0  0  0  0  0  0  0  0  0  0
  181.0629   13.9649   39.2932 H   0  0  0  0  0  0  0  0  0  0  0  0
  181.1637   17.7088   41.2995 H   0  0  0  0  0  0  0  0  0  0  0  0
  179.7840   16.8176   42.1222 H   0  0  0  0  0  0  0  0  0  0  0  0
  182.6220   16.5450   42.7240 H   0  0  0  0  0  0  0  0  0  0  0  0
  181.3635   15.4698   44.7637 H   0  0  0  0  0  0  0  0  0  0  0  0
  180.3218   15.0027   43.3768 H   0  0  0  0  0  0  0  0  0  0  0  0
  182.0649   14.5690   43.3768 H   0  0  0  0  0  0  0  0  0  0  0  0
  182.4924   17.8693   44.4541 H   0  0  0  0  0  0  0  0  0  0  0  0
  181.3098   18.6396   43.3086 H   0  0  0  0  0  0  0  0  0  0  0  0
  179.4791   17.3386   44.4175 H   0  0  0  0  0  0  0  0  0  0  0  0
  180.6957   16.7810   45.6405 H   0  0  0  0  0  0  0  0  0  0  0  0
  180.8661   18.8620   46.6316 H   0  0  0  0  0  0  0  0  0  0  0  0
  180.4132   19.7422   45.1388 H   0  0  0  0  0  0  0  0  0  0  0  0
  180.2343   21.1778   46.7596 H   0  0  0  0  0  0  0  0  0  0  0  0
  179.2197   23.2178   47.7786 H   0  0  0  0  0  0  0  0  0  0  0  0
  175.3698   21.2649   47.9114 H   0  0  0  0  0  0  0  0  0  0  0  0
  1  2  3  0
  2  3  1  0
  3  4  1  0
  4  5  1  0
  4  6  1  0
  6  7  1  0
  7  8  1  0
  8  9  1  0
  9 10  1  0
 10 11  2  0
 11 12  1  0
 12 13  2  0
 13 14  1  0
 13 15  1  0
 15 16  2  0
 16 17  1  0
 16 10  1  0
  1 18  1  0
  3 19  1  0
  3 20  1  0
  4 21  1  6
  5 22  1  0
  5 23  1  0
  5 24  1  0
  6 25  1  0
  6 26  1  0
  7 27  1  0
  7 28  1  0
  8 29  1  0
  8 30  1  0
 11 31  1  0
 12 32  1  0
 15 33  1  0
M  CHG  1   4   1
M  END
>  <meeko>  (4) 
{"is_sidechain": [false], "free_energy": -6.348, "intermolecular_energy": -8.632, "internal_energy": -0.318}

$$$$
clorgyline_out
     RDKit          3D

 33 33  0  0  0  0  0  0  0  0999 V2000
  181.0070   14.9810   40.3810 C   0  0  0  0  0  0  0  0  0  0  0  0
  181.5730   15.0520   41.4370 C   0  0  0  0  0  0  0  0  0  0  0  0
  182.2700   15.1420   42.7320 C   0  0  0  0  0  0  0  0  0  0  0  0
  181.4730   15.7310   43.8220 N   0  0  2  0  0  0  0  0  0  0  0  0
  180.4840   14.7810   44.3340 C   0  0  0  0  0  0  0  0  0  0  0  0
  180.8700   17.0160   43.4260 C   0  0  0  0  0  0  0  0  0  0  0  0
  181.2030   18.1450   44.4120 C   0  0  0  0  0  0  0  0  0  0  0  0
  180.1720   18.2360   45.5360 C   0  0  0  0  0  0  0  0  0  0  0  0
  179.6320   19.5560   45.5580 O   0  0  0  0  0  0  0  0  0  0  0  0
  178.5820   19.8090   46.4000 C   0  0  0  0  0  0  0  0  0  0  0  0
  177.3380   19.1740   46.3290 C   0  0  0  0  0  0  0  0  0  0  0  0
  176.3230   19.5050   47.2340 C   0  0  0  0  0  0  0  0  0  0  0  0
  176.5470   20.4730   48.2110 C   0  0  0  0  0  0  0  0  0  0  0  0
  175.2930   20.8740   49.3180 Cl  0  0  0  0  0  0  0  0  0  0  0  0
  177.7760   21.1170   48.2960 C   0  0  0  0  0  0  0  0  0  0  0  0
  178.7880   20.7860   47.3910 C   0  0  0  0  0  0  0  0  0  0  0  0
  180.3030   21.6110   47.5370 Cl  0  0  0  0  0  0  0  0  0  0  0  0
  180.4883   14.9159   39.4132 H   0  0  0  0  0  0  0  0  0  0  0  0
  182.5645   14.1260   43.0336 H   0  0  0  0  0  0  0  0  0  0  0  0
  183.1271   15.8137   42.5767 H   0  0  0  0  0  0  0  0  0  0  0  0
  182.1080   15.9380   44.5940 H   0  0  0  0  0  0  0  0  0  0  0  0
  180.4979   14.7943   45.4338 H   0  0  0  0  0  0  0  0  0  0  0  0
  179.4833   15.0651   43.9765 H   0  0  0  0  0  0  0  0  0  0  0  0
  180.7276   13.7697   43.9765 H   0  0  0  0  0  0  0  0  0  0  0  0
  181.2485   17.2925   42.4309 H   0  0  0  0  0  0  0  0  0  0  0  0
  179.7776   16.8869   43.4190 H   0  0  0  0  0  0  0  0  0  0  0  0
  182.1933   17.9542   44.8512 H   0  0  0  0  0  0  0  0  0  0  0  0
  181.1933   19.0964   43.8599 H   0  0  0  0  0  0  0  0  0  0  0  0
  179.3655   17.5095   45.3578 H   0  0  0  0  0  0  0  0  0  0  0  0
  180.6499   18.0113   46.5009 H   0  0  0  0  0  0  0  0  0  0  0  0
  177.1564   18.4106   45.5581 H   0  0  0  0  0  0  0  0  0  0  0  0
  175.3474   19.0005   47.1740 H   0  0  0  0  0  0  0  0  0  0  0  0
  177.9503   21.8803   49.0687 H   0  0  0  0  0  0  0  0  0  0  0  0
  1  2  3  0
  2  3  1  0
  3  4  1  0
  4  5  1  0
  4  6  1  0
  6  7  1  0
  7  8  1  0
  8  9  1  0
  9 10  1  0
 10 11  2  0
 11 12  1  0
 12 13  2  0
 13 14  1  0
 13 15  1  0
 15 16  2  0
 16 17  1  0
 16 10  1  0
  1 18  1  0
  3 19  1  0
  3 20  1  0
  4 21  1  1
  5 22  1  0
  5 23  1  0
  5 24  1  0
  6 25  1  0
  6 26  1  0
  7 27  1  0
  7 28  1  0
  8 29  1  0
  8 30  1  0
 11 31  1  0
 12 32  1  0
 15 33  1  0
M  CHG  1   4   1
M  END
>  <meeko>  (5) 
{"is_sidechain": [false], "free_energy": -6.223, "intermolecular_energy": -8.395, "internal_energy": -0.387}

$$$$
clorgyline_out
     RDKit          3D

 33 33  0  0  0  0  0  0  0  0999 V2000
  175.5100   18.0840   46.6090 C   0  0  0  0  0  0  0  0  0  0  0  0
  175.5870   19.1940   47.0630 C   0  0  0  0  0  0  0  0  0  0  0  0
  175.6770   20.5540   47.6200 C   0  0  0  0  0  0  0  0  0  0  0  0
  176.5530   20.6800   48.7990 N   0  0  2  0  0  0  0  0  0  0  0  0
  175.8640   20.2690   50.0230 C   0  0  0  0  0  0  0  0  0  0  0  0
  177.1350   22.0300   48.9050 C   0  0  0  0  0  0  0  0  0  0  0  0
  177.4860   22.6230   47.5330 C   0  0  0  0  0  0  0  0  0  0  0  0
  178.9970   22.6810   47.3120 C   0  0  0  0  0  0  0  0  0  0  0  0
  179.5800   21.4770   47.8060 O   0  0  0  0  0  0  0  0  0  0  0  0
  179.9210   20.5070   46.9010 C   0  0  0  0  0  0  0  0  0  0  0  0
  179.0940   19.4410   46.5340 C   0  0  0  0  0  0  0  0  0  0  0  0
  179.5340   18.4940   45.6020 C   0  0  0  0  0  0  0  0  0  0  0  0
  180.8030   18.6080   45.0370 C   0  0  0  0  0  0  0  0  0  0  0  0
  181.3350   17.4380   43.8930 Cl  0  0  0  0  0  0  0  0  0  0  0  0
  181.6400   19.6590   45.3920 C   0  0  0  0  0  0  0  0  0  0  0  0
  181.1990   20.6030   46.3220 C   0  0  0  0  0  0  0  0  0  0  0  0
  182.2750   21.8970   46.7320 Cl  0  0  0  0  0  0  0  0  0  0  0  0
  175.4395   17.0680   46.1934 H   0  0  0  0  0  0  0  0  0  0  0  0
  176.0615   21.2212   46.8345 H   0  0  0  0  0  0  0  0  0  0  0  0
  174.6638   20.8199   47.9559 H   0  0  0  0  0  0  0  0  0  0  0  0
  177.3370   20.0390   48.6730 H   0  0  0  0  0  0  0  0  0  0  0  0
  176.4363   20.6104   50.8982 H   0  0  0  0  0  0  0  0  0  0  0  0
  174.8588   20.7152   50.0454 H   0  0  0  0  0  0  0  0  0  0  0  0
  175.7790   19.1725   50.0454 H   0  0  0  0  0  0  0  0  0  0  0  0
  176.4082   22.6906   49.4003 H   0  0  0  0  0  0  0  0  0  0  0  0
  178.0662   21.9502   49.4851 H   0  0  0  0  0  0  0  0  0  0  0  0
  177.0347   21.9978   46.7485 H   0  0  0  0  0  0  0  0  0  0  0  0
  177.0940   23.6500   47.4929 H   0  0  0  0  0  0  0  0  0  0  0  0
  179.2099   22.7812   46.2375 H   0  0  0  0  0  0  0  0  0  0  0  0
  179.4196   23.5465   47.8434 H   0  0  0  0  0  0  0  0  0  0  0  0
  178.0929   19.3462   46.9798 H   0  0  0  0  0  0  0  0  0  0  0  0
  178.8777   17.6591   45.3152 H   0  0  0  0  0  0  0  0  0  0  0  0
  182.6410   19.7466   44.9445 H   0  0  0  0  0  0  0  0  0  0  0  0
  1  2  3  0
  2  3  1  0
  3  4  1  0
  4  5  1  0
  4  6  1  0
  6  7  1  0
  7  8  1  0
  8  9  1  0
  9 10  1  0
 10 11  2  0
 11 12  1  0
 12 13  2  0
 13 14  1  0
 13 15  1  0
 15 16  2  0
 16 17  1  0
 16 10  1  0
  1 18  1  0
  3 19  1  0
  3 20  1  0
  4 21  1  6
  5 22  1  0
  5 23  1  0
  5 24  1  0
  6 25  1  0
  6 26  1  0
  7 27  1  0
  7 28  1  0
  8 29  1  0
  8 30  1  0
 11 31  1  0
 12 32  1  0
 15 33  1  0
M  CHG  1   4   1
M  END
>  <meeko>  (6) 
{"is_sidechain": [false], "free_energy": -6.223, "intermolecular_energy": -7.819, "internal_energy": -0.961}

$$$$
clorgyline_out
     RDKit          3D

 33 33  0  0  0  0  0  0  0  0999 V2000
  181.4750   14.4720   41.6770 C   0  0  0  0  0  0  0  0  0  0  0  0
  181.2560   15.4770   42.2970 C   0  0  0  0  0  0  0  0  0  0  0  0
  180.9840   16.7100   43.0550 C   0  0  0  0  0  0  0  0  0  0  0  0
  180.8420   16.5200   44.5110 N   0  0  2  0  0  0  0  0  0  0  0  0
  180.0780   15.3110   44.8200 C   0  0  0  0  0  0  0  0  0  0  0  0
  180.2930   17.7190   45.1670 C   0  0  0  0  0  0  0  0  0  0  0  0
  181.2370   18.9260   45.0630 C   0  0  0  0  0  0  0  0  0  0  0  0
  180.4970   20.2440   45.2870 C   0  0  0  0  0  0  0  0  0  0  0  0
  179.1690   19.9570   45.7220 O   0  0  0  0  0  0  0  0  0  0  0  0
  178.5190   20.8980   46.4740 C   0  0  0  0  0  0  0  0  0  0  0  0
  179.0990   22.0860   46.9310 C   0  0  0  0  0  0  0  0  0  0  0  0
  178.3520   22.9870   47.6990 C   0  0  0  0  0  0  0  0  0  0  0  0
  177.0260   22.7020   48.0170 C   0  0  0  0  0  0  0  0  0  0  0  0
  176.1180   23.8150   48.9630 Cl  0  0  0  0  0  0  0  0  0  0  0  0
  176.4330   21.5250   47.5740 C   0  0  0  0  0  0  0  0  0  0  0  0
  177.1800   20.6270   46.8070 C   0  0  0  0  0  0  0  0  0  0  0  0
  176.3990   19.1760   46.2750 Cl  0  0  0  0  0  0  0  0  0  0  0  0
  181.6756   13.5515   41.1091 H   0  0  0  0  0  0  0  0  0  0  0  0
  181.8144   17.4099   42.8802 H   0  0  0  0  0  0  0  0  0  0  0  0
  180.0159   17.0886   42.6953 H   0  0  0  0  0  0  0  0  0  0  0  0
  181.7780   16.3850   44.8970 H   0  0  0  0  0  0  0  0  0  0  0  0
  180.0035   15.1932   45.9111 H   0  0  0  0  0  0  0  0  0  0  0  0
  179.0688   15.3952   44.3906 H   0  0  0  0  0  0  0  0  0  0  0  0
  180.5873   14.4357   44.3906 H   0  0  0  0  0  0  0  0  0  0  0  0
  179.3362   17.9764   44.6893 H   0  0  0  0  0  0  0  0  0  0  0  0
  180.1606   17.4871   46.2341 H   0  0  0  0  0  0  0  0  0  0  0  0
  182.0267   18.8272   45.8223 H   0  0  0  0  0  0  0  0  0  0  0  0
  181.6639   18.9407   44.0493 H   0  0  0  0  0  0  0  0  0  0  0  0
  181.0180   20.8348   46.0548 H   0  0  0  0  0  0  0  0  0  0  0  0
  180.4674   20.8201   44.3504 H   0  0  0  0  0  0  0  0  0  0  0  0
  180.1469   22.3133   46.6858 H   0  0  0  0  0  0  0  0  0  0  0  0
  178.8128   23.9214   48.0519 H   0  0  0  0  0  0  0  0  0  0  0  0
  175.3853   21.3027   47.8250 H   0  0  0  0  0  0  0  0  0  0  0  0
  1  2  3  0
  2  3  1  0
  3  4  1  0
  4  5  1  0
  4  6  1  0
  6  7  1  0
  7  8  1  0
  8  9  1  0
  9 10  1  0
 10 11  2  0
 11 12  1  0
 12 13  2  0
 13 14  1  0
 13 15  1  0
 15 16  2  0
 16 17  1  0
 16 10  1  0
  1 18  1  0
  3 19  1  0
  3 20  1  0
  4 21  1  1
  5 22  1  0
  5 23  1  0
  5 24  1  0
  6 25  1  0
  6 26  1  0
  7 27  1  0
  7 28  1  0
  8 29  1  0
  8 30  1  0
 11 31  1  0
 12 32  1  0
 15 33  1  0
M  CHG  1   4   1
M  END
>  <meeko>  (7) 
{"is_sidechain": [false], "free_energy": -6.022, "intermolecular_energy": -8.173, "internal_energy": -0.336}

$$$$
clorgyline_out
     RDKit          3D

 33 33  0  0  0  0  0  0  0  0999 V2000
  176.5720   23.3380   48.7470 C   0  0  0  0  0  0  0  0  0  0  0  0
  175.7720   22.4530   48.6060 C   0  0  0  0  0  0  0  0  0  0  0  0
  174.7930   21.3670   48.4300 C   0  0  0  0  0  0  0  0  0  0  0  0
  175.1180   20.1210   49.1480 N   0  0  2  0  0  0  0  0  0  0  0  0
  175.8680   20.3910   50.3750 C   0  0  0  0  0  0  0  0  0  0  0  0
  175.7960   19.1480   48.2730 C   0  0  0  0  0  0  0  0  0  0  0  0
  175.4740   19.3740   46.7890 C   0  0  0  0  0  0  0  0  0  0  0  0
  176.7370   19.6420   45.9710 C   0  0  0  0  0  0  0  0  0  0  0  0
  177.8650   19.1540   46.6940 O   0  0  0  0  0  0  0  0  0  0  0  0
  179.0330   19.8650   46.6230 C   0  0  0  0  0  0  0  0  0  0  0  0
  179.2010   21.1650   47.1100 C   0  0  0  0  0  0  0  0  0  0  0  0
  180.4360   21.8120   46.9860 C   0  0  0  0  0  0  0  0  0  0  0  0
  181.5050   21.1630   46.3720 C   0  0  0  0  0  0  0  0  0  0  0  0
  183.0190   21.9670   46.2240 Cl  0  0  0  0  0  0  0  0  0  0  0  0
  181.3570   19.8710   45.8800 C   0  0  0  0  0  0  0  0  0  0  0  0
  180.1240   19.2270   46.0040 C   0  0  0  0  0  0  0  0  0  0  0  0
  179.9860   17.6190   45.3780 Cl  0  0  0  0  0  0  0  0  0  0  0  0
  177.3046   24.1484   48.8761 H   0  0  0  0  0  0  0  0  0  0  0  0
  173.8167   21.7245   48.7892 H   0  0  0  0  0  0  0  0  0  0  0  0
  174.7957   21.1175   47.3587 H   0  0  0  0  0  0  0  0  0  0  0  0
  174.2380   19.6880   49.4300 H   0  0  0  0  0  0  0  0  0  0  0  0
  175.2377   20.1641   51.2475 H   0  0  0  0  0  0  0  0  0  0  0  0
  176.7693   19.7609   50.4000 H   0  0  0  0  0  0  0  0  0  0  0  0
  176.1609   21.4510   50.4000 H   0  0  0  0  0  0  0  0  0  0  0  0
  176.8826   19.2402   48.4170 H   0  0  0  0  0  0  0  0  0  0  0  0
  175.4378   18.1443   48.5455 H   0  0  0  0  0  0  0  0  0  0  0  0
  174.9756   18.4774   46.3918 H   0  0  0  0  0  0  0  0  0  0  0  0
  174.8209   20.2556   46.7102 H   0  0  0  0  0  0  0  0  0  0  0  0
  176.6668   19.1251   45.0025 H   0  0  0  0  0  0  0  0  0  0  0  0
  176.8454   20.7222   45.7940 H   0  0  0  0  0  0  0  0  0  0  0  0
  178.3585   21.6817   47.5929 H   0  0  0  0  0  0  0  0  0  0  0  0
  180.5626   22.8336   47.3736 H   0  0  0  0  0  0  0  0  0  0  0  0
  182.2035   19.3606   45.3974 H   0  0  0  0  0  0  0  0  0  0  0  0
  1  2  3  0
  2  3  1  0
  3  4  1  0
  4  5  1  0
  4  6  1  0
  6  7  1  0
  7  8  1  0
  8  9  1  0
  9 10  1  0
 10 11  2  0
 11 12  1  0
 12 13  2  0
 13 14  1  0
 13 15  1  0
 15 16  2  0
 16 17  1  0
 16 10  1  0
  1 18  1  0
  3 19  1  0
  3 20  1  0
  4 21  1  1
  5 22  1  0
  5 23  1  0
  5 24  1  0
  6 25  1  0
  6 26  1  0
  7 27  1  0
  7 28  1  0
  8 29  1  0
  8 30  1  0
 11 31  1  0
 12 32  1  0
 15 33  1  0
M  CHG  1   4   1
M  END
>  <meeko>  (8) 
{"is_sidechain": [false], "free_energy": -5.889, "intermolecular_energy": -7.73, "internal_energy": -0.599}

$$$$
clorgyline_out
     RDKit          3D

 33 33  0  0  0  0  0  0  0  0999 V2000
  183.6940   22.3330   45.5590 C   0  0  0  0  0  0  0  0  0  0  0  0
  182.7850   21.7720   46.1070 C   0  0  0  0  0  0  0  0  0  0  0  0
  181.6690   21.0870   46.7830 C   0  0  0  0  0  0  0  0  0  0  0  0
  180.4710   20.8890   45.9480 N   0  0  2  0  0  0  0  0  0  0  0  0
  179.2440   21.1300   46.7080 C   0  0  0  0  0  0  0  0  0  0  0  0
  180.4770   19.5720   45.2870 C   0  0  0  0  0  0  0  0  0  0  0  0
  179.5070   18.5820   45.9500 C   0  0  0  0  0  0  0  0  0  0  0  0
  179.7720   17.1450   45.5020 C   0  0  0  0  0  0  0  0  0  0  0  0
  180.9930   17.1110   44.7660 O   0  0  0  0  0  0  0  0  0  0  0  0
  180.9710   16.5800   43.5040 C   0  0  0  0  0  0  0  0  0  0  0  0
  180.9620   17.3340   42.3260 C   0  0  0  0  0  0  0  0  0  0  0  0
  180.9350   16.6970   41.0800 C   0  0  0  0  0  0  0  0  0  0  0  0
  180.9120   15.3060   41.0070 C   0  0  0  0  0  0  0  0  0  0  0  0
  180.8770   14.5340   39.4710 Cl  0  0  0  0  0  0  0  0  0  0  0  0
  180.9170   14.5400   42.1670 C   0  0  0  0  0  0  0  0  0  0  0  0
  180.9440   15.1760   43.4100 C   0  0  0  0  0  0  0  0  0  0  0  0
  180.9530   14.1820   44.8270 Cl  0  0  0  0  0  0  0  0  0  0  0  0
  184.5269   22.8470   45.0569 H   0  0  0  0  0  0  0  0  0  0  0  0
  182.0231   20.0994   47.1136 H   0  0  0  0  0  0  0  0  0  0  0  0
  181.3633   21.7383   47.6151 H   0  0  0  0  0  0  0  0  0  0  0  0
  180.4960   21.5840   45.2010 H   0  0  0  0  0  0  0  0  0  0  0  0
  179.4651   21.0866   47.7847 H   0  0  0  0  0  0  0  0  0  0  0  0
  178.8454   22.1236   46.4553 H   0  0  0  0  0  0  0  0  0  0  0  0
  178.4992   20.3610   46.4553 H   0  0  0  0  0  0  0  0  0  0  0  0
  180.1843   19.7030   44.2348 H   0  0  0  0  0  0  0  0  0  0  0  0
  181.4921   19.1571   45.3731 H   0  0  0  0  0  0  0  0  0  0  0  0
  179.6266   18.6428   47.0418 H   0  0  0  0  0  0  0  0  0  0  0  0
  178.4836   18.8515   45.6499 H   0  0  0  0  0  0  0  0  0  0  0  0
  179.8533   16.4920   46.3834 H   0  0  0  0  0  0  0  0  0  0  0  0
  178.9442   16.7920   44.8694 H   0  0  0  0  0  0  0  0  0  0  0  0
  180.9762   18.4326   42.3790 H   0  0  0  0  0  0  0  0  0  0  0  0
  180.9319   17.2955   40.1571 H   0  0  0  0  0  0  0  0  0  0  0  0
  180.8998   13.4418   42.1063 H   0  0  0  0  0  0  0  0  0  0  0  0
  1  2  3  0
  2  3  1  0
  3  4  1  0
  4  5  1  0
  4  6  1  0
  6  7  1  0
  7  8  1  0
  8  9  1  0
  9 10  1  0
 10 11  2  0
 11 12  1  0
 12 13  2  0
 13 14  1  0
 13 15  1  0
 15 16  2  0
 16 17  1  0
 16 10  1  0
  1 18  1  0
  3 19  1  0
  3 20  1  0
  4 21  1  6
  5 22  1  0
  5 23  1  0
  5 24  1  0
  6 25  1  0
  6 26  1  0
  7 27  1  0
  7 28  1  0
  8 29  1  0
  8 30  1  0
 11 31  1  0
 12 32  1  0
 15 33  1  0
M  CHG  1   4   1
M  END
>  <meeko>  (9) 
{"is_sidechain": [false], "free_energy": -5.731, "intermolecular_energy": -7.893, "internal_energy": -0.223}

$$$$
