DTQ_out
     RDKit          3D

 37 39  0  0  0  0  0  0  0  0999 V2000
  175.8420   20.2490   49.9930 C   0  0  0  0  0  0  0  0  0  0  0  0
  176.2350   21.1970   49.0060 O   0  0  0  0  0  0  0  0  0  0  0  0
  177.1680   20.7690   48.0960 C   0  0  0  0  0  0  0  0  0  0  0  0
  178.4870   21.0660   48.4650 C   0  0  0  0  0  0  0  0  0  0  0  0
  179.5770   20.7080   47.6860 C   0  0  0  0  0  0  0  0  0  0  0  0
  180.8020   21.0570   48.0960 N   0  0  0  0  0  0  0  0  0  0  0  0
  181.8240   20.7170   47.3040 C   0  0  0  0  0  0  0  0  0  0  0  0
  181.7410   20.0450   46.1530 N   0  0  0  0  0  0  0  0  0  0  0  0
  180.5060   19.6720   45.7740 C   0  0  0  0  0  0  0  0  0  0  0  0
  180.4660   18.9380   44.5670 N   0  0  0  0  0  0  0  0  0  0  0  0
  180.6090   17.5300   44.4400 C   0  0  0  0  0  0  0  0  0  0  0  0
  179.8640   16.6180   45.2010 C   0  0  0  0  0  0  0  0  0  0  0  0
  180.0760   15.2430   45.0700 C   0  0  0  0  0  0  0  0  0  0  0  0
  181.0460   14.7680   44.1920 C   0  0  0  0  0  0  0  0  0  0  0  0
  181.8080   15.6700   43.4590 C   0  0  0  0  0  0  0  0  0  0  0  0
  182.7560   15.1640   42.6200 O   0  0  0  0  0  0  0  0  0  0  0  0
  181.6060   17.0420   43.5850 C   0  0  0  0  0  0  0  0  0  0  0  0
  179.3470   20.0060   46.5010 C   0  0  0  0  0  0  0  0  0  0  0  0
  178.0120   19.7010   46.1210 C   0  0  0  0  0  0  0  0  0  0  0  0
  176.9210   20.0510   46.9220 C   0  0  0  0  0  0  0  0  0  0  0  0
  175.6270   19.7230   46.6220 O   0  0  0  0  0  0  0  0  0  0  0  0
  175.2380   18.3620   46.7830 C   0  0  0  0  0  0  0  0  0  0  0  0
  176.0161   20.6690   50.9947 H   0  0  0  0  0  0  0  0  0  0  0  0
  174.7735   20.0168   49.8734 H   0  0  0  0  0  0  0  0  0  0  0  0
  176.4328   19.3289   49.8734 H   0  0  0  0  0  0  0  0  0  0  0  0
  178.6644   21.6034   49.4082 H   0  0  0  0  0  0  0  0  0  0  0  0
  182.8294   21.0198   47.6318 H   0  0  0  0  0  0  0  0  0  0  0  0
  180.3240   19.4480   43.7380 H   0  0  0  0  0  0  0  0  0  0  0  0
  179.1061   16.9880   45.9072 H   0  0  0  0  0  0  0  0  0  0  0  0
  179.4759   14.5356   45.6611 H   0  0  0  0  0  0  0  0  0  0  0  0
  181.2084   13.6859   44.0790 H   0  0  0  0  0  0  0  0  0  0  0  0
  183.5960   15.5750   42.5600 H   0  0  0  0  0  0  0  0  0  0  0  0
  182.2302   17.7438   43.0124 H   0  0  0  0  0  0  0  0  0  0  0  0
  177.8323   19.1756   45.1714 H   0  0  0  0  0  0  0  0  0  0  0  0
  175.1701   18.1244   47.8549 H   0  0  0  0  0  0  0  0  0  0  0  0
  174.2582   18.2022   46.3092 H   0  0  0  0  0  0  0  0  0  0  0  0
  175.9853   17.7085   46.3092 H   0  0  0  0  0  0  0  0  0  0  0  0
  1  2  1  0
  2  3  1  0
  3  4  2  0
  4  5  1  0
  5  6  2  0
  6  7  1  0
  7  8  2  0
  8  9  1  0
  9 10  1  0
 10 11  1  0
 11 12  2  0
 12 13  1  0
 13 14  2  0
 14 15  1  0
 15 16  1  0
 15 17  2  0
  9 18  2  0
 18 19  1  0
 19 20  2  0
 20 21  1  0
 21 22  1  0
 20  3  1  0
 18  5  1  0
 17 11  1  0
  1 23  1  0
  1 24  1  0
  1 25  1  0
  4 26  1  0
  7 27  1  0
 10 28  1  0
 12 29  1  0
 13 30  1  0
 14 31  1  0
 16 32  1  0
 17 33  1  0
 19 34  1  0
 22 35  1  0
 22 36  1  0
 22 37  1  0
M  END
>  <meeko>  (1) 
{"is_sidechain": [false], "free_energy": -7.662, "intermolecular_energy": -9.678, "internal_energy": -0.678}

$$$$
DTQ_out
     RDKit          3D

 37 39  0  0  0  0  0  0  0  0999 V2000
  177.7070   23.7150   47.6880 C   0  0  0  0  0  0  0  0  0  0  0  0
  176.9370   22.5440   47.4380 O   0  0  0  0  0  0  0  0  0  0  0  0
  177.6310   21.4500   46.9870 C   0  0  0  0  0  0  0  0  0  0  0  0
  178.9810   21.7160   46.7190 C   0  0  0  0  0  0  0  0  0  0  0  0
  179.8560   20.7410   46.2650 C   0  0  0  0  0  0  0  0  0  0  0  0
  181.1220   21.0850   46.0040 N   0  0  0  0  0  0  0  0  0  0  0  0
  181.9280   20.1230   45.5420 C   0  0  0  0  0  0  0  0  0  0  0  0
  181.5940   18.8470   45.3350 N   0  0  0  0  0  0  0  0  0  0  0  0
  180.3270   18.5100   45.6360 C   0  0  0  0  0  0  0  0  0  0  0  0
  180.0240   17.1450   45.4320 N   0  0  0  0  0  0  0  0  0  0  0  0
  180.3790   16.3710   44.2950 C   0  0  0  0  0  0  0  0  0  0  0  0
  180.4000   14.9690   44.3060 C   0  0  0  0  0  0  0  0  0  0  0  0
  180.8000   14.2560   43.1730 C   0  0  0  0  0  0  0  0  0  0  0  0
  181.2000   14.9360   42.0260 C   0  0  0  0  0  0  0  0  0  0  0  0
  181.2100   16.3250   42.0220 C   0  0  0  0  0  0  0  0  0  0  0  0
  181.6210   16.9530   40.8830 O   0  0  0  0  0  0  0  0  0  0  0  0
  180.8160   17.0450   43.1470 C   0  0  0  0  0  0  0  0  0  0  0  0
  179.3740   19.4420   46.0900 C   0  0  0  0  0  0  0  0  0  0  0  0
  178.0060   19.1650   46.3610 C   0  0  0  0  0  0  0  0  0  0  0  0
  177.1360   20.1510   46.8350 C   0  0  0  0  0  0  0  0  0  0  0  0
  175.8300   19.9120   47.1660 O   0  0  0  0  0  0  0  0  0  0  0  0
  175.5500   19.5280   48.5080 C   0  0  0  0  0  0  0  0  0  0  0  0
  177.8053   23.8644   48.7734 H   0  0  0  0  0  0  0  0  0  0  0  0
  178.7058   23.5992   47.2419 H   0  0  0  0  0  0  0  0  0  0  0  0
  177.2049   24.5862   47.2419 H   0  0  0  0  0  0  0  0  0  0  0  0
  179.3604   22.7367   46.8748 H   0  0  0  0  0  0  0  0  0  0  0  0
  182.9643   20.4102   45.3106 H   0  0  0  0  0  0  0  0  0  0  0  0
  179.5220   16.6870   46.1440 H   0  0  0  0  0  0  0  0  0  0  0  0
  180.0991   14.4261   45.2141 H   0  0  0  0  0  0  0  0  0  0  0  0
  180.7989   13.1561   43.1873 H   0  0  0  0  0  0  0  0  0  0  0  0
  181.5060   14.3773   41.1292 H   0  0  0  0  0  0  0  0  0  0  0  0
  181.4430   16.5690   40.0470 H   0  0  0  0  0  0  0  0  0  0  0  0
  180.8479   18.1445   43.1343 H   0  0  0  0  0  0  0  0  0  0  0  0
  177.6222   18.1479   46.1932 H   0  0  0  0  0  0  0  0  0  0  0  0
  176.0539   20.2190   49.1998 H   0  0  0  0  0  0  0  0  0  0  0  0
  174.4642   19.5633   48.6805 H   0  0  0  0  0  0  0  0  0  0  0  0
  175.9156   18.5050   48.6805 H   0  0  0  0  0  0  0  0  0  0  0  0
  1  2  1  0
  2  3  1  0
  3  4  2  0
  4  5  1  0
  5  6  2  0
  6  7  1  0
  7  8  2  0
  8  9  1  0
  9 10  1  0
 10 11  1  0
 11 12  2  0
 12 13  1  0
 13 14  2  0
 14 15  1  0
 15 16  1  0
 15 17  2  0
  9 18  2  0
 18 19  1  0
 19 20  2  0
 20 21  1  0
 21 22  1  0
 20  3  1  0
 18  5  1  0
 17 11  1  0
  1 23  1  0
  1 24  1  0
  1 25  1  0
  4 26  1  0
  7 27  1  0
 10 28  1  0
 12 29  1  0
 13 30  1  0
 14 31  1  0
 16 32  1  0
 17 33  1  0
 19 34  1  0
 22 35  1  0
 22 36  1  0
 22 37  1  0
M  END
>  <meeko>  (2) 
{"is_sidechain": [false], "free_energy": -7.502, "intermolecular_energy": -10.061, "internal_energy": -0.092}

$$$$
DTQ_out
     RDKit          3D

 37 39  0  0  0  0  0  0  0  0999 V2000
  178.3950   23.7630   48.3020 C   0  0  0  0  0  0  0  0  0  0  0  0
  179.6970   23.1940   48.3900 O   0  0  0  0  0  0  0  0  0  0  0  0
  179.8740   21.9930   47.7510 C   0  0  0  0  0  0  0  0  0  0  0  0
  178.6790   21.2900   47.5410 C   0  0  0  0  0  0  0  0  0  0  0  0
  178.6410   20.0600   46.9020 C   0  0  0  0  0  0  0  0  0  0  0  0
  177.4620   19.4410   46.7690 N   0  0  0  0  0  0  0  0  0  0  0  0
  177.4720   18.2450   46.1720 C   0  0  0  0  0  0  0  0  0  0  0  0
  178.5420   17.6180   45.6770 N   0  0  0  0  0  0  0  0  0  0  0  0
  179.7130   18.2690   45.7890 C   0  0  0  0  0  0  0  0  0  0  0  0
  180.8150   17.5850   45.2270 N   0  0  0  0  0  0  0  0  0  0  0  0
  180.7550   16.6070   44.1990 C   0  0  0  0  0  0  0  0  0  0  0  0
  180.4240   15.2660   44.4420 C   0  0  0  0  0  0  0  0  0  0  0  0
  180.4240   14.3340   43.4010 C   0  0  0  0  0  0  0  0  0  0  0  0
  180.7710   14.7290   42.1120 C   0  0  0  0  0  0  0  0  0  0  0  0
  181.1300   16.0500   41.8730 C   0  0  0  0  0  0  0  0  0  0  0  0
  181.4750   16.3920   40.5990 O   0  0  0  0  0  0  0  0  0  0  0  0
  181.1360   16.9860   42.9040 C   0  0  0  0  0  0  0  0  0  0  0  0
  179.8390   19.5150   46.4340 C   0  0  0  0  0  0  0  0  0  0  0  0
  181.0540   20.2230   46.6430 C   0  0  0  0  0  0  0  0  0  0  0  0
  181.0790   21.4700   47.2730 C   0  0  0  0  0  0  0  0  0  0  0  0
  182.2180   22.2100   47.4390 O   0  0  0  0  0  0  0  0  0  0  0  0
  183.1520   22.2330   46.3640 C   0  0  0  0  0  0  0  0  0  0  0  0
  178.0009   23.9352   49.3144 H   0  0  0  0  0  0  0  0  0  0  0  0
  178.4487   24.7197   47.7618 H   0  0  0  0  0  0  0  0  0  0  0  0
  177.7294   23.0737   47.7618 H   0  0  0  0  0  0  0  0  0  0  0  0
  177.7361   21.7310   47.8966 H   0  0  0  0  0  0  0  0  0  0  0  0
  176.5057   17.7275   46.0796 H   0  0  0  0  0  0  0  0  0  0  0  0
  181.7060   17.8080   45.5790 H   0  0  0  0  0  0  0  0  0  0  0  0
  180.1621   14.9451   45.4610 H   0  0  0  0  0  0  0  0  0  0  0  0
  180.1496   13.2875   43.6001 H   0  0  0  0  0  0  0  0  0  0  0  0
  180.7611   14.0002   41.2881 H   0  0  0  0  0  0  0  0  0  0  0  0
  180.8770   16.8780   40.0660 H   0  0  0  0  0  0  0  0  0  0  0  0
  181.4399   18.0237   42.7022 H   0  0  0  0  0  0  0  0  0  0  0  0
  181.9993   19.7774   46.2997 H   0  0  0  0  0  0  0  0  0  0  0  0
  184.1750   22.2582   46.7676 H   0  0  0  0  0  0  0  0  0  0  0  0
  183.0233   21.3314   45.7471 H   0  0  0  0  0  0  0  0  0  0  0  0
  182.9791   23.1272   45.7471 H   0  0  0  0  0  0  0  0  0  0  0  0
  1  2  1  0
  2  3  1  0
  3  4  2  0
  4  5  1  0
  5  6  2  0
  6  7  1  0
  7  8  2  0
  8  9  1  0
  9 10  1  0
 10 11  1  0
 11 12  2  0
 12 13  1  0
 13 14  2  0
 14 15  1  0
 15 16  1  0
 15 17  2  0
  9 18  2  0
 18 19  1  0
 19 20  2  0
 20 21  1  0
 21 22  1  0
 20  3  1  0
 18  5  1  0
 17 11  1  0
  1 23  1  0
  1 24  1  0
  1 25  1  0
  4 26  1  0
  7 27  1  0
 10 28  1  0
 12 29  1  0
 13 30  1  0
 14 31  1  0
 16 32  1  0
 17 33  1  0
 19 34  1  0
 22 35  1  0
 22 36  1  0
 22 37  1  0
M  END
>  <meeko>  (3) 
{"is_sidechain": [false], "free_energy": -6.228, "intermolecular_energy": -8.193, "internal_energy": -0.351}

$$$$
DTQ_out
     RDKit          3D

 37 39  0  0  0  0  0  0  0  0999 V2000
  175.6470   20.9910   46.9160 C   0  0  0  0  0  0  0  0  0  0  0  0
  176.5460   20.6600   47.9700 O   0  0  0  0  0  0  0  0  0  0  0  0
  177.8780   20.8550   47.7090 C   0  0  0  0  0  0  0  0  0  0  0  0
  178.3890   19.9920   46.7290 C   0  0  0  0  0  0  0  0  0  0  0  0
  179.7110   20.0350   46.3140 C   0  0  0  0  0  0  0  0  0  0  0  0
  180.1260   19.1560   45.3950 N   0  0  0  0  0  0  0  0  0  0  0  0
  181.4140   19.2130   45.0410 C   0  0  0  0  0  0  0  0  0  0  0  0
  182.3210   20.0770   45.5030 N   0  0  0  0  0  0  0  0  0  0  0  0
  181.8800   20.9760   46.4000 C   0  0  0  0  0  0  0  0  0  0  0  0
  182.8640   21.8910   46.8390 N   0  0  0  0  0  0  0  0  0  0  0  0
  183.7090   22.6730   46.0070 C   0  0  0  0  0  0  0  0  0  0  0  0
  184.0850   22.2740   44.7170 C   0  0  0  0  0  0  0  0  0  0  0  0
  184.9560   23.0600   43.9560 C   0  0  0  0  0  0  0  0  0  0  0  0
  185.4720   24.2400   44.4850 C   0  0  0  0  0  0  0  0  0  0  0  0
  185.1260   24.6220   45.7750 C   0  0  0  0  0  0  0  0  0  0  0  0
  185.6630   25.7770   46.2600 O   0  0  0  0  0  0  0  0  0  0  0  0
  184.2610   23.8440   46.5420 C   0  0  0  0  0  0  0  0  0  0  0  0
  180.5570   20.9920   46.8810 C   0  0  0  0  0  0  0  0  0  0  0  0
  180.0450   21.8710   47.8750 C   0  0  0  0  0  0  0  0  0  0  0  0
  178.7060   21.8300   48.2740 C   0  0  0  0  0  0  0  0  0  0  0  0
  178.1610   22.6970   49.1810 O   0  0  0  0  0  0  0  0  0  0  0  0
  177.5450   23.8770   48.6770 C   0  0  0  0  0  0  0  0  0  0  0  0
  174.6954   21.3414   47.3422 H   0  0  0  0  0  0  0  0  0  0  0  0
  176.0860   21.7865   46.2959 H   0  0  0  0  0  0  0  0  0  0  0  0
  175.4653   20.1008   46.2959 H   0  0  0  0  0  0  0  0  0  0  0  0
  177.7150   19.2525   46.2720 H   0  0  0  0  0  0  0  0  0  0  0  0
  181.7592   18.4783   44.2986 H   0  0  0  0  0  0  0  0  0  0  0  0
  182.9730   21.9960   47.8110 H   0  0  0  0  0  0  0  0  0  0  0  0
  183.6918   21.3351   44.2999 H   0  0  0  0  0  0  0  0  0  0  0  0
  185.2336   22.7459   42.9390 H   0  0  0  0  0  0  0  0  0  0  0  0
  186.1493   24.8658   43.8853 H   0  0  0  0  0  0  0  0  0  0  0  0
  185.1200   26.5320   46.3800 H   0  0  0  0  0  0  0  0  0  0  0  0
  184.0114   24.1498   47.5687 H   0  0  0  0  0  0  0  0  0  0  0  0
  180.7207   22.6025   48.3422 H   0  0  0  0  0  0  0  0  0  0  0  0
  177.2164   24.5065   49.5171 H   0  0  0  0  0  0  0  0  0  0  0  0
  178.2675   24.4338   48.0622 H   0  0  0  0  0  0  0  0  0  0  0  0
  176.6751   23.6026   48.0622 H   0  0  0  0  0  0  0  0  0  0  0  0
  1  2  1  0
  2  3  1  0
  3  4  2  0
  4  5  1  0
  5  6  2  0
  6  7  1  0
  7  8  2  0
  8  9  1  0
  9 10  1  0
 10 11  1  0
 11 12  2  0
 12 13  1  0
 13 14  2  0
 14 15  1  0
 15 16  1  0
 15 17  2  0
  9 18  2  0
 18 19  1  0
 19 20  2  0
 20 21  1  0
 21 22  1  0
 20  3  1  0
 18  5  1  0
 17 11  1  0
  1 23  1  0
  1 24  1  0
  1 25  1  0
  4 26  1  0
  7 27  1  0
 10 28  1  0
 12 29  1  0
 13 30  1  0
 14 31  1  0
 16 32  1  0
 17 33  1  0
 19 34  1  0
 22 35  1  0
 22 36  1  0
 22 37  1  0
M  END
>  <meeko>  (4) 
{"is_sidechain": [false], "free_energy": -6.111, "intermolecular_energy": -8.326, "internal_energy": -0.07}

$$$$
DTQ_out
     RDKit          3D

 37 39  0  0  0  0  0  0  0  0999 V2000
  174.0720   24.5730   49.6940 C   0  0  0  0  0  0  0  0  0  0  0  0
  174.9320   23.5460   50.1770 O   0  0  0  0  0  0  0  0  0  0  0  0
  175.5730   22.7990   49.2220 C   0  0  0  0  0  0  0  0  0  0  0  0
  174.9510   21.5700   48.9610 C   0  0  0  0  0  0  0  0  0  0  0  0
  175.4360   20.6740   48.0220 C   0  0  0  0  0  0  0  0  0  0  0  0
  174.8000   19.5090   47.8550 N   0  0  0  0  0  0  0  0  0  0  0  0
  175.3150   18.6600   46.9600 C   0  0  0  0  0  0  0  0  0  0  0  0
  176.3920   18.8730   46.2000 N   0  0  0  0  0  0  0  0  0  0  0  0
  177.0000   20.0630   46.3550 C   0  0  0  0  0  0  0  0  0  0  0  0
  178.1170   20.2590   45.5110 N   0  0  0  0  0  0  0  0  0  0  0  0
  179.4790   20.2400   45.9110 C   0  0  0  0  0  0  0  0  0  0  0  0
  180.5340   20.0450   45.0080 C   0  0  0  0  0  0  0  0  0  0  0  0
  181.8550   19.9900   45.4600 C   0  0  0  0  0  0  0  0  0  0  0  0
  182.1330   20.1100   46.8190 C   0  0  0  0  0  0  0  0  0  0  0  0
  181.0880   20.2720   47.7200 C   0  0  0  0  0  0  0  0  0  0  0  0
  181.4020   20.3740   49.0430 O   0  0  0  0  0  0  0  0  0  0  0  0
  179.7680   20.3260   47.2800 C   0  0  0  0  0  0  0  0  0  0  0  0
  176.5770   21.0230   47.2950 C   0  0  0  0  0  0  0  0  0  0  0  0
  177.2130   22.2680   47.5530 C   0  0  0  0  0  0  0  0  0  0  0  0
  176.7050   23.1720   48.4900 C   0  0  0  0  0  0  0  0  0  0  0  0
  177.2510   24.4040   48.7250 O   0  0  0  0  0  0  0  0  0  0  0  0
  178.6670   24.4830   48.8580 C   0  0  0  0  0  0  0  0  0  0  0  0
  173.6247   25.1072   50.5452 H   0  0  0  0  0  0  0  0  0  0  0  0
  174.6521   25.2792   49.0818 H   0  0  0  0  0  0  0  0  0  0  0  0
  173.2749   24.1260   49.0818 H   0  0  0  0  0  0  0  0  0  0  0  0
  174.0430   21.3069   49.5233 H   0  0  0  0  0  0  0  0  0  0  0  0
  174.8029   17.6942   46.8381 H   0  0  0  0  0  0  0  0  0  0  0  0
  177.9330   20.4240   44.5580 H   0  0  0  0  0  0  0  0  0  0  0  0
  180.3198   19.9344   43.9347 H   0  0  0  0  0  0  0  0  0  0  0  0
  182.6762   19.8517   44.7414 H   0  0  0  0  0  0  0  0  0  0  0  0
  183.1727   20.0768   47.1767 H   0  0  0  0  0  0  0  0  0  0  0  0
  181.0750   19.7410   49.6510 H   0  0  0  0  0  0  0  0  0  0  0  0
  178.9507   20.4363   48.0079 H   0  0  0  0  0  0  0  0  0  0  0  0
  178.1286   22.5265   47.0009 H   0  0  0  0  0  0  0  0  0  0  0  0
  178.9348   24.4979   49.9248 H   0  0  0  0  0  0  0  0  0  0  0  0
  179.1299   23.6093   48.3760 H   0  0  0  0  0  0  0  0  0  0  0  0
  179.0298   25.4028   48.3760 H   0  0  0  0  0  0  0  0  0  0  0  0
  1  2  1  0
  2  3  1  0
  3  4  2  0
  4  5  1  0
  5  6  2  0
  6  7  1  0
  7  8  2  0
  8  9  1  0
  9 10  1  0
 10 11  1  0
 11 12  2  0
 12 13  1  0
 13 14  2  0
 14 15  1  0
 15 16  1  0
 15 17  2  0
  9 18  2  0
 18 19  1  0
 19 20  2  0
 20 21  1  0
 21 22  1  0
 20  3  1  0
 18  5  1  0
 17 11  1  0
  1 23  1  0
  1 24  1  0
  1 25  1  0
  4 26  1  0
  7 27  1  0
 10 28  1  0
 12 29  1  0
 13 30  1  0
 14 31  1  0
 16 32  1  0
 17 33  1  0
 19 34  1  0
 22 35  1  0
 22 36  1  0
 22 37  1  0
M  END
>  <meeko>  (5) 
{"is_sidechain": [false], "free_energy": -6.083, "intermolecular_energy": -8.365, "internal_energy": 0.005}

$$$$
DTQ_out
     RDKit          3D

 37 39  0  0  0  0  0  0  0  0999 V2000
  183.5020   22.5970   46.1150 C   0  0  0  0  0  0  0  0  0  0  0  0
  182.6390   22.4340   47.2360 O   0  0  0  0  0  0  0  0  0  0  0  0
  181.5780   21.5830   47.0600 C   0  0  0  0  0  0  0  0  0  0  0  0
  181.8810   20.4670   46.2680 C   0  0  0  0  0  0  0  0  0  0  0  0
  180.9480   19.4820   45.9800 C   0  0  0  0  0  0  0  0  0  0  0  0
  181.3110   18.4650   45.1910 N   0  0  0  0  0  0  0  0  0  0  0  0
  180.3750   17.5500   44.9150 C   0  0  0  0  0  0  0  0  0  0  0  0
  179.1190   17.5450   45.3690 N   0  0  0  0  0  0  0  0  0  0  0  0
  178.7820   18.5560   46.1880 C   0  0  0  0  0  0  0  0  0  0  0  0
  177.4540   18.4960   46.6700 N   0  0  0  0  0  0  0  0  0  0  0  0
  176.6940   19.5900   47.1620 C   0  0  0  0  0  0  0  0  0  0  0  0
  176.4370   20.7410   46.4040 C   0  0  0  0  0  0  0  0  0  0  0  0
  175.7200   21.8080   46.9520 C   0  0  0  0  0  0  0  0  0  0  0  0
  175.2720   21.7430   48.2690 C   0  0  0  0  0  0  0  0  0  0  0  0
  175.5520   20.6180   49.0330 C   0  0  0  0  0  0  0  0  0  0  0  0
  175.1050   20.5990   50.3210 O   0  0  0  0  0  0  0  0  0  0  0  0
  176.2670   19.5500   48.4970 C   0  0  0  0  0  0  0  0  0  0  0  0
  179.6660   19.6010   46.5200 C   0  0  0  0  0  0  0  0  0  0  0  0
  179.3520   20.7300   47.3250 C   0  0  0  0  0  0  0  0  0  0  0  0
  180.3040   21.7080   47.6230 C   0  0  0  0  0  0  0  0  0  0  0  0
  180.0600   22.7770   48.4420 O   0  0  0  0  0  0  0  0  0  0  0  0
  178.7380   23.3060   48.4570 C   0  0  0  0  0  0  0  0  0  0  0  0
  184.5264   22.7905   46.4660 H   0  0  0  0  0  0  0  0  0  0  0  0
  183.4898   21.6807   45.5066 H   0  0  0  0  0  0  0  0  0  0  0  0
  183.1564   23.4458   45.5066 H   0  0  0  0  0  0  0  0  0  0  0  0
  182.8975   20.3686   45.8593 H   0  0  0  0  0  0  0  0  0  0  0  0
  180.6676   16.7232   44.2511 H   0  0  0  0  0  0  0  0  0  0  0  0
  177.0160   17.6150   46.6620 H   0  0  0  0  0  0  0  0  0  0  0  0
  176.8030   20.8048   45.3686 H   0  0  0  0  0  0  0  0  0  0  0  0
  175.5094   22.6995   46.3429 H   0  0  0  0  0  0  0  0  0  0  0  0
  174.7001   22.5774   48.7011 H   0  0  0  0  0  0  0  0  0  0  0  0
  175.7170   20.5330   51.0280 H   0  0  0  0  0  0  0  0  0  0  0  0
  176.4970   18.6741   49.1215 H   0  0  0  0  0  0  0  0  0  0  0  0
  178.3324   20.8363   47.7238 H   0  0  0  0  0  0  0  0  0  0  0  0
  178.4077   23.4382   49.4979 H   0  0  0  0  0  0  0  0  0  0  0  0
  178.7262   24.2781   47.9423 H   0  0  0  0  0  0  0  0  0  0  0  0
  178.0589   22.6104   47.9423 H   0  0  0  0  0  0  0  0  0  0  0  0
  1  2  1  0
  2  3  1  0
  3  4  2  0
  4  5  1  0
  5  6  2  0
  6  7  1  0
  7  8  2  0
  8  9  1  0
  9 10  1  0
 10 11  1  0
 11 12  2  0
 12 13  1  0
 13 14  2  0
 14 15  1  0
 15 16  1  0
 15 17  2  0
  9 18  2  0
 18 19  1  0
 19 20  2  0
 20 21  1  0
 21 22  1  0
 20  3  1  0
 18  5  1  0
 17 11  1  0
  1 23  1  0
  1 24  1  0
  1 25  1  0
  4 26  1  0
  7 27  1  0
 10 28  1  0
 12 29  1  0
 13 30  1  0
 14 31  1  0
 16 32  1  0
 17 33  1  0
 19 34  1  0
 22 35  1  0
 22 36  1  0
 22 37  1  0
M  END
>  <meeko>  (6) 
{"is_sidechain": [false], "free_energy": -5.93, "intermolecular_energy": -8.531, "internal_energy": 0.364}

$$$$
DTQ_out
     RDKit          3D

 37 39  0  0  0  0  0  0  0  0999 V2000
  180.8450   17.1100   42.1900 C   0  0  0  0  0  0  0  0  0  0  0  0
  181.5550   16.9610   43.4150 O   0  0  0  0  0  0  0  0  0  0  0  0
  181.1450   17.7610   44.4510 C   0  0  0  0  0  0  0  0  0  0  0  0
  181.8780   18.9510   44.5630 C   0  0  0  0  0  0  0  0  0  0  0  0
  181.6130   19.9000   45.5390 C   0  0  0  0  0  0  0  0  0  0  0  0
  182.3790   20.9950   45.5950 N   0  0  0  0  0  0  0  0  0  0  0  0
  182.1090   21.8730   46.5670 C   0  0  0  0  0  0  0  0  0  0  0  0
  181.1330   21.7700   47.4740 N   0  0  0  0  0  0  0  0  0  0  0  0
  180.3510   20.6810   47.3810 C   0  0  0  0  0  0  0  0  0  0  0  0
  179.3130   20.6270   48.3390 N   0  0  0  0  0  0  0  0  0  0  0  0
  177.9300   20.8280   48.0850 C   0  0  0  0  0  0  0  0  0  0  0  0
  177.4130   21.0170   46.7960 C   0  0  0  0  0  0  0  0  0  0  0  0
  176.0490   21.2560   46.6050 C   0  0  0  0  0  0  0  0  0  0  0  0
  175.1940   21.3270   47.7020 C   0  0  0  0  0  0  0  0  0  0  0  0
  175.7080   21.1710   48.9830 C   0  0  0  0  0  0  0  0  0  0  0  0
  174.8390   21.2590   50.0300 O   0  0  0  0  0  0  0  0  0  0  0  0
  177.0660   20.9350   49.1840 C   0  0  0  0  0  0  0  0  0  0  0  0
  180.5600   19.6660   46.4270 C   0  0  0  0  0  0  0  0  0  0  0  0
  179.8130   18.4610   46.3190 C   0  0  0  0  0  0  0  0  0  0  0  0
  180.0770   17.5190   45.3200 C   0  0  0  0  0  0  0  0  0  0  0  0
  179.3430   16.3780   45.1440 O   0  0  0  0  0  0  0  0  0  0  0  0
  180.0120   15.1320   45.3130 C   0  0  0  0  0  0  0  0  0  0  0  0
  179.7888   17.3317   42.4030 H   0  0  0  0  0  0  0  0  0  0  0  0
  181.2833   17.9357   41.6103 H   0  0  0  0  0  0  0  0  0  0  0  0
  180.9143   16.1777   41.6103 H   0  0  0  0  0  0  0  0  0  0  0  0
  182.6941   19.1390   43.8498 H   0  0  0  0  0  0  0  0  0  0  0  0
  182.7510   22.7643   46.6254 H   0  0  0  0  0  0  0  0  0  0  0  0
  179.5730   20.4300   49.2680 H   0  0  0  0  0  0  0  0  0  0  0  0
  178.0864   20.9769   45.9272 H   0  0  0  0  0  0  0  0  0  0  0  0
  175.6509   21.3880   45.5881 H   0  0  0  0  0  0  0  0  0  0  0  0
  174.1186   21.5055   47.5550 H   0  0  0  0  0  0  0  0  0  0  0  0
  174.3910   22.0650   50.2000 H   0  0  0  0  0  0  0  0  0  0  0  0
  177.4608   20.8325   50.2056 H   0  0  0  0  0  0  0  0  0  0  0  0
  179.0061   18.2647   47.0404 H   0  0  0  0  0  0  0  0  0  0  0  0
  180.1260   14.9197   46.3863 H   0  0  0  0  0  0  0  0  0  0  0  0
  179.4220   14.3322   44.8416 H   0  0  0  0  0  0  0  0  0  0  0  0
  181.0046   15.1819   44.8416 H   0  0  0  0  0  0  0  0  0  0  0  0
  1  2  1  0
  2  3  1  0
  3  4  2  0
  4  5  1  0
  5  6  2  0
  6  7  1  0
  7  8  2  0
  8  9  1  0
  9 10  1  0
 10 11  1  0
 11 12  2  0
 12 13  1  0
 13 14  2  0
 14 15  1  0
 15 16  1  0
 15 17  2  0
  9 18  2  0
 18 19  1  0
 19 20  2  0
 20 21  1  0
 21 22  1  0
 20  3  1  0
 18  5  1  0
 17 11  1  0
  1 23  1  0
  1 24  1  0
  1 25  1  0
  4 26  1  0
  7 27  1  0
 10 28  1  0
 12 29  1  0
 13 30  1  0
 14 31  1  0
 16 32  1  0
 17 33  1  0
 19 34  1  0
 22 35  1  0
 22 36  1  0
 22 37  1  0
M  END
>  <meeko>  (7) 
{"is_sidechain": [false], "free_energy": -5.851, "intermolecular_energy": -7.859, "internal_energy": -0.209}

$$$$
DTQ_out
     RDKit          3D

 37 39  0  0  0  0  0  0  0  0999 V2000
  174.9340   23.9480   49.1760 C   0  0  0  0  0  0  0  0  0  0  0  0
  175.3350   22.7320   49.7990 O   0  0  0  0  0  0  0  0  0  0  0  0
  176.1270   21.9030   49.0470 C   0  0  0  0  0  0  0  0  0  0  0  0
  175.4160   20.8760   48.4100 C   0  0  0  0  0  0  0  0  0  0  0  0
  176.0320   19.9380   47.5950 C   0  0  0  0  0  0  0  0  0  0  0  0
  175.2850   18.9720   47.0480 N   0  0  0  0  0  0  0  0  0  0  0  0
  175.9200   18.0720   46.2910 C   0  0  0  0  0  0  0  0  0  0  0  0
  177.2260   18.0570   46.0110 N   0  0  0  0  0  0  0  0  0  0  0  0
  177.9560   19.0540   46.5400 C   0  0  0  0  0  0  0  0  0  0  0  0
  179.3260   19.0180   46.1950 N   0  0  0  0  0  0  0  0  0  0  0  0
  179.9600   18.0320   45.3940 C   0  0  0  0  0  0  0  0  0  0  0  0
  180.8480   18.3510   44.3560 C   0  0  0  0  0  0  0  0  0  0  0  0
  181.4110   17.3430   43.5680 C   0  0  0  0  0  0  0  0  0  0  0  0
  181.0770   16.0110   43.7960 C   0  0  0  0  0  0  0  0  0  0  0  0
  180.1730   15.6940   44.8030 C   0  0  0  0  0  0  0  0  0  0  0  0
  179.8630   14.3790   44.9860 O   0  0  0  0  0  0  0  0  0  0  0  0
  179.6050   16.6910   45.5930 C   0  0  0  0  0  0  0  0  0  0  0  0
  177.4100   20.0380   47.3870 C   0  0  0  0  0  0  0  0  0  0  0  0
  178.1370   21.0770   48.0300 C   0  0  0  0  0  0  0  0  0  0  0  0
  177.5040   22.0280   48.8350 C   0  0  0  0  0  0  0  0  0  0  0  0
  178.1570   23.0770   49.4220 O   0  0  0  0  0  0  0  0  0  0  0  0
  178.5240   24.1720   48.5890 C   0  0  0  0  0  0  0  0  0  0  0  0
  174.6886   24.6920   49.9481 H   0  0  0  0  0  0  0  0  0  0  0  0
  175.7548   24.3269   48.5493 H   0  0  0  0  0  0  0  0  0  0  0  0
  174.0488   23.7644   48.5493 H   0  0  0  0  0  0  0  0  0  0  0  0
  174.3285   20.8118   48.5624 H   0  0  0  0  0  0  0  0  0  0  0  0
  175.3089   17.2668   45.8572 H   0  0  0  0  0  0  0  0  0  0  0  0
  179.8930   19.7440   46.5410 H   0  0  0  0  0  0  0  0  0  0  0  0
  181.1034   19.4029   44.1605 H   0  0  0  0  0  0  0  0  0  0  0  0
  182.1187   17.6026   42.7669 H   0  0  0  0  0  0  0  0  0  0  0  0
  181.5254   15.2149   43.1835 H   0  0  0  0  0  0  0  0  0  0  0  0
  179.1230   14.0070   44.5480 H   0  0  0  0  0  0  0  0  0  0  0  0
  178.8771   16.4254   46.3738 H   0  0  0  0  0  0  0  0  0  0  0  0
  179.2266   21.1338   47.8901 H   0  0  0  0  0  0  0  0  0  0  0  0
  178.8113   25.0292   49.2156 H   0  0  0  0  0  0  0  0  0  0  0  0
  179.3737   23.8809   47.9539 H   0  0  0  0  0  0  0  0  0  0  0  0
  177.6705   24.4518   47.9539 H   0  0  0  0  0  0  0  0  0  0  0  0
  1  2  1  0
  2  3  1  0
  3  4  2  0
  4  5  1  0
  5  6  2  0
  6  7  1  0
  7  8  2  0
  8  9  1  0
  9 10  1  0
 10 11  1  0
 11 12  2  0
 12 13  1  0
 13 14  2  0
 14 15  1  0
 15 16  1  0
 15 17  2  0
  9 18  2  0
 18 19  1  0
 19 20  2  0
 20 21  1  0
 21 22  1  0
 20  3  1  0
 18  5  1  0
 17 11  1  0
  1 23  1  0
  1 24  1  0
  1 25  1  0
  4 26  1  0
  7 27  1  0
 10 28  1  0
 12 29  1  0
 13 30  1  0
 14 31  1  0
 16 32  1  0
 17 33  1  0
 19 34  1  0
 22 35  1  0
 22 36  1  0
 22 37  1  0
M  END
>  <meeko>  (8) 
{"is_sidechain": [false], "free_energy": -5.721, "intermolecular_energy": -8.115, "internal_energy": 0.212}

$$$$
DTQ_out
     RDKit          3D

 37 39  0  0  0  0  0  0  0  0999 V2000
  174.0090   24.6240   49.4760 C   0  0  0  0  0  0  0  0  0  0  0  0
  174.8410   23.6180   50.0430 O   0  0  0  0  0  0  0  0  0  0  0  0
  175.5470   22.8480   49.1550 C   0  0  0  0  0  0  0  0  0  0  0  0
  174.8860   21.6660   48.7910 C   0  0  0  0  0  0  0  0  0  0  0  0
  175.4260   20.7560   47.8950 C   0  0  0  0  0  0  0  0  0  0  0  0
  174.7430   19.6370   47.6250 N   0  0  0  0  0  0  0  0  0  0  0  0
  175.3100   18.7730   46.7770 C   0  0  0  0  0  0  0  0  0  0  0  0
  176.4830   18.9290   46.1580 N   0  0  0  0  0  0  0  0  0  0  0  0
  177.1390   20.0740   46.4140 C   0  0  0  0  0  0  0  0  0  0  0  0
  178.3600   20.2120   45.7160 N   0  0  0  0  0  0  0  0  0  0  0  0
  179.6490   20.3250   46.3020 C   0  0  0  0  0  0  0  0  0  0  0  0
  179.8760   20.1740   47.6770 C   0  0  0  0  0  0  0  0  0  0  0  0
  181.1580   20.3400   48.2090 C   0  0  0  0  0  0  0  0  0  0  0  0
  182.2200   20.6760   47.3740 C   0  0  0  0  0  0  0  0  0  0  0  0
  181.9940   20.8580   46.0160 C   0  0  0  0  0  0  0  0  0  0  0  0
  183.0580   21.1990   45.2350 O   0  0  0  0  0  0  0  0  0  0  0  0
  180.7190   20.6970   45.4770 C   0  0  0  0  0  0  0  0  0  0  0  0
  176.6660   21.0430   47.3190 C   0  0  0  0  0  0  0  0  0  0  0  0
  177.3410   22.2400   47.6830 C   0  0  0  0  0  0  0  0  0  0  0  0
  176.7800   23.1590   48.5740 C   0  0  0  0  0  0  0  0  0  0  0  0
  177.3690   24.3490   48.9030 O   0  0  0  0  0  0  0  0  0  0  0  0
  178.7910   24.4170   48.8530 C   0  0  0  0  0  0  0  0  0  0  0  0
  173.5314   25.2015   50.2812 H   0  0  0  0  0  0  0  0  0  0  0  0
  174.6184   25.2964   48.8543 H   0  0  0  0  0  0  0  0  0  0  0  0
  173.2342   24.1516   48.8543 H   0  0  0  0  0  0  0  0  0  0  0  0
  173.9016   21.4526   49.2331 H   0  0  0  0  0  0  0  0  0  0  0  0
  174.7575   17.8448   46.5692 H   0  0  0  0  0  0  0  0  0  0  0  0
  178.3140   20.2310   44.7330 H   0  0  0  0  0  0  0  0  0  0  0  0
  179.0377   19.9226   48.3434 H   0  0  0  0  0  0  0  0  0  0  0  0
  181.3277   20.2051   49.2874 H   0  0  0  0  0  0  0  0  0  0  0  0
  183.2322   20.7966   47.7875 H   0  0  0  0  0  0  0  0  0  0  0  0
  183.8890   20.7880   45.3720 H   0  0  0  0  0  0  0  0  0  0  0  0
  180.5522   20.8622   44.4023 H   0  0  0  0  0  0  0  0  0  0  0  0
  178.3313   22.4484   47.2519 H   0  0  0  0  0  0  0  0  0  0  0  0
  179.1934   24.4362   49.8766 H   0  0  0  0  0  0  0  0  0  0  0  0
  179.1817   23.5365   48.3219 H   0  0  0  0  0  0  0  0  0  0  0  0
  179.0959   25.3308   48.3219 H   0  0  0  0  0  0  0  0  0  0  0  0
  1  2  1  0
  2  3  1  0
  3  4  2  0
  4  5  1  0
  5  6  2  0
  6  7  1  0
  7  8  2  0
  8  9  1  0
  9 10  1  0
 10 11  1  0
 11 12  2  0
 12 13  1  0
 13 14  2  0
 14 15  1  0
 15 16  1  0
 15 17  2  0
  9 18  2  0
 18 19  1  0
 19 20  2  0
 20 21  1  0
 21 22  1  0
 20  3  1  0
 18  5  1  0
 17 11  1  0
  1 23  1  0
  1 24  1  0
  1 25  1  0
  4 26  1  0
  7 27  1  0
 10 28  1  0
 12 29  1  0
 13 30  1  0
 14 31  1  0
 16 32  1  0
 17 33  1  0
 19 34  1  0
 22 35  1  0
 22 36  1  0
 22 37  1  0
M  END
>  <meeko>  (9) 
{"is_sidechain": [false], "free_energy": -5.611, "intermolecular_energy": -7.667, "internal_energy": -0.098}

$$$$
