kaempferol_maoa_out
     RDKit          3D

 31 33  0  0  0  0  0  0  0  0999 V2000
  180.6000   21.7090   48.0530 O   0  0  0  0  0  0  0  0  0  0  0  0
  179.9110   20.8410   47.5200 C   0  0  0  0  0  0  0  0  0  0  0  0
  180.5280   19.8270   46.6360 C   0  0  0  0  0  0  0  0  0  0  0  0
  181.8970   19.9000   46.4550 O   0  0  0  0  0  0  0  0  0  0  0  0
  179.7360   18.8940   46.0760 C   0  0  0  0  0  0  0  0  0  0  0  0
  180.2420   17.8250   45.1890 C   0  0  0  0  0  0  0  0  0  0  0  0
  181.0940   18.1020   44.1090 C   0  0  0  0  0  0  0  0  0  0  0  0
  181.5430   17.0800   43.2670 C   0  0  0  0  0  0  0  0  0  0  0  0
  181.1310   15.7730   43.4990 C   0  0  0  0  0  0  0  0  0  0  0  0
  181.5440   14.7450   42.7050 O   0  0  0  0  0  0  0  0  0  0  0  0
  180.2810   15.4740   44.5540 C   0  0  0  0  0  0  0  0  0  0  0  0
  179.8340   16.4970   45.3950 C   0  0  0  0  0  0  0  0  0  0  0  0
  178.3630   18.8160   46.2870 O   0  0  0  0  0  0  0  0  0  0  0  0
  177.7610   19.7460   47.0960 C   0  0  0  0  0  0  0  0  0  0  0  0
  176.3820   19.6380   47.2720 C   0  0  0  0  0  0  0  0  0  0  0  0
  175.7200   20.5540   48.0840 C   0  0  0  0  0  0  0  0  0  0  0  0
  174.3720   20.4130   48.2280 O   0  0  0  0  0  0  0  0  0  0  0  0
  176.4130   21.5790   48.7250 C   0  0  0  0  0  0  0  0  0  0  0  0
  177.7900   21.6820   48.5450 C   0  0  0  0  0  0  0  0  0  0  0  0
  178.4200   22.7070   49.1980 O   0  0  0  0  0  0  0  0  0  0  0  0
  178.4650   20.7650   47.7320 C   0  0  0  0  0  0  0  0  0  0  0  0
  182.2540   19.9400   45.5890 H   0  0  0  0  0  0  0  0  0  0  0  0
  181.4132   19.1379   43.9221 H   0  0  0  0  0  0  0  0  0  0  0  0
  182.2167   17.3085   42.4280 H   0  0  0  0  0  0  0  0  0  0  0  0
  182.0120   14.0230   43.0770 H   0  0  0  0  0  0  0  0  0  0  0  0
  179.9603   14.4363   44.7278 H   0  0  0  0  0  0  0  0  0  0  0  0
  179.1552   16.2594   46.2273 H   0  0  0  0  0  0  0  0  0  0  0  0
  175.8212   18.8343   46.7724 H   0  0  0  0  0  0  0  0  0  0  0  0
  173.8490   21.1480   48.4820 H   0  0  0  0  0  0  0  0  0  0  0  0
  175.8794   22.2973   49.3647 H   0  0  0  0  0  0  0  0  0  0  0  0
  177.9200   23.4120   49.5580 H   0  0  0  0  0  0  0  0  0  0  0  0
  1  2  2  0
  2  3  1  0
  3  4  1  0
  3  5  2  0
  5  6  1  0
  6  7  2  0
  7  8  1  0
  8  9  2  0
  9 10  1  0
  9 11  1  0
 11 12  2  0
  5 13  1  0
 13 14  1  0
 14 15  2  0
 15 16  1  0
 16 17  1  0
 16 18  2  0
 18 19  1  0
 19 20  1  0
 19 21  2  0
 21  2  1  0
 12  6  1  0
 21 14  1  0
  4 22  1  0
  7 23  1  0
  8 24  1  0
 10 25  1  0
 11 26  1  0
 12 27  1  0
 15 28  1  0
 17 29  1  0
 18 30  1  0
 20 31  1  0
M  END
>  <meeko>  (1) 
{"is_sidechain": [false], "free_energy": -7.722, "intermolecular_energy": -9.076, "internal_energy": -0.043}

$$$$
kaempferol_maoa_out
     RDKit          3D

 31 33  0  0  0  0  0  0  0  0999 V2000
  179.4690   23.6500   49.0990 O   0  0  0  0  0  0  0  0  0  0  0  0
  179.0040   22.7090   48.4590 C   0  0  0  0  0  0  0  0  0  0  0  0
  179.8850   21.8450   47.6410 C   0  0  0  0  0  0  0  0  0  0  0  0
  181.2360   22.1410   47.6470 O   0  0  0  0  0  0  0  0  0  0  0  0
  179.3330   20.8250   46.9590 C   0  0  0  0  0  0  0  0  0  0  0  0
  180.1150   19.8900   46.1220 C   0  0  0  0  0  0  0  0  0  0  0  0
  181.3550   20.2500   45.5710 C   0  0  0  0  0  0  0  0  0  0  0  0
  182.0680   19.3590   44.7630 C   0  0  0  0  0  0  0  0  0  0  0  0
  181.5360   18.1030   44.4950 C   0  0  0  0  0  0  0  0  0  0  0  0
  182.1970   17.2040   43.7130 O   0  0  0  0  0  0  0  0  0  0  0  0
  180.3080   17.7270   45.0190 C   0  0  0  0  0  0  0  0  0  0  0  0
  179.5970   18.6180   45.8270 C   0  0  0  0  0  0  0  0  0  0  0  0
  177.9760   20.5230   46.9820 O   0  0  0  0  0  0  0  0  0  0  0  0
  177.1320   21.3080   47.7250 C   0  0  0  0  0  0  0  0  0  0  0  0
  175.7780   20.9770   47.7120 C   0  0  0  0  0  0  0  0  0  0  0  0
  174.8780   21.7400   48.4490 C   0  0  0  0  0  0  0  0  0  0  0  0
  173.5630   21.3820   48.4090 O   0  0  0  0  0  0  0  0  0  0  0  0
  175.3070   22.8320   49.2010 C   0  0  0  0  0  0  0  0  0  0  0  0
  176.6610   23.1580   49.2110 C   0  0  0  0  0  0  0  0  0  0  0  0
  177.0280   24.2390   49.9660 O   0  0  0  0  0  0  0  0  0  0  0  0
  177.5740   22.3970   48.4730 C   0  0  0  0  0  0  0  0  0  0  0  0
  181.5200   23.0320   47.6980 H   0  0  0  0  0  0  0  0  0  0  0  0
  181.7715   21.2469   45.7778 H   0  0  0  0  0  0  0  0  0  0  0  0
  183.0421   19.6496   44.3428 H   0  0  0  0  0  0  0  0  0  0  0  0
  183.1310   17.1390   43.7590 H   0  0  0  0  0  0  0  0  0  0  0  0
  179.8955   16.7312   44.7993 H   0  0  0  0  0  0  0  0  0  0  0  0
  178.6206   18.3201   46.2367 H   0  0  0  0  0  0  0  0  0  0  0  0
  175.4235   20.1183   47.1230 H   0  0  0  0  0  0  0  0  0  0  0  0
  173.0790   21.2870   49.2060 H   0  0  0  0  0  0  0  0  0  0  0  0
  174.5858   23.4285   49.7790 H   0  0  0  0  0  0  0  0  0  0  0  0
  177.9210   24.3470   50.2270 H   0  0  0  0  0  0  0  0  0  0  0  0
  1  2  2  0
  2  3  1  0
  3  4  1  0
  3  5  2  0
  5  6  1  0
  6  7  2  0
  7  8  1  0
  8  9  2  0
  9 10  1  0
  9 11  1  0
 11 12  2  0
  5 13  1  0
 13 14  1  0
 14 15  2  0
 15 16  1  0
 16 17  1  0
 16 18  2  0
 18 19  1  0
 19 20  1  0
 19 21  2  0
 21  2  1  0
 12  6  1  0
 21 14  1  0
  4 22  1  0
  7 23  1  0
  8 24  1  0
 10 25  1  0
 11 26  1  0
 12 27  1  0
 15 28  1  0
 17 29  1  0
 18 30  1  0
 20 31  1  0
M  END
>  <meeko>  (2) 
{"is_sidechain": [false], "free_energy": -7.314, "intermolecular_energy": -8.87, "internal_energy": 0.23}

$$$$
kaempferol_maoa_out
     RDKit          3D

 31 33  0  0  0  0  0  0  0  0999 V2000
  174.7620   19.4760   47.5270 O   0  0  0  0  0  0  0  0  0  0  0  0
  175.8810   19.9740   47.4300 C   0  0  0  0  0  0  0  0  0  0  0  0
  176.9510   19.2820   46.6760 C   0  0  0  0  0  0  0  0  0  0  0  0
  176.6250   18.0730   46.0890 O   0  0  0  0  0  0  0  0  0  0  0  0
  178.1610   19.8660   46.5930 C   0  0  0  0  0  0  0  0  0  0  0  0
  179.3000   19.2750   45.8570 C   0  0  0  0  0  0  0  0  0  0  0  0
  179.3840   17.8960   45.6090 C   0  0  0  0  0  0  0  0  0  0  0  0
  180.4810   17.3550   44.9320 C   0  0  0  0  0  0  0  0  0  0  0  0
  181.5040   18.1930   44.5060 C   0  0  0  0  0  0  0  0  0  0  0  0
  182.5910   17.7080   43.8430 O   0  0  0  0  0  0  0  0  0  0  0  0
  181.4490   19.5580   44.7480 C   0  0  0  0  0  0  0  0  0  0  0  0
  180.3520   20.0990   45.4250 C   0  0  0  0  0  0  0  0  0  0  0  0
  178.4680   21.0950   47.1670 O   0  0  0  0  0  0  0  0  0  0  0  0
  177.5000   21.7580   47.8770 C   0  0  0  0  0  0  0  0  0  0  0  0
  177.8540   22.9810   48.4450 C   0  0  0  0  0  0  0  0  0  0  0  0
  176.9090   23.6970   49.1750 C   0  0  0  0  0  0  0  0  0  0  0  0
  177.2960   24.8880   49.7130 O   0  0  0  0  0  0  0  0  0  0  0  0
  175.6150   23.2110   49.3480 C   0  0  0  0  0  0  0  0  0  0  0  0
  175.2680   21.9890   48.7790 C   0  0  0  0  0  0  0  0  0  0  0  0
  173.9840   21.5590   48.9800 O   0  0  0  0  0  0  0  0  0  0  0  0
  176.2100   21.2620   48.0430 C   0  0  0  0  0  0  0  0  0  0  0  0
  176.0290   17.4910   46.5160 H   0  0  0  0  0  0  0  0  0  0  0  0
  178.5763   17.2325   45.9517 H   0  0  0  0  0  0  0  0  0  0  0  0
  180.5338   16.2735   44.7380 H   0  0  0  0  0  0  0  0  0  0  0  0
  182.9020   16.8420   44.0200 H   0  0  0  0  0  0  0  0  0  0  0  0
  182.2656   20.2122   44.4084 H   0  0  0  0  0  0  0  0  0  0  0  0
  180.3124   21.1806   45.6212 H   0  0  0  0  0  0  0  0  0  0  0  0
  178.8722   23.3773   48.3174 H   0  0  0  0  0  0  0  0  0  0  0  0
  177.9530   24.9080   50.3820 H   0  0  0  0  0  0  0  0  0  0  0  0
  174.8769   23.7856   49.9268 H   0  0  0  0  0  0  0  0  0  0  0  0
  173.6490   20.8360   48.4870 H   0  0  0  0  0  0  0  0  0  0  0  0
  1  2  2  0
  2  3  1  0
  3  4  1  0
  3  5  2  0
  5  6  1  0
  6  7  2  0
  7  8  1  0
  8  9  2  0
  9 10  1  0
  9 11  1  0
 11 12  2  0
  5 13  1  0
 13 14  1  0
 14 15  2  0
 15 16  1  0
 16 17  1  0
 16 18  2  0
 18 19  1  0
 19 20  1  0
 19 21  2  0
 21  2  1  0
 12  6  1  0
 21 14  1  0
  4 22  1  0
  7 23  1  0
  8 24  1  0
 10 25  1  0
 11 26  1  0
 12 27  1  0
 15 28  1  0
 17 29  1  0
 18 30  1  0
 20 31  1  0
M  END
>  <meeko>  (3) 
{"is_sidechain": [false], "free_energy": -7.05, "intermolecular_energy": -8.566, "internal_energy": 0.237}

$$$$
kaempferol_maoa_out
     RDKit          3D

 31 33  0  0  0  0  0  0  0  0999 V2000
  177.1880   22.7840   49.5860 O   0  0  0  0  0  0  0  0  0  0  0  0
  177.6290   22.0200   48.7300 C   0  0  0  0  0  0  0  0  0  0  0  0
  179.0000   22.1950   48.1990 C   0  0  0  0  0  0  0  0  0  0  0  0
  179.7470   23.2360   48.7190 O   0  0  0  0  0  0  0  0  0  0  0  0
  179.4420   21.3330   47.2640 C   0  0  0  0  0  0  0  0  0  0  0  0
  180.7960   21.4010   46.6730 C   0  0  0  0  0  0  0  0  0  0  0  0
  181.7760   22.2770   47.1660 C   0  0  0  0  0  0  0  0  0  0  0  0
  183.0420   22.3430   46.5770 C   0  0  0  0  0  0  0  0  0  0  0  0
  183.3310   21.5350   45.4830 C   0  0  0  0  0  0  0  0  0  0  0  0
  184.5520   21.5660   44.8790 O   0  0  0  0  0  0  0  0  0  0  0  0
  182.3760   20.6690   44.9700 C   0  0  0  0  0  0  0  0  0  0  0  0
  181.1110   20.6040   45.5610 C   0  0  0  0  0  0  0  0  0  0  0  0
  178.6890   20.2740   46.7690 O   0  0  0  0  0  0  0  0  0  0  0  0
  177.4130   20.0900   47.2370 C   0  0  0  0  0  0  0  0  0  0  0  0
  176.6890   19.0240   46.7050 C   0  0  0  0  0  0  0  0  0  0  0  0
  175.3890   18.7900   47.1450 C   0  0  0  0  0  0  0  0  0  0  0  0
  174.7170   17.7370   46.6000 O   0  0  0  0  0  0  0  0  0  0  0  0
  174.7980   19.6060   48.1080 C   0  0  0  0  0  0  0  0  0  0  0  0
  175.5260   20.6700   48.6340 C   0  0  0  0  0  0  0  0  0  0  0  0
  174.8970   21.4380   49.5770 O   0  0  0  0  0  0  0  0  0  0  0  0
  176.8330   20.9120   48.1990 C   0  0  0  0  0  0  0  0  0  0  0  0
  179.4540   24.1200   48.6160 H   0  0  0  0  0  0  0  0  0  0  0  0
  181.5445   22.9203   48.0277 H   0  0  0  0  0  0  0  0  0  0  0  0
  183.8038   23.0289   46.9760 H   0  0  0  0  0  0  0  0  0  0  0  0
  185.2300   20.9850   45.1620 H   0  0  0  0  0  0  0  0  0  0  0  0
  182.6134   20.0364   44.1020 H   0  0  0  0  0  0  0  0  0  0  0  0
  180.3535   19.9204   45.1500 H   0  0  0  0  0  0  0  0  0  0  0  0
  177.1416   18.3724   45.9430 H   0  0  0  0  0  0  0  0  0  0  0  0
  173.8280   17.8420   46.3230 H   0  0  0  0  0  0  0  0  0  0  0  0
  173.7700   19.4120   48.4480 H   0  0  0  0  0  0  0  0  0  0  0  0
  174.6480   22.3180   49.3740 H   0  0  0  0  0  0  0  0  0  0  0  0
  1  2  2  0
  2  3  1  0
  3  4  1  0
  3  5  2  0
  5  6  1  0
  6  7  2  0
  7  8  1  0
  8  9  2  0
  9 10  1  0
  9 11  1  0
 11 12  2  0
  5 13  1  0
 13 14  1  0
 14 15  2  0
 15 16  1  0
 16 17  1  0
 16 18  2  0
 18 19  1  0
 19 20  1  0
 19 21  2  0
 21  2  1  0
 12  6  1  0
 21 14  1  0
  4 22  1  0
  7 23  1  0
  8 24  1  0
 10 25  1  0
 11 26  1  0
 12 27  1  0
 15 28  1  0
 17 29  1  0
 18 30  1  0
 20 31  1  0
M  END
>  <meeko>  (4) 
{"is_sidechain": [false], "free_energy": -6.315, "intermolecular_energy": -7.798, "internal_energy": 0.334}

$$$$
kaempferol_maoa_out
     RDKit          3D

 31 33  0  0  0  0  0  0  0  0999 V2000
  178.7350   18.0820   45.7590 O   0  0  0  0  0  0  0  0  0  0  0  0
  178.9460   19.2040   46.2150 C   0  0  0  0  0  0  0  0  0  0  0  0
  177.8930   19.9210   46.9690 C   0  0  0  0  0  0  0  0  0  0  0  0
  176.6860   19.2660   47.1400 O   0  0  0  0  0  0  0  0  0  0  0  0
  178.1680   21.1460   47.4520 C   0  0  0  0  0  0  0  0  0  0  0  0
  177.2010   21.9490   48.2300 C   0  0  0  0  0  0  0  0  0  0  0  0
  176.1570   21.3520   48.9540 C   0  0  0  0  0  0  0  0  0  0  0  0
  175.2380   22.1310   49.6640 C   0  0  0  0  0  0  0  0  0  0  0  0
  175.3570   23.5160   49.6460 C   0  0  0  0  0  0  0  0  0  0  0  0
  174.4850   24.3130   50.3250 O   0  0  0  0  0  0  0  0  0  0  0  0
  176.3740   24.1310   48.9300 C   0  0  0  0  0  0  0  0  0  0  0  0
  177.2920   23.3510   48.2210 C   0  0  0  0  0  0  0  0  0  0  0  0
  179.3950   21.7820   47.2950 O   0  0  0  0  0  0  0  0  0  0  0  0
  180.3890   21.1460   46.5950 C   0  0  0  0  0  0  0  0  0  0  0  0
  181.5990   21.8240   46.4520 C   0  0  0  0  0  0  0  0  0  0  0  0
  182.6420   21.2250   45.7520 C   0  0  0  0  0  0  0  0  0  0  0  0
  183.8080   21.9210   45.6360 O   0  0  0  0  0  0  0  0  0  0  0  0
  182.4980   19.9570   45.1920 C   0  0  0  0  0  0  0  0  0  0  0  0
  181.2870   19.2850   45.3380 C   0  0  0  0  0  0  0  0  0  0  0  0
  181.2000   18.0440   44.7690 O   0  0  0  0  0  0  0  0  0  0  0  0
  180.2320   19.8790   46.0400 C   0  0  0  0  0  0  0  0  0  0  0  0
  176.1510   19.0680   46.3970 H   0  0  0  0  0  0  0  0  0  0  0  0
  176.0605   20.2563   48.9630 H   0  0  0  0  0  0  0  0  0  0  0  0
  174.4273   21.6517   50.2323 H   0  0  0  0  0  0  0  0  0  0  0  0
  174.7950   25.0830   50.7610 H   0  0  0  0  0  0  0  0  0  0  0  0
  176.4575   25.2278   48.9204 H   0  0  0  0  0  0  0  0  0  0  0  0
  178.0946   23.8403   47.6497 H   0  0  0  0  0  0  0  0  0  0  0  0
  181.7282   22.8250   46.8893 H   0  0  0  0  0  0  0  0  0  0  0  0
  183.8530   22.8100   45.9280 H   0  0  0  0  0  0  0  0  0  0  0  0
  183.3299   19.4930   44.6419 H   0  0  0  0  0  0  0  0  0  0  0  0
  181.0620   17.2900   45.3070 H   0  0  0  0  0  0  0  0  0  0  0  0
  1  2  2  0
  2  3  1  0
  3  4  1  0
  3  5  2  0
  5  6  1  0
  6  7  2  0
  7  8  1  0
  8  9  2  0
  9 10  1  0
  9 11  1  0
 11 12  2  0
  5 13  1  0
 13 14  1  0
 14 15  2  0
 15 16  1  0
 16 17  1  0
 16 18  2  0
 18 19  1  0
 19 20  1  0
 19 21  2  0
 21  2  1  0
 12  6  1  0
 21 14  1  0
  4 22  1  0
  7 23  1  0
  8 24  1  0
 10 25  1  0
 11 26  1  0
 12 27  1  0
 15 28  1  0
 17 29  1  0
 18 30  1  0
 20 31  1  0
M  END
>  <meeko>  (5) 
{"is_sidechain": [false], "free_energy": -6.263, "intermolecular_energy": -7.629, "internal_energy": 0.225}

$$$$
kaempferol_maoa_out
     RDKit          3D

 31 33  0  0  0  0  0  0  0  0999 V2000
  182.1040   22.2890   46.9440 O   0  0  0  0  0  0  0  0  0  0  0  0
  181.1470   21.5200   46.8890 C   0  0  0  0  0  0  0  0  0  0  0  0
  179.9260   21.7780   47.6850 C   0  0  0  0  0  0  0  0  0  0  0  0
  179.9160   22.9180   48.4680 O   0  0  0  0  0  0  0  0  0  0  0  0
  178.9010   20.9110   47.5920 C   0  0  0  0  0  0  0  0  0  0  0  0
  177.6290   21.0740   48.3280 C   0  0  0  0  0  0  0  0  0  0  0  0
  176.5770   21.8530   47.8220 C   0  0  0  0  0  0  0  0  0  0  0  0
  175.3900   22.0140   48.5440 C   0  0  0  0  0  0  0  0  0  0  0  0
  175.2560   21.3990   49.7840 C   0  0  0  0  0  0  0  0  0  0  0  0
  174.1170   21.5280   50.5210 O   0  0  0  0  0  0  0  0  0  0  0  0
  176.2850   20.6320   50.3100 C   0  0  0  0  0  0  0  0  0  0  0  0
  177.4700   20.4720   49.5870 C   0  0  0  0  0  0  0  0  0  0  0  0
  178.9140   19.7820   46.7800 O   0  0  0  0  0  0  0  0  0  0  0  0
  180.0340   19.5110   46.0360 C   0  0  0  0  0  0  0  0  0  0  0  0
  180.0090   18.3630   45.2440 C   0  0  0  0  0  0  0  0  0  0  0  0
  181.1190   18.0410   44.4680 C   0  0  0  0  0  0  0  0  0  0  0  0
  181.0530   16.9110   43.7090 O   0  0  0  0  0  0  0  0  0  0  0  0
  182.2550   18.8470   44.4680 C   0  0  0  0  0  0  0  0  0  0  0  0
  182.2740   19.9920   45.2610 C   0  0  0  0  0  0  0  0  0  0  0  0
  183.4150   20.7470   45.2230 O   0  0  0  0  0  0  0  0  0  0  0  0
  181.1640   20.3240   46.0440 C   0  0  0  0  0  0  0  0  0  0  0  0
  180.6940   23.4320   48.5570 H   0  0  0  0  0  0  0  0  0  0  0  0
  176.6875   22.3439   46.8438 H   0  0  0  0  0  0  0  0  0  0  0  0
  174.5696   22.6218   48.1346 H   0  0  0  0  0  0  0  0  0  0  0  0
  174.1710   21.6390   51.4510 H   0  0  0  0  0  0  0  0  0  0  0  0
  176.1687   20.1515   51.2926 H   0  0  0  0  0  0  0  0  0  0  0  0
  178.2871   19.8681   50.0084 H   0  0  0  0  0  0  0  0  0  0  0  0
  179.1188   17.7169   45.2327 H   0  0  0  0  0  0  0  0  0  0  0  0
  180.8360   16.0920   44.1070 H   0  0  0  0  0  0  0  0  0  0  0  0
  183.1257   18.5828   43.8499 H   0  0  0  0  0  0  0  0  0  0  0  0
  184.2000   20.3940   44.8520 H   0  0  0  0  0  0  0  0  0  0  0  0
  1  2  2  0
  2  3  1  0
  3  4  1  0
  3  5  2  0
  5  6  1  0
  6  7  2  0
  7  8  1  0
  8  9  2  0
  9 10  1  0
  9 11  1  0
 11 12  2  0
  5 13  1  0
 13 14  1  0
 14 15  2  0
 15 16  1  0
 16 17  1  0
 16 18  2  0
 18 19  1  0
 19 20  1  0
 19 21  2  0
 21  2  1  0
 12  6  1  0
 21 14  1  0
  4 22  1  0
  7 23  1  0
  8 24  1  0
 10 25  1  0
 11 26  1  0
 12 27  1  0
 15 28  1  0
 17 29  1  0
 18 30  1  0
 20 31  1  0
M  END
>  <meeko>  (6) 
{"is_sidechain": [false], "free_energy": -6.247, "intermolecular_energy": -7.089, "internal_energy": -0.296}

$$$$
kaempferol_maoa_out
     RDKit          3D

 31 33  0  0  0  0  0  0  0  0999 V2000
  178.3310   19.6120   47.3400 O   0  0  0  0  0  0  0  0  0  0  0  0
  179.3340   19.4070   46.6590 C   0  0  0  0  0  0  0  0  0  0  0  0
  179.4220   18.2140   45.7870 C   0  0  0  0  0  0  0  0  0  0  0  0
  178.3300   17.3650   45.7700 O   0  0  0  0  0  0  0  0  0  0  0  0
  180.5380   18.0310   45.0580 C   0  0  0  0  0  0  0  0  0  0  0  0
  180.7320   16.8850   44.1430 C   0  0  0  0  0  0  0  0  0  0  0  0
  180.6160   15.5580   44.5850 C   0  0  0  0  0  0  0  0  0  0  0  0
  180.8270   14.4890   43.7090 C   0  0  0  0  0  0  0  0  0  0  0  0
  181.1640   14.7450   42.3850 C   0  0  0  0  0  0  0  0  0  0  0  0
  181.3770   13.7340   41.4970 O   0  0  0  0  0  0  0  0  0  0  0  0
  181.2950   16.0480   41.9260 C   0  0  0  0  0  0  0  0  0  0  0  0
  181.0830   17.1160   42.8030 C   0  0  0  0  0  0  0  0  0  0  0  0
  181.6190   18.9060   45.0640 O   0  0  0  0  0  0  0  0  0  0  0  0
  181.5700   20.0170   45.8670 C   0  0  0  0  0  0  0  0  0  0  0  0
  182.6790   20.8620   45.8510 C   0  0  0  0  0  0  0  0  0  0  0  0
  182.6830   22.0040   46.6460 C   0  0  0  0  0  0  0  0  0  0  0  0
  183.7860   22.8030   46.6010 O   0  0  0  0  0  0  0  0  0  0  0  0
  181.5950   22.3190   47.4580 C   0  0  0  0  0  0  0  0  0  0  0  0
  180.4900   21.4710   47.4700 C   0  0  0  0  0  0  0  0  0  0  0  0
  179.4500   21.8280   48.2850 O   0  0  0  0  0  0  0  0  0  0  0  0
  180.4770   20.3210   46.6740 C   0  0  0  0  0  0  0  0  0  0  0  0
  178.4580   16.4370   45.7530 H   0  0  0  0  0  0  0  0  0  0  0  0
  180.3556   15.3563   45.6345 H   0  0  0  0  0  0  0  0  0  0  0  0
  180.7270   13.4530   44.0649 H   0  0  0  0  0  0  0  0  0  0  0  0
  180.7920   13.0010   41.4700 H   0  0  0  0  0  0  0  0  0  0  0  0
  181.5644   16.2397   40.8769 H   0  0  0  0  0  0  0  0  0  0  0  0
  181.1923   18.1484   42.4395 H   0  0  0  0  0  0  0  0  0  0  0  0
  183.5448   20.6275   45.2143 H   0  0  0  0  0  0  0  0  0  0  0  0
  184.3600   22.7670   45.8610 H   0  0  0  0  0  0  0  0  0  0  0  0
  181.6087   23.2253   48.0812 H   0  0  0  0  0  0  0  0  0  0  0  0
  179.3100   22.7290   48.4990 H   0  0  0  0  0  0  0  0  0  0  0  0
  1  2  2  0
  2  3  1  0
  3  4  1  0
  3  5  2  0
  5  6  1  0
  6  7  2  0
  7  8  1  0
  8  9  2  0
  9 10  1  0
  9 11  1  0
 11 12  2  0
  5 13  1  0
 13 14  1  0
 14 15  2  0
 15 16  1  0
 16 17  1  0
 16 18  2  0
 18 19  1  0
 19 20  1  0
 19 21  2  0
 21  2  1  0
 12  6  1  0
 21 14  1  0
  4 22  1  0
  7 23  1  0
  8 24  1  0
 10 25  1  0
 11 26  1  0
 12 27  1  0
 15 28  1  0
 17 29  1  0
 18 30  1  0
 20 31  1  0
M  END
>  <meeko>  (7) 
{"is_sidechain": [false], "free_energy": -6.116, "intermolecular_energy": -7.122, "internal_energy": -0.11}

$$$$
kaempferol_maoa_out
     RDKit          3D

 31 33  0  0  0  0  0  0  0  0999 V2000
  181.9620   20.5860   45.0780 O   0  0  0  0  0  0  0  0  0  0  0  0
  181.0020   19.8940   45.4090 C   0  0  0  0  0  0  0  0  0  0  0  0
  179.9190   20.4590   46.2460 C   0  0  0  0  0  0  0  0  0  0  0  0
  180.0380   21.7850   46.6170 O   0  0  0  0  0  0  0  0  0  0  0  0
  178.8850   19.6650   46.5810 C   0  0  0  0  0  0  0  0  0  0  0  0
  177.7420   20.1230   47.4000 C   0  0  0  0  0  0  0  0  0  0  0  0
  177.9230   20.9120   48.5470 C   0  0  0  0  0  0  0  0  0  0  0  0
  176.8300   21.3150   49.3210 C   0  0  0  0  0  0  0  0  0  0  0  0
  175.5490   20.9210   48.9530 C   0  0  0  0  0  0  0  0  0  0  0  0
  174.4560   21.2910   49.6780 O   0  0  0  0  0  0  0  0  0  0  0  0
  175.3450   20.1320   47.8300 C   0  0  0  0  0  0  0  0  0  0  0  0
  176.4380   19.7310   47.0570 C   0  0  0  0  0  0  0  0  0  0  0  0
  178.7640   18.3390   46.1790 O   0  0  0  0  0  0  0  0  0  0  0  0
  179.7540   17.7850   45.4090 C   0  0  0  0  0  0  0  0  0  0  0  0
  179.5990   16.4510   45.0370 C   0  0  0  0  0  0  0  0  0  0  0  0
  180.5740   15.8390   44.2540 C   0  0  0  0  0  0  0  0  0  0  0  0
  180.3830   14.5330   43.9120 O   0  0  0  0  0  0  0  0  0  0  0  0
  181.7030   16.5380   43.8350 C   0  0  0  0  0  0  0  0  0  0  0  0
  181.8530   17.8710   44.2100 C   0  0  0  0  0  0  0  0  0  0  0  0
  182.9810   18.5100   43.7710 O   0  0  0  0  0  0  0  0  0  0  0  0
  180.8790   18.4950   44.9960 C   0  0  0  0  0  0  0  0  0  0  0  0
  180.5100   22.0130   47.3940 H   0  0  0  0  0  0  0  0  0  0  0  0
  178.9381   21.2174   48.8409 H   0  0  0  0  0  0  0  0  0  0  0  0
  176.9830   21.9389   50.2140 H   0  0  0  0  0  0  0  0  0  0  0  0
  174.3900   22.1630   50.0150 H   0  0  0  0  0  0  0  0  0  0  0  0
  174.3272   19.8234   47.5493 H   0  0  0  0  0  0  0  0  0  0  0  0
  176.2750   19.1013   46.1700 H   0  0  0  0  0  0  0  0  0  0  0  0
  178.7124   15.8855   45.3598 H   0  0  0  0  0  0  0  0  0  0  0  0
  179.5430   14.2450   43.6140 H   0  0  0  0  0  0  0  0  0  0  0  0
  182.4664   16.0440   43.2160 H   0  0  0  0  0  0  0  0  0  0  0  0
  182.9080   19.2620   43.2170 H   0  0  0  0  0  0  0  0  0  0  0  0
  1  2  2  0
  2  3  1  0
  3  4  1  0
  3  5  2  0
  5  6  1  0
  6  7  2  0
  7  8  1  0
  8  9  2  0
  9 10  1  0
  9 11  1  0
 11 12  2  0
  5 13  1  0
 13 14  1  0
 14 15  2  0
 15 16  1  0
 16 17  1  0
 16 18  2  0
 18 19  1  0
 19 20  1  0
 19 21  2  0
 21  2  1  0
 12  6  1  0
 21 14  1  0
  4 22  1  0
  7 23  1  0
  8 24  1  0
 10 25  1  0
 11 26  1  0
 12 27  1  0
 15 28  1  0
 17 29  1  0
 18 30  1  0
 20 31  1  0
M  END
>  <meeko>  (8) 
{"is_sidechain": [false], "free_energy": -6.065, "intermolecular_energy": -7.197, "internal_energy": 0.025}

$$$$
kaempferol_maoa_out
     RDKit          3D

 31 33  0  0  0  0  0  0  0  0999 V2000
  176.4850   18.5910   46.7880 O   0  0  0  0  0  0  0  0  0  0  0  0
  177.1460   19.5970   47.0350 C   0  0  0  0  0  0  0  0  0  0  0  0
  178.5440   19.7140   46.5650 C   0  0  0  0  0  0  0  0  0  0  0  0
  179.0530   18.6560   45.8350 O   0  0  0  0  0  0  0  0  0  0  0  0
  179.2290   20.8360   46.8570 C   0  0  0  0  0  0  0  0  0  0  0  0
  180.6250   21.0700   46.4280 C   0  0  0  0  0  0  0  0  0  0  0  0
  181.4350   22.0370   47.0440 C   0  0  0  0  0  0  0  0  0  0  0  0
  182.7450   22.2590   46.6080 C   0  0  0  0  0  0  0  0  0  0  0  0
  183.2480   21.5170   45.5460 C   0  0  0  0  0  0  0  0  0  0  0  0
  184.5190   21.7000   45.0890 O   0  0  0  0  0  0  0  0  0  0  0  0
  182.4640   20.5620   44.9140 C   0  0  0  0  0  0  0  0  0  0  0  0
  181.1550   20.3410   45.3510 C   0  0  0  0  0  0  0  0  0  0  0  0
  178.6970   21.9050   47.5700 O   0  0  0  0  0  0  0  0  0  0  0  0
  177.4060   21.8230   48.0250 C   0  0  0  0  0  0  0  0  0  0  0  0
  176.9160   22.9120   48.7450 C   0  0  0  0  0  0  0  0  0  0  0  0
  175.6110   22.8830   49.2290 C   0  0  0  0  0  0  0  0  0  0  0  0
  175.1710   23.9680   49.9270 O   0  0  0  0  0  0  0  0  0  0  0  0
  174.7860   21.7830   49.0070 C   0  0  0  0  0  0  0  0  0  0  0  0
  175.2810   20.6980   48.2870 C   0  0  0  0  0  0  0  0  0  0  0  0
  174.4280   19.6440   48.0980 O   0  0  0  0  0  0  0  0  0  0  0  0
  176.5910   20.7180   47.7960 C   0  0  0  0  0  0  0  0  0  0  0  0
  179.2630   17.8500   46.2640 H   0  0  0  0  0  0  0  0  0  0  0  0
  181.0339   22.6279   47.8807 H   0  0  0  0  0  0  0  0  0  0  0  0
  183.3727   23.0153   47.1020 H   0  0  0  0  0  0  0  0  0  0  0  0
  184.7370   22.4730   44.6060 H   0  0  0  0  0  0  0  0  0  0  0  0
  182.8711   19.9816   44.0729 H   0  0  0  0  0  0  0  0  0  0  0  0
  180.5329   19.5876   44.8457 H   0  0  0  0  0  0  0  0  0  0  0  0
  177.5559   23.7876   48.9292 H   0  0  0  0  0  0  0  0  0  0  0  0
  175.6420   24.7760   49.8810 H   0  0  0  0  0  0  0  0  0  0  0  0
  173.7568   21.7711   49.3952 H   0  0  0  0  0  0  0  0  0  0  0  0
  174.6900   18.7790   48.3440 H   0  0  0  0  0  0  0  0  0  0  0  0
  1  2  2  0
  2  3  1  0
  3  4  1  0
  3  5  2  0
  5  6  1  0
  6  7  2  0
  7  8  1  0
  8  9  2  0
  9 10  1  0
  9 11  1  0
 11 12  2  0
  5 13  1  0
 13 14  1  0
 14 15  2  0
 15 16  1  0
 16 17  1  0
 16 18  2  0
 18 19  1  0
 19 20  1  0
 19 21  2  0
 21  2  1  0
 12  6  1  0
 21 14  1  0
  4 22  1  0
  7 23  1  0
  8 24  1  0
 10 25  1  0
 11 26  1  0
 12 27  1  0
 15 28  1  0
 17 29  1  0
 18 30  1  0
 20 31  1  0
M  END
>  <meeko>  (9) 
{"is_sidechain": [false], "free_energy": -5.992, "intermolecular_energy": -7.416, "internal_energy": 0.33}

$$$$
