lazabemide_out
     RDKit          3D

 24 24  0  0  0  0  0  0  0  0999 V2000
  174.8380   20.8820   50.3350 N   0  0  0  0  0  0  0  0  0  0  0  0
  174.8280   20.7390   48.8740 C   0  0  0  0  0  0  0  0  0  0  0  0
  175.4560   21.9540   48.1760 C   0  0  0  0  0  0  0  0  0  0  0  0
  176.7540   21.6540   47.6050 N   0  0  0  0  0  0  0  0  0  0  0  0
  177.8910   21.5130   48.3680 C   0  0  0  0  0  0  0  0  0  0  0  0
  177.9050   21.5510   49.5930 O   0  0  0  0  0  0  0  0  0  0  0  0
  179.1490   21.3230   47.5750 C   0  0  0  0  0  0  0  0  0  0  0  0
  179.1120   20.6200   46.3750 C   0  0  0  0  0  0  0  0  0  0  0  0
  180.3020   20.4590   45.6660 C   0  0  0  0  0  0  0  0  0  0  0  0
  181.4760   21.0010   46.1780 C   0  0  0  0  0  0  0  0  0  0  0  0
  182.9600   20.8240   45.3340 Cl  0  0  0  0  0  0  0  0  0  0  0  0
  181.4210   21.6860   47.3840 C   0  0  0  0  0  0  0  0  0  0  0  0
  180.2850   21.8620   48.1030 N   0  0  0  0  0  0  0  0  0  0  0  0
  175.1230   20.0010   50.7610 H   0  0  0  0  0  0  0  0  0  0  0  0
  173.9030   21.1300   50.6580 H   0  0  0  0  0  0  0  0  0  0  0  0
  175.4950   21.6160   50.6000 H   0  0  0  0  0  0  0  0  0  0  0  0
  175.3973   19.8383   48.6008 H   0  0  0  0  0  0  0  0  0  0  0  0
  173.7810   20.6607   48.5461 H   0  0  0  0  0  0  0  0  0  0  0  0
  174.7839   22.2850   47.3706 H   0  0  0  0  0  0  0  0  0  0  0  0
  175.5963   22.7398   48.9328 H   0  0  0  0  0  0  0  0  0  0  0  0
  176.8260   21.5450   46.6290 H   0  0  0  0  0  0  0  0  0  0  0  0
  178.1681   20.2018   45.9952 H   0  0  0  0  0  0  0  0  0  0  0  0
  180.3120   19.9098   44.7130 H   0  0  0  0  0  0  0  0  0  0  0  0
  182.3548   22.1115   47.7801 H   0  0  0  0  0  0  0  0  0  0  0  0
  1  2  1  0
  2  3  1  0
  3  4  1  0
  4  5  1  0
  5  6  2  0
  5  7  1  0
  7  8  2  0
  8  9  1  0
  9 10  2  0
 10 11  1  0
 10 12  1  0
 12 13  2  0
 13  7  1  0
  1 14  1  0
  1 15  1  0
  1 16  1  0
  2 17  1  0
  2 18  1  0
  3 19  1  0
  3 20  1  0
  4 21  1  0
  8 22  1  0
  9 23  1  0
 12 24  1  0
M  CHG  1   1   1
M  END
>  <meeko>  (1) 
{"is_sidechain": [false], "free_energy": -5.31, "intermolecular_energy": -6.396, "internal_energy": -0.284}

$$$$
lazabemide_out
     RDKit          3D

 24 24  0  0  0  0  0  0  0  0999 V2000
  184.0510   22.9470   46.8770 N   0  0  0  0  0  0  0  0  0  0  0  0
  183.3100   22.4470   45.7130 C   0  0  0  0  0  0  0  0  0  0  0  0
  182.6650   21.0810   45.9890 C   0  0  0  0  0  0  0  0  0  0  0  0
  181.2520   21.1900   46.2980 N   0  0  0  0  0  0  0  0  0  0  0  0
  180.7840   21.5200   47.5490 C   0  0  0  0  0  0  0  0  0  0  0  0
  181.5040   21.8260   48.4930 O   0  0  0  0  0  0  0  0  0  0  0  0
  179.2930   21.4610   47.6870 C   0  0  0  0  0  0  0  0  0  0  0  0
  178.5190   20.9700   46.6410 C   0  0  0  0  0  0  0  0  0  0  0  0
  177.1350   20.9340   46.8020 C   0  0  0  0  0  0  0  0  0  0  0  0
  176.5770   21.3870   47.9930 C   0  0  0  0  0  0  0  0  0  0  0  0
  174.8780   21.3570   48.2290 Cl  0  0  0  0  0  0  0  0  0  0  0  0
  177.4260   21.8630   48.9850 C   0  0  0  0  0  0  0  0  0  0  0  0
  178.7750   21.9150   48.8650 N   0  0  0  0  0  0  0  0  0  0  0  0
  184.6520   22.2080   47.2410 H   0  0  0  0  0  0  0  0  0  0  0  0
  183.3930   23.2380   47.5990 H   0  0  0  0  0  0  0  0  0  0  0  0
  184.6240   23.7440   46.5990 H   0  0  0  0  0  0  0  0  0  0  0  0
  182.5198   23.1684   45.4576 H   0  0  0  0  0  0  0  0  0  0  0  0
  184.0207   22.3270   44.8820 H   0  0  0  0  0  0  0  0  0  0  0  0
  182.7840   20.4474   45.0977 H   0  0  0  0  0  0  0  0  0  0  0  0
  183.1673   20.6432   46.8642 H   0  0  0  0  0  0  0  0  0  0  0  0
  180.6000   21.0200   45.5800 H   0  0  0  0  0  0  0  0  0  0  0  0
  178.9875   20.6188   45.7098 H   0  0  0  0  0  0  0  0  0  0  0  0
  176.4911   20.5516   45.9962 H   0  0  0  0  0  0  0  0  0  0  0  0
  176.9762   22.2188   49.9237 H   0  0  0  0  0  0  0  0  0  0  0  0
  1  2  1  0
  2  3  1  0
  3  4  1  0
  4  5  1  0
  5  6  2  0
  5  7  1  0
  7  8  2  0
  8  9  1  0
  9 10  2  0
 10 11  1  0
 10 12  1  0
 12 13  2  0
 13  7  1  0
  1 14  1  0
  1 15  1  0
  1 16  1  0
  2 17  1  0
  2 18  1  0
  3 19  1  0
  3 20  1  0
  4 21  1  0
  8 22  1  0
  9 23  1  0
 12 24  1  0
M  CHG  1   1   1
M  END
>  <meeko>  (2) 
{"is_sidechain": [false], "free_energy": -5.266, "intermolecular_energy": -6.277, "internal_energy": -0.351}

$$$$
lazabemide_out
     RDKit          3D

 24 24  0  0  0  0  0  0  0  0999 V2000
  174.8160   24.1660   50.4310 N   0  0  0  0  0  0  0  0  0  0  0  0
  175.3870   23.4170   49.3050 C   0  0  0  0  0  0  0  0  0  0  0  0
  176.7660   23.9590   48.8990 C   0  0  0  0  0  0  0  0  0  0  0  0
  177.5620   22.9730   48.1960 N   0  0  0  0  0  0  0  0  0  0  0  0
  178.9190   22.8350   48.3850 C   0  0  0  0  0  0  0  0  0  0  0  0
  179.5650   23.4710   49.2100 O   0  0  0  0  0  0  0  0  0  0  0  0
  179.5720   21.8400   47.4750 C   0  0  0  0  0  0  0  0  0  0  0  0
  178.8080   20.8460   46.8720 C   0  0  0  0  0  0  0  0  0  0  0  0
  179.4510   19.9340   46.0350 C   0  0  0  0  0  0  0  0  0  0  0  0
  180.8220   20.0470   45.8320 C   0  0  0  0  0  0  0  0  0  0  0  0
  181.6480   18.9450   44.8080 Cl  0  0  0  0  0  0  0  0  0  0  0  0
  181.5070   21.0700   46.4750 C   0  0  0  0  0  0  0  0  0  0  0  0
  180.9190   21.9740   47.2970 N   0  0  0  0  0  0  0  0  0  0  0  0
  173.8210   24.3180   50.2680 H   0  0  0  0  0  0  0  0  0  0  0  0
  175.2890   25.0650   50.5160 H   0  0  0  0  0  0  0  0  0  0  0  0
  174.9410   23.6330   51.2920 H   0  0  0  0  0  0  0  0  0  0  0  0
  175.4911   22.3613   49.5960 H   0  0  0  0  0  0  0  0  0  0  0  0
  174.7105   23.5254   48.4445 H   0  0  0  0  0  0  0  0  0  0  0  0
  176.6239   24.8308   48.2435 H   0  0  0  0  0  0  0  0  0  0  0  0
  177.3041   24.2301   49.8193 H   0  0  0  0  0  0  0  0  0  0  0  0
  177.1130   22.3750   47.5550 H   0  0  0  0  0  0  0  0  0  0  0  0
  177.7246   20.7809   47.0507 H   0  0  0  0  0  0  0  0  0  0  0  0
  178.8798   19.1342   45.5410 H   0  0  0  0  0  0  0  0  0  0  0  0
  182.5911   21.1517   46.3074 H   0  0  0  0  0  0  0  0  0  0  0  0
  1  2  1  0
  2  3  1  0
  3  4  1  0
  4  5  1  0
  5  6  2  0
  5  7  1  0
  7  8  2  0
  8  9  1  0
  9 10  2  0
 10 11  1  0
 10 12  1  0
 12 13  2  0
 13  7  1  0
  1 14  1  0
  1 15  1  0
  1 16  1  0
  2 17  1  0
  2 18  1  0
  3 19  1  0
  3 20  1  0
  4 21  1  0
  8 22  1  0
  9 23  1  0
 12 24  1  0
M  CHG  1   1   1
M  END
>  <meeko>  (3) 
{"is_sidechain": [false], "free_energy": -5.246, "intermolecular_energy": -6.464, "internal_energy": -0.14}

$$$$
lazabemide_out
     RDKit          3D

 24 24  0  0  0  0  0  0  0  0999 V2000
  174.7910   21.2380   50.3250 N   0  0  0  0  0  0  0  0  0  0  0  0
  175.5420   20.0190   49.9970 C   0  0  0  0  0  0  0  0  0  0  0  0
  175.6710   19.8180   48.4800 C   0  0  0  0  0  0  0  0  0  0  0  0
  176.9720   20.2180   47.9790 N   0  0  0  0  0  0  0  0  0  0  0  0
  177.5760   19.6100   46.9020 C   0  0  0  0  0  0  0  0  0  0  0  0
  177.0500   18.7360   46.2220 O   0  0  0  0  0  0  0  0  0  0  0  0
  178.9670   20.0920   46.6200 C   0  0  0  0  0  0  0  0  0  0  0  0
  179.7910   19.3690   45.7640 C   0  0  0  0  0  0  0  0  0  0  0  0
  181.0810   19.8440   45.5290 C   0  0  0  0  0  0  0  0  0  0  0  0
  181.4980   21.0150   46.1530 C   0  0  0  0  0  0  0  0  0  0  0  0
  183.0770   21.6320   45.8880 Cl  0  0  0  0  0  0  0  0  0  0  0  0
  180.6090   21.6710   46.9950 C   0  0  0  0  0  0  0  0  0  0  0  0
  179.3490   21.2410   47.2500 N   0  0  0  0  0  0  0  0  0  0  0  0
  174.5140   21.7080   49.4640 H   0  0  0  0  0  0  0  0  0  0  0  0
  175.3790   21.8600   50.8790 H   0  0  0  0  0  0  0  0  0  0  0  0
  173.9580   20.9900   50.8600 H   0  0  0  0  0  0  0  0  0  0  0  0
  176.5492   20.0934   50.4330 H   0  0  0  0  0  0  0  0  0  0  0  0
  174.9943   19.1591   50.4100 H   0  0  0  0  0  0  0  0  0  0  0  0
  175.5156   18.7536   48.2500 H   0  0  0  0  0  0  0  0  0  0  0  0
  174.9143   20.4499   47.9919 H   0  0  0  0  0  0  0  0  0  0  0  0
  177.4420   20.9570   48.4280 H   0  0  0  0  0  0  0  0  0  0  0  0
  179.4341   18.4456   45.2844 H   0  0  0  0  0  0  0  0  0  0  0  0
  181.7609   19.2988   44.8578 H   0  0  0  0  0  0  0  0  0  0  0  0
  180.9481   22.5958   47.4847 H   0  0  0  0  0  0  0  0  0  0  0  0
  1  2  1  0
  2  3  1  0
  3  4  1  0
  4  5  1  0
  5  6  2  0
  5  7  1  0
  7  8  2  0
  8  9  1  0
  9 10  2  0
 10 11  1  0
 10 12  1  0
 12 13  2  0
 13  7  1  0
  1 14  1  0
  1 15  1  0
  1 16  1  0
  2 17  1  0
  2 18  1  0
  3 19  1  0
  3 20  1  0
  4 21  1  0
  8 22  1  0
  9 23  1  0
 12 24  1  0
M  CHG  1   1   1
M  END
>  <meeko>  (4) 
{"is_sidechain": [false], "free_energy": -5.23, "intermolecular_energy": -6.44, "internal_energy": -0.144}

$$$$
lazabemide_out
     RDKit          3D

 24 24  0  0  0  0  0  0  0  0999 V2000
  174.8410   21.2450   50.3130 N   0  0  0  0  0  0  0  0  0  0  0  0
  175.4410   21.4070   48.9820 C   0  0  0  0  0  0  0  0  0  0  0  0
  176.9170   21.8250   49.0680 C   0  0  0  0  0  0  0  0  0  0  0  0
  177.7670   21.0280   48.2060 N   0  0  0  0  0  0  0  0  0  0  0  0
  179.0580   21.3880   47.8900 C   0  0  0  0  0  0  0  0  0  0  0  0
  179.6330   22.3630   48.3600 O   0  0  0  0  0  0  0  0  0  0  0  0
  179.7230   20.4920   46.8900 C   0  0  0  0  0  0  0  0  0  0  0  0
  180.9230   20.8790   46.3030 C   0  0  0  0  0  0  0  0  0  0  0  0
  181.5110   20.0220   45.3730 C   0  0  0  0  0  0  0  0  0  0  0  0
  180.8840   18.8190   45.0650 C   0  0  0  0  0  0  0  0  0  0  0  0
  181.5780   17.7380   43.9280 Cl  0  0  0  0  0  0  0  0  0  0  0  0
  179.6870   18.5140   45.6990 C   0  0  0  0  0  0  0  0  0  0  0  0
  179.0830   19.3210   46.6060 N   0  0  0  0  0  0  0  0  0  0  0  0
  174.0480   21.8790   50.4070 H   0  0  0  0  0  0  0  0  0  0  0  0
  175.5360   21.4600   51.0270 H   0  0  0  0  0  0  0  0  0  0  0  0
  174.5230   20.2830   50.4270 H   0  0  0  0  0  0  0  0  0  0  0  0
  175.3726   20.4511   48.4420 H   0  0  0  0  0  0  0  0  0  0  0  0
  174.8915   22.2000   48.4537 H   0  0  0  0  0  0  0  0  0  0  0  0
  177.0033   22.8807   48.7713 H   0  0  0  0  0  0  0  0  0  0  0  0
  177.2502   21.6698   50.1048 H   0  0  0  0  0  0  0  0  0  0  0  0
  177.4060   20.1920   47.8310 H   0  0  0  0  0  0  0  0  0  0  0  0
  181.3963   21.8366   46.5656 H   0  0  0  0  0  0  0  0  0  0  0  0
  182.4602   20.2943   44.8883 H   0  0  0  0  0  0  0  0  0  0  0  0
  179.1991   17.5600   45.4505 H   0  0  0  0  0  0  0  0  0  0  0  0
  1  2  1  0
  2  3  1  0
  3  4  1  0
  4  5  1  0
  5  6  2  0
  5  7  1  0
  7  8  2  0
  8  9  1  0
  9 10  2  0
 10 11  1  0
 10 12  1  0
 12 13  2  0
 13  7  1  0
  1 14  1  0
  1 15  1  0
  1 16  1  0
  2 17  1  0
  2 18  1  0
  3 19  1  0
  3 20  1  0
  4 21  1  0
  8 22  1  0
  9 23  1  0
 12 24  1  0
M  CHG  1   1   1
M  END
>  <meeko>  (5) 
{"is_sidechain": [false], "free_energy": -5.154, "intermolecular_energy": -6.353, "internal_energy": -0.14}

$$$$
lazabemide_out
     RDKit          3D

 24 24  0  0  0  0  0  0  0  0999 V2000
  181.1280   14.7440   40.3540 N   0  0  0  0  0  0  0  0  0  0  0  0
  180.6890   15.7330   41.3460 C   0  0  0  0  0  0  0  0  0  0  0  0
  181.6700   15.8370   42.5240 C   0  0  0  0  0  0  0  0  0  0  0  0
  181.4230   17.0030   43.3480 N   0  0  0  0  0  0  0  0  0  0  0  0
  180.7360   16.9440   44.5390 C   0  0  0  0  0  0  0  0  0  0  0  0
  180.3370   15.9040   45.0510 O   0  0  0  0  0  0  0  0  0  0  0  0
  180.4850   18.2780   45.1750 C   0  0  0  0  0  0  0  0  0  0  0  0
  181.4480   19.2790   45.0880 C   0  0  0  0  0  0  0  0  0  0  0  0
  181.1830   20.5060   45.6970 C   0  0  0  0  0  0  0  0  0  0  0  0
  179.9760   20.6870   46.3640 C   0  0  0  0  0  0  0  0  0  0  0  0
  179.6140   22.1820   47.1240 Cl  0  0  0  0  0  0  0  0  0  0  0  0
  179.0740   19.6320   46.4030 C   0  0  0  0  0  0  0  0  0  0  0  0
  179.2950   18.4250   45.8260 N   0  0  0  0  0  0  0  0  0  0  0  0
  181.9600   15.0880   39.8760 H   0  0  0  0  0  0  0  0  0  0  0  0
  180.3830   14.5900   39.6750 H   0  0  0  0  0  0  0  0  0  0  0  0
  181.3450   13.8650   40.8250 H   0  0  0  0  0  0  0  0  0  0  0  0
  180.6131   16.7162   40.8585 H   0  0  0  0  0  0  0  0  0  0  0  0
  179.7145   15.4102   41.7412 H   0  0  0  0  0  0  0  0  0  0  0  0
  181.5699   14.9363   43.1475 H   0  0  0  0  0  0  0  0  0  0  0  0
  182.6843   15.9292   42.1083 H   0  0  0  0  0  0  0  0  0  0  0  0
  181.7630   17.8760   43.0430 H   0  0  0  0  0  0  0  0  0  0  0  0
  182.3936   19.1072   44.5529 H   0  0  0  0  0  0  0  0  0  0  0  0
  181.9203   21.3210   45.6502 H   0  0  0  0  0  0  0  0  0  0  0  0
  178.1228   19.7846   46.9340 H   0  0  0  0  0  0  0  0  0  0  0  0
  1  2  1  0
  2  3  1  0
  3  4  1  0
  4  5  1  0
  5  6  2  0
  5  7  1  0
  7  8  2  0
  8  9  1  0
  9 10  2  0
 10 11  1  0
 10 12  1  0
 12 13  2  0
 13  7  1  0
  1 14  1  0
  1 15  1  0
  1 16  1  0
  2 17  1  0
  2 18  1  0
  3 19  1  0
  3 20  1  0
  4 21  1  0
  8 22  1  0
  9 23  1  0
 12 24  1  0
M  CHG  1   1   1
M  END
>  <meeko>  (6) 
{"is_sidechain": [false], "free_energy": -4.962, "intermolecular_energy": -6.103, "internal_energy": -0.158}

$$$$
lazabemide_out
     RDKit          3D

 24 24  0  0  0  0  0  0  0  0999 V2000
  180.1210   18.1110   45.5210 N   0  0  0  0  0  0  0  0  0  0  0  0
  181.2390   18.9100   45.0030 C   0  0  0  0  0  0  0  0  0  0  0  0
  181.6290   20.0400   45.9680 C   0  0  0  0  0  0  0  0  0  0  0  0
  180.4780   20.7820   46.4440 N   0  0  0  0  0  0  0  0  0  0  0  0
  180.5100   21.5610   47.5790 C   0  0  0  0  0  0  0  0  0  0  0  0
  181.5180   21.7630   48.2450 O   0  0  0  0  0  0  0  0  0  0  0  0
  179.1850   22.1460   47.9640 C   0  0  0  0  0  0  0  0  0  0  0  0
  178.7480   23.3250   47.3680 C   0  0  0  0  0  0  0  0  0  0  0  0
  177.5120   23.8430   47.7540 C   0  0  0  0  0  0  0  0  0  0  0  0
  176.7630   23.1710   48.7140 C   0  0  0  0  0  0  0  0  0  0  0  0
  175.2380   23.7770   49.2140 Cl  0  0  0  0  0  0  0  0  0  0  0  0
  177.2770   22.0010   49.2570 C   0  0  0  0  0  0  0  0  0  0  0  0
  178.4740   21.4670   48.9100 N   0  0  0  0  0  0  0  0  0  0  0  0
  179.2510   18.6310   45.4080 H   0  0  0  0  0  0  0  0  0  0  0  0
  180.2750   17.9140   46.5100 H   0  0  0  0  0  0  0  0  0  0  0  0
  180.0620   17.2340   45.0050 H   0  0  0  0  0  0  0  0  0  0  0  0
  182.1082   18.2522   44.8554 H   0  0  0  0  0  0  0  0  0  0  0  0
  180.9219   19.3659   44.0535 H   0  0  0  0  0  0  0  0  0  0  0  0
  182.1494   19.6023   46.8326 H   0  0  0  0  0  0  0  0  0  0  0  0
  182.2765   20.7404   45.4201 H   0  0  0  0  0  0  0  0  0  0  0  0
  179.6380   20.7270   45.9340 H   0  0  0  0  0  0  0  0  0  0  0  0
  179.3620   23.8356   46.6115 H   0  0  0  0  0  0  0  0  0  0  0  0
  177.1337   24.7728   47.3041 H   0  0  0  0  0  0  0  0  0  0  0  0
  176.6768   21.4756   50.0145 H   0  0  0  0  0  0  0  0  0  0  0  0
  1  2  1  0
  2  3  1  0
  3  4  1  0
  4  5  1  0
  5  6  2  0
  5  7  1  0
  7  8  2  0
  8  9  1  0
  9 10  2  0
 10 11  1  0
 10 12  1  0
 12 13  2  0
 13  7  1  0
  1 14  1  0
  1 15  1  0
  1 16  1  0
  2 17  1  0
  2 18  1  0
  3 19  1  0
  3 20  1  0
  4 21  1  0
  8 22  1  0
  9 23  1  0
 12 24  1  0
M  CHG  1   1   1
M  END
>  <meeko>  (7) 
{"is_sidechain": [false], "free_energy": -4.877, "intermolecular_energy": -6.023, "internal_energy": -0.136}

$$$$
lazabemide_out
     RDKit          3D

 24 24  0  0  0  0  0  0  0  0999 V2000
  187.3800   21.1490   44.3070 N   0  0  0  0  0  0  0  0  0  0  0  0
  186.2570   21.8720   43.6980 C   0  0  0  0  0  0  0  0  0  0  0  0
  185.4450   22.6510   44.7440 C   0  0  0  0  0  0  0  0  0  0  0  0
  184.1380   22.0680   44.9760 N   0  0  0  0  0  0  0  0  0  0  0  0
  183.4140   22.2920   46.1250 C   0  0  0  0  0  0  0  0  0  0  0  0
  183.7630   23.0550   47.0190 O   0  0  0  0  0  0  0  0  0  0  0  0
  182.1450   21.5020   46.2200 C   0  0  0  0  0  0  0  0  0  0  0  0
  181.9940   20.3400   45.4690 C   0  0  0  0  0  0  0  0  0  0  0  0
  180.7970   19.6330   45.5780 C   0  0  0  0  0  0  0  0  0  0  0  0
  179.8010   20.1080   46.4250 C   0  0  0  0  0  0  0  0  0  0  0  0
  178.3160   19.2640   46.5870 Cl  0  0  0  0  0  0  0  0  0  0  0  0
  180.0370   21.2780   47.1360 C   0  0  0  0  0  0  0  0  0  0  0  0
  181.1850   21.9940   47.0560 N   0  0  0  0  0  0  0  0  0  0  0  0
  188.0790   20.9440   43.5930 H   0  0  0  0  0  0  0  0  0  0  0  0
  187.0420   20.2770   44.7130 H   0  0  0  0  0  0  0  0  0  0  0  0
  187.8000   21.7240   45.0370 H   0  0  0  0  0  0  0  0  0  0  0  0
  186.6510   22.5798   42.9538 H   0  0  0  0  0  0  0  0  0  0  0  0
  185.5902   21.1342   43.2279 H   0  0  0  0  0  0  0  0  0  0  0  0
  186.0028   22.6560   45.6921 H   0  0  0  0  0  0  0  0  0  0  0  0
  185.2938   23.6705   44.3597 H   0  0  0  0  0  0  0  0  0  0  0  0
  183.7520   21.4880   44.2810 H   0  0  0  0  0  0  0  0  0  0  0  0
  182.7984   19.9883   44.8063 H   0  0  0  0  0  0  0  0  0  0  0  0
  180.6420   18.7097   45.0005 H   0  0  0  0  0  0  0  0  0  0  0  0
  179.2443   21.6455   47.8042 H   0  0  0  0  0  0  0  0  0  0  0  0
  1  2  1  0
  2  3  1  0
  3  4  1  0
  4  5  1  0
  5  6  2  0
  5  7  1  0
  7  8  2  0
  8  9  1  0
  9 10  2  0
 10 11  1  0
 10 12  1  0
 12 13  2  0
 13  7  1  0
  1 14  1  0
  1 15  1  0
  1 16  1  0
  2 17  1  0
  2 18  1  0
  3 19  1  0
  3 20  1  0
  4 21  1  0
  8 22  1  0
  9 23  1  0
 12 24  1  0
M  CHG  1   1   1
M  END
>  <meeko>  (8) 
{"is_sidechain": [false], "free_energy": -4.74, "intermolecular_energy": -5.849, "internal_energy": -0.145}

$$$$
lazabemide_out
     RDKit          3D

 24 24  0  0  0  0  0  0  0  0999 V2000
  182.2910   15.6080   42.8490 N   0  0  0  0  0  0  0  0  0  0  0  0
  181.1840   16.4910   43.2380 C   0  0  0  0  0  0  0  0  0  0  0  0
  181.6860   17.7550   43.9530 C   0  0  0  0  0  0  0  0  0  0  0  0
  180.6110   18.4970   44.5820 N   0  0  0  0  0  0  0  0  0  0  0  0
  180.8330   19.5440   45.4480 C   0  0  0  0  0  0  0  0  0  0  0  0
  181.9430   19.9950   45.7090 O   0  0  0  0  0  0  0  0  0  0  0  0
  179.5930   20.0970   46.0810 C   0  0  0  0  0  0  0  0  0  0  0  0
  178.4500   19.3080   46.1720 C   0  0  0  0  0  0  0  0  0  0  0  0
  177.3130   19.8570   46.7630 C   0  0  0  0  0  0  0  0  0  0  0  0
  177.3570   21.1640   47.2380 C   0  0  0  0  0  0  0  0  0  0  0  0
  175.9780   21.8730   47.9720 Cl  0  0  0  0  0  0  0  0  0  0  0  0
  178.5400   21.8790   47.1050 C   0  0  0  0  0  0  0  0  0  0  0  0
  179.6650   21.3820   46.5350 N   0  0  0  0  0  0  0  0  0  0  0  0
  181.9320   14.6690   42.6770 H   0  0  0  0  0  0  0  0  0  0  0  0
  182.9800   15.5770   43.6000 H   0  0  0  0  0  0  0  0  0  0  0  0
  182.7290   15.9660   42.0000 H   0  0  0  0  0  0  0  0  0  0  0  0
  180.6317   16.7887   42.3345 H   0  0  0  0  0  0  0  0  0  0  0  0
  180.5353   15.9393   43.9343 H   0  0  0  0  0  0  0  0  0  0  0  0
  182.4109   17.4596   44.7258 H   0  0  0  0  0  0  0  0  0  0  0  0
  182.1470   18.4077   43.1970 H   0  0  0  0  0  0  0  0  0  0  0  0
  179.6820   18.2410   44.3810 H   0  0  0  0  0  0  0  0  0  0  0  0
  178.4440   18.2775   45.7874 H   0  0  0  0  0  0  0  0  0  0  0  0
  176.3913   19.2634   46.8528 H   0  0  0  0  0  0  0  0  0  0  0  0
  178.5657   22.9109   47.4851 H   0  0  0  0  0  0  0  0  0  0  0  0
  1  2  1  0
  2  3  1  0
  3  4  1  0
  4  5  1  0
  5  6  2  0
  5  7  1  0
  7  8  2  0
  8  9  1  0
  9 10  2  0
 10 11  1  0
 10 12  1  0
 12 13  2  0
 13  7  1  0
  1 14  1  0
  1 15  1  0
  1 16  1  0
  2 17  1  0
  2 18  1  0
  3 19  1  0
  3 20  1  0
  4 21  1  0
  8 22  1  0
  9 23  1  0
 12 24  1  0
M  CHG  1   1   1
M  END
>  <meeko>  (9) 
{"is_sidechain": [false], "free_energy": -4.576, "intermolecular_energy": -5.66, "internal_energy": -0.136}

$$$$
