VP7_out
     RDKit          3D

 45 48  0  0  0  0  0  0  0  0999 V2000
  180.5840   14.3440   43.5550 C   0  0  0  0  0  0  0  0  0  0  0  0
  181.3490   15.4800   42.8790 C   0  0  0  0  0  0  0  0  0  0  0  0
  180.8700   15.6730   41.4420 C   0  0  0  0  0  0  0  0  0  0  0  0
  182.7300   15.1200   42.8290 O   0  0  0  0  0  0  0  0  0  0  0  0
  181.2070   16.7270   43.6450 C   0  0  0  0  0  0  0  0  0  0  0  0
  181.0920   17.7420   44.2790 C   0  0  0  0  0  0  0  0  0  0  0  0
  180.9510   18.9470   45.0380 C   0  0  0  0  0  0  0  0  0  0  0  0
  182.0030   19.8570   45.0960 C   0  0  0  0  0  0  0  0  0  0  0  0
  181.8900   21.0380   45.8350 C   0  0  0  0  0  0  0  0  0  0  0  0
  180.6850   21.2680   46.5100 C   0  0  0  0  0  0  0  0  0  0  0  0
  180.3120   22.3220   47.3010 N   0  0  0  0  0  0  0  0  0  0  0  0
  179.0360   22.1550   47.7930 C   0  0  0  0  0  0  0  0  0  0  0  0
  178.5450   20.9570   47.2800 C   0  0  0  0  0  0  0  0  0  0  0  0
  179.6060   20.3900   46.4740 C   0  0  0  0  0  0  0  0  0  0  0  0
  179.7550   19.2000   45.7200 C   0  0  0  0  0  0  0  0  0  0  0  0
  177.2090   20.3880   47.5150 C   0  0  0  0  0  0  0  0  0  0  0  0
  176.8240   19.4980   46.5710 N   0  0  0  0  0  0  0  0  0  0  0  0
  175.6470   18.8950   46.7170 C   0  0  0  0  0  0  0  0  0  0  0  0
  175.2600   18.0040   45.7370 N   0  0  0  0  0  0  0  0  0  0  0  0
  174.7970   19.1250   47.7120 N   0  0  0  0  0  0  0  0  0  0  0  0
  175.1960   20.0190   48.6310 C   0  0  0  0  0  0  0  0  0  0  0  0
  176.3990   20.7050   48.5900 C   0  0  0  0  0  0  0  0  0  0  0  0
  176.7200   21.6970   49.6630 C   0  0  0  0  0  0  0  0  0  0  0  0
  177.0390   23.0670   49.0850 C   0  0  0  0  0  0  0  0  0  0  0  0
  178.5050   23.2040   48.7120 C   0  0  0  0  0  0  0  0  0  0  0  0
  180.6567   14.4520   44.6473 H   0  0  0  0  0  0  0  0  0  0  0  0
  179.5272   14.3826   43.2523 H   0  0  0  0  0  0  0  0  0  0  0  0
  181.0171   13.3792   43.2523 H   0  0  0  0  0  0  0  0  0  0  0  0
  179.8497   16.0841   41.4477 H   0  0  0  0  0  0  0  0  0  0  0  0
  181.5433   16.3700   40.9216 H   0  0  0  0  0  0  0  0  0  0  0  0
  180.8719   14.7039   40.9216 H   0  0  0  0  0  0  0  0  0  0  0  0
  183.0560   15.2140   41.9200 H   0  0  0  0  0  0  0  0  0  0  0  0
  182.9356   19.6437   44.5530 H   0  0  0  0  0  0  0  0  0  0  0  0
  182.7178   21.7607   45.8845 H   0  0  0  0  0  0  0  0  0  0  0  0
  180.8840   23.1000   47.4950 H   0  0  0  0  0  0  0  0  0  0  0  0
  178.9301   18.4741   45.6704 H   0  0  0  0  0  0  0  0  0  0  0  0
  175.7410   17.9780   44.8780 H   0  0  0  0  0  0  0  0  0  0  0  0
  174.5040   17.3950   45.8970 H   0  0  0  0  0  0  0  0  0  0  0  0
  174.5205   20.2208   49.4754 H   0  0  0  0  0  0  0  0  0  0  0  0
  175.8546   21.7867   50.3361 H   0  0  0  0  0  0  0  0  0  0  0  0
  177.6067   21.3392   50.2068 H   0  0  0  0  0  0  0  0  0  0  0  0
  176.4279   23.2225   48.1837 H   0  0  0  0  0  0  0  0  0  0  0  0
  176.8143   23.8196   49.8551 H   0  0  0  0  0  0  0  0  0  0  0  0
  178.6407   24.1810   48.2251 H   0  0  0  0  0  0  0  0  0  0  0  0
  179.0666   23.0942   49.6514 H   0  0  0  0  0  0  0  0  0  0  0  0
  1  2  1  0
  2  3  1  0
  2  4  1  0
  2  5  1  0
  5  6  3  0
  6  7  1  0
  7  8  2  0
  8  9  1  0
  9 10  2  0
 10 11  1  0
 11 12  1  0
 12 13  2  0
 13 14  1  0
 14 15  2  0
 13 16  1  0
 16 17  2  0
 17 18  1  0
 18 19  1  0
 18 20  2  0
 20 21  1  0
 21 22  2  0
 22 23  1  0
 23 24  1  0
 24 25  1  0
 15  7  1  0
 22 16  1  0
 14 10  1  0
 25 12  1  0
  1 26  1  0
  1 27  1  0
  1 28  1  0
  3 29  1  0
  3 30  1  0
  3 31  1  0
  4 32  1  0
  8 33  1  0
  9 34  1  0
 11 35  1  0
 15 36  1  0
 19 37  1  0
 19 38  1  0
 21 39  1  0
 23 40  1  0
 23 41  1  0
 24 42  1  0
 24 43  1  0
 25 44  1  0
 25 45  1  0
M  END
>  <meeko>  (1) 
{"is_sidechain": [false], "free_energy": -8.854, "intermolecular_energy": -11.96, "internal_energy": 0.708}

$$$$
VP7_out
     RDKit          3D

 45 48  0  0  0  0  0  0  0  0999 V2000
  185.7600   22.5560   44.2430 C   0  0  0  0  0  0  0  0  0  0  0  0
  184.9140   23.0890   45.3980 C   0  0  0  0  0  0  0  0  0  0  0  0
  184.5440   24.5520   45.1650 C   0  0  0  0  0  0  0  0  0  0  0  0
  185.6970   23.0260   46.5900 O   0  0  0  0  0  0  0  0  0  0  0  0
  183.7050   22.2710   45.5740 C   0  0  0  0  0  0  0  0  0  0  0  0
  182.7220   21.5940   45.7170 C   0  0  0  0  0  0  0  0  0  0  0  0
  181.5470   20.7950   45.8870 C   0  0  0  0  0  0  0  0  0  0  0  0
  181.5020   19.5080   45.3580 C   0  0  0  0  0  0  0  0  0  0  0  0
  180.3640   18.7100   45.5070 C   0  0  0  0  0  0  0  0  0  0  0  0
  179.2780   19.2530   46.2060 C   0  0  0  0  0  0  0  0  0  0  0  0
  178.0560   18.7050   46.4890 N   0  0  0  0  0  0  0  0  0  0  0  0
  177.2600   19.5830   47.1900 C   0  0  0  0  0  0  0  0  0  0  0  0
  178.0020   20.7420   47.3990 C   0  0  0  0  0  0  0  0  0  0  0  0
  179.2830   20.5310   46.7570 C   0  0  0  0  0  0  0  0  0  0  0  0
  180.4500   21.3150   46.5840 C   0  0  0  0  0  0  0  0  0  0  0  0
  177.5640   21.9410   48.1300 C   0  0  0  0  0  0  0  0  0  0  0  0
  178.5850   22.7100   48.5750 N   0  0  0  0  0  0  0  0  0  0  0  0
  178.2910   23.8400   49.2120 C   0  0  0  0  0  0  0  0  0  0  0  0
  179.3420   24.6040   49.6760 N   0  0  0  0  0  0  0  0  0  0  0  0
  177.0590   24.2620   49.4770 N   0  0  0  0  0  0  0  0  0  0  0  0
  176.0620   23.4780   49.0340 C   0  0  0  0  0  0  0  0  0  0  0  0
  176.2430   22.2850   48.3550 C   0  0  0  0  0  0  0  0  0  0  0  0
  175.0490   21.4860   47.9340 C   0  0  0  0  0  0  0  0  0  0  0  0
  175.1050   20.0650   48.4600 C   0  0  0  0  0  0  0  0  0  0  0  0
  175.8750   19.1420   47.5320 C   0  0  0  0  0  0  0  0  0  0  0  0
  186.6264   22.0101   44.6446 H   0  0  0  0  0  0  0  0  0  0  0  0
  185.1526   21.8771   43.6264 H   0  0  0  0  0  0  0  0  0  0  0  0
  186.1101   23.3970   43.6264 H   0  0  0  0  0  0  0  0  0  0  0  0
  184.4164   25.0567   46.1340 H   0  0  0  0  0  0  0  0  0  0  0  0
  185.3453   25.0468   44.5966 H   0  0  0  0  0  0  0  0  0  0  0  0
  183.6038   24.6064   44.5966 H   0  0  0  0  0  0  0  0  0  0  0  0
  186.6390   23.0790   46.3620 H   0  0  0  0  0  0  0  0  0  0  0  0
  182.3738   19.1137   44.8154 H   0  0  0  0  0  0  0  0  0  0  0  0
  180.3227   17.6927   45.0906 H   0  0  0  0  0  0  0  0  0  0  0  0
  177.7800   17.7970   46.2230 H   0  0  0  0  0  0  0  0  0  0  0  0
  180.4943   22.3333   46.9977 H   0  0  0  0  0  0  0  0  0  0  0  0
  179.6080   25.4210   49.1940 H   0  0  0  0  0  0  0  0  0  0  0  0
  179.8270   24.3320   50.4890 H   0  0  0  0  0  0  0  0  0  0  0  0
  175.0297   23.8069   49.2240 H   0  0  0  0  0  0  0  0  0  0  0  0
  174.1413   21.9726   48.3204 H   0  0  0  0  0  0  0  0  0  0  0  0
  175.0385   21.4423   46.8349 H   0  0  0  0  0  0  0  0  0  0  0  0
  175.5973   20.0701   49.4437 H   0  0  0  0  0  0  0  0  0  0  0  0
  174.0735   19.6896   48.5317 H   0  0  0  0  0  0  0  0  0  0  0  0
  175.9429   18.1559   48.0147 H   0  0  0  0  0  0  0  0  0  0  0  0
  175.3179   19.1343   46.5836 H   0  0  0  0  0  0  0  0  0  0  0  0
  1  2  1  0
  2  3  1  0
  2  4  1  0
  2  5  1  0
  5  6  3  0
  6  7  1  0
  7  8  2  0
  8  9  1  0
  9 10  2  0
 10 11  1  0
 11 12  1  0
 12 13  2  0
 13 14  1  0
 14 15  2  0
 13 16  1  0
 16 17  2  0
 17 18  1  0
 18 19  1  0
 18 20  2  0
 20 21  1  0
 21 22  2  0
 22 23  1  0
 23 24  1  0
 24 25  1  0
 15  7  1  0
 22 16  1  0
 14 10  1  0
 25 12  1  0
  1 26  1  0
  1 27  1  0
  1 28  1  0
  3 29  1  0
  3 30  1  0
  3 31  1  0
  4 32  1  0
  8 33  1  0
  9 34  1  0
 11 35  1  0
 15 36  1  0
 19 37  1  0
 19 38  1  0
 21 39  1  0
 23 40  1  0
 23 41  1  0
 24 42  1  0
 24 43  1  0
 25 44  1  0
 25 45  1  0
M  END
>  <meeko>  (2) 
{"is_sidechain": [false], "free_energy": -8.228, "intermolecular_energy": -11.121, "internal_energy": 0.715}

$$$$
