cand_013_out
     RDKit          3D

 50 53  0  0  0  0  0  0  0  0999 V2000
   48.3900   23.9750  -12.9010 C   0  0  0  0  0  0  0  0  0  0  0  0
   47.2300   24.4570  -13.6470 N   0  0  0  0  0  0  0  0  0  0  0  0
   46.0740   23.5500  -13.4530 C   0  0  0  0  0  0  0  0  0  0  0  0
   44.8020   24.0480  -14.1780 C   0  0  0  0  0  0  0  0  0  0  0  0
   44.4650   25.4170  -13.7220 N   0  0  0  0  0  0  0  0  0  0  0  0
   43.2450   25.8870  -14.2340 C   0  0  0  0  0  0  0  0  0  0  0  0
   42.8470   25.6380  -15.5560 C   0  0  0  0  0  0  0  0  0  0  0  0
   41.6270   26.1090  -16.0490 C   0  0  0  0  0  0  0  0  0  0  0  0
   40.7610   26.8390  -15.2300 C   0  0  0  0  0  0  0  0  0  0  0  0
   39.4770   27.3720  -15.7310 C   0  0  0  0  0  0  0  0  0  0  0  0
   39.1320   26.8650  -16.9790 O   0  0  0  0  0  0  0  0  0  0  0  0
   37.9630   27.2800  -17.5640 C   0  0  0  0  0  0  0  0  0  0  0  0
   37.6510   26.7360  -18.8110 C   0  0  0  0  0  0  0  0  0  0  0  0
   36.4740   27.1170  -19.4620 C   0  0  0  0  0  0  0  0  0  0  0  0
   35.6130   28.0400  -18.8660 C   0  0  0  0  0  0  0  0  0  0  0  0
   35.9260   28.5800  -17.6220 C   0  0  0  0  0  0  0  0  0  0  0  0
   35.0380   29.4790  -17.0970 O   0  0  0  0  0  0  0  0  0  0  0  0
   37.1030   28.1990  -16.9710 C   0  0  0  0  0  0  0  0  0  0  0  0
   37.4700   28.7440  -15.6630 C   0  0  0  0  0  0  0  0  0  0  0  0
   36.7680   29.5640  -15.0780 O   0  0  0  0  0  0  0  0  0  0  0  0
   38.7350   28.2690  -15.0550 C   0  0  0  0  0  0  0  0  0  0  0  0
   39.0820   28.8020  -13.8280 O   0  0  0  0  0  0  0  0  0  0  0  0
   41.1580   27.0970  -13.9110 C   0  0  0  0  0  0  0  0  0  0  0  0
   42.3880   26.6270  -13.4020 C   0  0  0  0  0  0  0  0  0  0  0  0
   42.7700   26.9260  -11.9720 C   0  0  0  0  0  0  0  0  0  0  0  0
   43.6400   27.9790  -11.8690 F   0  0  0  0  0  0  0  0  0  0  0  0
   43.4030   25.8910  -11.3460 F   0  0  0  0  0  0  0  0  0  0  0  0
   41.7130   27.2700  -11.1820 F   0  0  0  0  0  0  0  0  0  0  0  0
   45.5970   26.3520  -13.9280 C   0  0  0  0  0  0  0  0  0  0  0  0
   46.8560   25.8210  -13.2040 C   0  0  0  0  0  0  0  0  0  0  0  0
   48.1921   24.0572  -11.8221 H   0  0  0  0  0  0  0  0  0  0  0  0
   48.5810   22.9230  -13.1596 H   0  0  0  0  0  0  0  0  0  0  0  0
   49.2703   24.5818  -13.1596 H   0  0  0  0  0  0  0  0  0  0  0  0
   47.4790   24.4790  -14.6360 H   0  0  0  0  0  0  0  0  0  0  0  0
   46.3363   22.5558  -13.8438 H   0  0  0  0  0  0  0  0  0  0  0  0
   45.8530   23.5160  -12.3760 H   0  0  0  0  0  0  0  0  0  0  0  0
   44.9813   24.0588  -15.2632 H   0  0  0  0  0  0  0  0  0  0  0  0
   43.9652   23.3728  -13.9462 H   0  0  0  0  0  0  0  0  0  0  0  0
   43.5087   25.0602  -16.2181 H   0  0  0  0  0  0  0  0  0  0  0  0
   41.3454   25.9031  -17.0922 H   0  0  0  0  0  0  0  0  0  0  0  0
   38.3299   26.0089  -19.2805 H   0  0  0  0  0  0  0  0  0  0  0  0
   36.2262   26.6891  -20.4446 H   0  0  0  0  0  0  0  0  0  0  0  0
   34.6876   28.3404  -19.3792 H   0  0  0  0  0  0  0  0  0  0  0  0
   34.6000   29.2870  -16.2900 H   0  0  0  0  0  0  0  0  0  0  0  0
   38.4300   29.2110  -13.2940 H   0  0  0  0  0  0  0  0  0  0  0  0
   40.4945   27.6804  -13.2558 H   0  0  0  0  0  0  0  0  0  0  0  0
   45.8054   26.4410  -15.0044 H   0  0  0  0  0  0  0  0  0  0  0  0
   45.3320   27.3378  -13.5181 H   0  0  0  0  0  0  0  0  0  0  0  0
   47.6952   26.5017  -13.4098 H   0  0  0  0  0  0  0  0  0  0  0  0
   46.6294   25.7738  -12.1286 H   0  0  0  0  0  0  0  0  0  0  0  0
  1  2  1  0
  2  3  1  0
  3  4  1  0
  4  5  1  0
  5  6  1  0
  6  7  2  0
  7  8  1  0
  8  9  2  0
  9 10  1  0
 10 11  1  0
 11 12  1  0
 12 13  2  0
 13 14  1  0
 14 15  2  0
 15 16  1  0
 16 17  1  0
 16 18  2  0
 18 19  1  0
 19 20  2  0
 19 21  1  0
 21 22  1  0
  9 23  1  0
 23 24  2  0
 24 25  1  0
 25 26  1  0
 25 27  1  0
 25 28  1  0
  5 29  1  0
 29 30  1  0
 30  2  1  0
 24  6  1  0
 21 10  2  0
 18 12  1  0
  1 31  1  0
  1 32  1  0
  1 33  1  0
  2 34  1  0
  3 35  1  0
  3 36  1  0
  4 37  1  0
  4 38  1  0
  7 39  1  0
  8 40  1  0
 13 41  1  0
 14 42  1  0
 15 43  1  0
 17 44  1  0
 22 45  1  0
 23 46  1  0
 29 47  1  0
 29 48  1  0
 30 49  1  0
 30 50  1  0
M  CHG  1   2   1
M  END
>  <meeko>  (1) 
{"is_sidechain": [false], "free_energy": -0.535, "intermolecular_energy": -0.661, "internal_energy": 0.186}

$$$$
cand_013_out
     RDKit          3D

 50 53  0  0  0  0  0  0  0  0999 V2000
   48.3890   24.1690  -12.4190 C   0  0  0  0  0  0  0  0  0  0  0  0
   47.2840   24.4860  -13.3210 N   0  0  0  0  0  0  0  0  0  0  0  0
   46.0990   23.6540  -13.0030 C   0  0  0  0  0  0  0  0  0  0  0  0
   44.8810   23.9920  -13.8950 C   0  0  0  0  0  0  0  0  0  0  0  0
   44.5500   25.4310  -13.7710 N   0  0  0  0  0  0  0  0  0  0  0  0
   43.3720   25.7890  -14.4470 C   0  0  0  0  0  0  0  0  0  0  0  0
   43.0970   25.3460  -15.7490 C   0  0  0  0  0  0  0  0  0  0  0  0
   41.9170   25.7070  -16.4050 C   0  0  0  0  0  0  0  0  0  0  0  0
   40.9690   26.5170  -15.7740 C   0  0  0  0  0  0  0  0  0  0  0  0
   39.7250   26.9370  -16.4530 C   0  0  0  0  0  0  0  0  0  0  0  0
   38.9780   27.8390  -15.7030 O   0  0  0  0  0  0  0  0  0  0  0  0
   37.7960   28.3080  -16.2150 C   0  0  0  0  0  0  0  0  0  0  0  0
   37.0850   29.2200  -15.4340 C   0  0  0  0  0  0  0  0  0  0  0  0
   35.8720   29.7370  -15.8970 C   0  0  0  0  0  0  0  0  0  0  0  0
   35.3710   29.3410  -17.1380 C   0  0  0  0  0  0  0  0  0  0  0  0
   36.0830   28.4310  -17.9150 C   0  0  0  0  0  0  0  0  0  0  0  0
   35.5340   28.0860  -19.1210 O   0  0  0  0  0  0  0  0  0  0  0  0
   37.2960   27.9150  -17.4520 C   0  0  0  0  0  0  0  0  0  0  0  0
   38.0740   26.9550  -18.2380 C   0  0  0  0  0  0  0  0  0  0  0  0
   37.6970   26.5540  -19.3360 O   0  0  0  0  0  0  0  0  0  0  0  0
   39.3500   26.4740  -17.6600 C   0  0  0  0  0  0  0  0  0  0  0  0
   40.0700   25.5560  -18.4020 O   0  0  0  0  0  0  0  0  0  0  0  0
   41.2440   26.9690  -14.4760 C   0  0  0  0  0  0  0  0  0  0  0  0
   42.4320   26.6110  -13.8030 C   0  0  0  0  0  0  0  0  0  0  0  0
   42.6810   27.1180  -12.4030 C   0  0  0  0  0  0  0  0  0  0  0  0
   43.4190   28.2720  -12.3840 F   0  0  0  0  0  0  0  0  0  0  0  0
   43.3820   26.2460  -11.6210 F   0  0  0  0  0  0  0  0  0  0  0  0
   41.5410   27.4230  -11.7180 F   0  0  0  0  0  0  0  0  0  0  0  0
   45.7130   26.2880  -14.1080 C   0  0  0  0  0  0  0  0  0  0  0  0
   46.9170   25.9170  -13.2100 C   0  0  0  0  0  0  0  0  0  0  0  0
   48.0509   24.2660  -11.3767 H   0  0  0  0  0  0  0  0  0  0  0  0
   48.7263   23.1379  -12.6006 H   0  0  0  0  0  0  0  0  0  0  0  0
   49.2216   24.8645  -12.6006 H   0  0  0  0  0  0  0  0  0  0  0  0
   47.5890   24.2880  -14.2740 H   0  0  0  0  0  0  0  0  0  0  0  0
   46.3612   22.5959  -13.1501 H   0  0  0  0  0  0  0  0  0  0  0  0
   45.8166   23.8595  -11.9599 H   0  0  0  0  0  0  0  0  0  0  0  0
   45.1215   23.7619  -14.9434 H   0  0  0  0  0  0  0  0  0  0  0  0
   44.0174   23.3922  -13.5718 H   0  0  0  0  0  0  0  0  0  0  0  0
   43.8246   24.7016  -16.2641 H   0  0  0  0  0  0  0  0  0  0  0  0
   41.7324   25.3498  -17.4289 H   0  0  0  0  0  0  0  0  0  0  0  0
   37.4787   29.5315  -14.4553 H   0  0  0  0  0  0  0  0  0  0  0  0
   35.3114   30.4569  -15.2826 H   0  0  0  0  0  0  0  0  0  0  0  0
   34.4155   29.7470  -17.5016 H   0  0  0  0  0  0  0  0  0  0  0  0
   34.6320   27.8350  -19.1700 H   0  0  0  0  0  0  0  0  0  0  0  0
   40.8730   25.2090  -18.0670 H   0  0  0  0  0  0  0  0  0  0  0  0
   40.5157   27.6191  -13.9691 H   0  0  0  0  0  0  0  0  0  0  0  0
   45.9844   26.1364  -15.1632 H   0  0  0  0  0  0  0  0  0  0  0  0
   45.4471   27.3422  -13.9407 H   0  0  0  0  0  0  0  0  0  0  0  0
   47.7818   26.5277  -13.5084 H   0  0  0  0  0  0  0  0  0  0  0  0
   46.6289   26.1095  -12.1660 H   0  0  0  0  0  0  0  0  0  0  0  0
  1  2  1  0
  2  3  1  0
  3  4  1  0
  4  5  1  0
  5  6  1  0
  6  7  2  0
  7  8  1  0
  8  9  2  0
  9 10  1  0
 10 11  1  0
 11 12  1  0
 12 13  2  0
 13 14  1  0
 14 15  2  0
 15 16  1  0
 16 17  1  0
 16 18  2  0
 18 19  1  0
 19 20  2  0
 19 21  1  0
 21 22  1  0
  9 23  1  0
 23 24  2  0
 24 25  1  0
 25 26  1  0
 25 27  1  0
 25 28  1  0
  5 29  1  0
 29 30  1  0
 30  2  1  0
 24  6  1  0
 21 10  2  0
 18 12  1  0
  1 31  1  0
  1 32  1  0
  1 33  1  0
  2 34  1  0
  3 35  1  0
  3 36  1  0
  4 37  1  0
  4 38  1  0
  7 39  1  0
  8 40  1  0
 13 41  1  0
 14 42  1  0
 15 43  1  0
 17 44  1  0
 22 45  1  0
 23 46  1  0
 29 47  1  0
 29 48  1  0
 30 49  1  0
 30 50  1  0
M  CHG  1   2   1
M  END
>  <meeko>  (2) 
{"is_sidechain": [false], "free_energy": 0.685, "intermolecular_energy": 0.903, "internal_energy": 0.128}

$$$$
cand_013_out
     RDKit          3D

 50 53  0  0  0  0  0  0  0  0999 V2000
   34.3350   29.5080  -19.0010 C   0  0  0  0  0  0  0  0  0  0  0  0
   35.7100   29.1360  -18.6740 N   0  0  0  0  0  0  0  0  0  0  0  0
   36.0910   29.6710  -17.3450 C   0  0  0  0  0  0  0  0  0  0  0  0
   37.5210   29.2570  -16.9260 C   0  0  0  0  0  0  0  0  0  0  0  0
   37.6420   27.7790  -16.9430 N   0  0  0  0  0  0  0  0  0  0  0  0
   38.8720   27.3190  -16.4440 C   0  0  0  0  0  0  0  0  0  0  0  0
   39.7210   26.4980  -17.2000 C   0  0  0  0  0  0  0  0  0  0  0  0
   40.9440   26.0530  -16.6900 C   0  0  0  0  0  0  0  0  0  0  0  0
   41.3600   26.4230  -15.4080 C   0  0  0  0  0  0  0  0  0  0  0  0
   42.6350   25.9460  -14.8330 C   0  0  0  0  0  0  0  0  0  0  0  0
   43.5990   26.9450  -14.7540 O   0  0  0  0  0  0  0  0  0  0  0  0
   44.8340   26.6370  -14.2420 C   0  0  0  0  0  0  0  0  0  0  0  0
   45.7660   27.6730  -14.1710 C   0  0  0  0  0  0  0  0  0  0  0  0
   47.0430   27.4260  -13.6590 C   0  0  0  0  0  0  0  0  0  0  0  0
   47.3850   26.1460  -13.2200 C   0  0  0  0  0  0  0  0  0  0  0  0
   46.4530   25.1150  -13.2920 C   0  0  0  0  0  0  0  0  0  0  0  0
   46.8550   23.8850  -12.8460 O   0  0  0  0  0  0  0  0  0  0  0  0
   45.1760   25.3620  -13.8040 C   0  0  0  0  0  0  0  0  0  0  0  0
   44.1670   24.3050  -13.8980 C   0  0  0  0  0  0  0  0  0  0  0  0
   44.3940   23.1530  -13.5390 O   0  0  0  0  0  0  0  0  0  0  0  0
   42.8420   24.6720  -14.4490 C   0  0  0  0  0  0  0  0  0  0  0  0
   41.9010   23.6650  -14.5490 O   0  0  0  0  0  0  0  0  0  0  0  0
   40.5100   27.2370  -14.6470 C   0  0  0  0  0  0  0  0  0  0  0  0
   39.2730   27.6930  -15.1500 C   0  0  0  0  0  0  0  0  0  0  0  0
   38.3940   28.5720  -14.2940 C   0  0  0  0  0  0  0  0  0  0  0  0
   38.7190   28.5070  -12.9650 F   0  0  0  0  0  0  0  0  0  0  0  0
   37.0710   28.2400  -14.3440 F   0  0  0  0  0  0  0  0  0  0  0  0
   38.4730   29.8980  -14.6060 F   0  0  0  0  0  0  0  0  0  0  0  0
   37.2910   27.2200  -18.2700 C   0  0  0  0  0  0  0  0  0  0  0  0
   35.8630   27.6620  -18.6660 C   0  0  0  0  0  0  0  0  0  0  0  0
   33.7660   29.6619  -18.0722 H   0  0  0  0  0  0  0  0  0  0  0  0
   34.3366   30.4380  -19.5884 H   0  0  0  0  0  0  0  0  0  0  0  0
   33.8675   28.7041  -19.5884 H   0  0  0  0  0  0  0  0  0  0  0  0
   36.3220   29.5360  -19.3860 H   0  0  0  0  0  0  0  0  0  0  0  0
   36.0376   30.7692  -17.3786 H   0  0  0  0  0  0  0  0  0  0  0  0
   35.3925   29.2538  -16.6047 H   0  0  0  0  0  0  0  0  0  0  0  0
   38.2474   29.6909  -17.6289 H   0  0  0  0  0  0  0  0  0  0  0  0
   37.7225   29.6260  -15.9095 H   0  0  0  0  0  0  0  0  0  0  0  0
   39.4186   26.1983  -18.2143 H   0  0  0  0  0  0  0  0  0  0  0  0
   41.5860   25.4046  -17.3043 H   0  0  0  0  0  0  0  0  0  0  0  0
   45.4964   28.6817  -14.5171 H   0  0  0  0  0  0  0  0  0  0  0  0
   47.7792   28.2413  -13.6020 H   0  0  0  0  0  0  0  0  0  0  0  0
   48.3902   25.9523  -12.8175 H   0  0  0  0  0  0  0  0  0  0  0  0
   47.1630   23.2430  -13.4560 H   0  0  0  0  0  0  0  0  0  0  0  0
   42.1100   22.8710  -15.0010 H   0  0  0  0  0  0  0  0  0  0  0  0
   40.8151   27.5280  -13.6310 H   0  0  0  0  0  0  0  0  0  0  0  0
   38.0073   27.5852  -19.0207 H   0  0  0  0  0  0  0  0  0  0  0  0
   37.3301   26.1217  -18.2223 H   0  0  0  0  0  0  0  0  0  0  0  0
   35.6408   27.2783  -19.6727 H   0  0  0  0  0  0  0  0  0  0  0  0
   35.1665   27.2564  -17.9174 H   0  0  0  0  0  0  0  0  0  0  0  0
  1  2  1  0
  2  3  1  0
  3  4  1  0
  4  5  1  0
  5  6  1  0
  6  7  2  0
  7  8  1  0
  8  9  2  0
  9 10  1  0
 10 11  1  0
 11 12  1  0
 12 13  2  0
 13 14  1  0
 14 15  2  0
 15 16  1  0
 16 17  1  0
 16 18  2  0
 18 19  1  0
 19 20  2  0
 19 21  1  0
 21 22  1  0
  9 23  1  0
 23 24  2  0
 24 25  1  0
 25 26  1  0
 25 27  1  0
 25 28  1  0
  5 29  1  0
 29 30  1  0
 30  2  1  0
 24  6  1  0
 21 10  2  0
 18 12  1  0
  1 31  1  0
  1 32  1  0
  1 33  1  0
  2 34  1  0
  3 35  1  0
  3 36  1  0
  4 37  1  0
  4 38  1  0
  7 39  1  0
  8 40  1  0
 13 41  1  0
 14 42  1  0
 15 43  1  0
 17 44  1  0
 22 45  1  0
 23 46  1  0
 29 47  1  0
 29 48  1  0
 30 49  1  0
 30 50  1  0
M  CHG  1   2   1
M  END
>  <meeko>  (3) 
{"is_sidechain": [false], "free_energy": 1.32, "intermolecular_energy": 0.814, "internal_energy": 1.0}

$$$$
