cand_021_out
     RDKit          3D

 36 38  0  0  0  0  0  0  0  0999 V2000
   46.6570   27.2890  -13.3220 C   0  0  0  0  0  0  0  0  0  0  0  0
   45.5090   26.9600  -12.7170 C   0  0  0  0  0  0  0  0  0  0  0  0
   44.4210   26.2570  -13.4090 C   0  0  0  0  0  0  0  0  0  0  0  0
   43.1970   26.9190  -13.6120 C   0  0  0  0  0  0  0  0  0  0  0  0
   42.1280   26.2980  -14.2740 C   0  0  0  0  0  0  0  0  0  0  0  0
   40.8480   26.9980  -14.5060 C   0  0  0  0  0  0  0  0  0  0  0  0
   40.3280   26.7690  -15.7740 O   0  0  0  0  0  0  0  0  0  0  0  0
   39.1400   27.3630  -16.1200 C   0  0  0  0  0  0  0  0  0  0  0  0
   38.6630   27.1190  -17.4080 C   0  0  0  0  0  0  0  0  0  0  0  0
   37.4570   27.6920  -17.8240 C   0  0  0  0  0  0  0  0  0  0  0  0
   36.7320   28.5050  -16.9520 C   0  0  0  0  0  0  0  0  0  0  0  0
   37.2120   28.7470  -15.6660 C   0  0  0  0  0  0  0  0  0  0  0  0
   36.4510   29.5530  -14.8650 O   0  0  0  0  0  0  0  0  0  0  0  0
   38.4170   28.1750  -15.2520 C   0  0  0  0  0  0  0  0  0  0  0  0
   38.9560   28.4020  -13.9100 C   0  0  0  0  0  0  0  0  0  0  0  0
   38.3730   29.1000  -13.0830 O   0  0  0  0  0  0  0  0  0  0  0  0
   40.2450   27.7570  -13.5720 C   0  0  0  0  0  0  0  0  0  0  0  0
   40.7400   27.9660  -12.2980 O   0  0  0  0  0  0  0  0  0  0  0  0
   42.3110   24.9980  -14.7600 C   0  0  0  0  0  0  0  0  0  0  0  0
   43.5230   24.3300  -14.5710 C   0  0  0  0  0  0  0  0  0  0  0  0
   44.5900   24.9470  -13.8950 C   0  0  0  0  0  0  0  0  0  0  0  0
   45.8790   24.1900  -13.6900 C   0  0  0  0  0  0  0  0  0  0  0  0
   46.3550   24.2950  -12.4170 F   0  0  0  0  0  0  0  0  0  0  0  0
   46.8960   24.6270  -14.4910 F   0  0  0  0  0  0  0  0  0  0  0  0
   47.4430   27.8158  -12.7610 H   0  0  0  0  0  0  0  0  0  0  0  0
   46.8143   27.0326  -14.3801 H   0  0  0  0  0  0  0  0  0  0  0  0
   45.3752   27.2271  -11.6584 H   0  0  0  0  0  0  0  0  0  0  0  0
   43.0752   27.9480  -13.2429 H   0  0  0  0  0  0  0  0  0  0  0  0
   39.2342   26.4773  -18.0949 H   0  0  0  0  0  0  0  0  0  0  0  0
   37.0796   27.5016  -18.8395 H   0  0  0  0  0  0  0  0  0  0  0  0
   35.7828   28.9544  -17.2791 H   0  0  0  0  0  0  0  0  0  0  0  0
   36.6390   30.4700  -14.8070 H   0  0  0  0  0  0  0  0  0  0  0  0
   41.5060   27.5090  -12.0110 H   0  0  0  0  0  0  0  0  0  0  0  0
   41.4916   24.4972  -15.2964 H   0  0  0  0  0  0  0  0  0  0  0  0
   43.6443   23.3069  -14.9565 H   0  0  0  0  0  0  0  0  0  0  0  0
   45.6031   23.1536  -13.9343 H   0  0  0  0  0  0  0  0  0  0  0  0
  1  2  2  0
  2  3  1  0
  3  4  2  0
  4  5  1  0
  5  6  1  0
  6  7  1  0
  7  8  1  0
  8  9  2  0
  9 10  1  0
 10 11  2  0
 11 12  1  0
 12 13  1  0
 12 14  2  0
 14 15  1  0
 15 16  2  0
 15 17  1  0
 17 18  1  0
  5 19  2  0
 19 20  1  0
 20 21  2  0
 21 22  1  0
 22 23  1  0
 22 24  1  0
 21  3  1  0
 17  6  2  0
 14  8  1  0
  1 25  1  0
  1 26  1  0
  2 27  1  0
  4 28  1  0
  9 29  1  0
 10 30  1  0
 11 31  1  0
 13 32  1  0
 18 33  1  0
 19 34  1  0
 20 35  1  0
 22 36  1  0
M  END
>  <meeko>  (1) 
{"is_sidechain": [false], "free_energy": -7.473, "intermolecular_energy": -9.22, "internal_energy": 0.438}

$$$$
cand_021_out
     RDKit          3D

 36 38  0  0  0  0  0  0  0  0999 V2000
   42.1000   26.8810  -10.8920 C   0  0  0  0  0  0  0  0  0  0  0  0
   43.1240   26.6100  -11.7110 C   0  0  0  0  0  0  0  0  0  0  0  0
   42.9350   26.2180  -13.1130 C   0  0  0  0  0  0  0  0  0  0  0  0
   41.7740   26.6350  -13.7900 C   0  0  0  0  0  0  0  0  0  0  0  0
   41.5480   26.2970  -15.1320 C   0  0  0  0  0  0  0  0  0  0  0  0
   40.3390   26.7490  -15.8520 C   0  0  0  0  0  0  0  0  0  0  0  0
   39.5380   27.5910  -15.0890 O   0  0  0  0  0  0  0  0  0  0  0  0
   38.3810   28.0820  -15.6380 C   0  0  0  0  0  0  0  0  0  0  0  0
   37.5990   28.9100  -14.8310 C   0  0  0  0  0  0  0  0  0  0  0  0
   36.4090   29.4460  -15.3310 C   0  0  0  0  0  0  0  0  0  0  0  0
   36.0030   29.1550  -16.6340 C   0  0  0  0  0  0  0  0  0  0  0  0
   36.7860   28.3280  -17.4370 C   0  0  0  0  0  0  0  0  0  0  0  0
   36.3290   28.0840  -18.7030 O   0  0  0  0  0  0  0  0  0  0  0  0
   37.9750   27.7920  -16.9370 C   0  0  0  0  0  0  0  0  0  0  0  0
   38.8270   26.9190  -17.7460 C   0  0  0  0  0  0  0  0  0  0  0  0
   38.5420   26.6220  -18.9050 O   0  0  0  0  0  0  0  0  0  0  0  0
   40.0630   26.3960  -17.1210 C   0  0  0  0  0  0  0  0  0  0  0  0
   40.8680   25.5840  -17.8980 O   0  0  0  0  0  0  0  0  0  0  0  0
   42.5210   25.5500  -15.8050 C   0  0  0  0  0  0  0  0  0  0  0  0
   43.6810   25.1350  -15.1470 C   0  0  0  0  0  0  0  0  0  0  0  0
   43.9030   25.4600  -13.7980 C   0  0  0  0  0  0  0  0  0  0  0  0
   45.1570   24.9790  -13.1120 C   0  0  0  0  0  0  0  0  0  0  0  0
   46.1070   25.9510  -13.0080 F   0  0  0  0  0  0  0  0  0  0  0  0
   45.7690   23.9460  -13.7630 F   0  0  0  0  0  0  0  0  0  0  0  0
   42.2922   27.1709   -9.8484 H   0  0  0  0  0  0  0  0  0  0  0  0
   41.0665   26.8138  -11.2627 H   0  0  0  0  0  0  0  0  0  0  0  0
   44.1485   26.6841  -11.3173 H   0  0  0  0  0  0  0  0  0  0  0  0
   41.0271   27.2396  -13.2546 H   0  0  0  0  0  0  0  0  0  0  0  0
   37.9186   29.1401  -13.8039 H   0  0  0  0  0  0  0  0  0  0  0  0
   35.7914   30.0984  -14.6963 H   0  0  0  0  0  0  0  0  0  0  0  0
   35.0664   29.5777  -17.0266 H   0  0  0  0  0  0  0  0  0  0  0  0
   35.5540   27.5710  -18.8320 H   0  0  0  0  0  0  0  0  0  0  0  0
   40.6210   24.6950  -18.0590 H   0  0  0  0  0  0  0  0  0  0  0  0
   42.3709   25.2870  -16.8625 H   0  0  0  0  0  0  0  0  0  0  0  0
   44.4320   24.5450  -15.6929 H   0  0  0  0  0  0  0  0  0  0  0  0
   44.7946   24.6604  -12.1235 H   0  0  0  0  0  0  0  0  0  0  0  0
  1  2  2  0
  2  3  1  0
  3  4  2  0
  4  5  1  0
  5  6  1  0
  6  7  1  0
  7  8  1  0
  8  9  2  0
  9 10  1  0
 10 11  2  0
 11 12  1  0
 12 13  1  0
 12 14  2  0
 14 15  1  0
 15 16  2  0
 15 17  1  0
 17 18  1  0
  5 19  2  0
 19 20  1  0
 20 21  2  0
 21 22  1  0
 22 23  1  0
 22 24  1  0
 21  3  1  0
 17  6  2  0
 14  8  1  0
  1 25  1  0
  1 26  1  0
  2 27  1  0
  4 28  1  0
  9 29  1  0
 10 30  1  0
 11 31  1  0
 13 32  1  0
 18 33  1  0
 19 34  1  0
 20 35  1  0
 22 36  1  0
M  END
>  <meeko>  (2) 
{"is_sidechain": [false], "free_energy": -7.427, "intermolecular_energy": -8.782, "internal_energy": 0.055}

$$$$
cand_021_out
     RDKit          3D

 36 38  0  0  0  0  0  0  0  0999 V2000
   38.1560   26.5130  -19.1880 C   0  0  0  0  0  0  0  0  0  0  0  0
   37.2290   26.8860  -18.2980 C   0  0  0  0  0  0  0  0  0  0  0  0
   37.5550   27.6410  -17.0810 C   0  0  0  0  0  0  0  0  0  0  0  0
   38.6220   27.2080  -16.2720 C   0  0  0  0  0  0  0  0  0  0  0  0
   38.9830   27.8950  -15.1050 C   0  0  0  0  0  0  0  0  0  0  0  0
   40.1150   27.4540  -14.2640 C   0  0  0  0  0  0  0  0  0  0  0  0
   41.1310   26.8540  -14.9970 O   0  0  0  0  0  0  0  0  0  0  0  0
   42.2430   26.3960  -14.3360 C   0  0  0  0  0  0  0  0  0  0  0  0
   43.2320   25.7850  -15.1090 C   0  0  0  0  0  0  0  0  0  0  0  0
   44.3910   25.2990  -14.4980 C   0  0  0  0  0  0  0  0  0  0  0  0
   44.5600   25.4250  -13.1180 C   0  0  0  0  0  0  0  0  0  0  0  0
   43.5720   26.0350  -12.3500 C   0  0  0  0  0  0  0  0  0  0  0  0
   43.8020   26.1240  -11.0050 O   0  0  0  0  0  0  0  0  0  0  0  0
   42.4120   26.5200  -12.9610 C   0  0  0  0  0  0  0  0  0  0  0  0
   41.3500   27.1680  -12.1910 C   0  0  0  0  0  0  0  0  0  0  0  0
   41.4280   27.3220  -10.9730 O   0  0  0  0  0  0  0  0  0  0  0  0
   40.1580   27.6400  -12.9320 C   0  0  0  0  0  0  0  0  0  0  0  0
   39.1650   28.2630  -12.1980 O   0  0  0  0  0  0  0  0  0  0  0  0
   38.2700   29.0510  -14.7650 C   0  0  0  0  0  0  0  0  0  0  0  0
   37.2120   29.4960  -15.5610 C   0  0  0  0  0  0  0  0  0  0  0  0
   36.8410   28.7990  -16.7240 C   0  0  0  0  0  0  0  0  0  0  0  0
   35.6800   29.2950  -17.5520 C   0  0  0  0  0  0  0  0  0  0  0  0
   35.5070   28.5790  -18.6980 F   0  0  0  0  0  0  0  0  0  0  0  0
   35.8190   30.5930  -17.9550 F   0  0  0  0  0  0  0  0  0  0  0  0
   37.8616   25.9483  -20.0849 H   0  0  0  0  0  0  0  0  0  0  0  0
   39.2124   26.7711  -19.0227 H   0  0  0  0  0  0  0  0  0  0  0  0
   36.1793   26.6160  -18.4856 H   0  0  0  0  0  0  0  0  0  0  0  0
   39.1859   26.3093  -16.5624 H   0  0  0  0  0  0  0  0  0  0  0  0
   43.0993   25.6864  -16.1965 H   0  0  0  0  0  0  0  0  0  0  0  0
   45.1711   24.8166  -15.1052 H   0  0  0  0  0  0  0  0  0  0  0  0
   45.4729   25.0427  -12.6379 H   0  0  0  0  0  0  0  0  0  0  0  0
   44.1860   26.9010  -10.6450 H   0  0  0  0  0  0  0  0  0  0  0  0
   38.2770   27.9740  -12.2700 H   0  0  0  0  0  0  0  0  0  0  0  0
   38.5459   29.6147  -13.8616 H   0  0  0  0  0  0  0  0  0  0  0  0
   36.6617   30.4041  -15.2739 H   0  0  0  0  0  0  0  0  0  0  0  0
   34.8214   29.1842  -16.8734 H   0  0  0  0  0  0  0  0  0  0  0  0
  1  2  2  0
  2  3  1  0
  3  4  2  0
  4  5  1  0
  5  6  1  0
  6  7  1  0
  7  8  1  0
  8  9  2  0
  9 10  1  0
 10 11  2  0
 11 12  1  0
 12 13  1  0
 12 14  2  0
 14 15  1  0
 15 16  2  0
 15 17  1  0
 17 18  1  0
  5 19  2  0
 19 20  1  0
 20 21  2  0
 21 22  1  0
 22 23  1  0
 22 24  1  0
 21  3  1  0
 17  6  2  0
 14  8  1  0
  1 25  1  0
  1 26  1  0
  2 27  1  0
  4 28  1  0
  9 29  1  0
 10 30  1  0
 11 31  1  0
 13 32  1  0
 18 33  1  0
 19 34  1  0
 20 35  1  0
 22 36  1  0
M  END
>  <meeko>  (3) 
{"is_sidechain": [false], "free_energy": -6.703, "intermolecular_energy": -8.377, "internal_energy": 0.544}

$$$$
cand_021_out
     RDKit          3D

 36 38  0  0  0  0  0  0  0  0999 V2000
   36.3980   29.5380  -14.4870 C   0  0  0  0  0  0  0  0  0  0  0  0
   36.5930   29.1030  -15.7380 C   0  0  0  0  0  0  0  0  0  0  0  0
   37.6270   28.1200  -16.0840 C   0  0  0  0  0  0  0  0  0  0  0  0
   38.6970   27.9100  -15.1950 C   0  0  0  0  0  0  0  0  0  0  0  0
   39.7080   26.9780  -15.4720 C   0  0  0  0  0  0  0  0  0  0  0  0
   40.8220   26.7410  -14.5310 C   0  0  0  0  0  0  0  0  0  0  0  0
   41.9370   26.1810  -15.1430 O   0  0  0  0  0  0  0  0  0  0  0  0
   43.0440   25.9090  -14.3800 C   0  0  0  0  0  0  0  0  0  0  0  0
   44.1360   25.3320  -15.0320 C   0  0  0  0  0  0  0  0  0  0  0  0
   45.2960   25.0310  -14.3130 C   0  0  0  0  0  0  0  0  0  0  0  0
   45.3640   25.3070  -12.9470 C   0  0  0  0  0  0  0  0  0  0  0  0
   44.2730   25.8830  -12.2990 C   0  0  0  0  0  0  0  0  0  0  0  0
   44.4080   26.1260  -10.9600 O   0  0  0  0  0  0  0  0  0  0  0  0
   43.1130   26.1830  -13.0170 C   0  0  0  0  0  0  0  0  0  0  0  0
   41.9450   26.7880  -12.3760 C   0  0  0  0  0  0  0  0  0  0  0  0
   41.9300   27.0680  -11.1790 O   0  0  0  0  0  0  0  0  0  0  0  0
   40.7620   27.0600  -13.2240 C   0  0  0  0  0  0  0  0  0  0  0  0
   39.6680   27.6440  -12.6130 O   0  0  0  0  0  0  0  0  0  0  0  0
   39.6200   26.2310  -16.6520 C   0  0  0  0  0  0  0  0  0  0  0  0
   38.5600   26.4250  -17.5410 C   0  0  0  0  0  0  0  0  0  0  0  0
   37.5550   27.3680  -17.2720 C   0  0  0  0  0  0  0  0  0  0  0  0
   36.4350   27.5670  -18.2630 C   0  0  0  0  0  0  0  0  0  0  0  0
   36.6840   26.9770  -19.4660 F   0  0  0  0  0  0  0  0  0  0  0  0
   36.1930   28.8810  -18.5500 F   0  0  0  0  0  0  0  0  0  0  0  0
   35.6096   30.2760  -14.2779 H   0  0  0  0  0  0  0  0  0  0  0  0
   37.0262   29.1574  -13.6682 H   0  0  0  0  0  0  0  0  0  0  0  0
   35.9520   29.4984  -16.5397 H   0  0  0  0  0  0  0  0  0  0  0  0
   38.7418   28.4899  -14.2614 H   0  0  0  0  0  0  0  0  0  0  0  0
   44.0832   25.1149  -16.1091 H   0  0  0  0  0  0  0  0  0  0  0  0
   46.1567   24.5758  -14.8248 H   0  0  0  0  0  0  0  0  0  0  0  0
   46.2777   25.0702  -12.3822 H   0  0  0  0  0  0  0  0  0  0  0  0
   43.7340   26.5840  -10.4960 H   0  0  0  0  0  0  0  0  0  0  0  0
   38.8020   27.4290  -12.8970 H   0  0  0  0  0  0  0  0  0  0  0  0
   40.3934   25.4834  -16.8819 H   0  0  0  0  0  0  0  0  0  0  0  0
   38.5120   25.8304  -18.4652 H   0  0  0  0  0  0  0  0  0  0  0  0
   35.5710   27.1088  -17.7595 H   0  0  0  0  0  0  0  0  0  0  0  0
  1  2  2  0
  2  3  1  0
  3  4  2  0
  4  5  1  0
  5  6  1  0
  6  7  1  0
  7  8  1  0
  8  9  2  0
  9 10  1  0
 10 11  2  0
 11 12  1  0
 12 13  1  0
 12 14  2  0
 14 15  1  0
 15 16  2  0
 15 17  1  0
 17 18  1  0
  5 19  2  0
 19 20  1  0
 20 21  2  0
 21 22  1  0
 22 23  1  0
 22 24  1  0
 21  3  1  0
 17  6  2  0
 14  8  1  0
  1 25  1  0
  1 26  1  0
  2 27  1  0
  4 28  1  0
  9 29  1  0
 10 30  1  0
 11 31  1  0
 13 32  1  0
 18 33  1  0
 19 34  1  0
 20 35  1  0
 22 36  1  0
M  END
>  <meeko>  (4) 
{"is_sidechain": [false], "free_energy": -5.675, "intermolecular_energy": -6.73, "internal_energy": 0.166}

$$$$
cand_021_out
     RDKit          3D

 36 38  0  0  0  0  0  0  0  0999 V2000
   45.3000   24.9850  -14.2100 C   0  0  0  0  0  0  0  0  0  0  0  0
   44.0230   24.8030  -14.5670 C   0  0  0  0  0  0  0  0  0  0  0  0
   42.9600   25.7560  -14.2240 C   0  0  0  0  0  0  0  0  0  0  0  0
   41.9170   25.9800  -15.1410 C   0  0  0  0  0  0  0  0  0  0  0  0
   40.8730   26.8720  -14.8610 C   0  0  0  0  0  0  0  0  0  0  0  0
   39.7670   27.0950  -15.8140 C   0  0  0  0  0  0  0  0  0  0  0  0
   38.8430   28.0300  -15.3630 O   0  0  0  0  0  0  0  0  0  0  0  0
   37.7620   28.3290  -16.1540 C   0  0  0  0  0  0  0  0  0  0  0  0
   36.8510   29.2610  -15.6550 C   0  0  0  0  0  0  0  0  0  0  0  0
   35.7300   29.6120  -16.4110 C   0  0  0  0  0  0  0  0  0  0  0  0
   35.5210   29.0330  -17.6640 C   0  0  0  0  0  0  0  0  0  0  0  0
   36.4330   28.1030  -18.1590 C   0  0  0  0  0  0  0  0  0  0  0  0
   36.1670   27.5750  -19.3920 O   0  0  0  0  0  0  0  0  0  0  0  0
   37.5530   27.7510  -17.4020 C   0  0  0  0  0  0  0  0  0  0  0  0
   38.5350   26.7790  -17.8850 C   0  0  0  0  0  0  0  0  0  0  0  0
   38.4250   26.2310  -18.9810 O   0  0  0  0  0  0  0  0  0  0  0  0
   39.6830   26.4690  -17.0030 C   0  0  0  0  0  0  0  0  0  0  0  0
   40.6130   25.5600  -17.4740 O   0  0  0  0  0  0  0  0  0  0  0  0
   40.8710   27.5280  -13.6250 C   0  0  0  0  0  0  0  0  0  0  0  0
   41.8960   27.3120  -12.7010 C   0  0  0  0  0  0  0  0  0  0  0  0
   42.9510   26.4280  -12.9870 C   0  0  0  0  0  0  0  0  0  0  0  0
   44.0540   26.2320  -11.9760 C   0  0  0  0  0  0  0  0  0  0  0  0
   43.5950   26.2140  -10.6920 F   0  0  0  0  0  0  0  0  0  0  0  0
   44.9980   27.2180  -12.0070 F   0  0  0  0  0  0  0  0  0  0  0  0
   46.0609   24.2419  -14.4909 H   0  0  0  0  0  0  0  0  0  0  0  0
   45.5887   25.8777  -13.6357 H   0  0  0  0  0  0  0  0  0  0  0  0
   43.7590   23.9025  -15.1409 H   0  0  0  0  0  0  0  0  0  0  0  0
   41.9210   25.4423  -16.1006 H   0  0  0  0  0  0  0  0  0  0  0  0
   37.0154   29.7184  -14.6682 H   0  0  0  0  0  0  0  0  0  0  0  0
   35.0107   30.3458  -16.0184 H   0  0  0  0  0  0  0  0  0  0  0  0
   34.6384   29.3103  -18.2591 H   0  0  0  0  0  0  0  0  0  0  0  0
   35.5120   26.9100  -19.4870 H   0  0  0  0  0  0  0  0  0  0  0  0
   40.4300   24.6420  -17.4370 H   0  0  0  0  0  0  0  0  0  0  0  0
   40.0534   28.2213  -13.3784 H   0  0  0  0  0  0  0  0  0  0  0  0
   41.8774   27.8407  -11.7366 H   0  0  0  0  0  0  0  0  0  0  0  0
   44.4884   25.2632  -12.2635 H   0  0  0  0  0  0  0  0  0  0  0  0
  1  2  2  0
  2  3  1  0
  3  4  2  0
  4  5  1  0
  5  6  1  0
  6  7  1  0
  7  8  1  0
  8  9  2  0
  9 10  1  0
 10 11  2  0
 11 12  1  0
 12 13  1  0
 12 14  2  0
 14 15  1  0
 15 16  2  0
 15 17  1  0
 17 18  1  0
  5 19  2  0
 19 20  1  0
 20 21  2  0
 21 22  1  0
 22 23  1  0
 22 24  1  0
 21  3  1  0
 17  6  2  0
 14  8  1  0
  1 25  1  0
  1 26  1  0
  2 27  1  0
  4 28  1  0
  9 29  1  0
 10 30  1  0
 11 31  1  0
 13 32  1  0
 18 33  1  0
 19 34  1  0
 20 35  1  0
 22 36  1  0
M  END
>  <meeko>  (5) 
{"is_sidechain": [false], "free_energy": -5.623, "intermolecular_energy": -7.264, "internal_energy": 0.764}

$$$$
cand_021_out
     RDKit          3D

 36 38  0  0  0  0  0  0  0  0999 V2000
   46.0190   25.1890  -14.6260 C   0  0  0  0  0  0  0  0  0  0  0  0
   44.7490   24.7750  -14.5400 C   0  0  0  0  0  0  0  0  0  0  0  0
   43.6670   25.6320  -14.0400 C   0  0  0  0  0  0  0  0  0  0  0  0
   42.5820   25.9280  -14.8850 C   0  0  0  0  0  0  0  0  0  0  0  0
   41.5180   26.7340  -14.4560 C   0  0  0  0  0  0  0  0  0  0  0  0
   40.3680   27.0320  -15.3340 C   0  0  0  0  0  0  0  0  0  0  0  0
   39.4450   27.8880  -14.7460 O   0  0  0  0  0  0  0  0  0  0  0  0
   38.3260   28.2450  -15.4550 C   0  0  0  0  0  0  0  0  0  0  0  0
   37.4180   29.0930  -14.8200 C   0  0  0  0  0  0  0  0  0  0  0  0
   36.2580   29.4970  -15.4880 C   0  0  0  0  0  0  0  0  0  0  0  0
   36.0090   29.0530  -16.7870 C   0  0  0  0  0  0  0  0  0  0  0  0
   36.9180   28.2060  -17.4190 C   0  0  0  0  0  0  0  0  0  0  0  0
   36.6110   27.8100  -18.6910 O   0  0  0  0  0  0  0  0  0  0  0  0
   38.0760   27.8020  -16.7500 C   0  0  0  0  0  0  0  0  0  0  0  0
   39.0570   26.9150  -17.3770 C   0  0  0  0  0  0  0  0  0  0  0  0
   38.9130   26.4870  -18.5210 O   0  0  0  0  0  0  0  0  0  0  0  0
   40.2480   26.5390  -16.5810 C   0  0  0  0  0  0  0  0  0  0  0  0
   41.1750   25.7110  -17.1850 O   0  0  0  0  0  0  0  0  0  0  0  0
   41.5400   27.2260  -13.1450 C   0  0  0  0  0  0  0  0  0  0  0  0
   42.6090   26.9340  -12.2930 C   0  0  0  0  0  0  0  0  0  0  0  0
   43.6820   26.1380  -12.7270 C   0  0  0  0  0  0  0  0  0  0  0  0
   44.8300   25.8590  -11.7880 C   0  0  0  0  0  0  0  0  0  0  0  0
   45.9430   26.5880  -12.0850 F   0  0  0  0  0  0  0  0  0  0  0  0
   45.2380   24.5560  -11.8050 F   0  0  0  0  0  0  0  0  0  0  0  0
   46.7946   24.5087  -15.0077 H   0  0  0  0  0  0  0  0  0  0  0  0
   46.2871   26.2095  -14.3150 H   0  0  0  0  0  0  0  0  0  0  0  0
   44.5060   23.7501  -14.8571 H   0  0  0  0  0  0  0  0  0  0  0  0
   42.5680   25.5178  -15.9055 H   0  0  0  0  0  0  0  0  0  0  0  0
   37.6144   29.4430  -13.7958 H   0  0  0  0  0  0  0  0  0  0  0  0
   35.5411   30.1655  -14.9889 H   0  0  0  0  0  0  0  0  0  0  0  0
   35.0962   29.3710  -17.3120 H   0  0  0  0  0  0  0  0  0  0  0  0
   36.2630   28.4290  -19.3040 H   0  0  0  0  0  0  0  0  0  0  0  0
   41.8790   25.3500  -16.6830 H   0  0  0  0  0  0  0  0  0  0  0  0
   40.7084   27.8480  -12.7824 H   0  0  0  0  0  0  0  0  0  0  0  0
   42.6100   27.3332  -11.2680 H   0  0  0  0  0  0  0  0  0  0  0  0
   44.4206   26.1299  -10.8036 H   0  0  0  0  0  0  0  0  0  0  0  0
  1  2  2  0
  2  3  1  0
  3  4  2  0
  4  5  1  0
  5  6  1  0
  6  7  1  0
  7  8  1  0
  8  9  2  0
  9 10  1  0
 10 11  2  0
 11 12  1  0
 12 13  1  0
 12 14  2  0
 14 15  1  0
 15 16  2  0
 15 17  1  0
 17 18  1  0
  5 19  2  0
 19 20  1  0
 20 21  2  0
 21 22  1  0
 22 23  1  0
 22 24  1  0
 21  3  1  0
 17  6  2  0
 14  8  1  0
  1 25  1  0
  1 26  1  0
  2 27  1  0
  4 28  1  0
  9 29  1  0
 10 30  1  0
 11 31  1  0
 13 32  1  0
 18 33  1  0
 19 34  1  0
 20 35  1  0
 22 36  1  0
M  END
>  <meeko>  (6) 
{"is_sidechain": [false], "free_energy": -5.457, "intermolecular_energy": -7.255, "internal_energy": 0.96}

$$$$
cand_021_out
     RDKit          3D

 36 38  0  0  0  0  0  0  0  0999 V2000
   37.0370   26.3910  -20.4260 C   0  0  0  0  0  0  0  0  0  0  0  0
   36.1860   26.9120  -19.5330 C   0  0  0  0  0  0  0  0  0  0  0  0
   36.6360   27.6110  -18.3230 C   0  0  0  0  0  0  0  0  0  0  0  0
   37.7760   27.1420  -17.6450 C   0  0  0  0  0  0  0  0  0  0  0  0
   38.2540   27.7770  -16.4890 C   0  0  0  0  0  0  0  0  0  0  0  0
   39.4610   27.2980  -15.7860 C   0  0  0  0  0  0  0  0  0  0  0  0
   39.4560   27.6060  -14.4310 O   0  0  0  0  0  0  0  0  0  0  0  0
   40.5220   27.2190  -13.6590 C   0  0  0  0  0  0  0  0  0  0  0  0
   40.4830   27.5630  -12.3070 C   0  0  0  0  0  0  0  0  0  0  0  0
   41.5370   27.1970  -11.4650 C   0  0  0  0  0  0  0  0  0  0  0  0
   42.6260   26.4880  -11.9740 C   0  0  0  0  0  0  0  0  0  0  0  0
   42.6620   26.1460  -13.3240 C   0  0  0  0  0  0  0  0  0  0  0  0
   43.7580   25.4520  -13.7560 O   0  0  0  0  0  0  0  0  0  0  0  0
   41.6090   26.5130  -14.1660 C   0  0  0  0  0  0  0  0  0  0  0  0
   41.6070   26.1740  -15.5890 C   0  0  0  0  0  0  0  0  0  0  0  0
   42.5260   25.5450  -16.1120 O   0  0  0  0  0  0  0  0  0  0  0  0
   40.4470   26.6160  -16.3970 C   0  0  0  0  0  0  0  0  0  0  0  0
   40.4480   26.2780  -17.7380 O   0  0  0  0  0  0  0  0  0  0  0  0
   37.5850   28.9170  -16.0300 C   0  0  0  0  0  0  0  0  0  0  0  0
   36.4550   29.3980  -16.6970 C   0  0  0  0  0  0  0  0  0  0  0  0
   35.9670   28.7540  -17.8460 C   0  0  0  0  0  0  0  0  0  0  0  0
   34.7330   29.2870  -18.5320 C   0  0  0  0  0  0  0  0  0  0  0  0
   34.5320   28.7340  -19.7610 F   0  0  0  0  0  0  0  0  0  0  0  0
   34.7730   30.6360  -18.7460 F   0  0  0  0  0  0  0  0  0  0  0  0
   36.6510   25.8759  -21.3180 H   0  0  0  0  0  0  0  0  0  0  0  0
   38.1220   26.4781  -20.2675 H   0  0  0  0  0  0  0  0  0  0  0  0
   35.1055   26.8121  -19.7135 H   0  0  0  0  0  0  0  0  0  0  0  0
   38.3045   26.2574  -18.0300 H   0  0  0  0  0  0  0  0  0  0  0  0
   39.6246   28.1210  -11.9048 H   0  0  0  0  0  0  0  0  0  0  0  0
   41.5081   27.4683  -10.3994 H   0  0  0  0  0  0  0  0  0  0  0  0
   43.4545   26.1997  -11.3103 H   0  0  0  0  0  0  0  0  0  0  0  0
   43.7760   25.0960  -14.6240 H   0  0  0  0  0  0  0  0  0  0  0  0
   40.2380   25.4040  -18.0020 H   0  0  0  0  0  0  0  0  0  0  0  0
   37.9523   29.4401  -15.1348 H   0  0  0  0  0  0  0  0  0  0  0  0
   35.9408   30.2931  -16.3170 H   0  0  0  0  0  0  0  0  0  0  0  0
   33.9247   29.0233  -17.8340 H   0  0  0  0  0  0  0  0  0  0  0  0
  1  2  2  0
  2  3  1  0
  3  4  2  0
  4  5  1  0
  5  6  1  0
  6  7  1  0
  7  8  1  0
  8  9  2  0
  9 10  1  0
 10 11  2  0
 11 12  1  0
 12 13  1  0
 12 14  2  0
 14 15  1  0
 15 16  2  0
 15 17  1  0
 17 18  1  0
  5 19  2  0
 19 20  1  0
 20 21  2  0
 21 22  1  0
 22 23  1  0
 22 24  1  0
 21  3  1  0
 17  6  2  0
 14  8  1  0
  1 25  1  0
  1 26  1  0
  2 27  1  0
  4 28  1  0
  9 29  1  0
 10 30  1  0
 11 31  1  0
 13 32  1  0
 18 33  1  0
 19 34  1  0
 20 35  1  0
 22 36  1  0
M  END
>  <meeko>  (7) 
{"is_sidechain": [false], "free_energy": -4.92, "intermolecular_energy": -6.178, "internal_energy": 0.546}

$$$$
cand_021_out
     RDKit          3D

 36 38  0  0  0  0  0  0  0  0999 V2000
   48.2660   26.8520  -14.8190 C   0  0  0  0  0  0  0  0  0  0  0  0
   47.2200   27.0970  -14.0200 C   0  0  0  0  0  0  0  0  0  0  0  0
   46.0790   26.1800  -13.9050 C   0  0  0  0  0  0  0  0  0  0  0  0
   44.7960   26.6340  -14.2620 C   0  0  0  0  0  0  0  0  0  0  0  0
   43.6740   25.7970  -14.1800 C   0  0  0  0  0  0  0  0  0  0  0  0
   42.3280   26.2650  -14.5720 C   0  0  0  0  0  0  0  0  0  0  0  0
   41.7270   27.0580  -13.6030 O   0  0  0  0  0  0  0  0  0  0  0  0
   40.4720   27.5590  -13.8400 C   0  0  0  0  0  0  0  0  0  0  0  0
   39.8990   28.3370  -12.8330 C   0  0  0  0  0  0  0  0  0  0  0  0
   38.6230   28.8780  -13.0130 C   0  0  0  0  0  0  0  0  0  0  0  0
   37.9230   28.6430  -14.1970 C   0  0  0  0  0  0  0  0  0  0  0  0
   38.4980   27.8660  -15.2010 C   0  0  0  0  0  0  0  0  0  0  0  0
   37.7570   27.6760  -16.3340 O   0  0  0  0  0  0  0  0  0  0  0  0
   39.7730   27.3240  -15.0200 C   0  0  0  0  0  0  0  0  0  0  0  0
   40.4130   26.5030  -16.0490 C   0  0  0  0  0  0  0  0  0  0  0  0
   39.8640   26.2560  -17.1220 O   0  0  0  0  0  0  0  0  0  0  0  0
   41.7630   25.9680  -15.7570 C   0  0  0  0  0  0  0  0  0  0  0  0
   42.3650   25.2050  -16.7400 O   0  0  0  0  0  0  0  0  0  0  0  0
   43.8560   24.4770  -13.7550 C   0  0  0  0  0  0  0  0  0  0  0  0
   45.1250   24.0100  -13.4020 C   0  0  0  0  0  0  0  0  0  0  0  0
   46.2480   24.8520  -13.4710 C   0  0  0  0  0  0  0  0  0  0  0  0
   47.6020   24.3220  -13.0640 C   0  0  0  0  0  0  0  0  0  0  0  0
   48.0360   23.3110  -13.8690 F   0  0  0  0  0  0  0  0  0  0  0  0
   47.6240   23.8100  -11.7990 F   0  0  0  0  0  0  0  0  0  0  0  0
   49.0980   27.5697  -14.8715 H   0  0  0  0  0  0  0  0  0  0  0  0
   48.2934   25.9330  -15.4229 H   0  0  0  0  0  0  0  0  0  0  0  0
   47.2152   28.0226  -13.4257 H   0  0  0  0  0  0  0  0  0  0  0  0
   44.6703   27.6688  -14.6133 H   0  0  0  0  0  0  0  0  0  0  0  0
   40.4504   28.5240  -11.8997 H   0  0  0  0  0  0  0  0  0  0  0  0
   38.1696   29.4903  -12.2196 H   0  0  0  0  0  0  0  0  0  0  0  0
   36.9192   29.0702  -14.3377 H   0  0  0  0  0  0  0  0  0  0  0  0
   37.6020   26.8070  -16.6530 H   0  0  0  0  0  0  0  0  0  0  0  0
   43.0240   25.5830  -17.2890 H   0  0  0  0  0  0  0  0  0  0  0  0
   42.9914   23.7994  -13.6980 H   0  0  0  0  0  0  0  0  0  0  0  0
   45.2464   22.9697  -13.0657 H   0  0  0  0  0  0  0  0  0  0  0  0
   48.2515   25.2065  -13.1411 H   0  0  0  0  0  0  0  0  0  0  0  0
  1  2  2  0
  2  3  1  0
  3  4  2  0
  4  5  1  0
  5  6  1  0
  6  7  1  0
  7  8  1  0
  8  9  2  0
  9 10  1  0
 10 11  2  0
 11 12  1  0
 12 13  1  0
 12 14  2  0
 14 15  1  0
 15 16  2  0
 15 17  1  0
 17 18  1  0
  5 19  2  0
 19 20  1  0
 20 21  2  0
 21 22  1  0
 22 23  1  0
 22 24  1  0
 21  3  1  0
 17  6  2  0
 14  8  1  0
  1 25  1  0
  1 26  1  0
  2 27  1  0
  4 28  1  0
  9 29  1  0
 10 30  1  0
 11 31  1  0
 13 32  1  0
 18 33  1  0
 19 34  1  0
 20 35  1  0
 22 36  1  0
M  END
>  <meeko>  (8) 
{"is_sidechain": [false], "free_energy": -4.594, "intermolecular_energy": -4.908, "internal_energy": -0.323}

$$$$
