cand_038_out
     RDKit          3D

 47 49  0  0  0  0  0  0  0  0999 V2000
   41.5610   26.8920  -11.0640 C   0  0  0  0  0  0  0  0  0  0  0  0
   42.9710   26.7270  -11.6230 C   0  0  0  0  0  0  0  0  0  0  0  0
   42.9700   26.3350  -13.0860 C   0  0  0  0  0  0  0  0  0  0  0  0
   41.7990   26.7270  -13.7920 C   0  0  0  0  0  0  0  0  0  0  0  0
   41.6120   26.4730  -15.1530 C   0  0  0  0  0  0  0  0  0  0  0  0
   40.3800   26.8670  -15.8670 C   0  0  0  0  0  0  0  0  0  0  0  0
   39.5570   27.6930  -15.1090 O   0  0  0  0  0  0  0  0  0  0  0  0
   38.3800   28.1350  -15.6520 C   0  0  0  0  0  0  0  0  0  0  0  0
   37.5920   28.9740  -14.8620 C   0  0  0  0  0  0  0  0  0  0  0  0
   36.3780   29.4580  -15.3540 C   0  0  0  0  0  0  0  0  0  0  0  0
   35.9510   29.1030  -16.6360 C   0  0  0  0  0  0  0  0  0  0  0  0
   36.7380   28.2650  -17.4220 C   0  0  0  0  0  0  0  0  0  0  0  0
   36.2600   27.9570  -18.6660 O   0  0  0  0  0  0  0  0  0  0  0  0
   37.9530   27.7820  -16.9290 C   0  0  0  0  0  0  0  0  0  0  0  0
   38.8110   26.9000  -17.7220 C   0  0  0  0  0  0  0  0  0  0  0  0
   38.5000   26.5370  -18.8550 O   0  0  0  0  0  0  0  0  0  0  0  0
   40.0820   26.4490  -17.1110 C   0  0  0  0  0  0  0  0  0  0  0  0
   40.8780   25.6050  -17.8650 O   0  0  0  0  0  0  0  0  0  0  0  0
   42.6200   25.7860  -15.8200 C   0  0  0  0  0  0  0  0  0  0  0  0
   43.7810   25.3860  -15.1460 C   0  0  0  0  0  0  0  0  0  0  0  0
   44.0060   25.6460  -13.7720 C   0  0  0  0  0  0  0  0  0  0  0  0
   45.3260   25.1420  -13.1240 C   0  0  0  0  0  0  0  0  0  0  0  0
   46.2880   26.2890  -12.6940 C   0  0  0  0  0  0  0  0  0  0  0  0
   45.0720   24.3420  -11.8260 C   0  0  0  0  0  0  0  0  0  0  0  0
   46.1210   24.2990  -14.1430 C   0  0  0  0  0  0  0  0  0  0  0  0
   41.5995   26.8875   -9.9647 H   0  0  0  0  0  0  0  0  0  0  0  0
   41.1378   27.8458  -11.4121 H   0  0  0  0  0  0  0  0  0  0  0  0
   40.9291   26.0617  -11.4121 H   0  0  0  0  0  0  0  0  0  0  0  0
   43.5084   27.6805  -11.5132 H   0  0  0  0  0  0  0  0  0  0  0  0
   43.4627   25.9200  -11.0599 H   0  0  0  0  0  0  0  0  0  0  0  0
   41.0053   27.2536  -13.2418 H   0  0  0  0  0  0  0  0  0  0  0  0
   37.9272   29.2537  -13.8524 H   0  0  0  0  0  0  0  0  0  0  0  0
   35.7573   30.1194  -14.7316 H   0  0  0  0  0  0  0  0  0  0  0  0
   34.9950   29.4847  -17.0238 H   0  0  0  0  0  0  0  0  0  0  0  0
   36.8280   27.5730  -19.3040 H   0  0  0  0  0  0  0  0  0  0  0  0
   40.8540   24.6810  -17.7130 H   0  0  0  0  0  0  0  0  0  0  0  0
   42.5045   25.5539  -16.8890 H   0  0  0  0  0  0  0  0  0  0  0  0
   44.5544   24.8444  -15.7104 H   0  0  0  0  0  0  0  0  0  0  0  0
   46.3305   26.3396  -11.5960 H   0  0  0  0  0  0  0  0  0  0  0  0
   47.2946   26.0915  -13.0912 H   0  0  0  0  0  0  0  0  0  0  0  0
   45.9183   27.2459  -13.0912 H   0  0  0  0  0  0  0  0  0  0  0  0
   45.2753   24.9823  -10.9550 H   0  0  0  0  0  0  0  0  0  0  0  0
   44.0239   24.0090  -11.7997 H   0  0  0  0  0  0  0  0  0  0  0  0
   45.7360   23.4654  -11.7997 H   0  0  0  0  0  0  0  0  0  0  0  0
   46.7798   23.6004  -13.6063 H   0  0  0  0  0  0  0  0  0  0  0  0
   45.4216   23.7316  -14.7745 H   0  0  0  0  0  0  0  0  0  0  0  0
   46.7284   24.9640  -14.7745 H   0  0  0  0  0  0  0  0  0  0  0  0
  1  2  1  0
  2  3  1  0
  3  4  2  0
  4  5  1  0
  5  6  1  0
  6  7  1  0
  7  8  1  0
  8  9  2  0
  9 10  1  0
 10 11  2  0
 11 12  1  0
 12 13  1  0
 12 14  2  0
 14 15  1  0
 15 16  2  0
 15 17  1  0
 17 18  1  0
  5 19  2  0
 19 20  1  0
 20 21  2  0
 21 22  1  0
 22 23  1  0
 22 24  1  0
 22 25  1  0
 21  3  1  0
 17  6  2  0
 14  8  1  0
  1 26  1  0
  1 27  1  0
  1 28  1  0
  2 29  1  0
  2 30  1  0
  4 31  1  0
  9 32  1  0
 10 33  1  0
 11 34  1  0
 13 35  1  0
 18 36  1  0
 19 37  1  0
 20 38  1  0
 23 39  1  0
 23 40  1  0
 23 41  1  0
 24 42  1  0
 24 43  1  0
 24 44  1  0
 25 45  1  0
 25 46  1  0
 25 47  1  0
M  END
>  <meeko>  (1) 
{"is_sidechain": [false], "free_energy": -5.18, "intermolecular_energy": -6.391, "internal_energy": 0.181}

$$$$
cand_038_out
     RDKit          3D

 47 49  0  0  0  0  0  0  0  0999 V2000
   41.6010   26.8680  -10.6780 C   0  0  0  0  0  0  0  0  0  0  0  0
   42.9290   26.6600  -11.3990 C   0  0  0  0  0  0  0  0  0  0  0  0
   42.7480   26.4230  -12.8840 C   0  0  0  0  0  0  0  0  0  0  0  0
   41.5260   26.9270  -13.4090 C   0  0  0  0  0  0  0  0  0  0  0  0
   41.1790   26.8230  -14.7580 C   0  0  0  0  0  0  0  0  0  0  0  0
   39.8950   27.3320  -15.2830 C   0  0  0  0  0  0  0  0  0  0  0  0
   39.5830   26.8200  -16.5380 O   0  0  0  0  0  0  0  0  0  0  0  0
   38.4170   27.2100  -17.1420 C   0  0  0  0  0  0  0  0  0  0  0  0
   38.1370   26.6600  -18.3950 C   0  0  0  0  0  0  0  0  0  0  0  0
   36.9660   27.0170  -19.0670 C   0  0  0  0  0  0  0  0  0  0  0  0
   36.0750   27.9230  -18.4880 C   0  0  0  0  0  0  0  0  0  0  0  0
   36.3570   28.4710  -17.2390 C   0  0  0  0  0  0  0  0  0  0  0  0
   35.4420   29.3530  -16.7310 O   0  0  0  0  0  0  0  0  0  0  0  0
   37.5290   28.1130  -16.5670 C   0  0  0  0  0  0  0  0  0  0  0  0
   37.8630   28.6650  -15.2530 C   0  0  0  0  0  0  0  0  0  0  0  0
   37.1330   29.4730  -14.6820 O   0  0  0  0  0  0  0  0  0  0  0  0
   39.1240   28.2150  -14.6210 C   0  0  0  0  0  0  0  0  0  0  0  0
   39.4360   28.7530  -13.3850 O   0  0  0  0  0  0  0  0  0  0  0  0
   42.0730   26.1750  -15.6010 C   0  0  0  0  0  0  0  0  0  0  0  0
   43.2820   25.6660  -15.1080 C   0  0  0  0  0  0  0  0  0  0  0  0
   43.6690   25.7740  -13.7490 C   0  0  0  0  0  0  0  0  0  0  0  0
   45.0270   25.1590  -13.3110 C   0  0  0  0  0  0  0  0  0  0  0  0
   45.0350   24.6470  -11.8400 C   0  0  0  0  0  0  0  0  0  0  0  0
   45.4090   23.9210  -14.1540 C   0  0  0  0  0  0  0  0  0  0  0  0
   46.1350   26.2330  -13.3790 C   0  0  0  0  0  0  0  0  0  0  0  0
   41.7661   26.8421   -9.5908 H   0  0  0  0  0  0  0  0  0  0  0  0
   41.1786   27.8433  -10.9616 H   0  0  0  0  0  0  0  0  0  0  0  0
   40.9006   26.0686  -10.9616 H   0  0  0  0  0  0  0  0  0  0  0  0
   43.5520   27.5554  -11.2574 H   0  0  0  0  0  0  0  0  0  0  0  0
   43.4063   25.7657  -10.9720 H   0  0  0  0  0  0  0  0  0  0  0  0
   40.8229   27.4207  -12.7221 H   0  0  0  0  0  0  0  0  0  0  0  0
   38.8382   25.9463  -18.8521 H   0  0  0  0  0  0  0  0  0  0  0  0
   36.7452   26.5839  -20.0538 H   0  0  0  0  0  0  0  0  0  0  0  0
   35.1523   28.2033  -19.0173 H   0  0  0  0  0  0  0  0  0  0  0  0
   34.6480   29.5240  -17.1970 H   0  0  0  0  0  0  0  0  0  0  0  0
   39.1320   29.6100  -13.1580 H   0  0  0  0  0  0  0  0  0  0  0  0
   41.8292   26.0601  -16.6675 H   0  0  0  0  0  0  0  0  0  0  0  0
   43.9621   25.1591  -15.8083 H   0  0  0  0  0  0  0  0  0  0  0  0
   45.0216   25.5058  -11.1528 H   0  0  0  0  0  0  0  0  0  0  0  0
   44.1465   24.0228  -11.6642 H   0  0  0  0  0  0  0  0  0  0  0  0
   45.9426   24.0508  -11.6642 H   0  0  0  0  0  0  0  0  0  0  0  0
   45.6664   23.0869  -13.4847 H   0  0  0  0  0  0  0  0  0  0  0  0
   44.5580   23.6327  -14.7886 H   0  0  0  0  0  0  0  0  0  0  0  0
   46.2745   24.1624  -14.7886 H   0  0  0  0  0  0  0  0  0  0  0  0
   46.4308   26.5197  -12.3591 H   0  0  0  0  0  0  0  0  0  0  0  0
   47.0067   25.8272  -13.9132 H   0  0  0  0  0  0  0  0  0  0  0  0
   45.7565   27.1170  -13.9132 H   0  0  0  0  0  0  0  0  0  0  0  0
  1  2  1  0
  2  3  1  0
  3  4  2  0
  4  5  1  0
  5  6  1  0
  6  7  1  0
  7  8  1  0
  8  9  2  0
  9 10  1  0
 10 11  2  0
 11 12  1  0
 12 13  1  0
 12 14  2  0
 14 15  1  0
 15 16  2  0
 15 17  1  0
 17 18  1  0
  5 19  2  0
 19 20  1  0
 20 21  2  0
 21 22  1  0
 22 23  1  0
 22 24  1  0
 22 25  1  0
 21  3  1  0
 17  6  2  0
 14  8  1  0
  1 26  1  0
  1 27  1  0
  1 28  1  0
  2 29  1  0
  2 30  1  0
  4 31  1  0
  9 32  1  0
 10 33  1  0
 11 34  1  0
 13 35  1  0
 18 36  1  0
 19 37  1  0
 20 38  1  0
 23 39  1  0
 23 40  1  0
 23 41  1  0
 24 42  1  0
 24 43  1  0
 24 44  1  0
 25 45  1  0
 25 46  1  0
 25 47  1  0
M  END
>  <meeko>  (2) 
{"is_sidechain": [false], "free_energy": -3.376, "intermolecular_energy": -4.25, "internal_energy": 0.266}

$$$$
cand_038_out
     RDKit          3D

 47 49  0  0  0  0  0  0  0  0999 V2000
   44.6770   29.0510  -12.8560 C   0  0  0  0  0  0  0  0  0  0  0  0
   44.9220   27.5780  -12.5470 C   0  0  0  0  0  0  0  0  0  0  0  0
   44.0520   26.6610  -13.3830 C   0  0  0  0  0  0  0  0  0  0  0  0
   42.7960   27.2200  -13.7430 C   0  0  0  0  0  0  0  0  0  0  0  0
   41.8580   26.5400  -14.5240 C   0  0  0  0  0  0  0  0  0  0  0  0
   40.5470   27.1270  -14.8710 C   0  0  0  0  0  0  0  0  0  0  0  0
   40.1240   26.7850  -16.1510 O   0  0  0  0  0  0  0  0  0  0  0  0
   38.9200   27.2620  -16.6000 C   0  0  0  0  0  0  0  0  0  0  0  0
   38.5280   26.8810  -17.8850 C   0  0  0  0  0  0  0  0  0  0  0  0
   37.3140   27.3340  -18.4060 C   0  0  0  0  0  0  0  0  0  0  0  0
   36.4920   28.1680  -17.6430 C   0  0  0  0  0  0  0  0  0  0  0  0
   36.8860   28.5470  -16.3620 C   0  0  0  0  0  0  0  0  0  0  0  0
   36.0350   29.3650  -15.6710 O   0  0  0  0  0  0  0  0  0  0  0  0
   38.1010   28.0920  -15.8420 C   0  0  0  0  0  0  0  0  0  0  0  0
   38.5530   28.4660  -14.5010 C   0  0  0  0  0  0  0  0  0  0  0  0
   37.8900   29.2020  -13.7720 O   0  0  0  0  0  0  0  0  0  0  0  0
   39.8520   27.9250  -14.0390 C   0  0  0  0  0  0  0  0  0  0  0  0
   40.2750   28.2960  -12.7750 O   0  0  0  0  0  0  0  0  0  0  0  0
   42.1820   25.2540  -14.9380 C   0  0  0  0  0  0  0  0  0  0  0  0
   43.4130   24.6800  -14.5940 C   0  0  0  0  0  0  0  0  0  0  0  0
   44.3900   25.3520  -13.8190 C   0  0  0  0  0  0  0  0  0  0  0  0
   45.7140   24.6110  -13.4840 C   0  0  0  0  0  0  0  0  0  0  0  0
   46.0700   24.6220  -11.9680 C   0  0  0  0  0  0  0  0  0  0  0  0
   45.6570   23.1120  -13.8580 C   0  0  0  0  0  0  0  0  0  0  0  0
   46.8980   25.3080  -14.1890 C   0  0  0  0  0  0  0  0  0  0  0  0
   44.5836   29.6125  -11.9147 H   0  0  0  0  0  0  0  0  0  0  0  0
   45.5213   29.4489  -13.4381 H   0  0  0  0  0  0  0  0  0  0  0  0
   43.7494   29.1542  -13.4381 H   0  0  0  0  0  0  0  0  0  0  0  0
   45.9778   27.3452  -12.7496 H   0  0  0  0  0  0  0  0  0  0  0  0
   44.6685   27.4099  -11.4899 H   0  0  0  0  0  0  0  0  0  0  0  0
   42.5514   28.2331  -13.3911 H   0  0  0  0  0  0  0  0  0  0  0  0
   39.1746   26.2249  -18.4861 H   0  0  0  0  0  0  0  0  0  0  0  0
   37.0044   27.0341  -19.4180 H   0  0  0  0  0  0  0  0  0  0  0  0
   35.5357   28.5244  -18.0534 H   0  0  0  0  0  0  0  0  0  0  0  0
   35.7700   29.1380  -14.8020 H   0  0  0  0  0  0  0  0  0  0  0  0
   40.4880   29.1910  -12.5970 H   0  0  0  0  0  0  0  0  0  0  0  0
   41.4642   24.6801  -15.5425 H   0  0  0  0  0  0  0  0  0  0  0  0
   43.6310   23.6596  -14.9421 H   0  0  0  0  0  0  0  0  0  0  0  0
   45.1447   24.5934  -11.3739 H   0  0  0  0  0  0  0  0  0  0  0  0
   46.6861   23.7425  -11.7296 H   0  0  0  0  0  0  0  0  0  0  0  0
   46.6306   25.5379  -11.7296 H   0  0  0  0  0  0  0  0  0  0  0  0
   45.6340   22.5058  -12.9404 H   0  0  0  0  0  0  0  0  0  0  0  0
   44.7508   22.9160  -14.4498 H   0  0  0  0  0  0  0  0  0  0  0  0
   46.5457   22.8477  -14.4498 H   0  0  0  0  0  0  0  0  0  0  0  0
   47.5871   25.7137  -13.4337 H   0  0  0  0  0  0  0  0  0  0  0  0
   47.4308   24.5794  -14.8178 H   0  0  0  0  0  0  0  0  0  0  0  0
   46.5195   26.1274  -14.8178 H   0  0  0  0  0  0  0  0  0  0  0  0
  1  2  1  0
  2  3  1  0
  3  4  2  0
  4  5  1  0
  5  6  1  0
  6  7  1  0
  7  8  1  0
  8  9  2  0
  9 10  1  0
 10 11  2  0
 11 12  1  0
 12 13  1  0
 12 14  2  0
 14 15  1  0
 15 16  2  0
 15 17  1  0
 17 18  1  0
  5 19  2  0
 19 20  1  0
 20 21  2  0
 21 22  1  0
 22 23  1  0
 22 24  1  0
 22 25  1  0
 21  3  1  0
 17  6  2  0
 14  8  1  0
  1 26  1  0
  1 27  1  0
  1 28  1  0
  2 29  1  0
  2 30  1  0
  4 31  1  0
  9 32  1  0
 10 33  1  0
 11 34  1  0
 13 35  1  0
 18 36  1  0
 19 37  1  0
 20 38  1  0
 23 39  1  0
 23 40  1  0
 23 41  1  0
 24 42  1  0
 24 43  1  0
 24 44  1  0
 25 45  1  0
 25 46  1  0
 25 47  1  0
M  END
>  <meeko>  (3) 
{"is_sidechain": [false], "free_energy": -2.756, "intermolecular_energy": -3.137, "internal_energy": -0.083}

$$$$
