cand_044_out
     RDKit          3D

 41 43  0  0  0  0  0  0  0  0999 V2000
   47.2830   26.0090  -14.1440 C   0  0  0  0  0  0  0  0  0  0  0  0
   46.5470   24.6790  -14.1800 C   0  0  0  0  0  0  0  0  0  0  0  0
   45.3720   24.6650  -13.2000 C   0  0  0  0  0  0  0  0  0  0  0  0
   44.1100   25.2200  -13.8250 C   0  0  0  0  0  0  0  0  0  0  0  0
   43.5990   24.5840  -14.9680 C   0  0  0  0  0  0  0  0  0  0  0  0
   42.4480   25.0560  -15.6030 C   0  0  0  0  0  0  0  0  0  0  0  0
   41.7800   26.1840  -15.1210 C   0  0  0  0  0  0  0  0  0  0  0  0
   40.5450   26.6910  -15.7590 C   0  0  0  0  0  0  0  0  0  0  0  0
   39.7910   27.4950  -14.9110 O   0  0  0  0  0  0  0  0  0  0  0  0
   38.6210   28.0370  -15.3780 C   0  0  0  0  0  0  0  0  0  0  0  0
   37.8910   28.8280  -14.4900 C   0  0  0  0  0  0  0  0  0  0  0  0
   36.6900   29.4110  -14.9030 C   0  0  0  0  0  0  0  0  0  0  0  0
   36.2210   29.2030  -16.2000 C   0  0  0  0  0  0  0  0  0  0  0  0
   36.9520   28.4130  -17.0850 C   0  0  0  0  0  0  0  0  0  0  0  0
   36.4350   28.2520  -18.3410 O   0  0  0  0  0  0  0  0  0  0  0  0
   38.1520   27.8310  -16.6720 C   0  0  0  0  0  0  0  0  0  0  0  0
   38.9520   26.9950  -17.5690 C   0  0  0  0  0  0  0  0  0  0  0  0
   38.6080   26.7700  -18.7280 O   0  0  0  0  0  0  0  0  0  0  0  0
   40.2070   26.4190  -17.0320 C   0  0  0  0  0  0  0  0  0  0  0  0
   40.9610   25.6440  -17.8940 O   0  0  0  0  0  0  0  0  0  0  0  0
   42.2850   26.8180  -13.9760 C   0  0  0  0  0  0  0  0  0  0  0  0
   43.4470   26.3590  -13.3220 C   0  0  0  0  0  0  0  0  0  0  0  0
   43.9220   27.0860  -12.0840 C   0  0  0  0  0  0  0  0  0  0  0  0
   43.7400   26.3720  -10.9380 F   0  0  0  0  0  0  0  0  0  0  0  0
   45.2510   27.3950  -12.1100 F   0  0  0  0  0  0  0  0  0  0  0  0
   47.4486   26.3082  -13.0985 H   0  0  0  0  0  0  0  0  0  0  0  0
   48.2523   25.9056  -14.6537 H   0  0  0  0  0  0  0  0  0  0  0  0
   46.6806   26.7753  -14.6537 H   0  0  0  0  0  0  0  0  0  0  0  0
   46.1663   24.5079  -15.1978 H   0  0  0  0  0  0  0  0  0  0  0  0
   47.2509   23.8856  -13.8883 H   0  0  0  0  0  0  0  0  0  0  0  0
   45.1857   23.6284  -12.8827 H   0  0  0  0  0  0  0  0  0  0  0  0
   45.6358   25.3006  -12.3419 H   0  0  0  0  0  0  0  0  0  0  0  0
   44.1140   23.6990  -15.3701 H   0  0  0  0  0  0  0  0  0  0  0  0
   42.0637   24.5341  -16.4918 H   0  0  0  0  0  0  0  0  0  0  0  0
   38.2602   28.9923  -13.4669 H   0  0  0  0  0  0  0  0  0  0  0  0
   36.1136   30.0349  -14.2041 H   0  0  0  0  0  0  0  0  0  0  0  0
   35.2753   29.6620  -16.5238 H   0  0  0  0  0  0  0  0  0  0  0  0
   36.7020   28.8230  -19.0350 H   0  0  0  0  0  0  0  0  0  0  0  0
   40.6050   25.3770  -18.7180 H   0  0  0  0  0  0  0  0  0  0  0  0
   41.7596   27.6982  -13.5770 H   0  0  0  0  0  0  0  0  0  0  0  0
   43.3060   27.9973  -12.0880 H   0  0  0  0  0  0  0  0  0  0  0  0
  1  2  1  0
  2  3  1  0
  3  4  1  0
  4  5  2  0
  5  6  1  0
  6  7  2  0
  7  8  1  0
  8  9  1  0
  9 10  1  0
 10 11  2  0
 11 12  1  0
 12 13  2  0
 13 14  1  0
 14 15  1  0
 14 16  2  0
 16 17  1  0
 17 18  2  0
 17 19  1  0
 19 20  1  0
  7 21  1  0
 21 22  2  0
 22 23  1  0
 23 24  1  0
 23 25  1  0
 22  4  1  0
 19  8  2  0
 16 10  1  0
  1 26  1  0
  1 27  1  0
  1 28  1  0
  2 29  1  0
  2 30  1  0
  3 31  1  0
  3 32  1  0
  5 33  1  0
  6 34  1  0
 11 35  1  0
 12 36  1  0
 13 37  1  0
 15 38  1  0
 20 39  1  0
 21 40  1  0
 23 41  1  0
M  END
>  <meeko>  (1) 
{"is_sidechain": [false], "free_energy": -7.91, "intermolecular_energy": -10.223, "internal_energy": -0.256}

$$$$
cand_044_out
     RDKit          3D

 41 43  0  0  0  0  0  0  0  0999 V2000
   47.2050   26.1450  -13.8630 C   0  0  0  0  0  0  0  0  0  0  0  0
   46.6220   24.8890  -14.4930 C   0  0  0  0  0  0  0  0  0  0  0  0
   45.4610   24.3370  -13.6640 C   0  0  0  0  0  0  0  0  0  0  0  0
   44.1630   25.0550  -13.9630 C   0  0  0  0  0  0  0  0  0  0  0  0
   43.4570   24.6950  -15.1230 C   0  0  0  0  0  0  0  0  0  0  0  0
   42.2610   25.3310  -15.4660 C   0  0  0  0  0  0  0  0  0  0  0  0
   41.7420   26.3530  -14.6670 C   0  0  0  0  0  0  0  0  0  0  0  0
   40.4660   27.0270  -14.9940 C   0  0  0  0  0  0  0  0  0  0  0  0
   39.9930   26.7010  -16.2600 O   0  0  0  0  0  0  0  0  0  0  0  0
   38.8130   27.2520  -16.6890 C   0  0  0  0  0  0  0  0  0  0  0  0
   38.3800   26.9050  -17.9690 C   0  0  0  0  0  0  0  0  0  0  0  0
   37.1860   27.4310  -18.4670 C   0  0  0  0  0  0  0  0  0  0  0  0
   36.4250   28.3030  -17.6870 C   0  0  0  0  0  0  0  0  0  0  0  0
   36.8600   28.6470  -16.4080 C   0  0  0  0  0  0  0  0  0  0  0  0
   36.0660   29.5050  -15.6970 O   0  0  0  0  0  0  0  0  0  0  0  0
   38.0540   28.1210  -15.9110 C   0  0  0  0  0  0  0  0  0  0  0  0
   38.5460   28.4560  -14.5740 C   0  0  0  0  0  0  0  0  0  0  0  0
   37.9300   29.2110  -13.8240 O   0  0  0  0  0  0  0  0  0  0  0  0
   39.8260   27.8480  -14.1420 C   0  0  0  0  0  0  0  0  0  0  0  0
   40.2720   28.1600  -12.8710 O   0  0  0  0  0  0  0  0  0  0  0  0
   42.4440   26.7110  -13.5060 C   0  0  0  0  0  0  0  0  0  0  0  0
   43.6530   26.0830  -13.1430 C   0  0  0  0  0  0  0  0  0  0  0  0
   44.3430   26.5130  -11.8680 C   0  0  0  0  0  0  0  0  0  0  0  0
   44.9480   27.7290  -11.9690 F   0  0  0  0  0  0  0  0  0  0  0  0
   43.4990   26.6170  -10.8000 F   0  0  0  0  0  0  0  0  0  0  0  0
   47.1647   26.0582  -12.7672 H   0  0  0  0  0  0  0  0  0  0  0  0
   48.2506   26.2644  -14.1831 H   0  0  0  0  0  0  0  0  0  0  0  0
   46.6213   27.0207  -14.1831 H   0  0  0  0  0  0  0  0  0  0  0  0
   46.2580   25.1307  -15.5025 H   0  0  0  0  0  0  0  0  0  0  0  0
   47.4115   24.1243  -14.5358 H   0  0  0  0  0  0  0  0  0  0  0  0
   45.3371   23.2682  -13.8929 H   0  0  0  0  0  0  0  0  0  0  0  0
   45.6982   24.4899  -12.6008 H   0  0  0  0  0  0  0  0  0  0  0  0
   43.8522   23.8995  -15.7718 H   0  0  0  0  0  0  0  0  0  0  0  0
   41.7224   25.0238  -16.3746 H   0  0  0  0  0  0  0  0  0  0  0  0
   38.9784   26.2179  -18.5853 H   0  0  0  0  0  0  0  0  0  0  0  0
   36.8446   27.1574  -19.4762 H   0  0  0  0  0  0  0  0  0  0  0  0
   35.4850   28.7175  -18.0802 H   0  0  0  0  0  0  0  0  0  0  0  0
   35.9440   29.3760  -14.7760 H   0  0  0  0  0  0  0  0  0  0  0  0
   40.8660   27.5870  -12.4290 H   0  0  0  0  0  0  0  0  0  0  0  0
   42.0394   27.5045  -12.8605 H   0  0  0  0  0  0  0  0  0  0  0  0
   45.0803   25.7121  -11.7101 H   0  0  0  0  0  0  0  0  0  0  0  0
  1  2  1  0
  2  3  1  0
  3  4  1  0
  4  5  2  0
  5  6  1  0
  6  7  2  0
  7  8  1  0
  8  9  1  0
  9 10  1  0
 10 11  2  0
 11 12  1  0
 12 13  2  0
 13 14  1  0
 14 15  1  0
 14 16  2  0
 16 17  1  0
 17 18  2  0
 17 19  1  0
 19 20  1  0
  7 21  1  0
 21 22  2  0
 22 23  1  0
 23 24  1  0
 23 25  1  0
 22  4  1  0
 19  8  2  0
 16 10  1  0
  1 26  1  0
  1 27  1  0
  1 28  1  0
  2 29  1  0
  2 30  1  0
  3 31  1  0
  3 32  1  0
  5 33  1  0
  6 34  1  0
 11 35  1  0
 12 36  1  0
 13 37  1  0
 15 38  1  0
 20 39  1  0
 21 40  1  0
 23 41  1  0
M  END
>  <meeko>  (2) 
{"is_sidechain": [false], "free_energy": -6.704, "intermolecular_energy": -8.754, "internal_energy": -0.166}

$$$$
cand_044_out
     RDKit          3D

 41 43  0  0  0  0  0  0  0  0999 V2000
   34.6340   29.7140  -18.6820 C   0  0  0  0  0  0  0  0  0  0  0  0
   35.9260   29.5230  -17.9030 C   0  0  0  0  0  0  0  0  0  0  0  0
   36.4820   28.1090  -18.0820 C   0  0  0  0  0  0  0  0  0  0  0  0
   37.6010   27.8150  -17.1070 C   0  0  0  0  0  0  0  0  0  0  0  0
   38.5930   26.8970  -17.4900 C   0  0  0  0  0  0  0  0  0  0  0  0
   39.6430   26.5680  -16.6310 C   0  0  0  0  0  0  0  0  0  0  0  0
   39.7270   27.1380  -15.3570 C   0  0  0  0  0  0  0  0  0  0  0  0
   40.8420   26.8260  -14.4360 C   0  0  0  0  0  0  0  0  0  0  0  0
   41.9310   26.2520  -15.0820 O   0  0  0  0  0  0  0  0  0  0  0  0
   43.0380   25.9170  -14.3440 C   0  0  0  0  0  0  0  0  0  0  0  0
   44.1040   25.3350  -15.0310 C   0  0  0  0  0  0  0  0  0  0  0  0
   45.2620   24.9710  -14.3400 C   0  0  0  0  0  0  0  0  0  0  0  0
   45.3550   25.1900  -12.9650 C   0  0  0  0  0  0  0  0  0  0  0  0
   44.2890   25.7720  -12.2820 C   0  0  0  0  0  0  0  0  0  0  0  0
   44.4470   25.9590  -10.9360 O   0  0  0  0  0  0  0  0  0  0  0  0
   43.1320   26.1360  -12.9740 C   0  0  0  0  0  0  0  0  0  0  0  0
   41.9900   26.7510  -12.2950 C   0  0  0  0  0  0  0  0  0  0  0  0
   41.9970   26.9820  -11.0870 O   0  0  0  0  0  0  0  0  0  0  0  0
   40.8070   27.0950  -13.1180 C   0  0  0  0  0  0  0  0  0  0  0  0
   39.7410   27.6900  -12.4680 O   0  0  0  0  0  0  0  0  0  0  0  0
   38.7400   28.0590  -14.9740 C   0  0  0  0  0  0  0  0  0  0  0  0
   37.6710   28.4020  -15.8270 C   0  0  0  0  0  0  0  0  0  0  0  0
   36.6540   29.4130  -15.3480 C   0  0  0  0  0  0  0  0  0  0  0  0
   35.5750   28.8450  -14.7410 F   0  0  0  0  0  0  0  0  0  0  0  0
   37.1540   30.3000  -14.4380 F   0  0  0  0  0  0  0  0  0  0  0  0
   33.7969   29.8377  -17.9791 H   0  0  0  0  0  0  0  0  0  0  0  0
   34.7166   30.6097  -19.3152 H   0  0  0  0  0  0  0  0  0  0  0  0
   34.4539   28.8327  -19.3152 H   0  0  0  0  0  0  0  0  0  0  0  0
   36.6709   30.2485  -18.2619 H   0  0  0  0  0  0  0  0  0  0  0  0
   35.7126   29.6784  -16.8352 H   0  0  0  0  0  0  0  0  0  0  0  0
   35.6701   27.3846  -17.9205 H   0  0  0  0  0  0  0  0  0  0  0  0
   36.8881   28.0289  -19.1012 H   0  0  0  0  0  0  0  0  0  0  0  0
   38.5414   26.4292  -18.4842 H   0  0  0  0  0  0  0  0  0  0  0  0
   40.4119   25.8533  -16.9596 H   0  0  0  0  0  0  0  0  0  0  0  0
   44.0325   25.1631  -16.1151 H   0  0  0  0  0  0  0  0  0  0  0  0
   46.1022   24.5109  -14.8807 H   0  0  0  0  0  0  0  0  0  0  0  0
   46.2676   24.9039  -12.4216 H   0  0  0  0  0  0  0  0  0  0  0  0
   43.8350   25.5780  -10.3350 H   0  0  0  0  0  0  0  0  0  0  0  0
   39.3130   27.2440  -11.7650 H   0  0  0  0  0  0  0  0  0  0  0  0
   38.8020   28.5266  -13.9803 H   0  0  0  0  0  0  0  0  0  0  0  0
   36.3653   29.9235  -16.2786 H   0  0  0  0  0  0  0  0  0  0  0  0
  1  2  1  0
  2  3  1  0
  3  4  1  0
  4  5  2  0
  5  6  1  0
  6  7  2  0
  7  8  1  0
  8  9  1  0
  9 10  1  0
 10 11  2  0
 11 12  1  0
 12 13  2  0
 13 14  1  0
 14 15  1  0
 14 16  2  0
 16 17  1  0
 17 18  2  0
 17 19  1  0
 19 20  1  0
  7 21  1  0
 21 22  2  0
 22 23  1  0
 23 24  1  0
 23 25  1  0
 22  4  1  0
 19  8  2  0
 16 10  1  0
  1 26  1  0
  1 27  1  0
  1 28  1  0
  2 29  1  0
  2 30  1  0
  3 31  1  0
  3 32  1  0
  5 33  1  0
  6 34  1  0
 11 35  1  0
 12 36  1  0
 13 37  1  0
 15 38  1  0
 20 39  1  0
 21 40  1  0
 23 41  1  0
M  END
>  <meeko>  (3) 
{"is_sidechain": [false], "free_energy": -5.305, "intermolecular_energy": -7.967, "internal_energy": 0.854}

$$$$
cand_044_out
     RDKit          3D

 41 43  0  0  0  0  0  0  0  0999 V2000
   34.5580   29.5360  -19.0320 C   0  0  0  0  0  0  0  0  0  0  0  0
   35.8780   29.5270  -18.2770 C   0  0  0  0  0  0  0  0  0  0  0  0
   35.6590   29.3530  -16.7720 C   0  0  0  0  0  0  0  0  0  0  0  0
   36.8920   28.8100  -16.0820 C   0  0  0  0  0  0  0  0  0  0  0  0
   37.1640   29.2400  -14.7730 C   0  0  0  0  0  0  0  0  0  0  0  0
   38.2940   28.7910  -14.0870 C   0  0  0  0  0  0  0  0  0  0  0  0
   39.1920   27.9070  -14.6920 C   0  0  0  0  0  0  0  0  0  0  0  0
   40.3830   27.3960  -13.9790 C   0  0  0  0  0  0  0  0  0  0  0  0
   41.3150   26.8160  -14.8330 O   0  0  0  0  0  0  0  0  0  0  0  0
   42.4720   26.3050  -14.3040 C   0  0  0  0  0  0  0  0  0  0  0  0
   43.3750   25.7240  -15.1950 C   0  0  0  0  0  0  0  0  0  0  0  0
   44.5730   25.1850  -14.7220 C   0  0  0  0  0  0  0  0  0  0  0  0
   44.8690   25.2280  -13.3590 C   0  0  0  0  0  0  0  0  0  0  0  0
   43.9670   25.8090  -12.4700 C   0  0  0  0  0  0  0  0  0  0  0  0
   44.3200   25.8180  -11.1480 O   0  0  0  0  0  0  0  0  0  0  0  0
   42.7680   26.3470  -12.9450 C   0  0  0  0  0  0  0  0  0  0  0  0
   41.7930   26.9680  -12.0460 C   0  0  0  0  0  0  0  0  0  0  0  0
   41.9840   27.0490  -10.8350 O   0  0  0  0  0  0  0  0  0  0  0  0
   40.5510   27.5050  -12.6490 C   0  0  0  0  0  0  0  0  0  0  0  0
   39.6450   28.1020  -11.7920 O   0  0  0  0  0  0  0  0  0  0  0  0
   38.9190   27.4720  -15.9970 C   0  0  0  0  0  0  0  0  0  0  0  0
   37.7840   27.9150  -16.7080 C   0  0  0  0  0  0  0  0  0  0  0  0
   37.5500   27.3900  -18.1060 C   0  0  0  0  0  0  0  0  0  0  0  0
   38.6960   27.2640  -18.8330 F   0  0  0  0  0  0  0  0  0  0  0  0
   36.9690   26.1550  -18.1340 F   0  0  0  0  0  0  0  0  0  0  0  0
   33.7248   29.5417  -18.3138 H   0  0  0  0  0  0  0  0  0  0  0  0
   34.5033   30.4345  -19.6642 H   0  0  0  0  0  0  0  0  0  0  0  0
   34.4910   28.6383  -19.6642 H   0  0  0  0  0  0  0  0  0  0  0  0
   36.4964   28.6960  -18.6472 H   0  0  0  0  0  0  0  0  0  0  0  0
   36.3796   30.4915  -18.4448 H   0  0  0  0  0  0  0  0  0  0  0  0
   35.4073   30.3301  -16.3338 H   0  0  0  0  0  0  0  0  0  0  0  0
   34.8414   28.6315  -16.6273 H   0  0  0  0  0  0  0  0  0  0  0  0
   36.4754   29.9421  -14.2801 H   0  0  0  0  0  0  0  0  0  0  0  0
   38.4797   29.1366  -13.0593 H   0  0  0  0  0  0  0  0  0  0  0  0
   43.1431   25.6906  -16.2698 H   0  0  0  0  0  0  0  0  0  0  0  0
   45.2842   24.7260  -15.4245 H   0  0  0  0  0  0  0  0  0  0  0  0
   45.8132   24.8038  -12.9869 H   0  0  0  0  0  0  0  0  0  0  0  0
   45.0620   26.3150  -10.8650 H   0  0  0  0  0  0  0  0  0  0  0  0
   39.9450   28.6940  -11.1310 H   0  0  0  0  0  0  0  0  0  0  0  0
   39.6097   26.7651  -16.4800 H   0  0  0  0  0  0  0  0  0  0  0  0
   36.8834   28.1499  -18.5398 H   0  0  0  0  0  0  0  0  0  0  0  0
  1  2  1  0
  2  3  1  0
  3  4  1  0
  4  5  2  0
  5  6  1  0
  6  7  2  0
  7  8  1  0
  8  9  1  0
  9 10  1  0
 10 11  2  0
 11 12  1  0
 12 13  2  0
 13 14  1  0
 14 15  1  0
 14 16  2  0
 16 17  1  0
 17 18  2  0
 17 19  1  0
 19 20  1  0
  7 21  1  0
 21 22  2  0
 22 23  1  0
 23 24  1  0
 23 25  1  0
 22  4  1  0
 19  8  2  0
 16 10  1  0
  1 26  1  0
  1 27  1  0
  1 28  1  0
  2 29  1  0
  2 30  1  0
  3 31  1  0
  3 32  1  0
  5 33  1  0
  6 34  1  0
 11 35  1  0
 12 36  1  0
 13 37  1  0
 15 38  1  0
 20 39  1  0
 21 40  1  0
 23 41  1  0
M  END
>  <meeko>  (4) 
{"is_sidechain": [false], "free_energy": -5.087, "intermolecular_energy": -7.488, "internal_energy": 0.658}

$$$$
