cand_053_out
     RDKit          3D

 44 46  0  0  0  0  0  0  0  0999 V2000
   47.1760   25.9940  -14.0790 C   0  0  0  0  0  0  0  0  0  0  0  0
   46.3010   24.7520  -14.0150 C   0  0  0  0  0  0  0  0  0  0  0  0
   45.1630   24.9250  -13.0070 C   0  0  0  0  0  0  0  0  0  0  0  0
   43.8990   25.4290  -13.6710 C   0  0  0  0  0  0  0  0  0  0  0  0
   43.6860   25.1030  -15.0220 C   0  0  0  0  0  0  0  0  0  0  0  0
   42.5360   25.5230  -15.6930 C   0  0  0  0  0  0  0  0  0  0  0  0
   41.5590   26.2740  -15.0330 C   0  0  0  0  0  0  0  0  0  0  0  0
   40.3630   26.7360  -15.7700 C   0  0  0  0  0  0  0  0  0  0  0  0
   39.5540   27.5750  -15.0130 O   0  0  0  0  0  0  0  0  0  0  0  0
   38.4070   28.0770  -15.5750 C   0  0  0  0  0  0  0  0  0  0  0  0
   37.6180   28.9020  -14.7730 C   0  0  0  0  0  0  0  0  0  0  0  0
   36.4380   29.4490  -15.2850 C   0  0  0  0  0  0  0  0  0  0  0  0
   36.0500   29.1700  -16.5970 C   0  0  0  0  0  0  0  0  0  0  0  0
   36.8400   28.3450  -17.3940 C   0  0  0  0  0  0  0  0  0  0  0  0
   36.4010   28.1140  -18.6690 O   0  0  0  0  0  0  0  0  0  0  0  0
   38.0200   27.7990  -16.8810 C   0  0  0  0  0  0  0  0  0  0  0  0
   38.8790   26.9280  -17.6850 C   0  0  0  0  0  0  0  0  0  0  0  0
   38.6080   26.6430  -18.8500 O   0  0  0  0  0  0  0  0  0  0  0  0
   40.1030   26.3940  -17.0450 C   0  0  0  0  0  0  0  0  0  0  0  0
   40.9140   25.5830  -17.8190 O   0  0  0  0  0  0  0  0  0  0  0  0
   41.7710   26.6020  -13.6880 C   0  0  0  0  0  0  0  0  0  0  0  0
   42.9220   26.1810  -12.9890 C   0  0  0  0  0  0  0  0  0  0  0  0
   43.0600   26.5910  -11.5410 C   0  0  0  0  0  0  0  0  0  0  0  0
   41.7090   26.8620  -10.8950 C   0  0  0  0  0  0  0  0  0  0  0  0
   47.4121   26.3292  -13.0583 H   0  0  0  0  0  0  0  0  0  0  0  0
   48.1086   25.7584  -14.6125 H   0  0  0  0  0  0  0  0  0  0  0  0
   46.6402   26.7929  -14.6125 H   0  0  0  0  0  0  0  0  0  0  0  0
   45.8724   24.5639  -15.0105 H   0  0  0  0  0  0  0  0  0  0  0  0
   46.9241   23.9046  -13.6931 H   0  0  0  0  0  0  0  0  0  0  0  0
   44.9546   23.9538  -12.5344 H   0  0  0  0  0  0  0  0  0  0  0  0
   45.4772   25.6678  -12.2590 H   0  0  0  0  0  0  0  0  0  0  0  0
   44.4382   24.5069  -15.5594 H   0  0  0  0  0  0  0  0  0  0  0  0
   42.3973   25.2602  -16.7521 H   0  0  0  0  0  0  0  0  0  0  0  0
   37.9240   29.1216  -13.7395 H   0  0  0  0  0  0  0  0  0  0  0  0
   35.8147   30.0996  -14.6540 H   0  0  0  0  0  0  0  0  0  0  0  0
   35.1219   29.6011  -17.0005 H   0  0  0  0  0  0  0  0  0  0  0  0
   36.0270   28.8130  -19.1690 H   0  0  0  0  0  0  0  0  0  0  0  0
   41.1560   24.7320  -17.5110 H   0  0  0  0  0  0  0  0  0  0  0  0
   41.0177   27.2059  -13.1609 H   0  0  0  0  0  0  0  0  0  0  0  0
   43.5620   25.7826  -10.9891 H   0  0  0  0  0  0  0  0  0  0  0  0
   43.6468   27.5207  -11.5051 H   0  0  0  0  0  0  0  0  0  0  0  0
   41.8151   26.8407   -9.8003 H   0  0  0  0  0  0  0  0  0  0  0  0
   41.3443   27.8512  -11.2089 H   0  0  0  0  0  0  0  0  0  0  0  0
   40.9910   26.0900  -11.2089 H   0  0  0  0  0  0  0  0  0  0  0  0
  1  2  1  0
  2  3  1  0
  3  4  1  0
  4  5  2  0
  5  6  1  0
  6  7  2  0
  7  8  1  0
  8  9  1  0
  9 10  1  0
 10 11  2  0
 11 12  1  0
 12 13  2  0
 13 14  1  0
 14 15  1  0
 14 16  2  0
 16 17  1  0
 17 18  2  0
 17 19  1  0
 19 20  1  0
  7 21  1  0
 21 22  2  0
 22 23  1  0
 23 24  1  0
 22  4  1  0
 19  8  2  0
 16 10  1  0
  1 25  1  0
  1 26  1  0
  1 27  1  0
  2 28  1  0
  2 29  1  0
  3 30  1  0
  3 31  1  0
  5 32  1  0
  6 33  1  0
 11 34  1  0
 12 35  1  0
 13 36  1  0
 15 37  1  0
 20 38  1  0
 21 39  1  0
 23 40  1  0
 23 41  1  0
 24 42  1  0
 24 43  1  0
 24 44  1  0
M  END
>  <meeko>  (1) 
{"is_sidechain": [false], "free_energy": -7.733, "intermolecular_energy": -9.993, "internal_energy": -0.071}

$$$$
cand_053_out
     RDKit          3D

 44 46  0  0  0  0  0  0  0  0999 V2000
   47.4460   25.8670  -14.1040 C   0  0  0  0  0  0  0  0  0  0  0  0
   46.5520   24.7020  -14.4980 C   0  0  0  0  0  0  0  0  0  0  0  0
   45.4790   24.4410  -13.4390 C   0  0  0  0  0  0  0  0  0  0  0  0
   44.1930   25.1760  -13.7500 C   0  0  0  0  0  0  0  0  0  0  0  0
   43.3880   24.6870  -14.7940 C   0  0  0  0  0  0  0  0  0  0  0  0
   42.1820   25.3070  -15.1270 C   0  0  0  0  0  0  0  0  0  0  0  0
   41.7380   26.4290  -14.4220 C   0  0  0  0  0  0  0  0  0  0  0  0
   40.4740   27.0910  -14.8090 C   0  0  0  0  0  0  0  0  0  0  0  0
   40.0500   26.7380  -16.0850 O   0  0  0  0  0  0  0  0  0  0  0  0
   38.8880   27.2810  -16.5720 C   0  0  0  0  0  0  0  0  0  0  0  0
   38.5090   26.9100  -17.8630 C   0  0  0  0  0  0  0  0  0  0  0  0
   37.3350   27.4250  -18.4190 C   0  0  0  0  0  0  0  0  0  0  0  0
   36.5420   28.3090  -17.6840 C   0  0  0  0  0  0  0  0  0  0  0  0
   36.9240   28.6770  -16.3960 C   0  0  0  0  0  0  0  0  0  0  0  0
   36.1010   29.5450  -15.7320 O   0  0  0  0  0  0  0  0  0  0  0  0
   38.0980   28.1620  -15.8410 C   0  0  0  0  0  0  0  0  0  0  0  0
   38.5360   28.5210  -14.4920 C   0  0  0  0  0  0  0  0  0  0  0  0
   37.8870   29.2870  -13.7800 O   0  0  0  0  0  0  0  0  0  0  0  0
   39.7990   27.9270  -14.0000 C   0  0  0  0  0  0  0  0  0  0  0  0
   40.1960   28.2640  -12.7180 O   0  0  0  0  0  0  0  0  0  0  0  0
   42.5410   26.9210  -13.3840 C   0  0  0  0  0  0  0  0  0  0  0  0
   43.7590   26.3040  -13.0260 C   0  0  0  0  0  0  0  0  0  0  0  0
   44.5550   26.9130  -11.8940 C   0  0  0  0  0  0  0  0  0  0  0  0
   45.4350   28.0590  -12.3700 C   0  0  0  0  0  0  0  0  0  0  0  0
   47.4980   25.9347  -13.0073 H   0  0  0  0  0  0  0  0  0  0  0  0
   48.4559   25.7078  -14.5098 H   0  0  0  0  0  0  0  0  0  0  0  0
   47.0309   26.8013  -14.5098 H   0  0  0  0  0  0  0  0  0  0  0  0
   46.0618   24.9343  -15.4550 H   0  0  0  0  0  0  0  0  0  0  0  0
   47.1763   23.8009  -14.5888 H   0  0  0  0  0  0  0  0  0  0  0  0
   45.2718   23.3614  -13.4003 H   0  0  0  0  0  0  0  0  0  0  0  0
   45.8564   24.8056  -12.4722 H   0  0  0  0  0  0  0  0  0  0  0  0
   43.7139   23.8007  -15.3581 H   0  0  0  0  0  0  0  0  0  0  0  0
   41.5750   24.9080  -15.9530 H   0  0  0  0  0  0  0  0  0  0  0  0
   39.1333   26.2134  -18.4418 H   0  0  0  0  0  0  0  0  0  0  0  0
   37.0351   27.1339  -19.4365 H   0  0  0  0  0  0  0  0  0  0  0  0
   35.6175   28.7139  -18.1214 H   0  0  0  0  0  0  0  0  0  0  0  0
   36.2460   29.7270  -14.8240 H   0  0  0  0  0  0  0  0  0  0  0  0
   39.6250   28.1020  -11.9930 H   0  0  0  0  0  0  0  0  0  0  0  0
   42.2124   27.8141  -12.8322 H   0  0  0  0  0  0  0  0  0  0  0  0
   43.8573   27.2930  -11.1332 H   0  0  0  0  0  0  0  0  0  0  0  0
   45.2086   26.1318  -11.4787 H   0  0  0  0  0  0  0  0  0  0  0  0
   45.8447   28.5926  -11.4997 H   0  0  0  0  0  0  0  0  0  0  0  0
   46.2606   27.6595  -12.9772 H   0  0  0  0  0  0  0  0  0  0  0  0
   44.8359   28.7535  -12.9772 H   0  0  0  0  0  0  0  0  0  0  0  0
  1  2  1  0
  2  3  1  0
  3  4  1  0
  4  5  2  0
  5  6  1  0
  6  7  2  0
  7  8  1  0
  8  9  1  0
  9 10  1  0
 10 11  2  0
 11 12  1  0
 12 13  2  0
 13 14  1  0
 14 15  1  0
 14 16  2  0
 16 17  1  0
 17 18  2  0
 17 19  1  0
 19 20  1  0
  7 21  1  0
 21 22  2  0
 22 23  1  0
 23 24  1  0
 22  4  1  0
 19  8  2  0
 16 10  1  0
  1 25  1  0
  1 26  1  0
  1 27  1  0
  2 28  1  0
  2 29  1  0
  3 30  1  0
  3 31  1  0
  5 32  1  0
  6 33  1  0
 11 34  1  0
 12 35  1  0
 13 36  1  0
 15 37  1  0
 20 38  1  0
 21 39  1  0
 23 40  1  0
 23 41  1  0
 24 42  1  0
 24 43  1  0
 24 44  1  0
M  END
>  <meeko>  (2) 
{"is_sidechain": [false], "free_energy": -6.468, "intermolecular_energy": -8.105, "internal_energy": -0.324}

$$$$
cand_053_out
     RDKit          3D

 44 46  0  0  0  0  0  0  0  0999 V2000
   47.0070   26.2120  -13.8070 C   0  0  0  0  0  0  0  0  0  0  0  0
   46.2050   25.1360  -14.5220 C   0  0  0  0  0  0  0  0  0  0  0  0
   45.0450   24.6390  -13.6570 C   0  0  0  0  0  0  0  0  0  0  0  0
   43.7430   25.3210  -14.0190 C   0  0  0  0  0  0  0  0  0  0  0  0
   43.1750   25.0370  -15.2740 C   0  0  0  0  0  0  0  0  0  0  0  0
   41.9690   25.6190  -15.6680 C   0  0  0  0  0  0  0  0  0  0  0  0
   41.2890   26.4970  -14.8190 C   0  0  0  0  0  0  0  0  0  0  0  0
   40.0290   27.1280  -15.2670 C   0  0  0  0  0  0  0  0  0  0  0  0
   39.6100   26.6710  -16.5110 O   0  0  0  0  0  0  0  0  0  0  0  0
   38.4530   27.1760  -17.0480 C   0  0  0  0  0  0  0  0  0  0  0  0
   38.0780   26.7000  -18.3060 C   0  0  0  0  0  0  0  0  0  0  0  0
   36.9090   27.1710  -18.9090 C   0  0  0  0  0  0  0  0  0  0  0  0
   36.1160   28.1160  -18.2540 C   0  0  0  0  0  0  0  0  0  0  0  0
   36.4930   28.5880  -16.9990 C   0  0  0  0  0  0  0  0  0  0  0  0
   35.6700   29.5110  -16.4150 O   0  0  0  0  0  0  0  0  0  0  0  0
   37.6620   28.1170  -16.3970 C   0  0  0  0  0  0  0  0  0  0  0  0
   38.0940   28.5860  -15.0800 C   0  0  0  0  0  0  0  0  0  0  0  0
   37.4450   29.4110  -14.4380 O   0  0  0  0  0  0  0  0  0  0  0  0
   39.3530   28.0310  -14.5330 C   0  0  0  0  0  0  0  0  0  0  0  0
   39.7450   28.4720  -13.2820 O   0  0  0  0  0  0  0  0  0  0  0  0
   41.8550   26.7840  -13.5700 C   0  0  0  0  0  0  0  0  0  0  0  0
   43.0680   26.1990  -13.1490 C   0  0  0  0  0  0  0  0  0  0  0  0
   43.6000   26.5760  -11.7840 C   0  0  0  0  0  0  0  0  0  0  0  0
   42.4990   26.6090  -10.7350 C   0  0  0  0  0  0  0  0  0  0  0  0
   46.9090   26.0805  -12.7193 H   0  0  0  0  0  0  0  0  0  0  0  0
   48.0662   26.1302  -14.0922 H   0  0  0  0  0  0  0  0  0  0  0  0
   46.6260   27.2037  -14.0922 H   0  0  0  0  0  0  0  0  0  0  0  0
   45.8019   25.5518  -15.4572 H   0  0  0  0  0  0  0  0  0  0  0  0
   46.8721   24.2862  -14.7291 H   0  0  0  0  0  0  0  0  0  0  0  0
   44.9315   23.5545  -13.8021 H   0  0  0  0  0  0  0  0  0  0  0  0
   45.2749   24.8749  -12.6075 H   0  0  0  0  0  0  0  0  0  0  0  0
   43.6898   24.3447  -15.9564 H   0  0  0  0  0  0  0  0  0  0  0  0
   41.5492   25.3842  -16.6573 H   0  0  0  0  0  0  0  0  0  0  0  0
   38.7021   25.9552  -18.8216 H   0  0  0  0  0  0  0  0  0  0  0  0
   36.6129   26.7973  -19.9003 H   0  0  0  0  0  0  0  0  0  0  0  0
   35.1954   28.4868  -18.7284 H   0  0  0  0  0  0  0  0  0  0  0  0
   35.1250   29.2630  -15.6940 H   0  0  0  0  0  0  0  0  0  0  0  0
   40.1890   29.2920  -13.1920 H   0  0  0  0  0  0  0  0  0  0  0  0
   41.3389   27.4856  -12.8982 H   0  0  0  0  0  0  0  0  0  0  0  0
   44.3575   25.8380  -11.4813 H   0  0  0  0  0  0  0  0  0  0  0  0
   44.0342   27.5842  -11.8541 H   0  0  0  0  0  0  0  0  0  0  0  0
   42.9485   26.5955   -9.7311 H   0  0  0  0  0  0  0  0  0  0  0  0
   41.9031   27.5254  -10.8576 H   0  0  0  0  0  0  0  0  0  0  0  0
   41.8492   25.7299  -10.8576 H   0  0  0  0  0  0  0  0  0  0  0  0
  1  2  1  0
  2  3  1  0
  3  4  1  0
  4  5  2  0
  5  6  1  0
  6  7  2  0
  7  8  1  0
  8  9  1  0
  9 10  1  0
 10 11  2  0
 11 12  1  0
 12 13  2  0
 13 14  1  0
 14 15  1  0
 14 16  2  0
 16 17  1  0
 17 18  2  0
 17 19  1  0
 19 20  1  0
  7 21  1  0
 21 22  2  0
 22 23  1  0
 23 24  1  0
 22  4  1  0
 19  8  2  0
 16 10  1  0
  1 25  1  0
  1 26  1  0
  1 27  1  0
  2 28  1  0
  2 29  1  0
  3 30  1  0
  3 31  1  0
  5 32  1  0
  6 33  1  0
 11 34  1  0
 12 35  1  0
 13 36  1  0
 15 37  1  0
 20 38  1  0
 21 39  1  0
 23 40  1  0
 23 41  1  0
 24 42  1  0
 24 43  1  0
 24 44  1  0
M  END
>  <meeko>  (3) 
{"is_sidechain": [false], "free_energy": -5.849, "intermolecular_energy": -7.418, "internal_energy": -0.212}

$$$$
cand_053_out
     RDKit          3D

 44 46  0  0  0  0  0  0  0  0999 V2000
   34.5690   29.5650  -18.9640 C   0  0  0  0  0  0  0  0  0  0  0  0
   35.7100   29.3490  -17.9820 C   0  0  0  0  0  0  0  0  0  0  0  0
   36.4320   28.0270  -18.2480 C   0  0  0  0  0  0  0  0  0  0  0  0
   37.5230   27.7690  -17.2310 C   0  0  0  0  0  0  0  0  0  0  0  0
   38.5840   26.9240  -17.6010 C   0  0  0  0  0  0  0  0  0  0  0  0
   39.6320   26.6530  -16.7180 C   0  0  0  0  0  0  0  0  0  0  0  0
   39.6560   27.2250  -15.4430 C   0  0  0  0  0  0  0  0  0  0  0  0
   40.7580   26.9010  -14.5110 C   0  0  0  0  0  0  0  0  0  0  0  0
   41.8450   26.3100  -15.1450 O   0  0  0  0  0  0  0  0  0  0  0  0
   42.9390   25.9570  -14.3970 C   0  0  0  0  0  0  0  0  0  0  0  0
   44.0000   25.3530  -15.0730 C   0  0  0  0  0  0  0  0  0  0  0  0
   45.1450   24.9700  -14.3700 C   0  0  0  0  0  0  0  0  0  0  0  0
   45.2290   25.1930  -12.9940 C   0  0  0  0  0  0  0  0  0  0  0  0
   44.1680   25.7950  -12.3230 C   0  0  0  0  0  0  0  0  0  0  0  0
   44.3160   25.9840  -10.9760 O   0  0  0  0  0  0  0  0  0  0  0  0
   43.0220   26.1770  -13.0260 C   0  0  0  0  0  0  0  0  0  0  0  0
   41.8850   26.8140  -12.3600 C   0  0  0  0  0  0  0  0  0  0  0  0
   41.8870   27.0500  -11.1530 O   0  0  0  0  0  0  0  0  0  0  0  0
   40.7150   27.1730  -13.1940 C   0  0  0  0  0  0  0  0  0  0  0  0
   39.6520   27.7860  -12.5560 O   0  0  0  0  0  0  0  0  0  0  0  0
   38.5980   28.0650  -15.0720 C   0  0  0  0  0  0  0  0  0  0  0  0
   37.5340   28.3580  -15.9520 C   0  0  0  0  0  0  0  0  0  0  0  0
   36.4370   29.2720  -15.4560 C   0  0  0  0  0  0  0  0  0  0  0  0
   36.7270   29.8030  -14.0600 C   0  0  0  0  0  0  0  0  0  0  0  0
   33.6359   29.7416  -18.4089 H   0  0  0  0  0  0  0  0  0  0  0  0
   34.7899   30.4373  -19.5967 H   0  0  0  0  0  0  0  0  0  0  0  0
   34.4558   28.6723  -19.5967 H   0  0  0  0  0  0  0  0  0  0  0  0
   36.4289   30.1757  -18.0810 H   0  0  0  0  0  0  0  0  0  0  0  0
   35.2907   29.3162  -16.9656 H   0  0  0  0  0  0  0  0  0  0  0  0
   35.7010   27.2063  -18.2022 H   0  0  0  0  0  0  0  0  0  0  0  0
   36.8981   28.0855  -19.2427 H   0  0  0  0  0  0  0  0  0  0  0  0
   38.5890   26.4687  -18.6024 H   0  0  0  0  0  0  0  0  0  0  0  0
   40.4466   25.9826  -17.0293 H   0  0  0  0  0  0  0  0  0  0  0  0
   43.9349   25.1788  -16.1572 H   0  0  0  0  0  0  0  0  0  0  0  0
   45.9814   24.4922  -14.9011 H   0  0  0  0  0  0  0  0  0  0  0  0
   46.1317   24.8936  -12.4413 H   0  0  0  0  0  0  0  0  0  0  0  0
   44.9450   25.4790  -10.4990 H   0  0  0  0  0  0  0  0  0  0  0  0
   39.4850   27.6110  -11.6510 H   0  0  0  0  0  0  0  0  0  0  0  0
   38.5964   28.5091  -14.0656 H   0  0  0  0  0  0  0  0  0  0  0  0
   36.3433   30.1225  -16.1473 H   0  0  0  0  0  0  0  0  0  0  0  0
   35.5039   28.6911  -15.4121 H   0  0  0  0  0  0  0  0  0  0  0  0
   36.3408   29.0958  -13.3112 H   0  0  0  0  0  0  0  0  0  0  0  0
   37.8132   29.9180  -13.9298 H   0  0  0  0  0  0  0  0  0  0  0  0
   36.2367   30.7790  -13.9298 H   0  0  0  0  0  0  0  0  0  0  0  0
  1  2  1  0
  2  3  1  0
  3  4  1  0
  4  5  2  0
  5  6  1  0
  6  7  2  0
  7  8  1  0
  8  9  1  0
  9 10  1  0
 10 11  2  0
 11 12  1  0
 12 13  2  0
 13 14  1  0
 14 15  1  0
 14 16  2  0
 16 17  1  0
 17 18  2  0
 17 19  1  0
 19 20  1  0
  7 21  1  0
 21 22  2  0
 22 23  1  0
 23 24  1  0
 22  4  1  0
 19  8  2  0
 16 10  1  0
  1 25  1  0
  1 26  1  0
  1 27  1  0
  2 28  1  0
  2 29  1  0
  3 30  1  0
  3 31  1  0
  5 32  1  0
  6 33  1  0
 11 34  1  0
 12 35  1  0
 13 36  1  0
 15 37  1  0
 20 38  1  0
 21 39  1  0
 23 40  1  0
 23 41  1  0
 24 42  1  0
 24 43  1  0
 24 44  1  0
M  END
>  <meeko>  (4) 
{"is_sidechain": [false], "free_energy": -5.378, "intermolecular_energy": -7.964, "internal_energy": 0.944}

$$$$
cand_053_out
     RDKit          3D

 44 46  0  0  0  0  0  0  0  0999 V2000
   34.5130   29.6020  -19.0180 C   0  0  0  0  0  0  0  0  0  0  0  0
   35.8320   29.6730  -18.2640 C   0  0  0  0  0  0  0  0  0  0  0  0
   35.6250   29.4740  -16.7610 C   0  0  0  0  0  0  0  0  0  0  0  0
   36.8550   28.8900  -16.0990 C   0  0  0  0  0  0  0  0  0  0  0  0
   37.2750   29.4470  -14.8780 C   0  0  0  0  0  0  0  0  0  0  0  0
   38.3930   28.9490  -14.2040 C   0  0  0  0  0  0  0  0  0  0  0  0
   39.1190   27.8750  -14.7260 C   0  0  0  0  0  0  0  0  0  0  0  0
   40.3180   27.3820  -14.0140 C   0  0  0  0  0  0  0  0  0  0  0  0
   41.2470   26.7930  -14.8650 O   0  0  0  0  0  0  0  0  0  0  0  0
   42.4080   26.2910  -14.3350 C   0  0  0  0  0  0  0  0  0  0  0  0
   43.3040   25.6960  -15.2240 C   0  0  0  0  0  0  0  0  0  0  0  0
   44.5070   25.1670  -14.7500 C   0  0  0  0  0  0  0  0  0  0  0  0
   44.8130   25.2340  -13.3880 C   0  0  0  0  0  0  0  0  0  0  0  0
   43.9170   25.8290  -12.5050 C   0  0  0  0  0  0  0  0  0  0  0  0
   44.2790   25.8610  -11.1860 O   0  0  0  0  0  0  0  0  0  0  0  0
   42.7130   26.3580  -12.9790 C   0  0  0  0  0  0  0  0  0  0  0  0
   41.7440   26.9910  -12.0850 C   0  0  0  0  0  0  0  0  0  0  0  0
   41.9450   27.0960  -10.8760 O   0  0  0  0  0  0  0  0  0  0  0  0
   40.4950   27.5120  -12.6870 C   0  0  0  0  0  0  0  0  0  0  0  0
   39.5920   28.1210  -11.8330 O   0  0  0  0  0  0  0  0  0  0  0  0
   38.7040   27.3210  -15.9440 C   0  0  0  0  0  0  0  0  0  0  0  0
   37.5730   27.8040  -16.6360 C   0  0  0  0  0  0  0  0  0  0  0  0
   37.2090   27.1420  -17.9450 C   0  0  0  0  0  0  0  0  0  0  0  0
   38.4340   26.6130  -18.6760 C   0  0  0  0  0  0  0  0  0  0  0  0
   33.6816   29.5572  -18.2991 H   0  0  0  0  0  0  0  0  0  0  0  0
   34.4034   30.4955  -19.6501 H   0  0  0  0  0  0  0  0  0  0  0  0
   34.5000   28.7019  -19.6501 H   0  0  0  0  0  0  0  0  0  0  0  0
   36.5027   28.8866  -18.6405 H   0  0  0  0  0  0  0  0  0  0  0  0
   36.2707   30.6688  -18.4251 H   0  0  0  0  0  0  0  0  0  0  0  0
   35.4002   30.4472  -16.3001 H   0  0  0  0  0  0  0  0  0  0  0  0
   34.7923   28.7693  -16.6198 H   0  0  0  0  0  0  0  0  0  0  0  0
   36.7139   30.2889  -14.4463 H   0  0  0  0  0  0  0  0  0  0  0  0
   38.7047   29.4066  -13.2535 H   0  0  0  0  0  0  0  0  0  0  0  0
   43.0635   25.6436  -16.2961 H   0  0  0  0  0  0  0  0  0  0  0  0
   45.2141   24.6973  -15.4495 H   0  0  0  0  0  0  0  0  0  0  0  0
   45.7601   24.8173  -13.0147 H   0  0  0  0  0  0  0  0  0  0  0  0
   44.4470   26.6820  -10.7660 H   0  0  0  0  0  0  0  0  0  0  0  0
   39.9000   28.5940  -11.0860 H   0  0  0  0  0  0  0  0  0  0  0  0
   39.2763   26.4854  -16.3733 H   0  0  0  0  0  0  0  0  0  0  0  0
   36.5272   26.3032  -17.7413 H   0  0  0  0  0  0  0  0  0  0  0  0
   36.7304   27.8969  -18.5861 H   0  0  0  0  0  0  0  0  0  0  0  0
   39.1867   26.2880  -17.9426 H   0  0  0  0  0  0  0  0  0  0  0  0
   38.1444   25.7597  -19.3069 H   0  0  0  0  0  0  0  0  0  0  0  0
   38.8566   27.4088  -19.3069 H   0  0  0  0  0  0  0  0  0  0  0  0
  1  2  1  0
  2  3  1  0
  3  4  1  0
  4  5  2  0
  5  6  1  0
  6  7  2  0
  7  8  1  0
  8  9  1  0
  9 10  1  0
 10 11  2  0
 11 12  1  0
 12 13  2  0
 13 14  1  0
 14 15  1  0
 14 16  2  0
 16 17  1  0
 17 18  2  0
 17 19  1  0
 19 20  1  0
  7 21  1  0
 21 22  2  0
 22 23  1  0
 23 24  1  0
 22  4  1  0
 19  8  2  0
 16 10  1  0
  1 25  1  0
  1 26  1  0
  1 27  1  0
  2 28  1  0
  2 29  1  0
  3 30  1  0
  3 31  1  0
  5 32  1  0
  6 33  1  0
 11 34  1  0
 12 35  1  0
 13 36  1  0
 15 37  1  0
 20 38  1  0
 21 39  1  0
 23 40  1  0
 23 41  1  0
 24 42  1  0
 24 43  1  0
 24 44  1  0
M  END
>  <meeko>  (5) 
{"is_sidechain": [false], "free_energy": -5.172, "intermolecular_energy": -7.172, "internal_energy": 0.417}

$$$$
