cand_033_out
     RDKit          3D

 44 46  0  0  0  0  0  0  0  0999 V2000
   40.6800   27.2890  -11.5210 C   0  0  0  0  0  0  0  0  0  0  0  0
   41.8040   26.5480  -10.8150 C   0  0  0  0  0  0  0  0  0  0  0  0
   43.1210   26.6650  -11.5850 C   0  0  0  0  0  0  0  0  0  0  0  0
   42.9660   26.2320  -13.0270 C   0  0  0  0  0  0  0  0  0  0  0  0
   41.8110   26.6480  -13.7200 C   0  0  0  0  0  0  0  0  0  0  0  0
   41.5710   26.2790  -15.0500 C   0  0  0  0  0  0  0  0  0  0  0  0
   40.3720   26.7370  -15.7830 C   0  0  0  0  0  0  0  0  0  0  0  0
   39.5600   27.5710  -15.0210 O   0  0  0  0  0  0  0  0  0  0  0  0
   38.4100   28.0690  -15.5790 C   0  0  0  0  0  0  0  0  0  0  0  0
   37.6190   28.8880  -14.7740 C   0  0  0  0  0  0  0  0  0  0  0  0
   36.4350   29.4290  -15.2820 C   0  0  0  0  0  0  0  0  0  0  0  0
   36.0450   29.1520  -16.5940 C   0  0  0  0  0  0  0  0  0  0  0  0
   36.8380   28.3340  -17.3950 C   0  0  0  0  0  0  0  0  0  0  0  0
   36.3970   28.1040  -18.6690 O   0  0  0  0  0  0  0  0  0  0  0  0
   38.0210   27.7920  -16.8860 C   0  0  0  0  0  0  0  0  0  0  0  0
   38.8830   26.9280  -17.6940 C   0  0  0  0  0  0  0  0  0  0  0  0
   38.6100   26.6430  -18.8590 O   0  0  0  0  0  0  0  0  0  0  0  0
   40.1110   26.3980  -17.0580 C   0  0  0  0  0  0  0  0  0  0  0  0
   40.9240   25.5930  -17.8350 O   0  0  0  0  0  0  0  0  0  0  0  0
   42.5230   25.4870  -15.6990 C   0  0  0  0  0  0  0  0  0  0  0  0
   43.6720   25.0600  -15.0270 C   0  0  0  0  0  0  0  0  0  0  0  0
   43.9040   25.4150  -13.6880 C   0  0  0  0  0  0  0  0  0  0  0  0
   45.1750   24.9220  -13.0330 C   0  0  0  0  0  0  0  0  0  0  0  0
   46.3810   25.0690  -13.9480 C   0  0  0  0  0  0  0  0  0  0  0  0
   40.0068   27.7328  -10.7728 H   0  0  0  0  0  0  0  0  0  0  0  0
   41.1043   28.0850  -12.1505 H   0  0  0  0  0  0  0  0  0  0  0  0
   40.1156   26.5853  -12.1505 H   0  0  0  0  0  0  0  0  0  0  0  0
   41.9380   26.9748   -9.8101 H   0  0  0  0  0  0  0  0  0  0  0  0
   41.5322   25.4838  -10.7545 H   0  0  0  0  0  0  0  0  0  0  0  0
   43.4561   27.7124  -11.5612 H   0  0  0  0  0  0  0  0  0  0  0  0
   43.8586   26.0045  -11.1057 H   0  0  0  0  0  0  0  0  0  0  0  0
   41.0763   27.2812  -13.2010 H   0  0  0  0  0  0  0  0  0  0  0  0
   37.9265   29.1078  -13.7410 H   0  0  0  0  0  0  0  0  0  0  0  0
   35.8093   30.0740  -14.6476 H   0  0  0  0  0  0  0  0  0  0  0  0
   35.1135   29.5790  -16.9939 H   0  0  0  0  0  0  0  0  0  0  0  0
   36.7750   27.4140  -19.1790 H   0  0  0  0  0  0  0  0  0  0  0  0
   41.8110   25.8440  -18.0010 H   0  0  0  0  0  0  0  0  0  0  0  0
   42.3663   25.1971  -16.7485 H   0  0  0  0  0  0  0  0  0  0  0  0
   44.4069   24.4354  -15.5559 H   0  0  0  0  0  0  0  0  0  0  0  0
   45.3513   25.5043  -12.1166 H   0  0  0  0  0  0  0  0  0  0  0  0
   45.0483   23.8530  -12.8067 H   0  0  0  0  0  0  0  0  0  0  0  0
   47.2911   25.1799  -13.3402 H   0  0  0  0  0  0  0  0  0  0  0  0
   46.4707   24.1751  -14.5828 H   0  0  0  0  0  0  0  0  0  0  0  0
   46.2534   25.9582  -14.5828 H   0  0  0  0  0  0  0  0  0  0  0  0
  1  2  1  0
  2  3  1  0
  3  4  1  0
  4  5  2  0
  5  6  1  0
  6  7  1  0
  7  8  1  0
  8  9  1  0
  9 10  2  0
 10 11  1  0
 11 12  2  0
 12 13  1  0
 13 14  1  0
 13 15  2  0
 15 16  1  0
 16 17  2  0
 16 18  1  0
 18 19  1  0
  6 20  2  0
 20 21  1  0
 21 22  2  0
 22 23  1  0
 23 24  1  0
 22  4  1  0
 18  7  2  0
 15  9  1  0
  1 25  1  0
  1 26  1  0
  1 27  1  0
  2 28  1  0
  2 29  1  0
  3 30  1  0
  3 31  1  0
  5 32  1  0
 10 33  1  0
 11 34  1  0
 12 35  1  0
 14 36  1  0
 19 37  1  0
 20 38  1  0
 21 39  1  0
 23 40  1  0
 23 41  1  0
 24 42  1  0
 24 43  1  0
 24 44  1  0
M  END
>  <meeko>  (1) 
{"is_sidechain": [false], "free_energy": -7.385, "intermolecular_energy": -9.543, "internal_energy": 1.088}

$$$$
cand_033_out
     RDKit          3D

 44 46  0  0  0  0  0  0  0  0999 V2000
   47.7370   27.7210  -11.9100 C   0  0  0  0  0  0  0  0  0  0  0  0
   46.6550   27.3400  -12.9070 C   0  0  0  0  0  0  0  0  0  0  0  0
   45.3320   27.0280  -12.2050 C   0  0  0  0  0  0  0  0  0  0  0  0
   44.3620   26.3210  -13.1260 C   0  0  0  0  0  0  0  0  0  0  0  0
   43.1230   26.9440  -13.3820 C   0  0  0  0  0  0  0  0  0  0  0  0
   42.1530   26.3550  -14.2040 C   0  0  0  0  0  0  0  0  0  0  0  0
   40.8650   27.0210  -14.4920 C   0  0  0  0  0  0  0  0  0  0  0  0
   40.3900   26.7480  -15.7690 O   0  0  0  0  0  0  0  0  0  0  0  0
   39.2020   27.3040  -16.1690 C   0  0  0  0  0  0  0  0  0  0  0  0
   38.7700   27.0150  -17.4640 C   0  0  0  0  0  0  0  0  0  0  0  0
   37.5670   27.5490  -17.9330 C   0  0  0  0  0  0  0  0  0  0  0  0
   36.7970   28.3710  -17.1070 C   0  0  0  0  0  0  0  0  0  0  0  0
   37.2310   28.6570  -15.8150 C   0  0  0  0  0  0  0  0  0  0  0  0
   36.4280   29.4680  -15.0600 O   0  0  0  0  0  0  0  0  0  0  0  0
   38.4340   28.1230  -15.3470 C   0  0  0  0  0  0  0  0  0  0  0  0
   38.9260   28.3990  -13.9960 C   0  0  0  0  0  0  0  0  0  0  0  0
   38.3010   29.1080  -13.2080 O   0  0  0  0  0  0  0  0  0  0  0  0
   40.2170   27.7920  -13.6000 C   0  0  0  0  0  0  0  0  0  0  0  0
   40.6650   28.0490  -12.3170 O   0  0  0  0  0  0  0  0  0  0  0  0
   42.4450   25.1210  -14.7920 C   0  0  0  0  0  0  0  0  0  0  0  0
   43.6650   24.4850  -14.5460 C   0  0  0  0  0  0  0  0  0  0  0  0
   44.6310   25.0670  -13.7070 C   0  0  0  0  0  0  0  0  0  0  0  0
   45.9300   24.3210  -13.4970 C   0  0  0  0  0  0  0  0  0  0  0  0
   46.9850   24.7190  -14.5180 C   0  0  0  0  0  0  0  0  0  0  0  0
   47.3563   27.5870  -10.8867 H   0  0  0  0  0  0  0  0  0  0  0  0
   48.6172   27.0787  -12.0608 H   0  0  0  0  0  0  0  0  0  0  0  0
   48.0206   28.7731  -12.0608 H   0  0  0  0  0  0  0  0  0  0  0  0
   46.5011   28.1763  -13.6048 H   0  0  0  0  0  0  0  0  0  0  0  0
   46.9823   26.4377  -13.4443 H   0  0  0  0  0  0  0  0  0  0  0  0
   45.5328   26.3836  -11.3364 H   0  0  0  0  0  0  0  0  0  0  0  0
   44.8768   27.9797  -11.8934 H   0  0  0  0  0  0  0  0  0  0  0  0
   42.9118   27.9211  -12.9229 H   0  0  0  0  0  0  0  0  0  0  0  0
   39.3759   26.3675  -18.1149 H   0  0  0  0  0  0  0  0  0  0  0  0
   37.2260   27.3218  -18.9538 H   0  0  0  0  0  0  0  0  0  0  0  0
   35.8500   28.7915  -17.4762 H   0  0  0  0  0  0  0  0  0  0  0  0
   35.8130   29.0920  -14.4610 H   0  0  0  0  0  0  0  0  0  0  0  0
   41.5030   28.4480  -12.1850 H   0  0  0  0  0  0  0  0  0  0  0  0
   41.7072   24.6456  -15.4550 H   0  0  0  0  0  0  0  0  0  0  0  0
   43.8727   23.5128  -15.0168 H   0  0  0  0  0  0  0  0  0  0  0  0
   46.3091   24.5441  -12.4888 H   0  0  0  0  0  0  0  0  0  0  0  0
   45.7287   23.2462  -13.6166 H   0  0  0  0  0  0  0  0  0  0  0  0
   47.8906   25.0606  -13.9953 H   0  0  0  0  0  0  0  0  0  0  0  0
   47.2307   23.8518  -15.1485 H   0  0  0  0  0  0  0  0  0  0  0  0
   46.5966   25.5324  -15.1485 H   0  0  0  0  0  0  0  0  0  0  0  0
  1  2  1  0
  2  3  1  0
  3  4  1  0
  4  5  2  0
  5  6  1  0
  6  7  1  0
  7  8  1  0
  8  9  1  0
  9 10  2  0
 10 11  1  0
 11 12  2  0
 12 13  1  0
 13 14  1  0
 13 15  2  0
 15 16  1  0
 16 17  2  0
 16 18  1  0
 18 19  1  0
  6 20  2  0
 20 21  1  0
 21 22  2  0
 22 23  1  0
 23 24  1  0
 22  4  1  0
 18  7  2  0
 15  9  1  0
  1 25  1  0
  1 26  1  0
  1 27  1  0
  2 28  1  0
  2 29  1  0
  3 30  1  0
  3 31  1  0
  5 32  1  0
 10 33  1  0
 11 34  1  0
 12 35  1  0
 14 36  1  0
 19 37  1  0
 20 38  1  0
 21 39  1  0
 23 40  1  0
 23 41  1  0
 24 42  1  0
 24 43  1  0
 24 44  1  0
M  END
>  <meeko>  (2) 
{"is_sidechain": [false], "free_energy": -6.629, "intermolecular_energy": -7.831, "internal_energy": 0.353}

$$$$
cand_033_out
     RDKit          3D

 44 46  0  0  0  0  0  0  0  0999 V2000
   47.1720   27.6430  -11.9540 C   0  0  0  0  0  0  0  0  0  0  0  0
   46.0910   27.6910  -13.0220 C   0  0  0  0  0  0  0  0  0  0  0  0
   44.7250   27.3050  -12.4510 C   0  0  0  0  0  0  0  0  0  0  0  0
   43.9640   26.3940  -13.3890 C   0  0  0  0  0  0  0  0  0  0  0  0
   42.7790   26.8890  -13.9720 C   0  0  0  0  0  0  0  0  0  0  0  0
   41.9960   26.1110  -14.8360 C   0  0  0  0  0  0  0  0  0  0  0  0
   40.7680   26.6410  -15.4660 C   0  0  0  0  0  0  0  0  0  0  0  0
   40.0340   27.4580  -14.6130 O   0  0  0  0  0  0  0  0  0  0  0  0
   38.8680   28.0170  -15.0710 C   0  0  0  0  0  0  0  0  0  0  0  0
   38.1560   28.8180  -14.1770 C   0  0  0  0  0  0  0  0  0  0  0  0
   36.9610   29.4190  -14.5800 C   0  0  0  0  0  0  0  0  0  0  0  0
   36.4790   29.2190  -15.8760 C   0  0  0  0  0  0  0  0  0  0  0  0
   37.1930   28.4200  -16.7650 C   0  0  0  0  0  0  0  0  0  0  0  0
   36.6650   28.2670  -18.0180 O   0  0  0  0  0  0  0  0  0  0  0  0
   38.3880   27.8190  -16.3620 C   0  0  0  0  0  0  0  0  0  0  0  0
   39.1680   26.9710  -17.2650 C   0  0  0  0  0  0  0  0  0  0  0  0
   38.8130   26.7540  -18.4220 O   0  0  0  0  0  0  0  0  0  0  0  0
   40.4160   26.3740  -16.7370 C   0  0  0  0  0  0  0  0  0  0  0  0
   41.1510   25.5860  -17.6030 O   0  0  0  0  0  0  0  0  0  0  0  0
   42.4250   24.8130  -15.1290 C   0  0  0  0  0  0  0  0  0  0  0  0
   43.5930   24.3030  -14.5570 C   0  0  0  0  0  0  0  0  0  0  0  0
   44.3690   25.0760  -13.6770 C   0  0  0  0  0  0  0  0  0  0  0  0
   45.6240   24.4560  -13.1050 C   0  0  0  0  0  0  0  0  0  0  0  0
   46.8070   24.5900  -14.0530 C   0  0  0  0  0  0  0  0  0  0  0  0
   46.7049   27.6637  -10.9583 H   0  0  0  0  0  0  0  0  0  0  0  0
   47.7568   26.7180  -12.0655 H   0  0  0  0  0  0  0  0  0  0  0  0
   47.8365   28.5125  -12.0655 H   0  0  0  0  0  0  0  0  0  0  0  0
   46.0338   28.7118  -13.4278 H   0  0  0  0  0  0  0  0  0  0  0  0
   46.3522   26.9712  -13.8117 H   0  0  0  0  0  0  0  0  0  0  0  0
   44.8729   26.7864  -11.4923 H   0  0  0  0  0  0  0  0  0  0  0  0
   44.1377   28.2251  -12.3148 H   0  0  0  0  0  0  0  0  0  0  0  0
   42.4597   27.9162  -13.7418 H   0  0  0  0  0  0  0  0  0  0  0  0
   38.5352   28.9759  -13.1566 H   0  0  0  0  0  0  0  0  0  0  0  0
   36.3989   30.0504  -13.8761 H   0  0  0  0  0  0  0  0  0  0  0  0
   35.5377   29.6916  -16.1932 H   0  0  0  0  0  0  0  0  0  0  0  0
   36.1290   28.9430  -18.3870 H   0  0  0  0  0  0  0  0  0  0  0  0
   42.0400   25.3680  -17.3990 H   0  0  0  0  0  0  0  0  0  0  0  0
   41.8371   24.1873  -15.8166 H   0  0  0  0  0  0  0  0  0  0  0  0
   43.9107   23.2783  -14.7998 H   0  0  0  0  0  0  0  0  0  0  0  0
   45.8689   24.9586  -12.1577 H   0  0  0  0  0  0  0  0  0  0  0  0
   45.4332   23.3841  -12.9479 H   0  0  0  0  0  0  0  0  0  0  0  0
   47.7339   24.6950  -13.4701 H   0  0  0  0  0  0  0  0  0  0  0  0
   46.8722   23.6935  -14.6871 H   0  0  0  0  0  0  0  0  0  0  0  0
   46.6700   25.4784  -14.6871 H   0  0  0  0  0  0  0  0  0  0  0  0
  1  2  1  0
  2  3  1  0
  3  4  1  0
  4  5  2  0
  5  6  1  0
  6  7  1  0
  7  8  1  0
  8  9  1  0
  9 10  2  0
 10 11  1  0
 11 12  2  0
 12 13  1  0
 13 14  1  0
 13 15  2  0
 15 16  1  0
 16 17  2  0
 16 18  1  0
 18 19  1  0
  6 20  2  0
 20 21  1  0
 21 22  2  0
 22 23  1  0
 23 24  1  0
 22  4  1  0
 18  7  2  0
 15  9  1  0
  1 25  1  0
  1 26  1  0
  1 27  1  0
  2 28  1  0
  2 29  1  0
  3 30  1  0
  3 31  1  0
  5 32  1  0
 10 33  1  0
 11 34  1  0
 12 35  1  0
 14 36  1  0
 19 37  1  0
 20 38  1  0
 21 39  1  0
 23 40  1  0
 23 41  1  0
 24 42  1  0
 24 43  1  0
 24 44  1  0
M  END
>  <meeko>  (3) 
{"is_sidechain": [false], "free_energy": -6.418, "intermolecular_energy": -7.157, "internal_energy": -0.048}

$$$$
cand_033_out
     RDKit          3D

 44 46  0  0  0  0  0  0  0  0999 V2000
   44.8030   28.3560  -13.4470 C   0  0  0  0  0  0  0  0  0  0  0  0
   45.0740   27.6400  -12.1340 C   0  0  0  0  0  0  0  0  0  0  0  0
   44.0290   26.5550  -11.8630 C   0  0  0  0  0  0  0  0  0  0  0  0
   43.3590   26.0930  -13.1380 C   0  0  0  0  0  0  0  0  0  0  0  0
   42.1570   26.7260  -13.5170 C   0  0  0  0  0  0  0  0  0  0  0  0
   41.4530   26.3500  -14.6700 C   0  0  0  0  0  0  0  0  0  0  0  0
   40.2070   27.0320  -15.0800 C   0  0  0  0  0  0  0  0  0  0  0  0
   39.7550   26.6240  -16.3300 O   0  0  0  0  0  0  0  0  0  0  0  0
   38.6070   27.1790  -16.8340 C   0  0  0  0  0  0  0  0  0  0  0  0
   38.1980   26.7510  -18.0970 C   0  0  0  0  0  0  0  0  0  0  0  0
   37.0360   27.2760  -18.6680 C   0  0  0  0  0  0  0  0  0  0  0  0
   36.2820   28.2250  -17.9750 C   0  0  0  0  0  0  0  0  0  0  0  0
   36.6930   28.6500  -16.7140 C   0  0  0  0  0  0  0  0  0  0  0  0
   35.9090   29.5810  -16.0900 O   0  0  0  0  0  0  0  0  0  0  0  0
   37.8560   28.1250  -16.1430 C   0  0  0  0  0  0  0  0  0  0  0  0
   38.3230   28.5440  -14.8200 C   0  0  0  0  0  0  0  0  0  0  0  0
   37.7110   29.3710  -14.1470 O   0  0  0  0  0  0  0  0  0  0  0  0
   39.5720   27.9340  -14.3100 C   0  0  0  0  0  0  0  0  0  0  0  0
   39.9960   28.3280  -13.0540 O   0  0  0  0  0  0  0  0  0  0  0  0
   41.9810   25.3270  -15.4630 C   0  0  0  0  0  0  0  0  0  0  0  0
   43.1680   24.6850  -15.1010 C   0  0  0  0  0  0  0  0  0  0  0  0
   43.8640   25.0480  -13.9360 C   0  0  0  0  0  0  0  0  0  0  0  0
   45.1460   24.3120  -13.6160 C   0  0  0  0  0  0  0  0  0  0  0  0
   46.3650   25.0150  -14.1940 C   0  0  0  0  0  0  0  0  0  0  0  0
   44.4205   29.3666  -13.2414 H   0  0  0  0  0  0  0  0  0  0  0  0
   45.7362   28.4277  -14.0249 H   0  0  0  0  0  0  0  0  0  0  0  0
   44.0562   27.7918  -14.0249 H   0  0  0  0  0  0  0  0  0  0  0  0
   46.0696   27.1745  -12.1791 H   0  0  0  0  0  0  0  0  0  0  0  0
   45.0247   28.3787  -11.3205 H   0  0  0  0  0  0  0  0  0  0  0  0
   44.5232   25.6947  -11.3880 H   0  0  0  0  0  0  0  0  0  0  0  0
   43.2570   26.9792  -11.2041 H   0  0  0  0  0  0  0  0  0  0  0  0
   41.7603   27.5381  -12.8900 H   0  0  0  0  0  0  0  0  0  0  0  0
   38.7895   26.0011  -18.6427 H   0  0  0  0  0  0  0  0  0  0  0  0
   36.7146   26.9411  -19.6653 H   0  0  0  0  0  0  0  0  0  0  0  0
   35.3657   28.6360  -18.4238 H   0  0  0  0  0  0  0  0  0  0  0  0
   36.0460   29.7790  -15.1840 H   0  0  0  0  0  0  0  0  0  0  0  0
   40.9120   28.3580  -12.8570 H   0  0  0  0  0  0  0  0  0  0  0  0
   41.4566   25.0244  -16.3814 H   0  0  0  0  0  0  0  0  0  0  0  0
   43.5643   23.8815  -15.7392 H   0  0  0  0  0  0  0  0  0  0  0  0
   45.2566   24.2496  -12.5234 H   0  0  0  0  0  0  0  0  0  0  0  0
   45.0851   23.3106  -14.0671 H   0  0  0  0  0  0  0  0  0  0  0  0
   47.0002   25.3813  -13.3740 H   0  0  0  0  0  0  0  0  0  0  0  0
   46.9368   24.3080  -14.8130 H   0  0  0  0  0  0  0  0  0  0  0  0
   46.0395   25.8641  -14.8130 H   0  0  0  0  0  0  0  0  0  0  0  0
  1  2  1  0
  2  3  1  0
  3  4  1  0
  4  5  2  0
  5  6  1  0
  6  7  1  0
  7  8  1  0
  8  9  1  0
  9 10  2  0
 10 11  1  0
 11 12  2  0
 12 13  1  0
 13 14  1  0
 13 15  2  0
 15 16  1  0
 16 17  2  0
 16 18  1  0
 18 19  1  0
  6 20  2  0
 20 21  1  0
 21 22  2  0
 22 23  1  0
 23 24  1  0
 22  4  1  0
 18  7  2  0
 15  9  1  0
  1 25  1  0
  1 26  1  0
  1 27  1  0
  2 28  1  0
  2 29  1  0
  3 30  1  0
  3 31  1  0
  5 32  1  0
 10 33  1  0
 11 34  1  0
 12 35  1  0
 14 36  1  0
 19 37  1  0
 20 38  1  0
 21 39  1  0
 23 40  1  0
 23 41  1  0
 24 42  1  0
 24 43  1  0
 24 44  1  0
M  END
>  <meeko>  (4) 
{"is_sidechain": [false], "free_energy": -5.941, "intermolecular_energy": -6.696, "internal_energy": 0.107}

$$$$
cand_033_out
     RDKit          3D

 44 46  0  0  0  0  0  0  0  0999 V2000
   34.9200   29.8220  -18.2360 C   0  0  0  0  0  0  0  0  0  0  0  0
   36.2730   30.0070  -17.5690 C   0  0  0  0  0  0  0  0  0  0  0  0
   36.4320   29.0790  -16.3630 C   0  0  0  0  0  0  0  0  0  0  0  0
   37.4900   28.0240  -16.6040 C   0  0  0  0  0  0  0  0  0  0  0  0
   38.5060   27.8760  -15.6370 C   0  0  0  0  0  0  0  0  0  0  0  0
   39.5390   26.9410  -15.7860 C   0  0  0  0  0  0  0  0  0  0  0  0
   40.5890   26.7690  -14.7590 C   0  0  0  0  0  0  0  0  0  0  0  0
   41.7530   26.2050  -15.2670 O   0  0  0  0  0  0  0  0  0  0  0  0
   42.8110   25.9880  -14.4200 C   0  0  0  0  0  0  0  0  0  0  0  0
   43.9530   25.4060  -14.9700 C   0  0  0  0  0  0  0  0  0  0  0  0
   45.0660   25.1590  -14.1620 C   0  0  0  0  0  0  0  0  0  0  0  0
   45.0370   25.4970  -12.8070 C   0  0  0  0  0  0  0  0  0  0  0  0
   43.8940   26.0780  -12.2620 C   0  0  0  0  0  0  0  0  0  0  0  0
   43.9330   26.3840  -10.9300 O   0  0  0  0  0  0  0  0  0  0  0  0
   42.7810   26.3240  -13.0700 C   0  0  0  0  0  0  0  0  0  0  0  0
   41.5610   26.9330  -12.5380 C   0  0  0  0  0  0  0  0  0  0  0  0
   41.4610   27.2630  -11.3570 O   0  0  0  0  0  0  0  0  0  0  0  0
   40.4350   27.1430  -13.4750 C   0  0  0  0  0  0  0  0  0  0  0  0
   39.2920   27.7310  -12.9640 O   0  0  0  0  0  0  0  0  0  0  0  0
   39.5390   26.1290  -16.9240 C   0  0  0  0  0  0  0  0  0  0  0  0
   38.5440   26.2640  -17.8950 C   0  0  0  0  0  0  0  0  0  0  0  0
   37.5170   27.2140  -17.7560 C   0  0  0  0  0  0  0  0  0  0  0  0
   36.4730   27.2940  -18.8470 C   0  0  0  0  0  0  0  0  0  0  0  0
   36.8690   26.4880  -20.0750 C   0  0  0  0  0  0  0  0  0  0  0  0
   34.1426   29.7157  -17.4650 H   0  0  0  0  0  0  0  0  0  0  0  0
   34.6974   30.6981  -18.8629 H   0  0  0  0  0  0  0  0  0  0  0  0
   34.9407   28.9183  -18.8629 H   0  0  0  0  0  0  0  0  0  0  0  0
   37.0653   29.7844  -18.2989 H   0  0  0  0  0  0  0  0  0  0  0  0
   36.3468   31.0469  -17.2180 H   0  0  0  0  0  0  0  0  0  0  0  0
   36.7199   29.6789  -15.4871 H   0  0  0  0  0  0  0  0  0  0  0  0
   35.4720   28.5694  -16.1936 H   0  0  0  0  0  0  0  0  0  0  0  0
   38.4869   28.5127  -14.7402 H   0  0  0  0  0  0  0  0  0  0  0  0
   43.9774   25.1420  -16.0376 H   0  0  0  0  0  0  0  0  0  0  0  0
   45.9664   24.6976  -14.5937 H   0  0  0  0  0  0  0  0  0  0  0  0
   45.9143   25.3049  -12.1719 H   0  0  0  0  0  0  0  0  0  0  0  0
   44.2960   27.2000  -10.6460 H   0  0  0  0  0  0  0  0  0  0  0  0
   38.5330   27.8270  -13.5050 H   0  0  0  0  0  0  0  0  0  0  0  0
   40.3303   25.3764  -17.0560 H   0  0  0  0  0  0  0  0  0  0  0  0
   38.5643   25.6159  -18.7836 H   0  0  0  0  0  0  0  0  0  0  0  0
   35.5215   26.9031  -18.4573 H   0  0  0  0  0  0  0  0  0  0  0  0
   36.3768   28.3475  -19.1486 H   0  0  0  0  0  0  0  0  0  0  0  0
   37.3336   25.5424  -19.7588 H   0  0  0  0  0  0  0  0  0  0  0  0
   35.9738   26.2734  -20.6771 H   0  0  0  0  0  0  0  0  0  0  0  0
   37.5860   27.0655  -20.6771 H   0  0  0  0  0  0  0  0  0  0  0  0
  1  2  1  0
  2  3  1  0
  3  4  1  0
  4  5  2  0
  5  6  1  0
  6  7  1  0
  7  8  1  0
  8  9  1  0
  9 10  2  0
 10 11  1  0
 11 12  2  0
 12 13  1  0
 13 14  1  0
 13 15  2  0
 15 16  1  0
 16 17  2  0
 16 18  1  0
 18 19  1  0
  6 20  2  0
 20 21  1  0
 21 22  2  0
 22 23  1  0
 23 24  1  0
 22  4  1  0
 18  7  2  0
 15  9  1  0
  1 25  1  0
  1 26  1  0
  1 27  1  0
  2 28  1  0
  2 29  1  0
  3 30  1  0
  3 31  1  0
  5 32  1  0
 10 33  1  0
 11 34  1  0
 12 35  1  0
 14 36  1  0
 19 37  1  0
 20 38  1  0
 21 39  1  0
 23 40  1  0
 23 41  1  0
 24 42  1  0
 24 43  1  0
 24 44  1  0
M  END
>  <meeko>  (5) 
{"is_sidechain": [false], "free_energy": -5.488, "intermolecular_energy": -6.756, "internal_energy": 0.752}

$$$$
cand_033_out
     RDKit          3D

 44 46  0  0  0  0  0  0  0  0999 V2000
   47.0190   24.6300  -14.0690 C   0  0  0  0  0  0  0  0  0  0  0  0
   45.8720   25.4000  -14.7030 C   0  0  0  0  0  0  0  0  0  0  0  0
   44.5400   24.6700  -14.5180 C   0  0  0  0  0  0  0  0  0  0  0  0
   43.4560   25.6000  -14.0190 C   0  0  0  0  0  0  0  0  0  0  0  0
   42.3880   25.8970  -14.8910 C   0  0  0  0  0  0  0  0  0  0  0  0
   41.3510   26.7640  -14.5240 C   0  0  0  0  0  0  0  0  0  0  0  0
   40.2190   27.0540  -15.4300 C   0  0  0  0  0  0  0  0  0  0  0  0
   39.2840   27.9150  -14.8670 O   0  0  0  0  0  0  0  0  0  0  0  0
   38.1800   28.2670  -15.6000 C   0  0  0  0  0  0  0  0  0  0  0  0
   37.2600   29.1210  -14.9910 C   0  0  0  0  0  0  0  0  0  0  0  0
   36.1140   29.5200  -15.6830 C   0  0  0  0  0  0  0  0  0  0  0  0
   35.8900   29.0660  -16.9850 C   0  0  0  0  0  0  0  0  0  0  0  0
   36.8100   28.2150  -17.5910 C   0  0  0  0  0  0  0  0  0  0  0  0
   36.5290   27.8090  -18.8670 O   0  0  0  0  0  0  0  0  0  0  0  0
   37.9560   27.8160  -16.8970 C   0  0  0  0  0  0  0  0  0  0  0  0
   38.9480   26.9210  -17.4970 C   0  0  0  0  0  0  0  0  0  0  0  0
   38.8240   26.4860  -18.6400 O   0  0  0  0  0  0  0  0  0  0  0  0
   40.1220   26.5520  -16.6750 C   0  0  0  0  0  0  0  0  0  0  0  0
   41.0590   25.7170  -17.2560 O   0  0  0  0  0  0  0  0  0  0  0  0
   41.3830   27.3310  -13.2470 C   0  0  0  0  0  0  0  0  0  0  0  0
   42.4350   27.0540  -12.3700 C   0  0  0  0  0  0  0  0  0  0  0  0
   43.4850   26.1980  -12.7440 C   0  0  0  0  0  0  0  0  0  0  0  0
   44.5830   25.9410  -11.7360 C   0  0  0  0  0  0  0  0  0  0  0  0
   45.7210   26.9420  -11.8680 C   0  0  0  0  0  0  0  0  0  0  0  0
   46.9365   24.6854  -12.9735 H   0  0  0  0  0  0  0  0  0  0  0  0
   46.9747   23.5780  -14.3873 H   0  0  0  0  0  0  0  0  0  0  0  0
   47.9759   25.0694  -14.3873 H   0  0  0  0  0  0  0  0  0  0  0  0
   45.8044   26.3925  -14.2335 H   0  0  0  0  0  0  0  0  0  0  0  0
   46.0702   25.4910  -15.7812 H   0  0  0  0  0  0  0  0  0  0  0  0
   44.2288   24.2460  -15.4841 H   0  0  0  0  0  0  0  0  0  0  0  0
   44.6844   23.8785  -13.7679 H   0  0  0  0  0  0  0  0  0  0  0  0
   42.3689   25.4341  -15.8887 H   0  0  0  0  0  0  0  0  0  0  0  0
   37.4370   29.4800  -13.9664 H   0  0  0  0  0  0  0  0  0  0  0  0
   35.3877   30.1920  -15.2025 H   0  0  0  0  0  0  0  0  0  0  0  0
   34.9880   29.3805  -17.5305 H   0  0  0  0  0  0  0  0  0  0  0  0
   35.6560   27.5590  -19.0980 H   0  0  0  0  0  0  0  0  0  0  0  0
   41.8870   26.0610  -17.5290 H   0  0  0  0  0  0  0  0  0  0  0  0
   40.5717   28.0023  -12.9290 H   0  0  0  0  0  0  0  0  0  0  0  0
   42.4414   27.5134  -11.3706 H   0  0  0  0  0  0  0  0  0  0  0  0
   44.1602   26.0150  -10.7232 H   0  0  0  0  0  0  0  0  0  0  0  0
   44.9896   24.9364  -11.9240 H   0  0  0  0  0  0  0  0  0  0  0  0
   46.0628   27.2427  -10.8666 H   0  0  0  0  0  0  0  0  0  0  0  0
   46.5547   26.4792  -12.4164 H   0  0  0  0  0  0  0  0  0  0  0  0
   45.3683   27.8279  -12.4164 H   0  0  0  0  0  0  0  0  0  0  0  0
  1  2  1  0
  2  3  1  0
  3  4  1  0
  4  5  2  0
  5  6  1  0
  6  7  1  0
  7  8  1  0
  8  9  1  0
  9 10  2  0
 10 11  1  0
 11 12  2  0
 12 13  1  0
 13 14  1  0
 13 15  2  0
 15 16  1  0
 16 17  2  0
 16 18  1  0
 18 19  1  0
  6 20  2  0
 20 21  1  0
 21 22  2  0
 22 23  1  0
 23 24  1  0
 22  4  1  0
 18  7  2  0
 15  9  1  0
  1 25  1  0
  1 26  1  0
  1 27  1  0
  2 28  1  0
  2 29  1  0
  3 30  1  0
  3 31  1  0
  5 32  1  0
 10 33  1  0
 11 34  1  0
 12 35  1  0
 14 36  1  0
 19 37  1  0
 20 38  1  0
 21 39  1  0
 23 40  1  0
 23 41  1  0
 24 42  1  0
 24 43  1  0
 24 44  1  0
M  END
>  <meeko>  (6) 
{"is_sidechain": [false], "free_energy": -5.485, "intermolecular_energy": -6.402, "internal_energy": 0.402}

$$$$
cand_033_out
     RDKit          3D

 44 46  0  0  0  0  0  0  0  0999 V2000
   45.7670   24.6710  -13.9220 C   0  0  0  0  0  0  0  0  0  0  0  0
   44.6710   25.4720  -14.6060 C   0  0  0  0  0  0  0  0  0  0  0  0
   43.3030   24.8120  -14.4260 C   0  0  0  0  0  0  0  0  0  0  0  0
   42.2190   25.8350  -14.1630 C   0  0  0  0  0  0  0  0  0  0  0  0
   41.2330   26.0210  -15.1540 C   0  0  0  0  0  0  0  0  0  0  0  0
   40.2030   26.9600  -15.0070 C   0  0  0  0  0  0  0  0  0  0  0  0
   39.1560   27.1360  -16.0360 C   0  0  0  0  0  0  0  0  0  0  0  0
   38.2990   28.1950  -15.7580 O   0  0  0  0  0  0  0  0  0  0  0  0
   37.2780   28.4700  -16.6310 C   0  0  0  0  0  0  0  0  0  0  0  0
   36.4330   29.5310  -16.3050 C   0  0  0  0  0  0  0  0  0  0  0  0
   35.3740   29.8650  -17.1530 C   0  0  0  0  0  0  0  0  0  0  0  0
   35.1620   29.1380  -18.3270 C   0  0  0  0  0  0  0  0  0  0  0  0
   36.0080   28.0800  -18.6500 C   0  0  0  0  0  0  0  0  0  0  0  0
   35.7430   27.4120  -19.8140 O   0  0  0  0  0  0  0  0  0  0  0  0
   37.0660   27.7460  -17.8010 C   0  0  0  0  0  0  0  0  0  0  0  0
   37.9780   26.6410  -18.1030 C   0  0  0  0  0  0  0  0  0  0  0  0
   37.8590   25.9600  -19.1200 O   0  0  0  0  0  0  0  0  0  0  0  0
   39.0620   26.3640  -17.1340 C   0  0  0  0  0  0  0  0  0  0  0  0
   39.9250   25.3260  -17.4360 O   0  0  0  0  0  0  0  0  0  0  0  0
   40.1580   27.7150  -13.8310 C   0  0  0  0  0  0  0  0  0  0  0  0
   41.1290   27.5480  -12.8400 C   0  0  0  0  0  0  0  0  0  0  0  0
   42.1720   26.6200  -12.9940 C   0  0  0  0  0  0  0  0  0  0  0  0
   43.1790   26.4920  -11.8730 C   0  0  0  0  0  0  0  0  0  0  0  0
   44.3870   27.3910  -12.0900 C   0  0  0  0  0  0  0  0  0  0  0  0
   45.6546   24.7531  -12.8308 H   0  0  0  0  0  0  0  0  0  0  0  0
   45.6898   23.6150  -14.2201 H   0  0  0  0  0  0  0  0  0  0  0  0
   46.7497   25.0652  -14.2201 H   0  0  0  0  0  0  0  0  0  0  0  0
   44.6412   26.4820  -14.1711 H   0  0  0  0  0  0  0  0  0  0  0  0
   44.8950   25.5170  -15.6820 H   0  0  0  0  0  0  0  0  0  0  0  0
   43.0529   24.2545  -15.3407 H   0  0  0  0  0  0  0  0  0  0  0  0
   43.3581   24.1393  -13.5574 H   0  0  0  0  0  0  0  0  0  0  0  0
   41.2735   25.4115  -16.0688 H   0  0  0  0  0  0  0  0  0  0  0  0
   36.6003   30.1042  -15.3811 H   0  0  0  0  0  0  0  0  0  0  0  0
   34.7067   30.7009  -16.8961 H   0  0  0  0  0  0  0  0  0  0  0  0
   34.3285   29.4008  -18.9950 H   0  0  0  0  0  0  0  0  0  0  0  0
   36.4480   27.1380  -20.3680 H   0  0  0  0  0  0  0  0  0  0  0  0
   39.8640   24.8930  -18.2650 H   0  0  0  0  0  0  0  0  0  0  0  0
   39.3505   28.4475  -13.6845 H   0  0  0  0  0  0  0  0  0  0  0  0
   41.0756   28.1538  -11.9234 H   0  0  0  0  0  0  0  0  0  0  0  0
   42.6940   26.7705  -10.9258 H   0  0  0  0  0  0  0  0  0  0  0  0
   43.5299   25.4498  -11.8474 H   0  0  0  0  0  0  0  0  0  0  0  0
   44.7968   27.6960  -11.1158 H   0  0  0  0  0  0  0  0  0  0  0  0
   45.1550   26.8430  -12.6555 H   0  0  0  0  0  0  0  0  0  0  0  0
   44.0826   28.2840  -12.6555 H   0  0  0  0  0  0  0  0  0  0  0  0
  1  2  1  0
  2  3  1  0
  3  4  1  0
  4  5  2  0
  5  6  1  0
  6  7  1  0
  7  8  1  0
  8  9  1  0
  9 10  2  0
 10 11  1  0
 11 12  2  0
 12 13  1  0
 13 14  1  0
 13 15  2  0
 15 16  1  0
 16 17  2  0
 16 18  1  0
 18 19  1  0
  6 20  2  0
 20 21  1  0
 21 22  2  0
 22 23  1  0
 23 24  1  0
 22  4  1  0
 18  7  2  0
 15  9  1  0
  1 25  1  0
  1 26  1  0
  1 27  1  0
  2 28  1  0
  2 29  1  0
  3 30  1  0
  3 31  1  0
  5 32  1  0
 10 33  1  0
 11 34  1  0
 12 35  1  0
 14 36  1  0
 19 37  1  0
 20 38  1  0
 21 39  1  0
 23 40  1  0
 23 41  1  0
 24 42  1  0
 24 43  1  0
 24 44  1  0
M  END
>  <meeko>  (7) 
{"is_sidechain": [false], "free_energy": -5.35, "intermolecular_energy": -6.208, "internal_energy": 0.382}

$$$$
cand_033_out
     RDKit          3D

 44 46  0  0  0  0  0  0  0  0999 V2000
   46.7780   24.7030  -14.3170 C   0  0  0  0  0  0  0  0  0  0  0  0
   45.3530   24.3800  -13.8960 C   0  0  0  0  0  0  0  0  0  0  0  0
   44.3330   25.0920  -14.7870 C   0  0  0  0  0  0  0  0  0  0  0  0
   43.3460   25.9000  -13.9730 C   0  0  0  0  0  0  0  0  0  0  0  0
   42.1750   26.3530  -14.6160 C   0  0  0  0  0  0  0  0  0  0  0  0
   41.2150   27.1250  -13.9490 C   0  0  0  0  0  0  0  0  0  0  0  0
   39.9770   27.5770  -14.6180 C   0  0  0  0  0  0  0  0  0  0  0  0
   39.7820   26.9770  -15.8570 O   0  0  0  0  0  0  0  0  0  0  0  0
   38.6700   27.3070  -16.5880 C   0  0  0  0  0  0  0  0  0  0  0  0
   38.5230   26.6920  -17.8320 C   0  0  0  0  0  0  0  0  0  0  0  0
   37.4120   26.9840  -18.6260 C   0  0  0  0  0  0  0  0  0  0  0  0
   36.4480   27.8890  -18.1760 C   0  0  0  0  0  0  0  0  0  0  0  0
   36.5970   28.5000  -16.9340 C   0  0  0  0  0  0  0  0  0  0  0  0
   35.6160   29.3750  -16.5550 O   0  0  0  0  0  0  0  0  0  0  0  0
   37.7090   28.2090  -16.1400 C   0  0  0  0  0  0  0  0  0  0  0  0
   37.9050   28.8300  -14.8290 C   0  0  0  0  0  0  0  0  0  0  0  0
   37.0970   29.6310  -14.3620 O   0  0  0  0  0  0  0  0  0  0  0  0
   39.1210   28.4600  -14.0700 C   0  0  0  0  0  0  0  0  0  0  0  0
   39.2890   29.0430  -12.8280 O   0  0  0  0  0  0  0  0  0  0  0  0
   41.4320   27.4340  -12.6030 C   0  0  0  0  0  0  0  0  0  0  0  0
   42.5880   26.9990  -11.9500 C   0  0  0  0  0  0  0  0  0  0  0  0
   43.5600   26.2390  -12.6230 C   0  0  0  0  0  0  0  0  0  0  0  0
   44.7800   25.7990  -11.8450 C   0  0  0  0  0  0  0  0  0  0  0  0
   45.9230   26.7960  -11.9670 C   0  0  0  0  0  0  0  0  0  0  0  0
   47.4016   24.8444  -13.4220 H   0  0  0  0  0  0  0  0  0  0  0  0
   47.1801   23.8732  -14.9168 H   0  0  0  0  0  0  0  0  0  0  0  0
   46.7831   25.6251  -14.9168 H   0  0  0  0  0  0  0  0  0  0  0  0
   45.1956   23.2938  -13.9691 H   0  0  0  0  0  0  0  0  0  0  0  0
   45.2106   24.7261  -12.8616 H   0  0  0  0  0  0  0  0  0  0  0  0
   44.8675   25.7671  -15.4715 H   0  0  0  0  0  0  0  0  0  0  0  0
   43.7725   24.3275  -15.3449 H   0  0  0  0  0  0  0  0  0  0  0  0
   42.0109   26.0924  -15.6720 H   0  0  0  0  0  0  0  0  0  0  0  0
   39.2812   25.9783  -18.1866 H   0  0  0  0  0  0  0  0  0  0  0  0
   37.2959   26.5006  -19.6072 H   0  0  0  0  0  0  0  0  0  0  0  0
   35.5729   28.1185  -18.8017 H   0  0  0  0  0  0  0  0  0  0  0  0
   35.8120   30.2870  -16.4610 H   0  0  0  0  0  0  0  0  0  0  0  0
   38.5760   29.0630  -12.2190 H   0  0  0  0  0  0  0  0  0  0  0  0
   40.6854   28.0254  -12.0527 H   0  0  0  0  0  0  0  0  0  0  0  0
   42.7400   27.2557  -10.8912 H   0  0  0  0  0  0  0  0  0  0  0  0
   44.5077   25.6988  -10.7840 H   0  0  0  0  0  0  0  0  0  0  0  0
   45.1203   24.8390  -12.2604 H   0  0  0  0  0  0  0  0  0  0  0  0
   46.2611   27.0909  -10.9626 H   0  0  0  0  0  0  0  0  0  0  0  0
   46.7575   26.3321  -12.5133 H   0  0  0  0  0  0  0  0  0  0  0  0
   45.5767   27.6858  -12.5133 H   0  0  0  0  0  0  0  0  0  0  0  0
  1  2  1  0
  2  3  1  0
  3  4  1  0
  4  5  2  0
  5  6  1  0
  6  7  1  0
  7  8  1  0
  8  9  1  0
  9 10  2  0
 10 11  1  0
 11 12  2  0
 12 13  1  0
 13 14  1  0
 13 15  2  0
 15 16  1  0
 16 17  2  0
 16 18  1  0
 18 19  1  0
  6 20  2  0
 20 21  1  0
 21 22  2  0
 22 23  1  0
 23 24  1  0
 22  4  1  0
 18  7  2  0
 15  9  1  0
  1 25  1  0
  1 26  1  0
  1 27  1  0
  2 28  1  0
  2 29  1  0
  3 30  1  0
  3 31  1  0
  5 32  1  0
 10 33  1  0
 11 34  1  0
 12 35  1  0
 14 36  1  0
 19 37  1  0
 20 38  1  0
 21 39  1  0
 23 40  1  0
 23 41  1  0
 24 42  1  0
 24 43  1  0
 24 44  1  0
M  END
>  <meeko>  (8) 
{"is_sidechain": [false], "free_energy": -5.061, "intermolecular_energy": -7.367, "internal_energy": 1.914}

$$$$
cand_033_out
     RDKit          3D

 44 46  0  0  0  0  0  0  0  0999 V2000
   39.4500   27.5520  -18.9180 C   0  0  0  0  0  0  0  0  0  0  0  0
   38.4050   26.4810  -18.6490 C   0  0  0  0  0  0  0  0  0  0  0  0
   37.1840   27.0590  -17.9320 C   0  0  0  0  0  0  0  0  0  0  0  0
   37.5720   27.7900  -16.6660 C   0  0  0  0  0  0  0  0  0  0  0  0
   38.6830   27.3100  -15.9410 C   0  0  0  0  0  0  0  0  0  0  0  0
   39.1030   27.9090  -14.7460 C   0  0  0  0  0  0  0  0  0  0  0  0
   40.2830   27.4200  -14.0020 C   0  0  0  0  0  0  0  0  0  0  0  0
   41.2490   26.8590  -14.8310 O   0  0  0  0  0  0  0  0  0  0  0  0
   42.3980   26.3630  -14.2700 C   0  0  0  0  0  0  0  0  0  0  0  0
   43.3330   25.7960  -15.1360 C   0  0  0  0  0  0  0  0  0  0  0  0
   44.5260   25.2730  -14.6300 C   0  0  0  0  0  0  0  0  0  0  0  0
   44.7830   25.3200  -13.2580 C   0  0  0  0  0  0  0  0  0  0  0  0
   43.8480   25.8870  -12.3960 C   0  0  0  0  0  0  0  0  0  0  0  0
   44.1640   25.9000  -11.0650 O   0  0  0  0  0  0  0  0  0  0  0  0
   42.6550   26.4080  -12.9030 C   0  0  0  0  0  0  0  0  0  0  0  0
   41.6460   27.0130  -12.0310 C   0  0  0  0  0  0  0  0  0  0  0  0
   41.8030   27.0960  -10.8150 O   0  0  0  0  0  0  0  0  0  0  0  0
   40.4120   27.5290  -12.6670 C   0  0  0  0  0  0  0  0  0  0  0  0
   39.4720   28.1090  -11.8360 O   0  0  0  0  0  0  0  0  0  0  0  0
   38.3990   29.0230  -14.2810 C   0  0  0  0  0  0  0  0  0  0  0  0
   37.2920   29.5100  -14.9810 C   0  0  0  0  0  0  0  0  0  0  0  0
   36.8590   28.9000  -16.1700 C   0  0  0  0  0  0  0  0  0  0  0  0
   35.6590   29.4910  -16.8750 C   0  0  0  0  0  0  0  0  0  0  0  0
   35.6600   29.1720  -18.3630 C   0  0  0  0  0  0  0  0  0  0  0  0
   39.8302   27.9416  -17.9621 H   0  0  0  0  0  0  0  0  0  0  0  0
   40.2808   27.1174  -19.4932 H   0  0  0  0  0  0  0  0  0  0  0  0
   38.9951   28.3719  -19.4932 H   0  0  0  0  0  0  0  0  0  0  0  0
   38.0844   26.0454  -19.6069 H   0  0  0  0  0  0  0  0  0  0  0  0
   38.8549   25.7137  -18.0019 H   0  0  0  0  0  0  0  0  0  0  0  0
   36.6738   27.7618  -18.6072 H   0  0  0  0  0  0  0  0  0  0  0  0
   36.5216   26.2250  -17.6568 H   0  0  0  0  0  0  0  0  0  0  0  0
   39.2357   26.4400  -16.3251 H   0  0  0  0  0  0  0  0  0  0  0  0
   43.1313   25.7606  -16.2168 H   0  0  0  0  0  0  0  0  0  0  0  0
   45.2628   24.8242  -15.3124 H   0  0  0  0  0  0  0  0  0  0  0  0
   45.7225   24.9098  -12.8591 H   0  0  0  0  0  0  0  0  0  0  0  0
   44.8420   25.3410  -10.7390 H   0  0  0  0  0  0  0  0  0  0  0  0
   38.8060   28.6620  -12.1950 H   0  0  0  0  0  0  0  0  0  0  0  0
   38.7196   29.5217  -13.3544 H   0  0  0  0  0  0  0  0  0  0  0  0
   36.7504   30.3859  -14.5944 H   0  0  0  0  0  0  0  0  0  0  0  0
   34.7437   29.0801  -16.4240 H   0  0  0  0  0  0  0  0  0  0  0  0
   35.7014   30.5843  -16.7611 H   0  0  0  0  0  0  0  0  0  0  0  0
   35.6634   28.0811  -18.5041 H   0  0  0  0  0  0  0  0  0  0  0  0
   34.7605   29.5993  -18.8302 H   0  0  0  0  0  0  0  0  0  0  0  0
   36.5568   29.6050  -18.8302 H   0  0  0  0  0  0  0  0  0  0  0  0
  1  2  1  0
  2  3  1  0
  3  4  1  0
  4  5  2  0
  5  6  1  0
  6  7  1  0
  7  8  1  0
  8  9  1  0
  9 10  2  0
 10 11  1  0
 11 12  2  0
 12 13  1  0
 13 14  1  0
 13 15  2  0
 15 16  1  0
 16 17  2  0
 16 18  1  0
 18 19  1  0
  6 20  2  0
 20 21  1  0
 21 22  2  0
 22 23  1  0
 23 24  1  0
 22  4  1  0
 18  7  2  0
 15  9  1  0
  1 25  1  0
  1 26  1  0
  1 27  1  0
  2 28  1  0
  2 29  1  0
  3 30  1  0
  3 31  1  0
  5 32  1  0
 10 33  1  0
 11 34  1  0
 12 35  1  0
 14 36  1  0
 19 37  1  0
 20 38  1  0
 21 39  1  0
 23 40  1  0
 23 41  1  0
 24 42  1  0
 24 43  1  0
 24 44  1  0
M  END
>  <meeko>  (9) 
{"is_sidechain": [false], "free_energy": -4.903, "intermolecular_energy": -6.335, "internal_energy": 1.087}

$$$$
