cand_029_out
     RDKit          3D

 50 53  0  0  0  0  0  0  0  0999 V2000
   41.3190   26.8570  -10.9550 C   0  0  0  0  0  0  0  0  0  0  0  0
   42.5820   26.8890  -11.8040 C   0  0  0  0  0  0  0  0  0  0  0  0
   42.2880   26.6540  -13.2690 C   0  0  0  0  0  0  0  0  0  0  0  0
   41.0660   27.1160  -13.7970 C   0  0  0  0  0  0  0  0  0  0  0  0
   40.7220   26.9100  -15.1410 C   0  0  0  0  0  0  0  0  0  0  0  0
   39.4430   27.4370  -15.6630 C   0  0  0  0  0  0  0  0  0  0  0  0
   39.1090   26.9120  -16.9060 O   0  0  0  0  0  0  0  0  0  0  0  0
   37.9450   27.3180  -17.5080 C   0  0  0  0  0  0  0  0  0  0  0  0
   37.6430   26.7560  -18.7480 C   0  0  0  0  0  0  0  0  0  0  0  0
   36.4750   27.1280  -19.4160 C   0  0  0  0  0  0  0  0  0  0  0  0
   35.6090   28.0620  -18.8440 C   0  0  0  0  0  0  0  0  0  0  0  0
   35.9130   28.6220  -17.6050 C   0  0  0  0  0  0  0  0  0  0  0  0
   35.0210   29.5300  -17.1030 O   0  0  0  0  0  0  0  0  0  0  0  0
   37.0820   28.2480  -16.9370 C   0  0  0  0  0  0  0  0  0  0  0  0
   37.4390   28.8130  -15.6340 C   0  0  0  0  0  0  0  0  0  0  0  0
   36.7320   29.6440  -15.0700 O   0  0  0  0  0  0  0  0  0  0  0  0
   38.6970   28.3460  -15.0070 C   0  0  0  0  0  0  0  0  0  0  0  0
   39.0310   28.8960  -13.7830 O   0  0  0  0  0  0  0  0  0  0  0  0
   41.6340   26.2400  -15.9620 C   0  0  0  0  0  0  0  0  0  0  0  0
   42.8450   25.7680  -15.4480 C   0  0  0  0  0  0  0  0  0  0  0  0
   43.1870   25.9580  -14.1000 C   0  0  0  0  0  0  0  0  0  0  0  0
   44.4070   25.4900  -13.5650 N   0  0  0  0  0  0  0  0  0  0  0  0
   44.8910   24.2570  -14.2050 C   0  0  0  0  0  0  0  0  0  0  0  0
   46.0680   23.7070  -13.3960 C   0  0  0  0  0  0  0  0  0  0  0  0
   47.1700   24.7540  -13.2470 C   0  0  0  0  0  0  0  0  0  0  0  0
   46.6120   26.0570  -12.6780 C   0  0  0  0  0  0  0  0  0  0  0  0
   45.4190   26.5560  -13.4950 C   0  0  0  0  0  0  0  0  0  0  0  0
   41.5930   26.8639   -9.8897 H   0  0  0  0  0  0  0  0  0  0  0  0
   40.7029   27.7398  -11.1809 H   0  0  0  0  0  0  0  0  0  0  0  0
   40.7484   25.9441  -11.1809 H   0  0  0  0  0  0  0  0  0  0  0  0
   43.0603   27.8731  -11.6915 H   0  0  0  0  0  0  0  0  0  0  0  0
   43.2441   26.0819  -11.4573 H   0  0  0  0  0  0  0  0  0  0  0  0
   40.3651   27.6510  -13.1394 H   0  0  0  0  0  0  0  0  0  0  0  0
   38.3246   26.0201  -19.1994 H   0  0  0  0  0  0  0  0  0  0  0  0
   36.2366   26.6848  -20.3941 H   0  0  0  0  0  0  0  0  0  0  0  0
   34.6887   28.3551  -19.3705 H   0  0  0  0  0  0  0  0  0  0  0  0
   34.9250   29.6300  -16.1760 H   0  0  0  0  0  0  0  0  0  0  0  0
   38.3790   29.3390  -13.2760 H   0  0  0  0  0  0  0  0  0  0  0  0
   41.3958   26.0826  -17.0243 H   0  0  0  0  0  0  0  0  0  0  0  0
   43.5432   25.2377  -16.1123 H   0  0  0  0  0  0  0  0  0  0  0  0
   44.0815   23.5127  -14.2317 H   0  0  0  0  0  0  0  0  0  0  0  0
   45.2150   24.4737  -15.2336 H   0  0  0  0  0  0  0  0  0  0  0  0
   45.7121   23.4154  -12.3969 H   0  0  0  0  0  0  0  0  0  0  0  0
   46.4817   22.8377  -13.9281 H   0  0  0  0  0  0  0  0  0  0  0  0
   47.9445   24.3673  -12.5683 H   0  0  0  0  0  0  0  0  0  0  0  0
   47.5962   24.9588  -14.2402 H   0  0  0  0  0  0  0  0  0  0  0  0
   46.2889   25.8854  -11.6406 H   0  0  0  0  0  0  0  0  0  0  0  0
   47.4034   26.8199  -12.7187 H   0  0  0  0  0  0  0  0  0  0  0  0
   44.9863   27.4441  -13.0113 H   0  0  0  0  0  0  0  0  0  0  0  0
   45.7489   26.8225  -14.5099 H   0  0  0  0  0  0  0  0  0  0  0  0
  1  2  1  0
  2  3  1  0
  3  4  2  0
  4  5  1  0
  5  6  1  0
  6  7  1  0
  7  8  1  0
  8  9  2  0
  9 10  1  0
 10 11  2  0
 11 12  1  0
 12 13  1  0
 12 14  2  0
 14 15  1  0
 15 16  2  0
 15 17  1  0
 17 18  1  0
  5 19  2  0
 19 20  1  0
 20 21  2  0
 21 22  1  0
 22 23  1  0
 23 24  1  0
 24 25  1  0
 25 26  1  0
 26 27  1  0
 21  3  1  0
 27 22  1  0
 17  6  2  0
 14  8  1  0
  1 28  1  0
  1 29  1  0
  1 30  1  0
  2 31  1  0
  2 32  1  0
  4 33  1  0
  9 34  1  0
 10 35  1  0
 11 36  1  0
 13 37  1  0
 18 38  1  0
 19 39  1  0
 20 40  1  0
 23 41  1  0
 23 42  1  0
 24 43  1  0
 24 44  1  0
 25 45  1  0
 25 46  1  0
 26 47  1  0
 26 48  1  0
 27 49  1  0
 27 50  1  0
M  END
>  <meeko>  (1) 
{"is_sidechain": [false], "free_energy": -3.311, "intermolecular_energy": -4.085, "internal_energy": 0.002}

$$$$
cand_029_out
     RDKit          3D

 50 53  0  0  0  0  0  0  0  0999 V2000
   41.6310   26.8930  -11.2010 C   0  0  0  0  0  0  0  0  0  0  0  0
   42.9550   26.8870  -11.9500 C   0  0  0  0  0  0  0  0  0  0  0  0
   42.7860   26.4900  -13.3990 C   0  0  0  0  0  0  0  0  0  0  0  0
   41.5960   26.8450  -14.0650 C   0  0  0  0  0  0  0  0  0  0  0  0
   41.3660   26.4860  -15.4010 C   0  0  0  0  0  0  0  0  0  0  0  0
   40.1160   26.9050  -16.0700 C   0  0  0  0  0  0  0  0  0  0  0  0
   39.3410   27.7530  -15.2870 O   0  0  0  0  0  0  0  0  0  0  0  0
   38.1510   28.2170  -15.7870 C   0  0  0  0  0  0  0  0  0  0  0  0
   37.4130   29.0750  -14.9710 C   0  0  0  0  0  0  0  0  0  0  0  0
   36.1920   29.5820  -15.4190 C   0  0  0  0  0  0  0  0  0  0  0  0
   35.7080   29.2300  -16.6810 C   0  0  0  0  0  0  0  0  0  0  0  0
   36.4470   28.3730  -17.4930 C   0  0  0  0  0  0  0  0  0  0  0  0
   35.9150   28.0700  -18.7160 O   0  0  0  0  0  0  0  0  0  0  0  0
   37.6700   27.8670  -17.0440 C   0  0  0  0  0  0  0  0  0  0  0  0
   38.4780   26.9630  -17.8650 C   0  0  0  0  0  0  0  0  0  0  0  0
   38.1160   26.6030  -18.9840 O   0  0  0  0  0  0  0  0  0  0  0  0
   39.7610   26.4880  -17.3000 C   0  0  0  0  0  0  0  0  0  0  0  0
   40.5090   25.6240  -18.0800 O   0  0  0  0  0  0  0  0  0  0  0  0
   42.3610   25.7720  -16.0750 C   0  0  0  0  0  0  0  0  0  0  0  0
   43.5430   25.4060  -15.4230 C   0  0  0  0  0  0  0  0  0  0  0  0
   43.7710   25.7480  -14.0820 C   0  0  0  0  0  0  0  0  0  0  0  0
   44.9590   25.3880  -13.4100 N   0  0  0  0  0  0  0  0  0  0  0  0
   45.4770   24.0690  -13.8050 C   0  0  0  0  0  0  0  0  0  0  0  0
   46.6070   23.6740  -12.8520 C   0  0  0  0  0  0  0  0  0  0  0  0
   47.7000   24.7410  -12.8220 C   0  0  0  0  0  0  0  0  0  0  0  0
   47.1110   26.1160  -12.5120 C   0  0  0  0  0  0  0  0  0  0  0  0
   45.9650   26.4590  -13.4650 C   0  0  0  0  0  0  0  0  0  0  0  0
   41.8225   26.8921  -10.1178 H   0  0  0  0  0  0  0  0  0  0  0  0
   41.0606   27.7937  -11.4718 H   0  0  0  0  0  0  0  0  0  0  0  0
   41.0525   25.9975  -11.4718 H   0  0  0  0  0  0  0  0  0  0  0  0
   43.3916   27.8957  -11.9071 H   0  0  0  0  0  0  0  0  0  0  0  0
   43.6126   26.1472  -11.4702 H   0  0  0  0  0  0  0  0  0  0  0  0
   40.8286   27.4178  -13.5237 H   0  0  0  0  0  0  0  0  0  0  0  0
   37.7927   29.3515  -13.9763 H   0  0  0  0  0  0  0  0  0  0  0  0
   35.6101   30.2598  -14.7771 H   0  0  0  0  0  0  0  0  0  0  0  0
   34.7451   29.6288  -17.0329 H   0  0  0  0  0  0  0  0  0  0  0  0
   36.3410   28.3610  -19.4980 H   0  0  0  0  0  0  0  0  0  0  0  0
   41.2230   25.9530  -18.5910 H   0  0  0  0  0  0  0  0  0  0  0  0
   42.2128   25.4951  -17.1292 H   0  0  0  0  0  0  0  0  0  0  0  0
   44.3087   24.8389  -15.9726 H   0  0  0  0  0  0  0  0  0  0  0  0
   44.6699   23.3237  -13.7496 H   0  0  0  0  0  0  0  0  0  0  0  0
   45.8574   24.1118  -14.8363 H   0  0  0  0  0  0  0  0  0  0  0  0
   46.1963   23.5520  -11.8389 H   0  0  0  0  0  0  0  0  0  0  0  0
   47.0491   22.7311  -13.2063 H   0  0  0  0  0  0  0  0  0  0  0  0
   48.4357   24.4812  -12.0466 H   0  0  0  0  0  0  0  0  0  0  0  0
   48.1810   24.7794  -13.8105 H   0  0  0  0  0  0  0  0  0  0  0  0
   46.7311   26.1183  -11.4797 H   0  0  0  0  0  0  0  0  0  0  0  0
   47.9032   26.8687  -12.6376 H   0  0  0  0  0  0  0  0  0  0  0  0
   45.5062   27.4117  -13.1620 H   0  0  0  0  0  0  0  0  0  0  0  0
   46.3508   26.5538  -14.4908 H   0  0  0  0  0  0  0  0  0  0  0  0
  1  2  1  0
  2  3  1  0
  3  4  2  0
  4  5  1  0
  5  6  1  0
  6  7  1  0
  7  8  1  0
  8  9  2  0
  9 10  1  0
 10 11  2  0
 11 12  1  0
 12 13  1  0
 12 14  2  0
 14 15  1  0
 15 16  2  0
 15 17  1  0
 17 18  1  0
  5 19  2  0
 19 20  1  0
 20 21  2  0
 21 22  1  0
 22 23  1  0
 23 24  1  0
 24 25  1  0
 25 26  1  0
 26 27  1  0
 21  3  1  0
 27 22  1  0
 17  6  2  0
 14  8  1  0
  1 28  1  0
  1 29  1  0
  1 30  1  0
  2 31  1  0
  2 32  1  0
  4 33  1  0
  9 34  1  0
 10 35  1  0
 11 36  1  0
 13 37  1  0
 18 38  1  0
 19 39  1  0
 20 40  1  0
 23 41  1  0
 23 42  1  0
 24 43  1  0
 24 44  1  0
 25 45  1  0
 25 46  1  0
 26 47  1  0
 26 48  1  0
 27 49  1  0
 27 50  1  0
M  END
>  <meeko>  (2) 
{"is_sidechain": [false], "free_energy": -2.659, "intermolecular_energy": -3.179, "internal_energy": -0.099}

$$$$
cand_029_out
     RDKit          3D

 50 53  0  0  0  0  0  0  0  0999 V2000
   36.8960   29.9420  -13.8010 C   0  0  0  0  0  0  0  0  0  0  0  0
   36.4530   29.2820  -15.0990 C   0  0  0  0  0  0  0  0  0  0  0  0
   37.5060   28.3440  -15.6460 C   0  0  0  0  0  0  0  0  0  0  0  0
   38.6320   28.0520  -14.8520 C   0  0  0  0  0  0  0  0  0  0  0  0
   39.6560   27.2090  -15.3090 C   0  0  0  0  0  0  0  0  0  0  0  0
   40.8060   26.9050  -14.4320 C   0  0  0  0  0  0  0  0  0  0  0  0
   41.8680   26.3230  -15.1150 O   0  0  0  0  0  0  0  0  0  0  0  0
   43.0020   25.9870  -14.4200 C   0  0  0  0  0  0  0  0  0  0  0  0
   44.0460   25.4170  -15.1480 C   0  0  0  0  0  0  0  0  0  0  0  0
   45.2270   25.0500  -14.5010 C   0  0  0  0  0  0  0  0  0  0  0  0
   45.3640   25.2530  -13.1260 C   0  0  0  0  0  0  0  0  0  0  0  0
   44.3200   25.8230  -12.4010 C   0  0  0  0  0  0  0  0  0  0  0  0
   44.5210   25.9920  -11.0590 O   0  0  0  0  0  0  0  0  0  0  0  0
   43.1380   26.1900  -13.0500 C   0  0  0  0  0  0  0  0  0  0  0  0
   42.0160   26.7900  -12.3270 C   0  0  0  0  0  0  0  0  0  0  0  0
   42.0580   26.9950  -11.1150 O   0  0  0  0  0  0  0  0  0  0  0  0
   40.8100   27.1500  -13.1080 C   0  0  0  0  0  0  0  0  0  0  0  0
   39.7520   27.7040  -12.4120 O   0  0  0  0  0  0  0  0  0  0  0  0
   39.5280   26.6440  -16.5810 C   0  0  0  0  0  0  0  0  0  0  0  0
   38.4190   26.9320  -17.3830 C   0  0  0  0  0  0  0  0  0  0  0  0
   37.4010   27.7870  -16.9370 C   0  0  0  0  0  0  0  0  0  0  0  0
   36.2740   28.0880  -17.7330 N   0  0  0  0  0  0  0  0  0  0  0  0
   35.9990   29.5300  -17.8360 C   0  0  0  0  0  0  0  0  0  0  0  0
   34.6360   29.7270  -18.5010 C   0  0  0  0  0  0  0  0  0  0  0  0
   34.5790   29.0280  -19.8580 C   0  0  0  0  0  0  0  0  0  0  0  0
   34.9720   27.5570  -19.7310 C   0  0  0  0  0  0  0  0  0  0  0  0
   36.3240   27.4010  -19.0330 C   0  0  0  0  0  0  0  0  0  0  0  0
   36.5098   29.3667  -12.9467 H   0  0  0  0  0  0  0  0  0  0  0  0
   37.9949   29.9676  -13.7591 H   0  0  0  0  0  0  0  0  0  0  0  0
   36.5034   30.9687  -13.7591 H   0  0  0  0  0  0  0  0  0  0  0  0
   35.5320   28.7108  -14.9106 H   0  0  0  0  0  0  0  0  0  0  0  0
   36.2846   30.0746  -15.8429 H   0  0  0  0  0  0  0  0  0  0  0  0
   38.7105   28.4960  -13.8486 H   0  0  0  0  0  0  0  0  0  0  0  0
   43.9388   25.2568  -16.2310 H   0  0  0  0  0  0  0  0  0  0  0  0
   46.0508   24.6004  -15.0747 H   0  0  0  0  0  0  0  0  0  0  0  0
   46.2948   24.9633  -12.6164 H   0  0  0  0  0  0  0  0  0  0  0  0
   44.9620   25.3310  -10.5640 H   0  0  0  0  0  0  0  0  0  0  0  0
   39.4460   27.2980  -11.6240 H   0  0  0  0  0  0  0  0  0  0  0  0
   40.3083   25.9652  -16.9555 H   0  0  0  0  0  0  0  0  0  0  0  0
   38.3439   26.4792  -18.3827 H   0  0  0  0  0  0  0  0  0  0  0  0
   35.9877   29.9767  -16.8308 H   0  0  0  0  0  0  0  0  0  0  0  0
   36.7812   30.0171  -18.4368 H   0  0  0  0  0  0  0  0  0  0  0  0
   33.8546   29.3096  -17.8489 H   0  0  0  0  0  0  0  0  0  0  0  0
   34.4759   30.8041  -18.6563 H   0  0  0  0  0  0  0  0  0  0  0  0
   33.5550   29.0942  -20.2544 H   0  0  0  0  0  0  0  0  0  0  0  0
   35.2874   29.5234  -20.5383 H   0  0  0  0  0  0  0  0  0  0  0  0
   34.2038   27.0302  -19.1459 H   0  0  0  0  0  0  0  0  0  0  0  0
   35.0520   27.1306  -20.7418 H   0  0  0  0  0  0  0  0  0  0  0  0
   36.5379   26.3332  -18.8779 H   0  0  0  0  0  0  0  0  0  0  0  0
   37.1167   27.8412  -19.6557 H   0  0  0  0  0  0  0  0  0  0  0  0
  1  2  1  0
  2  3  1  0
  3  4  2  0
  4  5  1  0
  5  6  1  0
  6  7  1  0
  7  8  1  0
  8  9  2  0
  9 10  1  0
 10 11  2  0
 11 12  1  0
 12 13  1  0
 12 14  2  0
 14 15  1  0
 15 16  2  0
 15 17  1  0
 17 18  1  0
  5 19  2  0
 19 20  1  0
 20 21  2  0
 21 22  1  0
 22 23  1  0
 23 24  1  0
 24 25  1  0
 25 26  1  0
 26 27  1  0
 21  3  1  0
 27 22  1  0
 17  6  2  0
 14  8  1  0
  1 28  1  0
  1 29  1  0
  1 30  1  0
  2 31  1  0
  2 32  1  0
  4 33  1  0
  9 34  1  0
 10 35  1  0
 11 36  1  0
 13 37  1  0
 18 38  1  0
 19 39  1  0
 20 40  1  0
 23 41  1  0
 23 42  1  0
 24 43  1  0
 24 44  1  0
 25 45  1  0
 25 46  1  0
 26 47  1  0
 26 48  1  0
 27 49  1  0
 27 50  1  0
M  END
>  <meeko>  (3) 
{"is_sidechain": [false], "free_energy": -2.018, "intermolecular_energy": -3.109, "internal_energy": 0.621}

$$$$
cand_029_out
     RDKit          3D

 50 53  0  0  0  0  0  0  0  0999 V2000
   37.2310   29.6340  -13.9680 C   0  0  0  0  0  0  0  0  0  0  0  0
   36.6750   29.2000  -15.3170 C   0  0  0  0  0  0  0  0  0  0  0  0
   37.6000   28.2370  -16.0280 C   0  0  0  0  0  0  0  0  0  0  0  0
   38.7960   27.8510  -15.3920 C   0  0  0  0  0  0  0  0  0  0  0  0
   39.7080   26.9800  -16.0060 C   0  0  0  0  0  0  0  0  0  0  0  0
   40.9370   26.5770  -15.2910 C   0  0  0  0  0  0  0  0  0  0  0  0
   40.9240   26.9380  -13.9480 O   0  0  0  0  0  0  0  0  0  0  0  0
   42.0060   26.6260  -13.1660 C   0  0  0  0  0  0  0  0  0  0  0  0
   41.9440   26.9960  -11.8220 C   0  0  0  0  0  0  0  0  0  0  0  0
   43.0130   26.7100  -10.9710 C   0  0  0  0  0  0  0  0  0  0  0  0
   44.1440   26.0560  -11.4630 C   0  0  0  0  0  0  0  0  0  0  0  0
   44.2030   25.6870  -12.8050 C   0  0  0  0  0  0  0  0  0  0  0  0
   45.3400   25.0490  -13.2200 O   0  0  0  0  0  0  0  0  0  0  0  0
   43.1330   25.9730  -13.6560 C   0  0  0  0  0  0  0  0  0  0  0  0
   43.1540   25.6040  -15.0730 C   0  0  0  0  0  0  0  0  0  0  0  0
   44.1160   25.0310  -15.5810 O   0  0  0  0  0  0  0  0  0  0  0  0
   41.9660   25.9470  -15.8880 C   0  0  0  0  0  0  0  0  0  0  0  0
   42.0040   25.6050  -17.2270 O   0  0  0  0  0  0  0  0  0  0  0  0
   39.3940   26.4820  -17.2740 C   0  0  0  0  0  0  0  0  0  0  0  0
   38.2150   26.8640  -17.9200 C   0  0  0  0  0  0  0  0  0  0  0  0
   37.3080   27.7480  -17.3170 C   0  0  0  0  0  0  0  0  0  0  0  0
   36.1110   28.1420  -17.9540 N   0  0  0  0  0  0  0  0  0  0  0  0
   35.9030   29.5980  -17.9580 C   0  0  0  0  0  0  0  0  0  0  0  0
   34.4820   29.8940  -18.4420 C   0  0  0  0  0  0  0  0  0  0  0  0
   34.2250   29.2690  -19.8120 C   0  0  0  0  0  0  0  0  0  0  0  0
   34.5520   27.7770  -19.8000 C   0  0  0  0  0  0  0  0  0  0  0  0
   35.9670   27.5200  -19.2800 C   0  0  0  0  0  0  0  0  0  0  0  0
   36.6405   29.1730  -13.1625 H   0  0  0  0  0  0  0  0  0  0  0  0
   38.2798   29.3133  -13.8833 H   0  0  0  0  0  0  0  0  0  0  0  0
   37.1745   30.7293  -13.8833 H   0  0  0  0  0  0  0  0  0  0  0  0
   35.7037   28.7084  -15.1592 H   0  0  0  0  0  0  0  0  0  0  0  0
   36.5698   30.0966  -15.9455 H   0  0  0  0  0  0  0  0  0  0  0  0
   39.0204   28.2424  -14.3888 H   0  0  0  0  0  0  0  0  0  0  0  0
   41.0538   27.5124  -11.4335 H   0  0  0  0  0  0  0  0  0  0  0  0
   42.9641   27.0004   -9.9111 H   0  0  0  0  0  0  0  0  0  0  0  0
   44.9868   25.8325  -10.7924 H   0  0  0  0  0  0  0  0  0  0  0  0
   46.1730   25.3030  -12.8740 H   0  0  0  0  0  0  0  0  0  0  0  0
   42.4490   26.1590  -17.8390 H   0  0  0  0  0  0  0  0  0  0  0  0
   40.0827   25.7815  -17.7689 H   0  0  0  0  0  0  0  0  0  0  0  0
   37.9941   26.4638  -18.9205 H   0  0  0  0  0  0  0  0  0  0  0  0
   36.0362   29.9929  -16.9400 H   0  0  0  0  0  0  0  0  0  0  0  0
   36.6323   30.0770  -18.6278 H   0  0  0  0  0  0  0  0  0  0  0  0
   33.7631   29.4816  -17.7187 H   0  0  0  0  0  0  0  0  0  0  0  0
   34.3627   30.9841  -18.5279 H   0  0  0  0  0  0  0  0  0  0  0  0
   33.1657   29.4035  -20.0763 H   0  0  0  0  0  0  0  0  0  0  0  0
   34.8712   29.7647  -20.5514 H   0  0  0  0  0  0  0  0  0  0  0  0
   33.8321   27.2581  -19.1500 H   0  0  0  0  0  0  0  0  0  0  0  0
   34.4886   27.4004  -20.8316 H   0  0  0  0  0  0  0  0  0  0  0  0
   36.1392   26.4365  -19.1997 H   0  0  0  0  0  0  0  0  0  0  0  0
   36.7022   27.9521  -19.9748 H   0  0  0  0  0  0  0  0  0  0  0  0
  1  2  1  0
  2  3  1  0
  3  4  2  0
  4  5  1  0
  5  6  1  0
  6  7  1  0
  7  8  1  0
  8  9  2  0
  9 10  1  0
 10 11  2  0
 11 12  1  0
 12 13  1  0
 12 14  2  0
 14 15  1  0
 15 16  2  0
 15 17  1  0
 17 18  1  0
  5 19  2  0
 19 20  1  0
 20 21  2  0
 21 22  1  0
 22 23  1  0
 23 24  1  0
 24 25  1  0
 25 26  1  0
 26 27  1  0
 21  3  1  0
 27 22  1  0
 17  6  2  0
 14  8  1  0
  1 28  1  0
  1 29  1  0
  1 30  1  0
  2 31  1  0
  2 32  1  0
  4 33  1  0
  9 34  1  0
 10 35  1  0
 11 36  1  0
 13 37  1  0
 18 38  1  0
 19 39  1  0
 20 40  1  0
 23 41  1  0
 23 42  1  0
 24 43  1  0
 24 44  1  0
 25 45  1  0
 25 46  1  0
 26 47  1  0
 26 48  1  0
 27 49  1  0
 27 50  1  0
M  END
>  <meeko>  (4) 
{"is_sidechain": [false], "free_energy": -0.382, "intermolecular_energy": -1.055, "internal_energy": 0.586}

$$$$
