cand_034_out
     RDKit          3D

 40 42  0  0  0  0  0  0  0  0999 V2000
   45.5350   24.0080  -13.3400 C   0  0  0  0  0  0  0  0  0  0  0  0
   45.0120   25.3480  -13.0570 N   0  0  0  0  0  0  0  0  0  0  0  0
   46.0220   26.4110  -13.1710 C   0  0  0  0  0  0  0  0  0  0  0  0
   43.8420   25.6890  -13.7720 C   0  0  0  0  0  0  0  0  0  0  0  0
   43.6510   25.3220  -15.1130 C   0  0  0  0  0  0  0  0  0  0  0  0
   42.4940   25.6900  -15.8090 C   0  0  0  0  0  0  0  0  0  0  0  0
   41.4900   26.4350  -15.1860 C   0  0  0  0  0  0  0  0  0  0  0  0
   40.2730   26.8640  -15.9080 C   0  0  0  0  0  0  0  0  0  0  0  0
   39.4490   27.6790  -15.1400 O   0  0  0  0  0  0  0  0  0  0  0  0
   38.2810   28.1460  -15.6860 C   0  0  0  0  0  0  0  0  0  0  0  0
   37.4900   28.9680  -14.8820 C   0  0  0  0  0  0  0  0  0  0  0  0
   36.2870   29.4770  -15.3770 C   0  0  0  0  0  0  0  0  0  0  0  0
   35.8760   29.1640  -16.6740 C   0  0  0  0  0  0  0  0  0  0  0  0
   36.6660   28.3420  -17.4740 C   0  0  0  0  0  0  0  0  0  0  0  0
   36.2040   28.0740  -18.7330 O   0  0  0  0  0  0  0  0  0  0  0  0
   37.8710   27.8340  -16.9780 C   0  0  0  0  0  0  0  0  0  0  0  0
   38.7310   26.9660  -17.7840 C   0  0  0  0  0  0  0  0  0  0  0  0
   38.4340   26.6400  -18.9310 O   0  0  0  0  0  0  0  0  0  0  0  0
   39.9880   26.4840  -17.1670 C   0  0  0  0  0  0  0  0  0  0  0  0
   40.7850   25.6520  -17.9320 O   0  0  0  0  0  0  0  0  0  0  0  0
   41.6820   26.8160  -13.8510 C   0  0  0  0  0  0  0  0  0  0  0  0
   42.8380   26.4440  -13.1360 C   0  0  0  0  0  0  0  0  0  0  0  0
   42.9900   26.8830  -11.7030 C   0  0  0  0  0  0  0  0  0  0  0  0
   43.6800   25.9780  -10.9430 F   0  0  0  0  0  0  0  0  0  0  0  0
   41.7890   27.0320  -11.0730 F   0  0  0  0  0  0  0  0  0  0  0  0
   45.7386   23.4864  -12.3932 H   0  0  0  0  0  0  0  0  0  0  0  0
   44.7927   23.4395  -13.9196 H   0  0  0  0  0  0  0  0  0  0  0  0
   46.4661   24.0927  -13.9196 H   0  0  0  0  0  0  0  0  0  0  0  0
   46.3292   26.7343  -12.1654 H   0  0  0  0  0  0  0  0  0  0  0  0
   46.8972   26.0282  -13.7164 H   0  0  0  0  0  0  0  0  0  0  0  0
   45.5950   27.2655  -13.7164 H   0  0  0  0  0  0  0  0  0  0  0  0
   44.4256   24.7338  -15.6269 H   0  0  0  0  0  0  0  0  0  0  0  0
   42.3737   25.3887  -16.8601 H   0  0  0  0  0  0  0  0  0  0  0  0
   37.8134   29.2147  -13.8600 H   0  0  0  0  0  0  0  0  0  0  0  0
   35.6629   30.1251  -14.7442 H   0  0  0  0  0  0  0  0  0  0  0  0
   34.9292   29.5662  -17.0637 H   0  0  0  0  0  0  0  0  0  0  0  0
   36.2580   28.7290  -19.4010 H   0  0  0  0  0  0  0  0  0  0  0  0
   40.4420   24.8420  -18.2540 H   0  0  0  0  0  0  0  0  0  0  0  0
   40.9117   27.4200  -13.3492 H   0  0  0  0  0  0  0  0  0  0  0  0
   43.5302   27.8383  -11.7776 H   0  0  0  0  0  0  0  0  0  0  0  0
  1  2  1  0
  2  3  1  0
  2  4  1  0
  4  5  2  0
  5  6  1  0
  6  7  2  0
  7  8  1  0
  8  9  1  0
  9 10  1  0
 10 11  2  0
 11 12  1  0
 12 13  2  0
 13 14  1  0
 14 15  1  0
 14 16  2  0
 16 17  1  0
 17 18  2  0
 17 19  1  0
 19 20  1  0
  7 21  1  0
 21 22  2  0
 22 23  1  0
 23 24  1  0
 23 25  1  0
 22  4  1  0
 19  8  2  0
 16 10  1  0
  1 26  1  0
  1 27  1  0
  1 28  1  0
  3 29  1  0
  3 30  1  0
  3 31  1  0
  5 32  1  0
  6 33  1  0
 11 34  1  0
 12 35  1  0
 13 36  1  0
 15 37  1  0
 20 38  1  0
 21 39  1  0
 23 40  1  0
M  END
>  <meeko>  (1) 
{"is_sidechain": [false], "free_energy": -6.59, "intermolecular_energy": -8.131, "internal_energy": 0.566}

$$$$
cand_034_out
     RDKit          3D

 40 42  0  0  0  0  0  0  0  0999 V2000
   46.9560   24.9390  -14.6080 C   0  0  0  0  0  0  0  0  0  0  0  0
   45.8860   24.3900  -13.7690 N   0  0  0  0  0  0  0  0  0  0  0  0
   46.2290   24.3300  -12.3410 C   0  0  0  0  0  0  0  0  0  0  0  0
   44.6220   24.9900  -13.9570 C   0  0  0  0  0  0  0  0  0  0  0  0
   43.5870   24.3510  -14.6570 C   0  0  0  0  0  0  0  0  0  0  0  0
   42.3480   24.9740  -14.8510 C   0  0  0  0  0  0  0  0  0  0  0  0
   42.1040   26.2540  -14.3500 C   0  0  0  0  0  0  0  0  0  0  0  0
   40.8170   26.9480  -14.5690 C   0  0  0  0  0  0  0  0  0  0  0  0
   40.3160   26.7640  -15.8520 O   0  0  0  0  0  0  0  0  0  0  0  0
   39.1270   27.3590  -16.1920 C   0  0  0  0  0  0  0  0  0  0  0  0
   38.6580   27.1390  -17.4880 C   0  0  0  0  0  0  0  0  0  0  0  0
   37.4540   27.7160  -17.9000 C   0  0  0  0  0  0  0  0  0  0  0  0
   36.7210   28.5110  -17.0170 C   0  0  0  0  0  0  0  0  0  0  0  0
   37.1920   28.7290  -15.7240 C   0  0  0  0  0  0  0  0  0  0  0  0
   36.4250   29.5180  -14.9110 O   0  0  0  0  0  0  0  0  0  0  0  0
   38.3970   28.1510  -15.3130 C   0  0  0  0  0  0  0  0  0  0  0  0
   38.9290   28.3540  -13.9650 C   0  0  0  0  0  0  0  0  0  0  0  0
   38.3460   29.0460  -13.1330 O   0  0  0  0  0  0  0  0  0  0  0  0
   40.2110   27.6950  -13.6270 C   0  0  0  0  0  0  0  0  0  0  0  0
   40.7120   27.9080  -12.3550 O   0  0  0  0  0  0  0  0  0  0  0  0
   43.1400   26.9030  -13.6620 C   0  0  0  0  0  0  0  0  0  0  0  0
   44.3870   26.2830  -13.4510 C   0  0  0  0  0  0  0  0  0  0  0  0
   45.4630   27.0290  -12.7050 C   0  0  0  0  0  0  0  0  0  0  0  0
   45.0100   28.1970  -12.1550 F   0  0  0  0  0  0  0  0  0  0  0  0
   46.4990   27.3980  -13.5140 F   0  0  0  0  0  0  0  0  0  0  0  0
   47.7515   25.3472  -13.9672 H   0  0  0  0  0  0  0  0  0  0  0  0
   47.3696   24.1417  -15.2431 H   0  0  0  0  0  0  0  0  0  0  0  0
   46.5496   25.7399  -15.2431 H   0  0  0  0  0  0  0  0  0  0  0  0
   45.3221   24.4886  -11.7391 H   0  0  0  0  0  0  0  0  0  0  0  0
   46.6561   23.3435  -12.1076 H   0  0  0  0  0  0  0  0  0  0  0  0
   46.9656   25.1129  -12.1076 H   0  0  0  0  0  0  0  0  0  0  0  0
   43.7522   23.3413  -15.0610 H   0  0  0  0  0  0  0  0  0  0  0  0
   41.5567   24.4480  -15.4053 H   0  0  0  0  0  0  0  0  0  0  0  0
   39.2352   26.5124  -18.1839 H   0  0  0  0  0  0  0  0  0  0  0  0
   37.0833   27.5437  -18.9212 H   0  0  0  0  0  0  0  0  0  0  0  0
   35.7729   28.9646  -17.3416 H   0  0  0  0  0  0  0  0  0  0  0  0
   35.5900   29.2140  -14.6150 H   0  0  0  0  0  0  0  0  0  0  0  0
   41.1110   27.2020  -11.8860 H   0  0  0  0  0  0  0  0  0  0  0  0
   42.9746   27.9205  -13.2781 H   0  0  0  0  0  0  0  0  0  0  0  0
   45.7865   26.3183  -11.9302 H   0  0  0  0  0  0  0  0  0  0  0  0
  1  2  1  0
  2  3  1  0
  2  4  1  0
  4  5  2  0
  5  6  1  0
  6  7  2  0
  7  8  1  0
  8  9  1  0
  9 10  1  0
 10 11  2  0
 11 12  1  0
 12 13  2  0
 13 14  1  0
 14 15  1  0
 14 16  2  0
 16 17  1  0
 17 18  2  0
 17 19  1  0
 19 20  1  0
  7 21  1  0
 21 22  2  0
 22 23  1  0
 23 24  1  0
 23 25  1  0
 22  4  1  0
 19  8  2  0
 16 10  1  0
  1 26  1  0
  1 27  1  0
  1 28  1  0
  3 29  1  0
  3 30  1  0
  3 31  1  0
  5 32  1  0
  6 33  1  0
 11 34  1  0
 12 35  1  0
 13 36  1  0
 15 37  1  0
 20 38  1  0
 21 39  1  0
 23 40  1  0
M  END
>  <meeko>  (2) 
{"is_sidechain": [false], "free_energy": -5.172, "intermolecular_energy": -7.099, "internal_energy": 1.284}

$$$$
cand_034_out
     RDKit          3D

 40 42  0  0  0  0  0  0  0  0999 V2000
   36.1330   29.5780  -17.8890 C   0  0  0  0  0  0  0  0  0  0  0  0
   36.4160   28.1460  -17.7480 N   0  0  0  0  0  0  0  0  0  0  0  0
   36.4820   27.4290  -19.0300 C   0  0  0  0  0  0  0  0  0  0  0  0
   37.5370   27.8420  -16.9440 C   0  0  0  0  0  0  0  0  0  0  0  0
   38.5190   26.9240  -17.3470 C   0  0  0  0  0  0  0  0  0  0  0  0
   39.6110   26.6210  -16.5240 C   0  0  0  0  0  0  0  0  0  0  0  0
   39.7550   27.2260  -15.2730 C   0  0  0  0  0  0  0  0  0  0  0  0
   40.8800   26.8990  -14.3710 C   0  0  0  0  0  0  0  0  0  0  0  0
   41.9470   26.3030  -15.0330 O   0  0  0  0  0  0  0  0  0  0  0  0
   43.0570   25.9430  -14.3130 C   0  0  0  0  0  0  0  0  0  0  0  0
   44.1080   25.3560  -15.0200 C   0  0  0  0  0  0  0  0  0  0  0  0
   45.2670   24.9650  -14.3470 C   0  0  0  0  0  0  0  0  0  0  0  0
   45.3760   25.1590  -12.9690 C   0  0  0  0  0  0  0  0  0  0  0  0
   44.3260   25.7430  -12.2650 C   0  0  0  0  0  0  0  0  0  0  0  0
   44.4970   25.9040  -10.9180 O   0  0  0  0  0  0  0  0  0  0  0  0
   43.1650   26.1360  -12.9400 C   0  0  0  0  0  0  0  0  0  0  0  0
   42.0380   26.7520  -12.2390 C   0  0  0  0  0  0  0  0  0  0  0  0
   42.0550   26.9500  -11.0260 O   0  0  0  0  0  0  0  0  0  0  0  0
   40.8570   27.1350  -13.0460 C   0  0  0  0  0  0  0  0  0  0  0  0
   39.7910   27.7020  -12.3710 O   0  0  0  0  0  0  0  0  0  0  0  0
   38.7680   28.1320  -14.8600 C   0  0  0  0  0  0  0  0  0  0  0  0
   37.6700   28.4540  -15.6830 C   0  0  0  0  0  0  0  0  0  0  0  0
   36.6400   29.4340  -15.1850 C   0  0  0  0  0  0  0  0  0  0  0  0
   37.0970   30.1960  -14.1440 F   0  0  0  0  0  0  0  0  0  0  0  0
   35.5210   28.8170  -14.7080 F   0  0  0  0  0  0  0  0  0  0  0  0
   36.0429   30.0339  -16.8920 H   0  0  0  0  0  0  0  0  0  0  0  0
   36.9530   30.0613  -18.4404 H   0  0  0  0  0  0  0  0  0  0  0  0
   35.1908   29.7130  -18.4404 H   0  0  0  0  0  0  0  0  0  0  0  0
   36.5813   26.3498  -18.8418 H   0  0  0  0  0  0  0  0  0  0  0  0
   35.5627   27.6181  -19.6036 H   0  0  0  0  0  0  0  0  0  0  0  0
   37.3514   27.7827  -19.6036 H   0  0  0  0  0  0  0  0  0  0  0  0
   38.4294   26.4333  -18.3274 H   0  0  0  0  0  0  0  0  0  0  0  0
   40.3650   25.8973  -16.8671 H   0  0  0  0  0  0  0  0  0  0  0  0
   44.0230   25.2018  -16.1058 H   0  0  0  0  0  0  0  0  0  0  0  0
   46.0958   24.5032  -14.9037 H   0  0  0  0  0  0  0  0  0  0  0  0
   46.2899   24.8510  -12.4400 H   0  0  0  0  0  0  0  0  0  0  0  0
   44.2100   25.2360  -10.3260 H   0  0  0  0  0  0  0  0  0  0  0  0
   39.9110   28.0330  -11.5030 H   0  0  0  0  0  0  0  0  0  0  0  0
   38.8526   28.6030  -13.8695 H   0  0  0  0  0  0  0  0  0  0  0  0
   36.4168   30.0519  -16.0672 H   0  0  0  0  0  0  0  0  0  0  0  0
  1  2  1  0
  2  3  1  0
  2  4  1  0
  4  5  2  0
  5  6  1  0
  6  7  2  0
  7  8  1  0
  8  9  1  0
  9 10  1  0
 10 11  2  0
 11 12  1  0
 12 13  2  0
 13 14  1  0
 14 15  1  0
 14 16  2  0
 16 17  1  0
 17 18  2  0
 17 19  1  0
 19 20  1  0
  7 21  1  0
 21 22  2  0
 22 23  1  0
 23 24  1  0
 23 25  1  0
 22  4  1  0
 19  8  2  0
 16 10  1  0
  1 26  1  0
  1 27  1  0
  1 28  1  0
  3 29  1  0
  3 30  1  0
  3 31  1  0
  5 32  1  0
  6 33  1  0
 11 34  1  0
 12 35  1  0
 13 36  1  0
 15 37  1  0
 20 38  1  0
 21 39  1  0
 23 40  1  0
M  END
>  <meeko>  (3) 
{"is_sidechain": [false], "free_energy": -3.797, "intermolecular_energy": -5.035, "internal_energy": 0.917}

$$$$
