cand_010_out
     RDKit          3D

 35 37  0  0  0  0  0  0  0  0999 V2000
   38.6090   26.7130  -18.7010 O   0  0  0  0  0  0  0  0  0  0  0  0
   38.9670   26.9280  -17.5440 C   0  0  0  0  0  0  0  0  0  0  0  0
   40.2200   26.3350  -17.0230 C   0  0  0  0  0  0  0  0  0  0  0  0
   40.9580   25.5530  -17.8940 O   0  0  0  0  0  0  0  0  0  0  0  0
   40.5770   26.5990  -15.7530 C   0  0  0  0  0  0  0  0  0  0  0  0
   41.8100   26.0700  -15.1330 C   0  0  0  0  0  0  0  0  0  0  0  0
   42.2860   24.7870  -15.4190 C   0  0  0  0  0  0  0  0  0  0  0  0
   43.4400   24.2970  -14.8010 C   0  0  0  0  0  0  0  0  0  0  0  0
   44.1460   25.0750  -13.8710 C   0  0  0  0  0  0  0  0  0  0  0  0
   45.3930   24.5120  -13.2300 C   0  0  0  0  0  0  0  0  0  0  0  0
   46.4320   24.3720  -14.1030 F   0  0  0  0  0  0  0  0  0  0  0  0
   43.6780   26.3730  -13.5670 C   0  0  0  0  0  0  0  0  0  0  0  0
   44.3970   27.2530  -12.5710 C   0  0  0  0  0  0  0  0  0  0  0  0
   45.7550   27.2110  -12.6750 F   0  0  0  0  0  0  0  0  0  0  0  0
   44.0550   28.5650  -12.6990 F   0  0  0  0  0  0  0  0  0  0  0  0
   44.1130   26.9200  -11.2820 F   0  0  0  0  0  0  0  0  0  0  0  0
   42.5100   26.8490  -14.1990 C   0  0  0  0  0  0  0  0  0  0  0  0
   39.8440   27.4110  -14.8940 O   0  0  0  0  0  0  0  0  0  0  0  0
   38.6750   27.9670  -15.3450 C   0  0  0  0  0  0  0  0  0  0  0  0
   37.9640   28.7630  -14.4460 C   0  0  0  0  0  0  0  0  0  0  0  0
   36.7660   29.3610  -14.8420 C   0  0  0  0  0  0  0  0  0  0  0  0
   36.2790   29.1630  -16.1350 C   0  0  0  0  0  0  0  0  0  0  0  0
   36.9890   28.3680  -17.0310 C   0  0  0  0  0  0  0  0  0  0  0  0
   36.4560   28.2180  -18.2820 O   0  0  0  0  0  0  0  0  0  0  0  0
   38.1890   27.7700  -16.6350 C   0  0  0  0  0  0  0  0  0  0  0  0
   41.8680   25.4020  -17.7310 H   0  0  0  0  0  0  0  0  0  0  0  0
   41.7456   24.1553  -16.1393 H   0  0  0  0  0  0  0  0  0  0  0  0
   43.7998   23.2871  -15.0473 H   0  0  0  0  0  0  0  0  0  0  0  0
   45.7055   25.1884  -12.4208 H   0  0  0  0  0  0  0  0  0  0  0  0
   45.1429   23.5078  -12.8572 H   0  0  0  0  0  0  0  0  0  0  0  0
   42.1390   27.8551  -13.9537 H   0  0  0  0  0  0  0  0  0  0  0  0
   38.3469   28.9192  -13.4267 H   0  0  0  0  0  0  0  0  0  0  0  0
   36.2053   29.9890  -14.1340 H   0  0  0  0  0  0  0  0  0  0  0  0
   35.3351   29.6346  -16.4459 H   0  0  0  0  0  0  0  0  0  0  0  0
   36.4620   28.9380  -18.8820 H   0  0  0  0  0  0  0  0  0  0  0  0
  1  2  2  0
  2  3  1  0
  3  4  1  0
  3  5  2  0
  5  6  1  0
  6  7  2  0
  7  8  1  0
  8  9  2  0
  9 10  1  0
 10 11  1  0
  9 12  1  0
 12 13  1  0
 13 14  1  0
 13 15  1  0
 13 16  1  0
 12 17  2  0
  5 18  1  0
 18 19  1  0
 19 20  2  0
 20 21  1  0
 21 22  2  0
 22 23  1  0
 23 24  1  0
 23 25  2  0
 25  2  1  0
 17  6  1  0
 25 19  1  0
  4 26  1  0
  7 27  1  0
  8 28  1  0
 10 29  1  0
 10 30  1  0
 17 31  1  0
 20 32  1  0
 21 33  1  0
 22 34  1  0
 24 35  1  0
M  END
>  <meeko>  (1) 
{"is_sidechain": [false], "free_energy": -7.482, "intermolecular_energy": -9.232, "internal_energy": 0.017}

$$$$
cand_010_out
     RDKit          3D

 35 37  0  0  0  0  0  0  0  0999 V2000
   41.3900   27.2940  -11.4070 O   0  0  0  0  0  0  0  0  0  0  0  0
   41.4940   26.9540  -12.5840 C   0  0  0  0  0  0  0  0  0  0  0  0
   40.3690   27.1550  -13.5260 C   0  0  0  0  0  0  0  0  0  0  0  0
   39.2250   27.7490  -13.0240 O   0  0  0  0  0  0  0  0  0  0  0  0
   40.5260   26.7710  -14.8060 C   0  0  0  0  0  0  0  0  0  0  0  0
   39.4760   26.9350  -15.8340 C   0  0  0  0  0  0  0  0  0  0  0  0
   39.3940   26.0870  -16.9430 C   0  0  0  0  0  0  0  0  0  0  0  0
   38.4090   26.2750  -17.9170 C   0  0  0  0  0  0  0  0  0  0  0  0
   37.4840   27.3250  -17.8130 C   0  0  0  0  0  0  0  0  0  0  0  0
   36.4300   27.4910  -18.8830 C   0  0  0  0  0  0  0  0  0  0  0  0
   36.5460   26.5880  -19.9000 F   0  0  0  0  0  0  0  0  0  0  0  0
   37.5540   28.1930  -16.7010 C   0  0  0  0  0  0  0  0  0  0  0  0
   36.5850   29.3420  -16.5400 C   0  0  0  0  0  0  0  0  0  0  0  0
   35.4170   29.1800  -17.2220 F   0  0  0  0  0  0  0  0  0  0  0  0
   36.2320   29.5420  -15.2400 F   0  0  0  0  0  0  0  0  0  0  0  0
   37.1040   30.5250  -16.9700 F   0  0  0  0  0  0  0  0  0  0  0  0
   38.5570   27.9890  -15.7300 C   0  0  0  0  0  0  0  0  0  0  0  0
   41.6910   26.2030  -15.3080 O   0  0  0  0  0  0  0  0  0  0  0  0
   42.7470   25.9950  -14.4580 C   0  0  0  0  0  0  0  0  0  0  0  0
   43.8910   25.4100  -15.0000 C   0  0  0  0  0  0  0  0  0  0  0  0
   45.0030   25.1720  -14.1890 C   0  0  0  0  0  0  0  0  0  0  0  0
   44.9700   25.5190  -12.8370 C   0  0  0  0  0  0  0  0  0  0  0  0
   43.8270   26.1030  -12.2980 C   0  0  0  0  0  0  0  0  0  0  0  0
   43.8630   26.4200  -10.9680 O   0  0  0  0  0  0  0  0  0  0  0  0
   42.7150   26.3410  -13.1100 C   0  0  0  0  0  0  0  0  0  0  0  0
   38.5730   27.2250  -12.6000 H   0  0  0  0  0  0  0  0  0  0  0  0
   40.1135   25.2618  -17.0502 H   0  0  0  0  0  0  0  0  0  0  0  0
   38.3584   25.5905  -18.7766 H   0  0  0  0  0  0  0  0  0  0  0  0
   35.4398   27.3695  -18.4195 H   0  0  0  0  0  0  0  0  0  0  0  0
   36.5635   28.4919  -19.3193 H   0  0  0  0  0  0  0  0  0  0  0  0
   38.6196   28.6731  -14.8709 H   0  0  0  0  0  0  0  0  0  0  0  0
   43.9176   25.1363  -16.0651 H   0  0  0  0  0  0  0  0  0  0  0  0
   45.9057   24.7107  -14.6159 H   0  0  0  0  0  0  0  0  0  0  0  0
   45.8459   25.3312  -12.1986 H   0  0  0  0  0  0  0  0  0  0  0  0
   43.1320   26.8500  -10.5690 H   0  0  0  0  0  0  0  0  0  0  0  0
  1  2  2  0
  2  3  1  0
  3  4  1  0
  3  5  2  0
  5  6  1  0
  6  7  2  0
  7  8  1  0
  8  9  2  0
  9 10  1  0
 10 11  1  0
  9 12  1  0
 12 13  1  0
 13 14  1  0
 13 15  1  0
 13 16  1  0
 12 17  2  0
  5 18  1  0
 18 19  1  0
 19 20  2  0
 20 21  1  0
 21 22  2  0
 22 23  1  0
 23 24  1  0
 23 25  2  0
 25  2  1  0
 17  6  1  0
 25 19  1  0
  4 26  1  0
  7 27  1  0
  8 28  1  0
 10 29  1  0
 10 30  1  0
 17 31  1  0
 20 32  1  0
 21 33  1  0
 22 34  1  0
 24 35  1  0
M  END
>  <meeko>  (2) 
{"is_sidechain": [false], "free_energy": -6.899, "intermolecular_energy": -8.966, "internal_energy": 0.471}

$$$$
cand_010_out
     RDKit          3D

 35 37  0  0  0  0  0  0  0  0999 V2000
   38.3740   29.0410  -13.1390 O   0  0  0  0  0  0  0  0  0  0  0  0
   38.9320   28.3500  -13.9890 C   0  0  0  0  0  0  0  0  0  0  0  0
   40.2120   27.6720  -13.6840 C   0  0  0  0  0  0  0  0  0  0  0  0
   40.7290   27.8420  -12.4120 O   0  0  0  0  0  0  0  0  0  0  0  0
   40.7870   26.9230  -14.6430 C   0  0  0  0  0  0  0  0  0  0  0  0
   42.0580   26.1930  -14.4460 C   0  0  0  0  0  0  0  0  0  0  0  0
   42.1550   24.8140  -14.6560 C   0  0  0  0  0  0  0  0  0  0  0  0
   43.3600   24.1400  -14.4380 C   0  0  0  0  0  0  0  0  0  0  0  0
   44.5000   24.8260  -13.9940 C   0  0  0  0  0  0  0  0  0  0  0  0
   45.7860   24.0620  -13.7770 C   0  0  0  0  0  0  0  0  0  0  0  0
   46.8080   24.4880  -14.5740 F   0  0  0  0  0  0  0  0  0  0  0  0
   44.4200   26.2190  -13.7730 C   0  0  0  0  0  0  0  0  0  0  0  0
   45.6160   27.0080  -13.2920 C   0  0  0  0  0  0  0  0  0  0  0  0
   46.3660   26.3590  -12.3580 F   0  0  0  0  0  0  0  0  0  0  0  0
   46.4710   27.3180  -14.3050 F   0  0  0  0  0  0  0  0  0  0  0  0
   45.2630   28.1950  -12.7270 F   0  0  0  0  0  0  0  0  0  0  0  0
   43.1950   26.8810  -13.9960 C   0  0  0  0  0  0  0  0  0  0  0  0
   40.2450   26.7330  -15.9090 O   0  0  0  0  0  0  0  0  0  0  0  0
   39.0650   27.3560  -16.2240 C   0  0  0  0  0  0  0  0  0  0  0  0
   38.5640   27.1500  -17.5100 C   0  0  0  0  0  0  0  0  0  0  0  0
   37.3650   27.7530  -17.8950 C   0  0  0  0  0  0  0  0  0  0  0  0
   36.6680   28.5620  -16.9960 C   0  0  0  0  0  0  0  0  0  0  0  0
   37.1700   28.7670  -15.7130 C   0  0  0  0  0  0  0  0  0  0  0  0
   36.4360   29.5690  -14.8820 O   0  0  0  0  0  0  0  0  0  0  0  0
   38.3690   28.1630  -15.3270 C   0  0  0  0  0  0  0  0  0  0  0  0
   40.7140   28.6890  -12.0100 H   0  0  0  0  0  0  0  0  0  0  0  0
   41.2724   24.2528  -14.9968 H   0  0  0  0  0  0  0  0  0  0  0  0
   43.4150   23.0561  -14.6172 H   0  0  0  0  0  0  0  0  0  0  0  0
   46.0897   24.1809  -12.7265 H   0  0  0  0  0  0  0  0  0  0  0  0
   45.5881   23.0112  -14.0350 H   0  0  0  0  0  0  0  0  0  0  0  0
   43.1292   27.9636  -13.8126 H   0  0  0  0  0  0  0  0  0  0  0  0
   39.1130   26.5134  -18.2195 H   0  0  0  0  0  0  0  0  0  0  0  0
   36.9690   27.5903  -18.9083 H   0  0  0  0  0  0  0  0  0  0  0  0
   35.7236   29.0369  -17.3003 H   0  0  0  0  0  0  0  0  0  0  0  0
   36.8420   30.2980  -14.4570 H   0  0  0  0  0  0  0  0  0  0  0  0
  1  2  2  0
  2  3  1  0
  3  4  1  0
  3  5  2  0
  5  6  1  0
  6  7  2  0
  7  8  1  0
  8  9  2  0
  9 10  1  0
 10 11  1  0
  9 12  1  0
 12 13  1  0
 13 14  1  0
 13 15  1  0
 13 16  1  0
 12 17  2  0
  5 18  1  0
 18 19  1  0
 19 20  2  0
 20 21  1  0
 21 22  2  0
 22 23  1  0
 23 24  1  0
 23 25  2  0
 25  2  1  0
 17  6  1  0
 25 19  1  0
  4 26  1  0
  7 27  1  0
  8 28  1  0
 10 29  1  0
 10 30  1  0
 17 31  1  0
 20 32  1  0
 21 33  1  0
 22 34  1  0
 24 35  1  0
M  END
>  <meeko>  (3) 
{"is_sidechain": [false], "free_energy": -6.704, "intermolecular_energy": -8.167, "internal_energy": -0.088}

$$$$
cand_010_out
     RDKit          3D

 35 37  0  0  0  0  0  0  0  0999 V2000
   41.6720   27.0550  -10.7780 O   0  0  0  0  0  0  0  0  0  0  0  0
   41.5840   26.9950  -12.0030 C   0  0  0  0  0  0  0  0  0  0  0  0
   40.3780   27.5060  -12.6950 C   0  0  0  0  0  0  0  0  0  0  0  0
   39.3840   28.0570  -11.9070 O   0  0  0  0  0  0  0  0  0  0  0  0
   40.3250   27.4250  -14.0370 C   0  0  0  0  0  0  0  0  0  0  0  0
   39.1780   27.9130  -14.8320 C   0  0  0  0  0  0  0  0  0  0  0  0
   38.3230   28.9110  -14.3540 C   0  0  0  0  0  0  0  0  0  0  0  0
   37.2280   29.3390  -15.1110 C   0  0  0  0  0  0  0  0  0  0  0  0
   36.9530   28.7740  -16.3650 C   0  0  0  0  0  0  0  0  0  0  0  0
   35.7650   29.2690  -17.1550 C   0  0  0  0  0  0  0  0  0  0  0  0
   36.0410   30.3710  -17.9110 F   0  0  0  0  0  0  0  0  0  0  0  0
   37.8050   27.7630  -16.8630 C   0  0  0  0  0  0  0  0  0  0  0  0
   37.5540   27.1160  -18.2060 C   0  0  0  0  0  0  0  0  0  0  0  0
   36.4350   27.5700  -18.8370 F   0  0  0  0  0  0  0  0  0  0  0  0
   38.5810   27.3200  -19.0770 F   0  0  0  0  0  0  0  0  0  0  0  0
   37.4080   25.7660  -18.1150 F   0  0  0  0  0  0  0  0  0  0  0  0
   38.9020   27.3420  -16.0830 C   0  0  0  0  0  0  0  0  0  0  0  0
   41.3420   26.8970  -14.8240 O   0  0  0  0  0  0  0  0  0  0  0  0
   42.4670   26.4070  -14.2110 C   0  0  0  0  0  0  0  0  0  0  0  0
   43.4570   25.8740  -15.0370 C   0  0  0  0  0  0  0  0  0  0  0  0
   44.6280   25.3590  -14.4770 C   0  0  0  0  0  0  0  0  0  0  0  0
   44.8100   25.3780  -13.0930 C   0  0  0  0  0  0  0  0  0  0  0  0
   43.8200   25.9110  -12.2700 C   0  0  0  0  0  0  0  0  0  0  0  0
   44.0630   25.8990  -10.9240 O   0  0  0  0  0  0  0  0  0  0  0  0
   42.6480   26.4260  -12.8310 C   0  0  0  0  0  0  0  0  0  0  0  0
   39.4590   28.9430  -11.6100 H   0  0  0  0  0  0  0  0  0  0  0  0
   38.5142   29.3649  -13.3704 H   0  0  0  0  0  0  0  0  0  0  0  0
   36.5729   30.1301  -14.7174 H   0  0  0  0  0  0  0  0  0  0  0  0
   35.4294   28.4623  -17.8232 H   0  0  0  0  0  0  0  0  0  0  0  0
   34.9889   29.5568  -16.4305 H   0  0  0  0  0  0  0  0  0  0  0  0
   39.5576   26.5458  -16.4654 H   0  0  0  0  0  0  0  0  0  0  0  0
   43.3154   25.8595  -16.1277 H   0  0  0  0  0  0  0  0  0  0  0  0
   45.4085   24.9376  -15.1276 H   0  0  0  0  0  0  0  0  0  0  0  0
   45.7332   24.9730  -12.6530 H   0  0  0  0  0  0  0  0  0  0  0  0
   43.3930   25.6230  -10.3300 H   0  0  0  0  0  0  0  0  0  0  0  0
  1  2  2  0
  2  3  1  0
  3  4  1  0
  3  5  2  0
  5  6  1  0
  6  7  2  0
  7  8  1  0
  8  9  2  0
  9 10  1  0
 10 11  1  0
  9 12  1  0
 12 13  1  0
 13 14  1  0
 13 15  1  0
 13 16  1  0
 12 17  2  0
  5 18  1  0
 18 19  1  0
 19 20  2  0
 20 21  1  0
 21 22  2  0
 22 23  1  0
 23 24  1  0
 23 25  2  0
 25  2  1  0
 17  6  1  0
 25 19  1  0
  4 26  1  0
  7 27  1  0
  8 28  1  0
 10 29  1  0
 10 30  1  0
 17 31  1  0
 20 32  1  0
 21 33  1  0
 22 34  1  0
 24 35  1  0
M  END
>  <meeko>  (4) 
{"is_sidechain": [false], "free_energy": -6.253, "intermolecular_energy": -8.222, "internal_energy": 0.523}

$$$$
cand_010_out
     RDKit          3D

 35 37  0  0  0  0  0  0  0  0999 V2000
   37.6430   29.3050  -14.1860 O   0  0  0  0  0  0  0  0  0  0  0  0
   38.2620   28.5170  -14.8990 C   0  0  0  0  0  0  0  0  0  0  0  0
   39.5380   27.9260  -14.4330 C   0  0  0  0  0  0  0  0  0  0  0  0
   39.9780   28.2890  -13.1730 O   0  0  0  0  0  0  0  0  0  0  0  0
   40.1810   27.0650  -15.2430 C   0  0  0  0  0  0  0  0  0  0  0  0
   41.4540   26.4080  -14.8770 C   0  0  0  0  0  0  0  0  0  0  0  0
   41.7980   25.1450  -15.3700 C   0  0  0  0  0  0  0  0  0  0  0  0
   42.9950   24.5300  -14.9890 C   0  0  0  0  0  0  0  0  0  0  0  0
   43.8760   25.1580  -14.0970 C   0  0  0  0  0  0  0  0  0  0  0  0
   45.1630   24.4630  -13.7160 C   0  0  0  0  0  0  0  0  0  0  0  0
   45.2480   24.1750  -12.3850 F   0  0  0  0  0  0  0  0  0  0  0  0
   43.5440   26.4320  -13.5870 C   0  0  0  0  0  0  0  0  0  0  0  0
   44.4550   27.1540  -12.6200 C   0  0  0  0  0  0  0  0  0  0  0  0
   44.3230   28.5090  -12.6430 F   0  0  0  0  0  0  0  0  0  0  0  0
   44.2370   26.7800  -11.3280 F   0  0  0  0  0  0  0  0  0  0  0  0
   45.7710   26.9040  -12.8610 F   0  0  0  0  0  0  0  0  0  0  0  0
   42.3310   27.0360  -13.9790 C   0  0  0  0  0  0  0  0  0  0  0  0
   39.7160   26.6830  -16.4960 O   0  0  0  0  0  0  0  0  0  0  0  0
   38.5420   27.2200  -16.9580 C   0  0  0  0  0  0  0  0  0  0  0  0
   38.1190   26.8200  -18.2260 C   0  0  0  0  0  0  0  0  0  0  0  0
   36.9310   27.3280  -18.7560 C   0  0  0  0  0  0  0  0  0  0  0  0
   36.1670   28.2360  -18.0200 C   0  0  0  0  0  0  0  0  0  0  0  0
   36.5920   28.6340  -16.7550 C   0  0  0  0  0  0  0  0  0  0  0  0
   35.7960   29.5240  -16.0870 O   0  0  0  0  0  0  0  0  0  0  0  0
   37.7800   28.1250  -16.2240 C   0  0  0  0  0  0  0  0  0  0  0  0
   39.3800   28.6670  -12.5590 H   0  0  0  0  0  0  0  0  0  0  0  0
   41.1193   24.6295  -16.0654 H   0  0  0  0  0  0  0  0  0  0  0  0
   43.2489   23.5396  -15.3949 H   0  0  0  0  0  0  0  0  0  0  0  0
   45.2323   23.5222  -14.2818 H   0  0  0  0  0  0  0  0  0  0  0  0
   45.9874   25.1515  -13.9533 H   0  0  0  0  0  0  0  0  0  0  0  0
   42.0661   28.0227  -13.5712 H   0  0  0  0  0  0  0  0  0  0  0  0
   38.7204   26.1056  -18.8073 H   0  0  0  0  0  0  0  0  0  0  0  0
   36.5965   27.0122  -19.7552 H   0  0  0  0  0  0  0  0  0  0  0  0
   35.2316   28.6360  -18.4385 H   0  0  0  0  0  0  0  0  0  0  0  0
   34.8650   29.4930  -16.1960 H   0  0  0  0  0  0  0  0  0  0  0  0
  1  2  2  0
  2  3  1  0
  3  4  1  0
  3  5  2  0
  5  6  1  0
  6  7  2  0
  7  8  1  0
  8  9  2  0
  9 10  1  0
 10 11  1  0
  9 12  1  0
 12 13  1  0
 13 14  1  0
 13 15  1  0
 13 16  1  0
 12 17  2  0
  5 18  1  0
 18 19  1  0
 19 20  2  0
 20 21  1  0
 21 22  2  0
 22 23  1  0
 23 24  1  0
 23 25  2  0
 25  2  1  0
 17  6  1  0
 25 19  1  0
  4 26  1  0
  7 27  1  0
  8 28  1  0
 10 29  1  0
 10 30  1  0
 17 31  1  0
 20 32  1  0
 21 33  1  0
 22 34  1  0
 24 35  1  0
M  END
>  <meeko>  (5) 
{"is_sidechain": [false], "free_energy": -5.931, "intermolecular_energy": -7.664, "internal_energy": 0.363}

$$$$
cand_010_out
     RDKit          3D

 35 37  0  0  0  0  0  0  0  0999 V2000
   36.9480   29.7730  -14.5290 O   0  0  0  0  0  0  0  0  0  0  0  0
   37.7550   28.9260  -14.9090 C   0  0  0  0  0  0  0  0  0  0  0  0
   38.9060   28.5500  -14.0570 C   0  0  0  0  0  0  0  0  0  0  0  0
   39.0150   29.1780  -12.8300 O   0  0  0  0  0  0  0  0  0  0  0  0
   39.7630   27.6160  -14.5100 C   0  0  0  0  0  0  0  0  0  0  0  0
   40.9390   27.1560  -13.7410 C   0  0  0  0  0  0  0  0  0  0  0  0
   41.0650   27.4050  -12.3710 C   0  0  0  0  0  0  0  0  0  0  0  0
   42.1980   26.9840  -11.6680 C   0  0  0  0  0  0  0  0  0  0  0  0
   43.2410   26.3090  -12.3190 C   0  0  0  0  0  0  0  0  0  0  0  0
   44.4460   25.8640  -11.5230 C   0  0  0  0  0  0  0  0  0  0  0  0
   45.5810   26.5560  -11.8290 F   0  0  0  0  0  0  0  0  0  0  0  0
   43.1320   26.0510  -13.7040 C   0  0  0  0  0  0  0  0  0  0  0  0
   44.2270   25.3300  -14.4570 C   0  0  0  0  0  0  0  0  0  0  0  0
   44.6040   24.1510  -13.8880 F   0  0  0  0  0  0  0  0  0  0  0  0
   43.8630   25.0280  -15.7340 F   0  0  0  0  0  0  0  0  0  0  0  0
   45.3630   26.0730  -14.5600 F   0  0  0  0  0  0  0  0  0  0  0  0
   41.9830   26.4860  -14.3960 C   0  0  0  0  0  0  0  0  0  0  0  0
   39.6290   26.9670  -15.7320 O   0  0  0  0  0  0  0  0  0  0  0  0
   38.5770   27.3010  -16.5470 C   0  0  0  0  0  0  0  0  0  0  0  0
   38.4890   26.6360  -17.7700 C   0  0  0  0  0  0  0  0  0  0  0  0
   37.4410   26.9270  -18.6470 C   0  0  0  0  0  0  0  0  0  0  0  0
   36.4840   27.8820  -18.3010 C   0  0  0  0  0  0  0  0  0  0  0  0
   36.5740   28.5450  -17.0790 C   0  0  0  0  0  0  0  0  0  0  0  0
   35.6030   29.4680  -16.8030 O   0  0  0  0  0  0  0  0  0  0  0  0
   37.6230   28.2540  -16.2020 C   0  0  0  0  0  0  0  0  0  0  0  0
   39.5990   29.9050  -12.7260 H   0  0  0  0  0  0  0  0  0  0  0  0
   40.2631   27.9386  -11.8397 H   0  0  0  0  0  0  0  0  0  0  0  0
   42.2724   27.1850  -10.5891 H   0  0  0  0  0  0  0  0  0  0  0  0
   44.2292   26.0044  -10.4537 H   0  0  0  0  0  0  0  0  0  0  0  0
   44.6304   24.8090  -11.7739 H   0  0  0  0  0  0  0  0  0  0  0  0
   41.9033   26.2952  -15.4764 H   0  0  0  0  0  0  0  0  0  0  0  0
   39.2435   25.8837  -18.0435 H   0  0  0  0  0  0  0  0  0  0  0  0
   37.3701   26.4027  -19.6114 H   0  0  0  0  0  0  0  0  0  0  0  0
   35.6596   28.1110  -18.9923 H   0  0  0  0  0  0  0  0  0  0  0  0
   34.7560   29.3880  -17.1970 H   0  0  0  0  0  0  0  0  0  0  0  0
  1  2  2  0
  2  3  1  0
  3  4  1  0
  3  5  2  0
  5  6  1  0
  6  7  2  0
  7  8  1  0
  8  9  2  0
  9 10  1  0
 10 11  1  0
  9 12  1  0
 12 13  1  0
 13 14  1  0
 13 15  1  0
 13 16  1  0
 12 17  2  0
  5 18  1  0
 18 19  1  0
 19 20  2  0
 20 21  1  0
 21 22  2  0
 22 23  1  0
 23 24  1  0
 23 25  2  0
 25  2  1  0
 17  6  1  0
 25 19  1  0
  4 26  1  0
  7 27  1  0
  8 28  1  0
 10 29  1  0
 10 30  1  0
 17 31  1  0
 20 32  1  0
 21 33  1  0
 22 34  1  0
 24 35  1  0
M  END
>  <meeko>  (6) 
{"is_sidechain": [false], "free_energy": -5.459, "intermolecular_energy": -6.852, "internal_energy": 0.134}

$$$$
cand_010_out
     RDKit          3D

 35 37  0  0  0  0  0  0  0  0999 V2000
   38.9200   26.1710  -18.4870 O   0  0  0  0  0  0  0  0  0  0  0  0
   38.9620   26.7240  -17.3900 C   0  0  0  0  0  0  0  0  0  0  0  0
   40.0660   26.4350  -16.4450 C   0  0  0  0  0  0  0  0  0  0  0  0
   41.0340   25.5390  -16.8610 O   0  0  0  0  0  0  0  0  0  0  0  0
   40.0750   27.0650  -15.2560 C   0  0  0  0  0  0  0  0  0  0  0  0
   41.1320   26.8630  -14.2420 C   0  0  0  0  0  0  0  0  0  0  0  0
   40.9800   27.3010  -12.9230 C   0  0  0  0  0  0  0  0  0  0  0  0
   42.0020   27.1230  -11.9860 C   0  0  0  0  0  0  0  0  0  0  0  0
   43.2110   26.5080  -12.3470 C   0  0  0  0  0  0  0  0  0  0  0  0
   44.2890   26.3270  -11.3040 C   0  0  0  0  0  0  0  0  0  0  0  0
   45.4320   27.0190  -11.5830 F   0  0  0  0  0  0  0  0  0  0  0  0
   43.3830   26.0610  -13.6760 C   0  0  0  0  0  0  0  0  0  0  0  0
   44.6660   25.3950  -14.1200 C   0  0  0  0  0  0  0  0  0  0  0  0
   45.1210   24.4440  -13.2580 F   0  0  0  0  0  0  0  0  0  0  0  0
   44.5350   24.7750  -15.3250 F   0  0  0  0  0  0  0  0  0  0  0  0
   45.6880   26.2820  -14.2680 F   0  0  0  0  0  0  0  0  0  0  0  0
   42.3420   26.2530  -14.6070 C   0  0  0  0  0  0  0  0  0  0  0  0
   39.1140   27.9870  -14.8580 O   0  0  0  0  0  0  0  0  0  0  0  0
   38.0750   28.2690  -15.7080 C   0  0  0  0  0  0  0  0  0  0  0  0
   37.1250   29.1890  -15.2640 C   0  0  0  0  0  0  0  0  0  0  0  0
   36.0420   29.5210  -16.0810 C   0  0  0  0  0  0  0  0  0  0  0  0
   35.9100   28.9340  -17.3410 C   0  0  0  0  0  0  0  0  0  0  0  0
   36.8590   28.0160  -17.7820 C   0  0  0  0  0  0  0  0  0  0  0  0
   36.6690   27.4810  -19.0270 O   0  0  0  0  0  0  0  0  0  0  0  0
   37.9420   27.6830  -16.9640 C   0  0  0  0  0  0  0  0  0  0  0  0
   41.8820   25.8500  -17.1130 H   0  0  0  0  0  0  0  0  0  0  0  0
   40.0440   27.7921  -12.6186 H   0  0  0  0  0  0  0  0  0  0  0  0
   41.8568   27.4695  -10.9521 H   0  0  0  0  0  0  0  0  0  0  0  0
   43.8991   26.6729  -10.3353 H   0  0  0  0  0  0  0  0  0  0  0  0
   44.5507   25.2587  -11.2880 H   0  0  0  0  0  0  0  0  0  0  0  0
   42.4816   25.9165  -15.6449 H   0  0  0  0  0  0  0  0  0  0  0  0
   37.2287   29.6523  -14.2718 H   0  0  0  0  0  0  0  0  0  0  0  0
   35.2921   30.2458  -15.7314 H   0  0  0  0  0  0  0  0  0  0  0  0
   35.0572   29.1966  -17.9843 H   0  0  0  0  0  0  0  0  0  0  0  0
   36.4790   26.5680  -19.1190 H   0  0  0  0  0  0  0  0  0  0  0  0
  1  2  2  0
  2  3  1  0
  3  4  1  0
  3  5  2  0
  5  6  1  0
  6  7  2  0
  7  8  1  0
  8  9  2  0
  9 10  1  0
 10 11  1  0
  9 12  1  0
 12 13  1  0
 13 14  1  0
 13 15  1  0
 13 16  1  0
 12 17  2  0
  5 18  1  0
 18 19  1  0
 19 20  2  0
 20 21  1  0
 21 22  2  0
 22 23  1  0
 23 24  1  0
 23 25  2  0
 25  2  1  0
 17  6  1  0
 25 19  1  0
  4 26  1  0
  7 27  1  0
  8 28  1  0
 10 29  1  0
 10 30  1  0
 17 31  1  0
 20 32  1  0
 21 33  1  0
 22 34  1  0
 24 35  1  0
M  END
>  <meeko>  (7) 
{"is_sidechain": [false], "free_energy": -5.123, "intermolecular_energy": -6.584, "internal_energy": 0.28}

$$$$
cand_010_out
     RDKit          3D

 35 37  0  0  0  0  0  0  0  0999 V2000
   43.5640   25.4290  -15.5340 O   0  0  0  0  0  0  0  0  0  0  0  0
   42.4930   25.9160  -15.1740 C   0  0  0  0  0  0  0  0  0  0  0  0
   41.3980   26.1250  -16.1480 C   0  0  0  0  0  0  0  0  0  0  0  0
   41.6330   25.7370  -17.4550 O   0  0  0  0  0  0  0  0  0  0  0  0
   40.2420   26.6570  -15.7100 C   0  0  0  0  0  0  0  0  0  0  0  0
   39.0790   26.8990  -16.5910 C   0  0  0  0  0  0  0  0  0  0  0  0
   38.8010   26.0760  -17.6870 C   0  0  0  0  0  0  0  0  0  0  0  0
   37.7120   26.3390  -18.5220 C   0  0  0  0  0  0  0  0  0  0  0  0
   36.8740   27.4400  -18.2890 C   0  0  0  0  0  0  0  0  0  0  0  0
   35.7020   27.6860  -19.2100 C   0  0  0  0  0  0  0  0  0  0  0  0
   35.7020   26.8800  -20.3110 F   0  0  0  0  0  0  0  0  0  0  0  0
   37.1410   28.2840  -17.1880 C   0  0  0  0  0  0  0  0  0  0  0  0
   36.2730   29.4860  -16.8920 C   0  0  0  0  0  0  0  0  0  0  0  0
   35.1250   29.5330  -17.6240 F   0  0  0  0  0  0  0  0  0  0  0  0
   35.8840   29.5340  -15.5880 F   0  0  0  0  0  0  0  0  0  0  0  0
   36.9150   30.6630  -17.1310 F   0  0  0  0  0  0  0  0  0  0  0  0
   38.2470   28.0050  -16.3590 C   0  0  0  0  0  0  0  0  0  0  0  0
   40.0040   27.0160  -14.3890 O   0  0  0  0  0  0  0  0  0  0  0  0
   41.0020   26.8430  -13.4650 C   0  0  0  0  0  0  0  0  0  0  0  0
   40.7260   27.2290  -12.1540 C   0  0  0  0  0  0  0  0  0  0  0  0
   41.6990   27.0780  -11.1630 C   0  0  0  0  0  0  0  0  0  0  0  0
   42.9470   26.5410  -11.4850 C   0  0  0  0  0  0  0  0  0  0  0  0
   43.2210   26.1570  -12.7940 C   0  0  0  0  0  0  0  0  0  0  0  0
   44.4630   25.6370  -13.0390 O   0  0  0  0  0  0  0  0  0  0  0  0
   42.2470   26.3080  -13.7850 C   0  0  0  0  0  0  0  0  0  0  0  0
   40.9130   25.6020  -18.0400 H   0  0  0  0  0  0  0  0  0  0  0  0
   39.4478   25.2107  -17.8943 H   0  0  0  0  0  0  0  0  0  0  0  0
   37.5088   25.6736  -19.3740 H   0  0  0  0  0  0  0  0  0  0  0  0
   34.7732   27.5091  -18.6479 H   0  0  0  0  0  0  0  0  0  0  0  0
   35.7799   28.7238  -19.5661 H   0  0  0  0  0  0  0  0  0  0  0  0
   38.4628   28.6703  -15.5100 H   0  0  0  0  0  0  0  0  0  0  0  0
   39.7429   27.6521  -11.9002 H   0  0  0  0  0  0  0  0  0  0  0  0
   41.4818   27.3823  -10.1285 H   0  0  0  0  0  0  0  0  0  0  0  0
   43.7129   26.4216  -10.7045 H   0  0  0  0  0  0  0  0  0  0  0  0
   44.6880   25.3500  -13.9030 H   0  0  0  0  0  0  0  0  0  0  0  0
  1  2  2  0
  2  3  1  0
  3  4  1  0
  3  5  2  0
  5  6  1  0
  6  7  2  0
  7  8  1  0
  8  9  2  0
  9 10  1  0
 10 11  1  0
  9 12  1  0
 12 13  1  0
 13 14  1  0
 13 15  1  0
 13 16  1  0
 12 17  2  0
  5 18  1  0
 18 19  1  0
 19 20  2  0
 20 21  1  0
 21 22  2  0
 22 23  1  0
 23 24  1  0
 23 25  2  0
 25  2  1  0
 17  6  1  0
 25 19  1  0
  4 26  1  0
  7 27  1  0
  8 28  1  0
 10 29  1  0
 10 30  1  0
 17 31  1  0
 20 32  1  0
 21 33  1  0
 22 34  1  0
 24 35  1  0
M  END
>  <meeko>  (8) 
{"is_sidechain": [false], "free_energy": -5.05, "intermolecular_energy": -6.707, "internal_energy": 0.493}

$$$$
