cand_018_out
     RDKit          3D

 44 47  0  0  0  0  0  0  0  0999 V2000
   44.5090   25.8380  -11.3670 C   0  0  0  0  0  0  0  0  0  0  0  0
   43.3340   26.2840  -12.1950 C   0  0  0  0  0  0  0  0  0  0  0  0
   42.1620   26.7100  -11.5520 C   0  0  0  0  0  0  0  0  0  0  0  0
   41.0570   27.1320  -12.2920 C   0  0  0  0  0  0  0  0  0  0  0  0
   41.1020   27.1520  -13.6900 C   0  0  0  0  0  0  0  0  0  0  0  0
   39.9160   27.5870  -14.4580 C   0  0  0  0  0  0  0  0  0  0  0  0
   39.7970   26.9340  -15.6810 O   0  0  0  0  0  0  0  0  0  0  0  0
   38.7380   27.2430  -16.4970 C   0  0  0  0  0  0  0  0  0  0  0  0
   38.6670   26.5760  -17.7210 C   0  0  0  0  0  0  0  0  0  0  0  0
   37.6150   26.8420  -18.5980 C   0  0  0  0  0  0  0  0  0  0  0  0
   36.6330   27.7730  -18.2530 C   0  0  0  0  0  0  0  0  0  0  0  0
   36.7060   28.4370  -17.0310 C   0  0  0  0  0  0  0  0  0  0  0  0
   35.7130   29.3360  -16.7550 O   0  0  0  0  0  0  0  0  0  0  0  0
   37.7610   28.1700  -16.1530 C   0  0  0  0  0  0  0  0  0  0  0  0
   37.8770   28.8460  -14.8600 C   0  0  0  0  0  0  0  0  0  0  0  0
   37.0490   29.6730  -14.4820 O   0  0  0  0  0  0  0  0  0  0  0  0
   39.0360   28.4990  -14.0060 C   0  0  0  0  0  0  0  0  0  0  0  0
   39.1270   29.1340  -12.7810 O   0  0  0  0  0  0  0  0  0  0  0  0
   42.2750   26.7200  -14.3290 C   0  0  0  0  0  0  0  0  0  0  0  0
   43.3990   26.2840  -13.6030 C   0  0  0  0  0  0  0  0  0  0  0  0
   44.5900   25.8880  -14.2370 N   0  0  0  0  0  0  0  0  0  0  0  0
   45.0380   24.5520  -13.7970 C   0  0  0  0  0  0  0  0  0  0  0  0
   46.5560   24.6140  -13.9080 C   0  0  0  0  0  0  0  0  0  0  0  0
   46.8510   26.0460  -13.5020 C   0  0  0  0  0  0  0  0  0  0  0  0
   45.7260   26.8240  -14.1790 C   0  0  0  0  0  0  0  0  0  0  0  0
   44.2618   25.9318  -10.2992 H   0  0  0  0  0  0  0  0  0  0  0  0
   44.7432   24.7884  -11.5983 H   0  0  0  0  0  0  0  0  0  0  0  0
   45.3807   26.4678  -11.5983 H   0  0  0  0  0  0  0  0  0  0  0  0
   42.1138   26.7113  -10.4531 H   0  0  0  0  0  0  0  0  0  0  0  0
   40.1423   27.4518  -11.7714 H   0  0  0  0  0  0  0  0  0  0  0  0
   39.4393   25.8417  -17.9938 H   0  0  0  0  0  0  0  0  0  0  0  0
   37.5590   26.3173  -19.5632 H   0  0  0  0  0  0  0  0  0  0  0  0
   35.8037   27.9814  -18.9449 H   0  0  0  0  0  0  0  0  0  0  0  0
   35.8180   29.9490  -16.0550 H   0  0  0  0  0  0  0  0  0  0  0  0
   39.0250   28.6430  -11.9900 H   0  0  0  0  0  0  0  0  0  0  0  0
   42.3167   26.7224  -15.4282 H   0  0  0  0  0  0  0  0  0  0  0  0
   44.7299   24.3591  -12.7588 H   0  0  0  0  0  0  0  0  0  0  0  0
   44.6033   23.7411  -14.4000 H   0  0  0  0  0  0  0  0  0  0  0  0
   47.0352   23.8989  -13.2232 H   0  0  0  0  0  0  0  0  0  0  0  0
   46.9360   24.3518  -14.9064 H   0  0  0  0  0  0  0  0  0  0  0  0
   46.8135   26.1644  -12.4090 H   0  0  0  0  0  0  0  0  0  0  0  0
   47.8553   26.3854  -13.7957 H   0  0  0  0  0  0  0  0  0  0  0  0
   45.4628   27.7140  -13.5885 H   0  0  0  0  0  0  0  0  0  0  0  0
   46.0162   27.1809  -15.1782 H   0  0  0  0  0  0  0  0  0  0  0  0
  1  2  1  0
  2  3  2  0
  3  4  1  0
  4  5  2  0
  5  6  1  0
  6  7  1  0
  7  8  1  0
  8  9  2  0
  9 10  1  0
 10 11  2  0
 11 12  1  0
 12 13  1  0
 12 14  2  0
 14 15  1  0
 15 16  2  0
 15 17  1  0
 17 18  1  0
  5 19  1  0
 19 20  2  0
 20 21  1  0
 21 22  1  0
 22 23  1  0
 23 24  1  0
 24 25  1  0
 20  2  1  0
 25 21  1  0
 17  6  2  0
 14  8  1  0
  1 26  1  0
  1 27  1  0
  1 28  1  0
  3 29  1  0
  4 30  1  0
  9 31  1  0
 10 32  1  0
 11 33  1  0
 13 34  1  0
 18 35  1  0
 19 36  1  0
 22 37  1  0
 22 38  1  0
 23 39  1  0
 23 40  1  0
 24 41  1  0
 24 42  1  0
 25 43  1  0
 25 44  1  0
M  END
>  <meeko>  (1) 
{"is_sidechain": [false], "free_energy": -6.874, "intermolecular_energy": -8.079, "internal_energy": 1.296}

$$$$
cand_018_out
     RDKit          3D

 44 47  0  0  0  0  0  0  0  0999 V2000
   44.6740   25.9630  -11.4410 C   0  0  0  0  0  0  0  0  0  0  0  0
   43.5700   26.2360  -12.4260 C   0  0  0  0  0  0  0  0  0  0  0  0
   42.3440   26.7380  -11.9640 C   0  0  0  0  0  0  0  0  0  0  0  0
   41.3030   27.0040  -12.8540 C   0  0  0  0  0  0  0  0  0  0  0  0
   41.4660   26.7890  -14.2260 C   0  0  0  0  0  0  0  0  0  0  0  0
   40.3470   27.0610  -15.1520 C   0  0  0  0  0  0  0  0  0  0  0  0
   39.3980   27.9240  -14.6130 O   0  0  0  0  0  0  0  0  0  0  0  0
   38.3040   28.2620  -15.3680 C   0  0  0  0  0  0  0  0  0  0  0  0
   37.3700   29.1170  -14.7810 C   0  0  0  0  0  0  0  0  0  0  0  0
   36.2340   29.5020  -15.4950 C   0  0  0  0  0  0  0  0  0  0  0  0
   36.0320   29.0340  -16.7950 C   0  0  0  0  0  0  0  0  0  0  0  0
   36.9650   28.1820  -17.3780 C   0  0  0  0  0  0  0  0  0  0  0  0
   36.7070   27.7610  -18.6540 O   0  0  0  0  0  0  0  0  0  0  0  0
   38.1030   27.7950  -16.6620 C   0  0  0  0  0  0  0  0  0  0  0  0
   39.1080   26.9000  -17.2370 C   0  0  0  0  0  0  0  0  0  0  0  0
   39.0040   26.4520  -18.3770 O   0  0  0  0  0  0  0  0  0  0  0  0
   40.2720   26.5460  -16.3930 C   0  0  0  0  0  0  0  0  0  0  0  0
   41.2220   25.7100  -16.9520 O   0  0  0  0  0  0  0  0  0  0  0  0
   42.6940   26.2830  -14.6830 C   0  0  0  0  0  0  0  0  0  0  0  0
   43.7560   26.0010  -13.8030 C   0  0  0  0  0  0  0  0  0  0  0  0
   44.9990   25.5320  -14.2610 N   0  0  0  0  0  0  0  0  0  0  0  0
   45.4850   24.3820  -13.4720 C   0  0  0  0  0  0  0  0  0  0  0  0
   47.0030   24.5080  -13.5280 C   0  0  0  0  0  0  0  0  0  0  0  0
   47.2030   26.0120  -13.4910 C   0  0  0  0  0  0  0  0  0  0  0  0
   46.0840   26.5200  -14.3950 C   0  0  0  0  0  0  0  0  0  0  0  0
   44.2839   26.0595  -10.4170 H   0  0  0  0  0  0  0  0  0  0  0  0
   45.0570   24.9431  -11.5929 H   0  0  0  0  0  0  0  0  0  0  0  0
   45.4882   26.6869  -11.5929 H   0  0  0  0  0  0  0  0  0  0  0  0
   42.2021   26.9237  -10.8891 H   0  0  0  0  0  0  0  0  0  0  0  0
   40.3448   27.3866  -12.4727 H   0  0  0  0  0  0  0  0  0  0  0  0
   37.5288   29.4869  -13.7573 H   0  0  0  0  0  0  0  0  0  0  0  0
   35.4968   30.1751  -15.0329 H   0  0  0  0  0  0  0  0  0  0  0  0
   35.1369   29.3383  -17.3573 H   0  0  0  0  0  0  0  0  0  0  0  0
   36.2850   26.9360  -18.7980 H   0  0  0  0  0  0  0  0  0  0  0  0
   41.0130   24.8140  -17.1260 H   0  0  0  0  0  0  0  0  0  0  0  0
   42.8298   26.1019  -15.7595 H   0  0  0  0  0  0  0  0  0  0  0  0
   45.1263   24.4411  -12.4338 H   0  0  0  0  0  0  0  0  0  0  0  0
   45.1264   23.4189  -13.8644 H   0  0  0  0  0  0  0  0  0  0  0  0
   47.4755   24.0217  -12.6619 H   0  0  0  0  0  0  0  0  0  0  0  0
   47.4534   24.0248  -14.4075 H   0  0  0  0  0  0  0  0  0  0  0  0
   47.0947   26.4017  -12.4681 H   0  0  0  0  0  0  0  0  0  0  0  0
   48.2052   26.3278  -13.8165 H   0  0  0  0  0  0  0  0  0  0  0  0
   45.7438   27.5131  -14.0665 H   0  0  0  0  0  0  0  0  0  0  0  0
   46.4155   26.6269  -15.4384 H   0  0  0  0  0  0  0  0  0  0  0  0
  1  2  1  0
  2  3  2  0
  3  4  1  0
  4  5  2  0
  5  6  1  0
  6  7  1  0
  7  8  1  0
  8  9  2  0
  9 10  1  0
 10 11  2  0
 11 12  1  0
 12 13  1  0
 12 14  2  0
 14 15  1  0
 15 16  2  0
 15 17  1  0
 17 18  1  0
  5 19  1  0
 19 20  2  0
 20 21  1  0
 21 22  1  0
 22 23  1  0
 23 24  1  0
 24 25  1  0
 20  2  1  0
 25 21  1  0
 17  6  2  0
 14  8  1  0
  1 26  1  0
  1 27  1  0
  1 28  1  0
  3 29  1  0
  4 30  1  0
  9 31  1  0
 10 32  1  0
 11 33  1  0
 13 34  1  0
 18 35  1  0
 19 36  1  0
 22 37  1  0
 22 38  1  0
 23 39  1  0
 23 40  1  0
 24 41  1  0
 24 42  1  0
 25 43  1  0
 25 44  1  0
M  END
>  <meeko>  (2) 
{"is_sidechain": [false], "free_energy": -6.547, "intermolecular_energy": -7.795, "internal_energy": 1.396}

$$$$
cand_018_out
     RDKit          3D

 44 47  0  0  0  0  0  0  0  0999 V2000
   44.2230   26.1200  -11.3150 C   0  0  0  0  0  0  0  0  0  0  0  0
   43.0540   26.5170  -12.1760 C   0  0  0  0  0  0  0  0  0  0  0  0
   41.8740   26.9700  -11.5680 C   0  0  0  0  0  0  0  0  0  0  0  0
   40.7750   27.3470  -12.3400 C   0  0  0  0  0  0  0  0  0  0  0  0
   40.8330   27.2940  -13.7360 C   0  0  0  0  0  0  0  0  0  0  0  0
   39.6540   27.6830  -14.5380 C   0  0  0  0  0  0  0  0  0  0  0  0
   39.5720   26.9960  -15.7450 O   0  0  0  0  0  0  0  0  0  0  0  0
   38.5240   27.2600  -16.5890 C   0  0  0  0  0  0  0  0  0  0  0  0
   38.4910   26.5600  -17.7960 C   0  0  0  0  0  0  0  0  0  0  0  0
   37.4500   26.7800  -18.6990 C   0  0  0  0  0  0  0  0  0  0  0  0
   36.4420   27.6980  -18.3970 C   0  0  0  0  0  0  0  0  0  0  0  0
   36.4770   28.3940  -17.1920 C   0  0  0  0  0  0  0  0  0  0  0  0
   35.4590   29.2780  -16.9590 O   0  0  0  0  0  0  0  0  0  0  0  0
   37.5200   28.1740  -16.2880 C   0  0  0  0  0  0  0  0  0  0  0  0
   37.5960   28.8860  -15.0110 C   0  0  0  0  0  0  0  0  0  0  0  0
   36.7430   29.7040  -14.6700 O   0  0  0  0  0  0  0  0  0  0  0  0
   38.7460   28.5870  -14.1270 C   0  0  0  0  0  0  0  0  0  0  0  0
   38.7990   29.2550  -12.9170 O   0  0  0  0  0  0  0  0  0  0  0  0
   42.0150   26.8360  -14.3400 C   0  0  0  0  0  0  0  0  0  0  0  0
   43.1340   26.4440  -13.5810 C   0  0  0  0  0  0  0  0  0  0  0  0
   44.3330   26.0220  -14.1820 N   0  0  0  0  0  0  0  0  0  0  0  0
   44.5680   24.5750  -14.0000 C   0  0  0  0  0  0  0  0  0  0  0  0
   46.0860   24.4470  -13.9670 C   0  0  0  0  0  0  0  0  0  0  0  0
   46.5000   25.7130  -13.2420 C   0  0  0  0  0  0  0  0  0  0  0  0
   45.5580   26.7590  -13.8310 C   0  0  0  0  0  0  0  0  0  0  0  0
   43.9460   26.2141  -10.2546 H   0  0  0  0  0  0  0  0  0  0  0  0
   44.4998   25.0775  -11.5306 H   0  0  0  0  0  0  0  0  0  0  0  0
   45.0775   26.7783  -11.5306 H   0  0  0  0  0  0  0  0  0  0  0  0
   41.8146   27.0286  -10.4712 H   0  0  0  0  0  0  0  0  0  0  0  0
   39.8538   27.6893  -11.8457 H   0  0  0  0  0  0  0  0  0  0  0  0
   39.2841   25.8362  -18.0351 H   0  0  0  0  0  0  0  0  0  0  0  0
   37.4234   26.2291  -19.6507 H   0  0  0  0  0  0  0  0  0  0  0  0
   35.6221   27.8707  -19.1097 H   0  0  0  0  0  0  0  0  0  0  0  0
   34.8080   29.0820  -16.3140 H   0  0  0  0  0  0  0  0  0  0  0  0
   38.3850   28.8890  -12.1610 H   0  0  0  0  0  0  0  0  0  0  0  0
   42.0681   26.7820  -15.4374 H   0  0  0  0  0  0  0  0  0  0  0  0
   44.1257   24.2231  -13.0563 H   0  0  0  0  0  0  0  0  0  0  0  0
   44.1102   23.9693  -14.7959 H   0  0  0  0  0  0  0  0  0  0  0  0
   46.3984   23.5498  -13.4125 H   0  0  0  0  0  0  0  0  0  0  0  0
   46.5413   24.3400  -14.9626 H   0  0  0  0  0  0  0  0  0  0  0  0
   46.3542   25.6142  -12.1562 H   0  0  0  0  0  0  0  0  0  0  0  0
   47.5638   25.9617  -13.3699 H   0  0  0  0  0  0  0  0  0  0  0  0
   45.3383   27.5413  -13.0895 H   0  0  0  0  0  0  0  0  0  0  0  0
   45.9983   27.2635  -14.7037 H   0  0  0  0  0  0  0  0  0  0  0  0
  1  2  1  0
  2  3  2  0
  3  4  1  0
  4  5  2  0
  5  6  1  0
  6  7  1  0
  7  8  1  0
  8  9  2  0
  9 10  1  0
 10 11  2  0
 11 12  1  0
 12 13  1  0
 12 14  2  0
 14 15  1  0
 15 16  2  0
 15 17  1  0
 17 18  1  0
  5 19  1  0
 19 20  2  0
 20 21  1  0
 21 22  1  0
 22 23  1  0
 23 24  1  0
 24 25  1  0
 20  2  1  0
 25 21  1  0
 17  6  2  0
 14  8  1  0
  1 26  1  0
  1 27  1  0
  1 28  1  0
  3 29  1  0
  4 30  1  0
  9 31  1  0
 10 32  1  0
 11 33  1  0
 13 34  1  0
 18 35  1  0
 19 36  1  0
 22 37  1  0
 22 38  1  0
 23 39  1  0
 23 40  1  0
 24 41  1  0
 24 42  1  0
 25 43  1  0
 25 44  1  0
M  END
>  <meeko>  (3) 
{"is_sidechain": [false], "free_energy": -6.143, "intermolecular_energy": -7.305, "internal_energy": 1.38}

$$$$
cand_018_out
     RDKit          3D

 44 47  0  0  0  0  0  0  0  0999 V2000
   47.6300   24.3790  -13.5880 C   0  0  0  0  0  0  0  0  0  0  0  0
   46.2440   24.9320  -13.7860 C   0  0  0  0  0  0  0  0  0  0  0  0
   45.1360   24.0880  -13.6160 C   0  0  0  0  0  0  0  0  0  0  0  0
   43.8390   24.5730  -13.7900 C   0  0  0  0  0  0  0  0  0  0  0  0
   43.6180   25.9140  -14.1230 C   0  0  0  0  0  0  0  0  0  0  0  0
   42.2380   26.4060  -14.3180 C   0  0  0  0  0  0  0  0  0  0  0  0
   41.7580   26.1690  -15.6020 O   0  0  0  0  0  0  0  0  0  0  0  0
   40.4880   26.5760  -15.9210 C   0  0  0  0  0  0  0  0  0  0  0  0
   40.0540   26.3320  -17.2250 C   0  0  0  0  0  0  0  0  0  0  0  0
   38.7700   26.7200  -17.6150 C   0  0  0  0  0  0  0  0  0  0  0  0
   37.9210   27.3490  -16.7020 C   0  0  0  0  0  0  0  0  0  0  0  0
   38.3570   27.5900  -15.4020 C   0  0  0  0  0  0  0  0  0  0  0  0
   37.4750   28.2090  -14.5590 O   0  0  0  0  0  0  0  0  0  0  0  0
   39.6420   27.2030  -15.0120 C   0  0  0  0  0  0  0  0  0  0  0  0
   40.1400   27.4390  -13.6560 C   0  0  0  0  0  0  0  0  0  0  0  0
   39.4500   27.9800  -12.7950 O   0  0  0  0  0  0  0  0  0  0  0  0
   41.5200   26.9970  -13.3460 C   0  0  0  0  0  0  0  0  0  0  0  0
   41.9740   27.2130  -12.0580 O   0  0  0  0  0  0  0  0  0  0  0  0
   44.7310   26.7530  -14.2950 C   0  0  0  0  0  0  0  0  0  0  0  0
   46.0480   26.2840  -14.1320 C   0  0  0  0  0  0  0  0  0  0  0  0
   47.1630   27.1300  -14.2650 N   0  0  0  0  0  0  0  0  0  0  0  0
   48.0940   26.6630  -15.3120 C   0  0  0  0  0  0  0  0  0  0  0  0
   49.4610   27.1290  -14.8280 C   0  0  0  0  0  0  0  0  0  0  0  0
   49.3450   26.9580  -13.3250 C   0  0  0  0  0  0  0  0  0  0  0  0
   47.9250   27.4380  -13.0420 C   0  0  0  0  0  0  0  0  0  0  0  0
   47.8409   24.2949  -12.5117 H   0  0  0  0  0  0  0  0  0  0  0  0
   47.6981   23.3848  -14.0538 H   0  0  0  0  0  0  0  0  0  0  0  0
   48.3638   25.0532  -14.0538 H   0  0  0  0  0  0  0  0  0  0  0  0
   45.2912   23.0338  -13.3429 H   0  0  0  0  0  0  0  0  0  0  0  0
   42.9823   23.8946  -13.6642 H   0  0  0  0  0  0  0  0  0  0  0  0
   40.7218   25.8351  -17.9441 H   0  0  0  0  0  0  0  0  0  0  0  0
   38.4272   26.5298  -18.6428 H   0  0  0  0  0  0  0  0  0  0  0  0
   36.9097   27.6535  -17.0094 H   0  0  0  0  0  0  0  0  0  0  0  0
   37.5270   29.1360  -14.4260 H   0  0  0  0  0  0  0  0  0  0  0  0
   41.7500   28.0040  -11.6090 H   0  0  0  0  0  0  0  0  0  0  0  0
   44.5688   27.8070  -14.5649 H   0  0  0  0  0  0  0  0  0  0  0  0
   48.0639   25.5670  -15.4008 H   0  0  0  0  0  0  0  0  0  0  0  0
   47.8417   27.0568  -16.3076 H   0  0  0  0  0  0  0  0  0  0  0  0
   50.2650   26.5014  -15.2398 H   0  0  0  0  0  0  0  0  0  0  0  0
   49.7128   28.1541  -15.1374 H   0  0  0  0  0  0  0  0  0  0  0  0
   49.4731   25.9048  -13.0345 H   0  0  0  0  0  0  0  0  0  0  0  0
   50.1127   27.5094  -12.7622 H   0  0  0  0  0  0  0  0  0  0  0  0
   47.5018   26.9034  -12.1788 H   0  0  0  0  0  0  0  0  0  0  0  0
   47.8942   28.5099  -12.7970 H   0  0  0  0  0  0  0  0  0  0  0  0
  1  2  1  0
  2  3  2  0
  3  4  1  0
  4  5  2  0
  5  6  1  0
  6  7  1  0
  7  8  1  0
  8  9  2  0
  9 10  1  0
 10 11  2  0
 11 12  1  0
 12 13  1  0
 12 14  2  0
 14 15  1  0
 15 16  2  0
 15 17  1  0
 17 18  1  0
  5 19  1  0
 19 20  2  0
 20 21  1  0
 21 22  1  0
 22 23  1  0
 23 24  1  0
 24 25  1  0
 20  2  1  0
 25 21  1  0
 17  6  2  0
 14  8  1  0
  1 26  1  0
  1 27  1  0
  1 28  1  0
  3 29  1  0
  4 30  1  0
  9 31  1  0
 10 32  1  0
 11 33  1  0
 13 34  1  0
 18 35  1  0
 19 36  1  0
 22 37  1  0
 22 38  1  0
 23 39  1  0
 23 40  1  0
 24 41  1  0
 24 42  1  0
 25 43  1  0
 25 44  1  0
M  END
>  <meeko>  (4) 
{"is_sidechain": [false], "free_energy": -5.662, "intermolecular_energy": -6.142, "internal_energy": 0.783}

$$$$
cand_018_out
     RDKit          3D

 44 47  0  0  0  0  0  0  0  0999 V2000
   42.4910   26.7600  -11.6050 C   0  0  0  0  0  0  0  0  0  0  0  0
   41.5510   26.8860  -12.7730 C   0  0  0  0  0  0  0  0  0  0  0  0
   40.2000   27.1860  -12.5400 C   0  0  0  0  0  0  0  0  0  0  0  0
   39.3050   27.3130  -13.6030 C   0  0  0  0  0  0  0  0  0  0  0  0
   39.7400   27.1550  -14.9230 C   0  0  0  0  0  0  0  0  0  0  0  0
   38.7750   27.2760  -16.0360 C   0  0  0  0  0  0  0  0  0  0  0  0
   37.8930   28.3400  -15.8720 O   0  0  0  0  0  0  0  0  0  0  0  0
   36.9420   28.5670  -16.8330 C   0  0  0  0  0  0  0  0  0  0  0  0
   36.0690   29.6350  -16.6200 C   0  0  0  0  0  0  0  0  0  0  0  0
   35.0790   29.9230  -17.5610 C   0  0  0  0  0  0  0  0  0  0  0  0
   34.9610   29.1450  -18.7150 C   0  0  0  0  0  0  0  0  0  0  0  0
   35.8340   28.0810  -18.9250 C   0  0  0  0  0  0  0  0  0  0  0  0
   35.6650   27.3600  -20.0760 O   0  0  0  0  0  0  0  0  0  0  0  0
   36.8260   27.7930  -17.9820 C   0  0  0  0  0  0  0  0  0  0  0  0
   37.7630   26.6830  -18.1640 C   0  0  0  0  0  0  0  0  0  0  0  0
   37.7280   25.9580  -19.1570 O   0  0  0  0  0  0  0  0  0  0  0  0
   38.7710   26.4560  -17.1030 C   0  0  0  0  0  0  0  0  0  0  0  0
   39.6590   25.4140  -17.2930 O   0  0  0  0  0  0  0  0  0  0  0  0
   41.0910   26.8500  -15.1500 C   0  0  0  0  0  0  0  0  0  0  0  0
   42.0110   26.7120  -14.0940 C   0  0  0  0  0  0  0  0  0  0  0  0
   43.3730   26.4460  -14.3190 N   0  0  0  0  0  0  0  0  0  0  0  0
   43.6220   25.0180  -14.6010 C   0  0  0  0  0  0  0  0  0  0  0  0
   45.0250   24.7710  -14.0590 C   0  0  0  0  0  0  0  0  0  0  0  0
   45.0540   25.6550  -12.8260 C   0  0  0  0  0  0  0  0  0  0  0  0
   44.3280   26.9120  -13.2980 C   0  0  0  0  0  0  0  0  0  0  0  0
   41.9221   26.8363  -10.6666 H   0  0  0  0  0  0  0  0  0  0  0  0
   42.9997   25.7856  -11.6472 H   0  0  0  0  0  0  0  0  0  0  0  0
   43.2384   27.5660  -11.6472 H   0  0  0  0  0  0  0  0  0  0  0  0
   39.8429   27.3225  -11.5086 H   0  0  0  0  0  0  0  0  0  0  0  0
   38.2477   27.5394  -13.4011 H   0  0  0  0  0  0  0  0  0  0  0  0
   36.1610   30.2489  -15.7119 H   0  0  0  0  0  0  0  0  0  0  0  0
   34.3904   30.7643  -17.3934 H   0  0  0  0  0  0  0  0  0  0  0  0
   34.1804   29.3723  -19.4559 H   0  0  0  0  0  0  0  0  0  0  0  0
   35.4970   27.8020  -20.8850 H   0  0  0  0  0  0  0  0  0  0  0  0
   39.6900   24.7070  -16.6790 H   0  0  0  0  0  0  0  0  0  0  0  0
   41.4412   26.7148  -16.1840 H   0  0  0  0  0  0  0  0  0  0  0  0
   42.8865   24.3839  -14.0842 H   0  0  0  0  0  0  0  0  0  0  0  0
   43.5344   24.7775  -15.6708 H   0  0  0  0  0  0  0  0  0  0  0  0
   45.1696   23.7131  -13.7945 H   0  0  0  0  0  0  0  0  0  0  0  0
   45.8230   24.9960  -14.7819 H   0  0  0  0  0  0  0  0  0  0  0  0
   44.5236   25.1822  -11.9863 H   0  0  0  0  0  0  0  0  0  0  0  0
   46.0701   25.8515  -12.4532 H   0  0  0  0  0  0  0  0  0  0  0  0
   43.7961   27.3876  -12.4608 H   0  0  0  0  0  0  0  0  0  0  0  0
   45.0245   27.6631  -13.6988 H   0  0  0  0  0  0  0  0  0  0  0  0
  1  2  1  0
  2  3  2  0
  3  4  1  0
  4  5  2  0
  5  6  1  0
  6  7  1  0
  7  8  1  0
  8  9  2  0
  9 10  1  0
 10 11  2  0
 11 12  1  0
 12 13  1  0
 12 14  2  0
 14 15  1  0
 15 16  2  0
 15 17  1  0
 17 18  1  0
  5 19  1  0
 19 20  2  0
 20 21  1  0
 21 22  1  0
 22 23  1  0
 23 24  1  0
 24 25  1  0
 20  2  1  0
 25 21  1  0
 17  6  2  0
 14  8  1  0
  1 26  1  0
  1 27  1  0
  1 28  1  0
  3 29  1  0
  4 30  1  0
  9 31  1  0
 10 32  1  0
 11 33  1  0
 13 34  1  0
 18 35  1  0
 19 36  1  0
 22 37  1  0
 22 38  1  0
 23 39  1  0
 23 40  1  0
 24 41  1  0
 24 42  1  0
 25 43  1  0
 25 44  1  0
M  END
>  <meeko>  (5) 
{"is_sidechain": [false], "free_energy": -5.615, "intermolecular_energy": -6.814, "internal_energy": 1.51}

$$$$
cand_018_out
     RDKit          3D

 44 47  0  0  0  0  0  0  0  0999 V2000
   45.9960   24.1250  -13.8830 C   0  0  0  0  0  0  0  0  0  0  0  0
   44.7070   24.8800  -14.0660 C   0  0  0  0  0  0  0  0  0  0  0  0
   43.5040   24.1670  -14.1910 C   0  0  0  0  0  0  0  0  0  0  0  0
   42.2930   24.8390  -14.3590 C   0  0  0  0  0  0  0  0  0  0  0  0
   42.2520   26.2370  -14.3910 C   0  0  0  0  0  0  0  0  0  0  0  0
   40.9620   26.9320  -14.5850 C   0  0  0  0  0  0  0  0  0  0  0  0
   40.4190   26.7170  -15.8480 O   0  0  0  0  0  0  0  0  0  0  0  0
   39.2210   27.3060  -16.1630 C   0  0  0  0  0  0  0  0  0  0  0  0
   38.7220   27.0760  -17.4470 C   0  0  0  0  0  0  0  0  0  0  0  0
   37.5060   27.6430  -17.8320 C   0  0  0  0  0  0  0  0  0  0  0  0
   36.7880   28.4380  -16.9350 C   0  0  0  0  0  0  0  0  0  0  0  0
   37.2880   28.6640  -15.6560 C   0  0  0  0  0  0  0  0  0  0  0  0
   36.5350   29.4510  -14.8280 O   0  0  0  0  0  0  0  0  0  0  0  0
   38.5070   28.0970  -15.2710 C   0  0  0  0  0  0  0  0  0  0  0  0
   39.0680   28.3100  -13.9360 C   0  0  0  0  0  0  0  0  0  0  0  0
   38.4930   28.9910  -13.0890 O   0  0  0  0  0  0  0  0  0  0  0  0
   40.3690   27.6710  -13.6300 C   0  0  0  0  0  0  0  0  0  0  0  0
   40.8830   27.8690  -12.3610 O   0  0  0  0  0  0  0  0  0  0  0  0
   43.4580   26.9450  -14.2690 C   0  0  0  0  0  0  0  0  0  0  0  0
   44.6930   26.2880  -14.1060 C   0  0  0  0  0  0  0  0  0  0  0  0
   45.8980   26.9940  -13.9450 N   0  0  0  0  0  0  0  0  0  0  0  0
   46.9070   26.6100  -14.9510 C   0  0  0  0  0  0  0  0  0  0  0  0
   48.2380   26.8000  -14.2340 C   0  0  0  0  0  0  0  0  0  0  0  0
   47.9030   26.3760  -12.8160 C   0  0  0  0  0  0  0  0  0  0  0  0
   46.5160   26.9740  -12.6070 C   0  0  0  0  0  0  0  0  0  0  0  0
   46.2012   24.0048  -12.8090 H   0  0  0  0  0  0  0  0  0  0  0  0
   45.9105   23.1342  -14.3531 H   0  0  0  0  0  0  0  0  0  0  0  0
   46.8184   24.6842  -14.3531 H   0  0  0  0  0  0  0  0  0  0  0  0
   43.5164   23.0676  -14.1561 H   0  0  0  0  0  0  0  0  0  0  0  0
   41.3615   24.2641  -14.4673 H   0  0  0  0  0  0  0  0  0  0  0  0
   39.2861   26.4493  -18.1534 H   0  0  0  0  0  0  0  0  0  0  0  0
   37.1123   27.4636  -18.8434 H   0  0  0  0  0  0  0  0  0  0  0  0
   35.8297   28.8843  -17.2390 H   0  0  0  0  0  0  0  0  0  0  0  0
   35.6750   29.1780  -14.5760 H   0  0  0  0  0  0  0  0  0  0  0  0
   41.5140   28.5440  -12.2110 H   0  0  0  0  0  0  0  0  0  0  0  0
   43.4378   28.0443  -14.3016 H   0  0  0  0  0  0  0  0  0  0  0  0
   46.7743   25.5617  -15.2567 H   0  0  0  0  0  0  0  0  0  0  0  0
   46.8342   27.2080  -15.8714 H   0  0  0  0  0  0  0  0  0  0  0  0
   49.0195   26.1588  -14.6677 H   0  0  0  0  0  0  0  0  0  0  0  0
   48.6358   27.8230  -14.3062 H   0  0  0  0  0  0  0  0  0  0  0  0
   47.8805   25.2801  -12.7244 H   0  0  0  0  0  0  0  0  0  0  0  0
   48.6407   26.7137  -12.0733 H   0  0  0  0  0  0  0  0  0  0  0  0
   45.9266   26.3500  -11.9192 H   0  0  0  0  0  0  0  0  0  0  0  0
   46.5643   27.9786  -12.1615 H   0  0  0  0  0  0  0  0  0  0  0  0
  1  2  1  0
  2  3  2  0
  3  4  1  0
  4  5  2  0
  5  6  1  0
  6  7  1  0
  7  8  1  0
  8  9  2  0
  9 10  1  0
 10 11  2  0
 11 12  1  0
 12 13  1  0
 12 14  2  0
 14 15  1  0
 15 16  2  0
 15 17  1  0
 17 18  1  0
  5 19  1  0
 19 20  2  0
 20 21  1  0
 21 22  1  0
 22 23  1  0
 23 24  1  0
 24 25  1  0
 20  2  1  0
 25 21  1  0
 17  6  2  0
 14  8  1  0
  1 26  1  0
  1 27  1  0
  1 28  1  0
  3 29  1  0
  4 30  1  0
  9 31  1  0
 10 32  1  0
 11 33  1  0
 13 34  1  0
 18 35  1  0
 19 36  1  0
 22 37  1  0
 22 38  1  0
 23 39  1  0
 23 40  1  0
 24 41  1  0
 24 42  1  0
 25 43  1  0
 25 44  1  0
M  END
>  <meeko>  (6) 
{"is_sidechain": [false], "free_energy": -5.523, "intermolecular_energy": -6.042, "internal_energy": 0.847}

$$$$
cand_018_out
     RDKit          3D

 44 47  0  0  0  0  0  0  0  0999 V2000
   45.6970   24.1700  -13.3620 C   0  0  0  0  0  0  0  0  0  0  0  0
   44.4600   24.8040  -13.9390 C   0  0  0  0  0  0  0  0  0  0  0  0
   43.3140   24.0190  -14.1370 C   0  0  0  0  0  0  0  0  0  0  0  0
   42.1510   24.5780  -14.6680 C   0  0  0  0  0  0  0  0  0  0  0  0
   42.1010   25.9360  -15.0000 C   0  0  0  0  0  0  0  0  0  0  0  0
   40.8660   26.5090  -15.5770 C   0  0  0  0  0  0  0  0  0  0  0  0
   40.1790   27.3200  -14.6800 O   0  0  0  0  0  0  0  0  0  0  0  0
   39.0120   27.9160  -15.0860 C   0  0  0  0  0  0  0  0  0  0  0  0
   38.3470   28.7090  -14.1490 C   0  0  0  0  0  0  0  0  0  0  0  0
   37.1550   29.3470  -14.4980 C   0  0  0  0  0  0  0  0  0  0  0  0
   36.6280   29.1930  -15.7820 C   0  0  0  0  0  0  0  0  0  0  0  0
   37.2940   28.4030  -16.7140 C   0  0  0  0  0  0  0  0  0  0  0  0
   36.7240   28.2950  -17.9530 O   0  0  0  0  0  0  0  0  0  0  0  0
   38.4870   27.7640  -16.3650 C   0  0  0  0  0  0  0  0  0  0  0  0
   39.2180   26.9230  -17.3140 C   0  0  0  0  0  0  0  0  0  0  0  0
   38.8220   26.7450  -18.4650 O   0  0  0  0  0  0  0  0  0  0  0  0
   40.4680   26.2840  -16.8420 C   0  0  0  0  0  0  0  0  0  0  0  0
   41.1570   25.5030  -17.7530 O   0  0  0  0  0  0  0  0  0  0  0  0
   43.2520   26.7160  -14.8040 C   0  0  0  0  0  0  0  0  0  0  0  0
   44.4380   26.1720  -14.2770 C   0  0  0  0  0  0  0  0  0  0  0  0
   45.5800   26.9570  -14.0420 N   0  0  0  0  0  0  0  0  0  0  0  0
   46.7280   26.5330  -14.8690 C   0  0  0  0  0  0  0  0  0  0  0  0
   47.9450   26.8690  -14.0170 C   0  0  0  0  0  0  0  0  0  0  0  0
   47.4480   26.5690  -12.6140 C   0  0  0  0  0  0  0  0  0  0  0  0
   46.0200   27.1050  -12.6440 C   0  0  0  0  0  0  0  0  0  0  0  0
   45.6445   24.1969  -12.2636 H   0  0  0  0  0  0  0  0  0  0  0  0
   45.7656   23.1256  -13.7003 H   0  0  0  0  0  0  0  0  0  0  0  0
   46.5849   24.7241  -13.7003 H   0  0  0  0  0  0  0  0  0  0  0  0
   43.3326   22.9518  -13.8709 H   0  0  0  0  0  0  0  0  0  0  0  0
   41.2655   23.9451  -14.8270 H   0  0  0  0  0  0  0  0  0  0  0  0
   38.7614   28.8310  -13.1374 H   0  0  0  0  0  0  0  0  0  0  0  0
   36.6302   29.9719  -13.7604 H   0  0  0  0  0  0  0  0  0  0  0  0
   35.6884   29.6951  -16.0561 H   0  0  0  0  0  0  0  0  0  0  0  0
   37.1870   28.5990  -18.7100 H   0  0  0  0  0  0  0  0  0  0  0  0
   40.6970   25.0860  -18.4550 H   0  0  0  0  0  0  0  0  0  0  0  0
   43.2259   27.7830  -15.0701 H   0  0  0  0  0  0  0  0  0  0  0  0
   46.6824   25.4536  -15.0760 H   0  0  0  0  0  0  0  0  0  0  0  0
   46.7487   27.0316  -15.8493 H   0  0  0  0  0  0  0  0  0  0  0  0
   48.8036   26.2338  -14.2802 H   0  0  0  0  0  0  0  0  0  0  0  0
   48.3033   27.9008  -14.1470 H   0  0  0  0  0  0  0  0  0  0  0  0
   47.4620   25.4881  -12.4106 H   0  0  0  0  0  0  0  0  0  0  0  0
   48.0677   27.0200  -11.8250 H   0  0  0  0  0  0  0  0  0  0  0  0
   45.3744   26.5198  -11.9726 H   0  0  0  0  0  0  0  0  0  0  0  0
   45.9664   28.1501  -12.3051 H   0  0  0  0  0  0  0  0  0  0  0  0
  1  2  1  0
  2  3  2  0
  3  4  1  0
  4  5  2  0
  5  6  1  0
  6  7  1  0
  7  8  1  0
  8  9  2  0
  9 10  1  0
 10 11  2  0
 11 12  1  0
 12 13  1  0
 12 14  2  0
 14 15  1  0
 15 16  2  0
 15 17  1  0
 17 18  1  0
  5 19  1  0
 19 20  2  0
 20 21  1  0
 21 22  1  0
 22 23  1  0
 23 24  1  0
 24 25  1  0
 20  2  1  0
 25 21  1  0
 17  6  2  0
 14  8  1  0
  1 26  1  0
  1 27  1  0
  1 28  1  0
  3 29  1  0
  4 30  1  0
  9 31  1  0
 10 32  1  0
 11 33  1  0
 13 34  1  0
 18 35  1  0
 19 36  1  0
 22 37  1  0
 22 38  1  0
 23 39  1  0
 23 40  1  0
 24 41  1  0
 24 42  1  0
 25 43  1  0
 25 44  1  0
M  END
>  <meeko>  (7) 
{"is_sidechain": [false], "free_energy": -4.902, "intermolecular_energy": -5.311, "internal_energy": 0.846}

$$$$
