cand_015_out
     RDKit          3D

 36 38  0  0  0  0  0  0  0  0999 V2000
   46.8380   24.7690  -13.7520 C   0  0  0  0  0  0  0  0  0  0  0  0
   45.6520   24.7410  -13.1350 C   0  0  0  0  0  0  0  0  0  0  0  0
   45.5940   24.1860  -11.9040 F   0  0  0  0  0  0  0  0  0  0  0  0
   44.3940   25.2410  -13.7170 C   0  0  0  0  0  0  0  0  0  0  0  0
   43.6480   24.4130  -14.5740 C   0  0  0  0  0  0  0  0  0  0  0  0
   42.4630   24.8620  -15.1660 C   0  0  0  0  0  0  0  0  0  0  0  0
   41.9880   26.1530  -14.9210 C   0  0  0  0  0  0  0  0  0  0  0  0
   40.7560   26.6640  -15.5580 C   0  0  0  0  0  0  0  0  0  0  0  0
   39.9930   27.4540  -14.7050 O   0  0  0  0  0  0  0  0  0  0  0  0
   38.8220   27.9930  -15.1710 C   0  0  0  0  0  0  0  0  0  0  0  0
   38.0960   28.7920  -14.2850 C   0  0  0  0  0  0  0  0  0  0  0  0
   36.8920   29.3690  -14.6960 C   0  0  0  0  0  0  0  0  0  0  0  0
   36.4140   29.1480  -15.9890 C   0  0  0  0  0  0  0  0  0  0  0  0
   37.1410   28.3510  -16.8700 C   0  0  0  0  0  0  0  0  0  0  0  0
   36.6160   28.1760  -18.1210 O   0  0  0  0  0  0  0  0  0  0  0  0
   38.3460   27.7740  -16.4590 C   0  0  0  0  0  0  0  0  0  0  0  0
   39.1400   26.9300  -17.3540 C   0  0  0  0  0  0  0  0  0  0  0  0
   38.7830   26.6830  -18.5040 O   0  0  0  0  0  0  0  0  0  0  0  0
   40.4050   26.3720  -16.8230 C   0  0  0  0  0  0  0  0  0  0  0  0
   41.1410   25.5650  -17.6730 O   0  0  0  0  0  0  0  0  0  0  0  0
   42.7390   26.9890  -14.0800 C   0  0  0  0  0  0  0  0  0  0  0  0
   43.9300   26.5490  -13.4680 C   0  0  0  0  0  0  0  0  0  0  0  0
   44.6780   27.5070  -12.5790 C   0  0  0  0  0  0  0  0  0  0  0  0
   46.9259   25.2123  -14.7549 H   0  0  0  0  0  0  0  0  0  0  0  0
   47.7257   24.3487  -13.2567 H   0  0  0  0  0  0  0  0  0  0  0  0
   44.0029   23.3930  -14.7828 H   0  0  0  0  0  0  0  0  0  0  0  0
   41.8991   24.1918  -15.8314 H   0  0  0  0  0  0  0  0  0  0  0  0
   38.4714   28.9666  -13.2659 H   0  0  0  0  0  0  0  0  0  0  0  0
   36.3193   29.9988  -13.9994 H   0  0  0  0  0  0  0  0  0  0  0  0
   35.4654   29.6023  -16.3112 H   0  0  0  0  0  0  0  0  0  0  0  0
   37.1150   27.7370  -18.7810 H   0  0  0  0  0  0  0  0  0  0  0  0
   40.8510   25.4230  -18.5520 H   0  0  0  0  0  0  0  0  0  0  0  0
   42.3887   28.0149  -13.8936 H   0  0  0  0  0  0  0  0  0  0  0  0
   44.4833   27.2577  -11.5255 H   0  0  0  0  0  0  0  0  0  0  0  0
   45.7565   27.4288  -12.7811 H   0  0  0  0  0  0  0  0  0  0  0  0
   44.3406   28.5343  -12.7811 H   0  0  0  0  0  0  0  0  0  0  0  0
  1  2  2  0
  2  3  1  0
  2  4  1  0
  4  5  2  0
  5  6  1  0
  6  7  2  0
  7  8  1  0
  8  9  1  0
  9 10  1  0
 10 11  2  0
 11 12  1  0
 12 13  2  0
 13 14  1  0
 14 15  1  0
 14 16  2  0
 16 17  1  0
 17 18  2  0
 17 19  1  0
 19 20  1  0
  7 21  1  0
 21 22  2  0
 22 23  1  0
 22  4  1  0
 19  8  2  0
 16 10  1  0
  1 24  1  0
  1 25  1  0
  5 26  1  0
  6 27  1  0
 11 28  1  0
 12 29  1  0
 13 30  1  0
 15 31  1  0
 20 32  1  0
 21 33  1  0
 23 34  1  0
 23 35  1  0
 23 36  1  0
M  END
>  <meeko>  (1) 
{"is_sidechain": [false], "free_energy": -8.362, "intermolecular_energy": -9.828, "internal_energy": -0.176}

$$$$
cand_015_out
     RDKit          3D

 36 38  0  0  0  0  0  0  0  0999 V2000
   46.9960   24.8520  -14.3650 C   0  0  0  0  0  0  0  0  0  0  0  0
   45.9750   24.7660  -13.5070 C   0  0  0  0  0  0  0  0  0  0  0  0
   46.1570   24.0440  -12.3790 F   0  0  0  0  0  0  0  0  0  0  0  0
   44.6500   25.3740  -13.7200 C   0  0  0  0  0  0  0  0  0  0  0  0
   43.6980   24.7060  -14.5110 C   0  0  0  0  0  0  0  0  0  0  0  0
   42.4390   25.2650  -14.7570 C   0  0  0  0  0  0  0  0  0  0  0  0
   42.0940   26.5080  -14.2210 C   0  0  0  0  0  0  0  0  0  0  0  0
   40.7820   27.1350  -14.4910 C   0  0  0  0  0  0  0  0  0  0  0  0
   40.3210   26.8910  -15.7800 O   0  0  0  0  0  0  0  0  0  0  0  0
   39.1140   27.4160  -16.1630 C   0  0  0  0  0  0  0  0  0  0  0  0
   38.6830   27.1330  -17.4610 C   0  0  0  0  0  0  0  0  0  0  0  0
   37.4630   27.6390  -17.9150 C   0  0  0  0  0  0  0  0  0  0  0  0
   36.6750   28.4270  -17.0740 C   0  0  0  0  0  0  0  0  0  0  0  0
   37.1070   28.7070  -15.7800 C   0  0  0  0  0  0  0  0  0  0  0  0
   36.2870   29.4840  -15.0090 O   0  0  0  0  0  0  0  0  0  0  0  0
   38.3280   28.2000  -15.3250 C   0  0  0  0  0  0  0  0  0  0  0  0
   38.8180   28.4700  -13.9730 C   0  0  0  0  0  0  0  0  0  0  0  0
   38.1860   29.1600  -13.1760 O   0  0  0  0  0  0  0  0  0  0  0  0
   40.1210   27.8800  -13.5870 C   0  0  0  0  0  0  0  0  0  0  0  0
   40.5820   28.1530  -12.3110 O   0  0  0  0  0  0  0  0  0  0  0  0
   43.0470   27.1850  -13.4460 C   0  0  0  0  0  0  0  0  0  0  0  0
   44.3160   26.6330  -13.1790 C   0  0  0  0  0  0  0  0  0  0  0  0
   45.2820   27.4240  -12.3380 C   0  0  0  0  0  0  0  0  0  0  0  0
   46.8864   25.4306  -15.2941 H   0  0  0  0  0  0  0  0  0  0  0  0
   47.9460   24.3442  -14.1421 H   0  0  0  0  0  0  0  0  0  0  0  0
   43.9477   23.7262  -14.9442 H   0  0  0  0  0  0  0  0  0  0  0  0
   41.7135   24.7200  -15.3788 H   0  0  0  0  0  0  0  0  0  0  0  0
   39.3034   26.5127  -18.1246 H   0  0  0  0  0  0  0  0  0  0  0  0
   37.1224   27.4163  -18.9370 H   0  0  0  0  0  0  0  0  0  0  0  0
   35.7147   28.8259  -17.4328 H   0  0  0  0  0  0  0  0  0  0  0  0
   35.8610   30.2310  -15.3830 H   0  0  0  0  0  0  0  0  0  0  0  0
   40.8800   29.0140  -12.0950 H   0  0  0  0  0  0  0  0  0  0  0  0
   42.7970   28.1743  -13.0351 H   0  0  0  0  0  0  0  0  0  0  0  0
   45.0690   27.2496  -11.2730 H   0  0  0  0  0  0  0  0  0  0  0  0
   46.3104   27.1053  -12.5632 H   0  0  0  0  0  0  0  0  0  0  0  0
   45.1724   28.4951  -12.5632 H   0  0  0  0  0  0  0  0  0  0  0  0
  1  2  2  0
  2  3  1  0
  2  4  1  0
  4  5  2  0
  5  6  1  0
  6  7  2  0
  7  8  1  0
  8  9  1  0
  9 10  1  0
 10 11  2  0
 11 12  1  0
 12 13  2  0
 13 14  1  0
 14 15  1  0
 14 16  2  0
 16 17  1  0
 17 18  2  0
 17 19  1  0
 19 20  1  0
  7 21  1  0
 21 22  2  0
 22 23  1  0
 22  4  1  0
 19  8  2  0
 16 10  1  0
  1 24  1  0
  1 25  1  0
  5 26  1  0
  6 27  1  0
 11 28  1  0
 12 29  1  0
 13 30  1  0
 15 31  1  0
 20 32  1  0
 21 33  1  0
 23 34  1  0
 23 35  1  0
 23 36  1  0
M  END
>  <meeko>  (2) 
{"is_sidechain": [false], "free_energy": -8.257, "intermolecular_energy": -9.748, "internal_energy": -0.132}

$$$$
cand_015_out
     RDKit          3D

 36 38  0  0  0  0  0  0  0  0999 V2000
   34.9620   29.9200  -18.1630 C   0  0  0  0  0  0  0  0  0  0  0  0
   35.7090   28.8190  -18.2960 C   0  0  0  0  0  0  0  0  0  0  0  0
   35.4420   27.9960  -19.3350 F   0  0  0  0  0  0  0  0  0  0  0  0
   36.7820   28.4180  -17.3690 C   0  0  0  0  0  0  0  0  0  0  0  0
   36.9700   29.1350  -16.1740 C   0  0  0  0  0  0  0  0  0  0  0  0
   37.9950   28.8010  -15.2820 C   0  0  0  0  0  0  0  0  0  0  0  0
   38.8630   27.7410  -15.5570 C   0  0  0  0  0  0  0  0  0  0  0  0
   39.9730   27.3880  -14.6470 C   0  0  0  0  0  0  0  0  0  0  0  0
   40.9860   26.6770  -15.2800 O   0  0  0  0  0  0  0  0  0  0  0  0
   42.0780   26.2850  -14.5500 C   0  0  0  0  0  0  0  0  0  0  0  0
   43.0770   25.5860  -15.2290 C   0  0  0  0  0  0  0  0  0  0  0  0
   44.2160   25.1560  -14.5430 C   0  0  0  0  0  0  0  0  0  0  0  0
   44.3540   25.4230  -13.1800 C   0  0  0  0  0  0  0  0  0  0  0  0
   43.3560   26.1210  -12.5050 C   0  0  0  0  0  0  0  0  0  0  0  0
   43.5550   26.3490  -11.1710 O   0  0  0  0  0  0  0  0  0  0  0  0
   42.2170   26.5520  -13.1920 C   0  0  0  0  0  0  0  0  0  0  0  0
   41.1450   27.2880  -12.5200 C   0  0  0  0  0  0  0  0  0  0  0  0
   41.1900   27.5550  -11.3210 O   0  0  0  0  0  0  0  0  0  0  0  0
   39.9840   27.7050  -13.3400 C   0  0  0  0  0  0  0  0  0  0  0  0
   38.9700   28.3880  -12.6920 O   0  0  0  0  0  0  0  0  0  0  0  0
   38.6890   27.0350  -16.7570 C   0  0  0  0  0  0  0  0  0  0  0  0
   37.6560   27.3510  -17.6620 C   0  0  0  0  0  0  0  0  0  0  0  0
   37.5370   26.5450  -18.9280 C   0  0  0  0  0  0  0  0  0  0  0  0
   35.1488   30.6141  -17.3304 H   0  0  0  0  0  0  0  0  0  0  0  0
   34.1606   30.1316  -18.8862 H   0  0  0  0  0  0  0  0  0  0  0  0
   36.2991   29.9736  -15.9362 H   0  0  0  0  0  0  0  0  0  0  0  0
   38.1188   29.3790  -14.3543 H   0  0  0  0  0  0  0  0  0  0  0  0
   42.9680   25.3738  -16.3028 H   0  0  0  0  0  0  0  0  0  0  0  0
   45.0047   24.6065  -15.0778 H   0  0  0  0  0  0  0  0  0  0  0  0
   45.2498   25.0825  -12.6399 H   0  0  0  0  0  0  0  0  0  0  0  0
   43.6520   25.6270  -10.5810 H   0  0  0  0  0  0  0  0  0  0  0  0
   38.1710   27.9480  -12.4780 H   0  0  0  0  0  0  0  0  0  0  0  0
   39.3780   26.2121  -16.9980 H   0  0  0  0  0  0  0  0  0  0  0  0
   37.3806   25.4860  -18.6751 H   0  0  0  0  0  0  0  0  0  0  0  0
   36.6832   26.9113  -19.5170 H   0  0  0  0  0  0  0  0  0  0  0  0
   38.4602   26.6489  -19.5170 H   0  0  0  0  0  0  0  0  0  0  0  0
  1  2  2  0
  2  3  1  0
  2  4  1  0
  4  5  2  0
  5  6  1  0
  6  7  2  0
  7  8  1  0
  8  9  1  0
  9 10  1  0
 10 11  2  0
 11 12  1  0
 12 13  2  0
 13 14  1  0
 14 15  1  0
 14 16  2  0
 16 17  1  0
 17 18  2  0
 17 19  1  0
 19 20  1  0
  7 21  1  0
 21 22  2  0
 22 23  1  0
 22  4  1  0
 19  8  2  0
 16 10  1  0
  1 24  1  0
  1 25  1  0
  5 26  1  0
  6 27  1  0
 11 28  1  0
 12 29  1  0
 13 30  1  0
 15 31  1  0
 20 32  1  0
 21 33  1  0
 23 34  1  0
 23 35  1  0
 23 36  1  0
M  END
>  <meeko>  (3) 
{"is_sidechain": [false], "free_energy": -7.208, "intermolecular_energy": -9.203, "internal_energy": 0.555}

$$$$
cand_015_out
     RDKit          3D

 36 38  0  0  0  0  0  0  0  0999 V2000
   47.3920   24.9630  -14.1730 C   0  0  0  0  0  0  0  0  0  0  0  0
   46.3310   24.8870  -13.3630 C   0  0  0  0  0  0  0  0  0  0  0  0
   46.4810   24.2420  -12.1840 F   0  0  0  0  0  0  0  0  0  0  0  0
   44.9970   25.4270  -13.6780 C   0  0  0  0  0  0  0  0  0  0  0  0
   44.7930   26.8180  -13.6760 C   0  0  0  0  0  0  0  0  0  0  0  0
   43.5340   27.3670  -13.9440 C   0  0  0  0  0  0  0  0  0  0  0  0
   42.4410   26.5420  -14.2220 C   0  0  0  0  0  0  0  0  0  0  0  0
   41.0940   27.0940  -14.4780 C   0  0  0  0  0  0  0  0  0  0  0  0
   40.6320   26.8200  -15.7600 O   0  0  0  0  0  0  0  0  0  0  0  0
   39.3930   27.2760  -16.1300 C   0  0  0  0  0  0  0  0  0  0  0  0
   38.9630   26.9650  -17.4220 C   0  0  0  0  0  0  0  0  0  0  0  0
   37.7110   27.4010  -17.8630 C   0  0  0  0  0  0  0  0  0  0  0  0
   36.8910   28.1470  -17.0140 C   0  0  0  0  0  0  0  0  0  0  0  0
   37.3220   28.4550  -15.7260 C   0  0  0  0  0  0  0  0  0  0  0  0
   36.4690   29.1890  -14.9480 O   0  0  0  0  0  0  0  0  0  0  0  0
   38.5740   28.0180  -15.2850 C   0  0  0  0  0  0  0  0  0  0  0  0
   39.0650   28.3200  -13.9400 C   0  0  0  0  0  0  0  0  0  0  0  0
   38.4050   28.9770  -13.1370 O   0  0  0  0  0  0  0  0  0  0  0  0
   40.4030   27.8050  -13.5680 C   0  0  0  0  0  0  0  0  0  0  0  0
   40.8630   28.1070  -12.2990 O   0  0  0  0  0  0  0  0  0  0  0  0
   42.6370   25.1530  -14.2080 C   0  0  0  0  0  0  0  0  0  0  0  0
   43.9000   24.5840  -13.9500 C   0  0  0  0  0  0  0  0  0  0  0  0
   44.0270   23.0830  -13.9520 C   0  0  0  0  0  0  0  0  0  0  0  0
   47.3094   25.4796  -15.1406 H   0  0  0  0  0  0  0  0  0  0  0  0
   48.3476   24.5089  -13.8718 H   0  0  0  0  0  0  0  0  0  0  0  0
   45.6388   27.4873  -13.4597 H   0  0  0  0  0  0  0  0  0  0  0  0
   43.4034   28.4592  -13.9357 H   0  0  0  0  0  0  0  0  0  0  0  0
   39.6090   26.3778  -18.0912 H   0  0  0  0  0  0  0  0  0  0  0  0
   37.3709   27.1563  -18.8801 H   0  0  0  0  0  0  0  0  0  0  0  0
   35.9058   28.4910  -17.3620 H   0  0  0  0  0  0  0  0  0  0  0  0
   36.8110   29.8020  -14.3270 H   0  0  0  0  0  0  0  0  0  0  0  0
   41.7840   28.1340  -12.1290 H   0  0  0  0  0  0  0  0  0  0  0  0
   41.7814   24.4900  -14.4038 H   0  0  0  0  0  0  0  0  0  0  0  0
   44.0580   22.7163  -12.9154 H   0  0  0  0  0  0  0  0  0  0  0  0
   43.1629   22.6426  -14.4710 H   0  0  0  0  0  0  0  0  0  0  0  0
   44.9528   22.7940  -14.4710 H   0  0  0  0  0  0  0  0  0  0  0  0
  1  2  2  0
  2  3  1  0
  2  4  1  0
  4  5  2  0
  5  6  1  0
  6  7  2  0
  7  8  1  0
  8  9  1  0
  9 10  1  0
 10 11  2  0
 11 12  1  0
 12 13  2  0
 13 14  1  0
 14 15  1  0
 14 16  2  0
 16 17  1  0
 17 18  2  0
 17 19  1  0
 19 20  1  0
  7 21  1  0
 21 22  2  0
 22 23  1  0
 22  4  1  0
 19  8  2  0
 16 10  1  0
  1 24  1  0
  1 25  1  0
  5 26  1  0
  6 27  1  0
 11 28  1  0
 12 29  1  0
 13 30  1  0
 15 31  1  0
 20 32  1  0
 21 33  1  0
 23 34  1  0
 23 35  1  0
 23 36  1  0
M  END
>  <meeko>  (4) 
{"is_sidechain": [false], "free_energy": -5.428, "intermolecular_energy": -6.12, "internal_energy": -0.435}

$$$$
