cand_019_out
     RDKit          3D

 35 37  0  0  0  0  0  0  0  0999 V2000
   38.7380   26.6970  -18.6200 O   0  0  0  0  0  0  0  0  0  0  0  0
   39.0710   26.9210  -17.4590 C   0  0  0  0  0  0  0  0  0  0  0  0
   40.3130   26.3330  -16.9060 C   0  0  0  0  0  0  0  0  0  0  0  0
   41.0540   25.5220  -17.7460 O   0  0  0  0  0  0  0  0  0  0  0  0
   40.6390   26.6040  -15.6290 C   0  0  0  0  0  0  0  0  0  0  0  0
   41.8470   26.0630  -14.9680 C   0  0  0  0  0  0  0  0  0  0  0  0
   42.2880   24.7560  -15.1970 C   0  0  0  0  0  0  0  0  0  0  0  0
   43.4460   24.2730  -14.5800 C   0  0  0  0  0  0  0  0  0  0  0  0
   44.1940   25.0880  -13.7180 C   0  0  0  0  0  0  0  0  0  0  0  0
   45.4420   24.5380  -13.0740 C   0  0  0  0  0  0  0  0  0  0  0  0
   46.4350   24.3070  -13.9790 F   0  0  0  0  0  0  0  0  0  0  0  0
   43.7790   26.4180  -13.4960 C   0  0  0  0  0  0  0  0  0  0  0  0
   44.5630   27.3470  -12.5950 C   0  0  0  0  0  0  0  0  0  0  0  0
   45.9080   27.2460  -12.7880 F   0  0  0  0  0  0  0  0  0  0  0  0
   44.2690   28.6650  -12.7990 F   0  0  0  0  0  0  0  0  0  0  0  0
   42.6070   26.8850  -14.1230 C   0  0  0  0  0  0  0  0  0  0  0  0
   39.8730   27.3990  -14.7840 O   0  0  0  0  0  0  0  0  0  0  0  0
   38.7200   27.9630  -15.2700 C   0  0  0  0  0  0  0  0  0  0  0  0
   37.9870   28.7610  -14.3910 C   0  0  0  0  0  0  0  0  0  0  0  0
   36.8030   29.3650  -14.8220 C   0  0  0  0  0  0  0  0  0  0  0  0
   36.3520   29.1690  -16.1290 C   0  0  0  0  0  0  0  0  0  0  0  0
   37.0860   28.3710  -17.0030 C   0  0  0  0  0  0  0  0  0  0  0  0
   36.5880   28.2220  -18.2680 O   0  0  0  0  0  0  0  0  0  0  0  0
   38.2700   27.7680  -16.5720 C   0  0  0  0  0  0  0  0  0  0  0  0
   41.9380   25.3020  -17.5260 H   0  0  0  0  0  0  0  0  0  0  0  0
   41.7171   24.1000  -15.8706 H   0  0  0  0  0  0  0  0  0  0  0  0
   43.7744   23.2411  -14.7731 H   0  0  0  0  0  0  0  0  0  0  0  0
   45.8040   25.2623  -12.3295 H   0  0  0  0  0  0  0  0  0  0  0  0
   45.1828   23.5761  -12.6075 H   0  0  0  0  0  0  0  0  0  0  0  0
   44.2731   27.0306  -11.5822 H   0  0  0  0  0  0  0  0  0  0  0  0
   42.2798   27.9201  -13.9454 H   0  0  0  0  0  0  0  0  0  0  0  0
   38.3405   28.9143  -13.3607 H   0  0  0  0  0  0  0  0  0  0  0  0
   36.2252   29.9959  -14.1306 H   0  0  0  0  0  0  0  0  0  0  0  0
   35.4192   29.6438  -16.4674 H   0  0  0  0  0  0  0  0  0  0  0  0
   35.9470   27.5610  -18.4450 H   0  0  0  0  0  0  0  0  0  0  0  0
  1  2  2  0
  2  3  1  0
  3  4  1  0
  3  5  2  0
  5  6  1  0
  6  7  2  0
  7  8  1  0
  8  9  2  0
  9 10  1  0
 10 11  1  0
  9 12  1  0
 12 13  1  0
 13 14  1  0
 13 15  1  0
 12 16  2  0
  5 17  1  0
 17 18  1  0
 18 19  2  0
 19 20  1  0
 20 21  2  0
 21 22  1  0
 22 23  1  0
 22 24  2  0
 24  2  1  0
 16  6  1  0
 24 18  1  0
  4 25  1  0
  7 26  1  0
  8 27  1  0
 10 28  1  0
 10 29  1  0
 13 30  1  0
 16 31  1  0
 19 32  1  0
 20 33  1  0
 21 34  1  0
 23 35  1  0
M  END
>  <meeko>  (1) 
{"is_sidechain": [false], "free_energy": -7.763, "intermolecular_energy": -9.578, "internal_energy": 0.11}

$$$$
cand_019_out
     RDKit          3D

 35 37  0  0  0  0  0  0  0  0999 V2000
   38.3400   29.1190  -13.1990 O   0  0  0  0  0  0  0  0  0  0  0  0
   38.9150   28.4000  -14.0130 C   0  0  0  0  0  0  0  0  0  0  0  0
   40.1910   27.7350  -13.6600 C   0  0  0  0  0  0  0  0  0  0  0  0
   40.6970   27.9770  -12.3960 O   0  0  0  0  0  0  0  0  0  0  0  0
   40.7870   26.9580  -14.5820 C   0  0  0  0  0  0  0  0  0  0  0  0
   42.0680   26.2560  -14.3450 C   0  0  0  0  0  0  0  0  0  0  0  0
   42.3320   24.9980  -14.8960 C   0  0  0  0  0  0  0  0  0  0  0  0
   43.5580   24.3650  -14.6780 C   0  0  0  0  0  0  0  0  0  0  0  0
   44.5550   24.9750  -13.9030 C   0  0  0  0  0  0  0  0  0  0  0  0
   45.8700   24.2670  -13.6940 C   0  0  0  0  0  0  0  0  0  0  0  0
   46.7970   24.6040  -14.6340 F   0  0  0  0  0  0  0  0  0  0  0  0
   44.3170   26.2570  -13.3620 C   0  0  0  0  0  0  0  0  0  0  0  0
   45.3670   26.9710  -12.5390 C   0  0  0  0  0  0  0  0  0  0  0  0
   46.5930   26.9520  -13.1330 F   0  0  0  0  0  0  0  0  0  0  0  0
   45.0850   28.2920  -12.3400 F   0  0  0  0  0  0  0  0  0  0  0  0
   43.0730   26.8770  -13.5880 C   0  0  0  0  0  0  0  0  0  0  0  0
   40.2830   26.7440  -15.8600 O   0  0  0  0  0  0  0  0  0  0  0  0
   39.1000   27.3400  -16.2140 C   0  0  0  0  0  0  0  0  0  0  0  0
   38.6250   27.0900  -17.5020 C   0  0  0  0  0  0  0  0  0  0  0  0
   37.4260   27.6680  -17.9270 C   0  0  0  0  0  0  0  0  0  0  0  0
   36.7030   28.4940  -17.0640 C   0  0  0  0  0  0  0  0  0  0  0  0
   37.1790   28.7420  -15.7790 C   0  0  0  0  0  0  0  0  0  0  0  0
   36.4220   29.5600  -14.9870 O   0  0  0  0  0  0  0  0  0  0  0  0
   38.3780   28.1640  -15.3550 C   0  0  0  0  0  0  0  0  0  0  0  0
   41.0300   27.2680  -11.8810 H   0  0  0  0  0  0  0  0  0  0  0  0
   41.5651   24.5011  -15.5083 H   0  0  0  0  0  0  0  0  0  0  0  0
   43.7439   23.3750  -15.1200 H   0  0  0  0  0  0  0  0  0  0  0  0
   46.2608   24.5338  -12.7010 H   0  0  0  0  0  0  0  0  0  0  0  0
   45.6856   23.1858  -13.7777 H   0  0  0  0  0  0  0  0  0  0  0  0
   45.3677   26.4209  -11.5864 H   0  0  0  0  0  0  0  0  0  0  0  0
   42.8845   27.8728  -13.1605 H   0  0  0  0  0  0  0  0  0  0  0  0
   39.1938   26.4387  -18.1819 H   0  0  0  0  0  0  0  0  0  0  0  0
   37.0512   27.4721  -18.9425 H   0  0  0  0  0  0  0  0  0  0  0  0
   35.7587   28.9482  -17.3987 H   0  0  0  0  0  0  0  0  0  0  0  0
   36.5310   30.4900  -15.0330 H   0  0  0  0  0  0  0  0  0  0  0  0
  1  2  2  0
  2  3  1  0
  3  4  1  0
  3  5  2  0
  5  6  1  0
  6  7  2  0
  7  8  1  0
  8  9  2  0
  9 10  1  0
 10 11  1  0
  9 12  1  0
 12 13  1  0
 13 14  1  0
 13 15  1  0
 12 16  2  0
  5 17  1  0
 17 18  1  0
 18 19  2  0
 19 20  1  0
 20 21  2  0
 21 22  1  0
 22 23  1  0
 22 24  2  0
 24  2  1  0
 16  6  1  0
 24 18  1  0
  4 25  1  0
  7 26  1  0
  8 27  1  0
 10 28  1  0
 10 29  1  0
 13 30  1  0
 16 31  1  0
 19 32  1  0
 20 33  1  0
 21 34  1  0
 23 35  1  0
M  END
>  <meeko>  (2) 
{"is_sidechain": [false], "free_energy": -7.44, "intermolecular_energy": -9.204, "internal_energy": 0.135}

$$$$
cand_019_out
     RDKit          3D

 35 37  0  0  0  0  0  0  0  0999 V2000
   41.3880   27.3780  -11.0600 O   0  0  0  0  0  0  0  0  0  0  0  0
   41.2690   27.2180  -12.2730 C   0  0  0  0  0  0  0  0  0  0  0  0
   40.0740   27.7290  -12.9850 C   0  0  0  0  0  0  0  0  0  0  0  0
   39.1120   28.3660  -12.2220 O   0  0  0  0  0  0  0  0  0  0  0  0
   39.9840   27.5310  -14.3120 C   0  0  0  0  0  0  0  0  0  0  0  0
   38.8320   27.9850  -15.1230 C   0  0  0  0  0  0  0  0  0  0  0  0
   37.9770   29.0010  -14.6840 C   0  0  0  0  0  0  0  0  0  0  0  0
   36.9090   29.4290  -15.4770 C   0  0  0  0  0  0  0  0  0  0  0  0
   36.6690   28.8530  -16.7330 C   0  0  0  0  0  0  0  0  0  0  0  0
   35.5130   29.3430  -17.5660 C   0  0  0  0  0  0  0  0  0  0  0  0
   35.7900   30.5170  -18.2000 F   0  0  0  0  0  0  0  0  0  0  0  0
   37.5380   27.8450  -17.2040 C   0  0  0  0  0  0  0  0  0  0  0  0
   37.3390   27.2060  -18.5600 C   0  0  0  0  0  0  0  0  0  0  0  0
   37.5590   25.8610  -18.5390 F   0  0  0  0  0  0  0  0  0  0  0  0
   36.0690   27.3530  -19.0410 F   0  0  0  0  0  0  0  0  0  0  0  0
   38.6050   27.4220  -16.3880 C   0  0  0  0  0  0  0  0  0  0  0  0
   40.9440   26.8640  -15.0640 O   0  0  0  0  0  0  0  0  0  0  0  0
   42.0650   26.3860  -14.4340 C   0  0  0  0  0  0  0  0  0  0  0  0
   43.0070   25.7320  -15.2290 C   0  0  0  0  0  0  0  0  0  0  0  0
   44.1710   25.2210  -14.6510 C   0  0  0  0  0  0  0  0  0  0  0  0
   44.3920   25.3620  -13.2790 C   0  0  0  0  0  0  0  0  0  0  0  0
   43.4490   26.0150  -12.4880 C   0  0  0  0  0  0  0  0  0  0  0  0
   43.7280   26.1180  -11.1530 O   0  0  0  0  0  0  0  0  0  0  0  0
   42.2850   26.5270  -13.0680 C   0  0  0  0  0  0  0  0  0  0  0  0
   38.2970   28.6170  -12.6100 H   0  0  0  0  0  0  0  0  0  0  0  0
   38.1472   29.4686  -13.7030 H   0  0  0  0  0  0  0  0  0  0  0  0
   36.2477   30.2283  -15.1113 H   0  0  0  0  0  0  0  0  0  0  0  0
   35.2746   28.5808  -18.3224 H   0  0  0  0  0  0  0  0  0  0  0  0
   34.6636   29.5195  -16.8898 H   0  0  0  0  0  0  0  0  0  0  0  0
   38.0663   27.7275  -19.1996 H   0  0  0  0  0  0  0  0  0  0  0  0
   39.2771   26.6306  -16.7513 H   0  0  0  0  0  0  0  0  0  0  0  0
   42.8330   25.6191  -16.3093 H   0  0  0  0  0  0  0  0  0  0  0  0
   44.9150   24.7067  -15.2771 H   0  0  0  0  0  0  0  0  0  0  0  0
   45.3085   24.9584  -12.8240 H   0  0  0  0  0  0  0  0  0  0  0  0
   44.3380   25.5280  -10.7550 H   0  0  0  0  0  0  0  0  0  0  0  0
  1  2  2  0
  2  3  1  0
  3  4  1  0
  3  5  2  0
  5  6  1  0
  6  7  2  0
  7  8  1  0
  8  9  2  0
  9 10  1  0
 10 11  1  0
  9 12  1  0
 12 13  1  0
 13 14  1  0
 13 15  1  0
 12 16  2  0
  5 17  1  0
 17 18  1  0
 18 19  2  0
 19 20  1  0
 20 21  2  0
 21 22  1  0
 22 23  1  0
 22 24  2  0
 24  2  1  0
 16  6  1  0
 24 18  1  0
  4 25  1  0
  7 26  1  0
  8 27  1  0
 10 28  1  0
 10 29  1  0
 13 30  1  0
 16 31  1  0
 19 32  1  0
 20 33  1  0
 21 34  1  0
 23 35  1  0
M  END
>  <meeko>  (3) 
{"is_sidechain": [false], "free_energy": -7.003, "intermolecular_energy": -9.094, "internal_energy": 0.564}

$$$$
cand_019_out
     RDKit          3D

 35 37  0  0  0  0  0  0  0  0999 V2000
   41.4500   27.2430  -11.4020 O   0  0  0  0  0  0  0  0  0  0  0  0
   41.5600   26.9300  -12.5850 C   0  0  0  0  0  0  0  0  0  0  0  0
   40.4450   27.1650  -13.5320 C   0  0  0  0  0  0  0  0  0  0  0  0
   39.2920   27.7300  -13.0180 O   0  0  0  0  0  0  0  0  0  0  0  0
   40.6080   26.8050  -14.8180 C   0  0  0  0  0  0  0  0  0  0  0  0
   39.5600   26.9790  -15.8470 C   0  0  0  0  0  0  0  0  0  0  0  0
   39.5120   26.1790  -16.9930 C   0  0  0  0  0  0  0  0  0  0  0  0
   38.4990   26.3470  -17.9410 C   0  0  0  0  0  0  0  0  0  0  0  0
   37.5050   27.3200  -17.7670 C   0  0  0  0  0  0  0  0  0  0  0  0
   36.4220   27.4700  -18.8050 C   0  0  0  0  0  0  0  0  0  0  0  0
   36.5520   26.5760  -19.8250 F   0  0  0  0  0  0  0  0  0  0  0  0
   37.5220   28.1190  -16.6030 C   0  0  0  0  0  0  0  0  0  0  0  0
   36.4600   29.1680  -16.3540 C   0  0  0  0  0  0  0  0  0  0  0  0
   36.3910   29.5360  -15.0430 F   0  0  0  0  0  0  0  0  0  0  0  0
   36.6810   30.3280  -17.0400 F   0  0  0  0  0  0  0  0  0  0  0  0
   38.5530   27.9390  -15.6620 C   0  0  0  0  0  0  0  0  0  0  0  0
   41.7610   26.2110  -15.3180 O   0  0  0  0  0  0  0  0  0  0  0  0
   42.8130   25.9870  -14.4660 C   0  0  0  0  0  0  0  0  0  0  0  0
   43.9560   25.3990  -15.0120 C   0  0  0  0  0  0  0  0  0  0  0  0
   45.0630   25.1420  -14.2000 C   0  0  0  0  0  0  0  0  0  0  0  0
   45.0270   25.4730  -12.8430 C   0  0  0  0  0  0  0  0  0  0  0  0
   43.8860   26.0590  -12.3020 C   0  0  0  0  0  0  0  0  0  0  0  0
   43.9200   26.3570  -10.9670 O   0  0  0  0  0  0  0  0  0  0  0  0
   42.7790   26.3160  -13.1150 C   0  0  0  0  0  0  0  0  0  0  0  0
   38.4900   27.2460  -13.0260 H   0  0  0  0  0  0  0  0  0  0  0  0
   40.2809   25.4082  -17.1502 H   0  0  0  0  0  0  0  0  0  0  0  0
   38.4814   25.7072  -18.8356 H   0  0  0  0  0  0  0  0  0  0  0  0
   35.4460   27.3151  -18.3219 H   0  0  0  0  0  0  0  0  0  0  0  0
   36.5049   28.4803  -19.2322 H   0  0  0  0  0  0  0  0  0  0  0  0
   35.5324   28.6817  -16.6903 H   0  0  0  0  0  0  0  0  0  0  0  0
   38.5700   28.5666  -14.7587 H   0  0  0  0  0  0  0  0  0  0  0  0
   43.9844   25.1386  -16.0803 H   0  0  0  0  0  0  0  0  0  0  0  0
   45.9637   24.6787  -14.6291 H   0  0  0  0  0  0  0  0  0  0  0  0
   45.8987   25.2709  -12.2033 H   0  0  0  0  0  0  0  0  0  0  0  0
   43.1530   26.2410  -10.4410 H   0  0  0  0  0  0  0  0  0  0  0  0
  1  2  2  0
  2  3  1  0
  3  4  1  0
  3  5  2  0
  5  6  1  0
  6  7  2  0
  7  8  1  0
  8  9  2  0
  9 10  1  0
 10 11  1  0
  9 12  1  0
 12 13  1  0
 13 14  1  0
 13 15  1  0
 12 16  2  0
  5 17  1  0
 17 18  1  0
 18 19  2  0
 19 20  1  0
 20 21  2  0
 21 22  1  0
 22 23  1  0
 22 24  2  0
 24  2  1  0
 16  6  1  0
 24 18  1  0
  4 25  1  0
  7 26  1  0
  8 27  1  0
 10 28  1  0
 10 29  1  0
 13 30  1  0
 16 31  1  0
 19 32  1  0
 20 33  1  0
 21 34  1  0
 23 35  1  0
M  END
>  <meeko>  (4) 
{"is_sidechain": [false], "free_energy": -6.712, "intermolecular_energy": -8.214, "internal_energy": 0.042}

$$$$
cand_019_out
     RDKit          3D

 35 37  0  0  0  0  0  0  0  0999 V2000
   37.2150   29.6590  -14.3120 O   0  0  0  0  0  0  0  0  0  0  0  0
   38.0280   28.8330  -14.7220 C   0  0  0  0  0  0  0  0  0  0  0  0
   39.1990   28.4570  -13.8960 C   0  0  0  0  0  0  0  0  0  0  0  0
   39.3330   29.0860  -12.6720 O   0  0  0  0  0  0  0  0  0  0  0  0
   40.0650   27.5500  -14.3840 C   0  0  0  0  0  0  0  0  0  0  0  0
   41.2740   27.1100  -13.6550 C   0  0  0  0  0  0  0  0  0  0  0  0
   41.3330   27.1120  -12.2580 C   0  0  0  0  0  0  0  0  0  0  0  0
   42.4780   26.6690  -11.5890 C   0  0  0  0  0  0  0  0  0  0  0  0
   43.5950   26.2100  -12.3020 C   0  0  0  0  0  0  0  0  0  0  0  0
   44.8110   25.7330  -11.5500 C   0  0  0  0  0  0  0  0  0  0  0  0
   45.0380   24.4000  -11.7220 F   0  0  0  0  0  0  0  0  0  0  0  0
   43.5430   26.1750  -13.7120 C   0  0  0  0  0  0  0  0  0  0  0  0
   44.7100   25.6670  -14.5300 C   0  0  0  0  0  0  0  0  0  0  0  0
   45.8930   26.2270  -14.1500 F   0  0  0  0  0  0  0  0  0  0  0  0
   44.8990   24.3200  -14.4140 F   0  0  0  0  0  0  0  0  0  0  0  0
   42.3830   26.6300  -14.3680 C   0  0  0  0  0  0  0  0  0  0  0  0
   39.9350   26.9450  -15.6290 O   0  0  0  0  0  0  0  0  0  0  0  0
   38.8570   27.2680  -16.4130 C   0  0  0  0  0  0  0  0  0  0  0  0
   38.7600   26.6290  -17.6510 C   0  0  0  0  0  0  0  0  0  0  0  0
   37.6870   26.9130  -18.4990 C   0  0  0  0  0  0  0  0  0  0  0  0
   36.7120   27.8350  -18.1100 C   0  0  0  0  0  0  0  0  0  0  0  0
   36.8120   28.4700  -16.8750 C   0  0  0  0  0  0  0  0  0  0  0  0
   35.8230   29.3610  -16.5590 O   0  0  0  0  0  0  0  0  0  0  0  0
   37.8850   28.1860  -16.0280 C   0  0  0  0  0  0  0  0  0  0  0  0
   38.7530   28.8700  -11.9680 H   0  0  0  0  0  0  0  0  0  0  0  0
   40.4680   27.4664  -11.6782 H   0  0  0  0  0  0  0  0  0  0  0  0
   42.5030   26.6806  -10.4893 H   0  0  0  0  0  0  0  0  0  0  0  0
   45.6892   26.2901  -11.9084 H   0  0  0  0  0  0  0  0  0  0  0  0
   44.6329   25.9076  -10.4786 H   0  0  0  0  0  0  0  0  0  0  0  0
   44.4419   25.9407  -15.5611 H   0  0  0  0  0  0  0  0  0  0  0  0
   42.3454   26.6086  -15.4671 H   0  0  0  0  0  0  0  0  0  0  0  0
   39.5274   25.9031  -17.9578 H   0  0  0  0  0  0  0  0  0  0  0  0
   37.6095   26.4101  -19.4743 H   0  0  0  0  0  0  0  0  0  0  0  0
   35.8672   28.0587  -18.7780 H   0  0  0  0  0  0  0  0  0  0  0  0
   34.9460   29.0610  -16.4260 H   0  0  0  0  0  0  0  0  0  0  0  0
  1  2  2  0
  2  3  1  0
  3  4  1  0
  3  5  2  0
  5  6  1  0
  6  7  2  0
  7  8  1  0
  8  9  2  0
  9 10  1  0
 10 11  1  0
  9 12  1  0
 12 13  1  0
 13 14  1  0
 13 15  1  0
 12 16  2  0
  5 17  1  0
 17 18  1  0
 18 19  2  0
 19 20  1  0
 20 21  2  0
 21 22  1  0
 22 23  1  0
 22 24  2  0
 24  2  1  0
 16  6  1  0
 24 18  1  0
  4 25  1  0
  7 26  1  0
  8 27  1  0
 10 28  1  0
 10 29  1  0
 13 30  1  0
 16 31  1  0
 19 32  1  0
 20 33  1  0
 21 34  1  0
 23 35  1  0
M  END
>  <meeko>  (5) 
{"is_sidechain": [false], "free_energy": -5.824, "intermolecular_energy": -7.306, "internal_energy": 0.231}

$$$$
cand_019_out
     RDKit          3D

 35 37  0  0  0  0  0  0  0  0999 V2000
   38.8100   26.2610  -18.5690 O   0  0  0  0  0  0  0  0  0  0  0  0
   38.9350   26.7790  -17.4610 C   0  0  0  0  0  0  0  0  0  0  0  0
   40.1030   26.4580  -16.6090 C   0  0  0  0  0  0  0  0  0  0  0  0
   41.0170   25.5500  -17.1110 O   0  0  0  0  0  0  0  0  0  0  0  0
   40.1990   27.0460  -15.4030 C   0  0  0  0  0  0  0  0  0  0  0  0
   41.3130   26.7910  -14.4630 C   0  0  0  0  0  0  0  0  0  0  0  0
   41.2690   27.2230  -13.1340 C   0  0  0  0  0  0  0  0  0  0  0  0
   42.3230   26.9510  -12.2580 C   0  0  0  0  0  0  0  0  0  0  0  0
   43.4500   26.2370  -12.6890 C   0  0  0  0  0  0  0  0  0  0  0  0
   44.5660   25.9530  -11.7160 C   0  0  0  0  0  0  0  0  0  0  0  0
   45.6430   26.7650  -11.9100 F   0  0  0  0  0  0  0  0  0  0  0  0
   43.5000   25.7690  -14.0200 C   0  0  0  0  0  0  0  0  0  0  0  0
   44.6810   24.9740  -14.5300 C   0  0  0  0  0  0  0  0  0  0  0  0
   45.8380   25.6940  -14.5170 F   0  0  0  0  0  0  0  0  0  0  0  0
   44.9430   23.8630  -13.7800 F   0  0  0  0  0  0  0  0  0  0  0  0
   42.4310   26.0580  -14.8890 C   0  0  0  0  0  0  0  0  0  0  0  0
   39.2590   27.9360  -14.8970 O   0  0  0  0  0  0  0  0  0  0  0  0
   38.1690   28.2580  -15.6660 C   0  0  0  0  0  0  0  0  0  0  0  0
   37.2560   29.1630  -15.1230 C   0  0  0  0  0  0  0  0  0  0  0  0
   36.1250   29.5340  -15.8530 C   0  0  0  0  0  0  0  0  0  0  0  0
   35.9060   28.9990  -17.1250 C   0  0  0  0  0  0  0  0  0  0  0  0
   36.8200   28.0950  -17.6630 C   0  0  0  0  0  0  0  0  0  0  0  0
   36.5440   27.6110  -18.9130 O   0  0  0  0  0  0  0  0  0  0  0  0
   37.9510   27.7260  -16.9320 C   0  0  0  0  0  0  0  0  0  0  0  0
   40.7350   24.6940  -17.3690 H   0  0  0  0  0  0  0  0  0  0  0  0
   40.3940   27.7838  -12.7737 H   0  0  0  0  0  0  0  0  0  0  0  0
   42.2679   27.3016  -11.2168 H   0  0  0  0  0  0  0  0  0  0  0  0
   44.1899   26.1032  -10.6933 H   0  0  0  0  0  0  0  0  0  0  0  0
   44.8948   24.9155  -11.8760 H   0  0  0  0  0  0  0  0  0  0  0  0
   44.3843   24.6993  -15.5530 H   0  0  0  0  0  0  0  0  0  0  0  0
   42.4732   25.7001  -15.9283 H   0  0  0  0  0  0  0  0  0  0  0  0
   37.4271   29.5836  -14.1211 H   0  0  0  0  0  0  0  0  0  0  0  0
   35.4056   30.2483  -15.4261 H   0  0  0  0  0  0  0  0  0  0  0  0
   35.0148   29.2905  -17.7001 H   0  0  0  0  0  0  0  0  0  0  0  0
   36.2640   28.1940  -19.5910 H   0  0  0  0  0  0  0  0  0  0  0  0
  1  2  2  0
  2  3  1  0
  3  4  1  0
  3  5  2  0
  5  6  1  0
  6  7  2  0
  7  8  1  0
  8  9  2  0
  9 10  1  0
 10 11  1  0
  9 12  1  0
 12 13  1  0
 13 14  1  0
 13 15  1  0
 12 16  2  0
  5 17  1  0
 17 18  1  0
 18 19  2  0
 19 20  1  0
 20 21  2  0
 21 22  1  0
 22 23  1  0
 22 24  2  0
 24  2  1  0
 16  6  1  0
 24 18  1  0
  4 25  1  0
  7 26  1  0
  8 27  1  0
 10 28  1  0
 10 29  1  0
 13 30  1  0
 16 31  1  0
 19 32  1  0
 20 33  1  0
 21 34  1  0
 23 35  1  0
M  END
>  <meeko>  (6) 
{"is_sidechain": [false], "free_energy": -5.766, "intermolecular_energy": -7.304, "internal_energy": 0.299}

$$$$
cand_019_out
     RDKit          3D

 35 37  0  0  0  0  0  0  0  0999 V2000
   37.6880   25.9080  -19.1830 O   0  0  0  0  0  0  0  0  0  0  0  0
   37.6790   26.6810  -18.2270 C   0  0  0  0  0  0  0  0  0  0  0  0
   38.6540   26.5240  -17.1240 C   0  0  0  0  0  0  0  0  0  0  0  0
   39.5470   25.4720  -17.2190 O   0  0  0  0  0  0  0  0  0  0  0  0
   38.6070   27.3920  -16.0970 C   0  0  0  0  0  0  0  0  0  0  0  0
   39.5220   27.3240  -14.9360 C   0  0  0  0  0  0  0  0  0  0  0  0
   39.2100   27.9320  -13.7160 C   0  0  0  0  0  0  0  0  0  0  0  0
   40.0790   27.8350  -12.6260 C   0  0  0  0  0  0  0  0  0  0  0  0
   41.2830   27.1240  -12.7270 C   0  0  0  0  0  0  0  0  0  0  0  0
   42.1950   27.0330  -11.5290 C   0  0  0  0  0  0  0  0  0  0  0  0
   41.5490   26.5780  -10.4190 F   0  0  0  0  0  0  0  0  0  0  0  0
   41.6020   26.4800  -13.9420 C   0  0  0  0  0  0  0  0  0  0  0  0
   42.8760   25.6800  -14.0980 C   0  0  0  0  0  0  0  0  0  0  0  0
   42.7600   24.6960  -15.0330 F   0  0  0  0  0  0  0  0  0  0  0  0
   43.9380   26.4370  -14.5040 F   0  0  0  0  0  0  0  0  0  0  0  0
   40.7170   26.5940  -15.0310 C   0  0  0  0  0  0  0  0  0  0  0  0
   37.6870   28.4290  -15.9990 O   0  0  0  0  0  0  0  0  0  0  0  0
   36.7750   28.6040  -17.0090 C   0  0  0  0  0  0  0  0  0  0  0  0
   35.8770   29.6630  -16.8750 C   0  0  0  0  0  0  0  0  0  0  0  0
   34.9220   29.8960  -17.8670 C   0  0  0  0  0  0  0  0  0  0  0  0
   34.8650   29.0700  -18.9920 C   0  0  0  0  0  0  0  0  0  0  0  0
   35.7630   28.0130  -19.1220 C   0  0  0  0  0  0  0  0  0  0  0  0
   35.6500   27.2450  -20.2480 O   0  0  0  0  0  0  0  0  0  0  0  0
   36.7170   27.7810  -18.1300 C   0  0  0  0  0  0  0  0  0  0  0  0
   39.5180   24.7750  -16.5920 H   0  0  0  0  0  0  0  0  0  0  0  0
   38.2695   28.4932  -13.6131 H   0  0  0  0  0  0  0  0  0  0  0  0
   39.8149   28.3230  -11.6762 H   0  0  0  0  0  0  0  0  0  0  0  0
   43.0203   26.3450  -11.7645 H   0  0  0  0  0  0  0  0  0  0  0  0
   42.5649   28.0457  -11.3108 H   0  0  0  0  0  0  0  0  0  0  0  0
   43.0473   25.2679  -13.0926 H   0  0  0  0  0  0  0  0  0  0  0  0
   40.9684   26.0984  -15.9803 H   0  0  0  0  0  0  0  0  0  0  0  0
   35.9210   30.3137  -15.9892 H   0  0  0  0  0  0  0  0  0  0  0  0
   34.2137   30.7311  -17.7623 H   0  0  0  0  0  0  0  0  0  0  0  0
   34.1129   29.2537  -19.7734 H   0  0  0  0  0  0  0  0  0  0  0  0
   35.9950   26.3740  -20.2570 H   0  0  0  0  0  0  0  0  0  0  0  0
  1  2  2  0
  2  3  1  0
  3  4  1  0
  3  5  2  0
  5  6  1  0
  6  7  2  0
  7  8  1  0
  8  9  2  0
  9 10  1  0
 10 11  1  0
  9 12  1  0
 12 13  1  0
 13 14  1  0
 13 15  1  0
 12 16  2  0
  5 17  1  0
 17 18  1  0
 18 19  2  0
 19 20  1  0
 20 21  2  0
 21 22  1  0
 22 23  1  0
 22 24  2  0
 24  2  1  0
 16  6  1  0
 24 18  1  0
  4 25  1  0
  7 26  1  0
  8 27  1  0
 10 28  1  0
 10 29  1  0
 13 30  1  0
 16 31  1  0
 19 32  1  0
 20 33  1  0
 21 34  1  0
 23 35  1  0
M  END
>  <meeko>  (7) 
{"is_sidechain": [false], "free_energy": -5.414, "intermolecular_energy": -6.646, "internal_energy": 0.075}

$$$$
cand_019_out
     RDKit          3D

 35 37  0  0  0  0  0  0  0  0999 V2000
   42.5880   25.4860  -16.0290 O   0  0  0  0  0  0  0  0  0  0  0  0
   41.6590   26.1150  -15.5280 C   0  0  0  0  0  0  0  0  0  0  0  0
   40.5050   26.5380  -16.3540 C   0  0  0  0  0  0  0  0  0  0  0  0
   40.5390   26.2080  -17.6970 O   0  0  0  0  0  0  0  0  0  0  0  0
   39.5100   27.2250  -15.7650 C   0  0  0  0  0  0  0  0  0  0  0  0
   38.3170   27.7090  -16.4940 C   0  0  0  0  0  0  0  0  0  0  0  0
   37.6580   28.8870  -16.1280 C   0  0  0  0  0  0  0  0  0  0  0  0
   36.5460   29.3370  -16.8460 C   0  0  0  0  0  0  0  0  0  0  0  0
   36.0650   28.6200  -17.9510 C   0  0  0  0  0  0  0  0  0  0  0  0
   34.8680   29.1380  -18.7070 C   0  0  0  0  0  0  0  0  0  0  0  0
   34.7760   30.4970  -18.6680 F   0  0  0  0  0  0  0  0  0  0  0  0
   36.7330   27.4430  -18.3510 C   0  0  0  0  0  0  0  0  0  0  0  0
   36.2700   26.6440  -19.5490 C   0  0  0  0  0  0  0  0  0  0  0  0
   35.3750   27.3290  -20.3150 F   0  0  0  0  0  0  0  0  0  0  0  0
   37.2880   26.3140  -20.3980 F   0  0  0  0  0  0  0  0  0  0  0  0
   37.8480   27.0020  -17.6120 C   0  0  0  0  0  0  0  0  0  0  0  0
   39.4990   27.5750  -14.4200 O   0  0  0  0  0  0  0  0  0  0  0  0
   40.5510   27.1920  -13.6270 C   0  0  0  0  0  0  0  0  0  0  0  0
   40.4950   27.5560  -12.2810 C   0  0  0  0  0  0  0  0  0  0  0  0
   41.5340   27.1980  -11.4190 C   0  0  0  0  0  0  0  0  0  0  0  0
   42.6280   26.4770  -11.9030 C   0  0  0  0  0  0  0  0  0  0  0  0
   42.6810   26.1150  -13.2470 C   0  0  0  0  0  0  0  0  0  0  0  0
   43.7810   25.4100  -13.6530 O   0  0  0  0  0  0  0  0  0  0  0  0
   41.6420   26.4740  -14.1080 C   0  0  0  0  0  0  0  0  0  0  0  0
   40.2760   26.8360  -18.3410 H   0  0  0  0  0  0  0  0  0  0  0  0
   38.0188   29.4662  -15.2652 H   0  0  0  0  0  0  0  0  0  0  0  0
   36.0418   30.2656  -16.5402 H   0  0  0  0  0  0  0  0  0  0  0  0
   34.9486   28.8196  -19.7568 H   0  0  0  0  0  0  0  0  0  0  0  0
   33.9665   28.7274  -18.2288 H   0  0  0  0  0  0  0  0  0  0  0  0
   35.8205   25.7447  -19.1028 H   0  0  0  0  0  0  0  0  0  0  0  0
   38.3642   26.0803  -17.9188 H   0  0  0  0  0  0  0  0  0  0  0  0
   39.6338   28.1241  -11.8994 H   0  0  0  0  0  0  0  0  0  0  0  0
   41.4907   27.4842  -10.3578 H   0  0  0  0  0  0  0  0  0  0  0  0
   43.4463   26.1955  -11.2239 H   0  0  0  0  0  0  0  0  0  0  0  0
   44.3020   24.9510  -13.0240 H   0  0  0  0  0  0  0  0  0  0  0  0
  1  2  2  0
  2  3  1  0
  3  4  1  0
  3  5  2  0
  5  6  1  0
  6  7  2  0
  7  8  1  0
  8  9  2  0
  9 10  1  0
 10 11  1  0
  9 12  1  0
 12 13  1  0
 13 14  1  0
 13 15  1  0
 12 16  2  0
  5 17  1  0
 17 18  1  0
 18 19  2  0
 19 20  1  0
 20 21  2  0
 21 22  1  0
 22 23  1  0
 22 24  2  0
 24  2  1  0
 16  6  1  0
 24 18  1  0
  4 25  1  0
  7 26  1  0
  8 27  1  0
 10 28  1  0
 10 29  1  0
 13 30  1  0
 16 31  1  0
 19 32  1  0
 20 33  1  0
 21 34  1  0
 23 35  1  0
M  END
>  <meeko>  (8) 
{"is_sidechain": [false], "free_energy": -4.952, "intermolecular_energy": -6.693, "internal_energy": 0.693}

$$$$
cand_019_out
     RDKit          3D

 35 37  0  0  0  0  0  0  0  0999 V2000
   43.5040   25.4170  -15.5590 O   0  0  0  0  0  0  0  0  0  0  0  0
   42.4440   25.9210  -15.1940 C   0  0  0  0  0  0  0  0  0  0  0  0
   41.3520   26.1600  -16.1650 C   0  0  0  0  0  0  0  0  0  0  0  0
   41.5920   25.8070  -17.4810 O   0  0  0  0  0  0  0  0  0  0  0  0
   40.2090   26.7150  -15.7230 C   0  0  0  0  0  0  0  0  0  0  0  0
   39.0580   27.0110  -16.6040 C   0  0  0  0  0  0  0  0  0  0  0  0
   38.7770   26.2360  -17.7340 C   0  0  0  0  0  0  0  0  0  0  0  0
   37.6700   26.5200  -18.5390 C   0  0  0  0  0  0  0  0  0  0  0  0
   36.8130   27.5870  -18.2330 C   0  0  0  0  0  0  0  0  0  0  0  0
   35.6240   27.8610  -19.1180 C   0  0  0  0  0  0  0  0  0  0  0  0
   35.5110   26.9580  -20.1320 F   0  0  0  0  0  0  0  0  0  0  0  0
   37.0650   28.3630  -17.0800 C   0  0  0  0  0  0  0  0  0  0  0  0
   36.1590   29.5100  -16.6910 C   0  0  0  0  0  0  0  0  0  0  0  0
   34.9950   29.5150  -17.3990 F   0  0  0  0  0  0  0  0  0  0  0  0
   35.7810   29.4720  -15.3790 F   0  0  0  0  0  0  0  0  0  0  0  0
   38.1880   28.0650  -16.2850 C   0  0  0  0  0  0  0  0  0  0  0  0
   39.9890   27.0910  -14.4030 O   0  0  0  0  0  0  0  0  0  0  0  0
   40.9800   26.8770  -13.4790 C   0  0  0  0  0  0  0  0  0  0  0  0
   40.7130   27.2600  -12.1640 C   0  0  0  0  0  0  0  0  0  0  0  0
   41.6800   27.0700  -11.1730 C   0  0  0  0  0  0  0  0  0  0  0  0
   42.9120   26.4980  -11.4980 C   0  0  0  0  0  0  0  0  0  0  0  0
   43.1750   26.1170  -12.8110 C   0  0  0  0  0  0  0  0  0  0  0  0
   44.4010   25.5630  -13.0590 O   0  0  0  0  0  0  0  0  0  0  0  0
   42.2080   26.3070  -13.8010 C   0  0  0  0  0  0  0  0  0  0  0  0
   41.5090   26.4470  -18.1600 H   0  0  0  0  0  0  0  0  0  0  0  0
   39.4349   25.3931  -17.9923 H   0  0  0  0  0  0  0  0  0  0  0  0
   37.4685   25.8985  -19.4239 H   0  0  0  0  0  0  0  0  0  0  0  0
   34.7112   27.8202  -18.5056 H   0  0  0  0  0  0  0  0  0  0  0  0
   35.7637   28.8547  -19.5685 H   0  0  0  0  0  0  0  0  0  0  0  0
   36.7662   30.4029  -16.9006 H   0  0  0  0  0  0  0  0  0  0  0  0
   38.3887   28.6738  -15.3911 H   0  0  0  0  0  0  0  0  0  0  0  0
   39.7429   27.7108  -11.9078 H   0  0  0  0  0  0  0  0  0  0  0  0
   41.4706   27.3713  -10.1360 H   0  0  0  0  0  0  0  0  0  0  0  0
   43.6731   26.3488  -10.7180 H   0  0  0  0  0  0  0  0  0  0  0  0
   44.4690   24.7870  -13.5790 H   0  0  0  0  0  0  0  0  0  0  0  0
  1  2  2  0
  2  3  1  0
  3  4  1  0
  3  5  2  0
  5  6  1  0
  6  7  2  0
  7  8  1  0
  8  9  2  0
  9 10  1  0
 10 11  1  0
  9 12  1  0
 12 13  1  0
 13 14  1  0
 13 15  1  0
 12 16  2  0
  5 17  1  0
 17 18  1  0
 18 19  2  0
 19 20  1  0
 20 21  2  0
 21 22  1  0
 22 23  1  0
 22 24  2  0
 24  2  1  0
 16  6  1  0
 24 18  1  0
  4 25  1  0
  7 26  1  0
  8 27  1  0
 10 28  1  0
 10 29  1  0
 13 30  1  0
 16 31  1  0
 19 32  1  0
 20 33  1  0
 21 34  1  0
 23 35  1  0
M  END
>  <meeko>  (9) 
{"is_sidechain": [false], "free_energy": -4.864, "intermolecular_energy": -6.528, "internal_energy": 0.637}

$$$$
