cand_048_out
     RDKit          3D

 37 39  0  0  0  0  0  0  0  0999 V2000
   46.6140   24.6560  -13.7930 C   0  0  0  0  0  0  0  0  0  0  0  0
   45.4090   24.6430  -13.2100 C   0  0  0  0  0  0  0  0  0  0  0  0
   44.1920   25.2040  -13.8250 C   0  0  0  0  0  0  0  0  0  0  0  0
   43.5640   24.5020  -14.8670 C   0  0  0  0  0  0  0  0  0  0  0  0
   42.3870   24.9800  -15.4490 C   0  0  0  0  0  0  0  0  0  0  0  0
   41.7980   26.1650  -15.0000 C   0  0  0  0  0  0  0  0  0  0  0  0
   40.5710   26.6700  -15.6500 C   0  0  0  0  0  0  0  0  0  0  0  0
   39.8180   27.4940  -14.8210 O   0  0  0  0  0  0  0  0  0  0  0  0
   38.6510   28.0310  -15.3010 C   0  0  0  0  0  0  0  0  0  0  0  0
   37.9200   28.8380  -14.4290 C   0  0  0  0  0  0  0  0  0  0  0  0
   36.7230   29.4170  -14.8550 C   0  0  0  0  0  0  0  0  0  0  0  0
   36.2590   29.1910  -16.1520 C   0  0  0  0  0  0  0  0  0  0  0  0
   36.9900   28.3840  -17.0200 C   0  0  0  0  0  0  0  0  0  0  0  0
   36.4790   28.2050  -18.2750 O   0  0  0  0  0  0  0  0  0  0  0  0
   38.1880   27.8040  -16.5930 C   0  0  0  0  0  0  0  0  0  0  0  0
   38.9870   26.9510  -17.4730 C   0  0  0  0  0  0  0  0  0  0  0  0
   38.6490   26.7100  -18.6300 O   0  0  0  0  0  0  0  0  0  0  0  0
   40.2370   26.3770  -16.9210 C   0  0  0  0  0  0  0  0  0  0  0  0
   40.9920   25.5840  -17.7640 O   0  0  0  0  0  0  0  0  0  0  0  0
   42.4230   26.8680  -13.9590 C   0  0  0  0  0  0  0  0  0  0  0  0
   43.6020   26.3950  -13.3510 C   0  0  0  0  0  0  0  0  0  0  0  0
   44.2290   27.1940  -12.2820 C   0  0  0  0  0  0  0  0  0  0  0  0
   45.3400   27.9210  -12.4520 C   0  0  0  0  0  0  0  0  0  0  0  0
   47.4803   24.2185  -13.2752 H   0  0  0  0  0  0  0  0  0  0  0  0
   46.7379   25.1042  -14.7899 H   0  0  0  0  0  0  0  0  0  0  0  0
   45.3216   24.1867  -12.2129 H   0  0  0  0  0  0  0  0  0  0  0  0
   44.0052   23.5621  -15.2302 H   0  0  0  0  0  0  0  0  0  0  0  0
   41.9188   24.4171  -16.2699 H   0  0  0  0  0  0  0  0  0  0  0  0
   38.2860   29.0179  -13.4074 H   0  0  0  0  0  0  0  0  0  0  0  0
   36.1449   30.0521  -14.1677 H   0  0  0  0  0  0  0  0  0  0  0  0
   35.3173   29.6497  -16.4879 H   0  0  0  0  0  0  0  0  0  0  0  0
   36.6520   28.8340  -18.9480 H   0  0  0  0  0  0  0  0  0  0  0  0
   40.9910   24.6530  -17.6560 H   0  0  0  0  0  0  0  0  0  0  0  0
   41.9810   27.8125  -13.6089 H   0  0  0  0  0  0  0  0  0  0  0  0
   43.7569   27.1925  -11.2884 H   0  0  0  0  0  0  0  0  0  0  0  0
   45.7558   28.4950  -11.6108 H   0  0  0  0  0  0  0  0  0  0  0  0
   45.8372   27.9444  -13.4329 H   0  0  0  0  0  0  0  0  0  0  0  0
  1  2  2  0
  2  3  1  0
  3  4  2  0
  4  5  1  0
  5  6  2  0
  6  7  1  0
  7  8  1  0
  8  9  1  0
  9 10  2  0
 10 11  1  0
 11 12  2  0
 12 13  1  0
 13 14  1  0
 13 15  2  0
 15 16  1  0
 16 17  2  0
 16 18  1  0
 18 19  1  0
  6 20  1  0
 20 21  2  0
 21 22  1  0
 22 23  2  0
 21  3  1  0
 18  7  2  0
 15  9  1  0
  1 24  1  0
  1 25  1  0
  2 26  1  0
  4 27  1  0
  5 28  1  0
 10 29  1  0
 11 30  1  0
 12 31  1  0
 14 32  1  0
 19 33  1  0
 20 34  1  0
 22 35  1  0
 23 36  1  0
 23 37  1  0
M  END
>  <meeko>  (1) 
{"is_sidechain": [false], "free_energy": -7.062, "intermolecular_energy": -8.713, "internal_energy": 0.055}

$$$$
cand_048_out
     RDKit          3D

 37 39  0  0  0  0  0  0  0  0999 V2000
   46.9840   24.6090  -14.2340 C   0  0  0  0  0  0  0  0  0  0  0  0
   45.8640   24.4130  -13.5270 C   0  0  0  0  0  0  0  0  0  0  0  0
   44.5990   25.1250  -13.7790 C   0  0  0  0  0  0  0  0  0  0  0  0
   43.6490   24.5520  -14.6420 C   0  0  0  0  0  0  0  0  0  0  0  0
   42.4210   25.1760  -14.8750 C   0  0  0  0  0  0  0  0  0  0  0  0
   42.1010   26.3830  -14.2460 C   0  0  0  0  0  0  0  0  0  0  0  0
   40.8100   27.0430  -14.5310 C   0  0  0  0  0  0  0  0  0  0  0  0
   40.3400   26.7820  -15.8130 O   0  0  0  0  0  0  0  0  0  0  0  0
   39.1500   27.3360  -16.2090 C   0  0  0  0  0  0  0  0  0  0  0  0
   38.7240   27.0610  -17.5100 C   0  0  0  0  0  0  0  0  0  0  0  0
   37.5210   27.5920  -17.9760 C   0  0  0  0  0  0  0  0  0  0  0  0
   36.7410   28.3960  -17.1420 C   0  0  0  0  0  0  0  0  0  0  0  0
   37.1680   28.6690  -15.8450 C   0  0  0  0  0  0  0  0  0  0  0  0
   36.3570   29.4630  -15.0820 O   0  0  0  0  0  0  0  0  0  0  0  0
   38.3740   28.1380  -15.3790 C   0  0  0  0  0  0  0  0  0  0  0  0
   38.8580   28.4010  -14.0230 C   0  0  0  0  0  0  0  0  0  0  0  0
   38.2260   29.0920  -13.2280 O   0  0  0  0  0  0  0  0  0  0  0  0
   40.1530   27.7970  -13.6300 C   0  0  0  0  0  0  0  0  0  0  0  0
   40.5960   28.0390  -12.3430 O   0  0  0  0  0  0  0  0  0  0  0  0
   43.0470   26.9570  -13.3840 C   0  0  0  0  0  0  0  0  0  0  0  0
   44.2850   26.3360  -13.1250 C   0  0  0  0  0  0  0  0  0  0  0  0
   45.2500   27.0040  -12.2330 C   0  0  0  0  0  0  0  0  0  0  0  0
   46.4580   27.4270  -12.6290 C   0  0  0  0  0  0  0  0  0  0  0  0
   47.8944   24.0416  -13.9907 H   0  0  0  0  0  0  0  0  0  0  0  0
   46.9938   25.3375  -15.0582 H   0  0  0  0  0  0  0  0  0  0  0  0
   45.8898   23.6770  -12.7099 H   0  0  0  0  0  0  0  0  0  0  0  0
   43.8757   23.5984  -15.1412 H   0  0  0  0  0  0  0  0  0  0  0  0
   41.6973   24.7123  -15.5614 H   0  0  0  0  0  0  0  0  0  0  0  0
   39.3365   26.4261  -18.1671 H   0  0  0  0  0  0  0  0  0  0  0  0
   37.1864   27.3771  -19.0016 H   0  0  0  0  0  0  0  0  0  0  0  0
   35.7914   28.8127  -17.5089 H   0  0  0  0  0  0  0  0  0  0  0  0
   36.7140   30.2020  -14.6310 H   0  0  0  0  0  0  0  0  0  0  0  0
   41.1120   28.7990  -12.1610 H   0  0  0  0  0  0  0  0  0  0  0  0
   42.8165   27.9164  -12.8978 H   0  0  0  0  0  0  0  0  0  0  0  0
   44.9621   27.1641  -11.1835 H   0  0  0  0  0  0  0  0  0  0  0  0
   47.1310   27.9190  -11.9113 H   0  0  0  0  0  0  0  0  0  0  0  0
   46.7768   27.2823  -13.6718 H   0  0  0  0  0  0  0  0  0  0  0  0
  1  2  2  0
  2  3  1  0
  3  4  2  0
  4  5  1  0
  5  6  2  0
  6  7  1  0
  7  8  1  0
  8  9  1  0
  9 10  2  0
 10 11  1  0
 11 12  2  0
 12 13  1  0
 13 14  1  0
 13 15  2  0
 15 16  1  0
 16 17  2  0
 16 18  1  0
 18 19  1  0
  6 20  1  0
 20 21  2  0
 21 22  1  0
 22 23  2  0
 21  3  1  0
 18  7  2  0
 15  9  1  0
  1 24  1  0
  1 25  1  0
  2 26  1  0
  4 27  1  0
  5 28  1  0
 10 29  1  0
 11 30  1  0
 12 31  1  0
 14 32  1  0
 19 33  1  0
 20 34  1  0
 22 35  1  0
 23 36  1  0
 23 37  1  0
M  END
>  <meeko>  (2) 
{"is_sidechain": [false], "free_energy": -7.033, "intermolecular_energy": -9.002, "internal_energy": 0.379}

$$$$
cand_048_out
     RDKit          3D

 37 39  0  0  0  0  0  0  0  0999 V2000
   46.2050   24.8300  -14.1980 C   0  0  0  0  0  0  0  0  0  0  0  0
   45.0010   24.5330  -13.6960 C   0  0  0  0  0  0  0  0  0  0  0  0
   43.7580   25.2290  -14.0750 C   0  0  0  0  0  0  0  0  0  0  0  0
   43.0180   24.7610  -15.1730 C   0  0  0  0  0  0  0  0  0  0  0  0
   41.8140   25.3680  -15.5410 C   0  0  0  0  0  0  0  0  0  0  0  0
   41.3090   26.4510  -14.8150 C   0  0  0  0  0  0  0  0  0  0  0  0
   40.0510   27.1000  -15.2390 C   0  0  0  0  0  0  0  0  0  0  0  0
   39.6200   26.6770  -16.4910 O   0  0  0  0  0  0  0  0  0  0  0  0
   38.4620   27.2030  -17.0060 C   0  0  0  0  0  0  0  0  0  0  0  0
   38.0750   26.7620  -18.2720 C   0  0  0  0  0  0  0  0  0  0  0  0
   36.9060   27.2560  -18.8540 C   0  0  0  0  0  0  0  0  0  0  0  0
   36.1240   28.1880  -18.1700 C   0  0  0  0  0  0  0  0  0  0  0  0
   36.5120   28.6260  -16.9060 C   0  0  0  0  0  0  0  0  0  0  0  0
   35.7000   29.5390  -16.2930 O   0  0  0  0  0  0  0  0  0  0  0  0
   37.6830   28.1320  -16.3250 C   0  0  0  0  0  0  0  0  0  0  0  0
   38.1270   28.5660  -14.9990 C   0  0  0  0  0  0  0  0  0  0  0  0
   37.4900   29.3780  -14.3320 O   0  0  0  0  0  0  0  0  0  0  0  0
   39.3870   27.9880  -14.4760 C   0  0  0  0  0  0  0  0  0  0  0  0
   39.7910   28.3930  -13.2180 O   0  0  0  0  0  0  0  0  0  0  0  0
   42.0470   26.9200  -13.7170 C   0  0  0  0  0  0  0  0  0  0  0  0
   43.2550   26.3120  -13.3240 C   0  0  0  0  0  0  0  0  0  0  0  0
   43.9990   26.8700  -12.1800 C   0  0  0  0  0  0  0  0  0  0  0  0
   45.0520   27.6880  -12.3060 C   0  0  0  0  0  0  0  0  0  0  0  0
   47.0918   24.2683  -13.8693 H   0  0  0  0  0  0  0  0  0  0  0  0
   46.3082   25.6359  -14.9395 H   0  0  0  0  0  0  0  0  0  0  0  0
   44.9346   23.7213  -12.9566 H   0  0  0  0  0  0  0  0  0  0  0  0
   43.3916   23.9037  -15.7522 H   0  0  0  0  0  0  0  0  0  0  0  0
   41.2577   24.9896  -16.4112 H   0  0  0  0  0  0  0  0  0  0  0  0
   38.6901   26.0262  -18.8107 H   0  0  0  0  0  0  0  0  0  0  0  0
   36.6010   26.9103  -19.8527 H   0  0  0  0  0  0  0  0  0  0  0  0
   35.2025   28.5761  -18.6285 H   0  0  0  0  0  0  0  0  0  0  0  0
   35.0520   29.2530  -15.6790 H   0  0  0  0  0  0  0  0  0  0  0  0
   40.2340   29.2120  -13.1100 H   0  0  0  0  0  0  0  0  0  0  0  0
   41.6723   27.7843  -13.1491 H   0  0  0  0  0  0  0  0  0  0  0  0
   43.6707   26.5992  -11.1657 H   0  0  0  0  0  0  0  0  0  0  0  0
   45.5627   28.0692  -11.4094 H   0  0  0  0  0  0  0  0  0  0  0  0
   45.4061   27.9786  -13.3061 H   0  0  0  0  0  0  0  0  0  0  0  0
  1  2  2  0
  2  3  1  0
  3  4  2  0
  4  5  1  0
  5  6  2  0
  6  7  1  0
  7  8  1  0
  8  9  1  0
  9 10  2  0
 10 11  1  0
 11 12  2  0
 12 13  1  0
 13 14  1  0
 13 15  2  0
 15 16  1  0
 16 17  2  0
 16 18  1  0
 18 19  1  0
  6 20  1  0
 20 21  2  0
 21 22  1  0
 22 23  2  0
 21  3  1  0
 18  7  2  0
 15  9  1  0
  1 24  1  0
  1 25  1  0
  2 26  1  0
  4 27  1  0
  5 28  1  0
 10 29  1  0
 11 30  1  0
 12 31  1  0
 14 32  1  0
 19 33  1  0
 20 34  1  0
 22 35  1  0
 23 36  1  0
 23 37  1  0
M  END
>  <meeko>  (3) 
{"is_sidechain": [false], "free_energy": -6.282, "intermolecular_energy": -7.798, "internal_energy": 0.102}

$$$$
cand_048_out
     RDKit          3D

 37 39  0  0  0  0  0  0  0  0999 V2000
   35.6020   29.9880  -18.2200 C   0  0  0  0  0  0  0  0  0  0  0  0
   35.5650   29.2630  -17.0950 C   0  0  0  0  0  0  0  0  0  0  0  0
   36.7660   28.7770  -16.3920 C   0  0  0  0  0  0  0  0  0  0  0  0
   37.1250   29.3600  -15.1650 C   0  0  0  0  0  0  0  0  0  0  0  0
   38.2330   28.9010  -14.4470 C   0  0  0  0  0  0  0  0  0  0  0  0
   39.0060   27.8400  -14.9280 C   0  0  0  0  0  0  0  0  0  0  0  0
   40.1920   27.3910  -14.1710 C   0  0  0  0  0  0  0  0  0  0  0  0
   41.1490   26.7810  -14.9740 O   0  0  0  0  0  0  0  0  0  0  0  0
   42.3020   26.3150  -14.3950 C   0  0  0  0  0  0  0  0  0  0  0  0
   43.2270   25.6950  -15.2360 C   0  0  0  0  0  0  0  0  0  0  0  0
   44.4220   25.2000  -14.7120 C   0  0  0  0  0  0  0  0  0  0  0  0
   44.6930   25.3250  -13.3490 C   0  0  0  0  0  0  0  0  0  0  0  0
   43.7680   25.9440  -12.5110 C   0  0  0  0  0  0  0  0  0  0  0  0
   44.0970   26.0330  -11.1870 O   0  0  0  0  0  0  0  0  0  0  0  0
   42.5710   26.4390  -13.0360 C   0  0  0  0  0  0  0  0  0  0  0  0
   41.5730   27.0950  -12.1910 C   0  0  0  0  0  0  0  0  0  0  0  0
   41.7410   27.2490  -10.9840 O   0  0  0  0  0  0  0  0  0  0  0  0
   40.3330   27.5770  -12.8450 C   0  0  0  0  0  0  0  0  0  0  0  0
   39.4020   28.2080  -12.0420 O   0  0  0  0  0  0  0  0  0  0  0  0
   38.6490   27.2560  -16.1530 C   0  0  0  0  0  0  0  0  0  0  0  0
   37.5280   27.6960  -16.8830 C   0  0  0  0  0  0  0  0  0  0  0  0
   37.2220   27.0620  -18.1790 C   0  0  0  0  0  0  0  0  0  0  0  0
   38.1570   26.6120  -19.0260 C   0  0  0  0  0  0  0  0  0  0  0  0
   34.6652   30.3182  -18.6926 H   0  0  0  0  0  0  0  0  0  0  0  0
   36.5692   30.2534  -18.6717 H   0  0  0  0  0  0  0  0  0  0  0  0
   34.5808   29.0156  -16.6705 H   0  0  0  0  0  0  0  0  0  0  0  0
   36.5251   30.1900  -14.7635 H   0  0  0  0  0  0  0  0  0  0  0  0
   38.4996   29.3798  -13.4932 H   0  0  0  0  0  0  0  0  0  0  0  0
   43.0145   25.5965  -16.3108 H   0  0  0  0  0  0  0  0  0  0  0  0
   45.1512   24.7106  -15.3744 H   0  0  0  0  0  0  0  0  0  0  0  0
   45.6355   24.9354  -12.9367 H   0  0  0  0  0  0  0  0  0  0  0  0
   43.6900   25.4650  -10.5630 H   0  0  0  0  0  0  0  0  0  0  0  0
   39.4130   28.0690  -11.1150 H   0  0  0  0  0  0  0  0  0  0  0  0
   39.2603   26.4337  -16.5532 H   0  0  0  0  0  0  0  0  0  0  0  0
   36.1659   26.9525  -18.4664 H   0  0  0  0  0  0  0  0  0  0  0  0
   37.8593   26.1485  -19.9781 H   0  0  0  0  0  0  0  0  0  0  0  0
   39.2225   26.7059  -18.7694 H   0  0  0  0  0  0  0  0  0  0  0  0
  1  2  2  0
  2  3  1  0
  3  4  2  0
  4  5  1  0
  5  6  2  0
  6  7  1  0
  7  8  1  0
  8  9  1  0
  9 10  2  0
 10 11  1  0
 11 12  2  0
 12 13  1  0
 13 14  1  0
 13 15  2  0
 15 16  1  0
 16 17  2  0
 16 18  1  0
 18 19  1  0
  6 20  1  0
 20 21  2  0
 21 22  1  0
 22 23  2  0
 21  3  1  0
 18  7  2  0
 15  9  1  0
  1 24  1  0
  1 25  1  0
  2 26  1  0
  4 27  1  0
  5 28  1  0
 10 29  1  0
 11 30  1  0
 12 31  1  0
 14 32  1  0
 19 33  1  0
 20 34  1  0
 22 35  1  0
 23 36  1  0
 23 37  1  0
M  END
>  <meeko>  (4) 
{"is_sidechain": [false], "free_energy": -5.945, "intermolecular_energy": -7.382, "internal_energy": 0.102}

$$$$
cand_048_out
     RDKit          3D

 37 39  0  0  0  0  0  0  0  0999 V2000
   36.4280   26.6710  -19.9660 C   0  0  0  0  0  0  0  0  0  0  0  0
   36.4510   27.4290  -18.8620 C   0  0  0  0  0  0  0  0  0  0  0  0
   37.4560   27.2930  -17.7930 C   0  0  0  0  0  0  0  0  0  0  0  0
   38.4420   26.2990  -17.9010 C   0  0  0  0  0  0  0  0  0  0  0  0
   39.4360   26.1630  -16.9290 C   0  0  0  0  0  0  0  0  0  0  0  0
   39.4810   27.0240  -15.8270 C   0  0  0  0  0  0  0  0  0  0  0  0
   40.5210   26.8430  -14.7940 C   0  0  0  0  0  0  0  0  0  0  0  0
   41.6890   26.2790  -15.2940 O   0  0  0  0  0  0  0  0  0  0  0  0
   42.7370   26.0550  -14.4370 C   0  0  0  0  0  0  0  0  0  0  0  0
   43.8840   25.4730  -14.9790 C   0  0  0  0  0  0  0  0  0  0  0  0
   44.9880   25.2190  -14.1630 C   0  0  0  0  0  0  0  0  0  0  0  0
   44.9460   25.5500  -12.8070 C   0  0  0  0  0  0  0  0  0  0  0  0
   43.8010   26.1310  -12.2690 C   0  0  0  0  0  0  0  0  0  0  0  0
   43.8280   26.4300  -10.9350 O   0  0  0  0  0  0  0  0  0  0  0  0
   42.6950   26.3840  -13.0860 C   0  0  0  0  0  0  0  0  0  0  0  0
   41.4730   26.9930  -12.5610 C   0  0  0  0  0  0  0  0  0  0  0  0
   41.3610   27.3180  -11.3820 O   0  0  0  0  0  0  0  0  0  0  0  0
   40.3550   27.2110  -13.5100 C   0  0  0  0  0  0  0  0  0  0  0  0
   39.2090   27.8000  -13.0080 O   0  0  0  0  0  0  0  0  0  0  0  0
   38.4970   28.0180  -15.7180 C   0  0  0  0  0  0  0  0  0  0  0  0
   37.4960   28.1790  -16.6950 C   0  0  0  0  0  0  0  0  0  0  0  0
   36.4720   29.2230  -16.5080 C   0  0  0  0  0  0  0  0  0  0  0  0
   35.6550   29.6460  -17.4820 C   0  0  0  0  0  0  0  0  0  0  0  0
   35.6469   26.8277  -20.7245 H   0  0  0  0  0  0  0  0  0  0  0  0
   37.1902   25.8918  -20.1142 H   0  0  0  0  0  0  0  0  0  0  0  0
   35.6736   28.1986  -18.7465 H   0  0  0  0  0  0  0  0  0  0  0  0
   38.4315   25.6171  -18.7641 H   0  0  0  0  0  0  0  0  0  0  0  0
   40.1917   25.3702  -17.0311 H   0  0  0  0  0  0  0  0  0  0  0  0
   43.9181   25.2148  -16.0477 H   0  0  0  0  0  0  0  0  0  0  0  0
   45.8915   24.7578  -14.5885 H   0  0  0  0  0  0  0  0  0  0  0  0
   45.8167   25.3519  -12.1647 H   0  0  0  0  0  0  0  0  0  0  0  0
   43.0570   26.3190  -10.4140 H   0  0  0  0  0  0  0  0  0  0  0  0
   38.6180   27.2990  -12.4810 H   0  0  0  0  0  0  0  0  0  0  0  0
   38.5078   28.6891  -14.8465 H   0  0  0  0  0  0  0  0  0  0  0  0
   36.3731   29.6805  -15.5126 H   0  0  0  0  0  0  0  0  0  0  0  0
   34.9117   30.4299  -17.2746 H   0  0  0  0  0  0  0  0  0  0  0  0
   35.7275   29.2094  -18.4890 H   0  0  0  0  0  0  0  0  0  0  0  0
  1  2  2  0
  2  3  1  0
  3  4  2  0
  4  5  1  0
  5  6  2  0
  6  7  1  0
  7  8  1  0
  8  9  1  0
  9 10  2  0
 10 11  1  0
 11 12  2  0
 12 13  1  0
 13 14  1  0
 13 15  2  0
 15 16  1  0
 16 17  2  0
 16 18  1  0
 18 19  1  0
  6 20  1  0
 20 21  2  0
 21 22  1  0
 22 23  2  0
 21  3  1  0
 18  7  2  0
 15  9  1  0
  1 24  1  0
  1 25  1  0
  2 26  1  0
  4 27  1  0
  5 28  1  0
 10 29  1  0
 11 30  1  0
 12 31  1  0
 14 32  1  0
 19 33  1  0
 20 34  1  0
 22 35  1  0
 23 36  1  0
 23 37  1  0
M  END
>  <meeko>  (5) 
{"is_sidechain": [false], "free_energy": -5.087, "intermolecular_energy": -7.065, "internal_energy": 0.843}

$$$$
cand_048_out
     RDKit          3D

 37 39  0  0  0  0  0  0  0  0999 V2000
   45.9530   26.6440  -11.9200 C   0  0  0  0  0  0  0  0  0  0  0  0
   44.7990   25.9680  -11.8610 C   0  0  0  0  0  0  0  0  0  0  0  0
   43.6660   26.1960  -12.7760 C   0  0  0  0  0  0  0  0  0  0  0  0
   42.6480   27.0870  -12.3980 C   0  0  0  0  0  0  0  0  0  0  0  0
   41.5780   27.3600  -13.2540 C   0  0  0  0  0  0  0  0  0  0  0  0
   41.5000   26.7610  -14.5150 C   0  0  0  0  0  0  0  0  0  0  0  0
   40.3440   27.0390  -15.3930 C   0  0  0  0  0  0  0  0  0  0  0  0
   39.4160   27.8950  -14.8110 O   0  0  0  0  0  0  0  0  0  0  0  0
   38.2910   28.2350  -15.5190 C   0  0  0  0  0  0  0  0  0  0  0  0
   37.3790   29.0830  -14.8900 C   0  0  0  0  0  0  0  0  0  0  0  0
   36.2150   29.4700  -15.5550 C   0  0  0  0  0  0  0  0  0  0  0  0
   35.9620   29.0100  -16.8490 C   0  0  0  0  0  0  0  0  0  0  0  0
   36.8740   28.1620  -17.4740 C   0  0  0  0  0  0  0  0  0  0  0  0
   36.5650   27.7500  -18.7400 O   0  0  0  0  0  0  0  0  0  0  0  0
   38.0390   27.7750  -16.8070 C   0  0  0  0  0  0  0  0  0  0  0  0
   39.0230   26.8870  -17.4280 C   0  0  0  0  0  0  0  0  0  0  0  0
   38.8760   26.4460  -18.5650 O   0  0  0  0  0  0  0  0  0  0  0  0
   40.2210   26.5300  -16.6330 C   0  0  0  0  0  0  0  0  0  0  0  0
   41.1510   25.7020  -17.2320 O   0  0  0  0  0  0  0  0  0  0  0  0
   42.5160   25.8710  -14.8950 C   0  0  0  0  0  0  0  0  0  0  0  0
   43.6090   25.5940  -14.0510 C   0  0  0  0  0  0  0  0  0  0  0  0
   44.6300   24.6270  -14.4940 C   0  0  0  0  0  0  0  0  0  0  0  0
   45.9460   24.8770  -14.4810 C   0  0  0  0  0  0  0  0  0  0  0  0
   46.7579   26.4216  -11.2040 H   0  0  0  0  0  0  0  0  0  0  0  0
   46.0963   27.4219  -12.6845 H   0  0  0  0  0  0  0  0  0  0  0  0
   44.6898   25.1970  -11.0840 H   0  0  0  0  0  0  0  0  0  0  0  0
   42.6938   27.5768  -11.4141 H   0  0  0  0  0  0  0  0  0  0  0  0
   40.7878   28.0542  -12.9321 H   0  0  0  0  0  0  0  0  0  0  0  0
   37.5774   29.4462  -13.8708 H   0  0  0  0  0  0  0  0  0  0  0  0
   35.4956   30.1384  -15.0592 H   0  0  0  0  0  0  0  0  0  0  0  0
   35.0450   29.3164  -17.3736 H   0  0  0  0  0  0  0  0  0  0  0  0
   36.5230   28.3720  -19.4400 H   0  0  0  0  0  0  0  0  0  0  0  0
   41.0950   24.7740  -17.1170 H   0  0  0  0  0  0  0  0  0  0  0  0
   42.4574   25.3774  -15.8763 H   0  0  0  0  0  0  0  0  0  0  0  0
   44.2920   23.6447  -14.8557 H   0  0  0  0  0  0  0  0  0  0  0  0
   46.6550   24.1099  -14.8259 H   0  0  0  0  0  0  0  0  0  0  0  0
   46.3176   25.8493  -14.1254 H   0  0  0  0  0  0  0  0  0  0  0  0
  1  2  2  0
  2  3  1  0
  3  4  2  0
  4  5  1  0
  5  6  2  0
  6  7  1  0
  7  8  1  0
  8  9  1  0
  9 10  2  0
 10 11  1  0
 11 12  2  0
 12 13  1  0
 13 14  1  0
 13 15  2  0
 15 16  1  0
 16 17  2  0
 16 18  1  0
 18 19  1  0
  6 20  1  0
 20 21  2  0
 21 22  1  0
 22 23  2  0
 21  3  1  0
 18  7  2  0
 15  9  1  0
  1 24  1  0
  1 25  1  0
  2 26  1  0
  4 27  1  0
  5 28  1  0
 10 29  1  0
 11 30  1  0
 12 31  1  0
 14 32  1  0
 19 33  1  0
 20 34  1  0
 22 35  1  0
 23 36  1  0
 23 37  1  0
M  END
>  <meeko>  (6) 
{"is_sidechain": [false], "free_energy": -4.55, "intermolecular_energy": -6.504, "internal_energy": 0.944}

$$$$
cand_048_out
     RDKit          3D

 37 39  0  0  0  0  0  0  0  0999 V2000
   44.8460   27.0240  -11.9560 C   0  0  0  0  0  0  0  0  0  0  0  0
   43.6800   26.3670  -11.9260 C   0  0  0  0  0  0  0  0  0  0  0  0
   42.6280   26.5130  -12.9480 C   0  0  0  0  0  0  0  0  0  0  0  0
   41.5830   27.4260  -12.7310 C   0  0  0  0  0  0  0  0  0  0  0  0
   40.5890   27.6230  -13.6920 C   0  0  0  0  0  0  0  0  0  0  0  0
   40.6150   26.9230  -14.9020 C   0  0  0  0  0  0  0  0  0  0  0  0
   39.5370   27.1210  -15.8920 C   0  0  0  0  0  0  0  0  0  0  0  0
   38.6300   28.1050  -15.5140 O   0  0  0  0  0  0  0  0  0  0  0  0
   37.5760   28.3890  -16.3450 C   0  0  0  0  0  0  0  0  0  0  0  0
   36.6810   29.3720  -15.9190 C   0  0  0  0  0  0  0  0  0  0  0  0
   35.5870   29.7110  -16.7170 C   0  0  0  0  0  0  0  0  0  0  0  0
   35.3890   29.0700  -17.9410 C   0  0  0  0  0  0  0  0  0  0  0  0
   36.2830   28.0890  -18.3640 C   0  0  0  0  0  0  0  0  0  0  0  0
   36.0290   27.5020  -19.5730 O   0  0  0  0  0  0  0  0  0  0  0  0
   37.3770   27.7490  -17.5640 C   0  0  0  0  0  0  0  0  0  0  0  0
   38.3400   26.7250  -17.9710 C   0  0  0  0  0  0  0  0  0  0  0  0
   38.2380   26.1220  -19.0370 O   0  0  0  0  0  0  0  0  0  0  0  0
   39.4610   26.4340  -17.0470 C   0  0  0  0  0  0  0  0  0  0  0  0
   40.3730   25.4750  -17.4460 O   0  0  0  0  0  0  0  0  0  0  0  0
   41.6580   26.0100  -15.1210 C   0  0  0  0  0  0  0  0  0  0  0  0
   42.6770   25.8080  -14.1700 C   0  0  0  0  0  0  0  0  0  0  0  0
   43.7290   24.8130  -14.4450 C   0  0  0  0  0  0  0  0  0  0  0  0
   45.0330   25.1120  -14.5230 C   0  0  0  0  0  0  0  0  0  0  0  0
   45.5868   26.8663  -11.1583 H   0  0  0  0  0  0  0  0  0  0  0  0
   45.0633   27.7216  -12.7783 H   0  0  0  0  0  0  0  0  0  0  0  0
   43.4961   25.6773  -11.0890 H   0  0  0  0  0  0  0  0  0  0  0  0
   41.5470   27.9944  -11.7899 H   0  0  0  0  0  0  0  0  0  0  0  0
   39.7761   28.3373  -13.4946 H   0  0  0  0  0  0  0  0  0  0  0  0
   36.8377   29.8789  -14.9554 H   0  0  0  0  0  0  0  0  0  0  0  0
   34.8803   30.4840  -16.3809 H   0  0  0  0  0  0  0  0  0  0  0  0
   34.5282   29.3391  -18.5707 H   0  0  0  0  0  0  0  0  0  0  0  0
   36.7380   27.2060  -20.1080 H   0  0  0  0  0  0  0  0  0  0  0  0
   41.2430   25.4820  -17.0980 H   0  0  0  0  0  0  0  0  0  0  0  0
   41.6803   25.4372  -16.0598 H   0  0  0  0  0  0  0  0  0  0  0  0
   43.4267   23.7660  -14.5946 H   0  0  0  0  0  0  0  0  0  0  0  0
   45.7673   24.3200  -14.7317 H   0  0  0  0  0  0  0  0  0  0  0  0
   45.3690   26.1494  -14.3784 H   0  0  0  0  0  0  0  0  0  0  0  0
  1  2  2  0
  2  3  1  0
  3  4  2  0
  4  5  1  0
  5  6  2  0
  6  7  1  0
  7  8  1  0
  8  9  1  0
  9 10  2  0
 10 11  1  0
 11 12  2  0
 12 13  1  0
 13 14  1  0
 13 15  2  0
 15 16  1  0
 16 17  2  0
 16 18  1  0
 18 19  1  0
  6 20  1  0
 20 21  2  0
 21 22  1  0
 22 23  2  0
 21  3  1  0
 18  7  2  0
 15  9  1  0
  1 24  1  0
  1 25  1  0
  2 26  1  0
  4 27  1  0
  5 28  1  0
 10 29  1  0
 11 30  1  0
 12 31  1  0
 14 32  1  0
 19 33  1  0
 20 34  1  0
 22 35  1  0
 23 36  1  0
 23 37  1  0
M  END
>  <meeko>  (7) 
{"is_sidechain": [false], "free_energy": -4.287, "intermolecular_energy": -5.953, "internal_energy": 0.718}

$$$$
cand_048_out
     RDKit          3D

 37 39  0  0  0  0  0  0  0  0999 V2000
   45.9330   26.4510  -12.0310 C   0  0  0  0  0  0  0  0  0  0  0  0
   44.7700   25.7920  -11.9570 C   0  0  0  0  0  0  0  0  0  0  0  0
   43.5480   26.1980  -12.6740 C   0  0  0  0  0  0  0  0  0  0  0  0
   42.6070   27.0090  -12.0190 C   0  0  0  0  0  0  0  0  0  0  0  0
   41.4550   27.4490  -12.6770 C   0  0  0  0  0  0  0  0  0  0  0  0
   41.2170   27.1020  -14.0110 C   0  0  0  0  0  0  0  0  0  0  0  0
   39.9780   27.5500  -14.6780 C   0  0  0  0  0  0  0  0  0  0  0  0
   39.7790   26.9460  -15.9140 O   0  0  0  0  0  0  0  0  0  0  0  0
   38.6650   27.2750  -16.6430 C   0  0  0  0  0  0  0  0  0  0  0  0
   38.5140   26.6560  -17.8840 C   0  0  0  0  0  0  0  0  0  0  0  0
   37.4010   26.9450  -18.6760 C   0  0  0  0  0  0  0  0  0  0  0  0
   36.4380   27.8500  -18.2260 C   0  0  0  0  0  0  0  0  0  0  0  0
   36.5910   28.4670  -16.9860 C   0  0  0  0  0  0  0  0  0  0  0  0
   35.6110   29.3420  -16.6070 O   0  0  0  0  0  0  0  0  0  0  0  0
   37.7060   28.1780  -16.1950 C   0  0  0  0  0  0  0  0  0  0  0  0
   37.9040   28.8030  -14.8870 C   0  0  0  0  0  0  0  0  0  0  0  0
   37.0990   29.6040  -14.4180 O   0  0  0  0  0  0  0  0  0  0  0  0
   39.1240   28.4350  -14.1300 C   0  0  0  0  0  0  0  0  0  0  0  0
   39.2960   29.0200  -12.8890 O   0  0  0  0  0  0  0  0  0  0  0  0
   42.1560   26.2920  -14.6670 C   0  0  0  0  0  0  0  0  0  0  0  0
   43.3300   25.8510  -14.0240 C   0  0  0  0  0  0  0  0  0  0  0  0
   44.2640   24.9770  -14.7570 C   0  0  0  0  0  0  0  0  0  0  0  0
   45.3200   24.3780  -14.1920 C   0  0  0  0  0  0  0  0  0  0  0  0
   46.8063   26.0904  -11.4677 H   0  0  0  0  0  0  0  0  0  0  0  0
   46.0153   27.3530  -12.6552 H   0  0  0  0  0  0  0  0  0  0  0  0
   44.7237   24.8940  -11.3233 H   0  0  0  0  0  0  0  0  0  0  0  0
   42.7791   27.3022  -10.9729 H   0  0  0  0  0  0  0  0  0  0  0  0
   40.7274   28.0751  -12.1398 H   0  0  0  0  0  0  0  0  0  0  0  0
   39.2711   25.9409  -18.2383 H   0  0  0  0  0  0  0  0  0  0  0  0
   37.2828   26.4590  -19.6557 H   0  0  0  0  0  0  0  0  0  0  0  0
   35.5600   28.0756  -18.8491 H   0  0  0  0  0  0  0  0  0  0  0  0
   34.7100   29.0960  -16.6770 H   0  0  0  0  0  0  0  0  0  0  0  0
   40.1020   29.4500  -12.6820 H   0  0  0  0  0  0  0  0  0  0  0  0
   41.9713   25.9936  -15.7095 H   0  0  0  0  0  0  0  0  0  0  0  0
   44.0832   24.8073  -15.8287 H   0  0  0  0  0  0  0  0  0  0  0  0
   45.9780   23.7374  -14.7975 H   0  0  0  0  0  0  0  0  0  0  0  0
   45.5294   24.5266  -13.1224 H   0  0  0  0  0  0  0  0  0  0  0  0
  1  2  2  0
  2  3  1  0
  3  4  2  0
  4  5  1  0
  5  6  2  0
  6  7  1  0
  7  8  1  0
  8  9  1  0
  9 10  2  0
 10 11  1  0
 11 12  2  0
 12 13  1  0
 13 14  1  0
 13 15  2  0
 15 16  1  0
 16 17  2  0
 16 18  1  0
 18 19  1  0
  6 20  1  0
 20 21  2  0
 21 22  1  0
 22 23  2  0
 21  3  1  0
 18  7  2  0
 15  9  1  0
  1 24  1  0
  1 25  1  0
  2 26  1  0
  4 27  1  0
  5 28  1  0
 10 29  1  0
 11 30  1  0
 12 31  1  0
 14 32  1  0
 19 33  1  0
 20 34  1  0
 22 35  1  0
 23 36  1  0
 23 37  1  0
M  END
>  <meeko>  (8) 
{"is_sidechain": [false], "free_energy": -4.204, "intermolecular_energy": -6.758, "internal_energy": 1.625}

$$$$
cand_048_out
     RDKit          3D

 37 39  0  0  0  0  0  0  0  0999 V2000
   34.8690   29.9000  -18.6090 C   0  0  0  0  0  0  0  0  0  0  0  0
   35.1250   29.4910  -17.3600 C   0  0  0  0  0  0  0  0  0  0  0  0
   36.3960   28.8730  -16.9420 C   0  0  0  0  0  0  0  0  0  0  0  0
   37.0100   29.3040  -15.7540 C   0  0  0  0  0  0  0  0  0  0  0  0
   38.1950   28.7150  -15.3020 C   0  0  0  0  0  0  0  0  0  0  0  0
   38.7930   27.6740  -16.0180 C   0  0  0  0  0  0  0  0  0  0  0  0
   40.0630   27.0870  -15.5410 C   0  0  0  0  0  0  0  0  0  0  0  0
   40.3440   27.4080  -14.2180 O   0  0  0  0  0  0  0  0  0  0  0  0
   41.4960   26.9280  -13.6490 C   0  0  0  0  0  0  0  0  0  0  0  0
   41.7460   27.2880  -12.3240 C   0  0  0  0  0  0  0  0  0  0  0  0
   42.9000   26.8320  -11.6840 C   0  0  0  0  0  0  0  0  0  0  0  0
   43.8020   26.0150  -12.3680 C   0  0  0  0  0  0  0  0  0  0  0  0
   43.5500   25.6570  -13.6900 C   0  0  0  0  0  0  0  0  0  0  0  0
   44.4750   24.8550  -14.2990 O   0  0  0  0  0  0  0  0  0  0  0  0
   42.3950   26.1150  -14.3300 C   0  0  0  0  0  0  0  0  0  0  0  0
   42.0930   25.7620  -15.7180 C   0  0  0  0  0  0  0  0  0  0  0  0
   42.8340   25.0420  -16.3840 O   0  0  0  0  0  0  0  0  0  0  0  0
   40.8470   26.3060  -16.3070 C   0  0  0  0  0  0  0  0  0  0  0  0
   40.5630   25.9560  -17.6130 O   0  0  0  0  0  0  0  0  0  0  0  0
   38.1820   27.2420  -17.2040 C   0  0  0  0  0  0  0  0  0  0  0  0
   36.9810   27.8130  -17.6680 C   0  0  0  0  0  0  0  0  0  0  0  0
   36.4030   27.3370  -18.9380 C   0  0  0  0  0  0  0  0  0  0  0  0
   37.0360   26.5080  -19.7780 C   0  0  0  0  0  0  0  0  0  0  0  0
   33.8965   30.3538  -18.8507 H   0  0  0  0  0  0  0  0  0  0  0  0
   35.6311   29.7822  -19.3934 H   0  0  0  0  0  0  0  0  0  0  0  0
   34.3401   29.6241  -16.6009 H   0  0  0  0  0  0  0  0  0  0  0  0
   36.5519   30.1166  -15.1710 H   0  0  0  0  0  0  0  0  0  0  0  0
   38.6616   29.0747  -14.3731 H   0  0  0  0  0  0  0  0  0  0  0  0
   41.0345   27.9304  -11.7844 H   0  0  0  0  0  0  0  0  0  0  0  0
   43.0986   27.1166  -10.6402 H   0  0  0  0  0  0  0  0  0  0  0  0
   44.7105   25.6545  -11.8634 H   0  0  0  0  0  0  0  0  0  0  0  0
   44.3750   24.6260  -15.2020 H   0  0  0  0  0  0  0  0  0  0  0  0
   39.8770   25.3440  -17.7960 H   0  0  0  0  0  0  0  0  0  0  0  0
   38.6528   26.4366  -17.7868 H   0  0  0  0  0  0  0  0  0  0  0  0
   35.3949   27.6823  -19.2110 H   0  0  0  0  0  0  0  0  0  0  0  0
   36.5467   26.1911  -20.7109 H   0  0  0  0  0  0  0  0  0  0  0  0
   38.0452   26.1440  -19.5351 H   0  0  0  0  0  0  0  0  0  0  0  0
  1  2  2  0
  2  3  1  0
  3  4  2  0
  4  5  1  0
  5  6  2  0
  6  7  1  0
  7  8  1  0
  8  9  1  0
  9 10  2  0
 10 11  1  0
 11 12  2  0
 12 13  1  0
 13 14  1  0
 13 15  2  0
 15 16  1  0
 16 17  2  0
 16 18  1  0
 18 19  1  0
  6 20  1  0
 20 21  2  0
 21 22  1  0
 22 23  2  0
 21  3  1  0
 18  7  2  0
 15  9  1  0
  1 24  1  0
  1 25  1  0
  2 26  1  0
  4 27  1  0
  5 28  1  0
 10 29  1  0
 11 30  1  0
 12 31  1  0
 14 32  1  0
 19 33  1  0
 20 34  1  0
 22 35  1  0
 23 36  1  0
 23 37  1  0
M  END
>  <meeko>  (9) 
{"is_sidechain": [false], "free_energy": -4.177, "intermolecular_energy": -5.602, "internal_energy": 0.503}

$$$$
