cand_032_out
     RDKit          3D

 43 45  0  0  0  0  0  0  0  0999 V2000
   47.8750   26.9680  -13.9690 C   0  0  0  0  0  0  0  0  0  0  0  0
   46.4380   27.3320  -14.3150 C   0  0  0  0  0  0  0  0  0  0  0  0
   45.5290   26.9240  -13.2260 N   0  0  0  0  0  0  0  0  0  0  0  0
   45.1640   27.9960  -12.2900 C   0  0  0  0  0  0  0  0  0  0  0  0
   44.3810   26.2480  -13.6980 C   0  0  0  0  0  0  0  0  0  0  0  0
   43.1660   26.9270  -13.9190 C   0  0  0  0  0  0  0  0  0  0  0  0
   42.0240   26.2650  -14.3920 C   0  0  0  0  0  0  0  0  0  0  0  0
   40.7460   26.9750  -14.6050 C   0  0  0  0  0  0  0  0  0  0  0  0
   40.2380   26.8030  -15.8880 O   0  0  0  0  0  0  0  0  0  0  0  0
   39.0540   27.4120  -16.2210 C   0  0  0  0  0  0  0  0  0  0  0  0
   38.5750   27.2000  -17.5140 C   0  0  0  0  0  0  0  0  0  0  0  0
   37.3770   27.7930  -17.9180 C   0  0  0  0  0  0  0  0  0  0  0  0
   36.6580   28.5950  -17.0290 C   0  0  0  0  0  0  0  0  0  0  0  0
   37.1380   28.8030  -15.7390 C   0  0  0  0  0  0  0  0  0  0  0  0
   36.3850   29.6000  -14.9210 O   0  0  0  0  0  0  0  0  0  0  0  0
   38.3380   28.2110  -15.3350 C   0  0  0  0  0  0  0  0  0  0  0  0
   38.8780   28.4040  -13.9890 C   0  0  0  0  0  0  0  0  0  0  0  0
   38.3080   29.1010  -13.1520 O   0  0  0  0  0  0  0  0  0  0  0  0
   40.1530   27.7260  -13.6580 C   0  0  0  0  0  0  0  0  0  0  0  0
   40.6610   27.9270  -12.3880 O   0  0  0  0  0  0  0  0  0  0  0  0
   42.1030   24.8880  -14.6260 C   0  0  0  0  0  0  0  0  0  0  0  0
   43.2970   24.1980  -14.4090 C   0  0  0  0  0  0  0  0  0  0  0  0
   44.4460   24.8660  -13.9460 C   0  0  0  0  0  0  0  0  0  0  0  0
   45.7260   24.0970  -13.7270 C   0  0  0  0  0  0  0  0  0  0  0  0
   46.3420   24.3830  -12.5430 F   0  0  0  0  0  0  0  0  0  0  0  0
   45.5250   22.7420  -13.6940 F   0  0  0  0  0  0  0  0  0  0  0  0
   46.6570   24.2840  -14.7060 F   0  0  0  0  0  0  0  0  0  0  0  0
   47.9926   26.9382  -12.8757 H   0  0  0  0  0  0  0  0  0  0  0  0
   48.1149   25.9807  -14.3906 H   0  0  0  0  0  0  0  0  0  0  0  0
   48.5559   27.7220  -14.3906 H   0  0  0  0  0  0  0  0  0  0  0  0
   46.3644   28.4198  -14.4606 H   0  0  0  0  0  0  0  0  0  0  0  0
   46.1486   26.8075  -15.2376 H   0  0  0  0  0  0  0  0  0  0  0  0
   45.2859   27.6381  -11.2570 H   0  0  0  0  0  0  0  0  0  0  0  0
   45.8166   28.8658  -12.4561 H   0  0  0  0  0  0  0  0  0  0  0  0
   44.1162   28.2868  -12.4561 H   0  0  0  0  0  0  0  0  0  0  0  0
   43.1120   28.0065  -13.7147 H   0  0  0  0  0  0  0  0  0  0  0  0
   39.1400   26.5669  -18.2140 H   0  0  0  0  0  0  0  0  0  0  0  0
   36.9991   27.6282  -18.9378 H   0  0  0  0  0  0  0  0  0  0  0  0
   35.7141   29.0615  -17.3476 H   0  0  0  0  0  0  0  0  0  0  0  0
   35.7560   29.2160  -14.3420 H   0  0  0  0  0  0  0  0  0  0  0  0
   40.1950   27.6080  -11.6410 H   0  0  0  0  0  0  0  0  0  0  0  0
   41.2165   24.3442  -14.9841 H   0  0  0  0  0  0  0  0  0  0  0  0
   43.3404   23.1161  -14.6028 H   0  0  0  0  0  0  0  0  0  0  0  0
  1  2  1  0
  2  3  1  0
  3  4  1  0
  3  5  1  0
  5  6  2  0
  6  7  1  0
  7  8  1  0
  8  9  1  0
  9 10  1  0
 10 11  2  0
 11 12  1  0
 12 13  2  0
 13 14  1  0
 14 15  1  0
 14 16  2  0
 16 17  1  0
 17 18  2  0
 17 19  1  0
 19 20  1  0
  7 21  2  0
 21 22  1  0
 22 23  2  0
 23 24  1  0
 24 25  1  0
 24 26  1  0
 24 27  1  0
 23  5  1  0
 19  8  2  0
 16 10  1  0
  1 28  1  0
  1 29  1  0
  1 30  1  0
  2 31  1  0
  2 32  1  0
  4 33  1  0
  4 34  1  0
  4 35  1  0
  6 36  1  0
 11 37  1  0
 12 38  1  0
 13 39  1  0
 15 40  1  0
 20 41  1  0
 21 42  1  0
 22 43  1  0
M  END
>  <meeko>  (1) 
{"is_sidechain": [false], "free_energy": -3.94, "intermolecular_energy": -5.092, "internal_energy": -0.165}

$$$$
cand_032_out
     RDKit          3D

 43 45  0  0  0  0  0  0  0  0999 V2000
   47.5160   26.8900  -13.9640 C   0  0  0  0  0  0  0  0  0  0  0  0
   46.1350   27.2730  -14.4780 C   0  0  0  0  0  0  0  0  0  0  0  0
   45.1040   26.9360  -13.4780 N   0  0  0  0  0  0  0  0  0  0  0  0
   44.5650   28.0820  -12.7340 C   0  0  0  0  0  0  0  0  0  0  0  0
   44.0630   26.1420  -14.0130 C   0  0  0  0  0  0  0  0  0  0  0  0
   42.9110   26.7230  -14.5790 C   0  0  0  0  0  0  0  0  0  0  0  0
   41.8770   25.9430  -15.1180 C   0  0  0  0  0  0  0  0  0  0  0  0
   40.6610   26.5550  -15.6930 C   0  0  0  0  0  0  0  0  0  0  0  0
   39.9600   27.3290  -14.7750 O   0  0  0  0  0  0  0  0  0  0  0  0
   38.8070   27.9550  -15.1780 C   0  0  0  0  0  0  0  0  0  0  0  0
   38.1440   28.7330  -14.2290 C   0  0  0  0  0  0  0  0  0  0  0  0
   36.9640   29.3960  -14.5730 C   0  0  0  0  0  0  0  0  0  0  0  0
   36.4470   29.2800  -15.8660 C   0  0  0  0  0  0  0  0  0  0  0  0
   37.1120   28.5030  -16.8110 C   0  0  0  0  0  0  0  0  0  0  0  0
   36.5520   28.4330  -18.0570 O   0  0  0  0  0  0  0  0  0  0  0  0
   38.2930   27.8410  -16.4660 C   0  0  0  0  0  0  0  0  0  0  0  0
   39.0230   27.0140  -17.4280 C   0  0  0  0  0  0  0  0  0  0  0  0
   38.6290   26.8580  -18.5830 O   0  0  0  0  0  0  0  0  0  0  0  0
   40.2680   26.3600  -16.9650 C   0  0  0  0  0  0  0  0  0  0  0  0
   40.9420   25.5710  -17.8790 O   0  0  0  0  0  0  0  0  0  0  0  0
   41.9990   24.5510  -15.0650 C   0  0  0  0  0  0  0  0  0  0  0  0
   43.1320   23.9580  -14.5050 C   0  0  0  0  0  0  0  0  0  0  0  0
   44.1740   24.7410  -13.9760 C   0  0  0  0  0  0  0  0  0  0  0  0
   45.3920   24.0740  -13.3840 C   0  0  0  0  0  0  0  0  0  0  0  0
   45.7170   24.5310  -12.1400 F   0  0  0  0  0  0  0  0  0  0  0  0
   45.2230   22.7230  -13.2230 F   0  0  0  0  0  0  0  0  0  0  0  0
   46.5140   24.1930  -14.1490 F   0  0  0  0  0  0  0  0  0  0  0  0
   47.5112   26.8913  -12.8640 H   0  0  0  0  0  0  0  0  0  0  0  0
   47.7773   25.8855  -14.3283 H   0  0  0  0  0  0  0  0  0  0  0  0
   48.2573   27.6165  -14.3283 H   0  0  0  0  0  0  0  0  0  0  0  0
   46.1087   28.3548  -14.6757 H   0  0  0  0  0  0  0  0  0  0  0  0
   45.9308   26.7152  -15.4039 H   0  0  0  0  0  0  0  0  0  0  0  0
   44.6540   27.8927  -11.6541 H   0  0  0  0  0  0  0  0  0  0  0  0
   45.1314   28.9880  -12.9954 H   0  0  0  0  0  0  0  0  0  0  0  0
   43.5059   28.2235  -12.9954 H   0  0  0  0  0  0  0  0  0  0  0  0
   42.8198   27.8190  -14.5988 H   0  0  0  0  0  0  0  0  0  0  0  0
   38.5501   28.8242  -13.2108 H   0  0  0  0  0  0  0  0  0  0  0  0
   36.4409   30.0102  -13.8253 H   0  0  0  0  0  0  0  0  0  0  0  0
   35.5169   29.8012  -16.1367 H   0  0  0  0  0  0  0  0  0  0  0  0
   36.0580   27.6770  -18.3070 H   0  0  0  0  0  0  0  0  0  0  0  0
   40.5940   25.4510  -18.7400 H   0  0  0  0  0  0  0  0  0  0  0  0
   41.1951   23.9176  -15.4681 H   0  0  0  0  0  0  0  0  0  0  0  0
   43.2111   22.8612  -14.4770 H   0  0  0  0  0  0  0  0  0  0  0  0
  1  2  1  0
  2  3  1  0
  3  4  1  0
  3  5  1  0
  5  6  2  0
  6  7  1  0
  7  8  1  0
  8  9  1  0
  9 10  1  0
 10 11  2  0
 11 12  1  0
 12 13  2  0
 13 14  1  0
 14 15  1  0
 14 16  2  0
 16 17  1  0
 17 18  2  0
 17 19  1  0
 19 20  1  0
  7 21  2  0
 21 22  1  0
 22 23  2  0
 23 24  1  0
 24 25  1  0
 24 26  1  0
 24 27  1  0
 23  5  1  0
 19  8  2  0
 16 10  1  0
  1 28  1  0
  1 29  1  0
  1 30  1  0
  2 31  1  0
  2 32  1  0
  4 33  1  0
  4 34  1  0
  4 35  1  0
  6 36  1  0
 11 37  1  0
 12 38  1  0
 13 39  1  0
 15 40  1  0
 20 41  1  0
 21 42  1  0
 22 43  1  0
M  END
>  <meeko>  (2) 
{"is_sidechain": [false], "free_energy": -3.63, "intermolecular_energy": -4.618, "internal_energy": -0.238}

$$$$
cand_032_out
     RDKit          3D

 43 45  0  0  0  0  0  0  0  0999 V2000
   46.8290   25.8590  -14.1850 C   0  0  0  0  0  0  0  0  0  0  0  0
   45.5050   26.6100  -14.2430 C   0  0  0  0  0  0  0  0  0  0  0  0
   44.4060   25.6850  -14.5810 N   0  0  0  0  0  0  0  0  0  0  0  0
   44.5990   24.3010  -14.1290 C   0  0  0  0  0  0  0  0  0  0  0  0
   43.1400   26.1770  -14.1890 C   0  0  0  0  0  0  0  0  0  0  0  0
   42.1050   26.3750  -15.1260 C   0  0  0  0  0  0  0  0  0  0  0  0
   40.8440   26.8570  -14.7440 C   0  0  0  0  0  0  0  0  0  0  0  0
   39.7680   27.0830  -15.7310 C   0  0  0  0  0  0  0  0  0  0  0  0
   38.8290   28.0160  -15.3040 O   0  0  0  0  0  0  0  0  0  0  0  0
   37.7730   28.3190  -16.1260 C   0  0  0  0  0  0  0  0  0  0  0  0
   36.8650   29.2710  -15.6630 C   0  0  0  0  0  0  0  0  0  0  0  0
   35.7660   29.6240  -16.4490 C   0  0  0  0  0  0  0  0  0  0  0  0
   35.5760   29.0260  -17.6970 C   0  0  0  0  0  0  0  0  0  0  0  0
   36.4860   28.0770  -18.1560 C   0  0  0  0  0  0  0  0  0  0  0  0
   36.2410   27.5310  -19.3860 O   0  0  0  0  0  0  0  0  0  0  0  0
   37.5850   27.7240  -17.3690 C   0  0  0  0  0  0  0  0  0  0  0  0
   38.5640   26.7310  -17.8130 C   0  0  0  0  0  0  0  0  0  0  0  0
   38.4640   26.1560  -18.8960 O   0  0  0  0  0  0  0  0  0  0  0  0
   39.6980   26.4330  -16.9080 C   0  0  0  0  0  0  0  0  0  0  0  0
   40.6090   25.4830  -17.3320 O   0  0  0  0  0  0  0  0  0  0  0  0
   40.6310   27.1650  -13.3970 C   0  0  0  0  0  0  0  0  0  0  0  0
   41.6450   26.9780  -12.4560 C   0  0  0  0  0  0  0  0  0  0  0  0
   42.9050   26.4840  -12.8370 C   0  0  0  0  0  0  0  0  0  0  0  0
   43.9820   26.2830  -11.7980 C   0  0  0  0  0  0  0  0  0  0  0  0
   44.9690   27.2240  -11.8430 F   0  0  0  0  0  0  0  0  0  0  0  0
   43.4950   26.3540  -10.5190 F   0  0  0  0  0  0  0  0  0  0  0  0
   44.5960   25.0680  -11.8670 F   0  0  0  0  0  0  0  0  0  0  0  0
   47.1133   25.6977  -13.1347 H   0  0  0  0  0  0  0  0  0  0  0  0
   46.7217   24.8873  -14.6892 H   0  0  0  0  0  0  0  0  0  0  0  0
   47.6080   26.4497  -14.6892 H   0  0  0  0  0  0  0  0  0  0  0  0
   45.3048   27.0688  -13.2635 H   0  0  0  0  0  0  0  0  0  0  0  0
   45.5687   27.3883  -15.0177 H   0  0  0  0  0  0  0  0  0  0  0  0
   44.6031   24.2716  -13.0294 H   0  0  0  0  0  0  0  0  0  0  0  0
   43.7797   23.6734  -14.5095 H   0  0  0  0  0  0  0  0  0  0  0  0
   45.5588   23.9215  -14.5095 H   0  0  0  0  0  0  0  0  0  0  0  0
   42.2914   26.1453  -16.1855 H   0  0  0  0  0  0  0  0  0  0  0  0
   37.0142   29.7429  -14.6806 H   0  0  0  0  0  0  0  0  0  0  0  0
   35.0487   30.3742  -16.0847 H   0  0  0  0  0  0  0  0  0  0  0  0
   34.7099   29.3039  -18.3156 H   0  0  0  0  0  0  0  0  0  0  0  0
   35.4380   27.7190  -19.8310 H   0  0  0  0  0  0  0  0  0  0  0  0
   41.1290   25.6420  -18.0940 H   0  0  0  0  0  0  0  0  0  0  0  0
   39.6553   27.5584  -13.0757 H   0  0  0  0  0  0  0  0  0  0  0  0
   41.4553   27.2209  -11.4001 H   0  0  0  0  0  0  0  0  0  0  0  0
  1  2  1  0
  2  3  1  0
  3  4  1  0
  3  5  1  0
  5  6  2  0
  6  7  1  0
  7  8  1  0
  8  9  1  0
  9 10  1  0
 10 11  2  0
 11 12  1  0
 12 13  2  0
 13 14  1  0
 14 15  1  0
 14 16  2  0
 16 17  1  0
 17 18  2  0
 17 19  1  0
 19 20  1  0
  7 21  2  0
 21 22  1  0
 22 23  2  0
 23 24  1  0
 24 25  1  0
 24 26  1  0
 24 27  1  0
 23  5  1  0
 19  8  2  0
 16 10  1  0
  1 28  1  0
  1 29  1  0
  1 30  1  0
  2 31  1  0
  2 32  1  0
  4 33  1  0
  4 34  1  0
  4 35  1  0
  6 36  1  0
 11 37  1  0
 12 38  1  0
 13 39  1  0
 15 40  1  0
 20 41  1  0
 21 42  1  0
 22 43  1  0
M  END
>  <meeko>  (3) 
{"is_sidechain": [false], "free_energy": -1.938, "intermolecular_energy": -5.2, "internal_energy": 2.53}

$$$$
cand_032_out
     RDKit          3D

 43 45  0  0  0  0  0  0  0  0999 V2000
   40.2060   26.5350  -18.4100 C   0  0  0  0  0  0  0  0  0  0  0  0
   39.2110   27.4950  -19.0480 C   0  0  0  0  0  0  0  0  0  0  0  0
   37.9350   27.4770  -18.3060 N   0  0  0  0  0  0  0  0  0  0  0  0
   37.2080   26.2020  -18.3530 C   0  0  0  0  0  0  0  0  0  0  0  0
   38.0730   27.9360  -16.9750 C   0  0  0  0  0  0  0  0  0  0  0  0
   39.1280   27.4960  -16.1510 C   0  0  0  0  0  0  0  0  0  0  0  0
   39.2750   27.9510  -14.8320 C   0  0  0  0  0  0  0  0  0  0  0  0
   40.3700   27.4730  -13.9630 C   0  0  0  0  0  0  0  0  0  0  0  0
   41.4690   27.0150  -14.6810 O   0  0  0  0  0  0  0  0  0  0  0  0
   42.5590   26.5410  -13.9960 C   0  0  0  0  0  0  0  0  0  0  0  0
   43.6450   26.1060  -14.7560 C   0  0  0  0  0  0  0  0  0  0  0  0
   44.7850   25.6090  -14.1210 C   0  0  0  0  0  0  0  0  0  0  0  0
   44.8400   25.5480  -12.7270 C   0  0  0  0  0  0  0  0  0  0  0  0
   43.7550   25.9850  -11.9710 C   0  0  0  0  0  0  0  0  0  0  0  0
   43.8750   25.8970  -10.6110 O   0  0  0  0  0  0  0  0  0  0  0  0
   42.6140   26.4810  -12.6070 C   0  0  0  0  0  0  0  0  0  0  0  0
   41.4520   26.9490  -11.8500 C   0  0  0  0  0  0  0  0  0  0  0  0
   41.4210   26.9220  -10.6210 O   0  0  0  0  0  0  0  0  0  0  0  0
   40.2960   27.4640  -12.6190 C   0  0  0  0  0  0  0  0  0  0  0  0
   39.1980   27.8910  -11.8940 O   0  0  0  0  0  0  0  0  0  0  0  0
   38.3280   28.8490  -14.3300 C   0  0  0  0  0  0  0  0  0  0  0  0
   37.2740   29.2920  -15.1300 C   0  0  0  0  0  0  0  0  0  0  0  0
   37.1340   28.8450  -16.4570 C   0  0  0  0  0  0  0  0  0  0  0  0
   35.9900   29.3480  -17.3040 C   0  0  0  0  0  0  0  0  0  0  0  0
   34.8100   29.4510  -16.6270 F   0  0  0  0  0  0  0  0  0  0  0  0
   36.2170   30.6060  -17.7980 F   0  0  0  0  0  0  0  0  0  0  0  0
   35.7430   28.5840  -18.4060 F   0  0  0  0  0  0  0  0  0  0  0  0
   40.1329   26.6055  -17.3147 H   0  0  0  0  0  0  0  0  0  0  0  0
   39.9783   25.5066  -18.7272 H   0  0  0  0  0  0  0  0  0  0  0  0
   41.2256   26.7993  -18.7272 H   0  0  0  0  0  0  0  0  0  0  0  0
   39.6267   28.5133  -19.0306 H   0  0  0  0  0  0  0  0  0  0  0  0
   39.0261   27.1816  -20.0861 H   0  0  0  0  0  0  0  0  0  0  0  0
   37.0100   25.8548  -17.3282 H   0  0  0  0  0  0  0  0  0  0  0  0
   36.2545   26.3429  -18.8830 H   0  0  0  0  0  0  0  0  0  0  0  0
   37.8149   25.4532  -18.8830 H   0  0  0  0  0  0  0  0  0  0  0  0
   39.8562   26.7761  -16.5529 H   0  0  0  0  0  0  0  0  0  0  0  0
   43.6033   26.1545  -15.8541 H   0  0  0  0  0  0  0  0  0  0  0  0
   45.6411   25.2650  -14.7199 H   0  0  0  0  0  0  0  0  0  0  0  0
   45.7380   25.1558  -12.2273 H   0  0  0  0  0  0  0  0  0  0  0  0
   44.4390   25.2530  -10.2300 H   0  0  0  0  0  0  0  0  0  0  0  0
   38.3980   28.0970  -12.3340 H   0  0  0  0  0  0  0  0  0  0  0  0
   38.4147   29.2097  -13.2944 H   0  0  0  0  0  0  0  0  0  0  0  0
   36.5416   30.0013  -14.7172 H   0  0  0  0  0  0  0  0  0  0  0  0
  1  2  1  0
  2  3  1  0
  3  4  1  0
  3  5  1  0
  5  6  2  0
  6  7  1  0
  7  8  1  0
  8  9  1  0
  9 10  1  0
 10 11  2  0
 11 12  1  0
 12 13  2  0
 13 14  1  0
 14 15  1  0
 14 16  2  0
 16 17  1  0
 17 18  2  0
 17 19  1  0
 19 20  1  0
  7 21  2  0
 21 22  1  0
 22 23  2  0
 23 24  1  0
 24 25  1  0
 24 26  1  0
 24 27  1  0
 23  5  1  0
 19  8  2  0
 16 10  1  0
  1 28  1  0
  1 29  1  0
  1 30  1  0
  2 31  1  0
  2 32  1  0
  4 33  1  0
  4 34  1  0
  4 35  1  0
  6 36  1  0
 11 37  1  0
 12 38  1  0
 13 39  1  0
 15 40  1  0
 20 41  1  0
 21 42  1  0
 22 43  1  0
M  END
>  <meeko>  (4) 
{"is_sidechain": [false], "free_energy": -1.824, "intermolecular_energy": -4.129, "internal_energy": 1.608}

$$$$
cand_032_out
     RDKit          3D

 43 45  0  0  0  0  0  0  0  0999 V2000
   36.5630   28.6550  -17.9430 C   0  0  0  0  0  0  0  0  0  0  0  0
   37.9700   28.5730  -17.3660 C   0  0  0  0  0  0  0  0  0  0  0  0
   38.0790   27.4240  -16.4460 N   0  0  0  0  0  0  0  0  0  0  0  0
   38.4180   26.1460  -17.0880 C   0  0  0  0  0  0  0  0  0  0  0  0
   38.9310   27.6830  -15.3480 C   0  0  0  0  0  0  0  0  0  0  0  0
   40.1810   27.0440  -15.2190 C   0  0  0  0  0  0  0  0  0  0  0  0
   41.0340   27.3000  -14.1360 C   0  0  0  0  0  0  0  0  0  0  0  0
   42.3350   26.6140  -13.9930 C   0  0  0  0  0  0  0  0  0  0  0  0
   43.3480   27.4610  -13.5550 O   0  0  0  0  0  0  0  0  0  0  0  0
   44.6100   26.9510  -13.3810 C   0  0  0  0  0  0  0  0  0  0  0  0
   45.5910   27.8320  -12.9270 C   0  0  0  0  0  0  0  0  0  0  0  0
   46.8970   27.3790  -12.7300 C   0  0  0  0  0  0  0  0  0  0  0  0
   47.2220   26.0440  -12.9870 C   0  0  0  0  0  0  0  0  0  0  0  0
   46.2390   25.1670  -13.4390 C   0  0  0  0  0  0  0  0  0  0  0  0
   46.6240   23.8750  -13.6710 O   0  0  0  0  0  0  0  0  0  0  0  0
   44.9330   25.6220  -13.6360 C   0  0  0  0  0  0  0  0  0  0  0  0
   43.8710   24.7330  -14.1100 C   0  0  0  0  0  0  0  0  0  0  0  0
   44.0780   23.5480  -14.3640 O   0  0  0  0  0  0  0  0  0  0  0  0
   42.5180   25.3110  -14.2790 C   0  0  0  0  0  0  0  0  0  0  0  0
   41.5250   24.4660  -14.7400 O   0  0  0  0  0  0  0  0  0  0  0  0
   40.6100   28.2020  -13.1550 C   0  0  0  0  0  0  0  0  0  0  0  0
   39.3740   28.8420  -13.2640 C   0  0  0  0  0  0  0  0  0  0  0  0
   38.5240   28.5930  -14.3570 C   0  0  0  0  0  0  0  0  0  0  0  0
   37.1960   29.3050  -14.4550 C   0  0  0  0  0  0  0  0  0  0  0  0
   36.8380   29.9590  -13.3120 F   0  0  0  0  0  0  0  0  0  0  0  0
   37.1920   30.2750  -15.4240 F   0  0  0  0  0  0  0  0  0  0  0  0
   36.1540   28.4870  -14.7800 F   0  0  0  0  0  0  0  0  0  0  0  0
   35.8320   28.6976  -17.1221 H   0  0  0  0  0  0  0  0  0  0  0  0
   36.4726   29.5599  -18.5618 H   0  0  0  0  0  0  0  0  0  0  0  0
   36.3681   27.7667  -18.5618 H   0  0  0  0  0  0  0  0  0  0  0  0
   38.6924   28.4509  -18.1865 H   0  0  0  0  0  0  0  0  0  0  0  0
   38.1840   29.4981  -16.8108 H   0  0  0  0  0  0  0  0  0  0  0  0
   38.6187   25.3893  -16.3152 H   0  0  0  0  0  0  0  0  0  0  0  0
   37.5764   25.8158  -17.7146 H   0  0  0  0  0  0  0  0  0  0  0  0
   39.3126   26.2764  -17.7146 H   0  0  0  0  0  0  0  0  0  0  0  0
   40.4959   26.3246  -15.9893 H   0  0  0  0  0  0  0  0  0  0  0  0
   45.3362   28.8827  -12.7243 H   0  0  0  0  0  0  0  0  0  0  0  0
   47.6712   28.0736  -12.3721 H   0  0  0  0  0  0  0  0  0  0  0  0
   48.2510   25.6872  -12.8327 H   0  0  0  0  0  0  0  0  0  0  0  0
   47.5330   23.6480  -13.6610 H   0  0  0  0  0  0  0  0  0  0  0  0
   41.1990   24.5600  -15.6120 H   0  0  0  0  0  0  0  0  0  0  0  0
   41.2564   28.4092  -12.2894 H   0  0  0  0  0  0  0  0  0  0  0  0
   39.0602   29.5512  -12.4839 H   0  0  0  0  0  0  0  0  0  0  0  0
  1  2  1  0
  2  3  1  0
  3  4  1  0
  3  5  1  0
  5  6  2  0
  6  7  1  0
  7  8  1  0
  8  9  1  0
  9 10  1  0
 10 11  2  0
 11 12  1  0
 12 13  2  0
 13 14  1  0
 14 15  1  0
 14 16  2  0
 16 17  1  0
 17 18  2  0
 17 19  1  0
 19 20  1  0
  7 21  2  0
 21 22  1  0
 22 23  2  0
 23 24  1  0
 24 25  1  0
 24 26  1  0
 24 27  1  0
 23  5  1  0
 19  8  2  0
 16 10  1  0
  1 28  1  0
  1 29  1  0
  1 30  1  0
  2 31  1  0
  2 32  1  0
  4 33  1  0
  4 34  1  0
  4 35  1  0
  6 36  1  0
 11 37  1  0
 12 38  1  0
 13 39  1  0
 15 40  1  0
 20 41  1  0
 21 42  1  0
 22 43  1  0
M  END
>  <meeko>  (5) 
{"is_sidechain": [false], "free_energy": -1.401, "intermolecular_energy": -2.673, "internal_energy": 0.698}

$$$$
cand_032_out
     RDKit          3D

 43 45  0  0  0  0  0  0  0  0999 V2000
   37.1950   29.5890  -14.2510 C   0  0  0  0  0  0  0  0  0  0  0  0
   36.2870   29.0960  -15.3690 C   0  0  0  0  0  0  0  0  0  0  0  0
   37.0350   29.0200  -16.6400 N   0  0  0  0  0  0  0  0  0  0  0  0
   37.6740   30.2740  -17.0590 C   0  0  0  0  0  0  0  0  0  0  0  0
   37.9550   27.9460  -16.6680 C   0  0  0  0  0  0  0  0  0  0  0  0
   38.9600   27.8130  -15.6890 C   0  0  0  0  0  0  0  0  0  0  0  0
   39.8720   26.7480  -15.7050 C   0  0  0  0  0  0  0  0  0  0  0  0
   40.9370   26.6210  -14.6890 C   0  0  0  0  0  0  0  0  0  0  0  0
   42.0850   26.0090  -15.1810 O   0  0  0  0  0  0  0  0  0  0  0  0
   43.1530   25.8270  -14.3400 C   0  0  0  0  0  0  0  0  0  0  0  0
   44.2890   25.2240  -14.8800 C   0  0  0  0  0  0  0  0  0  0  0  0
   45.4110   25.0070  -14.0770 C   0  0  0  0  0  0  0  0  0  0  0  0
   45.3970   25.3950  -12.7350 C   0  0  0  0  0  0  0  0  0  0  0  0
   44.2620   25.9980  -12.2000 C   0  0  0  0  0  0  0  0  0  0  0  0
   44.3160   26.3530  -10.8800 O   0  0  0  0  0  0  0  0  0  0  0  0
   43.1400   26.2140  -13.0030 C   0  0  0  0  0  0  0  0  0  0  0  0
   41.9270   26.8450  -12.4800 C   0  0  0  0  0  0  0  0  0  0  0  0
   41.8350   27.2080  -11.3090 O   0  0  0  0  0  0  0  0  0  0  0  0
   40.7960   27.0360  -13.4160 C   0  0  0  0  0  0  0  0  0  0  0  0
   39.6500   27.6210  -12.9070 O   0  0  0  0  0  0  0  0  0  0  0  0
   39.7830   25.8130  -16.7410 C   0  0  0  0  0  0  0  0  0  0  0  0
   38.7960   25.9310  -17.7220 C   0  0  0  0  0  0  0  0  0  0  0  0
   37.8740   26.9930  -17.6970 C   0  0  0  0  0  0  0  0  0  0  0  0
   36.8110   27.0920  -18.7650 C   0  0  0  0  0  0  0  0  0  0  0  0
   37.2700   26.8250  -20.0220 F   0  0  0  0  0  0  0  0  0  0  0  0
   35.7900   26.1990  -18.5730 F   0  0  0  0  0  0  0  0  0  0  0  0
   36.2000   28.3100  -18.8240 F   0  0  0  0  0  0  0  0  0  0  0  0
   36.7443   29.3443  -13.2778 H   0  0  0  0  0  0  0  0  0  0  0  0
   38.1769   29.1002  -14.3337 H   0  0  0  0  0  0  0  0  0  0  0  0
   37.3198   30.6788  -14.3337 H   0  0  0  0  0  0  0  0  0  0  0  0
   35.9049   28.0969  -15.1124 H   0  0  0  0  0  0  0  0  0  0  0  0
   35.4502   29.8001  -15.4875 H   0  0  0  0  0  0  0  0  0  0  0  0
   37.9679   30.8508  -16.1696 H   0  0  0  0  0  0  0  0  0  0  0  0
   38.5666   30.0475  -17.6606 H   0  0  0  0  0  0  0  0  0  0  0  0
   36.9661   30.8631  -17.6606 H   0  0  0  0  0  0  0  0  0  0  0  0
   39.0310   28.5657  -14.8900 H   0  0  0  0  0  0  0  0  0  0  0  0
   44.3012   24.9197  -15.9370 H   0  0  0  0  0  0  0  0  0  0  0  0
   46.3066   24.5301  -14.5017 H   0  0  0  0  0  0  0  0  0  0  0  0
   46.2807   25.2244  -12.1026 H   0  0  0  0  0  0  0  0  0  0  0  0
   45.0710   26.1390  -10.3670 H   0  0  0  0  0  0  0  0  0  0  0  0
   39.7020   28.1730  -12.1540 H   0  0  0  0  0  0  0  0  0  0  0  0
   40.4968   24.9771  -16.7837 H   0  0  0  0  0  0  0  0  0  0  0  0
   38.7388   25.1825  -18.5260 H   0  0  0  0  0  0  0  0  0  0  0  0
  1  2  1  0
  2  3  1  0
  3  4  1  0
  3  5  1  0
  5  6  2  0
  6  7  1  0
  7  8  1  0
  8  9  1  0
  9 10  1  0
 10 11  2  0
 11 12  1  0
 12 13  2  0
 13 14  1  0
 14 15  1  0
 14 16  2  0
 16 17  1  0
 17 18  2  0
 17 19  1  0
 19 20  1  0
  7 21  2  0
 21 22  1  0
 22 23  2  0
 23 24  1  0
 24 25  1  0
 24 26  1  0
 24 27  1  0
 23  5  1  0
 19  8  2  0
 16 10  1  0
  1 28  1  0
  1 29  1  0
  1 30  1  0
  2 31  1  0
  2 32  1  0
  4 33  1  0
  4 34  1  0
  4 35  1  0
  6 36  1  0
 11 37  1  0
 12 38  1  0
 13 39  1  0
 15 40  1  0
 20 41  1  0
 21 42  1  0
 22 43  1  0
M  END
>  <meeko>  (6) 
{"is_sidechain": [false], "free_energy": -1.301, "intermolecular_energy": -2.791, "internal_energy": 0.944}

$$$$
cand_032_out
     RDKit          3D

 43 45  0  0  0  0  0  0  0  0999 V2000
   46.0920   24.6540  -14.2100 C   0  0  0  0  0  0  0  0  0  0  0  0
   44.7060   25.1660  -14.5760 C   0  0  0  0  0  0  0  0  0  0  0  0
   44.4920   26.5120  -14.0110 N   0  0  0  0  0  0  0  0  0  0  0  0
   44.7920   27.6230  -14.9240 C   0  0  0  0  0  0  0  0  0  0  0  0
   43.2110   26.6630  -13.4310 C   0  0  0  0  0  0  0  0  0  0  0  0
   42.0980   27.0610  -14.1990 C   0  0  0  0  0  0  0  0  0  0  0  0
   40.8220   27.2060  -13.6330 C   0  0  0  0  0  0  0  0  0  0  0  0
   39.6610   27.6430  -14.4360 C   0  0  0  0  0  0  0  0  0  0  0  0
   39.5900   27.0100  -15.6720 O   0  0  0  0  0  0  0  0  0  0  0  0
   38.5580   27.3250  -16.5200 C   0  0  0  0  0  0  0  0  0  0  0  0
   38.5170   26.6550  -17.7430 C   0  0  0  0  0  0  0  0  0  0  0  0
   37.4950   26.9290  -18.6530 C   0  0  0  0  0  0  0  0  0  0  0  0
   36.5130   27.8730  -18.3410 C   0  0  0  0  0  0  0  0  0  0  0  0
   36.5570   28.5390  -17.1190 C   0  0  0  0  0  0  0  0  0  0  0  0
   35.5660   29.4500  -16.8770 O   0  0  0  0  0  0  0  0  0  0  0  0
   37.5800   28.2640  -16.2080 C   0  0  0  0  0  0  0  0  0  0  0  0
   37.6630   28.9410  -14.9140 C   0  0  0  0  0  0  0  0  0  0  0  0
   36.8410   29.7890  -14.5680 O   0  0  0  0  0  0  0  0  0  0  0  0
   38.7820   28.5720  -14.0170 C   0  0  0  0  0  0  0  0  0  0  0  0
   38.8580   29.2290  -12.8020 O   0  0  0  0  0  0  0  0  0  0  0  0
   40.6730   26.9670  -12.2630 C   0  0  0  0  0  0  0  0  0  0  0  0
   41.7650   26.5750  -11.4860 C   0  0  0  0  0  0  0  0  0  0  0  0
   43.0400   26.4180  -12.0580 C   0  0  0  0  0  0  0  0  0  0  0  0
   44.2030   25.9850  -11.1970 C   0  0  0  0  0  0  0  0  0  0  0  0
   43.8860   25.8480   -9.8760 F   0  0  0  0  0  0  0  0  0  0  0  0
   44.6980   24.7600  -11.5620 F   0  0  0  0  0  0  0  0  0  0  0  0
   45.2760   26.8240  -11.2560 F   0  0  0  0  0  0  0  0  0  0  0  0
   46.1919   24.6171  -13.1152 H   0  0  0  0  0  0  0  0  0  0  0  0
   46.2316   23.6450  -14.6252 H   0  0  0  0  0  0  0  0  0  0  0  0
   46.8540   25.3300  -14.6252 H   0  0  0  0  0  0  0  0  0  0  0  0
   44.6141   25.2133  -15.6711 H   0  0  0  0  0  0  0  0  0  0  0  0
   43.9508   24.4806  -14.1638 H   0  0  0  0  0  0  0  0  0  0  0  0
   45.0349   28.5226  -14.3394 H   0  0  0  0  0  0  0  0  0  0  0  0
   45.6500   27.3550  -15.5581 H   0  0  0  0  0  0  0  0  0  0  0  0
   43.9158   27.8233  -15.5581 H   0  0  0  0  0  0  0  0  0  0  0  0
   42.2333   27.2635  -15.2717 H   0  0  0  0  0  0  0  0  0  0  0  0
   39.2893   25.9116  -17.9898 H   0  0  0  0  0  0  0  0  0  0  0  0
   37.4624   26.4010  -19.6175 H   0  0  0  0  0  0  0  0  0  0  0  0
   35.7078   28.0893  -19.0585 H   0  0  0  0  0  0  0  0  0  0  0  0
   35.2410   29.5710  -16.0060 H   0  0  0  0  0  0  0  0  0  0  0  0
   39.6900   29.3660  -12.3950 H   0  0  0  0  0  0  0  0  0  0  0  0
   39.6860   27.0890  -11.7930 H   0  0  0  0  0  0  0  0  0  0  0  0
   41.6259   26.3863  -10.4113 H   0  0  0  0  0  0  0  0  0  0  0  0
  1  2  1  0
  2  3  1  0
  3  4  1  0
  3  5  1  0
  5  6  2  0
  6  7  1  0
  7  8  1  0
  8  9  1  0
  9 10  1  0
 10 11  2  0
 11 12  1  0
 12 13  2  0
 13 14  1  0
 14 15  1  0
 14 16  2  0
 16 17  1  0
 17 18  2  0
 17 19  1  0
 19 20  1  0
  7 21  2  0
 21 22  1  0
 22 23  2  0
 23 24  1  0
 24 25  1  0
 24 26  1  0
 24 27  1  0
 23  5  1  0
 19  8  2  0
 16 10  1  0
  1 28  1  0
  1 29  1  0
  1 30  1  0
  2 31  1  0
  2 32  1  0
  4 33  1  0
  4 34  1  0
  4 35  1  0
  6 36  1  0
 11 37  1  0
 12 38  1  0
 13 39  1  0
 15 40  1  0
 20 41  1  0
 21 42  1  0
 22 43  1  0
M  END
>  <meeko>  (7) 
{"is_sidechain": [false], "free_energy": -1.288, "intermolecular_energy": -1.703, "internal_energy": -0.126}

$$$$
