cand_046_out
     RDKit          3D

 39 41  0  0  0  0  0  0  0  0999 V2000
   44.6320   28.6730  -12.8690 C   0  0  0  0  0  0  0  0  0  0  0  0
   44.4450   27.3780  -12.5860 C   0  0  0  0  0  0  0  0  0  0  0  0
   43.7150   26.4570  -13.4690 C   0  0  0  0  0  0  0  0  0  0  0  0
   42.5610   26.9170  -14.1300 C   0  0  0  0  0  0  0  0  0  0  0  0
   41.8410   26.0990  -15.0130 C   0  0  0  0  0  0  0  0  0  0  0  0
   40.6160   26.6150  -15.6610 C   0  0  0  0  0  0  0  0  0  0  0  0
   39.8630   27.4290  -14.8220 O   0  0  0  0  0  0  0  0  0  0  0  0
   38.7010   27.9780  -15.2980 C   0  0  0  0  0  0  0  0  0  0  0  0
   37.9700   28.7770  -14.4170 C   0  0  0  0  0  0  0  0  0  0  0  0
   36.7760   29.3680  -14.8390 C   0  0  0  0  0  0  0  0  0  0  0  0
   36.3160   29.1610  -16.1400 C   0  0  0  0  0  0  0  0  0  0  0  0
   37.0460   28.3640  -17.0170 C   0  0  0  0  0  0  0  0  0  0  0  0
   36.5360   28.2020  -18.2770 O   0  0  0  0  0  0  0  0  0  0  0  0
   38.2390   27.7710  -16.5940 C   0  0  0  0  0  0  0  0  0  0  0  0
   39.0380   26.9260  -17.4840 C   0  0  0  0  0  0  0  0  0  0  0  0
   38.7010   26.7020  -18.6440 O   0  0  0  0  0  0  0  0  0  0  0  0
   40.2830   26.3410  -16.9360 C   0  0  0  0  0  0  0  0  0  0  0  0
   41.0370   25.5560  -17.7890 O   0  0  0  0  0  0  0  0  0  0  0  0
   42.2910   24.7930  -15.2250 C   0  0  0  0  0  0  0  0  0  0  0  0
   43.4400   24.3230  -14.5850 C   0  0  0  0  0  0  0  0  0  0  0  0
   44.1650   25.1420  -13.7030 C   0  0  0  0  0  0  0  0  0  0  0  0
   45.4050   24.5710  -13.0520 C   0  0  0  0  0  0  0  0  0  0  0  0
   46.6410   24.7550  -13.9190 C   0  0  0  0  0  0  0  0  0  0  0  0
   45.1873   29.3144  -12.1688 H   0  0  0  0  0  0  0  0  0  0  0  0
   44.2303   29.0957  -13.8017 H   0  0  0  0  0  0  0  0  0  0  0  0
   44.8581   26.9835  -11.6460 H   0  0  0  0  0  0  0  0  0  0  0  0
   42.2145   27.9453  -13.9494 H   0  0  0  0  0  0  0  0  0  0  0  0
   38.3334   28.9412  -13.3918 H   0  0  0  0  0  0  0  0  0  0  0  0
   36.1985   29.9967  -14.1452 H   0  0  0  0  0  0  0  0  0  0  0  0
   35.3769   29.6275  -16.4723 H   0  0  0  0  0  0  0  0  0  0  0  0
   36.4260   28.9460  -18.8350 H   0  0  0  0  0  0  0  0  0  0  0  0
   40.6250   25.1110  -18.5030 H   0  0  0  0  0  0  0  0  0  0  0  0
   41.7348   24.1286  -15.9026 H   0  0  0  0  0  0  0  0  0  0  0  0
   43.7829   23.2951  -14.7745 H   0  0  0  0  0  0  0  0  0  0  0  0
   45.5672   25.0796  -12.0902 H   0  0  0  0  0  0  0  0  0  0  0  0
   45.2475   23.4916  -12.9103 H   0  0  0  0  0  0  0  0  0  0  0  0
   47.5237   24.8864  -13.2759 H   0  0  0  0  0  0  0  0  0  0  0  0
   46.7789   23.8675  -14.5541 H   0  0  0  0  0  0  0  0  0  0  0  0
   46.5144   25.6442  -14.5541 H   0  0  0  0  0  0  0  0  0  0  0  0
  1  2  2  0
  2  3  1  0
  3  4  2  0
  4  5  1  0
  5  6  1  0
  6  7  1  0
  7  8  1  0
  8  9  2  0
  9 10  1  0
 10 11  2  0
 11 12  1  0
 12 13  1  0
 12 14  2  0
 14 15  1  0
 15 16  2  0
 15 17  1  0
 17 18  1  0
  5 19  2  0
 19 20  1  0
 20 21  2  0
 21 22  1  0
 22 23  1  0
 21  3  1  0
 17  6  2  0
 14  8  1  0
  1 24  1  0
  1 25  1  0
  2 26  1  0
  4 27  1  0
  9 28  1  0
 10 29  1  0
 11 30  1  0
 13 31  1  0
 18 32  1  0
 19 33  1  0
 20 34  1  0
 22 35  1  0
 22 36  1  0
 23 37  1  0
 23 38  1  0
 23 39  1  0
M  END
>  <meeko>  (1) 
{"is_sidechain": [false], "free_energy": -6.767, "intermolecular_energy": -8.349, "internal_energy": -0.303}

$$$$
cand_046_out
     RDKit          3D

 39 41  0  0  0  0  0  0  0  0999 V2000
   46.4650   27.3990  -12.5500 C   0  0  0  0  0  0  0  0  0  0  0  0
   45.2320   27.0260  -12.1840 C   0  0  0  0  0  0  0  0  0  0  0  0
   44.2980   26.3360  -13.0860 C   0  0  0  0  0  0  0  0  0  0  0  0
   43.0700   26.9480  -13.3950 C   0  0  0  0  0  0  0  0  0  0  0  0
   42.1520   26.3580  -14.2770 C   0  0  0  0  0  0  0  0  0  0  0  0
   40.8600   27.0240  -14.5480 C   0  0  0  0  0  0  0  0  0  0  0  0
   40.3770   26.7650  -15.8260 O   0  0  0  0  0  0  0  0  0  0  0  0
   39.1840   27.3200  -16.2100 C   0  0  0  0  0  0  0  0  0  0  0  0
   38.7450   27.0450  -17.5050 C   0  0  0  0  0  0  0  0  0  0  0  0
   37.5350   27.5780  -17.9590 C   0  0  0  0  0  0  0  0  0  0  0  0
   36.7670   28.3840  -17.1170 C   0  0  0  0  0  0  0  0  0  0  0  0
   37.2070   28.6570  -15.8240 C   0  0  0  0  0  0  0  0  0  0  0  0
   36.4050   29.4540  -15.0530 O   0  0  0  0  0  0  0  0  0  0  0  0
   38.4180   28.1240  -15.3720 C   0  0  0  0  0  0  0  0  0  0  0  0
   38.9170   28.3860  -14.0210 C   0  0  0  0  0  0  0  0  0  0  0  0
   38.2940   29.0800  -13.2200 O   0  0  0  0  0  0  0  0  0  0  0  0
   40.2140   27.7800  -13.6410 C   0  0  0  0  0  0  0  0  0  0  0  0
   40.6690   28.0210  -12.3580 O   0  0  0  0  0  0  0  0  0  0  0  0
   42.4790   25.1240  -14.8480 C   0  0  0  0  0  0  0  0  0  0  0  0
   43.6980   24.5070  -14.5590 C   0  0  0  0  0  0  0  0  0  0  0  0
   44.6210   25.0990  -13.6790 C   0  0  0  0  0  0  0  0  0  0  0  0
   45.9250   24.3780  -13.4190 C   0  0  0  0  0  0  0  0  0  0  0  0
   47.0120   24.7970  -14.3980 C   0  0  0  0  0  0  0  0  0  0  0  0
   47.1203   27.9128  -11.8312 H   0  0  0  0  0  0  0  0  0  0  0  0
   46.8225   27.1916  -13.5694 H   0  0  0  0  0  0  0  0  0  0  0  0
   44.9017   27.2466  -11.1582 H   0  0  0  0  0  0  0  0  0  0  0  0
   42.8226   27.9151  -12.9329 H   0  0  0  0  0  0  0  0  0  0  0  0
   39.3501   26.4095  -18.1683 H   0  0  0  0  0  0  0  0  0  0  0  0
   37.1880   27.3621  -18.9803 H   0  0  0  0  0  0  0  0  0  0  0  0
   35.8149   28.8033  -17.4744 H   0  0  0  0  0  0  0  0  0  0  0  0
   35.5880   29.7620  -15.3910 H   0  0  0  0  0  0  0  0  0  0  0  0
   40.2570   27.6020  -11.6280 H   0  0  0  0  0  0  0  0  0  0  0  0
   41.7693   24.6347  -15.5313 H   0  0  0  0  0  0  0  0  0  0  0  0
   43.9401   23.5417  -15.0277 H   0  0  0  0  0  0  0  0  0  0  0  0
   46.2600   24.6072  -12.3966 H   0  0  0  0  0  0  0  0  0  0  0  0
   45.7490   23.2998  -13.5472 H   0  0  0  0  0  0  0  0  0  0  0  0
   47.8965   25.1379  -13.8399 H   0  0  0  0  0  0  0  0  0  0  0  0
   47.2857   23.9399  -15.0309 H   0  0  0  0  0  0  0  0  0  0  0  0
   46.6396   25.6160  -15.0309 H   0  0  0  0  0  0  0  0  0  0  0  0
  1  2  2  0
  2  3  1  0
  3  4  2  0
  4  5  1  0
  5  6  1  0
  6  7  1  0
  7  8  1  0
  8  9  2  0
  9 10  1  0
 10 11  2  0
 11 12  1  0
 12 13  1  0
 12 14  2  0
 14 15  1  0
 15 16  2  0
 15 17  1  0
 17 18  1  0
  5 19  2  0
 19 20  1  0
 20 21  2  0
 21 22  1  0
 22 23  1  0
 21  3  1  0
 17  6  2  0
 14  8  1  0
  1 24  1  0
  1 25  1  0
  2 26  1  0
  4 27  1  0
  9 28  1  0
 10 29  1  0
 11 30  1  0
 13 31  1  0
 18 32  1  0
 19 33  1  0
 20 34  1  0
 22 35  1  0
 22 36  1  0
 23 37  1  0
 23 38  1  0
 23 39  1  0
M  END
>  <meeko>  (2) 
{"is_sidechain": [false], "free_energy": -6.553, "intermolecular_energy": -8.858, "internal_energy": 0.47}

$$$$
cand_046_out
     RDKit          3D

 39 41  0  0  0  0  0  0  0  0999 V2000
   36.4250   29.6390  -14.2760 C   0  0  0  0  0  0  0  0  0  0  0  0
   36.5430   29.2280  -15.5450 C   0  0  0  0  0  0  0  0  0  0  0  0
   37.6000   28.3140  -16.0010 C   0  0  0  0  0  0  0  0  0  0  0  0
   38.6500   27.9920  -15.1210 C   0  0  0  0  0  0  0  0  0  0  0  0
   39.6690   27.0980  -15.4840 C   0  0  0  0  0  0  0  0  0  0  0  0
   40.7690   26.8140  -14.5370 C   0  0  0  0  0  0  0  0  0  0  0  0
   41.8790   26.2470  -15.1540 O   0  0  0  0  0  0  0  0  0  0  0  0
   42.9740   25.9340  -14.3910 C   0  0  0  0  0  0  0  0  0  0  0  0
   44.0600   25.3550  -15.0490 C   0  0  0  0  0  0  0  0  0  0  0  0
   45.2080   25.0130  -14.3310 C   0  0  0  0  0  0  0  0  0  0  0  0
   45.2710   25.2520  -12.9570 C   0  0  0  0  0  0  0  0  0  0  0  0
   44.1860   25.8310  -12.3030 C   0  0  0  0  0  0  0  0  0  0  0  0
   44.3140   26.0360  -10.9560 O   0  0  0  0  0  0  0  0  0  0  0  0
   43.0370   26.1710  -13.0220 C   0  0  0  0  0  0  0  0  0  0  0  0
   41.8750   26.7810  -12.3730 C   0  0  0  0  0  0  0  0  0  0  0  0
   41.8560   27.0270  -11.1690 O   0  0  0  0  0  0  0  0  0  0  0  0
   40.7040   27.0970  -13.2230 C   0  0  0  0  0  0  0  0  0  0  0  0
   39.6180   27.6860  -12.6030 O   0  0  0  0  0  0  0  0  0  0  0  0
   39.6300   26.5280  -16.7590 C   0  0  0  0  0  0  0  0  0  0  0  0
   38.5900   26.8290  -17.6420 C   0  0  0  0  0  0  0  0  0  0  0  0
   37.5660   27.7210  -17.2790 C   0  0  0  0  0  0  0  0  0  0  0  0
   36.4670   27.9950  -18.2810 C   0  0  0  0  0  0  0  0  0  0  0  0
   35.7470   29.3050  -17.9950 C   0  0  0  0  0  0  0  0  0  0  0  0
   35.6125   30.3244  -13.9932 H   0  0  0  0  0  0  0  0  0  0  0  0
   37.1406   29.2912  -13.5164 H   0  0  0  0  0  0  0  0  0  0  0  0
   35.8128   29.5924  -16.2826 H   0  0  0  0  0  0  0  0  0  0  0  0
   38.6726   28.4531  -14.1226 H   0  0  0  0  0  0  0  0  0  0  0  0
   44.0118   25.1682  -16.1320 H   0  0  0  0  0  0  0  0  0  0  0  0
   46.0636   24.5548  -14.8487 H   0  0  0  0  0  0  0  0  0  0  0  0
   46.1758   24.9836  -12.3919 H   0  0  0  0  0  0  0  0  0  0  0  0
   43.6680   26.5320  -10.4950 H   0  0  0  0  0  0  0  0  0  0  0  0
   38.7500   27.3870  -12.7960 H   0  0  0  0  0  0  0  0  0  0  0  0
   40.4259   25.8355  -17.0706 H   0  0  0  0  0  0  0  0  0  0  0  0
   38.5722   26.3605  -18.6371 H   0  0  0  0  0  0  0  0  0  0  0  0
   36.9085   28.0450  -19.2873 H   0  0  0  0  0  0  0  0  0  0  0  0
   35.7312   27.1806  -18.2088 H   0  0  0  0  0  0  0  0  0  0  0  0
   35.6674   29.4498  -16.9075 H   0  0  0  0  0  0  0  0  0  0  0  0
   36.3137   30.1386  -18.4354 H   0  0  0  0  0  0  0  0  0  0  0  0
   34.7395   29.2734  -18.4354 H   0  0  0  0  0  0  0  0  0  0  0  0
  1  2  2  0
  2  3  1  0
  3  4  2  0
  4  5  1  0
  5  6  1  0
  6  7  1  0
  7  8  1  0
  8  9  2  0
  9 10  1  0
 10 11  2  0
 11 12  1  0
 12 13  1  0
 12 14  2  0
 14 15  1  0
 15 16  2  0
 15 17  1  0
 17 18  1  0
  5 19  2  0
 19 20  1  0
 20 21  2  0
 21 22  1  0
 22 23  1  0
 21  3  1  0
 17  6  2  0
 14  8  1  0
  1 24  1  0
  1 25  1  0
  2 26  1  0
  4 27  1  0
  9 28  1  0
 10 29  1  0
 11 30  1  0
 13 31  1  0
 18 32  1  0
 19 33  1  0
 20 34  1  0
 22 35  1  0
 22 36  1  0
 23 37  1  0
 23 38  1  0
 23 39  1  0
M  END
>  <meeko>  (3) 
{"is_sidechain": [false], "free_energy": -5.013, "intermolecular_energy": -7.72, "internal_energy": 1.231}

$$$$
cand_046_out
     RDKit          3D

 39 41  0  0  0  0  0  0  0  0999 V2000
   38.3390   26.4710  -18.8090 C   0  0  0  0  0  0  0  0  0  0  0  0
   37.3900   26.9670  -18.0040 C   0  0  0  0  0  0  0  0  0  0  0  0
   37.6860   27.6410  -16.7310 C   0  0  0  0  0  0  0  0  0  0  0  0
   38.8090   27.2340  -15.9870 C   0  0  0  0  0  0  0  0  0  0  0  0
   39.1650   27.8610  -14.7840 C   0  0  0  0  0  0  0  0  0  0  0  0
   40.3360   27.3780  -14.0210 C   0  0  0  0  0  0  0  0  0  0  0  0
   41.3090   26.8050  -14.8320 O   0  0  0  0  0  0  0  0  0  0  0  0
   42.4520   26.3180  -14.2530 C   0  0  0  0  0  0  0  0  0  0  0  0
   43.3950   25.7390  -15.1020 C   0  0  0  0  0  0  0  0  0  0  0  0
   44.5830   25.2230  -14.5770 C   0  0  0  0  0  0  0  0  0  0  0  0
   44.8270   25.2900  -13.2040 C   0  0  0  0  0  0  0  0  0  0  0  0
   43.8850   25.8680  -12.3580 C   0  0  0  0  0  0  0  0  0  0  0  0
   44.1870   25.8990  -11.0240 O   0  0  0  0  0  0  0  0  0  0  0  0
   42.6960   26.3820  -12.8850 C   0  0  0  0  0  0  0  0  0  0  0  0
   41.6780   26.9980  -12.0310 C   0  0  0  0  0  0  0  0  0  0  0  0
   41.8230   27.0980  -10.8140 O   0  0  0  0  0  0  0  0  0  0  0  0
   40.4520   27.5060  -12.6860 C   0  0  0  0  0  0  0  0  0  0  0  0
   39.5040   28.0990  -11.8730 O   0  0  0  0  0  0  0  0  0  0  0  0
   38.3660   28.9110  -14.3210 C   0  0  0  0  0  0  0  0  0  0  0  0
   37.2530   29.3340  -15.0510 C   0  0  0  0  0  0  0  0  0  0  0  0
   36.8980   28.7100  -16.2590 C   0  0  0  0  0  0  0  0  0  0  0  0
   35.6850   29.2250  -17.0010 C   0  0  0  0  0  0  0  0  0  0  0  0
   36.0570   30.2620  -18.0520 C   0  0  0  0  0  0  0  0  0  0  0  0
   38.0582   25.9763  -19.7505 H   0  0  0  0  0  0  0  0  0  0  0  0
   39.3990   26.5584  -18.5285 H   0  0  0  0  0  0  0  0  0  0  0  0
   36.3384   26.8652  -18.3101 H   0  0  0  0  0  0  0  0  0  0  0  0
   39.4243   26.4015  -16.3590 H   0  0  0  0  0  0  0  0  0  0  0  0
   43.2038   25.6885  -16.1841 H   0  0  0  0  0  0  0  0  0  0  0  0
   45.3260   24.7640  -15.2457 H   0  0  0  0  0  0  0  0  0  0  0  0
   45.7632   24.8862  -12.7911 H   0  0  0  0  0  0  0  0  0  0  0  0
   44.0180   25.1500  -10.4890 H   0  0  0  0  0  0  0  0  0  0  0  0
   39.4340   29.0330  -11.8400 H   0  0  0  0  0  0  0  0  0  0  0  0
   38.6165   29.4087  -13.3726 H   0  0  0  0  0  0  0  0  0  0  0  0
   36.6444   30.1692  -14.6742 H   0  0  0  0  0  0  0  0  0  0  0  0
   35.1868   28.3792  -17.4974 H   0  0  0  0  0  0  0  0  0  0  0  0
   35.0185   29.7061  -16.2700 H   0  0  0  0  0  0  0  0  0  0  0  0
   36.3883   31.1855  -17.5547 H   0  0  0  0  0  0  0  0  0  0  0  0
   36.8711   29.8715  -18.6803 H   0  0  0  0  0  0  0  0  0  0  0  0
   35.1803   30.4781  -18.6803 H   0  0  0  0  0  0  0  0  0  0  0  0
  1  2  2  0
  2  3  1  0
  3  4  2  0
  4  5  1  0
  5  6  1  0
  6  7  1  0
  7  8  1  0
  8  9  2  0
  9 10  1  0
 10 11  2  0
 11 12  1  0
 12 13  1  0
 12 14  2  0
 14 15  1  0
 15 16  2  0
 15 17  1  0
 17 18  1  0
  5 19  2  0
 19 20  1  0
 20 21  2  0
 21 22  1  0
 22 23  1  0
 21  3  1  0
 17  6  2  0
 14  8  1  0
  1 24  1  0
  1 25  1  0
  2 26  1  0
  4 27  1  0
  9 28  1  0
 10 29  1  0
 11 30  1  0
 13 31  1  0
 18 32  1  0
 19 33  1  0
 20 34  1  0
 22 35  1  0
 22 36  1  0
 23 37  1  0
 23 38  1  0
 23 39  1  0
M  END
>  <meeko>  (4) 
{"is_sidechain": [false], "free_energy": -4.722, "intermolecular_energy": -6.021, "internal_energy": -0.108}

$$$$
cand_046_out
     RDKit          3D

 39 41  0  0  0  0  0  0  0  0999 V2000
   45.9920   24.9380  -14.5350 C   0  0  0  0  0  0  0  0  0  0  0  0
   44.6850   24.6490  -14.5160 C   0  0  0  0  0  0  0  0  0  0  0  0
   43.6620   25.5770  -14.0130 C   0  0  0  0  0  0  0  0  0  0  0  0
   42.5450   25.8640  -14.8200 C   0  0  0  0  0  0  0  0  0  0  0  0
   41.5170   26.7120  -14.3830 C   0  0  0  0  0  0  0  0  0  0  0  0
   40.3770   27.0080  -15.2770 C   0  0  0  0  0  0  0  0  0  0  0  0
   39.4430   27.8600  -14.6970 O   0  0  0  0  0  0  0  0  0  0  0  0
   38.3350   28.2190  -15.4200 C   0  0  0  0  0  0  0  0  0  0  0  0
   37.4170   29.0640  -14.7940 C   0  0  0  0  0  0  0  0  0  0  0  0
   36.2660   29.4690  -15.4750 C   0  0  0  0  0  0  0  0  0  0  0  0
   36.0360   29.0320  -16.7810 C   0  0  0  0  0  0  0  0  0  0  0  0
   36.9530   28.1890  -17.4030 C   0  0  0  0  0  0  0  0  0  0  0  0
   36.6640   27.7980  -18.6820 O   0  0  0  0  0  0  0  0  0  0  0  0
   38.1030   27.7830  -16.7210 C   0  0  0  0  0  0  0  0  0  0  0  0
   39.0930   26.8980  -17.3380 C   0  0  0  0  0  0  0  0  0  0  0  0
   38.9630   26.4760  -18.4850 O   0  0  0  0  0  0  0  0  0  0  0  0
   40.2730   26.5210  -16.5280 C   0  0  0  0  0  0  0  0  0  0  0  0
   41.2090   25.6970  -17.1250 O   0  0  0  0  0  0  0  0  0  0  0  0
   41.6250   27.2870  -13.1130 C   0  0  0  0  0  0  0  0  0  0  0  0
   42.7220   27.0060  -12.2960 C   0  0  0  0  0  0  0  0  0  0  0  0
   43.7510   26.1530  -12.7300 C   0  0  0  0  0  0  0  0  0  0  0  0
   44.9050   25.8870  -11.7890 C   0  0  0  0  0  0  0  0  0  0  0  0
   46.0780   26.8200  -12.0480 C   0  0  0  0  0  0  0  0  0  0  0  0
   46.7122   24.2030  -14.9237 H   0  0  0  0  0  0  0  0  0  0  0  0
   46.3457   25.9105  -14.1619 H   0  0  0  0  0  0  0  0  0  0  0  0
   44.3606   23.6688  -14.8955 H   0  0  0  0  0  0  0  0  0  0  0  0
   42.4766   25.4111  -15.8201 H   0  0  0  0  0  0  0  0  0  0  0  0
   37.5994   29.4106  -13.7661 H   0  0  0  0  0  0  0  0  0  0  0  0
   35.5405   30.1326  -14.9818 H   0  0  0  0  0  0  0  0  0  0  0  0
   35.1313   29.3534  -17.3179 H   0  0  0  0  0  0  0  0  0  0  0  0
   35.8450   27.3870  -18.8720 H   0  0  0  0  0  0  0  0  0  0  0  0
   41.6690   25.0610  -16.6110 H   0  0  0  0  0  0  0  0  0  0  0  0
   40.8384   27.9671  -12.7541 H   0  0  0  0  0  0  0  0  0  0  0  0
   42.7817   27.4600  -11.2958 H   0  0  0  0  0  0  0  0  0  0  0  0
   44.5597   26.0294  -10.7544 H   0  0  0  0  0  0  0  0  0  0  0  0
   45.2483   24.8553  -11.9554 H   0  0  0  0  0  0  0  0  0  0  0  0
   46.4990   27.1548  -11.0885 H   0  0  0  0  0  0  0  0  0  0  0  0
   46.8508   26.2870  -12.6214 H   0  0  0  0  0  0  0  0  0  0  0  0
   45.7326   27.6929  -12.6214 H   0  0  0  0  0  0  0  0  0  0  0  0
  1  2  2  0
  2  3  1  0
  3  4  2  0
  4  5  1  0
  5  6  1  0
  6  7  1  0
  7  8  1  0
  8  9  2  0
  9 10  1  0
 10 11  2  0
 11 12  1  0
 12 13  1  0
 12 14  2  0
 14 15  1  0
 15 16  2  0
 15 17  1  0
 17 18  1  0
  5 19  2  0
 19 20  1  0
 20 21  2  0
 21 22  1  0
 22 23  1  0
 21  3  1  0
 17  6  2  0
 14  8  1  0
  1 24  1  0
  1 25  1  0
  2 26  1  0
  4 27  1  0
  9 28  1  0
 10 29  1  0
 11 30  1  0
 13 31  1  0
 18 32  1  0
 19 33  1  0
 20 34  1  0
 22 35  1  0
 22 36  1  0
 23 37  1  0
 23 38  1  0
 23 39  1  0
M  END
>  <meeko>  (5) 
{"is_sidechain": [false], "free_energy": -4.596, "intermolecular_energy": -6.909, "internal_energy": 0.935}

$$$$
cand_046_out
     RDKit          3D

 39 41  0  0  0  0  0  0  0  0999 V2000
   45.2440   24.2900  -14.2030 C   0  0  0  0  0  0  0  0  0  0  0  0
   44.3180   25.0750  -14.7680 C   0  0  0  0  0  0  0  0  0  0  0  0
   43.3710   25.8900  -13.9920 C   0  0  0  0  0  0  0  0  0  0  0  0
   42.1790   26.3190  -14.6060 C   0  0  0  0  0  0  0  0  0  0  0  0
   41.2190   27.0680  -13.9090 C   0  0  0  0  0  0  0  0  0  0  0  0
   39.9950   27.5240  -14.6030 C   0  0  0  0  0  0  0  0  0  0  0  0
   39.8160   26.9110  -15.8380 O   0  0  0  0  0  0  0  0  0  0  0  0
   38.7170   27.2400  -16.5880 C   0  0  0  0  0  0  0  0  0  0  0  0
   38.5840   26.6110  -17.8270 C   0  0  0  0  0  0  0  0  0  0  0  0
   37.4860   26.9010  -18.6410 C   0  0  0  0  0  0  0  0  0  0  0  0
   36.5220   27.8170  -18.2160 C   0  0  0  0  0  0  0  0  0  0  0  0
   36.6570   28.4430  -16.9790 C   0  0  0  0  0  0  0  0  0  0  0  0
   35.6770   29.3300  -16.6250 O   0  0  0  0  0  0  0  0  0  0  0  0
   37.7570   28.1540  -16.1660 C   0  0  0  0  0  0  0  0  0  0  0  0
   37.9360   28.7890  -14.8590 C   0  0  0  0  0  0  0  0  0  0  0  0
   37.1280   29.6010  -14.4140 O   0  0  0  0  0  0  0  0  0  0  0  0
   39.1380   28.4190  -14.0780 C   0  0  0  0  0  0  0  0  0  0  0  0
   39.2920   29.0140  -12.8400 O   0  0  0  0  0  0  0  0  0  0  0  0
   41.4730   27.3960  -12.5740 C   0  0  0  0  0  0  0  0  0  0  0  0
   42.6460   26.9690  -11.9470 C   0  0  0  0  0  0  0  0  0  0  0  0
   43.6080   26.2150  -12.6420 C   0  0  0  0  0  0  0  0  0  0  0  0
   44.8510   25.7810  -11.8990 C   0  0  0  0  0  0  0  0  0  0  0  0
   46.0670   26.6080  -12.2880 C   0  0  0  0  0  0  0  0  0  0  0  0
   45.9263   23.7021  -14.8346 H   0  0  0  0  0  0  0  0  0  0  0  0
   45.3224   24.2330  -13.1073 H   0  0  0  0  0  0  0  0  0  0  0  0
   44.2629   25.1122  -15.8660 H   0  0  0  0  0  0  0  0  0  0  0  0
   41.9956   26.0603  -15.6593 H   0  0  0  0  0  0  0  0  0  0  0  0
   39.3424   25.8881  -18.1620 H   0  0  0  0  0  0  0  0  0  0  0  0
   37.3810   26.4068  -19.6181 H   0  0  0  0  0  0  0  0  0  0  0  0
   35.6573   28.0440  -18.8569 H   0  0  0  0  0  0  0  0  0  0  0  0
   35.6290   30.1660  -17.0440 H   0  0  0  0  0  0  0  0  0  0  0  0
   40.1470   29.2440  -12.5340 H   0  0  0  0  0  0  0  0  0  0  0  0
   40.7422   27.9960  -12.0119 H   0  0  0  0  0  0  0  0  0  0  0  0
   42.8200   27.2269  -10.8919 H   0  0  0  0  0  0  0  0  0  0  0  0
   44.6762   25.8934  -10.8188 H   0  0  0  0  0  0  0  0  0  0  0  0
   45.0552   24.7328  -12.1628 H   0  0  0  0  0  0  0  0  0  0  0  0
   46.5794   26.9565  -11.3792 H   0  0  0  0  0  0  0  0  0  0  0  0
   46.7555   25.9901  -12.8831 H   0  0  0  0  0  0  0  0  0  0  0  0
   45.7454   27.4754  -12.8831 H   0  0  0  0  0  0  0  0  0  0  0  0
  1  2  2  0
  2  3  1  0
  3  4  2  0
  4  5  1  0
  5  6  1  0
  6  7  1  0
  7  8  1  0
  8  9  2  0
  9 10  1  0
 10 11  2  0
 11 12  1  0
 12 13  1  0
 12 14  2  0
 14 15  1  0
 15 16  2  0
 15 17  1  0
 17 18  1  0
  5 19  2  0
 19 20  1  0
 20 21  2  0
 21 22  1  0
 22 23  1  0
 21  3  1  0
 17  6  2  0
 14  8  1  0
  1 24  1  0
  1 25  1  0
  2 26  1  0
  4 27  1  0
  9 28  1  0
 10 29  1  0
 11 30  1  0
 13 31  1  0
 18 32  1  0
 19 33  1  0
 20 34  1  0
 22 35  1  0
 22 36  1  0
 23 37  1  0
 23 38  1  0
 23 39  1  0
M  END
>  <meeko>  (6) 
{"is_sidechain": [false], "free_energy": -4.562, "intermolecular_energy": -7.337, "internal_energy": 1.404}

$$$$
