native_HRM_ref_out
     RDKit          3D

 28 30  0  0  0  0  0  0  0  0999 V2000
   46.0290   24.6780  -13.0100 C   0  0  0  0  0  0  0  0  0  0  0  0
   45.0730   24.6820  -14.0620 O   0  0  0  0  0  0  0  0  0  0  0  0
   43.9550   25.4550  -13.8820 C   0  0  0  0  0  0  0  0  0  0  0  0
   43.7070   26.2880  -12.7920 C   0  0  0  0  0  0  0  0  0  0  0  0
   42.5230   27.0360  -12.7140 C   0  0  0  0  0  0  0  0  0  0  0  0
   41.5690   26.9460  -13.7480 C   0  0  0  0  0  0  0  0  0  0  0  0
   41.8410   26.1070  -14.8260 C   0  0  0  0  0  0  0  0  0  0  0  0
   43.0180   25.3550  -14.9190 C   0  0  0  0  0  0  0  0  0  0  0  0
   40.7730   26.1960  -15.6860 N   0  0  0  0  0  0  0  0  0  0  0  0
   39.8200   27.0620  -15.2040 C   0  0  0  0  0  0  0  0  0  0  0  0
   38.5870   27.4490  -15.7430 C   0  0  0  0  0  0  0  0  0  0  0  0
   38.0430   26.9500  -17.0440 C   0  0  0  0  0  0  0  0  0  0  0  0
   37.8370   28.3360  -15.0360 N   0  0  0  0  0  0  0  0  0  0  0  0
   38.2920   28.8110  -13.8570 C   0  0  0  0  0  0  0  0  0  0  0  0
   39.5010   28.4620  -13.2780 C   0  0  0  0  0  0  0  0  0  0  0  0
   40.2940   27.5490  -13.9860 C   0  0  0  0  0  0  0  0  0  0  0  0
   45.5081   24.6802  -12.0412 H   0  0  0  0  0  0  0  0  0  0  0  0
   46.6556   23.7772  -13.0874 H   0  0  0  0  0  0  0  0  0  0  0  0
   46.6631   25.5735  -13.0874 H   0  0  0  0  0  0  0  0  0  0  0  0
   44.4490   26.3596  -11.9831 H   0  0  0  0  0  0  0  0  0  0  0  0
   42.3395   27.6905  -11.8491 H   0  0  0  0  0  0  0  0  0  0  0  0
   43.2027   24.7018  -15.7846 H   0  0  0  0  0  0  0  0  0  0  0  0
   40.7000   25.7030  -16.5350 H   0  0  0  0  0  0  0  0  0  0  0  0
   37.2449   26.2180  -16.8511 H   0  0  0  0  0  0  0  0  0  0  0  0
   37.6349   27.7944  -17.6188 H   0  0  0  0  0  0  0  0  0  0  0  0
   38.8491   26.4707  -17.6188 H   0  0  0  0  0  0  0  0  0  0  0  0
   37.6561   29.5276  -13.3166 H   0  0  0  0  0  0  0  0  0  0  0  0
   39.8220   28.8799  -12.3124 H   0  0  0  0  0  0  0  0  0  0  0  0
  1  2  1  0
  2  3  1  0
  3  4  2  0
  4  5  1  0
  5  6  2  0
  6  7  1  0
  7  8  2  0
  7  9  1  0
  9 10  1  0
 10 11  2  0
 11 12  1  0
 11 13  1  0
 13 14  2  0
 14 15  1  0
 15 16  2  0
  8  3  1  0
 16 10  1  0
 16  6  1  0
  1 17  1  0
  1 18  1  0
  1 19  1  0
  4 20  1  0
  5 21  1  0
  8 22  1  0
  9 23  1  0
 12 24  1  0
 12 25  1  0
 12 26  1  0
 14 27  1  0
 15 28  1  0
M  END
>  <meeko>  (1) 
{"is_sidechain": [false], "free_energy": -8.703, "intermolecular_energy": -9.212, "internal_energy": -0.042}

$$$$
native_HRM_ref_out
     RDKit          3D

 28 30  0  0  0  0  0  0  0  0999 V2000
   37.6460   26.8510  -18.1060 C   0  0  0  0  0  0  0  0  0  0  0  0
   37.3850   27.6400  -16.9530 O   0  0  0  0  0  0  0  0  0  0  0  0
   38.3040   27.5800  -15.9390 C   0  0  0  0  0  0  0  0  0  0  0  0
   38.1720   28.1710  -14.6830 C   0  0  0  0  0  0  0  0  0  0  0  0
   39.1830   28.0430  -13.7180 C   0  0  0  0  0  0  0  0  0  0  0  0
   40.3480   27.3090  -14.0190 C   0  0  0  0  0  0  0  0  0  0  0  0
   40.4550   26.7280  -15.2800 C   0  0  0  0  0  0  0  0  0  0  0  0
   39.4560   26.8460  -16.2530 C   0  0  0  0  0  0  0  0  0  0  0  0
   41.6650   26.0770  -15.3230 N   0  0  0  0  0  0  0  0  0  0  0  0
   42.3440   26.2150  -14.1350 C   0  0  0  0  0  0  0  0  0  0  0  0
   43.5940   25.7250  -13.7410 C   0  0  0  0  0  0  0  0  0  0  0  0
   44.4870   24.8970  -14.6100 C   0  0  0  0  0  0  0  0  0  0  0  0
   44.0240   26.0230  -12.4850 N   0  0  0  0  0  0  0  0  0  0  0  0
   43.2480   26.7680  -11.6690 C   0  0  0  0  0  0  0  0  0  0  0  0
   42.0060   27.2780  -12.0070 C   0  0  0  0  0  0  0  0  0  0  0  0
   41.5390   26.9860  -13.2960 C   0  0  0  0  0  0  0  0  0  0  0  0
   37.9776   25.8487  -17.7970 H   0  0  0  0  0  0  0  0  0  0  0  0
   36.7285   26.7648  -18.7067 H   0  0  0  0  0  0  0  0  0  0  0  0
   38.4339   27.3289  -18.7067 H   0  0  0  0  0  0  0  0  0  0  0  0
   37.2641   28.7448  -14.4455 H   0  0  0  0  0  0  0  0  0  0  0  0
   39.0666   28.5137  -12.7306 H   0  0  0  0  0  0  0  0  0  0  0  0
   39.5721   26.3743  -17.2399 H   0  0  0  0  0  0  0  0  0  0  0  0
   42.0000   25.5780  -16.1020 H   0  0  0  0  0  0  0  0  0  0  0  0
   45.1476   24.2845  -13.9788 H   0  0  0  0  0  0  0  0  0  0  0  0
   43.8743   24.2403  -15.2451 H   0  0  0  0  0  0  0  0  0  0  0  0
   45.0957   25.5575  -15.2451 H   0  0  0  0  0  0  0  0  0  0  0  0
   43.6309   26.9859  -10.6611 H   0  0  0  0  0  0  0  0  0  0  0  0
   41.4164   27.8810  -11.3008 H   0  0  0  0  0  0  0  0  0  0  0  0
  1  2  1  0
  2  3  1  0
  3  4  2  0
  4  5  1  0
  5  6  2  0
  6  7  1  0
  7  8  2  0
  7  9  1  0
  9 10  1  0
 10 11  2  0
 11 12  1  0
 11 13  1  0
 13 14  2  0
 14 15  1  0
 15 16  2  0
  8  3  1  0
 16 10  1  0
 16  6  1  0
  1 17  1  0
  1 18  1  0
  1 19  1  0
  4 20  1  0
  5 21  1  0
  8 22  1  0
  9 23  1  0
 12 24  1  0
 12 25  1  0
 12 26  1  0
 14 27  1  0
 15 28  1  0
M  END
>  <meeko>  (2) 
{"is_sidechain": [false], "free_energy": -7.098, "intermolecular_energy": -7.493, "internal_energy": -0.061}

$$$$
native_HRM_ref_out
     RDKit          3D

 28 30  0  0  0  0  0  0  0  0999 V2000
   45.6210   26.2310  -12.7920 C   0  0  0  0  0  0  0  0  0  0  0  0
   44.2950   26.2500  -12.2800 O   0  0  0  0  0  0  0  0  0  0  0  0
   43.2760   26.2730  -13.1950 C   0  0  0  0  0  0  0  0  0  0  0  0
   43.2170   25.5230  -14.3690 C   0  0  0  0  0  0  0  0  0  0  0  0
   42.1190   25.6290  -15.2360 C   0  0  0  0  0  0  0  0  0  0  0  0
   41.0610   26.5040  -14.9190 C   0  0  0  0  0  0  0  0  0  0  0  0
   41.1430   27.2420  -13.7410 C   0  0  0  0  0  0  0  0  0  0  0  0
   42.2310   27.1470  -12.8660 C   0  0  0  0  0  0  0  0  0  0  0  0
   40.0040   28.0060  -13.6630 N   0  0  0  0  0  0  0  0  0  0  0  0
   39.1860   27.7890  -14.7480 C   0  0  0  0  0  0  0  0  0  0  0  0
   37.9450   28.3460  -15.0760 C   0  0  0  0  0  0  0  0  0  0  0  0
   37.2260   29.3570  -14.2390 C   0  0  0  0  0  0  0  0  0  0  0  0
   37.3540   27.9410  -16.2320 N   0  0  0  0  0  0  0  0  0  0  0  0
   37.9700   27.0300  -17.0170 C   0  0  0  0  0  0  0  0  0  0  0  0
   39.1960   26.4490  -16.7410 C   0  0  0  0  0  0  0  0  0  0  0  0
   39.8260   26.8490  -15.5550 C   0  0  0  0  0  0  0  0  0  0  0  0
   46.3365   26.2207  -11.9566 H   0  0  0  0  0  0  0  0  0  0  0  0
   45.7634   25.3307  -13.4078 H   0  0  0  0  0  0  0  0  0  0  0  0
   45.7891   27.1268  -13.4078 H   0  0  0  0  0  0  0  0  0  0  0  0
   44.0419   24.8395  -14.6186 H   0  0  0  0  0  0  0  0  0  0  0  0
   42.0842   25.0317  -16.1591 H   0  0  0  0  0  0  0  0  0  0  0  0
   42.2652   27.7437  -11.9426 H   0  0  0  0  0  0  0  0  0  0  0  0
   39.8000   28.6270  -12.9270 H   0  0  0  0  0  0  0  0  0  0  0  0
   37.3860   29.1320  -13.1742 H   0  0  0  0  0  0  0  0  0  0  0  0
   37.6137   30.3616  -14.4638 H   0  0  0  0  0  0  0  0  0  0  0  0
   36.1498   29.3205  -14.4638 H   0  0  0  0  0  0  0  0  0  0  0  0
   37.4599   26.7277  -17.9435 H   0  0  0  0  0  0  0  0  0  0  0  0
   39.6520   25.7114  -17.4178 H   0  0  0  0  0  0  0  0  0  0  0  0
  1  2  1  0
  2  3  1  0
  3  4  2  0
  4  5  1  0
  5  6  2  0
  6  7  1  0
  7  8  2  0
  7  9  1  0
  9 10  1  0
 10 11  2  0
 11 12  1  0
 11 13  1  0
 13 14  2  0
 14 15  1  0
 15 16  2  0
  8  3  1  0
 16 10  1  0
 16  6  1  0
  1 17  1  0
  1 18  1  0
  1 19  1  0
  4 20  1  0
  5 21  1  0
  8 22  1  0
  9 23  1  0
 12 24  1  0
 12 25  1  0
 12 26  1  0
 14 27  1  0
 15 28  1  0
M  END
>  <meeko>  (3) 
{"is_sidechain": [false], "free_energy": -7.095, "intermolecular_energy": -7.513, "internal_energy": -0.038}

$$$$
native_HRM_ref_out
     RDKit          3D

 28 30  0  0  0  0  0  0  0  0999 V2000
   46.9580   25.5550  -12.6900 C   0  0  0  0  0  0  0  0  0  0  0  0
   45.9320   25.2060  -13.6090 O   0  0  0  0  0  0  0  0  0  0  0  0
   44.7240   25.8360  -13.4600 C   0  0  0  0  0  0  0  0  0  0  0  0
   44.3510   26.6390  -12.3840 C   0  0  0  0  0  0  0  0  0  0  0  0
   43.0820   27.2360  -12.3370 C   0  0  0  0  0  0  0  0  0  0  0  0
   42.1700   27.0220  -13.3900 C   0  0  0  0  0  0  0  0  0  0  0  0
   42.5670   26.2170  -14.4550 C   0  0  0  0  0  0  0  0  0  0  0  0
   43.8290   25.6150  -14.5160 C   0  0  0  0  0  0  0  0  0  0  0  0
   41.5160   26.1670  -15.3380 N   0  0  0  0  0  0  0  0  0  0  0  0
   40.4520   26.9130  -14.8840 C   0  0  0  0  0  0  0  0  0  0  0  0
   39.1940   27.1410  -15.4530 C   0  0  0  0  0  0  0  0  0  0  0  0
   38.7440   26.5710  -16.7610 C   0  0  0  0  0  0  0  0  0  0  0  0
   38.3240   27.9340  -14.7710 N   0  0  0  0  0  0  0  0  0  0  0  0
   38.6920   28.4680  -13.5860 C   0  0  0  0  0  0  0  0  0  0  0  0
   39.9210   28.2750  -12.9780 C   0  0  0  0  0  0  0  0  0  0  0  0
   40.8360   27.4620  -13.6610 C   0  0  0  0  0  0  0  0  0  0  0  0
   46.5877   25.4291  -11.6619 H   0  0  0  0  0  0  0  0  0  0  0  0
   47.8295   24.9028  -12.8483 H   0  0  0  0  0  0  0  0  0  0  0  0
   47.2510   26.6034  -12.8483 H   0  0  0  0  0  0  0  0  0  0  0  0
   45.0607   26.8071  -11.5606 H   0  0  0  0  0  0  0  0  0  0  0  0
   42.8003   27.8682  -11.4821 H   0  0  0  0  0  0  0  0  0  0  0  0
   44.1116   24.9840  -15.3715 H   0  0  0  0  0  0  0  0  0  0  0  0
   41.5230   25.6640  -16.1840 H   0  0  0  0  0  0  0  0  0  0  0  0
   38.0719   25.7196  -16.5781 H   0  0  0  0  0  0  0  0  0  0  0  0
   38.2097   27.3437  -17.3333 H   0  0  0  0  0  0  0  0  0  0  0  0
   39.6196   26.2306  -17.3333 H   0  0  0  0  0  0  0  0  0  0  0  0
   37.9607   29.1036  -13.0652 H   0  0  0  0  0  0  0  0  0  0  0  0
   40.1664   28.7356  -12.0097 H   0  0  0  0  0  0  0  0  0  0  0  0
  1  2  1  0
  2  3  1  0
  3  4  2  0
  4  5  1  0
  5  6  2  0
  6  7  1  0
  7  8  2  0
  7  9  1  0
  9 10  1  0
 10 11  2  0
 11 12  1  0
 11 13  1  0
 13 14  2  0
 14 15  1  0
 15 16  2  0
  8  3  1  0
 16 10  1  0
 16  6  1  0
  1 17  1  0
  1 18  1  0
  1 19  1  0
  4 20  1  0
  5 21  1  0
  8 22  1  0
  9 23  1  0
 12 24  1  0
 12 25  1  0
 12 26  1  0
 14 27  1  0
 15 28  1  0
M  END
>  <meeko>  (4) 
{"is_sidechain": [false], "free_energy": -6.535, "intermolecular_energy": -6.917, "internal_energy": -0.042}

$$$$
native_HRM_ref_out
     RDKit          3D

 28 30  0  0  0  0  0  0  0  0999 V2000
   37.8220   27.4960  -17.3070 C   0  0  0  0  0  0  0  0  0  0  0  0
   37.5550   27.6910  -15.9250 O   0  0  0  0  0  0  0  0  0  0  0  0
   38.6190   27.5930  -15.0670 C   0  0  0  0  0  0  0  0  0  0  0  0
   38.7070   28.1830  -13.8080 C   0  0  0  0  0  0  0  0  0  0  0  0
   39.8510   28.0140  -13.0130 C   0  0  0  0  0  0  0  0  0  0  0  0
   40.9260   27.2390  -13.4910 C   0  0  0  0  0  0  0  0  0  0  0  0
   40.8130   26.6590  -14.7520 C   0  0  0  0  0  0  0  0  0  0  0  0
   39.6780   26.8180  -15.5570 C   0  0  0  0  0  0  0  0  0  0  0  0
   41.9750   25.9630  -14.9830 N   0  0  0  0  0  0  0  0  0  0  0  0
   42.8370   26.0720  -13.9160 C   0  0  0  0  0  0  0  0  0  0  0  0
   44.1150   25.5340  -13.7220 C   0  0  0  0  0  0  0  0  0  0  0  0
   44.8290   24.6760  -14.7180 C   0  0  0  0  0  0  0  0  0  0  0  0
   44.7470   25.8100  -12.5500 N   0  0  0  0  0  0  0  0  0  0  0  0
   44.1370   26.5810  -11.6230 C   0  0  0  0  0  0  0  0  0  0  0  0
   42.8770   27.1380  -11.7640 C   0  0  0  0  0  0  0  0  0  0  0  0
   42.2030   26.8680  -12.9630 C   0  0  0  0  0  0  0  0  0  0  0  0
   38.7054   26.8508  -17.4223 H   0  0  0  0  0  0  0  0  0  0  0  0
   36.9539   27.0178  -17.7843 H   0  0  0  0  0  0  0  0  0  0  0  0
   38.0133   28.4684  -17.7843 H   0  0  0  0  0  0  0  0  0  0  0  0
   37.8693   28.7889  -13.4324 H   0  0  0  0  0  0  0  0  0  0  0  0
   39.9081   28.4848  -12.0205 H   0  0  0  0  0  0  0  0  0  0  0  0
   39.6196   26.3462  -16.5490 H   0  0  0  0  0  0  0  0  0  0  0  0
   42.1660   25.4550  -15.8040 H   0  0  0  0  0  0  0  0  0  0  0  0
   45.4457   23.9350  -14.1883 H   0  0  0  0  0  0  0  0  0  0  0  0
   44.0928   24.1566  -15.3490 H   0  0  0  0  0  0  0  0  0  0  0  0
   45.4735   25.3056  -15.3490 H   0  0  0  0  0  0  0  0  0  0  0  0
   44.6810   26.7808  -10.6881 H   0  0  0  0  0  0  0  0  0  0  0  0
   42.4282   27.7602  -10.9757 H   0  0  0  0  0  0  0  0  0  0  0  0
  1  2  1  0
  2  3  1  0
  3  4  2  0
  4  5  1  0
  5  6  2  0
  6  7  1  0
  7  8  2  0
  7  9  1  0
  9 10  1  0
 10 11  2  0
 11 12  1  0
 11 13  1  0
 13 14  2  0
 14 15  1  0
 15 16  2  0
  8  3  1  0
 16 10  1  0
 16  6  1  0
  1 17  1  0
  1 18  1  0
  1 19  1  0
  4 20  1  0
  5 21  1  0
  8 22  1  0
  9 23  1  0
 12 24  1  0
 12 25  1  0
 12 26  1  0
 14 27  1  0
 15 28  1  0
M  END
>  <meeko>  (5) 
{"is_sidechain": [false], "free_energy": -5.88, "intermolecular_energy": -6.206, "internal_energy": -0.06}

$$$$
