cand_017_out
     RDKit          3D

 38 40  0  0  0  0  0  0  0  0999 V2000
   47.3390  159.5680   30.6980 C   0  0  0  0  0  0  0  0  0  0  0  0
   48.3770  158.8590   31.5560 C   0  0  0  0  0  0  0  0  0  0  0  0
   49.7530  158.8950   30.9270 C   0  0  0  0  0  0  0  0  0  0  0  0
   50.1850  157.7600   30.2100 C   0  0  0  0  0  0  0  0  0  0  0  0
   51.4410  157.7110   29.5910 C   0  0  0  0  0  0  0  0  0  0  0  0
   51.8830  156.5300   28.8190 C   0  0  0  0  0  0  0  0  0  0  0  0
   52.4760  156.8670   27.6090 O   0  0  0  0  0  0  0  0  0  0  0  0
   52.9310  155.8640   26.7920 C   0  0  0  0  0  0  0  0  0  0  0  0
   53.5050  156.2460   25.5790 C   0  0  0  0  0  0  0  0  0  0  0  0
   53.9920  155.2730   24.7010 C   0  0  0  0  0  0  0  0  0  0  0  0
   53.9030  153.9220   25.0370 C   0  0  0  0  0  0  0  0  0  0  0  0
   53.3300  153.5430   26.2480 C   0  0  0  0  0  0  0  0  0  0  0  0
   53.2770  152.2020   26.5130 O   0  0  0  0  0  0  0  0  0  0  0  0
   52.8440  154.5150   27.1250 C   0  0  0  0  0  0  0  0  0  0  0  0
   52.2340  154.1610   28.4070 C   0  0  0  0  0  0  0  0  0  0  0  0
   52.1260  152.9930   28.7780 O   0  0  0  0  0  0  0  0  0  0  0  0
   51.7420  155.2670   29.2620 C   0  0  0  0  0  0  0  0  0  0  0  0
   51.1790  154.9210   30.4770 O   0  0  0  0  0  0  0  0  0  0  0  0
   52.2690  158.8350   29.6810 C   0  0  0  0  0  0  0  0  0  0  0  0
   51.8560  159.9700   30.3840 C   0  0  0  0  0  0  0  0  0  0  0  0
   50.6000  160.0200   31.0110 C   0  0  0  0  0  0  0  0  0  0  0  0
   50.2150  161.2660   31.7760 C   0  0  0  0  0  0  0  0  0  0  0  0
   49.9080  161.0200   33.0810 F   0  0  0  0  0  0  0  0  0  0  0  0
   49.1220  161.9040   31.2640 F   0  0  0  0  0  0  0  0  0  0  0  0
   46.6061  160.0686   31.3479 H   0  0  0  0  0  0  0  0  0  0  0  0
   47.8369  160.3156   30.0630 H   0  0  0  0  0  0  0  0  0  0  0  0
   46.8237  158.8323   30.0630 H   0  0  0  0  0  0  0  0  0  0  0  0
   48.4225  159.3521   32.5382 H   0  0  0  0  0  0  0  0  0  0  0  0
   48.0753  157.8056   31.6531 H   0  0  0  0  0  0  0  0  0  0  0  0
   49.5174  156.8890   30.1346 H   0  0  0  0  0  0  0  0  0  0  0  0
   53.5743  157.3113   25.3138 H   0  0  0  0  0  0  0  0  0  0  0  0
   54.4456  155.5729   23.7448 H   0  0  0  0  0  0  0  0  0  0  0  0
   54.2853  153.1566   24.3456 H   0  0  0  0  0  0  0  0  0  0  0  0
   53.9610  151.6370   26.2120 H   0  0  0  0  0  0  0  0  0  0  0  0
   50.8030  155.5820   31.0230 H   0  0  0  0  0  0  0  0  0  0  0  0
   53.2550  158.8253   29.1935 H   0  0  0  0  0  0  0  0  0  0  0  0
   52.5264  160.8398   30.4475 H   0  0  0  0  0  0  0  0  0  0  0  0
   51.1146  161.8927   31.6868 H   0  0  0  0  0  0  0  0  0  0  0  0
  1  2  1  0
  2  3  1  0
  3  4  2  0
  4  5  1  0
  5  6  1  0
  6  7  1  0
  7  8  1  0
  8  9  2  0
  9 10  1  0
 10 11  2  0
 11 12  1  0
 12 13  1  0
 12 14  2  0
 14 15  1  0
 15 16  2  0
 15 17  1  0
 17 18  1  0
  5 19  2  0
 19 20  1  0
 20 21  2  0
 21 22  1  0
 22 23  1  0
 22 24  1  0
 21  3  1  0
 17  6  2  0
 14  8  1  0
  1 25  1  0
  1 26  1  0
  1 27  1  0
  2 28  1  0
  2 29  1  0
  4 30  1  0
  9 31  1  0
 10 32  1  0
 11 33  1  0
 13 34  1  0
 18 35  1  0
 19 36  1  0
 20 37  1  0
 22 38  1  0
M  END
>  <meeko>  (1) 
{"is_sidechain": [false], "free_energy": -10.784, "intermolecular_energy": -13.306, "internal_energy": -0.114}

$$$$
cand_017_out
     RDKit          3D

 38 40  0  0  0  0  0  0  0  0999 V2000
   54.0710  156.5120   25.1180 C   0  0  0  0  0  0  0  0  0  0  0  0
   53.2060  155.2670   25.2550 C   0  0  0  0  0  0  0  0  0  0  0  0
   52.6250  155.1310   26.6460 C   0  0  0  0  0  0  0  0  0  0  0  0
   52.3120  156.3100   27.3520 C   0  0  0  0  0  0  0  0  0  0  0  0
   51.7650  156.2740   28.6430 C   0  0  0  0  0  0  0  0  0  0  0  0
   51.4140  157.5110   29.3730 C   0  0  0  0  0  0  0  0  0  0  0  0
   50.0950  157.5240   29.8100 O   0  0  0  0  0  0  0  0  0  0  0  0
   49.6370  158.6150   30.5030 C   0  0  0  0  0  0  0  0  0  0  0  0
   48.3020  158.5940   30.9090 C   0  0  0  0  0  0  0  0  0  0  0  0
   47.7730  159.6730   31.6210 C   0  0  0  0  0  0  0  0  0  0  0  0
   48.5770  160.7730   31.9240 C   0  0  0  0  0  0  0  0  0  0  0  0
   49.9080  160.7920   31.5180 C   0  0  0  0  0  0  0  0  0  0  0  0
   50.6400  161.9000   31.8500 O   0  0  0  0  0  0  0  0  0  0  0  0
   50.4380  159.7130   30.8060 C   0  0  0  0  0  0  0  0  0  0  0  0
   51.8310  159.6920   30.3590 C   0  0  0  0  0  0  0  0  0  0  0  0
   52.6050  160.6200   30.5940 O   0  0  0  0  0  0  0  0  0  0  0  0
   52.2920  158.5040   29.6050 C   0  0  0  0  0  0  0  0  0  0  0  0
   53.6140  158.4900   29.1990 O   0  0  0  0  0  0  0  0  0  0  0  0
   51.5130  155.0270   29.2220 C   0  0  0  0  0  0  0  0  0  0  0  0
   51.8140  153.8480   28.5350 C   0  0  0  0  0  0  0  0  0  0  0  0
   52.3680  153.8790   27.2440 C   0  0  0  0  0  0  0  0  0  0  0  0
   52.6940  152.5730   26.5570 C   0  0  0  0  0  0  0  0  0  0  0  0
   51.9860  151.5170   27.0480 F   0  0  0  0  0  0  0  0  0  0  0  0
   54.0050  152.2100   26.6700 F   0  0  0  0  0  0  0  0  0  0  0  0
   54.3326  156.8885   26.1179 H   0  0  0  0  0  0  0  0  0  0  0  0
   54.9903  156.2611   24.5686 H   0  0  0  0  0  0  0  0  0  0  0  0
   53.5151  157.2860   24.5686 H   0  0  0  0  0  0  0  0  0  0  0  0
   52.3811  155.3260   24.5297 H   0  0  0  0  0  0  0  0  0  0  0  0
   53.8410  154.3892   25.0645 H   0  0  0  0  0  0  0  0  0  0  0  0
   52.5018  157.2843   26.8779 H   0  0  0  0  0  0  0  0  0  0  0  0
   47.6670  157.7286   30.6686 H   0  0  0  0  0  0  0  0  0  0  0  0
   46.7214  159.6558   31.9433 H   0  0  0  0  0  0  0  0  0  0  0  0
   48.1593  161.6235   32.4828 H   0  0  0  0  0  0  0  0  0  0  0  0
   51.2320  162.2740   31.2280 H   0  0  0  0  0  0  0  0  0  0  0  0
   53.9380  157.7780   28.6840 H   0  0  0  0  0  0  0  0  0  0  0  0
   51.0732  154.9732   30.2288 H   0  0  0  0  0  0  0  0  0  0  0  0
   51.6136  152.8780   29.0135 H   0  0  0  0  0  0  0  0  0  0  0  0
   52.4310  152.7791   25.5090 H   0  0  0  0  0  0  0  0  0  0  0  0
  1  2  1  0
  2  3  1  0
  3  4  2  0
  4  5  1  0
  5  6  1  0
  6  7  1  0
  7  8  1  0
  8  9  2  0
  9 10  1  0
 10 11  2  0
 11 12  1  0
 12 13  1  0
 12 14  2  0
 14 15  1  0
 15 16  2  0
 15 17  1  0
 17 18  1  0
  5 19  2  0
 19 20  1  0
 20 21  2  0
 21 22  1  0
 22 23  1  0
 22 24  1  0
 21  3  1  0
 17  6  2  0
 14  8  1  0
  1 25  1  0
  1 26  1  0
  1 27  1  0
  2 28  1  0
  2 29  1  0
  4 30  1  0
  9 31  1  0
 10 32  1  0
 11 33  1  0
 13 34  1  0
 18 35  1  0
 19 36  1  0
 20 37  1  0
 22 38  1  0
M  END
>  <meeko>  (2) 
{"is_sidechain": [false], "free_energy": -10.54, "intermolecular_energy": -12.646, "internal_energy": -0.474}

$$$$
cand_017_out
     RDKit          3D

 38 40  0  0  0  0  0  0  0  0999 V2000
   52.7890  161.2490   31.7440 C   0  0  0  0  0  0  0  0  0  0  0  0
   51.9880  161.1600   30.4530 C   0  0  0  0  0  0  0  0  0  0  0  0
   51.2070  159.8680   30.3580 C   0  0  0  0  0  0  0  0  0  0  0  0
   51.7820  158.7960   29.6430 C   0  0  0  0  0  0  0  0  0  0  0  0
   51.1290  157.5620   29.5110 C   0  0  0  0  0  0  0  0  0  0  0  0
   51.7440  156.4320   28.7820 C   0  0  0  0  0  0  0  0  0  0  0  0
   52.3080  156.8140   27.5710 O   0  0  0  0  0  0  0  0  0  0  0  0
   52.9120  155.8600   26.7930 C   0  0  0  0  0  0  0  0  0  0  0  0
   53.4510  156.2840   25.5770 C   0  0  0  0  0  0  0  0  0  0  0  0
   54.0830  155.3630   24.7360 C   0  0  0  0  0  0  0  0  0  0  0  0
   54.1750  154.0220   25.1110 C   0  0  0  0  0  0  0  0  0  0  0  0
   53.6360  153.6020   26.3250 C   0  0  0  0  0  0  0  0  0  0  0  0
   53.7620  152.2740   26.6300 O   0  0  0  0  0  0  0  0  0  0  0  0
   53.0040  154.5220   27.1650 C   0  0  0  0  0  0  0  0  0  0  0  0
   52.4240  154.1240   28.4480 C   0  0  0  0  0  0  0  0  0  0  0  0
   52.4710  152.9620   28.8520 O   0  0  0  0  0  0  0  0  0  0  0  0
   51.7690  155.1750   29.2610 C   0  0  0  0  0  0  0  0  0  0  0  0
   51.2360  154.7890   30.4770 O   0  0  0  0  0  0  0  0  0  0  0  0
   49.8850  157.4010   30.1280 C   0  0  0  0  0  0  0  0  0  0  0  0
   49.3020  158.4500   30.8440 C   0  0  0  0  0  0  0  0  0  0  0  0
   49.9500  159.6910   30.9730 C   0  0  0  0  0  0  0  0  0  0  0  0
   49.2630  160.7970   31.7390 C   0  0  0  0  0  0  0  0  0  0  0  0
   48.5210  160.3430   32.7890 F   0  0  0  0  0  0  0  0  0  0  0  0
   48.3990  161.5320   30.9800 F   0  0  0  0  0  0  0  0  0  0  0  0
   52.1076  161.1733   32.6042 H   0  0  0  0  0  0  0  0  0  0  0  0
   53.5183  160.4263   31.7804 H   0  0  0  0  0  0  0  0  0  0  0  0
   53.3200  162.2117   31.7804 H   0  0  0  0  0  0  0  0  0  0  0  0
   51.2839  162.0042   30.4131 H   0  0  0  0  0  0  0  0  0  0  0  0
   52.6957  161.1916   29.6115 H   0  0  0  0  0  0  0  0  0  0  0  0
   52.7689  158.9319   29.1766 H   0  0  0  0  0  0  0  0  0  0  0  0
   53.3786  157.3409   25.2810 H   0  0  0  0  0  0  0  0  0  0  0  0
   54.5082  155.6959   23.7777 H   0  0  0  0  0  0  0  0  0  0  0  0
   54.6723  153.2978   24.4491 H   0  0  0  0  0  0  0  0  0  0  0  0
   53.9330  151.6520   25.9510 H   0  0  0  0  0  0  0  0  0  0  0  0
   51.5680  155.1570   31.2710 H   0  0  0  0  0  0  0  0  0  0  0  0
   49.3592  156.4380   30.0491 H   0  0  0  0  0  0  0  0  0  0  0  0
   48.3189  158.3022   31.3149 H   0  0  0  0  0  0  0  0  0  0  0  0
   50.1077  161.4127   32.0817 H   0  0  0  0  0  0  0  0  0  0  0  0
  1  2  1  0
  2  3  1  0
  3  4  2  0
  4  5  1  0
  5  6  1  0
  6  7  1  0
  7  8  1  0
  8  9  2  0
  9 10  1  0
 10 11  2  0
 11 12  1  0
 12 13  1  0
 12 14  2  0
 14 15  1  0
 15 16  2  0
 15 17  1  0
 17 18  1  0
  5 19  2  0
 19 20  1  0
 20 21  2  0
 21 22  1  0
 22 23  1  0
 22 24  1  0
 21  3  1  0
 17  6  2  0
 14  8  1  0
  1 25  1  0
  1 26  1  0
  1 27  1  0
  2 28  1  0
  2 29  1  0
  4 30  1  0
  9 31  1  0
 10 32  1  0
 11 33  1  0
 13 34  1  0
 18 35  1  0
 19 36  1  0
 20 37  1  0
 22 38  1  0
M  END
>  <meeko>  (3) 
{"is_sidechain": [false], "free_energy": -10.474, "intermolecular_energy": -12.761, "internal_energy": -0.276}

$$$$
cand_017_out
     RDKit          3D

 38 40  0  0  0  0  0  0  0  0999 V2000
   54.0910  156.5750   25.1510 C   0  0  0  0  0  0  0  0  0  0  0  0
   53.4070  155.2190   25.2500 C   0  0  0  0  0  0  0  0  0  0  0  0
   52.8580  154.9620   26.6370 C   0  0  0  0  0  0  0  0  0  0  0  0
   52.2930  156.0460   27.3390 C   0  0  0  0  0  0  0  0  0  0  0  0
   51.7570  155.8940   28.6250 C   0  0  0  0  0  0  0  0  0  0  0  0
   51.1420  157.0270   29.3500 C   0  0  0  0  0  0  0  0  0  0  0  0
   52.0330  158.0680   29.5810 O   0  0  0  0  0  0  0  0  0  0  0  0
   51.5920  159.1830   30.2470 C   0  0  0  0  0  0  0  0  0  0  0  0
   52.5240  160.1970   30.4720 C   0  0  0  0  0  0  0  0  0  0  0  0
   52.1390  161.3610   31.1420 C   0  0  0  0  0  0  0  0  0  0  0  0
   50.8250  161.5090   31.5870 C   0  0  0  0  0  0  0  0  0  0  0  0
   49.8970  160.4960   31.3610 C   0  0  0  0  0  0  0  0  0  0  0  0
   48.6260  160.7080   31.8220 O   0  0  0  0  0  0  0  0  0  0  0  0
   50.2820  159.3320   30.6910 C   0  0  0  0  0  0  0  0  0  0  0  0
   49.3390  158.2430   30.4340 C   0  0  0  0  0  0  0  0  0  0  0  0
   48.1620  158.3020   30.7870 O   0  0  0  0  0  0  0  0  0  0  0  0
   49.8490  157.0480   29.7220 C   0  0  0  0  0  0  0  0  0  0  0  0
   48.9460  156.0310   29.4730 O   0  0  0  0  0  0  0  0  0  0  0  0
   51.7750  154.6220   29.2050 C   0  0  0  0  0  0  0  0  0  0  0  0
   52.3280  153.5350   28.5230 C   0  0  0  0  0  0  0  0  0  0  0  0
   52.8720  153.6840   27.2360 C   0  0  0  0  0  0  0  0  0  0  0  0
   53.4760  152.4790   26.5540 C   0  0  0  0  0  0  0  0  0  0  0  0
   54.8110  152.6130   26.3110 F   0  0  0  0  0  0  0  0  0  0  0  0
   52.9160  152.2010   25.3410 F   0  0  0  0  0  0  0  0  0  0  0  0
   54.2862  156.9619   26.1620 H   0  0  0  0  0  0  0  0  0  0  0  0
   55.0425  156.4671   24.6097 H   0  0  0  0  0  0  0  0  0  0  0  0
   53.4387  157.2761   24.6097 H   0  0  0  0  0  0  0  0  0  0  0  0
   52.5779  155.1856   24.5279 H   0  0  0  0  0  0  0  0  0  0  0  0
   54.1558  154.4434   25.0313 H   0  0  0  0  0  0  0  0  0  0  0  0
   52.2722  157.0382   26.8645 H   0  0  0  0  0  0  0  0  0  0  0  0
   53.5604  160.0800   30.1223 H   0  0  0  0  0  0  0  0  0  0  0  0
   52.8725  162.1614   31.3188 H   0  0  0  0  0  0  0  0  0  0  0  0
   50.5226  162.4249   32.1158 H   0  0  0  0  0  0  0  0  0  0  0  0
   47.9120  160.2130   31.4740 H   0  0  0  0  0  0  0  0  0  0  0  0
   49.0420  155.2040   29.9030 H   0  0  0  0  0  0  0  0  0  0  0  0
   51.3494  154.4754   30.2087 H   0  0  0  0  0  0  0  0  0  0  0  0
   52.3376  152.5449   29.0022 H   0  0  0  0  0  0  0  0  0  0  0  0
   53.2787  151.6703   27.2731 H   0  0  0  0  0  0  0  0  0  0  0  0
  1  2  1  0
  2  3  1  0
  3  4  2  0
  4  5  1  0
  5  6  1  0
  6  7  1  0
  7  8  1  0
  8  9  2  0
  9 10  1  0
 10 11  2  0
 11 12  1  0
 12 13  1  0
 12 14  2  0
 14 15  1  0
 15 16  2  0
 15 17  1  0
 17 18  1  0
  5 19  2  0
 19 20  1  0
 20 21  2  0
 21 22  1  0
 22 23  1  0
 22 24  1  0
 21  3  1  0
 17  6  2  0
 14  8  1  0
  1 25  1  0
  1 26  1  0
  1 27  1  0
  2 28  1  0
  2 29  1  0
  4 30  1  0
  9 31  1  0
 10 32  1  0
 11 33  1  0
 13 34  1  0
 18 35  1  0
 19 36  1  0
 20 37  1  0
 22 38  1  0
M  END
>  <meeko>  (4) 
{"is_sidechain": [false], "free_energy": -9.264, "intermolecular_energy": -11.147, "internal_energy": -0.397}

$$$$
cand_017_out
     RDKit          3D

 38 40  0  0  0  0  0  0  0  0999 V2000
   51.5070  152.4530   27.8520 C   0  0  0  0  0  0  0  0  0  0  0  0
   52.2090  153.3650   28.8490 C   0  0  0  0  0  0  0  0  0  0  0  0
   52.3140  154.7860   28.3400 C   0  0  0  0  0  0  0  0  0  0  0  0
   51.8340  155.8240   29.1660 C   0  0  0  0  0  0  0  0  0  0  0  0
   51.8980  157.1680   28.7750 C   0  0  0  0  0  0  0  0  0  0  0  0
   51.4170  158.2570   29.6520 C   0  0  0  0  0  0  0  0  0  0  0  0
   50.0810  158.1130   30.0090 O   0  0  0  0  0  0  0  0  0  0  0  0
   49.5070  159.0560   30.8210 C   0  0  0  0  0  0  0  0  0  0  0  0
   48.1590  158.8820   31.1410 C   0  0  0  0  0  0  0  0  0  0  0  0
   47.5140  159.8060   31.9660 C   0  0  0  0  0  0  0  0  0  0  0  0
   48.2140  160.9020   32.4700 C   0  0  0  0  0  0  0  0  0  0  0  0
   49.5580  161.0740   32.1500 C   0  0  0  0  0  0  0  0  0  0  0  0
   50.1840  162.1700   32.6800 O   0  0  0  0  0  0  0  0  0  0  0  0
   50.2040  160.1500   31.3250 C   0  0  0  0  0  0  0  0  0  0  0  0
   51.6140  160.2940   30.9620 C   0  0  0  0  0  0  0  0  0  0  0  0
   52.3010  161.2280   31.3730 O   0  0  0  0  0  0  0  0  0  0  0  0
   52.2030  159.2640   30.0750 C   0  0  0  0  0  0  0  0  0  0  0  0
   53.5400  159.4020   29.7500 O   0  0  0  0  0  0  0  0  0  0  0  0
   52.4740  157.4730   27.5380 C   0  0  0  0  0  0  0  0  0  0  0  0
   52.9590  156.4580   26.7080 C   0  0  0  0  0  0  0  0  0  0  0  0
   52.8910  155.1080   27.0940 C   0  0  0  0  0  0  0  0  0  0  0  0
   53.4100  154.0510   26.1470 C   0  0  0  0  0  0  0  0  0  0  0  0
   54.5500  154.4230   25.5000 F   0  0  0  0  0  0  0  0  0  0  0  0
   52.5270  153.7230   25.1590 F   0  0  0  0  0  0  0  0  0  0  0  0
   50.9238  151.6953   28.3958 H   0  0  0  0  0  0  0  0  0  0  0  0
   50.8333  153.0503   27.2200 H   0  0  0  0  0  0  0  0  0  0  0  0
   52.2568  151.9546   27.2200 H   0  0  0  0  0  0  0  0  0  0  0  0
   51.6406  153.3661   29.7908 H   0  0  0  0  0  0  0  0  0  0  0  0
   53.2289  152.9819   29.0006 H   0  0  0  0  0  0  0  0  0  0  0  0
   51.3976  155.5714   30.1436 H   0  0  0  0  0  0  0  0  0  0  0  0
   47.6058  158.0182   30.7438 H   0  0  0  0  0  0  0  0  0  0  0  0
   46.4522  159.6692   32.2187 H   0  0  0  0  0  0  0  0  0  0  0  0
   47.7049  161.6294   33.1194 H   0  0  0  0  0  0  0  0  0  0  0  0
   49.9080  163.0310   32.4340 H   0  0  0  0  0  0  0  0  0  0  0  0
   54.0870  158.6450   29.6880 H   0  0  0  0  0  0  0  0  0  0  0  0
   52.5462  158.5219   27.2147 H   0  0  0  0  0  0  0  0  0  0  0  0
   53.4016  156.7203   25.7358 H   0  0  0  0  0  0  0  0  0  0  0  0
   53.5895  153.1957   26.8150 H   0  0  0  0  0  0  0  0  0  0  0  0
  1  2  1  0
  2  3  1  0
  3  4  2  0
  4  5  1  0
  5  6  1  0
  6  7  1  0
  7  8  1  0
  8  9  2  0
  9 10  1  0
 10 11  2  0
 11 12  1  0
 12 13  1  0
 12 14  2  0
 14 15  1  0
 15 16  2  0
 15 17  1  0
 17 18  1  0
  5 19  2  0
 19 20  1  0
 20 21  2  0
 21 22  1  0
 22 23  1  0
 22 24  1  0
 21  3  1  0
 17  6  2  0
 14  8  1  0
  1 25  1  0
  1 26  1  0
  1 27  1  0
  2 28  1  0
  2 29  1  0
  4 30  1  0
  9 31  1  0
 10 32  1  0
 11 33  1  0
 13 34  1  0
 18 35  1  0
 19 36  1  0
 20 37  1  0
 22 38  1  0
M  END
>  <meeko>  (5) 
{"is_sidechain": [false], "free_energy": -8.834, "intermolecular_energy": -11.092, "internal_energy": 0.078}

$$$$
cand_017_out
     RDKit          3D

 38 40  0  0  0  0  0  0  0  0999 V2000
   51.8620  152.0340   27.0100 C   0  0  0  0  0  0  0  0  0  0  0  0
   52.8090  152.8290   27.8980 C   0  0  0  0  0  0  0  0  0  0  0  0
   52.7930  154.3050   27.5630 C   0  0  0  0  0  0  0  0  0  0  0  0
   52.1340  155.1800   28.4520 C   0  0  0  0  0  0  0  0  0  0  0  0
   52.0780  156.5610   28.2210 C   0  0  0  0  0  0  0  0  0  0  0  0
   51.4080  157.4800   29.1660 C   0  0  0  0  0  0  0  0  0  0  0  0
   52.1530  158.6240   29.4270 O   0  0  0  0  0  0  0  0  0  0  0  0
   51.6460  159.5620   30.2890 C   0  0  0  0  0  0  0  0  0  0  0  0
   52.4350  160.6870   30.5350 C   0  0  0  0  0  0  0  0  0  0  0  0
   51.9770  161.6830   31.4020 C   0  0  0  0  0  0  0  0  0  0  0  0
   50.7330  161.5530   32.0220 C   0  0  0  0  0  0  0  0  0  0  0  0
   49.9480  160.4300   31.7740 C   0  0  0  0  0  0  0  0  0  0  0  0
   48.7400  160.3670   32.4130 O   0  0  0  0  0  0  0  0  0  0  0  0
   50.4060  159.4340   30.9070 C   0  0  0  0  0  0  0  0  0  0  0  0
   49.6140  158.2370   30.6200 C   0  0  0  0  0  0  0  0  0  0  0  0
   48.5060  158.0540   31.1210 O   0  0  0  0  0  0  0  0  0  0  0  0
   50.1940  157.2380   29.6930 C   0  0  0  0  0  0  0  0  0  0  0  0
   49.4310  156.1170   29.4190 O   0  0  0  0  0  0  0  0  0  0  0  0
   52.7130  157.0710   27.0850 C   0  0  0  0  0  0  0  0  0  0  0  0
   53.3750  156.2190   26.1950 C   0  0  0  0  0  0  0  0  0  0  0  0
   53.4280  154.8330   26.4190 C   0  0  0  0  0  0  0  0  0  0  0  0
   54.1380  153.9570   25.4130 C   0  0  0  0  0  0  0  0  0  0  0  0
   55.2530  154.5380   24.8870 F   0  0  0  0  0  0  0  0  0  0  0  0
   53.3650  153.6250   24.3380 F   0  0  0  0  0  0  0  0  0  0  0  0
   51.1706  151.4535   27.6385 H   0  0  0  0  0  0  0  0  0  0  0  0
   51.2881  152.7249   26.3749 H   0  0  0  0  0  0  0  0  0  0  0  0
   52.4430  151.3491   26.3749 H   0  0  0  0  0  0  0  0  0  0  0  0
   52.5053  152.6994   28.9473 H   0  0  0  0  0  0  0  0  0  0  0  0
   53.8290  152.4529   27.7305 H   0  0  0  0  0  0  0  0  0  0  0  0
   51.6514  154.7673   29.3502 H   0  0  0  0  0  0  0  0  0  0  0  0
   53.4156  160.7894   30.0473 H   0  0  0  0  0  0  0  0  0  0  0  0
   52.5975  162.5703   31.5960 H   0  0  0  0  0  0  0  0  0  0  0  0
   50.3735  162.3364   32.7053 H   0  0  0  0  0  0  0  0  0  0  0  0
   48.7050  160.3540   33.3490 H   0  0  0  0  0  0  0  0  0  0  0  0
   49.8350  155.2730   29.3880 H   0  0  0  0  0  0  0  0  0  0  0  0
   52.6919  158.1532   26.8890 H   0  0  0  0  0  0  0  0  0  0  0  0
   53.8627  156.6414   25.3041 H   0  0  0  0  0  0  0  0  0  0  0  0
   54.3926  153.0662   26.0060 H   0  0  0  0  0  0  0  0  0  0  0  0
  1  2  1  0
  2  3  1  0
  3  4  2  0
  4  5  1  0
  5  6  1  0
  6  7  1  0
  7  8  1  0
  8  9  2  0
  9 10  1  0
 10 11  2  0
 11 12  1  0
 12 13  1  0
 12 14  2  0
 14 15  1  0
 15 16  2  0
 15 17  1  0
 17 18  1  0
  5 19  2  0
 19 20  1  0
 20 21  2  0
 21 22  1  0
 22 23  1  0
 22 24  1  0
 21  3  1  0
 17  6  2  0
 14  8  1  0
  1 25  1  0
  1 26  1  0
  1 27  1  0
  2 28  1  0
  2 29  1  0
  4 30  1  0
  9 31  1  0
 10 32  1  0
 11 33  1  0
 13 34  1  0
 18 35  1  0
 19 36  1  0
 20 37  1  0
 22 38  1  0
M  END
>  <meeko>  (6) 
{"is_sidechain": [false], "free_energy": -8.423, "intermolecular_energy": -10.25, "internal_energy": -0.256}

$$$$
cand_017_out
     RDKit          3D

 38 40  0  0  0  0  0  0  0  0999 V2000
   50.8140  160.8240   30.0060 C   0  0  0  0  0  0  0  0  0  0  0  0
   51.7560  159.6540   30.2560 C   0  0  0  0  0  0  0  0  0  0  0  0
   51.1360  158.3320   29.8580 C   0  0  0  0  0  0  0  0  0  0  0  0
   51.8510  157.5070   28.9650 C   0  0  0  0  0  0  0  0  0  0  0  0
   51.3520  156.2640   28.5490 C   0  0  0  0  0  0  0  0  0  0  0  0
   52.1130  155.3890   27.6320 C   0  0  0  0  0  0  0  0  0  0  0  0
   51.7340  154.0550   27.7210 O   0  0  0  0  0  0  0  0  0  0  0  0
   52.3630  153.1330   26.9230 C   0  0  0  0  0  0  0  0  0  0  0  0
   51.9630  151.8030   27.0560 C   0  0  0  0  0  0  0  0  0  0  0  0
   52.5610  150.8130   26.2720 C   0  0  0  0  0  0  0  0  0  0  0  0
   53.5580  151.1550   25.3570 C   0  0  0  0  0  0  0  0  0  0  0  0
   53.9560  152.4820   25.2260 C   0  0  0  0  0  0  0  0  0  0  0  0
   54.9370  152.7460   24.3090 O   0  0  0  0  0  0  0  0  0  0  0  0
   53.3570  153.4720   26.0100 C   0  0  0  0  0  0  0  0  0  0  0  0
   53.7460  154.8790   25.9060 C   0  0  0  0  0  0  0  0  0  0  0  0
   54.6100  155.2590   25.1180 O   0  0  0  0  0  0  0  0  0  0  0  0
   53.0560  155.8480   26.7880 C   0  0  0  0  0  0  0  0  0  0  0  0
   53.4210  157.1770   26.6710 O   0  0  0  0  0  0  0  0  0  0  0  0
   50.1210  155.8390   29.0570 C   0  0  0  0  0  0  0  0  0  0  0  0
   49.4010  156.6430   29.9460 C   0  0  0  0  0  0  0  0  0  0  0  0
   49.8940  157.8920   30.3610 C   0  0  0  0  0  0  0  0  0  0  0  0
   49.0620  158.7280   31.3060 C   0  0  0  0  0  0  0  0  0  0  0  0
   48.8920  158.1480   32.5270 F   0  0  0  0  0  0  0  0  0  0  0  0
   47.8010  158.9780   30.8470 F   0  0  0  0  0  0  0  0  0  0  0  0
   50.4804  161.2384   30.9688 H   0  0  0  0  0  0  0  0  0  0  0  0
   51.3401  161.6027   29.4343 H   0  0  0  0  0  0  0  0  0  0  0  0
   49.9410  160.4762   29.4343 H   0  0  0  0  0  0  0  0  0  0  0  0
   52.6745  159.8062   29.6702 H   0  0  0  0  0  0  0  0  0  0  0  0
   51.9730  159.6168   31.3337 H   0  0  0  0  0  0  0  0  0  0  0  0
   52.8255  157.8474   28.5849 H   0  0  0  0  0  0  0  0  0  0  0  0
   51.1775  151.5340   27.7775 H   0  0  0  0  0  0  0  0  0  0  0  0
   52.2461  149.7642   26.3759 H   0  0  0  0  0  0  0  0  0  0  0  0
   54.0290  150.3758   24.7397 H   0  0  0  0  0  0  0  0  0  0  0  0
   54.7650  153.3220   23.5910 H   0  0  0  0  0  0  0  0  0  0  0  0
   54.1930  157.4890   27.1000 H   0  0  0  0  0  0  0  0  0  0  0  0
   49.7148  154.8626   28.7544 H   0  0  0  0  0  0  0  0  0  0  0  0
   48.4310  156.2915   30.3275 H   0  0  0  0  0  0  0  0  0  0  0  0
   49.6442  159.6582   31.3824 H   0  0  0  0  0  0  0  0  0  0  0  0
  1  2  1  0
  2  3  1  0
  3  4  2  0
  4  5  1  0
  5  6  1  0
  6  7  1  0
  7  8  1  0
  8  9  2  0
  9 10  1  0
 10 11  2  0
 11 12  1  0
 12 13  1  0
 12 14  2  0
 14 15  1  0
 15 16  2  0
 15 17  1  0
 17 18  1  0
  5 19  2  0
 19 20  1  0
 20 21  2  0
 21 22  1  0
 22 23  1  0
 22 24  1  0
 21  3  1  0
 17  6  2  0
 14  8  1  0
  1 25  1  0
  1 26  1  0
  1 27  1  0
  2 28  1  0
  2 29  1  0
  4 30  1  0
  9 31  1  0
 10 32  1  0
 11 33  1  0
 13 34  1  0
 18 35  1  0
 19 36  1  0
 20 37  1  0
 22 38  1  0
M  END
>  <meeko>  (7) 
{"is_sidechain": [false], "free_energy": -8.071, "intermolecular_energy": -10.422, "internal_energy": 0.35}

$$$$
cand_017_out
     RDKit          3D

 38 40  0  0  0  0  0  0  0  0999 V2000
   48.0940  158.1100   29.7150 C   0  0  0  0  0  0  0  0  0  0  0  0
   49.1190  157.1970   30.3740 C   0  0  0  0  0  0  0  0  0  0  0  0
   50.4840  157.3210   29.7320 C   0  0  0  0  0  0  0  0  0  0  0  0
   50.9170  156.2780   28.8880 C   0  0  0  0  0  0  0  0  0  0  0  0
   52.1640  156.3150   28.2490 C   0  0  0  0  0  0  0  0  0  0  0  0
   52.6070  155.2330   27.3440 C   0  0  0  0  0  0  0  0  0  0  0  0
   52.1090  153.9870   27.7080 O   0  0  0  0  0  0  0  0  0  0  0  0
   52.4440  152.8940   26.9520 C   0  0  0  0  0  0  0  0  0  0  0  0
   51.9360  151.6600   27.3620 C   0  0  0  0  0  0  0  0  0  0  0  0
   52.2370  150.5060   26.6350 C   0  0  0  0  0  0  0  0  0  0  0  0
   53.0450  150.5850   25.4990 C   0  0  0  0  0  0  0  0  0  0  0  0
   53.5500  151.8170   25.0920 C   0  0  0  0  0  0  0  0  0  0  0  0
   54.3340  151.8220   23.9700 O   0  0  0  0  0  0  0  0  0  0  0  0
   53.2490  152.9710   25.8190 C   0  0  0  0  0  0  0  0  0  0  0  0
   53.7600  154.2850   25.4270 C   0  0  0  0  0  0  0  0  0  0  0  0
   54.4720  154.4380   24.4350 O   0  0  0  0  0  0  0  0  0  0  0  0
   53.3900  155.4450   26.2700 C   0  0  0  0  0  0  0  0  0  0  0  0
   53.8670  156.6840   25.8820 O   0  0  0  0  0  0  0  0  0  0  0  0
   52.9800  157.4330   28.4510 C   0  0  0  0  0  0  0  0  0  0  0  0
   52.5660  158.4770   29.2810 C   0  0  0  0  0  0  0  0  0  0  0  0
   51.3190  158.4410   29.9290 C   0  0  0  0  0  0  0  0  0  0  0  0
   50.9310  159.5890   30.8330 C   0  0  0  0  0  0  0  0  0  0  0  0
   50.1830  160.5380   30.2050 F   0  0  0  0  0  0  0  0  0  0  0  0
   52.0020  160.2590   31.3520 F   0  0  0  0  0  0  0  0  0  0  0  0
   47.5120  158.6284   30.4912 H   0  0  0  0  0  0  0  0  0  0  0  0
   48.6121  158.8513   29.0888 H   0  0  0  0  0  0  0  0  0  0  0  0
   47.4174  157.5099   29.0888 H   0  0  0  0  0  0  0  0  0  0  0  0
   49.2012  157.4647   31.4378 H   0  0  0  0  0  0  0  0  0  0  0  0
   48.7783  156.1584   30.2504 H   0  0  0  0  0  0  0  0  0  0  0  0
   50.2585  155.4118   28.7266 H   0  0  0  0  0  0  0  0  0  0  0  0
   51.2993  151.5966   28.2567 H   0  0  0  0  0  0  0  0  0  0  0  0
   51.8369  149.5335   26.9579 H   0  0  0  0  0  0  0  0  0  0  0  0
   53.2820  149.6759   24.9269 H   0  0  0  0  0  0  0  0  0  0  0  0
   55.0650  151.2410   23.9070 H   0  0  0  0  0  0  0  0  0  0  0  0
   54.6180  156.7420   25.3260 H   0  0  0  0  0  0  0  0  0  0  0  0
   53.9580  157.4905   27.9508 H   0  0  0  0  0  0  0  0  0  0  0  0
   53.2275  159.3431   29.4304 H   0  0  0  0  0  0  0  0  0  0  0  0
   50.3566  159.0887   31.6266 H   0  0  0  0  0  0  0  0  0  0  0  0
  1  2  1  0
  2  3  1  0
  3  4  2  0
  4  5  1  0
  5  6  1  0
  6  7  1  0
  7  8  1  0
  8  9  2  0
  9 10  1  0
 10 11  2  0
 11 12  1  0
 12 13  1  0
 12 14  2  0
 14 15  1  0
 15 16  2  0
 15 17  1  0
 17 18  1  0
  5 19  2  0
 19 20  1  0
 20 21  2  0
 21 22  1  0
 22 23  1  0
 22 24  1  0
 21  3  1  0
 17  6  2  0
 14  8  1  0
  1 25  1  0
  1 26  1  0
  1 27  1  0
  2 28  1  0
  2 29  1  0
  4 30  1  0
  9 31  1  0
 10 32  1  0
 11 33  1  0
 13 34  1  0
 18 35  1  0
 19 36  1  0
 20 37  1  0
 22 38  1  0
M  END
>  <meeko>  (8) 
{"is_sidechain": [false], "free_energy": -7.983, "intermolecular_energy": -9.931, "internal_energy": -0.033}

$$$$
