cand_002_out
     RDKit          3D

 45 48  0  0  0  0  0  0  0  0999 V2000
   51.4180  153.1880   29.4950 C   0  0  0  0  0  0  0  0  0  0  0  0
   51.7510  154.5170   28.8750 C   0  0  0  0  0  0  0  0  0  0  0  0
   51.4120  155.6900   29.5760 C   0  0  0  0  0  0  0  0  0  0  0  0
   51.6760  156.9660   29.0560 C   0  0  0  0  0  0  0  0  0  0  0  0
   51.2820  158.1690   29.8190 C   0  0  0  0  0  0  0  0  0  0  0  0
   49.9630  158.1240   30.2550 O   0  0  0  0  0  0  0  0  0  0  0  0
   49.4650  159.1780   30.9770 C   0  0  0  0  0  0  0  0  0  0  0  0
   48.1320  159.0960   31.3820 C   0  0  0  0  0  0  0  0  0  0  0  0
   47.5630  160.1350   32.1220 C   0  0  0  0  0  0  0  0  0  0  0  0
   48.3270  161.2540   32.4570 C   0  0  0  0  0  0  0  0  0  0  0  0
   49.6570  161.3340   32.0520 C   0  0  0  0  0  0  0  0  0  0  0  0
   50.3470  162.4590   32.4150 O   0  0  0  0  0  0  0  0  0  0  0  0
   50.2250  160.2940   31.3100 C   0  0  0  0  0  0  0  0  0  0  0  0
   51.6180  160.3380   30.8650 C   0  0  0  0  0  0  0  0  0  0  0  0
   52.3560  161.2860   31.1260 O   0  0  0  0  0  0  0  0  0  0  0  0
   52.1230  159.1890   30.0780 C   0  0  0  0  0  0  0  0  0  0  0  0
   53.4440  159.2340   29.6740 O   0  0  0  0  0  0  0  0  0  0  0  0
   52.2740  157.0570   27.7960 C   0  0  0  0  0  0  0  0  0  0  0  0
   52.6070  155.9050   27.0810 C   0  0  0  0  0  0  0  0  0  0  0  0
   52.3490  154.6250   27.6030 C   0  0  0  0  0  0  0  0  0  0  0  0
   52.7260  153.4140   26.7680 C   0  0  0  0  0  0  0  0  0  0  0  0
   53.5300  153.7130   25.5210 C   0  0  0  0  0  0  0  0  0  0  0  0
   53.6030  152.7670   24.4880 C   0  0  0  0  0  0  0  0  0  0  0  0
   54.3610  153.0190   23.3430 C   0  0  0  0  0  0  0  0  0  0  0  0
   55.0630  154.2160   23.2210 C   0  0  0  0  0  0  0  0  0  0  0  0
   55.0100  155.1600   24.2450 C   0  0  0  0  0  0  0  0  0  0  0  0
   54.2520  154.9080   25.3900 C   0  0  0  0  0  0  0  0  0  0  0  0
   51.4407  153.2787   30.5910 H   0  0  0  0  0  0  0  0  0  0  0  0
   50.4136  152.8749   29.1737 H   0  0  0  0  0  0  0  0  0  0  0  0
   52.1561  152.4383   29.1737 H   0  0  0  0  0  0  0  0  0  0  0  0
   50.9264  155.6035   30.5592 H   0  0  0  0  0  0  0  0  0  0  0  0
   47.5299  158.2138   31.1187 H   0  0  0  0  0  0  0  0  0  0  0  0
   46.5122  160.0713   32.4409 H   0  0  0  0  0  0  0  0  0  0  0  0
   47.8790  162.0719   33.0404 H   0  0  0  0  0  0  0  0  0  0  0  0
   51.1500  162.3820   32.8920 H   0  0  0  0  0  0  0  0  0  0  0  0
   53.8270  160.0500   29.4160 H   0  0  0  0  0  0  0  0  0  0  0  0
   52.4844  158.0462   27.3633 H   0  0  0  0  0  0  0  0  0  0  0  0
   53.0794  156.0003   26.0922 H   0  0  0  0  0  0  0  0  0  0  0  0
   53.3188  152.7365   27.4002 H   0  0  0  0  0  0  0  0  0  0  0  0
   51.7781  152.9767   26.4212 H   0  0  0  0  0  0  0  0  0  0  0  0
   53.0572  151.8165   24.5810 H   0  0  0  0  0  0  0  0  0  0  0  0
   54.4039  152.2719   22.5367 H   0  0  0  0  0  0  0  0  0  0  0  0
   55.6583  154.4159   22.3178 H   0  0  0  0  0  0  0  0  0  0  0  0
   55.5659  156.1045   24.1509 H   0  0  0  0  0  0  0  0  0  0  0  0
   54.2208  155.6543   26.1975 H   0  0  0  0  0  0  0  0  0  0  0  0
  1  2  1  0
  2  3  2  0
  3  4  1  0
  4  5  1  0
  5  6  1  0
  6  7  1  0
  7  8  2  0
  8  9  1  0
  9 10  2  0
 10 11  1  0
 11 12  1  0
 11 13  2  0
 13 14  1  0
 14 15  2  0
 14 16  1  0
 16 17  1  0
  4 18  2  0
 18 19  1  0
 19 20  2  0
 20 21  1  0
 21 22  1  0
 22 23  2  0
 23 24  1  0
 24 25  2  0
 25 26  1  0
 26 27  2  0
 20  2  1  0
 27 22  1  0
 16  5  2  0
 13  7  1  0
  1 28  1  0
  1 29  1  0
  1 30  1  0
  3 31  1  0
  8 32  1  0
  9 33  1  0
 10 34  1  0
 12 35  1  0
 17 36  1  0
 18 37  1  0
 19 38  1  0
 21 39  1  0
 21 40  1  0
 23 41  1  0
 24 42  1  0
 25 43  1  0
 26 44  1  0
 27 45  1  0
M  END
>  <meeko>  (1) 
{"is_sidechain": [false], "free_energy": -10.492, "intermolecular_energy": -12.945, "internal_energy": 0.51}

$$$$
cand_002_out
     RDKit          3D

 45 48  0  0  0  0  0  0  0  0999 V2000
   53.9420  156.5930   24.8140 C   0  0  0  0  0  0  0  0  0  0  0  0
   53.3670  155.9890   26.0650 C   0  0  0  0  0  0  0  0  0  0  0  0
   52.6920  156.8310   26.9700 C   0  0  0  0  0  0  0  0  0  0  0  0
   52.1420  156.3430   28.1660 C   0  0  0  0  0  0  0  0  0  0  0  0
   51.4620  157.2700   29.0950 C   0  0  0  0  0  0  0  0  0  0  0  0
   52.2090  158.4110   29.3640 O   0  0  0  0  0  0  0  0  0  0  0  0
   51.6940  159.3580   30.2120 C   0  0  0  0  0  0  0  0  0  0  0  0
   52.4840  160.4800   30.4640 C   0  0  0  0  0  0  0  0  0  0  0  0
   52.0190  161.4820   31.3190 C   0  0  0  0  0  0  0  0  0  0  0  0
   50.7640  161.3620   31.9190 C   0  0  0  0  0  0  0  0  0  0  0  0
   49.9780  160.2410   31.6660 C   0  0  0  0  0  0  0  0  0  0  0  0
   48.7600  160.1880   32.2880 O   0  0  0  0  0  0  0  0  0  0  0  0
   50.4450  159.2380   30.8130 C   0  0  0  0  0  0  0  0  0  0  0  0
   49.6500  158.0450   30.5200 C   0  0  0  0  0  0  0  0  0  0  0  0
   48.5340  157.8700   31.0050 O   0  0  0  0  0  0  0  0  0  0  0  0
   50.2380  157.0370   29.6070 C   0  0  0  0  0  0  0  0  0  0  0  0
   49.4740  155.9190   29.3270 O   0  0  0  0  0  0  0  0  0  0  0  0
   52.2970  154.9870   28.4610 C   0  0  0  0  0  0  0  0  0  0  0  0
   52.9740  154.1390   27.5820 C   0  0  0  0  0  0  0  0  0  0  0  0
   53.5190  154.6230   26.3800 C   0  0  0  0  0  0  0  0  0  0  0  0
   54.2530  153.6500   25.4740 C   0  0  0  0  0  0  0  0  0  0  0  0
   53.7700  152.2170   25.5400 C   0  0  0  0  0  0  0  0  0  0  0  0
   54.4260  151.2200   24.8020 C   0  0  0  0  0  0  0  0  0  0  0  0
   53.9760  149.8990   24.8330 C   0  0  0  0  0  0  0  0  0  0  0  0
   52.8610  149.5590   25.5970 C   0  0  0  0  0  0  0  0  0  0  0  0
   52.1920  150.5410   26.3240 C   0  0  0  0  0  0  0  0  0  0  0  0
   52.6410  151.8630   26.2930 C   0  0  0  0  0  0  0  0  0  0  0  0
   54.6772  157.3653   25.0842 H   0  0  0  0  0  0  0  0  0  0  0  0
   54.4352  155.8085   24.2213 H   0  0  0  0  0  0  0  0  0  0  0  0
   53.1342  157.0471   24.2213 H   0  0  0  0  0  0  0  0  0  0  0  0
   52.5930  157.9006   26.7332 H   0  0  0  0  0  0  0  0  0  0  0  0
   53.4720  160.5755   29.9899 H   0  0  0  0  0  0  0  0  0  0  0  0
   52.6419  162.3661   31.5197 H   0  0  0  0  0  0  0  0  0  0  0  0
   50.3968  162.1520   32.5906 H   0  0  0  0  0  0  0  0  0  0  0  0
   48.7110  160.0460   33.2120 H   0  0  0  0  0  0  0  0  0  0  0  0
   49.8910  155.1100   29.1040 H   0  0  0  0  0  0  0  0  0  0  0  0
   51.8814  154.5825   29.3957 H   0  0  0  0  0  0  0  0  0  0  0  0
   53.0827  153.0739   27.8345 H   0  0  0  0  0  0  0  0  0  0  0  0
   54.1402  153.9995   24.4371 H   0  0  0  0  0  0  0  0  0  0  0  0
   55.2962  153.6365   25.8226 H   0  0  0  0  0  0  0  0  0  0  0  0
   55.3037  151.4821   24.1929 H   0  0  0  0  0  0  0  0  0  0  0  0
   54.5019  149.1256   24.2539 H   0  0  0  0  0  0  0  0  0  0  0  0
   52.5099  148.5170   25.6258 H   0  0  0  0  0  0  0  0  0  0  0  0
   51.3089  150.2748   26.9233 H   0  0  0  0  0  0  0  0  0  0  0  0
   52.1039  152.6342   26.8647 H   0  0  0  0  0  0  0  0  0  0  0  0
  1  2  1  0
  2  3  2  0
  3  4  1  0
  4  5  1  0
  5  6  1  0
  6  7  1  0
  7  8  2  0
  8  9  1  0
  9 10  2  0
 10 11  1  0
 11 12  1  0
 11 13  2  0
 13 14  1  0
 14 15  2  0
 14 16  1  0
 16 17  1  0
  4 18  2  0
 18 19  1  0
 19 20  2  0
 20 21  1  0
 21 22  1  0
 22 23  2  0
 23 24  1  0
 24 25  2  0
 25 26  1  0
 26 27  2  0
 20  2  1  0
 27 22  1  0
 16  5  2  0
 13  7  1  0
  1 28  1  0
  1 29  1  0
  1 30  1  0
  3 31  1  0
  8 32  1  0
  9 33  1  0
 10 34  1  0
 12 35  1  0
 17 36  1  0
 18 37  1  0
 19 38  1  0
 21 39  1  0
 21 40  1  0
 23 41  1  0
 24 42  1  0
 25 43  1  0
 26 44  1  0
 27 45  1  0
M  END
>  <meeko>  (2) 
{"is_sidechain": [false], "free_energy": -10.384, "intermolecular_energy": -12.656, "internal_energy": 0.354}

$$$$
cand_002_out
     RDKit          3D

 45 48  0  0  0  0  0  0  0  0999 V2000
   49.5800  157.7200   30.6070 C   0  0  0  0  0  0  0  0  0  0  0  0
   50.8450  157.6080   29.8010 C   0  0  0  0  0  0  0  0  0  0  0  0
   51.0920  156.4120   29.1000 C   0  0  0  0  0  0  0  0  0  0  0  0
   52.2570  156.2270   28.3400 C   0  0  0  0  0  0  0  0  0  0  0  0
   52.4830  154.9450   27.6390 C   0  0  0  0  0  0  0  0  0  0  0  0
   53.2030  155.0940   26.4600 O   0  0  0  0  0  0  0  0  0  0  0  0
   53.4850  153.9810   25.7080 C   0  0  0  0  0  0  0  0  0  0  0  0
   54.1980  154.1790   24.5250 C   0  0  0  0  0  0  0  0  0  0  0  0
   54.5180  153.0890   23.7140 C   0  0  0  0  0  0  0  0  0  0  0  0
   54.1260  151.8010   24.0860 C   0  0  0  0  0  0  0  0  0  0  0  0
   53.4150  151.6070   25.2670 C   0  0  0  0  0  0  0  0  0  0  0  0
   53.0630  150.3190   25.5710 O   0  0  0  0  0  0  0  0  0  0  0  0
   53.0930  152.6980   26.0770 C   0  0  0  0  0  0  0  0  0  0  0  0
   52.3470  152.5380   27.3260 C   0  0  0  0  0  0  0  0  0  0  0  0
   51.9730  151.4360   27.7240 O   0  0  0  0  0  0  0  0  0  0  0  0
   52.0510  153.7590   28.1090 C   0  0  0  0  0  0  0  0  0  0  0  0
   51.3570  153.5940   29.2940 O   0  0  0  0  0  0  0  0  0  0  0  0
   53.1960  157.2600   28.3050 C   0  0  0  0  0  0  0  0  0  0  0  0
   52.9740  158.4490   29.0030 C   0  0  0  0  0  0  0  0  0  0  0  0
   51.8040  158.6400   29.7600 C   0  0  0  0  0  0  0  0  0  0  0  0
   51.6300  159.9520   30.5050 C   0  0  0  0  0  0  0  0  0  0  0  0
   50.2190  160.2530   30.9610 C   0  0  0  0  0  0  0  0  0  0  0  0
   49.2640  160.7090   30.0400 C   0  0  0  0  0  0  0  0  0  0  0  0
   47.9660  161.0140   30.4520 C   0  0  0  0  0  0  0  0  0  0  0  0
   47.6080  160.8760   31.7910 C   0  0  0  0  0  0  0  0  0  0  0  0
   48.5490  160.4370   32.7200 C   0  0  0  0  0  0  0  0  0  0  0  0
   49.8480  160.1310   32.3090 C   0  0  0  0  0  0  0  0  0  0  0  0
   49.8252  157.6983   31.6791 H   0  0  0  0  0  0  0  0  0  0  0  0
   49.0741  158.6665   30.3657 H   0  0  0  0  0  0  0  0  0  0  0  0
   48.9156  156.8772   30.3657 H   0  0  0  0  0  0  0  0  0  0  0  0
   50.3512  155.6003   29.1495 H   0  0  0  0  0  0  0  0  0  0  0  0
   54.5076  155.1930   24.2319 H   0  0  0  0  0  0  0  0  0  0  0  0
   55.0795  153.2445   22.7810 H   0  0  0  0  0  0  0  0  0  0  0  0
   54.3785  150.9419   23.4472 H   0  0  0  0  0  0  0  0  0  0  0  0
   52.2570  150.1470   26.0170 H   0  0  0  0  0  0  0  0  0  0  0  0
   51.2910  152.7450   29.6840 H   0  0  0  0  0  0  0  0  0  0  0  0
   54.1202  157.1358   27.7215 H   0  0  0  0  0  0  0  0  0  0  0  0
   53.7269  159.2498   28.9601 H   0  0  0  0  0  0  0  0  0  0  0  0
   52.2767  159.9264   31.3945 H   0  0  0  0  0  0  0  0  0  0  0  0
   51.8953  160.7455   29.7908 H   0  0  0  0  0  0  0  0  0  0  0  0
   49.5412  160.8274   28.9821 H   0  0  0  0  0  0  0  0  0  0  0  0
   47.2247  161.3638   29.7184 H   0  0  0  0  0  0  0  0  0  0  0  0
   46.5838  161.1133   32.1145 H   0  0  0  0  0  0  0  0  0  0  0  0
   48.2684  160.3313   33.7783 H   0  0  0  0  0  0  0  0  0  0  0  0
   50.5876  159.7911   33.0489 H   0  0  0  0  0  0  0  0  0  0  0  0
  1  2  1  0
  2  3  2  0
  3  4  1  0
  4  5  1  0
  5  6  1  0
  6  7  1  0
  7  8  2  0
  8  9  1  0
  9 10  2  0
 10 11  1  0
 11 12  1  0
 11 13  2  0
 13 14  1  0
 14 15  2  0
 14 16  1  0
 16 17  1  0
  4 18  2  0
 18 19  1  0
 19 20  2  0
 20 21  1  0
 21 22  1  0
 22 23  2  0
 23 24  1  0
 24 25  2  0
 25 26  1  0
 26 27  2  0
 20  2  1  0
 27 22  1  0
 16  5  2  0
 13  7  1  0
  1 28  1  0
  1 29  1  0
  1 30  1  0
  3 31  1  0
  8 32  1  0
  9 33  1  0
 10 34  1  0
 12 35  1  0
 17 36  1  0
 18 37  1  0
 19 38  1  0
 21 39  1  0
 21 40  1  0
 23 41  1  0
 24 42  1  0
 25 43  1  0
 26 44  1  0
 27 45  1  0
M  END
>  <meeko>  (3) 
{"is_sidechain": [false], "free_energy": -10.315, "intermolecular_energy": -13.87, "internal_energy": 1.652}

$$$$
cand_002_out
     RDKit          3D

 45 48  0  0  0  0  0  0  0  0999 V2000
   54.1090  156.5500   24.6720 C   0  0  0  0  0  0  0  0  0  0  0  0
   53.4880  156.0550   25.9490 C   0  0  0  0  0  0  0  0  0  0  0  0
   52.9610  156.9990   26.8500 C   0  0  0  0  0  0  0  0  0  0  0  0
   52.3800  156.6150   28.0690 C   0  0  0  0  0  0  0  0  0  0  0  0
   51.8590  157.6450   28.9930 C   0  0  0  0  0  0  0  0  0  0  0  0
   50.5130  157.4730   29.2900 O   0  0  0  0  0  0  0  0  0  0  0  0
   49.9010  158.3600   30.1390 C   0  0  0  0  0  0  0  0  0  0  0  0
   48.5450  158.1570   30.3980 C   0  0  0  0  0  0  0  0  0  0  0  0
   47.8620  159.0230   31.2540 C   0  0  0  0  0  0  0  0  0  0  0  0
   48.5340  160.0910   31.8500 C   0  0  0  0  0  0  0  0  0  0  0  0
   49.8870  160.2920   31.5900 C   0  0  0  0  0  0  0  0  0  0  0  0
   50.4840  161.3570   32.2080 O   0  0  0  0  0  0  0  0  0  0  0  0
   50.5700  159.4250   30.7320 C   0  0  0  0  0  0  0  0  0  0  0  0
   51.9910  159.6000   30.4320 C   0  0  0  0  0  0  0  0  0  0  0  0
   52.6530  160.5130   30.9230 O   0  0  0  0  0  0  0  0  0  0  0  0
   52.6200  158.6310   29.5050 C   0  0  0  0  0  0  0  0  0  0  0  0
   53.9670  158.7980   29.2390 O   0  0  0  0  0  0  0  0  0  0  0  0
   52.3520  155.2560   28.3900 C   0  0  0  0  0  0  0  0  0  0  0  0
   52.8810  154.3060   27.5140 C   0  0  0  0  0  0  0  0  0  0  0  0
   53.4570  154.6870   26.2890 C   0  0  0  0  0  0  0  0  0  0  0  0
   54.0240  153.6040   25.3880 C   0  0  0  0  0  0  0  0  0  0  0  0
   53.4760  152.2140   25.6250 C   0  0  0  0  0  0  0  0  0  0  0  0
   54.0330  151.1150   24.9540 C   0  0  0  0  0  0  0  0  0  0  0  0
   53.5210  149.8300   25.1440 C   0  0  0  0  0  0  0  0  0  0  0  0
   52.4410  149.6290   26.0010 C   0  0  0  0  0  0  0  0  0  0  0  0
   51.8700  150.7130   26.6650 C   0  0  0  0  0  0  0  0  0  0  0  0
   52.3810  151.9980   26.4750 C   0  0  0  0  0  0  0  0  0  0  0  0
   54.9491  157.2196   24.9083 H   0  0  0  0  0  0  0  0  0  0  0  0
   54.4759  155.6939   24.0868 H   0  0  0  0  0  0  0  0  0  0  0  0
   53.3563  157.0985   24.0868 H   0  0  0  0  0  0  0  0  0  0  0  0
   53.0056  158.0674   26.5919 H   0  0  0  0  0  0  0  0  0  0  0  0
   48.0147  157.3155   29.9282 H   0  0  0  0  0  0  0  0  0  0  0  0
   46.7931  158.8633   31.4588 H   0  0  0  0  0  0  0  0  0  0  0  0
   47.9955  160.7731   32.5243 H   0  0  0  0  0  0  0  0  0  0  0  0
   50.1270  162.2180   32.1060 H   0  0  0  0  0  0  0  0  0  0  0  0
   54.3440  158.4110   28.4720 H   0  0  0  0  0  0  0  0  0  0  0  0
   51.9087  154.9307   29.3427 H   0  0  0  0  0  0  0  0  0  0  0  0
   52.8466  153.2409   27.7869 H   0  0  0  0  0  0  0  0  0  0  0  0
   53.8080  153.8814   24.3457 H   0  0  0  0  0  0  0  0  0  0  0  0
   55.0988  153.5504   25.6158 H   0  0  0  0  0  0  0  0  0  0  0  0
   54.8819  151.2673   24.2712 H   0  0  0  0  0  0  0  0  0  0  0  0
   53.9706  148.9757   24.6167 H   0  0  0  0  0  0  0  0  0  0  0  0
   52.0397  148.6162   26.1532 H   0  0  0  0  0  0  0  0  0  0  0  0
   51.0155  150.5558   27.3397 H   0  0  0  0  0  0  0  0  0  0  0  0
   51.9205  152.8498   26.9970 H   0  0  0  0  0  0  0  0  0  0  0  0
  1  2  1  0
  2  3  2  0
  3  4  1  0
  4  5  1  0
  5  6  1  0
  6  7  1  0
  7  8  2  0
  8  9  1  0
  9 10  2  0
 10 11  1  0
 11 12  1  0
 11 13  2  0
 13 14  1  0
 14 15  2  0
 14 16  1  0
 16 17  1  0
  4 18  2  0
 18 19  1  0
 19 20  2  0
 20 21  1  0
 21 22  1  0
 22 23  2  0
 23 24  1  0
 24 25  2  0
 25 26  1  0
 26 27  2  0
 20  2  1  0
 27 22  1  0
 16  5  2  0
 13  7  1  0
  1 28  1  0
  1 29  1  0
  1 30  1  0
  3 31  1  0
  8 32  1  0
  9 33  1  0
 10 34  1  0
 12 35  1  0
 17 36  1  0
 18 37  1  0
 19 38  1  0
 21 39  1  0
 21 40  1  0
 23 41  1  0
 24 42  1  0
 25 43  1  0
 26 44  1  0
 27 45  1  0
M  END
>  <meeko>  (4) 
{"is_sidechain": [false], "free_energy": -9.78, "intermolecular_energy": -11.992, "internal_energy": 0.435}

$$$$
cand_002_out
     RDKit          3D

 45 48  0  0  0  0  0  0  0  0999 V2000
   51.7710  158.9360   30.2000 C   0  0  0  0  0  0  0  0  0  0  0  0
   51.2990  157.5940   29.7130 C   0  0  0  0  0  0  0  0  0  0  0  0
   52.0390  156.9460   28.7060 C   0  0  0  0  0  0  0  0  0  0  0  0
   51.6520  155.6990   28.1900 C   0  0  0  0  0  0  0  0  0  0  0  0
   52.4500  155.0670   27.1170 C   0  0  0  0  0  0  0  0  0  0  0  0
   52.3120  153.6850   27.0850 O   0  0  0  0  0  0  0  0  0  0  0  0
   52.9980  152.9700   26.1360 C   0  0  0  0  0  0  0  0  0  0  0  0
   52.8410  151.5840   26.1500 C   0  0  0  0  0  0  0  0  0  0  0  0
   53.5100  150.7980   25.2100 C   0  0  0  0  0  0  0  0  0  0  0  0
   54.3360  151.3970   24.2570 C   0  0  0  0  0  0  0  0  0  0  0  0
   54.4910  152.7810   24.2460 C   0  0  0  0  0  0  0  0  0  0  0  0
   55.3140  153.3020   23.2850 O   0  0  0  0  0  0  0  0  0  0  0  0
   53.8220  153.5670   25.1870 C   0  0  0  0  0  0  0  0  0  0  0  0
   53.9570  155.0240   25.2100 C   0  0  0  0  0  0  0  0  0  0  0  0
   54.6600  155.6250   24.4000 O   0  0  0  0  0  0  0  0  0  0  0  0
   53.2110  155.7650   26.2530 C   0  0  0  0  0  0  0  0  0  0  0  0
   53.3350  157.1430   26.2570 O   0  0  0  0  0  0  0  0  0  0  0  0
   50.4870  155.1100   28.6850 C   0  0  0  0  0  0  0  0  0  0  0  0
   49.7330  155.7440   29.6750 C   0  0  0  0  0  0  0  0  0  0  0  0
   50.1220  156.9890   30.1990 C   0  0  0  0  0  0  0  0  0  0  0  0
   49.2510  157.6300   31.2660 C   0  0  0  0  0  0  0  0  0  0  0  0
   49.1220  159.1350   31.1770 C   0  0  0  0  0  0  0  0  0  0  0  0
   49.3310  159.9270   32.3170 C   0  0  0  0  0  0  0  0  0  0  0  0
   49.1910  161.3140   32.2550 C   0  0  0  0  0  0  0  0  0  0  0  0
   48.8320  161.9270   31.0560 C   0  0  0  0  0  0  0  0  0  0  0  0
   48.6080  161.1520   29.9200 C   0  0  0  0  0  0  0  0  0  0  0  0
   48.7480  159.7640   29.9810 C   0  0  0  0  0  0  0  0  0  0  0  0
   51.7747  158.9464   31.2999 H   0  0  0  0  0  0  0  0  0  0  0  0
   52.7891  159.1237   29.8282 H   0  0  0  0  0  0  0  0  0  0  0  0
   51.0946  159.7197   29.8282 H   0  0  0  0  0  0  0  0  0  0  0  0
   52.9452  157.4299   28.3127 H   0  0  0  0  0  0  0  0  0  0  0  0
   52.1909  151.1110   26.9007 H   0  0  0  0  0  0  0  0  0  0  0  0
   53.3862  149.7050   25.2202 H   0  0  0  0  0  0  0  0  0  0  0  0
   54.8631  150.7773   23.5166 H   0  0  0  0  0  0  0  0  0  0  0  0
   56.1760  152.9540   23.1670 H   0  0  0  0  0  0  0  0  0  0  0  0
   53.3360  157.6150   25.4470 H   0  0  0  0  0  0  0  0  0  0  0  0
   50.1596  154.1365   28.2912 H   0  0  0  0  0  0  0  0  0  0  0  0
   48.8192  155.2608   30.0511 H   0  0  0  0  0  0  0  0  0  0  0  0
   48.2428  157.1972   31.1869 H   0  0  0  0  0  0  0  0  0  0  0  0
   49.7452  157.4233   32.2268 H   0  0  0  0  0  0  0  0  0  0  0  0
   49.6079  159.4496   33.2685 H   0  0  0  0  0  0  0  0  0  0  0  0
   49.3642  161.9243   33.1536 H   0  0  0  0  0  0  0  0  0  0  0  0
   48.7257  163.0207   31.0066 H   0  0  0  0  0  0  0  0  0  0  0  0
   48.3205  161.6341   28.9740 H   0  0  0  0  0  0  0  0  0  0  0  0
   48.5630  159.1580   29.0818 H   0  0  0  0  0  0  0  0  0  0  0  0
  1  2  1  0
  2  3  2  0
  3  4  1  0
  4  5  1  0
  5  6  1  0
  6  7  1  0
  7  8  2  0
  8  9  1  0
  9 10  2  0
 10 11  1  0
 11 12  1  0
 11 13  2  0
 13 14  1  0
 14 15  2  0
 14 16  1  0
 16 17  1  0
  4 18  2  0
 18 19  1  0
 19 20  2  0
 20 21  1  0
 21 22  1  0
 22 23  2  0
 23 24  1  0
 24 25  2  0
 25 26  1  0
 26 27  2  0
 20  2  1  0
 27 22  1  0
 16  5  2  0
 13  7  1  0
  1 28  1  0
  1 29  1  0
  1 30  1  0
  3 31  1  0
  8 32  1  0
  9 33  1  0
 10 34  1  0
 12 35  1  0
 17 36  1  0
 18 37  1  0
 19 38  1  0
 21 39  1  0
 21 40  1  0
 23 41  1  0
 24 42  1  0
 25 43  1  0
 26 44  1  0
 27 45  1  0
M  END
>  <meeko>  (5) 
{"is_sidechain": [false], "free_energy": -9.661, "intermolecular_energy": -12.274, "internal_energy": 0.864}

$$$$
cand_002_out
     RDKit          3D

 45 48  0  0  0  0  0  0  0  0999 V2000
   50.8610  159.9670   30.3980 C   0  0  0  0  0  0  0  0  0  0  0  0
   50.4560  158.5590   30.0580 C   0  0  0  0  0  0  0  0  0  0  0  0
   51.3310  157.7780   29.2790 C   0  0  0  0  0  0  0  0  0  0  0  0
   51.0160  156.4610   28.9080 C   0  0  0  0  0  0  0  0  0  0  0  0
   51.9570  155.6870   28.0700 C   0  0  0  0  0  0  0  0  0  0  0  0
   52.4880  156.4330   27.0240 O   0  0  0  0  0  0  0  0  0  0  0  0
   53.3770  155.8360   26.1680 C   0  0  0  0  0  0  0  0  0  0  0  0
   53.8740  156.6170   25.1240 C   0  0  0  0  0  0  0  0  0  0  0  0
   54.7840  156.0710   24.2170 C   0  0  0  0  0  0  0  0  0  0  0  0
   55.1970  154.7450   24.3540 C   0  0  0  0  0  0  0  0  0  0  0  0
   54.7000  153.9670   25.3960 C   0  0  0  0  0  0  0  0  0  0  0  0
   55.1470  152.6760   25.4710 O   0  0  0  0  0  0  0  0  0  0  0  0
   53.7880  154.5140   26.3030 C   0  0  0  0  0  0  0  0  0  0  0  0
   53.2420  153.7310   27.4120 C   0  0  0  0  0  0  0  0  0  0  0  0
   53.5620  152.5600   27.6020 O   0  0  0  0  0  0  0  0  0  0  0  0
   52.2760  154.4020   28.3130 C   0  0  0  0  0  0  0  0  0  0  0  0
   51.7770  153.6570   29.3660 O   0  0  0  0  0  0  0  0  0  0  0  0
   49.7870  155.9350   29.3140 C   0  0  0  0  0  0  0  0  0  0  0  0
   48.9020  156.6990   30.0760 C   0  0  0  0  0  0  0  0  0  0  0  0
   49.2180  158.0160   30.4560 C   0  0  0  0  0  0  0  0  0  0  0  0
   48.2050  158.7960   31.2760 C   0  0  0  0  0  0  0  0  0  0  0  0
   48.7280  160.0690   31.9060 C   0  0  0  0  0  0  0  0  0  0  0  0
   49.4470  160.0130   33.1090 C   0  0  0  0  0  0  0  0  0  0  0  0
   49.9130  161.1820   33.7150 C   0  0  0  0  0  0  0  0  0  0  0  0
   49.6590  162.4200   33.1300 C   0  0  0  0  0  0  0  0  0  0  0  0
   48.9340  162.4920   31.9420 C   0  0  0  0  0  0  0  0  0  0  0  0
   48.4680  161.3240   31.3350 C   0  0  0  0  0  0  0  0  0  0  0  0
   50.8949  160.0849   31.4911 H   0  0  0  0  0  0  0  0  0  0  0  0
   51.8553  160.1746   29.9758 H   0  0  0  0  0  0  0  0  0  0  0  0
   50.1290  160.6712   29.9758 H   0  0  0  0  0  0  0  0  0  0  0  0
   52.2876  158.2115   28.9521 H   0  0  0  0  0  0  0  0  0  0  0  0
   53.5490  157.6623   25.0157 H   0  0  0  0  0  0  0  0  0  0  0  0
   55.1758  156.6864   23.3937 H   0  0  0  0  0  0  0  0  0  0  0  0
   55.9144  154.3151   23.6395 H   0  0  0  0  0  0  0  0  0  0  0  0
   54.8160  152.0300   24.8790 H   0  0  0  0  0  0  0  0  0  0  0  0
   51.8830  153.9610   30.2470 H   0  0  0  0  0  0  0  0  0  0  0  0
   49.5141  154.9079   29.0301 H   0  0  0  0  0  0  0  0  0  0  0  0
   47.9402  156.2636   30.3850 H   0  0  0  0  0  0  0  0  0  0  0  0
   47.3662  159.0627   30.6162 H   0  0  0  0  0  0  0  0  0  0  0  0
   47.9169  158.1390   32.1099 H   0  0  0  0  0  0  0  0  0  0  0  0
   49.6458  159.0389   33.5798 H   0  0  0  0  0  0  0  0  0  0  0  0
   50.4811  161.1247   34.6552 H   0  0  0  0  0  0  0  0  0  0  0  0
   50.0302  163.3400   33.6051 H   0  0  0  0  0  0  0  0  0  0  0  0
   48.7286  163.4699   31.4820 H   0  0  0  0  0  0  0  0  0  0  0  0
   47.8916  161.3884   30.4003 H   0  0  0  0  0  0  0  0  0  0  0  0
  1  2  1  0
  2  3  2  0
  3  4  1  0
  4  5  1  0
  5  6  1  0
  6  7  1  0
  7  8  2  0
  8  9  1  0
  9 10  2  0
 10 11  1  0
 11 12  1  0
 11 13  2  0
 13 14  1  0
 14 15  2  0
 14 16  1  0
 16 17  1  0
  4 18  2  0
 18 19  1  0
 19 20  2  0
 20 21  1  0
 21 22  1  0
 22 23  2  0
 23 24  1  0
 24 25  2  0
 25 26  1  0
 26 27  2  0
 20  2  1  0
 27 22  1  0
 16  5  2  0
 13  7  1  0
  1 28  1  0
  1 29  1  0
  1 30  1  0
  3 31  1  0
  8 32  1  0
  9 33  1  0
 10 34  1  0
 12 35  1  0
 17 36  1  0
 18 37  1  0
 19 38  1  0
 21 39  1  0
 21 40  1  0
 23 41  1  0
 24 42  1  0
 25 43  1  0
 26 44  1  0
 27 45  1  0
M  END
>  <meeko>  (6) 
{"is_sidechain": [false], "free_energy": -9.416, "intermolecular_energy": -12.713, "internal_energy": 1.605}

$$$$
cand_002_out
     RDKit          3D

 45 48  0  0  0  0  0  0  0  0999 V2000
   49.5450  156.7620   30.4220 C   0  0  0  0  0  0  0  0  0  0  0  0
   50.8000  157.0160   29.6340 C   0  0  0  0  0  0  0  0  0  0  0  0
   51.2240  156.0410   28.7110 C   0  0  0  0  0  0  0  0  0  0  0  0
   52.3930  156.1990   27.9520 C   0  0  0  0  0  0  0  0  0  0  0  0
   52.8090  155.1370   27.0100 C   0  0  0  0  0  0  0  0  0  0  0  0
   52.3590  153.8770   27.3850 O   0  0  0  0  0  0  0  0  0  0  0  0
   52.6740  152.7980   26.5990 C   0  0  0  0  0  0  0  0  0  0  0  0
   52.2140  151.5500   27.0210 C   0  0  0  0  0  0  0  0  0  0  0  0
   52.4990  150.4110   26.2650 C   0  0  0  0  0  0  0  0  0  0  0  0
   53.2430  150.5200   25.0890 C   0  0  0  0  0  0  0  0  0  0  0  0
   53.7010  151.7660   24.6700 C   0  0  0  0  0  0  0  0  0  0  0  0
   54.4230  151.8000   23.5080 O   0  0  0  0  0  0  0  0  0  0  0  0
   53.4170  152.9050   25.4270 C   0  0  0  0  0  0  0  0  0  0  0  0
   53.8790  154.2340   25.0230 C   0  0  0  0  0  0  0  0  0  0  0  0
   54.5330  154.4110   23.9970 O   0  0  0  0  0  0  0  0  0  0  0  0
   53.5310  155.3760   25.8990 C   0  0  0  0  0  0  0  0  0  0  0  0
   53.9610  156.6290   25.5000 O   0  0  0  0  0  0  0  0  0  0  0  0
   53.1570  157.3530   28.1440 C   0  0  0  0  0  0  0  0  0  0  0  0
   52.7600  158.3250   29.0640 C   0  0  0  0  0  0  0  0  0  0  0  0
   51.5850  158.1720   29.8220 C   0  0  0  0  0  0  0  0  0  0  0  0
   51.2160  159.2620   30.8120 C   0  0  0  0  0  0  0  0  0  0  0  0
   49.7520  159.6490   30.8310 C   0  0  0  0  0  0  0  0  0  0  0  0
   49.2140  160.4130   29.7850 C   0  0  0  0  0  0  0  0  0  0  0  0
   47.8720  160.7990   29.8020 C   0  0  0  0  0  0  0  0  0  0  0  0
   47.0540  160.4330   30.8690 C   0  0  0  0  0  0  0  0  0  0  0  0
   47.5790  159.6860   31.9220 C   0  0  0  0  0  0  0  0  0  0  0  0
   48.9210  159.3000   31.9060 C   0  0  0  0  0  0  0  0  0  0  0  0
   49.7717  156.8079   31.4974 H   0  0  0  0  0  0  0  0  0  0  0  0
   48.7944  157.5264   30.1726 H   0  0  0  0  0  0  0  0  0  0  0  0
   49.1507  155.7658   30.1726 H   0  0  0  0  0  0  0  0  0  0  0  0
   50.6216  155.1298   28.5814 H   0  0  0  0  0  0  0  0  0  0  0  0
   51.6278  151.4635   27.9478 H   0  0  0  0  0  0  0  0  0  0  0  0
   52.1368  149.4267   26.5966 H   0  0  0  0  0  0  0  0  0  0  0  0
   53.4671  149.6224   24.4940 H   0  0  0  0  0  0  0  0  0  0  0  0
   55.3570  151.7320   23.5360 H   0  0  0  0  0  0  0  0  0  0  0  0
   53.8810  157.3590   26.0830 H   0  0  0  0  0  0  0  0  0  0  0  0
   54.0807  157.4971   27.5643 H   0  0  0  0  0  0  0  0  0  0  0  0
   53.3766  159.2260   29.1985 H   0  0  0  0  0  0  0  0  0  0  0  0
   51.4886  158.9132   31.8190 H   0  0  0  0  0  0  0  0  0  0  0  0
   51.7646  160.1608   30.4940 H   0  0  0  0  0  0  0  0  0  0  0  0
   49.8556  160.7111   28.9427 H   0  0  0  0  0  0  0  0  0  0  0  0
   47.4603  161.3925   28.9724 H   0  0  0  0  0  0  0  0  0  0  0  0
   45.9958  160.7331   30.8802 H   0  0  0  0  0  0  0  0  0  0  0  0
   46.9353  159.4001   32.7669 H   0  0  0  0  0  0  0  0  0  0  0  0
   49.3303  158.7169   32.7441 H   0  0  0  0  0  0  0  0  0  0  0  0
  1  2  1  0
  2  3  2  0
  3  4  1  0
  4  5  1  0
  5  6  1  0
  6  7  1  0
  7  8  2  0
  8  9  1  0
  9 10  2  0
 10 11  1  0
 11 12  1  0
 11 13  2  0
 13 14  1  0
 14 15  2  0
 14 16  1  0
 16 17  1  0
  4 18  2  0
 18 19  1  0
 19 20  2  0
 20 21  1  0
 21 22  1  0
 22 23  2  0
 23 24  1  0
 24 25  2  0
 25 26  1  0
 26 27  2  0
 20  2  1  0
 27 22  1  0
 16  5  2  0
 13  7  1  0
  1 28  1  0
  1 29  1  0
  1 30  1  0
  3 31  1  0
  8 32  1  0
  9 33  1  0
 10 34  1  0
 12 35  1  0
 17 36  1  0
 18 37  1  0
 19 38  1  0
 21 39  1  0
 21 40  1  0
 23 41  1  0
 24 42  1  0
 25 43  1  0
 26 44  1  0
 27 45  1  0
M  END
>  <meeko>  (7) 
{"is_sidechain": [false], "free_energy": -9.238, "intermolecular_energy": -11.406, "internal_energy": 0.517}

$$$$
cand_002_out
     RDKit          3D

 45 48  0  0  0  0  0  0  0  0999 V2000
   51.5690  152.6820   29.2460 C   0  0  0  0  0  0  0  0  0  0  0  0
   51.9060  154.0690   28.7740 C   0  0  0  0  0  0  0  0  0  0  0  0
   51.3050  155.1650   29.4220 C   0  0  0  0  0  0  0  0  0  0  0  0
   51.5570  156.4880   29.0280 C   0  0  0  0  0  0  0  0  0  0  0  0
   50.8840  157.6050   29.7250 C   0  0  0  0  0  0  0  0  0  0  0  0
   51.7520  158.6420   30.0440 O   0  0  0  0  0  0  0  0  0  0  0  0
   51.2580  159.7450   30.6940 C   0  0  0  0  0  0  0  0  0  0  0  0
   52.1670  160.7560   31.0080 C   0  0  0  0  0  0  0  0  0  0  0  0
   51.7290  161.9060   31.6690 C   0  0  0  0  0  0  0  0  0  0  0  0
   50.3840  162.0440   32.0140 C   0  0  0  0  0  0  0  0  0  0  0  0
   49.4790  161.0340   31.7000 C   0  0  0  0  0  0  0  0  0  0  0  0
   48.1760  161.2360   32.0680 O   0  0  0  0  0  0  0  0  0  0  0  0
   49.9170  159.8830   31.0400 C   0  0  0  0  0  0  0  0  0  0  0  0
   49.0000  158.7980   30.6910 C   0  0  0  0  0  0  0  0  0  0  0  0
   47.8000  158.8500   30.9560 O   0  0  0  0  0  0  0  0  0  0  0  0
   49.5660  157.6180   29.9990 C   0  0  0  0  0  0  0  0  0  0  0  0
   48.6870  156.6040   29.6620 O   0  0  0  0  0  0  0  0  0  0  0  0
   52.4150  156.7050   27.9470 C   0  0  0  0  0  0  0  0  0  0  0  0
   53.0120  155.6300   27.2850 C   0  0  0  0  0  0  0  0  0  0  0  0
   52.7660  154.3040   27.6820 C   0  0  0  0  0  0  0  0  0  0  0  0
   53.4390  153.1810   26.9110 C   0  0  0  0  0  0  0  0  0  0  0  0
   53.9150  153.5460   25.5220 C   0  0  0  0  0  0  0  0  0  0  0  0
   53.7690  152.6330   24.4660 C   0  0  0  0  0  0  0  0  0  0  0  0
   54.2270  152.9460   23.1850 C   0  0  0  0  0  0  0  0  0  0  0  0
   54.8420  154.1730   22.9440 C   0  0  0  0  0  0  0  0  0  0  0  0
   55.0060  155.0840   23.9860 C   0  0  0  0  0  0  0  0  0  0  0  0
   54.5480  154.7710   25.2680 C   0  0  0  0  0  0  0  0  0  0  0  0
   51.5637  152.6601   30.3458 H   0  0  0  0  0  0  0  0  0  0  0  0
   50.5756  152.3976   28.8688 H   0  0  0  0  0  0  0  0  0  0  0  0
   52.3211  151.9735   28.8688 H   0  0  0  0  0  0  0  0  0  0  0  0
   50.6184  154.9789   30.2610 H   0  0  0  0  0  0  0  0  0  0  0  0
   53.2271  160.6475   30.7354 H   0  0  0  0  0  0  0  0  0  0  0  0
   52.4448  162.7033   31.9177 H   0  0  0  0  0  0  0  0  0  0  0  0
   50.0392  162.9501   32.5336 H   0  0  0  0  0  0  0  0  0  0  0  0
   47.9500  161.9660   32.6090 H   0  0  0  0  0  0  0  0  0  0  0  0
   48.1190  156.2420   30.3130 H   0  0  0  0  0  0  0  0  0  0  0  0
   52.6224  157.7327   27.6140 H   0  0  0  0  0  0  0  0  0  0  0  0
   53.6866  155.8242   26.4381 H   0  0  0  0  0  0  0  0  0  0  0  0
   54.3107  152.8448   27.4917 H   0  0  0  0  0  0  0  0  0  0  0  0
   52.6732  152.4030   26.7758 H   0  0  0  0  0  0  0  0  0  0  0  0
   53.2886  151.6606   24.6497 H   0  0  0  0  0  0  0  0  0  0  0  0
   54.1023  152.2234   22.3651 H   0  0  0  0  0  0  0  0  0  0  0  0
   55.1974  154.4221   21.9332 H   0  0  0  0  0  0  0  0  0  0  0  0
   55.4966  156.0505   23.7986 H   0  0  0  0  0  0  0  0  0  0  0  0
   54.6853  155.4929   26.0865 H   0  0  0  0  0  0  0  0  0  0  0  0
  1  2  1  0
  2  3  2  0
  3  4  1  0
  4  5  1  0
  5  6  1  0
  6  7  1  0
  7  8  2  0
  8  9  1  0
  9 10  2  0
 10 11  1  0
 11 12  1  0
 11 13  2  0
 13 14  1  0
 14 15  2  0
 14 16  1  0
 16 17  1  0
  4 18  2  0
 18 19  1  0
 19 20  2  0
 20 21  1  0
 21 22  1  0
 22 23  2  0
 23 24  1  0
 24 25  2  0
 25 26  1  0
 26 27  2  0
 20  2  1  0
 27 22  1  0
 16  5  2  0
 13  7  1  0
  1 28  1  0
  1 29  1  0
  1 30  1  0
  3 31  1  0
  8 32  1  0
  9 33  1  0
 10 34  1  0
 12 35  1  0
 17 36  1  0
 18 37  1  0
 19 38  1  0
 21 39  1  0
 21 40  1  0
 23 41  1  0
 24 42  1  0
 25 43  1  0
 26 44  1  0
 27 45  1  0
M  END
>  <meeko>  (8) 
{"is_sidechain": [false], "free_energy": -9.217, "intermolecular_energy": -11.274, "internal_energy": 0.412}

$$$$
cand_002_out
     RDKit          3D

 45 48  0  0  0  0  0  0  0  0999 V2000
   49.0240  158.2890   30.6840 C   0  0  0  0  0  0  0  0  0  0  0  0
   50.3840  158.1250   30.0630 C   0  0  0  0  0  0  0  0  0  0  0  0
   50.6690  156.9300   29.3750 C   0  0  0  0  0  0  0  0  0  0  0  0
   51.9190  156.6970   28.7830 C   0  0  0  0  0  0  0  0  0  0  0  0
   52.1790  155.4170   28.0900 C   0  0  0  0  0  0  0  0  0  0  0  0
   52.7760  155.5880   26.8470 O   0  0  0  0  0  0  0  0  0  0  0  0
   53.0730  154.4800   26.0940 C   0  0  0  0  0  0  0  0  0  0  0  0
   53.6590  154.6990   24.8470 C   0  0  0  0  0  0  0  0  0  0  0  0
   53.9870  153.6150   24.0310 C   0  0  0  0  0  0  0  0  0  0  0  0
   53.7310  152.3120   24.4630 C   0  0  0  0  0  0  0  0  0  0  0  0
   53.1470  152.0960   25.7080 C   0  0  0  0  0  0  0  0  0  0  0  0
   52.9240  150.7940   26.0690 O   0  0  0  0  0  0  0  0  0  0  0  0
   52.8170  153.1820   26.5230 C   0  0  0  0  0  0  0  0  0  0  0  0
   52.2020  152.9990   27.8390 C   0  0  0  0  0  0  0  0  0  0  0  0
   51.9520  151.8830   28.2910 O   0  0  0  0  0  0  0  0  0  0  0  0
   51.8840  154.2150   28.6220 C   0  0  0  0  0  0  0  0  0  0  0  0
   51.3160  154.0300   29.8690 O   0  0  0  0  0  0  0  0  0  0  0  0
   52.9050  157.6790   28.9080 C   0  0  0  0  0  0  0  0  0  0  0  0
   52.6440  158.8650   29.5980 C   0  0  0  0  0  0  0  0  0  0  0  0
   51.3900  159.1050   30.1850 C   0  0  0  0  0  0  0  0  0  0  0  0
   51.1760  160.4110   30.9300 C   0  0  0  0  0  0  0  0  0  0  0  0
   52.3960  161.3010   31.0350 C   0  0  0  0  0  0  0  0  0  0  0  0
   52.6490  162.2650   30.0490 C   0  0  0  0  0  0  0  0  0  0  0  0
   53.7830  163.0760   30.1200 C   0  0  0  0  0  0  0  0  0  0  0  0
   54.6830  162.9270   31.1730 C   0  0  0  0  0  0  0  0  0  0  0  0
   54.4510  161.9640   32.1530 C   0  0  0  0  0  0  0  0  0  0  0  0
   53.3170  161.1530   32.0830 C   0  0  0  0  0  0  0  0  0  0  0  0
   49.1176  158.2777   31.7800 H   0  0  0  0  0  0  0  0  0  0  0  0
   48.5874  159.2463   30.3631 H   0  0  0  0  0  0  0  0  0  0  0  0
   48.3724  157.4629   30.3631 H   0  0  0  0  0  0  0  0  0  0  0  0
   49.8895  156.1575   29.2997 H   0  0  0  0  0  0  0  0  0  0  0  0
   53.8624  155.7252   24.5071 H   0  0  0  0  0  0  0  0  0  0  0  0
   54.4475  153.7873   23.0470 H   0  0  0  0  0  0  0  0  0  0  0  0
   53.9904  151.4576   23.8205 H   0  0  0  0  0  0  0  0  0  0  0  0
   53.0290  150.5310   26.9620 H   0  0  0  0  0  0  0  0  0  0  0  0
   50.6560  153.3750   29.9900 H   0  0  0  0  0  0  0  0  0  0  0  0
   53.8959  157.5166   28.4589 H   0  0  0  0  0  0  0  0  0  0  0  0
   53.4345  159.6251   29.6835 H   0  0  0  0  0  0  0  0  0  0  0  0
   50.3876  160.9744   30.4094 H   0  0  0  0  0  0  0  0  0  0  0  0
   50.9107  160.1341   31.9610 H   0  0  0  0  0  0  0  0  0  0  0  0
   51.9467  162.3835   29.2107 H   0  0  0  0  0  0  0  0  0  0  0  0
   53.9662  163.8335   29.3437 H   0  0  0  0  0  0  0  0  0  0  0  0
   55.5749  163.5683   31.2306 H   0  0  0  0  0  0  0  0  0  0  0  0
   55.1625  161.8427   32.9831 H   0  0  0  0  0  0  0  0  0  0  0  0
   53.1438  160.3906   32.8568 H   0  0  0  0  0  0  0  0  0  0  0  0
  1  2  1  0
  2  3  2  0
  3  4  1  0
  4  5  1  0
  5  6  1  0
  6  7  1  0
  7  8  2  0
  8  9  1  0
  9 10  2  0
 10 11  1  0
 11 12  1  0
 11 13  2  0
 13 14  1  0
 14 15  2  0
 14 16  1  0
 16 17  1  0
  4 18  2  0
 18 19  1  0
 19 20  2  0
 20 21  1  0
 21 22  1  0
 22 23  2  0
 23 24  1  0
 24 25  2  0
 25 26  1  0
 26 27  2  0
 20  2  1  0
 27 22  1  0
 16  5  2  0
 13  7  1  0
  1 28  1  0
  1 29  1  0
  1 30  1  0
  3 31  1  0
  8 32  1  0
  9 33  1  0
 10 34  1  0
 12 35  1  0
 17 36  1  0
 18 37  1  0
 19 38  1  0
 21 39  1  0
 21 40  1  0
 23 41  1  0
 24 42  1  0
 25 43  1  0
 26 44  1  0
 27 45  1  0
M  END
>  <meeko>  (9) 
{"is_sidechain": [false], "free_energy": -9.176, "intermolecular_energy": -10.406, "internal_energy": -0.406}

$$$$
