cand_046_out
     RDKit          3D

 39 41  0  0  0  0  0  0  0  0999 V2000
   52.7230  161.4390   31.5430 C   0  0  0  0  0  0  0  0  0  0  0  0
   52.0270  161.1040   30.4490 C   0  0  0  0  0  0  0  0  0  0  0  0
   51.2310  159.8720   30.3470 C   0  0  0  0  0  0  0  0  0  0  0  0
   51.7780  158.7590   29.6820 C   0  0  0  0  0  0  0  0  0  0  0  0
   51.0840  157.5440   29.5820 C   0  0  0  0  0  0  0  0  0  0  0  0
   51.6870  156.4110   28.8470 C   0  0  0  0  0  0  0  0  0  0  0  0
   52.2610  156.7950   27.6400 O   0  0  0  0  0  0  0  0  0  0  0  0
   52.8590  155.8410   26.8570 C   0  0  0  0  0  0  0  0  0  0  0  0
   53.4100  156.2690   25.6490 C   0  0  0  0  0  0  0  0  0  0  0  0
   54.0350  155.3480   24.8040 C   0  0  0  0  0  0  0  0  0  0  0  0
   54.1110  154.0030   25.1690 C   0  0  0  0  0  0  0  0  0  0  0  0
   53.5600  153.5790   26.3760 C   0  0  0  0  0  0  0  0  0  0  0  0
   53.6690  152.2470   26.6710 O   0  0  0  0  0  0  0  0  0  0  0  0
   52.9330  154.5000   27.2200 C   0  0  0  0  0  0  0  0  0  0  0  0
   52.3420  154.0970   28.4970 C   0  0  0  0  0  0  0  0  0  0  0  0
   52.3730  152.9330   28.8900 O   0  0  0  0  0  0  0  0  0  0  0  0
   51.6960  155.1490   29.3140 C   0  0  0  0  0  0  0  0  0  0  0  0
   51.1530  154.7610   30.5250 O   0  0  0  0  0  0  0  0  0  0  0  0
   49.8130  157.4560   30.1560 C   0  0  0  0  0  0  0  0  0  0  0  0
   49.2580  158.5480   30.8280 C   0  0  0  0  0  0  0  0  0  0  0  0
   49.9540  159.7650   30.9330 C   0  0  0  0  0  0  0  0  0  0  0  0
   49.2960  160.9030   31.6820 C   0  0  0  0  0  0  0  0  0  0  0  0
   49.2900  160.6670   33.1850 C   0  0  0  0  0  0  0  0  0  0  0  0
   53.3012  162.3746   31.5620 H   0  0  0  0  0  0  0  0  0  0  0  0
   52.7165  160.7785   32.4226 H   0  0  0  0  0  0  0  0  0  0  0  0
   52.0521  161.7837   29.5845 H   0  0  0  0  0  0  0  0  0  0  0  0
   52.7765  158.8440   29.2284 H   0  0  0  0  0  0  0  0  0  0  0  0
   53.3526  157.3294   25.3622 H   0  0  0  0  0  0  0  0  0  0  0  0
   54.4676  155.6835   23.8499 H   0  0  0  0  0  0  0  0  0  0  0  0
   54.6052  153.2790   24.5045 H   0  0  0  0  0  0  0  0  0  0  0  0
   52.9410  151.6750   26.5270 H   0  0  0  0  0  0  0  0  0  0  0  0
   50.2460  154.9170   30.7030 H   0  0  0  0  0  0  0  0  0  0  0  0
   49.2439  156.5179   30.0780 H   0  0  0  0  0  0  0  0  0  0  0  0
   48.2605  158.4540   31.2822 H   0  0  0  0  0  0  0  0  0  0  0  0
   49.8454  161.8322   31.4705 H   0  0  0  0  0  0  0  0  0  0  0  0
   48.2514  160.9732   31.3446 H   0  0  0  0  0  0  0  0  0  0  0  0
   49.3146  161.6343   33.7081 H   0  0  0  0  0  0  0  0  0  0  0  0
   48.3777  160.1209   33.4668 H   0  0  0  0  0  0  0  0  0  0  0  0
   50.1734  160.0752   33.4668 H   0  0  0  0  0  0  0  0  0  0  0  0
  1  2  2  0
  2  3  1  0
  3  4  2  0
  4  5  1  0
  5  6  1  0
  6  7  1  0
  7  8  1  0
  8  9  2  0
  9 10  1  0
 10 11  2  0
 11 12  1  0
 12 13  1  0
 12 14  2  0
 14 15  1  0
 15 16  2  0
 15 17  1  0
 17 18  1  0
  5 19  2  0
 19 20  1  0
 20 21  2  0
 21 22  1  0
 22 23  1  0
 21  3  1  0
 17  6  2  0
 14  8  1  0
  1 24  1  0
  1 25  1  0
  2 26  1  0
  4 27  1  0
  9 28  1  0
 10 29  1  0
 11 30  1  0
 13 31  1  0
 18 32  1  0
 19 33  1  0
 20 34  1  0
 22 35  1  0
 22 36  1  0
 23 37  1  0
 23 38  1  0
 23 39  1  0
M  END
>  <meeko>  (1) 
{"is_sidechain": [false], "free_energy": -10.549, "intermolecular_energy": -13.016, "internal_energy": -0.335}

$$$$
cand_046_out
     RDKit          3D

 39 41  0  0  0  0  0  0  0  0999 V2000
   47.2910  159.6940   30.8020 C   0  0  0  0  0  0  0  0  0  0  0  0
   48.2460  158.8710   31.2510 C   0  0  0  0  0  0  0  0  0  0  0  0
   49.6310  158.8990   30.7580 C   0  0  0  0  0  0  0  0  0  0  0  0
   50.1180  157.7990   30.0290 C   0  0  0  0  0  0  0  0  0  0  0  0
   51.4180  157.7800   29.5010 C   0  0  0  0  0  0  0  0  0  0  0  0
   51.8970  156.5880   28.7670 C   0  0  0  0  0  0  0  0  0  0  0  0
   52.4870  156.9060   27.5500 O   0  0  0  0  0  0  0  0  0  0  0  0
   52.9780  155.8930   26.7670 C   0  0  0  0  0  0  0  0  0  0  0  0
   53.5500  156.2560   25.5470 C   0  0  0  0  0  0  0  0  0  0  0  0
   54.0710  155.2730   24.7010 C   0  0  0  0  0  0  0  0  0  0  0  0
   54.0210  153.9300   25.0770 C   0  0  0  0  0  0  0  0  0  0  0  0
   53.4500  153.5700   26.2950 C   0  0  0  0  0  0  0  0  0  0  0  0
   53.4340  152.2360   26.6000 O   0  0  0  0  0  0  0  0  0  0  0  0
   52.9280  154.5540   27.1390 C   0  0  0  0  0  0  0  0  0  0  0  0
   52.3200  154.2190   28.4280 C   0  0  0  0  0  0  0  0  0  0  0  0
   52.2440  153.0600   28.8300 O   0  0  0  0  0  0  0  0  0  0  0  0
   51.7900  155.3340   29.2460 C   0  0  0  0  0  0  0  0  0  0  0  0
   51.2310  155.0090   30.4670 O   0  0  0  0  0  0  0  0  0  0  0  0
   52.2400  158.8880   29.7220 C   0  0  0  0  0  0  0  0  0  0  0  0
   51.7700  159.9930   30.4350 C   0  0  0  0  0  0  0  0  0  0  0  0
   50.4670  160.0150   30.9610 C   0  0  0  0  0  0  0  0  0  0  0  0
   50.0210  161.2480   31.7160 C   0  0  0  0  0  0  0  0  0  0  0  0
   49.9250  160.9960   33.2140 C   0  0  0  0  0  0  0  0  0  0  0  0
   46.2711  159.6268   31.2087 H   0  0  0  0  0  0  0  0  0  0  0  0
   47.5259  160.4377   30.0263 H   0  0  0  0  0  0  0  0  0  0  0  0
   47.9819  158.1375   32.0270 H   0  0  0  0  0  0  0  0  0  0  0  0
   49.4623  156.9305   29.8685 H   0  0  0  0  0  0  0  0  0  0  0  0
   53.5908  157.3148   25.2514 H   0  0  0  0  0  0  0  0  0  0  0  0
   54.5206  155.5580   23.7384 H   0  0  0  0  0  0  0  0  0  0  0  0
   54.4323  153.1564   24.4118 H   0  0  0  0  0  0  0  0  0  0  0  0
   54.1150  151.6760   26.2860 H   0  0  0  0  0  0  0  0  0  0  0  0
   51.7110  154.4830   31.0770 H   0  0  0  0  0  0  0  0  0  0  0  0
   53.2679  158.8900   29.3304 H   0  0  0  0  0  0  0  0  0  0  0  0
   52.4300  160.8597   30.5873 H   0  0  0  0  0  0  0  0  0  0  0  0
   50.7464  162.0554   31.5375 H   0  0  0  0  0  0  0  0  0  0  0  0
   49.0201  161.5248   31.3533 H   0  0  0  0  0  0  0  0  0  0  0  0
   50.2652  161.8891   33.7586 H   0  0  0  0  0  0  0  0  0  0  0  0
   48.8809  160.7781   33.4830 H   0  0  0  0  0  0  0  0  0  0  0  0
   50.5595  160.1386   33.4830 H   0  0  0  0  0  0  0  0  0  0  0  0
  1  2  2  0
  2  3  1  0
  3  4  2  0
  4  5  1  0
  5  6  1  0
  6  7  1  0
  7  8  1  0
  8  9  2  0
  9 10  1  0
 10 11  2  0
 11 12  1  0
 12 13  1  0
 12 14  2  0
 14 15  1  0
 15 16  2  0
 15 17  1  0
 17 18  1  0
  5 19  2  0
 19 20  1  0
 20 21  2  0
 21 22  1  0
 22 23  1  0
 21  3  1  0
 17  6  2  0
 14  8  1  0
  1 24  1  0
  1 25  1  0
  2 26  1  0
  4 27  1  0
  9 28  1  0
 10 29  1  0
 11 30  1  0
 13 31  1  0
 18 32  1  0
 19 33  1  0
 20 34  1  0
 22 35  1  0
 22 36  1  0
 23 37  1  0
 23 38  1  0
 23 39  1  0
M  END
>  <meeko>  (2) 
{"is_sidechain": [false], "free_energy": -10.391, "intermolecular_energy": -13.187, "internal_energy": 0.031}

$$$$
cand_046_out
     RDKit          3D

 39 41  0  0  0  0  0  0  0  0999 V2000
   54.1310  156.5210   24.9910 C   0  0  0  0  0  0  0  0  0  0  0  0
   53.6630  155.3490   25.4380 C   0  0  0  0  0  0  0  0  0  0  0  0
   52.9900  155.1920   26.7360 C   0  0  0  0  0  0  0  0  0  0  0  0
   52.5730  156.3420   27.4320 C   0  0  0  0  0  0  0  0  0  0  0  0
   51.8950  156.2590   28.6570 C   0  0  0  0  0  0  0  0  0  0  0  0
   51.5030  157.4960   29.3670 C   0  0  0  0  0  0  0  0  0  0  0  0
   50.1740  157.4870   29.7720 O   0  0  0  0  0  0  0  0  0  0  0  0
   49.6790  158.5740   30.4450 C   0  0  0  0  0  0  0  0  0  0  0  0
   48.3360  158.5290   30.8210 C   0  0  0  0  0  0  0  0  0  0  0  0
   47.7690  159.6040   31.5120 C   0  0  0  0  0  0  0  0  0  0  0  0
   48.5450  160.7200   31.8270 C   0  0  0  0  0  0  0  0  0  0  0  0
   49.8860  160.7620   31.4520 C   0  0  0  0  0  0  0  0  0  0  0  0
   50.5880  161.8870   31.7920 O   0  0  0  0  0  0  0  0  0  0  0  0
   50.4510  159.6880   30.7600 C   0  0  0  0  0  0  0  0  0  0  0  0
   51.8560  159.6920   30.3460 C   0  0  0  0  0  0  0  0  0  0  0  0
   52.6040  160.6360   30.5930 O   0  0  0  0  0  0  0  0  0  0  0  0
   52.3570  158.5080   29.6120 C   0  0  0  0  0  0  0  0  0  0  0  0
   53.6880  158.5150   29.2390 O   0  0  0  0  0  0  0  0  0  0  0  0
   51.6400  154.9920   29.1900 C   0  0  0  0  0  0  0  0  0  0  0  0
   52.0380  153.8400   28.5080 C   0  0  0  0  0  0  0  0  0  0  0  0
   52.7150  153.9210   27.2780 C   0  0  0  0  0  0  0  0  0  0  0  0
   53.1080  152.6330   26.5910 C   0  0  0  0  0  0  0  0  0  0  0  0
   52.0580  151.5470   26.7720 C   0  0  0  0  0  0  0  0  0  0  0  0
   54.6263  156.5775   24.0104 H   0  0  0  0  0  0  0  0  0  0  0  0
   54.0202  157.4274   25.6043 H   0  0  0  0  0  0  0  0  0  0  0  0
   53.7881  154.4596   24.8029 H   0  0  0  0  0  0  0  0  0  0  0  0
   52.7846  157.3328   27.0036 H   0  0  0  0  0  0  0  0  0  0  0  0
   47.7242  157.6488   30.5740 H   0  0  0  0  0  0  0  0  0  0  0  0
   46.7100  159.5700   31.8076 H   0  0  0  0  0  0  0  0  0  0  0  0
   48.0985  161.5656   32.3707 H   0  0  0  0  0  0  0  0  0  0  0  0
   50.5890  162.6280   31.2210 H   0  0  0  0  0  0  0  0  0  0  0  0
   54.2270  157.7690   29.4150 H   0  0  0  0  0  0  0  0  0  0  0  0
   51.1210  154.9015   30.1556 H   0  0  0  0  0  0  0  0  0  0  0  0
   51.8182  152.8526   28.9402 H   0  0  0  0  0  0  0  0  0  0  0  0
   53.2351  152.8284   25.5160 H   0  0  0  0  0  0  0  0  0  0  0  0
   54.0453  152.2783   27.0446 H   0  0  0  0  0  0  0  0  0  0  0  0
   51.8907  151.3740   27.8453 H   0  0  0  0  0  0  0  0  0  0  0  0
   51.1164  151.8652   26.3008 H   0  0  0  0  0  0  0  0  0  0  0  0
   52.4078  150.6166   26.3008 H   0  0  0  0  0  0  0  0  0  0  0  0
  1  2  2  0
  2  3  1  0
  3  4  2  0
  4  5  1  0
  5  6  1  0
  6  7  1  0
  7  8  1  0
  8  9  2  0
  9 10  1  0
 10 11  2  0
 11 12  1  0
 12 13  1  0
 12 14  2  0
 14 15  1  0
 15 16  2  0
 15 17  1  0
 17 18  1  0
  5 19  2  0
 19 20  1  0
 20 21  2  0
 21 22  1  0
 22 23  1  0
 21  3  1  0
 17  6  2  0
 14  8  1  0
  1 24  1  0
  1 25  1  0
  2 26  1  0
  4 27  1  0
  9 28  1  0
 10 29  1  0
 11 30  1  0
 13 31  1  0
 18 32  1  0
 19 33  1  0
 20 34  1  0
 22 35  1  0
 22 36  1  0
 23 37  1  0
 23 38  1  0
 23 39  1  0
M  END
>  <meeko>  (3) 
{"is_sidechain": [false], "free_energy": -9.993, "intermolecular_energy": -12.324, "internal_energy": -0.341}

$$$$
cand_046_out
     RDKit          3D

 39 41  0  0  0  0  0  0  0  0999 V2000
   54.1800  156.6860   25.1490 C   0  0  0  0  0  0  0  0  0  0  0  0
   53.4570  155.5900   25.4150 C   0  0  0  0  0  0  0  0  0  0  0  0
   52.8940  155.2980   26.7410 C   0  0  0  0  0  0  0  0  0  0  0  0
   52.2790  156.3360   27.4650 C   0  0  0  0  0  0  0  0  0  0  0  0
   51.6910  156.1140   28.7190 C   0  0  0  0  0  0  0  0  0  0  0  0
   51.0820  157.2420   29.4560 C   0  0  0  0  0  0  0  0  0  0  0  0
   51.9810  158.2740   29.7000 O   0  0  0  0  0  0  0  0  0  0  0  0
   51.5470  159.3860   30.3750 C   0  0  0  0  0  0  0  0  0  0  0  0
   52.4860  160.3910   30.6100 C   0  0  0  0  0  0  0  0  0  0  0  0
   52.1090  161.5510   31.2920 C   0  0  0  0  0  0  0  0  0  0  0  0
   50.7950  161.7060   31.7350 C   0  0  0  0  0  0  0  0  0  0  0  0
   49.8600  160.7010   31.5000 C   0  0  0  0  0  0  0  0  0  0  0  0
   48.5900  160.9170   31.9630 O   0  0  0  0  0  0  0  0  0  0  0  0
   50.2380  159.5400   30.8190 C   0  0  0  0  0  0  0  0  0  0  0  0
   49.2870  158.4600   30.5510 C   0  0  0  0  0  0  0  0  0  0  0  0
   48.1110  158.5260   30.9050 O   0  0  0  0  0  0  0  0  0  0  0  0
   49.7890  157.2700   29.8280 C   0  0  0  0  0  0  0  0  0  0  0  0
   48.8790  156.2620   29.5670 O   0  0  0  0  0  0  0  0  0  0  0  0
   51.7330  154.8230   29.2530 C   0  0  0  0  0  0  0  0  0  0  0  0
   52.3310  153.7790   28.5430 C   0  0  0  0  0  0  0  0  0  0  0  0
   52.9170  153.9980   27.2850 C   0  0  0  0  0  0  0  0  0  0  0  0
   53.5400  152.8200   26.5700 C   0  0  0  0  0  0  0  0  0  0  0  0
   52.5120  151.7480   26.2350 C   0  0  0  0  0  0  0  0  0  0  0  0
   54.5760  156.8512   24.1362 H   0  0  0  0  0  0  0  0  0  0  0  0
   54.3776  157.4207   25.9434 H   0  0  0  0  0  0  0  0  0  0  0  0
   53.2757  154.8730   24.6007 H   0  0  0  0  0  0  0  0  0  0  0  0
   52.2588  157.3487   27.0361 H   0  0  0  0  0  0  0  0  0  0  0  0
   53.5215  160.2704   30.2589 H   0  0  0  0  0  0  0  0  0  0  0  0
   52.8491  162.3429   31.4798 H   0  0  0  0  0  0  0  0  0  0  0  0
   50.4981  162.6206   32.2691 H   0  0  0  0  0  0  0  0  0  0  0  0
   48.3650  160.6760   32.8390 H   0  0  0  0  0  0  0  0  0  0  0  0
   48.6280  155.6700   30.2480 H   0  0  0  0  0  0  0  0  0  0  0  0
   51.2912  154.6273   30.2412 H   0  0  0  0  0  0  0  0  0  0  0  0
   52.3433  152.7680   28.9764 H   0  0  0  0  0  0  0  0  0  0  0  0
   54.0008  153.1745   25.6362 H   0  0  0  0  0  0  0  0  0  0  0  0
   54.2904  152.3741   27.2394 H   0  0  0  0  0  0  0  0  0  0  0  0
   52.1065  151.3251   27.1660 H   0  0  0  0  0  0  0  0  0  0  0  0
   51.6952  152.1938   25.6485 H   0  0  0  0  0  0  0  0  0  0  0  0
   52.9917  150.9505   25.6485 H   0  0  0  0  0  0  0  0  0  0  0  0
  1  2  2  0
  2  3  1  0
  3  4  2  0
  4  5  1  0
  5  6  1  0
  6  7  1  0
  7  8  1  0
  8  9  2  0
  9 10  1  0
 10 11  2  0
 11 12  1  0
 12 13  1  0
 12 14  2  0
 14 15  1  0
 15 16  2  0
 15 17  1  0
 17 18  1  0
  5 19  2  0
 19 20  1  0
 20 21  2  0
 21 22  1  0
 22 23  1  0
 21  3  1  0
 17  6  2  0
 14  8  1  0
  1 24  1  0
  1 25  1  0
  2 26  1  0
  4 27  1  0
  9 28  1  0
 10 29  1  0
 11 30  1  0
 13 31  1  0
 18 32  1  0
 19 33  1  0
 20 34  1  0
 22 35  1  0
 22 36  1  0
 23 37  1  0
 23 38  1  0
 23 39  1  0
M  END
>  <meeko>  (4) 
{"is_sidechain": [false], "free_energy": -9.091, "intermolecular_energy": -11.044, "internal_energy": -0.508}

$$$$
cand_046_out
     RDKit          3D

 39 41  0  0  0  0  0  0  0  0999 V2000
   51.6420  152.3850   28.0350 C   0  0  0  0  0  0  0  0  0  0  0  0
   51.9770  153.3930   28.8510 C   0  0  0  0  0  0  0  0  0  0  0  0
   52.1840  154.7720   28.3850 C   0  0  0  0  0  0  0  0  0  0  0  0
   51.7280  155.8380   29.1830 C   0  0  0  0  0  0  0  0  0  0  0  0
   51.9270  157.1760   28.8120 C   0  0  0  0  0  0  0  0  0  0  0  0
   51.4030  158.2620   29.6670 C   0  0  0  0  0  0  0  0  0  0  0  0
   50.0660  158.0860   30.0050 O   0  0  0  0  0  0  0  0  0  0  0  0
   49.4540  159.0220   30.7980 C   0  0  0  0  0  0  0  0  0  0  0  0
   48.1080  158.8120   31.1010 C   0  0  0  0  0  0  0  0  0  0  0  0
   47.4240  159.7270   31.9060 C   0  0  0  0  0  0  0  0  0  0  0  0
   48.0870  160.8480   32.4080 C   0  0  0  0  0  0  0  0  0  0  0  0
   49.4300  161.0550   32.1040 C   0  0  0  0  0  0  0  0  0  0  0  0
   50.0170  162.1750   32.6290 O   0  0  0  0  0  0  0  0  0  0  0  0
   50.1120  160.1400   31.2980 C   0  0  0  0  0  0  0  0  0  0  0  0
   51.5250  160.3200   30.9550 C   0  0  0  0  0  0  0  0  0  0  0  0
   52.1770  161.2780   31.3630 O   0  0  0  0  0  0  0  0  0  0  0  0
   52.1540  159.2970   30.0890 C   0  0  0  0  0  0  0  0  0  0  0  0
   53.4910  159.4680   29.7830 O   0  0  0  0  0  0  0  0  0  0  0  0
   52.5910  157.4390   27.6100 C   0  0  0  0  0  0  0  0  0  0  0  0
   53.0590  156.3940   26.8110 C   0  0  0  0  0  0  0  0  0  0  0  0
   52.8640  155.0520   27.1830 C   0  0  0  0  0  0  0  0  0  0  0  0
   53.4050  153.9710   26.2740 C   0  0  0  0  0  0  0  0  0  0  0  0
   53.1740  154.2940   24.8050 C   0  0  0  0  0  0  0  0  0  0  0  0
   51.5002  151.3726   28.4411 H   0  0  0  0  0  0  0  0  0  0  0  0
   51.5087  152.5696   26.9588 H   0  0  0  0  0  0  0  0  0  0  0  0
   52.1035  153.1785   29.9225 H   0  0  0  0  0  0  0  0  0  0  0  0
   51.2014  155.6158   30.1229 H   0  0  0  0  0  0  0  0  0  0  0  0
   47.5862  157.9275   30.7068 H   0  0  0  0  0  0  0  0  0  0  0  0
   46.3626  159.5637   32.1441 H   0  0  0  0  0  0  0  0  0  0  0  0
   47.5491  161.5672   33.0431 H   0  0  0  0  0  0  0  0  0  0  0  0
   50.6850  162.0910   33.2790 H   0  0  0  0  0  0  0  0  0  0  0  0
   54.0370  158.7210   29.6340 H   0  0  0  0  0  0  0  0  0  0  0  0
   52.7463  158.4800   27.2905 H   0  0  0  0  0  0  0  0  0  0  0  0
   53.5890  156.6243   25.8750 H   0  0  0  0  0  0  0  0  0  0  0  0
   54.4860  153.8676   26.4493 H   0  0  0  0  0  0  0  0  0  0  0  0
   52.8736  153.0357   26.5042 H   0  0  0  0  0  0  0  0  0  0  0  0
   52.5360  155.1862   24.7217 H   0  0  0  0  0  0  0  0  0  0  0  0
   54.1401  154.4871   24.3157 H   0  0  0  0  0  0  0  0  0  0  0  0
   52.6790  153.4422   24.3157 H   0  0  0  0  0  0  0  0  0  0  0  0
  1  2  2  0
  2  3  1  0
  3  4  2  0
  4  5  1  0
  5  6  1  0
  6  7  1  0
  7  8  1  0
  8  9  2  0
  9 10  1  0
 10 11  2  0
 11 12  1  0
 12 13  1  0
 12 14  2  0
 14 15  1  0
 15 16  2  0
 15 17  1  0
 17 18  1  0
  5 19  2  0
 19 20  1  0
 20 21  2  0
 21 22  1  0
 22 23  1  0
 21  3  1  0
 17  6  2  0
 14  8  1  0
  1 24  1  0
  1 25  1  0
  2 26  1  0
  4 27  1  0
  9 28  1  0
 10 29  1  0
 11 30  1  0
 13 31  1  0
 18 32  1  0
 19 33  1  0
 20 34  1  0
 22 35  1  0
 22 36  1  0
 23 37  1  0
 23 38  1  0
 23 39  1  0
M  END
>  <meeko>  (5) 
{"is_sidechain": [false], "free_energy": -8.627, "intermolecular_energy": -11.137, "internal_energy": 0.158}

$$$$
cand_046_out
     RDKit          3D

 39 41  0  0  0  0  0  0  0  0999 V2000
   51.2510  160.4580   30.0740 C   0  0  0  0  0  0  0  0  0  0  0  0
   51.9160  159.2970   30.1040 C   0  0  0  0  0  0  0  0  0  0  0  0
   51.3180  158.0150   29.7020 C   0  0  0  0  0  0  0  0  0  0  0  0
   52.0110  157.1930   28.7930 C   0  0  0  0  0  0  0  0  0  0  0  0
   51.5110  155.9440   28.3980 C   0  0  0  0  0  0  0  0  0  0  0  0
   52.2590  155.1280   27.4180 C   0  0  0  0  0  0  0  0  0  0  0  0
   51.9440  153.7760   27.4890 O   0  0  0  0  0  0  0  0  0  0  0  0
   52.5660  152.9040   26.6330 C   0  0  0  0  0  0  0  0  0  0  0  0
   52.2300  151.5550   26.7480 C   0  0  0  0  0  0  0  0  0  0  0  0
   52.8260  150.6140   25.9040 C   0  0  0  0  0  0  0  0  0  0  0  0
   53.7540  151.0230   24.9460 C   0  0  0  0  0  0  0  0  0  0  0  0
   54.0880  152.3700   24.8320 C   0  0  0  0  0  0  0  0  0  0  0  0
   55.0060  152.7010   23.8720 O   0  0  0  0  0  0  0  0  0  0  0  0
   53.4930  153.3110   25.6780 C   0  0  0  0  0  0  0  0  0  0  0  0
   53.8140  154.7360   25.5920 C   0  0  0  0  0  0  0  0  0  0  0  0
   54.6180  155.1740   24.7700 O   0  0  0  0  0  0  0  0  0  0  0  0
   53.1340  155.6500   26.5370 C   0  0  0  0  0  0  0  0  0  0  0  0
   53.4340  156.9960   26.4380 O   0  0  0  0  0  0  0  0  0  0  0  0
   50.2860  155.5230   28.9240 C   0  0  0  0  0  0  0  0  0  0  0  0
   49.5890  156.3220   29.8330 C   0  0  0  0  0  0  0  0  0  0  0  0
   50.0910  157.5720   30.2340 C   0  0  0  0  0  0  0  0  0  0  0  0
   49.2880  158.3800   31.2280 C   0  0  0  0  0  0  0  0  0  0  0  0
   48.0400  158.9830   30.5980 C   0  0  0  0  0  0  0  0  0  0  0  0
   51.7510  161.3865   30.3870 H   0  0  0  0  0  0  0  0  0  0  0  0
   50.2044  160.4838   29.7364 H   0  0  0  0  0  0  0  0  0  0  0  0
   52.9614  159.3019   30.4462 H   0  0  0  0  0  0  0  0  0  0  0  0
   52.9704  157.5399   28.3817 H   0  0  0  0  0  0  0  0  0  0  0  0
   51.4969  151.2323   27.5020 H   0  0  0  0  0  0  0  0  0  0  0  0
   52.5631  149.5498   25.9951 H   0  0  0  0  0  0  0  0  0  0  0  0
   54.2216  150.2819   24.2811 H   0  0  0  0  0  0  0  0  0  0  0  0
   55.5000  153.4930   23.9510 H   0  0  0  0  0  0  0  0  0  0  0  0
   53.0020  157.5260   25.7970 H   0  0  0  0  0  0  0  0  0  0  0  0
   49.8670  154.5528   28.6189 H   0  0  0  0  0  0  0  0  0  0  0  0
   48.6314  155.9672   30.2418 H   0  0  0  0  0  0  0  0  0  0  0  0
   48.9854  157.7235   32.0571 H   0  0  0  0  0  0  0  0  0  0  0  0
   49.9212  159.2058   31.5846 H   0  0  0  0  0  0  0  0  0  0  0  0
   47.3530  159.3149   31.3904 H   0  0  0  0  0  0  0  0  0  0  0  0
   48.3234  159.8436   29.9742 H   0  0  0  0  0  0  0  0  0  0  0  0
   47.5419  158.2262   29.9742 H   0  0  0  0  0  0  0  0  0  0  0  0
  1  2  2  0
  2  3  1  0
  3  4  2  0
  4  5  1  0
  5  6  1  0
  6  7  1  0
  7  8  1  0
  8  9  2  0
  9 10  1  0
 10 11  2  0
 11 12  1  0
 12 13  1  0
 12 14  2  0
 14 15  1  0
 15 16  2  0
 15 17  1  0
 17 18  1  0
  5 19  2  0
 19 20  1  0
 20 21  2  0
 21 22  1  0
 22 23  1  0
 21  3  1  0
 17  6  2  0
 14  8  1  0
  1 24  1  0
  1 25  1  0
  2 26  1  0
  4 27  1  0
  9 28  1  0
 10 29  1  0
 11 30  1  0
 13 31  1  0
 18 32  1  0
 19 33  1  0
 20 34  1  0
 22 35  1  0
 22 36  1  0
 23 37  1  0
 23 38  1  0
 23 39  1  0
M  END
>  <meeko>  (6) 
{"is_sidechain": [false], "free_energy": -8.561, "intermolecular_energy": -11.301, "internal_energy": 0.402}

$$$$
cand_046_out
     RDKit          3D

 39 41  0  0  0  0  0  0  0  0999 V2000
   51.6490  152.2560   27.7300 C   0  0  0  0  0  0  0  0  0  0  0  0
   52.0760  153.1860   28.5930 C   0  0  0  0  0  0  0  0  0  0  0  0
   52.2010  154.6100   28.2470 C   0  0  0  0  0  0  0  0  0  0  0  0
   51.5890  155.5700   29.0740 C   0  0  0  0  0  0  0  0  0  0  0  0
   51.7030  156.9440   28.8180 C   0  0  0  0  0  0  0  0  0  0  0  0
   51.0170  157.9160   29.6970 C   0  0  0  0  0  0  0  0  0  0  0  0
   51.8140  159.0080   30.0190 O   0  0  0  0  0  0  0  0  0  0  0  0
   51.3000  159.9890   30.8280 C   0  0  0  0  0  0  0  0  0  0  0  0
   52.1390  161.0600   31.1360 C   0  0  0  0  0  0  0  0  0  0  0  0
   51.6770  162.0940   31.9550 C   0  0  0  0  0  0  0  0  0  0  0  0
   50.3770  162.0570   32.4610 C   0  0  0  0  0  0  0  0  0  0  0  0
   49.5410  160.9870   32.1520 C   0  0  0  0  0  0  0  0  0  0  0  0
   48.2800  161.0130   32.6830 O   0  0  0  0  0  0  0  0  0  0  0  0
   50.0050  159.9520   31.3350 C   0  0  0  0  0  0  0  0  0  0  0  0
   49.1590  158.8090   30.9850 C   0  0  0  0  0  0  0  0  0  0  0  0
   48.0020  158.7080   31.3880 O   0  0  0  0  0  0  0  0  0  0  0  0
   49.7470  157.7630   30.1180 C   0  0  0  0  0  0  0  0  0  0  0  0
   48.9360  156.6950   29.7810 O   0  0  0  0  0  0  0  0  0  0  0  0
   52.4390  157.3540   27.7030 C   0  0  0  0  0  0  0  0  0  0  0  0
   53.0610  156.4140   26.8770 C   0  0  0  0  0  0  0  0  0  0  0  0
   52.9520  155.0370   27.1340 C   0  0  0  0  0  0  0  0  0  0  0  0
   53.6580  154.0770   26.2030 C   0  0  0  0  0  0  0  0  0  0  0  0
   53.2830  154.3140   24.7470 C   0  0  0  0  0  0  0  0  0  0  0  0
   51.5759  151.2048   28.0458 H   0  0  0  0  0  0  0  0  0  0  0  0
   51.3712  152.5429   26.7051 H   0  0  0  0  0  0  0  0  0  0  0  0
   52.3467  152.8696   29.6111 H   0  0  0  0  0  0  0  0  0  0  0  0
   51.0059  155.2339   29.9441 H   0  0  0  0  0  0  0  0  0  0  0  0
   53.1628  161.0907   30.7349 H   0  0  0  0  0  0  0  0  0  0  0  0
   52.3386  162.9376   32.2009 H   0  0  0  0  0  0  0  0  0  0  0  0
   50.0129  162.8724   33.1034 H   0  0  0  0  0  0  0  0  0  0  0  0
   47.5350  160.9090   32.1250 H   0  0  0  0  0  0  0  0  0  0  0  0
   48.0950  156.8490   29.3980 H   0  0  0  0  0  0  0  0  0  0  0  0
   52.5295  158.4260   27.4736 H   0  0  0  0  0  0  0  0  0  0  0  0
   53.6458  156.7579   26.0111 H   0  0  0  0  0  0  0  0  0  0  0  0
   54.7444  154.2076   26.3156 H   0  0  0  0  0  0  0  0  0  0  0  0
   53.3498  153.0556   26.4710 H   0  0  0  0  0  0  0  0  0  0  0  0
   52.3540  154.9011   24.6985 H   0  0  0  0  0  0  0  0  0  0  0  0
   54.0918  154.8653   24.2451 H   0  0  0  0  0  0  0  0  0  0  0  0
   53.1321  153.3469   24.2451 H   0  0  0  0  0  0  0  0  0  0  0  0
  1  2  2  0
  2  3  1  0
  3  4  2  0
  4  5  1  0
  5  6  1  0
  6  7  1  0
  7  8  1  0
  8  9  2  0
  9 10  1  0
 10 11  2  0
 11 12  1  0
 12 13  1  0
 12 14  2  0
 14 15  1  0
 15 16  2  0
 15 17  1  0
 17 18  1  0
  5 19  2  0
 19 20  1  0
 20 21  2  0
 21 22  1  0
 22 23  1  0
 21  3  1  0
 17  6  2  0
 14  8  1  0
  1 24  1  0
  1 25  1  0
  2 26  1  0
  4 27  1  0
  9 28  1  0
 10 29  1  0
 11 30  1  0
 13 31  1  0
 18 32  1  0
 19 33  1  0
 20 34  1  0
 22 35  1  0
 22 36  1  0
 23 37  1  0
 23 38  1  0
 23 39  1  0
M  END
>  <meeko>  (7) 
{"is_sidechain": [false], "free_energy": -8.025, "intermolecular_energy": -10.326, "internal_energy": 0.089}

$$$$
cand_046_out
     RDKit          3D

 39 41  0  0  0  0  0  0  0  0999 V2000
   51.2520  161.2190   30.4150 C   0  0  0  0  0  0  0  0  0  0  0  0
   51.5920  159.9940   30.8380 C   0  0  0  0  0  0  0  0  0  0  0  0
   50.9220  158.7690   30.3770 C   0  0  0  0  0  0  0  0  0  0  0  0
   51.6100  157.9020   29.5080 C   0  0  0  0  0  0  0  0  0  0  0  0
   51.0400  156.7000   29.0610 C   0  0  0  0  0  0  0  0  0  0  0  0
   51.7880  155.8350   28.1240 C   0  0  0  0  0  0  0  0  0  0  0  0
   51.4090  154.4990   28.2030 O   0  0  0  0  0  0  0  0  0  0  0  0
   52.0230  153.5860   27.3850 C   0  0  0  0  0  0  0  0  0  0  0  0
   51.6220  152.2560   27.5080 C   0  0  0  0  0  0  0  0  0  0  0  0
   52.2070  151.2740   26.7030 C   0  0  0  0  0  0  0  0  0  0  0  0
   53.1890  151.6250   25.7750 C   0  0  0  0  0  0  0  0  0  0  0  0
   53.5870  152.9540   25.6540 C   0  0  0  0  0  0  0  0  0  0  0  0
   54.5550  153.2270   24.7260 O   0  0  0  0  0  0  0  0  0  0  0  0
   53.0030  153.9340   26.4610 C   0  0  0  0  0  0  0  0  0  0  0  0
   53.3920  155.3430   26.3660 C   0  0  0  0  0  0  0  0  0  0  0  0
   54.2450  155.7300   25.5690 O   0  0  0  0  0  0  0  0  0  0  0  0
   52.7180  156.3020   27.2700 C   0  0  0  0  0  0  0  0  0  0  0  0
   53.0820  157.6310   27.1620 O   0  0  0  0  0  0  0  0  0  0  0  0
   49.7510  156.3750   29.4950 C   0  0  0  0  0  0  0  0  0  0  0  0
   49.0590  157.2190   30.3650 C   0  0  0  0  0  0  0  0  0  0  0  0
   49.6290  158.4220   30.8170 C   0  0  0  0  0  0  0  0  0  0  0  0
   48.8260  159.2840   31.7650 C   0  0  0  0  0  0  0  0  0  0  0  0
   47.4810  159.6790   31.1740 C   0  0  0  0  0  0  0  0  0  0  0  0
   51.7890  162.1007   30.7947 H   0  0  0  0  0  0  0  0  0  0  0  0
   50.4359  161.3430   29.6880 H   0  0  0  0  0  0  0  0  0  0  0  0
   52.4119  159.9002   31.5653 H   0  0  0  0  0  0  0  0  0  0  0  0
   52.6210  158.1735   29.1702 H   0  0  0  0  0  0  0  0  0  0  0  0
   50.8464  151.9799   28.2375 H   0  0  0  0  0  0  0  0  0  0  0  0
   51.8933  150.2242   26.8009 H   0  0  0  0  0  0  0  0  0  0  0  0
   53.6479  150.8528   25.1401 H   0  0  0  0  0  0  0  0  0  0  0  0
   55.4520  153.2830   24.9880 H   0  0  0  0  0  0  0  0  0  0  0  0
   53.1560  158.0290   26.3160 H   0  0  0  0  0  0  0  0  0  0  0  0
   49.2777  155.4449   29.1473 H   0  0  0  0  0  0  0  0  0  0  0  0
   48.0505  156.9381   30.7027 H   0  0  0  0  0  0  0  0  0  0  0  0
   48.6543  158.7236   32.6959 H   0  0  0  0  0  0  0  0  0  0  0  0
   49.3976  160.2044   31.9549 H   0  0  0  0  0  0  0  0  0  0  0  0
   46.7703  159.8877   31.9872 H   0  0  0  0  0  0  0  0  0  0  0  0
   47.6032  160.5792   30.5537 H   0  0  0  0  0  0  0  0  0  0  0  0
   47.0970  158.8557   30.5537 H   0  0  0  0  0  0  0  0  0  0  0  0
  1  2  2  0
  2  3  1  0
  3  4  2  0
  4  5  1  0
  5  6  1  0
  6  7  1  0
  7  8  1  0
  8  9  2  0
  9 10  1  0
 10 11  2  0
 11 12  1  0
 12 13  1  0
 12 14  2  0
 14 15  1  0
 15 16  2  0
 15 17  1  0
 17 18  1  0
  5 19  2  0
 19 20  1  0
 20 21  2  0
 21 22  1  0
 22 23  1  0
 21  3  1  0
 17  6  2  0
 14  8  1  0
  1 24  1  0
  1 25  1  0
  2 26  1  0
  4 27  1  0
  9 28  1  0
 10 29  1  0
 11 30  1  0
 13 31  1  0
 18 32  1  0
 19 33  1  0
 20 34  1  0
 22 35  1  0
 22 36  1  0
 23 37  1  0
 23 38  1  0
 23 39  1  0
M  END
>  <meeko>  (8) 
{"is_sidechain": [false], "free_energy": -7.743, "intermolecular_energy": -9.933, "internal_energy": 0.043}

$$$$
cand_046_out
     RDKit          3D

 39 41  0  0  0  0  0  0  0  0999 V2000
   48.1940  158.1520   30.0260 C   0  0  0  0  0  0  0  0  0  0  0  0
   49.1510  157.2430   30.2490 C   0  0  0  0  0  0  0  0  0  0  0  0
   50.4990  157.3330   29.6670 C   0  0  0  0  0  0  0  0  0  0  0  0
   50.9360  156.3170   28.7970 C   0  0  0  0  0  0  0  0  0  0  0  0
   52.1960  156.3630   28.1820 C   0  0  0  0  0  0  0  0  0  0  0  0
   52.6250  155.2570   27.2990 C   0  0  0  0  0  0  0  0  0  0  0  0
   52.1180  154.0240   27.6930 O   0  0  0  0  0  0  0  0  0  0  0  0
   52.4360  152.9110   26.9590 C   0  0  0  0  0  0  0  0  0  0  0  0
   51.9170  151.6930   27.3980 C   0  0  0  0  0  0  0  0  0  0  0  0
   52.2020  150.5200   26.6950 C   0  0  0  0  0  0  0  0  0  0  0  0
   53.0020  150.5660   25.5520 C   0  0  0  0  0  0  0  0  0  0  0  0
   53.5190  151.7830   25.1160 C   0  0  0  0  0  0  0  0  0  0  0  0
   54.2970  151.7570   23.9900 O   0  0  0  0  0  0  0  0  0  0  0  0
   53.2360  152.9560   25.8210 C   0  0  0  0  0  0  0  0  0  0  0  0
   53.7580  154.2560   25.3970 C   0  0  0  0  0  0  0  0  0  0  0  0
   54.4660  154.3780   24.3990 O   0  0  0  0  0  0  0  0  0  0  0  0
   53.4040  155.4370   26.2160 C   0  0  0  0  0  0  0  0  0  0  0  0
   53.8910  156.6620   25.7990 O   0  0  0  0  0  0  0  0  0  0  0  0
   53.0300  157.4500   28.4590 C   0  0  0  0  0  0  0  0  0  0  0  0
   52.6080  158.4720   29.3130 C   0  0  0  0  0  0  0  0  0  0  0  0
   51.3440  158.4290   29.9270 C   0  0  0  0  0  0  0  0  0  0  0  0
   50.9500  159.5740   30.8330 C   0  0  0  0  0  0  0  0  0  0  0  0
   51.9100  160.7490   30.7180 C   0  0  0  0  0  0  0  0  0  0  0  0
   47.2033  158.0324   30.4887 H   0  0  0  0  0  0  0  0  0  0  0  0
   48.3983  159.0186   29.3800 H   0  0  0  0  0  0  0  0  0  0  0  0
   48.9180  156.3869   30.8992 H   0  0  0  0  0  0  0  0  0  0  0  0
   50.2719  155.4640   28.5937 H   0  0  0  0  0  0  0  0  0  0  0  0
   51.2840  151.6562   28.2968 H   0  0  0  0  0  0  0  0  0  0  0  0
   51.7955  149.5588   27.0426 H   0  0  0  0  0  0  0  0  0  0  0  0
   53.2235  149.6425   24.9969 H   0  0  0  0  0  0  0  0  0  0  0  0
   55.0330  151.1790   23.9440 H   0  0  0  0  0  0  0  0  0  0  0  0
   54.2560  157.2580   26.4230 H   0  0  0  0  0  0  0  0  0  0  0  0
   54.0284  157.5012   28.0001 H   0  0  0  0  0  0  0  0  0  0  0  0
   53.2756  159.3242   29.5082 H   0  0  0  0  0  0  0  0  0  0  0  0
   49.9400  159.9126   30.5585 H   0  0  0  0  0  0  0  0  0  0  0  0
   50.9800  159.2114   31.8711 H   0  0  0  0  0  0  0  0  0  0  0  0
   52.1909  161.0928   31.7244 H   0  0  0  0  0  0  0  0  0  0  0  0
   52.8121  160.4335   30.1732 H   0  0  0  0  0  0  0  0  0  0  0  0
   51.4210  161.5700   30.1732 H   0  0  0  0  0  0  0  0  0  0  0  0
  1  2  2  0
  2  3  1  0
  3  4  2  0
  4  5  1  0
  5  6  1  0
  6  7  1  0
  7  8  1  0
  8  9  2  0
  9 10  1  0
 10 11  2  0
 11 12  1  0
 12 13  1  0
 12 14  2  0
 14 15  1  0
 15 16  2  0
 15 17  1  0
 17 18  1  0
  5 19  2  0
 19 20  1  0
 20 21  2  0
 21 22  1  0
 22 23  1  0
 21  3  1  0
 17  6  2  0
 14  8  1  0
  1 24  1  0
  1 25  1  0
  2 26  1  0
  4 27  1  0
  9 28  1  0
 10 29  1  0
 11 30  1  0
 13 31  1  0
 18 32  1  0
 19 33  1  0
 20 34  1  0
 22 35  1  0
 22 36  1  0
 23 37  1  0
 23 38  1  0
 23 39  1  0
M  END
>  <meeko>  (9) 
{"is_sidechain": [false], "free_energy": -7.648, "intermolecular_energy": -9.854, "internal_energy": 0.082}

$$$$
