cand_053_out
     RDKit          3D

 44 46  0  0  0  0  0  0  0  0999 V2000
   48.6890  161.5070   33.8340 C   0  0  0  0  0  0  0  0  0  0  0  0
   50.0150  161.1670   33.1720 C   0  0  0  0  0  0  0  0  0  0  0  0
   49.9360  161.3260   31.6530 C   0  0  0  0  0  0  0  0  0  0  0  0
   50.3630  160.0640   30.9340 C   0  0  0  0  0  0  0  0  0  0  0  0
   51.6500  160.0280   30.3690 C   0  0  0  0  0  0  0  0  0  0  0  0
   52.1150  158.8920   29.7030 C   0  0  0  0  0  0  0  0  0  0  0  0
   51.3120  157.7530   29.5900 C   0  0  0  0  0  0  0  0  0  0  0  0
   51.8100  156.5710   28.8550 C   0  0  0  0  0  0  0  0  0  0  0  0
   52.3980  156.9000   27.6390 O   0  0  0  0  0  0  0  0  0  0  0  0
   52.9030  155.8960   26.8520 C   0  0  0  0  0  0  0  0  0  0  0  0
   53.4700  156.2710   25.6330 C   0  0  0  0  0  0  0  0  0  0  0  0
   54.0040  155.2980   24.7850 C   0  0  0  0  0  0  0  0  0  0  0  0
   53.9730  153.9520   25.1570 C   0  0  0  0  0  0  0  0  0  0  0  0
   53.4070  153.5820   26.3740 C   0  0  0  0  0  0  0  0  0  0  0  0
   53.4090  152.2480   26.6760 O   0  0  0  0  0  0  0  0  0  0  0  0
   52.8710  154.5560   27.2220 C   0  0  0  0  0  0  0  0  0  0  0  0
   52.2670  154.2090   28.5090 C   0  0  0  0  0  0  0  0  0  0  0  0
   52.2100  153.0480   28.9090 O   0  0  0  0  0  0  0  0  0  0  0  0
   51.7210  155.3150   29.3290 C   0  0  0  0  0  0  0  0  0  0  0  0
   51.1650  154.9770   30.5500 O   0  0  0  0  0  0  0  0  0  0  0  0
   50.0280  157.7880   30.1500 C   0  0  0  0  0  0  0  0  0  0  0  0
   49.5430  158.9230   30.8340 C   0  0  0  0  0  0  0  0  0  0  0  0
   48.1420  158.8630   31.3990 C   0  0  0  0  0  0  0  0  0  0  0  0
   47.2320  159.9120   30.7780 C   0  0  0  0  0  0  0  0  0  0  0  0
   48.8066  161.4768   34.9273 H   0  0  0  0  0  0  0  0  0  0  0  0
   48.3736  162.5151   33.5268 H   0  0  0  0  0  0  0  0  0  0  0  0
   47.9275  160.7751   33.5268 H   0  0  0  0  0  0  0  0  0  0  0  0
   50.7930  161.8395   33.5625 H   0  0  0  0  0  0  0  0  0  0  0  0
   50.2568  160.1181   33.3987 H   0  0  0  0  0  0  0  0  0  0  0  0
   48.8988  161.5621   31.3729 H   0  0  0  0  0  0  0  0  0  0  0  0
   50.6188  162.1362   31.3575 H   0  0  0  0  0  0  0  0  0  0  0  0
   52.3020  160.9100   30.4530 H   0  0  0  0  0  0  0  0  0  0  0  0
   53.1231  158.8933   29.2629 H   0  0  0  0  0  0  0  0  0  0  0  0
   53.4963  157.3311   25.3406 H   0  0  0  0  0  0  0  0  0  0  0  0
   54.4494  155.5921   23.8232 H   0  0  0  0  0  0  0  0  0  0  0  0
   54.3949  153.1859   24.4898 H   0  0  0  0  0  0  0  0  0  0  0  0
   52.7250  151.8850   27.2040 H   0  0  0  0  0  0  0  0  0  0  0  0
   50.6040  155.5820   30.9920 H   0  0  0  0  0  0  0  0  0  0  0  0
   49.3792  156.9050   30.0536 H   0  0  0  0  0  0  0  0  0  0  0  0
   47.7216  157.8660   31.2010 H   0  0  0  0  0  0  0  0  0  0  0  0
   48.2023  159.0619   32.4792 H   0  0  0  0  0  0  0  0  0  0  0  0
   46.7352  160.4846   31.5751 H   0  0  0  0  0  0  0  0  0  0  0  0
   47.8298  160.5935   30.1549 H   0  0  0  0  0  0  0  0  0  0  0  0
   46.4729  159.4164   30.1549 H   0  0  0  0  0  0  0  0  0  0  0  0
  1  2  1  0
  2  3  1  0
  3  4  1  0
  4  5  2  0
  5  6  1  0
  6  7  2  0
  7  8  1  0
  8  9  1  0
  9 10  1  0
 10 11  2  0
 11 12  1  0
 12 13  2  0
 13 14  1  0
 14 15  1  0
 14 16  2  0
 16 17  1  0
 17 18  2  0
 17 19  1  0
 19 20  1  0
  7 21  1  0
 21 22  2  0
 22 23  1  0
 23 24  1  0
 22  4  1  0
 19  8  2  0
 16 10  1  0
  1 25  1  0
  1 26  1  0
  1 27  1  0
  2 28  1  0
  2 29  1  0
  3 30  1  0
  3 31  1  0
  5 32  1  0
  6 33  1  0
 11 34  1  0
 12 35  1  0
 13 36  1  0
 15 37  1  0
 20 38  1  0
 21 39  1  0
 23 40  1  0
 23 41  1  0
 24 42  1  0
 24 43  1  0
 24 44  1  0
M  END
>  <meeko>  (1) 
{"is_sidechain": [false], "free_energy": -10.83, "intermolecular_energy": -13.996, "internal_energy": -0.205}

$$$$
cand_053_out
     RDKit          3D

 44 46  0  0  0  0  0  0  0  0999 V2000
   49.5800  161.6640   33.8470 C   0  0  0  0  0  0  0  0  0  0  0  0
   49.1320  160.3860   33.1550 C   0  0  0  0  0  0  0  0  0  0  0  0
   49.0020  160.5860   31.6440 C   0  0  0  0  0  0  0  0  0  0  0  0
   49.7760  159.5400   30.8710 C   0  0  0  0  0  0  0  0  0  0  0  0
   49.1820  158.2790   30.6890 C   0  0  0  0  0  0  0  0  0  0  0  0
   49.8320  157.2700   29.9750 C   0  0  0  0  0  0  0  0  0  0  0  0
   51.0930  157.4940   29.4130 C   0  0  0  0  0  0  0  0  0  0  0  0
   51.7790  156.4040   28.6870 C   0  0  0  0  0  0  0  0  0  0  0  0
   52.3350  156.8240   27.4830 O   0  0  0  0  0  0  0  0  0  0  0  0
   53.0020  155.9110   26.7060 C   0  0  0  0  0  0  0  0  0  0  0  0
   53.5300  156.3730   25.5000 C   0  0  0  0  0  0  0  0  0  0  0  0
   54.2240  155.4960   24.6620 C   0  0  0  0  0  0  0  0  0  0  0  0
   54.3890  154.1590   25.0310 C   0  0  0  0  0  0  0  0  0  0  0  0
   53.8600  153.7020   26.2360 C   0  0  0  0  0  0  0  0  0  0  0  0
   54.0580  152.3820   26.5350 O   0  0  0  0  0  0  0  0  0  0  0  0
   53.1660  154.5790   27.0730 C   0  0  0  0  0  0  0  0  0  0  0  0
   52.5950  154.1400   28.3470 C   0  0  0  0  0  0  0  0  0  0  0  0
   52.7050  152.9810   28.7440 O   0  0  0  0  0  0  0  0  0  0  0  0
   51.8710  155.1460   29.1570 C   0  0  0  0  0  0  0  0  0  0  0  0
   51.3470  154.7230   30.3650 O   0  0  0  0  0  0  0  0  0  0  0  0
   51.6880  158.7490   29.5960 C   0  0  0  0  0  0  0  0  0  0  0  0
   51.0440  159.7830   30.3070 C   0  0  0  0  0  0  0  0  0  0  0  0
   51.7710  161.1010   30.4530 C   0  0  0  0  0  0  0  0  0  0  0  0
   52.6340  161.1380   31.7060 C   0  0  0  0  0  0  0  0  0  0  0  0
   49.5319  161.5268   34.9373 H   0  0  0  0  0  0  0  0  0  0  0  0
   50.6136  161.8977   33.5521 H   0  0  0  0  0  0  0  0  0  0  0  0
   48.9185  162.4919   33.5521 H   0  0  0  0  0  0  0  0  0  0  0  0
   49.8719  159.5955   33.3491 H   0  0  0  0  0  0  0  0  0  0  0  0
   48.1461  160.1039   33.5531 H   0  0  0  0  0  0  0  0  0  0  0  0
   47.9397  160.5208   31.3661 H   0  0  0  0  0  0  0  0  0  0  0  0
   49.4160  161.5736   31.3925 H   0  0  0  0  0  0  0  0  0  0  0  0
   48.1875  158.0835   31.1166 H   0  0  0  0  0  0  0  0  0  0  0  0
   49.3477  156.2899   29.8535 H   0  0  0  0  0  0  0  0  0  0  0  0
   53.4002  157.4259   25.2092 H   0  0  0  0  0  0  0  0  0  0  0  0
   54.6407  155.8590   23.7109 H   0  0  0  0  0  0  0  0  0  0  0  0
   54.9354  153.4685   24.3717 H   0  0  0  0  0  0  0  0  0  0  0  0
   53.4900  151.9490   27.1420 H   0  0  0  0  0  0  0  0  0  0  0  0
   51.4060  153.8210   30.6100 H   0  0  0  0  0  0  0  0  0  0  0  0
   52.6865  158.9334   29.1729 H   0  0  0  0  0  0  0  0  0  0  0  0
   52.4144  161.2514   29.5736 H   0  0  0  0  0  0  0  0  0  0  0  0
   51.0176  161.8984   30.5346 H   0  0  0  0  0  0  0  0  0  0  0  0
   51.9888  161.1103   32.5965 H   0  0  0  0  0  0  0  0  0  0  0  0
   53.3069  160.2679   31.7136 H   0  0  0  0  0  0  0  0  0  0  0  0
   53.2300  162.0625   31.7136 H   0  0  0  0  0  0  0  0  0  0  0  0
  1  2  1  0
  2  3  1  0
  3  4  1  0
  4  5  2  0
  5  6  1  0
  6  7  2  0
  7  8  1  0
  8  9  1  0
  9 10  1  0
 10 11  2  0
 11 12  1  0
 12 13  2  0
 13 14  1  0
 14 15  1  0
 14 16  2  0
 16 17  1  0
 17 18  2  0
 17 19  1  0
 19 20  1  0
  7 21  1  0
 21 22  2  0
 22 23  1  0
 23 24  1  0
 22  4  1  0
 19  8  2  0
 16 10  1  0
  1 25  1  0
  1 26  1  0
  1 27  1  0
  2 28  1  0
  2 29  1  0
  3 30  1  0
  3 31  1  0
  5 32  1  0
  6 33  1  0
 11 34  1  0
 12 35  1  0
 13 36  1  0
 15 37  1  0
 20 38  1  0
 21 39  1  0
 23 40  1  0
 23 41  1  0
 24 42  1  0
 24 43  1  0
 24 44  1  0
M  END
>  <meeko>  (2) 
{"is_sidechain": [false], "free_energy": -10.45, "intermolecular_energy": -13.104, "internal_energy": -0.605}

$$$$
cand_053_out
     RDKit          3D

 44 46  0  0  0  0  0  0  0  0999 V2000
   54.3220  151.0770   24.7970 C   0  0  0  0  0  0  0  0  0  0  0  0
   54.1400  152.0720   25.9320 C   0  0  0  0  0  0  0  0  0  0  0  0
   52.6680  152.2040   26.3260 C   0  0  0  0  0  0  0  0  0  0  0  0
   52.3870  153.5270   27.0060 C   0  0  0  0  0  0  0  0  0  0  0  0
   51.9430  153.5040   28.3400 C   0  0  0  0  0  0  0  0  0  0  0  0
   51.6780  154.6870   29.0330 C   0  0  0  0  0  0  0  0  0  0  0  0
   51.8550  155.9290   28.4180 C   0  0  0  0  0  0  0  0  0  0  0  0
   51.5390  157.1690   29.1580 C   0  0  0  0  0  0  0  0  0  0  0  0
   50.2370  157.1900   29.6460 O   0  0  0  0  0  0  0  0  0  0  0  0
   49.8090  158.2850   30.3520 C   0  0  0  0  0  0  0  0  0  0  0  0
   48.4910  158.2680   30.8090 C   0  0  0  0  0  0  0  0  0  0  0  0
   47.9920  159.3520   31.5370 C   0  0  0  0  0  0  0  0  0  0  0  0
   48.8130  160.4490   31.8090 C   0  0  0  0  0  0  0  0  0  0  0  0
   50.1280  160.4620   31.3510 C   0  0  0  0  0  0  0  0  0  0  0  0
   50.8760  161.5670   31.6520 O   0  0  0  0  0  0  0  0  0  0  0  0
   50.6250  159.3780   30.6220 C   0  0  0  0  0  0  0  0  0  0  0  0
   52.0010  159.3520   30.1230 C   0  0  0  0  0  0  0  0  0  0  0  0
   52.7850  160.2760   30.3280 O   0  0  0  0  0  0  0  0  0  0  0  0
   52.4280  158.1600   29.3540 C   0  0  0  0  0  0  0  0  0  0  0  0
   53.7340  158.1400   28.8990 O   0  0  0  0  0  0  0  0  0  0  0  0
   52.2930  155.9540   27.0870 C   0  0  0  0  0  0  0  0  0  0  0  0
   52.5750  154.7710   26.3720 C   0  0  0  0  0  0  0  0  0  0  0  0
   53.0390  154.9040   24.9390 C   0  0  0  0  0  0  0  0  0  0  0  0
   54.3690  155.6360   24.8370 C   0  0  0  0  0  0  0  0  0  0  0  0
   54.5052  150.0754   25.2133 H   0  0  0  0  0  0  0  0  0  0  0  0
   53.4128  151.0562   24.1783 H   0  0  0  0  0  0  0  0  0  0  0  0
   55.1797  151.3794   24.1783 H   0  0  0  0  0  0  0  0  0  0  0  0
   54.7150  151.7289   26.8047 H   0  0  0  0  0  0  0  0  0  0  0  0
   54.4974  153.0552   25.5919 H   0  0  0  0  0  0  0  0  0  0  0  0
   52.0485  152.1301   25.4201 H   0  0  0  0  0  0  0  0  0  0  0  0
   52.4288  151.3968   27.0340 H   0  0  0  0  0  0  0  0  0  0  0  0
   51.8020  152.5377   28.8463 H   0  0  0  0  0  0  0  0  0  0  0  0
   51.3262  154.6406   30.0742 H   0  0  0  0  0  0  0  0  0  0  0  0
   47.8455  157.4030   30.5968 H   0  0  0  0  0  0  0  0  0  0  0  0
   46.9523  159.3412   31.8959 H   0  0  0  0  0  0  0  0  0  0  0  0
   48.4214  161.3011   32.3840 H   0  0  0  0  0  0  0  0  0  0  0  0
   51.3940  161.5840   32.4330 H   0  0  0  0  0  0  0  0  0  0  0  0
   54.4150  158.5250   29.4130 H   0  0  0  0  0  0  0  0  0  0  0  0
   52.4206  156.9245   26.5851 H   0  0  0  0  0  0  0  0  0  0  0  0
   53.1528  153.8985   24.5076 H   0  0  0  0  0  0  0  0  0  0  0  0
   52.2859  155.4889   24.3905 H   0  0  0  0  0  0  0  0  0  0  0  0
   54.7504  155.8459   25.8472 H   0  0  0  0  0  0  0  0  0  0  0  0
   55.0921  155.0088   24.2950 H   0  0  0  0  0  0  0  0  0  0  0  0
   54.2260  156.5825   24.2950 H   0  0  0  0  0  0  0  0  0  0  0  0
  1  2  1  0
  2  3  1  0
  3  4  1  0
  4  5  2  0
  5  6  1  0
  6  7  2  0
  7  8  1  0
  8  9  1  0
  9 10  1  0
 10 11  2  0
 11 12  1  0
 12 13  2  0
 13 14  1  0
 14 15  1  0
 14 16  2  0
 16 17  1  0
 17 18  2  0
 17 19  1  0
 19 20  1  0
  7 21  1  0
 21 22  2  0
 22 23  1  0
 23 24  1  0
 22  4  1  0
 19  8  2  0
 16 10  1  0
  1 25  1  0
  1 26  1  0
  1 27  1  0
  2 28  1  0
  2 29  1  0
  3 30  1  0
  3 31  1  0
  5 32  1  0
  6 33  1  0
 11 34  1  0
 12 35  1  0
 13 36  1  0
 15 37  1  0
 20 38  1  0
 21 39  1  0
 23 40  1  0
 23 41  1  0
 24 42  1  0
 24 43  1  0
 24 44  1  0
M  END
>  <meeko>  (3) 
{"is_sidechain": [false], "free_energy": -10.365, "intermolecular_energy": -13.21, "internal_energy": -0.389}

$$$$
cand_053_out
     RDKit          3D

 44 46  0  0  0  0  0  0  0  0999 V2000
   52.9420  162.2580   30.8130 C   0  0  0  0  0  0  0  0  0  0  0  0
   52.2340  161.2340   31.6860 C   0  0  0  0  0  0  0  0  0  0  0  0
   50.9540  160.7250   31.0220 C   0  0  0  0  0  0  0  0  0  0  0  0
   51.1680  159.3900   30.3420 C   0  0  0  0  0  0  0  0  0  0  0  0
   52.3980  159.1650   29.6990 C   0  0  0  0  0  0  0  0  0  0  0  0
   52.6690  157.9520   29.0630 C   0  0  0  0  0  0  0  0  0  0  0  0
   51.7230  156.9230   29.0570 C   0  0  0  0  0  0  0  0  0  0  0  0
   52.0160  155.6570   28.3520 C   0  0  0  0  0  0  0  0  0  0  0  0
   52.5460  155.8570   27.0820 O   0  0  0  0  0  0  0  0  0  0  0  0
   52.8640  154.7640   26.3160 C   0  0  0  0  0  0  0  0  0  0  0  0
   53.3790  155.0130   25.0430 C   0  0  0  0  0  0  0  0  0  0  0  0
   53.7250  153.9440   24.2110 C   0  0  0  0  0  0  0  0  0  0  0  0
   53.5580  152.6300   24.6540 C   0  0  0  0  0  0  0  0  0  0  0  0
   53.0440  152.3870   25.9250 C   0  0  0  0  0  0  0  0  0  0  0  0
   52.9070  151.0770   26.2950 O   0  0  0  0  0  0  0  0  0  0  0  0
   52.6970  153.4560   26.7560 C   0  0  0  0  0  0  0  0  0  0  0  0
   52.1540  153.2440   28.0980 C   0  0  0  0  0  0  0  0  0  0  0  0
   51.9860  152.1170   28.5610 O   0  0  0  0  0  0  0  0  0  0  0  0
   51.8110  154.4430   28.8960 C   0  0  0  0  0  0  0  0  0  0  0  0
   51.3110  154.2310   30.1680 O   0  0  0  0  0  0  0  0  0  0  0  0
   50.4950  157.1460   29.6950 C   0  0  0  0  0  0  0  0  0  0  0  0
   50.2050  158.3610   30.3500 C   0  0  0  0  0  0  0  0  0  0  0  0
   48.8500  158.5060   31.0050 C   0  0  0  0  0  0  0  0  0  0  0  0
   47.8500  159.2040   30.0950 C   0  0  0  0  0  0  0  0  0  0  0  0
   53.4514  162.9947   31.4516 H   0  0  0  0  0  0  0  0  0  0  0  0
   53.6822  161.7493   30.1779 H   0  0  0  0  0  0  0  0  0  0  0  0
   52.2047  162.7708   30.1779 H   0  0  0  0  0  0  0  0  0  0  0  0
   52.9096  160.3835   31.8599 H   0  0  0  0  0  0  0  0  0  0  0  0
   51.9627  161.7173   32.6362 H   0  0  0  0  0  0  0  0  0  0  0  0
   50.1745  160.6128   31.7900 H   0  0  0  0  0  0  0  0  0  0  0  0
   50.6516  161.4548   30.2565 H   0  0  0  0  0  0  0  0  0  0  0  0
   53.1599  159.9584   29.6970 H   0  0  0  0  0  0  0  0  0  0  0  0
   53.6369  157.8046   28.5615 H   0  0  0  0  0  0  0  0  0  0  0  0
   53.5124  156.0480   24.6950 H   0  0  0  0  0  0  0  0  0  0  0  0
   54.1292  154.1380   23.2065 H   0  0  0  0  0  0  0  0  0  0  0  0
   53.8320  151.7889   24.0002 H   0  0  0  0  0  0  0  0  0  0  0  0
   53.3530  150.7550   27.0530 H   0  0  0  0  0  0  0  0  0  0  0  0
   51.7040  153.5880   30.7240 H   0  0  0  0  0  0  0  0  0  0  0  0
   49.7355  156.3504   29.6845 H   0  0  0  0  0  0  0  0  0  0  0  0
   48.4664  157.5054   31.2532 H   0  0  0  0  0  0  0  0  0  0  0  0
   48.9732  159.1199   31.9094 H   0  0  0  0  0  0  0  0  0  0  0  0
   47.1004  159.7272   30.7069 H   0  0  0  0  0  0  0  0  0  0  0  0
   48.3774  159.9312   29.4601 H   0  0  0  0  0  0  0  0  0  0  0  0
   47.3493  158.4582   29.4601 H   0  0  0  0  0  0  0  0  0  0  0  0
  1  2  1  0
  2  3  1  0
  3  4  1  0
  4  5  2  0
  5  6  1  0
  6  7  2  0
  7  8  1  0
  8  9  1  0
  9 10  1  0
 10 11  2  0
 11 12  1  0
 12 13  2  0
 13 14  1  0
 14 15  1  0
 14 16  2  0
 16 17  1  0
 17 18  2  0
 17 19  1  0
 19 20  1  0
  7 21  1  0
 21 22  2  0
 22 23  1  0
 23 24  1  0
 22  4  1  0
 19  8  2  0
 16 10  1  0
  1 25  1  0
  1 26  1  0
  1 27  1  0
  2 28  1  0
  2 29  1  0
  3 30  1  0
  3 31  1  0
  5 32  1  0
  6 33  1  0
 11 34  1  0
 12 35  1  0
 13 36  1  0
 15 37  1  0
 20 38  1  0
 21 39  1  0
 23 40  1  0
 23 41  1  0
 24 42  1  0
 24 43  1  0
 24 44  1  0
M  END
>  <meeko>  (4) 
{"is_sidechain": [false], "free_energy": -10.034, "intermolecular_energy": -12.898, "internal_energy": -0.275}

$$$$
cand_053_out
     RDKit          3D

 44 46  0  0  0  0  0  0  0  0999 V2000
   53.4680  150.5450   25.2300 C   0  0  0  0  0  0  0  0  0  0  0  0
   52.7920  151.6920   25.9650 C   0  0  0  0  0  0  0  0  0  0  0  0
   53.8200  152.6760   26.5280 C   0  0  0  0  0  0  0  0  0  0  0  0
   53.1550  153.8580   27.2000 C   0  0  0  0  0  0  0  0  0  0  0  0
   52.7020  153.6980   28.5210 C   0  0  0  0  0  0  0  0  0  0  0  0
   52.0920  154.7500   29.2070 C   0  0  0  0  0  0  0  0  0  0  0  0
   51.9250  155.9970   28.5980 C   0  0  0  0  0  0  0  0  0  0  0  0
   51.2490  157.0900   29.3300 C   0  0  0  0  0  0  0  0  0  0  0  0
   52.0910  158.1630   29.5960 O   0  0  0  0  0  0  0  0  0  0  0  0
   51.5920  159.2470   30.2720 C   0  0  0  0  0  0  0  0  0  0  0  0
   52.4770  160.2940   30.5310 C   0  0  0  0  0  0  0  0  0  0  0  0
   52.0320  161.4300   31.2140 C   0  0  0  0  0  0  0  0  0  0  0  0
   50.7030  161.5170   31.6350 C   0  0  0  0  0  0  0  0  0  0  0  0
   49.8230  160.4700   31.3750 C   0  0  0  0  0  0  0  0  0  0  0  0
   48.5370  160.6210   31.8150 O   0  0  0  0  0  0  0  0  0  0  0  0
   50.2690  159.3340   30.6930 C   0  0  0  0  0  0  0  0  0  0  0  0
   49.3770  158.2120   30.3990 C   0  0  0  0  0  0  0  0  0  0  0  0
   48.1930  158.2190   30.7300 O   0  0  0  0  0  0  0  0  0  0  0  0
   49.9490  157.0520   29.6780 C   0  0  0  0  0  0  0  0  0  0  0  0
   49.0930  156.0030   29.3940 O   0  0  0  0  0  0  0  0  0  0  0  0
   52.3730  156.1570   27.2800 C   0  0  0  0  0  0  0  0  0  0  0  0
   52.9990  155.1100   26.5730 C   0  0  0  0  0  0  0  0  0  0  0  0
   53.4440  155.3810   25.1540 C   0  0  0  0  0  0  0  0  0  0  0  0
   54.3230  156.6200   25.0600 C   0  0  0  0  0  0  0  0  0  0  0  0
   53.8855  149.8366   25.9607 H   0  0  0  0  0  0  0  0  0  0  0  0
   52.7300  150.0283   24.5988 H   0  0  0  0  0  0  0  0  0  0  0  0
   54.2775  150.9404   24.5988 H   0  0  0  0  0  0  0  0  0  0  0  0
   52.1313  152.2254   25.2658 H   0  0  0  0  0  0  0  0  0  0  0  0
   52.2160  151.2745   26.8040 H   0  0  0  0  0  0  0  0  0  0  0  0
   54.4470  152.1533   27.2653 H   0  0  0  0  0  0  0  0  0  0  0  0
   54.4263  153.0539   25.6916 H   0  0  0  0  0  0  0  0  0  0  0  0
   52.8303  152.7276   29.0228 H   0  0  0  0  0  0  0  0  0  0  0  0
   51.7392  154.5959   30.2374 H   0  0  0  0  0  0  0  0  0  0  0  0
   53.5233  160.2259   30.1984 H   0  0  0  0  0  0  0  0  0  0  0  0
   52.7290  162.2557   31.4199 H   0  0  0  0  0  0  0  0  0  0  0  0
   50.3523  162.4112   32.1711 H   0  0  0  0  0  0  0  0  0  0  0  0
   48.1180  159.9270   32.2860 H   0  0  0  0  0  0  0  0  0  0  0  0
   48.9620  155.3220   30.0240 H   0  0  0  0  0  0  0  0  0  0  0  0
   52.2322  157.1278   26.7824 H   0  0  0  0  0  0  0  0  0  0  0  0
   54.0126  154.5133   24.7881 H   0  0  0  0  0  0  0  0  0  0  0  0
   52.5458  155.5539   24.5429 H   0  0  0  0  0  0  0  0  0  0  0  0
   54.5718  156.9707   26.0725 H   0  0  0  0  0  0  0  0  0  0  0  0
   55.2488  156.3727   24.5198 H   0  0  0  0  0  0  0  0  0  0  0  0
   53.7837  157.4120   24.5198 H   0  0  0  0  0  0  0  0  0  0  0  0
  1  2  1  0
  2  3  1  0
  3  4  1  0
  4  5  2  0
  5  6  1  0
  6  7  2  0
  7  8  1  0
  8  9  1  0
  9 10  1  0
 10 11  2  0
 11 12  1  0
 12 13  2  0
 13 14  1  0
 14 15  1  0
 14 16  2  0
 16 17  1  0
 17 18  2  0
 17 19  1  0
 19 20  1  0
  7 21  1  0
 21 22  2  0
 22 23  1  0
 23 24  1  0
 22  4  1  0
 19  8  2  0
 16 10  1  0
  1 25  1  0
  1 26  1  0
  1 27  1  0
  2 28  1  0
  2 29  1  0
  3 30  1  0
  3 31  1  0
  5 32  1  0
  6 33  1  0
 11 34  1  0
 12 35  1  0
 13 36  1  0
 15 37  1  0
 20 38  1  0
 21 39  1  0
 23 40  1  0
 23 41  1  0
 24 42  1  0
 24 43  1  0
 24 44  1  0
M  END
>  <meeko>  (5) 
{"is_sidechain": [false], "free_energy": -9.078, "intermolecular_energy": -11.311, "internal_energy": -0.625}

$$$$
cand_053_out
     RDKit          3D

 44 46  0  0  0  0  0  0  0  0999 V2000
   54.1050  153.5130   23.9200 C   0  0  0  0  0  0  0  0  0  0  0  0
   53.2240  154.3570   24.8280 C   0  0  0  0  0  0  0  0  0  0  0  0
   53.4220  153.9850   26.2980 C   0  0  0  0  0  0  0  0  0  0  0  0
   52.8650  155.0450   27.2240 C   0  0  0  0  0  0  0  0  0  0  0  0
   53.0060  156.3920   26.8480 C   0  0  0  0  0  0  0  0  0  0  0  0
   52.5030  157.4210   27.6470 C   0  0  0  0  0  0  0  0  0  0  0  0
   51.8370  157.1360   28.8420 C   0  0  0  0  0  0  0  0  0  0  0  0
   51.3400  158.2400   29.6900 C   0  0  0  0  0  0  0  0  0  0  0  0
   50.0030  158.0910   30.0420 O   0  0  0  0  0  0  0  0  0  0  0  0
   49.4120  159.0470   30.8290 C   0  0  0  0  0  0  0  0  0  0  0  0
   48.0660  158.8640   31.1450 C   0  0  0  0  0  0  0  0  0  0  0  0
   47.4040  159.7990   31.9440 C   0  0  0  0  0  0  0  0  0  0  0  0
   48.0900  160.9170   32.4260 C   0  0  0  0  0  0  0  0  0  0  0  0
   49.4330  161.0960   32.1090 C   0  0  0  0  0  0  0  0  0  0  0  0
   50.0430  162.2110   32.6150 O   0  0  0  0  0  0  0  0  0  0  0  0
   50.0940  160.1600   31.3090 C   0  0  0  0  0  0  0  0  0  0  0  0
   51.5050  160.3110   30.9520 C   0  0  0  0  0  0  0  0  0  0  0  0
   52.1780  161.2630   31.3450 O   0  0  0  0  0  0  0  0  0  0  0  0
   52.1100  159.2680   30.0930 C   0  0  0  0  0  0  0  0  0  0  0  0
   53.4480  159.4140   29.7730 O   0  0  0  0  0  0  0  0  0  0  0  0
   51.6990  155.7940   29.2210 C   0  0  0  0  0  0  0  0  0  0  0  0
   52.1920  154.7400   28.4230 C   0  0  0  0  0  0  0  0  0  0  0  0
   51.9960  153.3250   28.9210 C   0  0  0  0  0  0  0  0  0  0  0  0
   51.5950  152.3780   27.8000 C   0  0  0  0  0  0  0  0  0  0  0  0
   54.7645  152.8812   24.5331 H   0  0  0  0  0  0  0  0  0  0  0  0
   53.4725  152.8751   23.2851 H   0  0  0  0  0  0  0  0  0  0  0  0
   54.7152  154.1722   23.2851 H   0  0  0  0  0  0  0  0  0  0  0  0
   53.4794  155.4179   24.6895 H   0  0  0  0  0  0  0  0  0  0  0  0
   52.1730  154.1713   24.5618 H   0  0  0  0  0  0  0  0  0  0  0  0
   52.9088  153.0326   26.4969 H   0  0  0  0  0  0  0  0  0  0  0  0
   54.5021  153.8979   26.4871 H   0  0  0  0  0  0  0  0  0  0  0  0
   53.5214  156.6399   25.9083 H   0  0  0  0  0  0  0  0  0  0  0  0
   52.6324  158.4671   27.3323 H   0  0  0  0  0  0  0  0  0  0  0  0
   47.5262  157.9840   30.7653 H   0  0  0  0  0  0  0  0  0  0  0  0
   46.3424  159.6553   32.1939 H   0  0  0  0  0  0  0  0  0  0  0  0
   47.5693  161.6542   33.0548 H   0  0  0  0  0  0  0  0  0  0  0  0
   50.8580  162.5030   32.2550 H   0  0  0  0  0  0  0  0  0  0  0  0
   53.7070  159.5170   28.8790 H   0  0  0  0  0  0  0  0  0  0  0  0
   51.1919  155.5555   30.1676 H   0  0  0  0  0  0  0  0  0  0  0  0
   52.9379  152.9710   29.3654 H   0  0  0  0  0  0  0  0  0  0  0  0
   51.1852  153.3351   29.6643 H   0  0  0  0  0  0  0  0  0  0  0  0
   51.2004  151.4460   28.2309 H   0  0  0  0  0  0  0  0  0  0  0  0
   50.8203  152.8518   27.1793 H   0  0  0  0  0  0  0  0  0  0  0  0
   52.4744  152.1514   27.1793 H   0  0  0  0  0  0  0  0  0  0  0  0
  1  2  1  0
  2  3  1  0
  3  4  1  0
  4  5  2  0
  5  6  1  0
  6  7  2  0
  7  8  1  0
  8  9  1  0
  9 10  1  0
 10 11  2  0
 11 12  1  0
 12 13  2  0
 13 14  1  0
 14 15  1  0
 14 16  2  0
 16 17  1  0
 17 18  2  0
 17 19  1  0
 19 20  1  0
  7 21  1  0
 21 22  2  0
 22 23  1  0
 23 24  1  0
 22  4  1  0
 19  8  2  0
 16 10  1  0
  1 25  1  0
  1 26  1  0
  1 27  1  0
  2 28  1  0
  2 29  1  0
  3 30  1  0
  3 31  1  0
  5 32  1  0
  6 33  1  0
 11 34  1  0
 12 35  1  0
 13 36  1  0
 15 37  1  0
 20 38  1  0
 21 39  1  0
 23 40  1  0
 23 41  1  0
 24 42  1  0
 24 43  1  0
 24 44  1  0
M  END
>  <meeko>  (6) 
{"is_sidechain": [false], "free_energy": -8.969, "intermolecular_energy": -12.029, "internal_energy": 0.235}

$$$$
cand_053_out
     RDKit          3D

 44 46  0  0  0  0  0  0  0  0999 V2000
   47.4330  159.7950   31.5880 C   0  0  0  0  0  0  0  0  0  0  0  0
   48.1330  158.8890   30.5870 C   0  0  0  0  0  0  0  0  0  0  0  0
   49.3130  158.1570   31.2280 C   0  0  0  0  0  0  0  0  0  0  0  0
   50.1640  157.4500   30.1940 C   0  0  0  0  0  0  0  0  0  0  0  0
   49.7300  156.1980   29.7260 C   0  0  0  0  0  0  0  0  0  0  0  0
   50.4570  155.4960   28.7630 C   0  0  0  0  0  0  0  0  0  0  0  0
   51.6350  156.0280   28.2300 C   0  0  0  0  0  0  0  0  0  0  0  0
   52.4080  155.2560   27.2340 C   0  0  0  0  0  0  0  0  0  0  0  0
   52.1280  153.8940   27.2710 O   0  0  0  0  0  0  0  0  0  0  0  0
   52.7770  153.0590   26.3980 C   0  0  0  0  0  0  0  0  0  0  0  0
   52.4760  151.6990   26.4810 C   0  0  0  0  0  0  0  0  0  0  0  0
   53.1010  150.7930   25.6200 C   0  0  0  0  0  0  0  0  0  0  0  0
   54.0240  151.2490   24.6760 C   0  0  0  0  0  0  0  0  0  0  0  0
   54.3220  152.6070   24.5960 C   0  0  0  0  0  0  0  0  0  0  0  0
   55.2340  152.9840   23.6490 O   0  0  0  0  0  0  0  0  0  0  0  0
   53.6970  153.5120   25.4590 C   0  0  0  0  0  0  0  0  0  0  0  0
   53.9810  154.9460   25.4080 C   0  0  0  0  0  0  0  0  0  0  0  0
   54.7760  155.4240   24.6000 O   0  0  0  0  0  0  0  0  0  0  0  0
   53.2720  155.8200   26.3710 C   0  0  0  0  0  0  0  0  0  0  0  0
   53.5390  157.1760   26.3050 O   0  0  0  0  0  0  0  0  0  0  0  0
   52.0710  157.2750   28.6980 C   0  0  0  0  0  0  0  0  0  0  0  0
   51.3460  158.0030   29.6650 C   0  0  0  0  0  0  0  0  0  0  0  0
   51.9010  159.3380   30.1080 C   0  0  0  0  0  0  0  0  0  0  0  0
   50.9530  160.4840   29.7870 C   0  0  0  0  0  0  0  0  0  0  0  0
   47.6816  159.4733   32.6101 H   0  0  0  0  0  0  0  0  0  0  0  0
   47.7663  160.8326   31.4390 H   0  0  0  0  0  0  0  0  0  0  0  0
   46.3448  159.7344   31.4390 H   0  0  0  0  0  0  0  0  0  0  0  0
   47.4130  158.1472   30.2110 H   0  0  0  0  0  0  0  0  0  0  0  0
   48.5165  159.5116   29.7652 H   0  0  0  0  0  0  0  0  0  0  0  0
   49.9369  158.8876   31.7636 H   0  0  0  0  0  0  0  0  0  0  0  0
   48.9121  157.3993   31.9174 H   0  0  0  0  0  0  0  0  0  0  0  0
   48.8016  155.7638   30.1253 H   0  0  0  0  0  0  0  0  0  0  0  0
   50.0993  154.5140   28.4199 H   0  0  0  0  0  0  0  0  0  0  0  0
   51.7476  151.3405   27.2233 H   0  0  0  0  0  0  0  0  0  0  0  0
   52.8660  149.7204   25.6857 H   0  0  0  0  0  0  0  0  0  0  0  0
   54.5148  150.5365   23.9967 H   0  0  0  0  0  0  0  0  0  0  0  0
   55.3980  152.4320   22.9100 H   0  0  0  0  0  0  0  0  0  0  0  0
   54.1040  157.5730   26.9370 H   0  0  0  0  0  0  0  0  0  0  0  0
   53.0051  157.6982   28.3001 H   0  0  0  0  0  0  0  0  0  0  0  0
   52.0690  159.3098   31.1947 H   0  0  0  0  0  0  0  0  0  0  0  0
   52.8413  159.5124   29.5645 H   0  0  0  0  0  0  0  0  0  0  0  0
   50.5851  160.9287   30.7234 H   0  0  0  0  0  0  0  0  0  0  0  0
   51.4863  161.2484   29.2028 H   0  0  0  0  0  0  0  0  0  0  0  0
   50.1022  160.1034   29.2028 H   0  0  0  0  0  0  0  0  0  0  0  0
  1  2  1  0
  2  3  1  0
  3  4  1  0
  4  5  2  0
  5  6  1  0
  6  7  2  0
  7  8  1  0
  8  9  1  0
  9 10  1  0
 10 11  2  0
 11 12  1  0
 12 13  2  0
 13 14  1  0
 14 15  1  0
 14 16  2  0
 16 17  1  0
 17 18  2  0
 17 19  1  0
 19 20  1  0
  7 21  1  0
 21 22  2  0
 22 23  1  0
 23 24  1  0
 22  4  1  0
 19  8  2  0
 16 10  1  0
  1 25  1  0
  1 26  1  0
  1 27  1  0
  2 28  1  0
  2 29  1  0
  3 30  1  0
  3 31  1  0
  5 32  1  0
  6 33  1  0
 11 34  1  0
 12 35  1  0
 13 36  1  0
 15 37  1  0
 20 38  1  0
 21 39  1  0
 23 40  1  0
 23 41  1  0
 24 42  1  0
 24 43  1  0
 24 44  1  0
M  END
>  <meeko>  (7) 
{"is_sidechain": [false], "free_energy": -8.816, "intermolecular_energy": -11.803, "internal_energy": 0.206}

$$$$
cand_053_out
     RDKit          3D

 44 46  0  0  0  0  0  0  0  0999 V2000
   54.1410  153.2430   23.5670 C   0  0  0  0  0  0  0  0  0  0  0  0
   53.4260  154.1910   24.5180 C   0  0  0  0  0  0  0  0  0  0  0  0
   53.7420  153.8590   25.9770 C   0  0  0  0  0  0  0  0  0  0  0  0
   53.0500  154.8110   26.9300 C   0  0  0  0  0  0  0  0  0  0  0  0
   53.1710  156.1910   26.6900 C   0  0  0  0  0  0  0  0  0  0  0  0
   52.5490  157.1250   27.5210 C   0  0  0  0  0  0  0  0  0  0  0  0
   51.7790  156.7090   28.6110 C   0  0  0  0  0  0  0  0  0  0  0  0
   51.1530  157.7140   29.4970 C   0  0  0  0  0  0  0  0  0  0  0  0
   51.9790  158.8060   29.7420 O   0  0  0  0  0  0  0  0  0  0  0  0
   51.5220  159.8150   30.5520 C   0  0  0  0  0  0  0  0  0  0  0  0
   52.3900  160.8830   30.7830 C   0  0  0  0  0  0  0  0  0  0  0  0
   51.9870  161.9450   31.5960 C   0  0  0  0  0  0  0  0  0  0  0  0
   50.7160  161.9380   32.1760 C   0  0  0  0  0  0  0  0  0  0  0  0
   49.8530  160.8710   31.9430 C   0  0  0  0  0  0  0  0  0  0  0  0
   48.6240  160.9290   32.5410 O   0  0  0  0  0  0  0  0  0  0  0  0
   50.2570  159.8090   31.1300 C   0  0  0  0  0  0  0  0  0  0  0  0
   49.3810  158.6680   30.8590 C   0  0  0  0  0  0  0  0  0  0  0  0
   48.2460  158.5940   31.3270 O   0  0  0  0  0  0  0  0  0  0  0  0
   49.9080  157.5900   29.9920 C   0  0  0  0  0  0  0  0  0  0  0  0
   49.0660  156.5230   29.7320 O   0  0  0  0  0  0  0  0  0  0  0  0
   51.6600  155.3340   28.8540 C   0  0  0  0  0  0  0  0  0  0  0  0
   52.2740  154.3740   28.0220 C   0  0  0  0  0  0  0  0  0  0  0  0
   52.0900  152.9150   28.3710 C   0  0  0  0  0  0  0  0  0  0  0  0
   51.7990  152.0680   27.1410 C   0  0  0  0  0  0  0  0  0  0  0  0
   54.7037  152.4969   24.1473 H   0  0  0  0  0  0  0  0  0  0  0  0
   53.4011  152.7325   22.9330 H   0  0  0  0  0  0  0  0  0  0  0  0
   54.8352  153.8141   22.9330 H   0  0  0  0  0  0  0  0  0  0  0  0
   53.7491  155.2211   24.3070 H   0  0  0  0  0  0  0  0  0  0  0  0
   52.3420  154.0835   24.3648 H   0  0  0  0  0  0  0  0  0  0  0  0
   53.4056  152.8337   26.1903 H   0  0  0  0  0  0  0  0  0  0  0  0
   54.8279  153.9558   26.1235 H   0  0  0  0  0  0  0  0  0  0  0  0
   53.7656  156.5408   25.8332 H   0  0  0  0  0  0  0  0  0  0  0  0
   52.6661  158.1993   27.3158 H   0  0  0  0  0  0  0  0  0  0  0  0
   53.3903  160.8885   30.3254 H   0  0  0  0  0  0  0  0  0  0  0  0
   52.6705  162.7871   31.7796 H   0  0  0  0  0  0  0  0  0  0  0  0
   50.3978  162.7743   32.8158 H   0  0  0  0  0  0  0  0  0  0  0  0
   47.9190  160.4040   32.2150 H   0  0  0  0  0  0  0  0  0  0  0  0
   49.3920  155.6470   29.7810 H   0  0  0  0  0  0  0  0  0  0  0  0
   51.0710  154.9933   29.7183 H   0  0  0  0  0  0  0  0  0  0  0  0
   53.0097  152.5450   28.8477 H   0  0  0  0  0  0  0  0  0  0  0  0
   51.2294  152.8339   29.0513 H   0  0  0  0  0  0  0  0  0  0  0  0
   51.4565  151.0710   27.4550 H   0  0  0  0  0  0  0  0  0  0  0  0
   51.0157  152.5522   26.5394 H   0  0  0  0  0  0  0  0  0  0  0  0
   52.7145  151.9685   26.5394 H   0  0  0  0  0  0  0  0  0  0  0  0
  1  2  1  0
  2  3  1  0
  3  4  1  0
  4  5  2  0
  5  6  1  0
  6  7  2  0
  7  8  1  0
  8  9  1  0
  9 10  1  0
 10 11  2  0
 11 12  1  0
 12 13  2  0
 13 14  1  0
 14 15  1  0
 14 16  2  0
 16 17  1  0
 17 18  2  0
 17 19  1  0
 19 20  1  0
  7 21  1  0
 21 22  2  0
 22 23  1  0
 23 24  1  0
 22  4  1  0
 19  8  2  0
 16 10  1  0
  1 25  1  0
  1 26  1  0
  1 27  1  0
  2 28  1  0
  2 29  1  0
  3 30  1  0
  3 31  1  0
  5 32  1  0
  6 33  1  0
 11 34  1  0
 12 35  1  0
 13 36  1  0
 15 37  1  0
 20 38  1  0
 21 39  1  0
 23 40  1  0
 23 41  1  0
 24 42  1  0
 24 43  1  0
 24 44  1  0
M  END
>  <meeko>  (8) 
{"is_sidechain": [false], "free_energy": -8.417, "intermolecular_energy": -11.333, "internal_energy": 0.251}

$$$$
cand_053_out
     RDKit          3D

 44 46  0  0  0  0  0  0  0  0999 V2000
   49.1700  161.2400   30.9710 C   0  0  0  0  0  0  0  0  0  0  0  0
   50.3150  160.6320   30.1750 C   0  0  0  0  0  0  0  0  0  0  0  0
   50.9330  159.4420   30.9100 C   0  0  0  0  0  0  0  0  0  0  0  0
   51.3470  158.3450   29.9520 C   0  0  0  0  0  0  0  0  0  0  0  0
   52.6030  158.4510   29.3290 C   0  0  0  0  0  0  0  0  0  0  0  0
   53.0560  157.4700   28.4450 C   0  0  0  0  0  0  0  0  0  0  0  0
   52.2710  156.3480   28.1620 C   0  0  0  0  0  0  0  0  0  0  0  0
   52.7540  155.3360   27.1990 C   0  0  0  0  0  0  0  0  0  0  0  0
   52.3260  154.0490   27.5090 O   0  0  0  0  0  0  0  0  0  0  0  0
   52.7030  153.0100   26.6960 C   0  0  0  0  0  0  0  0  0  0  0  0
   52.2640  151.7350   27.0540 C   0  0  0  0  0  0  0  0  0  0  0  0
   52.6100  150.6330   26.2680 C   0  0  0  0  0  0  0  0  0  0  0  0
   53.3950  150.8080   25.1250 C   0  0  0  0  0  0  0  0  0  0  0  0
   53.8320  152.0820   24.7720 C   0  0  0  0  0  0  0  0  0  0  0  0
   54.5960  152.1810   23.6420 O   0  0  0  0  0  0  0  0  0  0  0  0
   53.4850  153.1830   25.5590 C   0  0  0  0  0  0  0  0  0  0  0  0
   53.9230  154.5390   25.2230 C   0  0  0  0  0  0  0  0  0  0  0  0
   54.6090  154.7730   24.2290 O   0  0  0  0  0  0  0  0  0  0  0  0
   53.5080  155.6360   26.1270 C   0  0  0  0  0  0  0  0  0  0  0  0
   53.9170  156.9150   25.7910 O   0  0  0  0  0  0  0  0  0  0  0  0
   51.0170  156.2430   28.7790 C   0  0  0  0  0  0  0  0  0  0  0  0
   50.5460  157.2190   29.6820 C   0  0  0  0  0  0  0  0  0  0  0  0
   49.1780  157.0160   30.2920 C   0  0  0  0  0  0  0  0  0  0  0  0
   48.1240  157.8910   29.6300 C   0  0  0  0  0  0  0  0  0  0  0  0
   49.3733  161.1321   32.0466 H   0  0  0  0  0  0  0  0  0  0  0  0
   49.0756  162.3070   30.7210 H   0  0  0  0  0  0  0  0  0  0  0  0
   48.2332  160.7206   30.7210 H   0  0  0  0  0  0  0  0  0  0  0  0
   49.9334  160.2924   29.2008 H   0  0  0  0  0  0  0  0  0  0  0  0
   51.0917  161.3996   30.0429 H   0  0  0  0  0  0  0  0  0  0  0  0
   51.8197  159.7859   31.4627 H   0  0  0  0  0  0  0  0  0  0  0  0
   50.1762  159.0315   31.5946 H   0  0  0  0  0  0  0  0  0  0  0  0
   53.2399  159.3222   29.5419 H   0  0  0  0  0  0  0  0  0  0  0  0
   54.0402  157.5808   27.9664 H   0  0  0  0  0  0  0  0  0  0  0  0
   51.6464  151.5976   27.9538 H   0  0  0  0  0  0  0  0  0  0  0  0
   52.2644  149.6272   26.5489 H   0  0  0  0  0  0  0  0  0  0  0  0
   53.6671  149.9408   24.5054 H   0  0  0  0  0  0  0  0  0  0  0  0
   54.3700  151.6860   22.8780 H   0  0  0  0  0  0  0  0  0  0  0  0
   54.7250  157.2510   26.1260 H   0  0  0  0  0  0  0  0  0  0  0  0
   50.3815  155.3742   28.5525 H   0  0  0  0  0  0  0  0  0  0  0  0
   48.8893  155.9612   30.1739 H   0  0  0  0  0  0  0  0  0  0  0  0
   49.2343  157.2962   31.3542 H   0  0  0  0  0  0  0  0  0  0  0  0
   47.5228  158.3901   30.4042 H   0  0  0  0  0  0  0  0  0  0  0  0
   48.6173  158.6488   29.0036 H   0  0  0  0  0  0  0  0  0  0  0  0
   47.4699  157.2667   29.0036 H   0  0  0  0  0  0  0  0  0  0  0  0
  1  2  1  0
  2  3  1  0
  3  4  1  0
  4  5  2  0
  5  6  1  0
  6  7  2  0
  7  8  1  0
  8  9  1  0
  9 10  1  0
 10 11  2  0
 11 12  1  0
 12 13  2  0
 13 14  1  0
 14 15  1  0
 14 16  2  0
 16 17  1  0
 17 18  2  0
 17 19  1  0
 19 20  1  0
  7 21  1  0
 21 22  2  0
 22 23  1  0
 23 24  1  0
 22  4  1  0
 19  8  2  0
 16 10  1  0
  1 25  1  0
  1 26  1  0
  1 27  1  0
  2 28  1  0
  2 29  1  0
  3 30  1  0
  3 31  1  0
  5 32  1  0
  6 33  1  0
 11 34  1  0
 12 35  1  0
 13 36  1  0
 15 37  1  0
 20 38  1  0
 21 39  1  0
 23 40  1  0
 23 41  1  0
 24 42  1  0
 24 43  1  0
 24 44  1  0
M  END
>  <meeko>  (9) 
{"is_sidechain": [false], "free_energy": -8.083, "intermolecular_energy": -10.4, "internal_energy": -0.25}

$$$$
