cand_016_out
     RDKit          3D

 35 37  0  0  0  0  0  0  0  0999 V2000
   52.1730  161.0460   30.6790 C   0  0  0  0  0  0  0  0  0  0  0  0
   51.3390  159.8130   30.4610 C   0  0  0  0  0  0  0  0  0  0  0  0
   51.8950  158.7330   29.7490 C   0  0  0  0  0  0  0  0  0  0  0  0
   51.1720  157.5530   29.5200 C   0  0  0  0  0  0  0  0  0  0  0  0
   51.7610  156.4100   28.7910 C   0  0  0  0  0  0  0  0  0  0  0  0
   52.3500  156.7820   27.5880 O   0  0  0  0  0  0  0  0  0  0  0  0
   52.9350  155.8170   26.8100 C   0  0  0  0  0  0  0  0  0  0  0  0
   53.4990  156.2320   25.6030 C   0  0  0  0  0  0  0  0  0  0  0  0
   54.1120  155.2990   24.7630 C   0  0  0  0  0  0  0  0  0  0  0  0
   54.1610  153.9530   25.1300 C   0  0  0  0  0  0  0  0  0  0  0  0
   53.5970  153.5410   26.3350 C   0  0  0  0  0  0  0  0  0  0  0  0
   53.6810  152.2090   26.6330 O   0  0  0  0  0  0  0  0  0  0  0  0
   52.9830  154.4750   27.1740 C   0  0  0  0  0  0  0  0  0  0  0  0
   52.3780  154.0840   28.4480 C   0  0  0  0  0  0  0  0  0  0  0  0
   52.3870  152.9210   28.8450 O   0  0  0  0  0  0  0  0  0  0  0  0
   51.7450  155.1490   29.2610 C   0  0  0  0  0  0  0  0  0  0  0  0
   51.1890  154.7720   30.4680 O   0  0  0  0  0  0  0  0  0  0  0  0
   49.8770  157.4560   30.0400 C   0  0  0  0  0  0  0  0  0  0  0  0
   49.3140  158.5140   30.7570 C   0  0  0  0  0  0  0  0  0  0  0  0
   50.0340  159.6980   30.9830 C   0  0  0  0  0  0  0  0  0  0  0  0
   49.3820  160.8250   31.7510 C   0  0  0  0  0  0  0  0  0  0  0  0
   48.4620  161.5200   31.0200 F   0  0  0  0  0  0  0  0  0  0  0  0
   48.7160  160.4020   32.8610 F   0  0  0  0  0  0  0  0  0  0  0  0
   52.2921  161.2220   31.7583 H   0  0  0  0  0  0  0  0  0  0  0  0
   53.1623  160.9056   30.2191 H   0  0  0  0  0  0  0  0  0  0  0  0
   51.6744  161.9120   30.2191 H   0  0  0  0  0  0  0  0  0  0  0  0
   52.9216  158.8167   29.3628 H   0  0  0  0  0  0  0  0  0  0  0  0
   53.4610  157.2925   25.3132 H   0  0  0  0  0  0  0  0  0  0  0  0
   54.5566  155.6254   23.8113 H   0  0  0  0  0  0  0  0  0  0  0  0
   54.6443  153.2189   24.4685 H   0  0  0  0  0  0  0  0  0  0  0  0
   54.1630  151.6320   26.0730 H   0  0  0  0  0  0  0  0  0  0  0  0
   50.3890  154.2830   30.4840 H   0  0  0  0  0  0  0  0  0  0  0  0
   49.2954  156.5357   29.8823 H   0  0  0  0  0  0  0  0  0  0  0  0
   48.2913  158.4183   31.1505 H   0  0  0  0  0  0  0  0  0  0  0  0
   50.2366  161.4641   32.0178 H   0  0  0  0  0  0  0  0  0  0  0  0
  1  2  1  0
  2  3  2  0
  3  4  1  0
  4  5  1  0
  5  6  1  0
  6  7  1  0
  7  8  2  0
  8  9  1  0
  9 10  2  0
 10 11  1  0
 11 12  1  0
 11 13  2  0
 13 14  1  0
 14 15  2  0
 14 16  1  0
 16 17  1  0
  4 18  2  0
 18 19  1  0
 19 20  2  0
 20 21  1  0
 21 22  1  0
 21 23  1  0
 20  2  1  0
 16  5  2  0
 13  7  1  0
  1 24  1  0
  1 25  1  0
  1 26  1  0
  3 27  1  0
  8 28  1  0
  9 29  1  0
 10 30  1  0
 12 31  1  0
 17 32  1  0
 18 33  1  0
 19 34  1  0
 21 35  1  0
M  END
>  <meeko>  (1) 
{"is_sidechain": [false], "free_energy": -11.027, "intermolecular_energy": -12.961, "internal_energy": -0.22}

$$$$
cand_016_out
     RDKit          3D

 35 37  0  0  0  0  0  0  0  0999 V2000
   48.2180  158.8660   31.2960 C   0  0  0  0  0  0  0  0  0  0  0  0
   49.6270  158.8690   30.7670 C   0  0  0  0  0  0  0  0  0  0  0  0
   50.0920  157.7420   30.0640 C   0  0  0  0  0  0  0  0  0  0  0  0
   51.3910  157.6880   29.5390 C   0  0  0  0  0  0  0  0  0  0  0  0
   51.8760  156.5140   28.7830 C   0  0  0  0  0  0  0  0  0  0  0  0
   52.4750  156.8570   27.5760 O   0  0  0  0  0  0  0  0  0  0  0  0
   52.9700  155.8610   26.7750 C   0  0  0  0  0  0  0  0  0  0  0  0
   53.5490  156.2490   25.5660 C   0  0  0  0  0  0  0  0  0  0  0  0
   54.0730  155.2840   24.7020 C   0  0  0  0  0  0  0  0  0  0  0  0
   54.0180  153.9330   25.0480 C   0  0  0  0  0  0  0  0  0  0  0  0
   53.4400  153.5470   26.2550 C   0  0  0  0  0  0  0  0  0  0  0  0
   53.4210  152.2080   26.5310 O   0  0  0  0  0  0  0  0  0  0  0  0
   52.9150  154.5130   27.1180 C   0  0  0  0  0  0  0  0  0  0  0  0
   52.2990  154.1510   28.3950 C   0  0  0  0  0  0  0  0  0  0  0  0
   52.2200  152.9840   28.7730 O   0  0  0  0  0  0  0  0  0  0  0  0
   51.7650  155.2500   29.2330 C   0  0  0  0  0  0  0  0  0  0  0  0
   51.1970  154.8990   30.4440 O   0  0  0  0  0  0  0  0  0  0  0  0
   52.2240  158.7990   29.7080 C   0  0  0  0  0  0  0  0  0  0  0  0
   51.7750  159.9300   30.3950 C   0  0  0  0  0  0  0  0  0  0  0  0
   50.4760  159.9840   30.9260 C   0  0  0  0  0  0  0  0  0  0  0  0
   50.0340  161.2210   31.6760 C   0  0  0  0  0  0  0  0  0  0  0  0
   48.8910  161.7770   31.1800 F   0  0  0  0  0  0  0  0  0  0  0  0
   49.7800  160.9860   32.9930 F   0  0  0  0  0  0  0  0  0  0  0  0
   48.2393  158.8660   32.3958 H   0  0  0  0  0  0  0  0  0  0  0  0
   47.6905  159.7630   30.9394 H   0  0  0  0  0  0  0  0  0  0  0  0
   47.6944  157.9667   30.9394 H   0  0  0  0  0  0  0  0  0  0  0  0
   49.4200  156.8826   29.9230 H   0  0  0  0  0  0  0  0  0  0  0  0
   53.5928  157.3138   25.2934 H   0  0  0  0  0  0  0  0  0  0  0  0
   54.5291  155.5892   23.7487 H   0  0  0  0  0  0  0  0  0  0  0  0
   54.4309  153.1735   24.3678 H   0  0  0  0  0  0  0  0  0  0  0  0
   52.7030  151.8370   27.0050 H   0  0  0  0  0  0  0  0  0  0  0  0
   51.2500  155.4850   31.1740 H   0  0  0  0  0  0  0  0  0  0  0  0
   53.2436  158.7822   29.2956 H   0  0  0  0  0  0  0  0  0  0  0  0
   52.4487  160.7903   30.5217 H   0  0  0  0  0  0  0  0  0  0  0  0
   50.8889  161.9017   31.5501 H   0  0  0  0  0  0  0  0  0  0  0  0
  1  2  1  0
  2  3  2  0
  3  4  1  0
  4  5  1  0
  5  6  1  0
  6  7  1  0
  7  8  2  0
  8  9  1  0
  9 10  2  0
 10 11  1  0
 11 12  1  0
 11 13  2  0
 13 14  1  0
 14 15  2  0
 14 16  1  0
 16 17  1  0
  4 18  2  0
 18 19  1  0
 19 20  2  0
 20 21  1  0
 21 22  1  0
 21 23  1  0
 20  2  1  0
 16  5  2  0
 13  7  1  0
  1 24  1  0
  1 25  1  0
  1 26  1  0
  3 27  1  0
  8 28  1  0
  9 29  1  0
 10 30  1  0
 12 31  1  0
 17 32  1  0
 18 33  1  0
 19 34  1  0
 21 35  1  0
M  END
>  <meeko>  (2) 
{"is_sidechain": [false], "free_energy": -10.965, "intermolecular_energy": -13.011, "internal_energy": -0.096}

$$$$
cand_016_out
     RDKit          3D

 35 37  0  0  0  0  0  0  0  0999 V2000
   53.7110  155.3810   25.3250 C   0  0  0  0  0  0  0  0  0  0  0  0
   52.9750  155.2270   26.6280 C   0  0  0  0  0  0  0  0  0  0  0  0
   52.6200  156.3820   27.3500 C   0  0  0  0  0  0  0  0  0  0  0  0
   51.9260  156.3050   28.5660 C   0  0  0  0  0  0  0  0  0  0  0  0
   51.5340  157.5170   29.3150 C   0  0  0  0  0  0  0  0  0  0  0  0
   50.2090  157.4900   29.7330 O   0  0  0  0  0  0  0  0  0  0  0  0
   49.7150  158.5550   30.4410 C   0  0  0  0  0  0  0  0  0  0  0  0
   48.3750  158.4950   30.8250 C   0  0  0  0  0  0  0  0  0  0  0  0
   47.8090  159.5460   31.5500 C   0  0  0  0  0  0  0  0  0  0  0  0
   48.5830  160.6570   31.8890 C   0  0  0  0  0  0  0  0  0  0  0  0
   49.9190  160.7170   31.5040 C   0  0  0  0  0  0  0  0  0  0  0  0
   50.6190  161.8330   31.8710 O   0  0  0  0  0  0  0  0  0  0  0  0
   50.4850  159.6640   30.7790 C   0  0  0  0  0  0  0  0  0  0  0  0
   51.8850  159.6870   30.3540 C   0  0  0  0  0  0  0  0  0  0  0  0
   52.6330  160.6260   30.6210 O   0  0  0  0  0  0  0  0  0  0  0  0
   52.3860  158.5260   29.5820 C   0  0  0  0  0  0  0  0  0  0  0  0
   53.7130  158.5500   29.1980 O   0  0  0  0  0  0  0  0  0  0  0  0
   51.5650  155.0420   29.0460 C   0  0  0  0  0  0  0  0  0  0  0  0
   51.9010  153.8860   28.3380 C   0  0  0  0  0  0  0  0  0  0  0  0
   52.6010  153.9600   27.1220 C   0  0  0  0  0  0  0  0  0  0  0  0
   52.9580  152.6840   26.3950 C   0  0  0  0  0  0  0  0  0  0  0  0
   54.2540  152.2980   26.5810 F   0  0  0  0  0  0  0  0  0  0  0  0
   52.2040  151.6180   26.7810 F   0  0  0  0  0  0  0  0  0  0  0  0
   54.7696  155.6025   25.5258 H   0  0  0  0  0  0  0  0  0  0  0  0
   53.6347  154.4474   24.7482 H   0  0  0  0  0  0  0  0  0  0  0  0
   53.2668  156.2057   24.7482 H   0  0  0  0  0  0  0  0  0  0  0  0
   52.8938  157.3696   26.9504 H   0  0  0  0  0  0  0  0  0  0  0  0
   47.7645  157.6202   30.5568 H   0  0  0  0  0  0  0  0  0  0  0  0
   46.7529  159.4982   31.8540 H   0  0  0  0  0  0  0  0  0  0  0  0
   48.1372  161.4847   32.4602 H   0  0  0  0  0  0  0  0  0  0  0  0
   50.6290  162.1080   32.7670 H   0  0  0  0  0  0  0  0  0  0  0  0
   54.0560  159.2960   28.7450 H   0  0  0  0  0  0  0  0  0  0  0  0
   51.0100  154.9581   29.9920 H   0  0  0  0  0  0  0  0  0  0  0  0
   51.6133  152.9027   28.7384 H   0  0  0  0  0  0  0  0  0  0  0  0
   52.7716  152.9428   25.3422 H   0  0  0  0  0  0  0  0  0  0  0  0
  1  2  1  0
  2  3  2  0
  3  4  1  0
  4  5  1  0
  5  6  1  0
  6  7  1  0
  7  8  2  0
  8  9  1  0
  9 10  2  0
 10 11  1  0
 11 12  1  0
 11 13  2  0
 13 14  1  0
 14 15  2  0
 14 16  1  0
 16 17  1  0
  4 18  2  0
 18 19  1  0
 19 20  2  0
 20 21  1  0
 21 22  1  0
 21 23  1  0
 20  2  1  0
 16  5  2  0
 13  7  1  0
  1 24  1  0
  1 25  1  0
  1 26  1  0
  3 27  1  0
  8 28  1  0
  9 29  1  0
 10 30  1  0
 12 31  1  0
 17 32  1  0
 18 33  1  0
 19 34  1  0
 21 35  1  0
M  END
>  <meeko>  (3) 
{"is_sidechain": [false], "free_energy": -10.329, "intermolecular_energy": -12.104, "internal_energy": -0.255}

$$$$
cand_016_out
     RDKit          3D

 35 37  0  0  0  0  0  0  0  0999 V2000
   53.7910  155.9830   25.4750 C   0  0  0  0  0  0  0  0  0  0  0  0
   53.0280  155.6080   26.7170 C   0  0  0  0  0  0  0  0  0  0  0  0
   52.4480  156.6280   27.4940 C   0  0  0  0  0  0  0  0  0  0  0  0
   51.7180  156.3430   28.6560 C   0  0  0  0  0  0  0  0  0  0  0  0
   51.0910  157.4120   29.4620 C   0  0  0  0  0  0  0  0  0  0  0  0
   51.9480  158.4780   29.7070 O   0  0  0  0  0  0  0  0  0  0  0  0
   51.4920  159.5400   30.4440 C   0  0  0  0  0  0  0  0  0  0  0  0
   52.3910  160.5810   30.6800 C   0  0  0  0  0  0  0  0  0  0  0  0
   51.9900  161.6930   31.4240 C   0  0  0  0  0  0  0  0  0  0  0  0
   50.6910  161.7650   31.9310 C   0  0  0  0  0  0  0  0  0  0  0  0
   49.7960  160.7250   31.6950 C   0  0  0  0  0  0  0  0  0  0  0  0
   48.5400  160.8600   32.2190 O   0  0  0  0  0  0  0  0  0  0  0  0
   50.1980  159.6120   30.9510 C   0  0  0  0  0  0  0  0  0  0  0  0
   49.2880  158.4970   30.6800 C   0  0  0  0  0  0  0  0  0  0  0  0
   48.1280  158.4900   31.0860 O   0  0  0  0  0  0  0  0  0  0  0  0
   49.8150  157.3610   29.8890 C   0  0  0  0  0  0  0  0  0  0  0  0
   48.9450  156.3200   29.6270 O   0  0  0  0  0  0  0  0  0  0  0  0
   51.5510  155.0040   29.0250 C   0  0  0  0  0  0  0  0  0  0  0  0
   52.1120  153.9780   28.2600 C   0  0  0  0  0  0  0  0  0  0  0  0
   52.8480  154.2620   27.0980 C   0  0  0  0  0  0  0  0  0  0  0  0
   53.4510  153.1230   26.3080 C   0  0  0  0  0  0  0  0  0  0  0  0
   54.5360  152.5570   26.9120 F   0  0  0  0  0  0  0  0  0  0  0  0
   52.5790  152.0970   26.0970 F   0  0  0  0  0  0  0  0  0  0  0  0
   54.7449  156.4518   25.7582 H   0  0  0  0  0  0  0  0  0  0  0  0
   53.9890  155.0796   24.8795 H   0  0  0  0  0  0  0  0  0  0  0  0
   53.1967  156.6917   24.8795 H   0  0  0  0  0  0  0  0  0  0  0  0
   52.5707  157.6755   27.1814 H   0  0  0  0  0  0  0  0  0  0  0  0
   53.4144  160.5258   30.2805 H   0  0  0  0  0  0  0  0  0  0  0  0
   52.6987  162.5133   31.6108 H   0  0  0  0  0  0  0  0  0  0  0  0
   50.3754  162.6417   32.5157 H   0  0  0  0  0  0  0  0  0  0  0  0
   48.4180  160.8680   33.1490 H   0  0  0  0  0  0  0  0  0  0  0  0
   48.9420  155.5610   30.1780 H   0  0  0  0  0  0  0  0  0  0  0  0
   50.9720  154.7562   29.9268 H   0  0  0  0  0  0  0  0  0  0  0  0
   51.9751  152.9323   28.5726 H   0  0  0  0  0  0  0  0  0  0  0  0
   53.7355  153.6064   25.3618 H   0  0  0  0  0  0  0  0  0  0  0  0
  1  2  1  0
  2  3  2  0
  3  4  1  0
  4  5  1  0
  5  6  1  0
  6  7  1  0
  7  8  2  0
  8  9  1  0
  9 10  2  0
 10 11  1  0
 11 12  1  0
 11 13  2  0
 13 14  1  0
 14 15  2  0
 14 16  1  0
 16 17  1  0
  4 18  2  0
 18 19  1  0
 19 20  2  0
 20 21  1  0
 21 22  1  0
 21 23  1  0
 20  2  1  0
 16  5  2  0
 13  7  1  0
  1 24  1  0
  1 25  1  0
  1 26  1  0
  3 27  1  0
  8 28  1  0
  9 29  1  0
 10 30  1  0
 12 31  1  0
 17 32  1  0
 18 33  1  0
 19 34  1  0
 21 35  1  0
M  END
>  <meeko>  (4) 
{"is_sidechain": [false], "free_energy": -9.226, "intermolecular_energy": -10.881, "internal_energy": -0.183}

$$$$
cand_016_out
     RDKit          3D

 35 37  0  0  0  0  0  0  0  0999 V2000
   51.8860  152.8060   28.1960 C   0  0  0  0  0  0  0  0  0  0  0  0
   52.1450  154.2640   27.9270 C   0  0  0  0  0  0  0  0  0  0  0  0
   51.5440  155.2260   28.7590 C   0  0  0  0  0  0  0  0  0  0  0  0
   51.7530  156.5990   28.5660 C   0  0  0  0  0  0  0  0  0  0  0  0
   51.1390  157.6110   29.4510 C   0  0  0  0  0  0  0  0  0  0  0  0
   51.9720  158.6980   29.6900 O   0  0  0  0  0  0  0  0  0  0  0  0
   51.5240  159.7120   30.4970 C   0  0  0  0  0  0  0  0  0  0  0  0
   52.3990  160.7760   30.7230 C   0  0  0  0  0  0  0  0  0  0  0  0
   52.0050  161.8420   31.5340 C   0  0  0  0  0  0  0  0  0  0  0  0
   50.7370  161.8450   32.1190 C   0  0  0  0  0  0  0  0  0  0  0  0
   49.8650  160.7830   31.8920 C   0  0  0  0  0  0  0  0  0  0  0  0
   48.6400  160.8500   32.4940 O   0  0  0  0  0  0  0  0  0  0  0  0
   50.2610  159.7160   31.0800 C   0  0  0  0  0  0  0  0  0  0  0  0
   49.3760  158.5800   30.8170 C   0  0  0  0  0  0  0  0  0  0  0  0
   48.2430  158.5130   31.2890 O   0  0  0  0  0  0  0  0  0  0  0  0
   49.8930  157.4960   29.9500 C   0  0  0  0  0  0  0  0  0  0  0  0
   49.0460  156.4340   29.6960 O   0  0  0  0  0  0  0  0  0  0  0  0
   52.6010  157.0030   27.5300 C   0  0  0  0  0  0  0  0  0  0  0  0
   53.2140  156.0610   26.7010 C   0  0  0  0  0  0  0  0  0  0  0  0
   53.0020  154.6850   26.8890 C   0  0  0  0  0  0  0  0  0  0  0  0
   53.6720  153.6990   25.9600 C   0  0  0  0  0  0  0  0  0  0  0  0
   52.8060  153.0910   25.0980 F   0  0  0  0  0  0  0  0  0  0  0  0
   54.6270  154.2680   25.1730 F   0  0  0  0  0  0  0  0  0  0  0  0
   51.8553  152.6333   29.2819 H   0  0  0  0  0  0  0  0  0  0  0  0
   50.9224  152.5166   27.7513 H   0  0  0  0  0  0  0  0  0  0  0  0
   52.6910  152.2025   27.7513 H   0  0  0  0  0  0  0  0  0  0  0  0
   50.8939  154.8928   29.5814 H   0  0  0  0  0  0  0  0  0  0  0  0
   53.3980  160.7745   30.2625 H   0  0  0  0  0  0  0  0  0  0  0  0
   52.6943  162.6805   31.7124 H   0  0  0  0  0  0  0  0  0  0  0  0
   50.4273  162.6850   32.7582 H   0  0  0  0  0  0  0  0  0  0  0  0
   48.0040  160.1790   32.3400 H   0  0  0  0  0  0  0  0  0  0  0  0
   48.2860  156.5590   29.1610 H   0  0  0  0  0  0  0  0  0  0  0  0
   52.7873  158.0747   27.3662 H   0  0  0  0  0  0  0  0  0  0  0  0
   53.8728  156.4016   25.8886 H   0  0  0  0  0  0  0  0  0  0  0  0
   54.1123  152.9689   26.6551 H   0  0  0  0  0  0  0  0  0  0  0  0
  1  2  1  0
  2  3  2  0
  3  4  1  0
  4  5  1  0
  5  6  1  0
  6  7  1  0
  7  8  2  0
  8  9  1  0
  9 10  2  0
 10 11  1  0
 11 12  1  0
 11 13  2  0
 13 14  1  0
 14 15  2  0
 14 16  1  0
 16 17  1  0
  4 18  2  0
 18 19  1  0
 19 20  2  0
 20 21  1  0
 21 22  1  0
 21 23  1  0
 20  2  1  0
 16  5  2  0
 13  7  1  0
  1 24  1  0
  1 25  1  0
  1 26  1  0
  3 27  1  0
  8 28  1  0
  9 29  1  0
 10 30  1  0
 12 31  1  0
 17 32  1  0
 18 33  1  0
 19 34  1  0
 21 35  1  0
M  END
>  <meeko>  (5) 
{"is_sidechain": [false], "free_energy": -8.743, "intermolecular_energy": -10.385, "internal_energy": -0.111}

$$$$
cand_016_out
     RDKit          3D

 35 37  0  0  0  0  0  0  0  0999 V2000
   51.9530  159.3900   30.0110 C   0  0  0  0  0  0  0  0  0  0  0  0
   51.3640  158.0590   29.6300 C   0  0  0  0  0  0  0  0  0  0  0  0
   52.0550  157.2470   28.7120 C   0  0  0  0  0  0  0  0  0  0  0  0
   51.5630  155.9920   28.3230 C   0  0  0  0  0  0  0  0  0  0  0  0
   52.2980  155.1290   27.3750 C   0  0  0  0  0  0  0  0  0  0  0  0
   51.9470  153.7880   27.4810 O   0  0  0  0  0  0  0  0  0  0  0  0
   52.5540  152.8770   26.6560 C   0  0  0  0  0  0  0  0  0  0  0  0
   52.1840  151.5400   26.8070 C   0  0  0  0  0  0  0  0  0  0  0  0
   52.7640  150.5600   25.9980 C   0  0  0  0  0  0  0  0  0  0  0  0
   53.7140  150.9170   25.0390 C   0  0  0  0  0  0  0  0  0  0  0  0
   54.0820  152.2510   24.8900 C   0  0  0  0  0  0  0  0  0  0  0  0
   55.0160  152.5310   23.9310 O   0  0  0  0  0  0  0  0  0  0  0  0
   53.5010  153.2310   25.7000 C   0  0  0  0  0  0  0  0  0  0  0  0
   53.8600  154.6450   25.5760 C   0  0  0  0  0  0  0  0  0  0  0  0
   54.6820  155.0390   24.7510 O   0  0  0  0  0  0  0  0  0  0  0  0
   53.1940  155.6030   26.4890 C   0  0  0  0  0  0  0  0  0  0  0  0
   53.5290  156.9370   26.3550 O   0  0  0  0  0  0  0  0  0  0  0  0
   50.3660  155.5440   28.8900 C   0  0  0  0  0  0  0  0  0  0  0  0
   49.6710  156.3330   29.8100 C   0  0  0  0  0  0  0  0  0  0  0  0
   50.1600  157.5910   30.1970 C   0  0  0  0  0  0  0  0  0  0  0  0
   49.3700  158.4200   31.1840 C   0  0  0  0  0  0  0  0  0  0  0  0
   50.0480  159.5140   31.6390 F   0  0  0  0  0  0  0  0  0  0  0  0
   48.2070  158.9050   30.6660 F   0  0  0  0  0  0  0  0  0  0  0  0
   51.9903  159.4742   31.1071 H   0  0  0  0  0  0  0  0  0  0  0  0
   52.9710  159.4710   29.6022 H   0  0  0  0  0  0  0  0  0  0  0  0
   51.3284  160.1979   29.6022 H   0  0  0  0  0  0  0  0  0  0  0  0
   53.0050  157.6051   28.2886 H   0  0  0  0  0  0  0  0  0  0  0  0
   51.4360  151.2579   27.5626 H   0  0  0  0  0  0  0  0  0  0  0  0
   52.4721  149.5061   26.1165 H   0  0  0  0  0  0  0  0  0  0  0  0
   54.1709  150.1451   24.4022 H   0  0  0  0  0  0  0  0  0  0  0  0
   55.2560  153.4200   23.7540 H   0  0  0  0  0  0  0  0  0  0  0  0
   54.0480  157.3580   27.0130 H   0  0  0  0  0  0  0  0  0  0  0  0
   49.9667  154.5585   28.6083 H   0  0  0  0  0  0  0  0  0  0  0  0
   48.7272  155.9633   30.2373 H   0  0  0  0  0  0  0  0  0  0  0  0
   49.1767  157.7091   32.0008 H   0  0  0  0  0  0  0  0  0  0  0  0
  1  2  1  0
  2  3  2  0
  3  4  1  0
  4  5  1  0
  5  6  1  0
  6  7  1  0
  7  8  2  0
  8  9  1  0
  9 10  2  0
 10 11  1  0
 11 12  1  0
 11 13  2  0
 13 14  1  0
 14 15  2  0
 14 16  1  0
 16 17  1  0
  4 18  2  0
 18 19  1  0
 19 20  2  0
 20 21  1  0
 21 22  1  0
 21 23  1  0
 20  2  1  0
 16  5  2  0
 13  7  1  0
  1 24  1  0
  1 25  1  0
  1 26  1  0
  3 27  1  0
  8 28  1  0
  9 29  1  0
 10 30  1  0
 12 31  1  0
 17 32  1  0
 18 33  1  0
 19 34  1  0
 21 35  1  0
M  END
>  <meeko>  (6) 
{"is_sidechain": [false], "free_energy": -8.428, "intermolecular_energy": -10.817, "internal_energy": 0.691}

$$$$
cand_016_out
     RDKit          3D

 35 37  0  0  0  0  0  0  0  0999 V2000
   49.0140  156.9670   30.2560 C   0  0  0  0  0  0  0  0  0  0  0  0
   50.3800  157.1610   29.6550 C   0  0  0  0  0  0  0  0  0  0  0  0
   50.8800  156.1860   28.7730 C   0  0  0  0  0  0  0  0  0  0  0  0
   52.1410  156.3130   28.1730 C   0  0  0  0  0  0  0  0  0  0  0  0
   52.6600  155.3000   27.2300 C   0  0  0  0  0  0  0  0  0  0  0  0
   52.2110  154.0150   27.5160 O   0  0  0  0  0  0  0  0  0  0  0  0
   52.6180  152.9790   26.7160 C   0  0  0  0  0  0  0  0  0  0  0  0
   52.1580  151.7040   27.0480 C   0  0  0  0  0  0  0  0  0  0  0  0
   52.5330  150.6030   26.2750 C   0  0  0  0  0  0  0  0  0  0  0  0
   53.3680  150.7770   25.1700 C   0  0  0  0  0  0  0  0  0  0  0  0
   53.8270  152.0500   24.8400 C   0  0  0  0  0  0  0  0  0  0  0  0
   54.6400  152.1490   23.7450 O   0  0  0  0  0  0  0  0  0  0  0  0
   53.4510  153.1510   25.6150 C   0  0  0  0  0  0  0  0  0  0  0  0
   53.9110  154.5050   25.3030 C   0  0  0  0  0  0  0  0  0  0  0  0
   54.6410  154.7410   24.3430 O   0  0  0  0  0  0  0  0  0  0  0  0
   53.4620  155.6020   26.1920 C   0  0  0  0  0  0  0  0  0  0  0  0
   53.8900  156.8790   25.8810 O   0  0  0  0  0  0  0  0  0  0  0  0
   52.8970  157.4560   28.4530 C   0  0  0  0  0  0  0  0  0  0  0  0
   52.4130  158.4390   29.3200 C   0  0  0  0  0  0  0  0  0  0  0  0
   51.1510  158.3110   29.9250 C   0  0  0  0  0  0  0  0  0  0  0  0
   50.6700  159.3900   30.8680 C   0  0  0  0  0  0  0  0  0  0  0  0
   51.6600  160.2370   31.2740 F   0  0  0  0  0  0  0  0  0  0  0  0
   49.7120  160.1890   30.3230 F   0  0  0  0  0  0  0  0  0  0  0  0
   49.0912  156.9780   31.3532 H   0  0  0  0  0  0  0  0  0  0  0  0
   48.3499  157.7798   29.9270 H   0  0  0  0  0  0  0  0  0  0  0  0
   48.6024  156.0014   29.9270 H   0  0  0  0  0  0  0  0  0  0  0  0
   50.2661  155.3013   28.5482 H   0  0  0  0  0  0  0  0  0  0  0  0
   51.5000  151.5662   27.9186 H   0  0  0  0  0  0  0  0  0  0  0  0
   52.1702  149.5982   26.5370 H   0  0  0  0  0  0  0  0  0  0  0  0
   53.6631  149.9100   24.5607 H   0  0  0  0  0  0  0  0  0  0  0  0
   54.4720  152.8010   23.0930 H   0  0  0  0  0  0  0  0  0  0  0  0
   53.4150  157.6230   26.1980 H   0  0  0  0  0  0  0  0  0  0  0  0
   53.8844  157.5825   27.9850 H   0  0  0  0  0  0  0  0  0  0  0  0
   53.0285  159.3257   29.5320 H   0  0  0  0  0  0  0  0  0  0  0  0
   50.2731  158.8134   31.7165 H   0  0  0  0  0  0  0  0  0  0  0  0
  1  2  1  0
  2  3  2  0
  3  4  1  0
  4  5  1  0
  5  6  1  0
  6  7  1  0
  7  8  2  0
  8  9  1  0
  9 10  2  0
 10 11  1  0
 11 12  1  0
 11 13  2  0
 13 14  1  0
 14 15  2  0
 14 16  1  0
 16 17  1  0
  4 18  2  0
 18 19  1  0
 19 20  2  0
 20 21  1  0
 21 22  1  0
 21 23  1  0
 20  2  1  0
 16  5  2  0
 13  7  1  0
  1 24  1  0
  1 25  1  0
  1 26  1  0
  3 27  1  0
  8 28  1  0
  9 29  1  0
 10 30  1  0
 12 31  1  0
 17 32  1  0
 18 33  1  0
 19 34  1  0
 21 35  1  0
M  END
>  <meeko>  (7) 
{"is_sidechain": [false], "free_energy": -8.291, "intermolecular_energy": -9.974, "internal_energy": 0.009}

$$$$
