cand_021_out
     RDKit          3D

 36 38  0  0  0  0  0  0  0  0999 V2000
   47.4030  159.6040   30.9280 C   0  0  0  0  0  0  0  0  0  0  0  0
   48.3930  158.8550   31.4300 C   0  0  0  0  0  0  0  0  0  0  0  0
   49.7450  158.8400   30.8580 C   0  0  0  0  0  0  0  0  0  0  0  0
   50.1710  157.7100   30.1360 C   0  0  0  0  0  0  0  0  0  0  0  0
   51.4480  157.6460   29.5610 C   0  0  0  0  0  0  0  0  0  0  0  0
   51.8920  156.4690   28.7870 C   0  0  0  0  0  0  0  0  0  0  0  0
   52.4830  156.8080   27.5760 O   0  0  0  0  0  0  0  0  0  0  0  0
   52.9390  155.8060   26.7570 C   0  0  0  0  0  0  0  0  0  0  0  0
   53.5110  156.1910   25.5440 C   0  0  0  0  0  0  0  0  0  0  0  0
   53.9970  155.2200   24.6650 C   0  0  0  0  0  0  0  0  0  0  0  0
   53.9120  153.8680   24.9990 C   0  0  0  0  0  0  0  0  0  0  0  0
   53.3400  153.4870   26.2110 C   0  0  0  0  0  0  0  0  0  0  0  0
   53.2890  152.1460   26.4740 O   0  0  0  0  0  0  0  0  0  0  0  0
   52.8530  154.4580   27.0890 C   0  0  0  0  0  0  0  0  0  0  0  0
   52.2460  154.1010   28.3720 C   0  0  0  0  0  0  0  0  0  0  0  0
   52.1410  152.9320   28.7410 O   0  0  0  0  0  0  0  0  0  0  0  0
   51.7540  155.2040   29.2280 C   0  0  0  0  0  0  0  0  0  0  0  0
   51.1940  154.8580   30.4440 O   0  0  0  0  0  0  0  0  0  0  0  0
   52.2960  158.7520   29.6960 C   0  0  0  0  0  0  0  0  0  0  0  0
   51.8840  159.8830   30.4040 C   0  0  0  0  0  0  0  0  0  0  0  0
   50.6090  159.9420   30.9930 C   0  0  0  0  0  0  0  0  0  0  0  0
   50.2030  161.1720   31.7680 C   0  0  0  0  0  0  0  0  0  0  0  0
   51.1940  162.1050   31.8350 F   0  0  0  0  0  0  0  0  0  0  0  0
   49.8700  160.9070   33.0660 F   0  0  0  0  0  0  0  0  0  0  0  0
   46.4061  159.5809   31.3924 H   0  0  0  0  0  0  0  0  0  0  0  0
   47.5866  160.2424   30.0512 H   0  0  0  0  0  0  0  0  0  0  0  0
   48.1846  158.2249   32.3072 H   0  0  0  0  0  0  0  0  0  0  0  0
   49.4862  156.8570   30.0200 H   0  0  0  0  0  0  0  0  0  0  0  0
   53.5791  157.2568   25.2804 H   0  0  0  0  0  0  0  0  0  0  0  0
   54.4475  155.5219   23.7079 H   0  0  0  0  0  0  0  0  0  0  0  0
   54.2959  153.1042   24.3067 H   0  0  0  0  0  0  0  0  0  0  0  0
   52.6370  151.8060   27.0570 H   0  0  0  0  0  0  0  0  0  0  0  0
   50.9390  155.5260   31.0500 H   0  0  0  0  0  0  0  0  0  0  0  0
   53.2967  158.7298   29.2398 H   0  0  0  0  0  0  0  0  0  0  0  0
   52.5668  160.7398   30.5022 H   0  0  0  0  0  0  0  0  0  0  0  0
   49.3341  161.5464   31.2068 H   0  0  0  0  0  0  0  0  0  0  0  0
  1  2  2  0
  2  3  1  0
  3  4  2  0
  4  5  1  0
  5  6  1  0
  6  7  1  0
  7  8  1  0
  8  9  2  0
  9 10  1  0
 10 11  2  0
 11 12  1  0
 12 13  1  0
 12 14  2  0
 14 15  1  0
 15 16  2  0
 15 17  1  0
 17 18  1  0
  5 19  2  0
 19 20  1  0
 20 21  2  0
 21 22  1  0
 22 23  1  0
 22 24  1  0
 21  3  1  0
 17  6  2  0
 14  8  1  0
  1 25  1  0
  1 26  1  0
  2 27  1  0
  4 28  1  0
  9 29  1  0
 10 30  1  0
 11 31  1  0
 13 32  1  0
 18 33  1  0
 19 34  1  0
 20 35  1  0
 22 36  1  0
M  END
>  <meeko>  (1) 
{"is_sidechain": [false], "free_energy": -10.839, "intermolecular_energy": -13.373, "internal_energy": -0.106}

$$$$
cand_021_out
     RDKit          3D

 36 38  0  0  0  0  0  0  0  0999 V2000
   52.8300  161.5190   30.5420 C   0  0  0  0  0  0  0  0  0  0  0  0
   51.7890  161.0530   31.2430 C   0  0  0  0  0  0  0  0  0  0  0  0
   51.0120  159.8790   30.8240 C   0  0  0  0  0  0  0  0  0  0  0  0
   51.6500  158.8610   30.0920 C   0  0  0  0  0  0  0  0  0  0  0  0
   50.9580  157.7150   29.6740 C   0  0  0  0  0  0  0  0  0  0  0  0
   51.6300  156.6360   28.9220 C   0  0  0  0  0  0  0  0  0  0  0  0
   52.2010  157.0780   27.7340 O   0  0  0  0  0  0  0  0  0  0  0  0
   52.8560  156.1740   26.9370 C   0  0  0  0  0  0  0  0  0  0  0  0
   53.4000  156.6570   25.7460 C   0  0  0  0  0  0  0  0  0  0  0  0
   54.0820  155.7890   24.8900 C   0  0  0  0  0  0  0  0  0  0  0  0
   54.2200  154.4410   25.2240 C   0  0  0  0  0  0  0  0  0  0  0  0
   53.6760  153.9610   26.4140 C   0  0  0  0  0  0  0  0  0  0  0  0
   53.8480  152.6310   26.6790 O   0  0  0  0  0  0  0  0  0  0  0  0
   52.9930  154.8290   27.2690 C   0  0  0  0  0  0  0  0  0  0  0  0
   52.4070  154.3670   28.5280 C   0  0  0  0  0  0  0  0  0  0  0  0
   52.4920  153.1970   28.8960 O   0  0  0  0  0  0  0  0  0  0  0  0
   51.6970  155.3650   29.3600 C   0  0  0  0  0  0  0  0  0  0  0  0
   51.1580  154.9220   30.5540 O   0  0  0  0  0  0  0  0  0  0  0  0
   49.6090  157.5870   30.0240 C   0  0  0  0  0  0  0  0  0  0  0  0
   48.9640  158.5870   30.7560 C   0  0  0  0  0  0  0  0  0  0  0  0
   49.6530  159.7420   31.1630 C   0  0  0  0  0  0  0  0  0  0  0  0
   48.9220  160.8130   31.9350 C   0  0  0  0  0  0  0  0  0  0  0  0
   47.7900  160.3490   32.5370 F   0  0  0  0  0  0  0  0  0  0  0  0
   48.5130  161.8580   31.1560 F   0  0  0  0  0  0  0  0  0  0  0  0
   53.3810  162.4023   30.8971 H   0  0  0  0  0  0  0  0  0  0  0  0
   53.1344  161.0185   29.6109 H   0  0  0  0  0  0  0  0  0  0  0  0
   51.5038  161.5705   32.1708 H   0  0  0  0  0  0  0  0  0  0  0  0
   52.7160  158.9663   29.8418 H   0  0  0  0  0  0  0  0  0  0  0  0
   53.2919  157.7193   25.4818 H   0  0  0  0  0  0  0  0  0  0  0  0
   54.5111  156.1686   23.9510 H   0  0  0  0  0  0  0  0  0  0  0  0
   54.7573  153.7584   24.5491 H   0  0  0  0  0  0  0  0  0  0  0  0
   53.2220  152.0060   26.3690 H   0  0  0  0  0  0  0  0  0  0  0  0
   50.3210  154.5000   30.5630 H   0  0  0  0  0  0  0  0  0  0  0  0
   49.0506  156.6895   29.7195 H   0  0  0  0  0  0  0  0  0  0  0  0
   47.9021  158.4685   31.0173 H   0  0  0  0  0  0  0  0  0  0  0  0
   49.6670  161.1421   32.6743 H   0  0  0  0  0  0  0  0  0  0  0  0
  1  2  2  0
  2  3  1  0
  3  4  2  0
  4  5  1  0
  5  6  1  0
  6  7  1  0
  7  8  1  0
  8  9  2  0
  9 10  1  0
 10 11  2  0
 11 12  1  0
 12 13  1  0
 12 14  2  0
 14 15  1  0
 15 16  2  0
 15 17  1  0
 17 18  1  0
  5 19  2  0
 19 20  1  0
 20 21  2  0
 21 22  1  0
 22 23  1  0
 22 24  1  0
 21  3  1  0
 17  6  2  0
 14  8  1  0
  1 25  1  0
  1 26  1  0
  2 27  1  0
  4 28  1  0
  9 29  1  0
 10 30  1  0
 11 31  1  0
 13 32  1  0
 18 33  1  0
 19 34  1  0
 20 35  1  0
 22 36  1  0
M  END
>  <meeko>  (2) 
{"is_sidechain": [false], "free_energy": -10.816, "intermolecular_energy": -12.974, "internal_energy": -0.478}

$$$$
cand_021_out
     RDKit          3D

 36 38  0  0  0  0  0  0  0  0999 V2000
   54.0640  156.4390   24.9320 C   0  0  0  0  0  0  0  0  0  0  0  0
   53.6360  155.2620   25.4050 C   0  0  0  0  0  0  0  0  0  0  0  0
   52.8880  155.1390   26.6620 C   0  0  0  0  0  0  0  0  0  0  0  0
   52.5570  156.3020   27.3800 C   0  0  0  0  0  0  0  0  0  0  0  0
   51.8360  156.2430   28.5820 C   0  0  0  0  0  0  0  0  0  0  0  0
   51.4710  157.4650   29.3270 C   0  0  0  0  0  0  0  0  0  0  0  0
   50.1540  157.4560   29.7690 O   0  0  0  0  0  0  0  0  0  0  0  0
   49.6840  158.5340   30.4750 C   0  0  0  0  0  0  0  0  0  0  0  0
   48.3500  158.4900   30.8850 C   0  0  0  0  0  0  0  0  0  0  0  0
   47.8100  159.5560   31.6100 C   0  0  0  0  0  0  0  0  0  0  0  0
   48.6020  160.6610   31.9250 C   0  0  0  0  0  0  0  0  0  0  0  0
   49.9320  160.7020   31.5150 C   0  0  0  0  0  0  0  0  0  0  0  0
   50.6500  161.8140   31.8570 O   0  0  0  0  0  0  0  0  0  0  0  0
   50.4720  159.6370   30.7890 C   0  0  0  0  0  0  0  0  0  0  0  0
   51.8650  159.6390   30.3390 C   0  0  0  0  0  0  0  0  0  0  0  0
   52.6280  160.5720   30.5830 O   0  0  0  0  0  0  0  0  0  0  0  0
   52.3380  158.4660   29.5690 C   0  0  0  0  0  0  0  0  0  0  0  0
   53.6590  158.4700   29.1600 O   0  0  0  0  0  0  0  0  0  0  0  0
   51.4230  154.9900   29.0490 C   0  0  0  0  0  0  0  0  0  0  0  0
   51.7390  153.8260   28.3440 C   0  0  0  0  0  0  0  0  0  0  0  0
   52.4740  153.8840   27.1470 C   0  0  0  0  0  0  0  0  0  0  0  0
   52.8150  152.6070   26.4200 C   0  0  0  0  0  0  0  0  0  0  0  0
   52.0410  151.5550   26.8100 F   0  0  0  0  0  0  0  0  0  0  0  0
   54.1030  152.1990   26.6200 F   0  0  0  0  0  0  0  0  0  0  0  0
   54.6213  156.4812   23.9845 H   0  0  0  0  0  0  0  0  0  0  0  0
   53.8584  157.3639   25.4908 H   0  0  0  0  0  0  0  0  0  0  0  0
   53.8536  154.3507   24.8287 H   0  0  0  0  0  0  0  0  0  0  0  0
   52.8709  157.2814   26.9898 H   0  0  0  0  0  0  0  0  0  0  0  0
   47.7257  157.6187   30.6381 H   0  0  0  0  0  0  0  0  0  0  0  0
   46.7589  159.5239   31.9328 H   0  0  0  0  0  0  0  0  0  0  0  0
   48.1760  161.4987   32.4966 H   0  0  0  0  0  0  0  0  0  0  0  0
   50.2230  162.5390   32.2700 H   0  0  0  0  0  0  0  0  0  0  0  0
   53.9280  157.9350   28.4400 H   0  0  0  0  0  0  0  0  0  0  0  0
   50.8433  154.9209   29.9813 H   0  0  0  0  0  0  0  0  0  0  0  0
   51.4082  152.8508   28.7308 H   0  0  0  0  0  0  0  0  0  0  0  0
   52.6429  152.8655   25.3647 H   0  0  0  0  0  0  0  0  0  0  0  0
  1  2  2  0
  2  3  1  0
  3  4  2  0
  4  5  1  0
  5  6  1  0
  6  7  1  0
  7  8  1  0
  8  9  2  0
  9 10  1  0
 10 11  2  0
 11 12  1  0
 12 13  1  0
 12 14  2  0
 14 15  1  0
 15 16  2  0
 15 17  1  0
 17 18  1  0
  5 19  2  0
 19 20  1  0
 20 21  2  0
 21 22  1  0
 22 23  1  0
 22 24  1  0
 21  3  1  0
 17  6  2  0
 14  8  1  0
  1 25  1  0
  1 26  1  0
  2 27  1  0
  4 28  1  0
  9 29  1  0
 10 30  1  0
 11 31  1  0
 13 32  1  0
 18 33  1  0
 19 34  1  0
 20 35  1  0
 22 36  1  0
M  END
>  <meeko>  (3) 
{"is_sidechain": [false], "free_energy": -10.686, "intermolecular_energy": -12.929, "internal_energy": -0.362}

$$$$
cand_021_out
     RDKit          3D

 36 38  0  0  0  0  0  0  0  0999 V2000
   54.1840  156.6670   25.1540 C   0  0  0  0  0  0  0  0  0  0  0  0
   53.4790  155.5510   25.3740 C   0  0  0  0  0  0  0  0  0  0  0  0
   52.8230  155.2680   26.6570 C   0  0  0  0  0  0  0  0  0  0  0  0
   52.2890  156.3340   27.4030 C   0  0  0  0  0  0  0  0  0  0  0  0
   51.6450  156.1200   28.6310 C   0  0  0  0  0  0  0  0  0  0  0  0
   51.0670  157.2360   29.4070 C   0  0  0  0  0  0  0  0  0  0  0  0
   51.9730  158.2650   29.6330 O   0  0  0  0  0  0  0  0  0  0  0  0
   51.5650  159.3640   30.3450 C   0  0  0  0  0  0  0  0  0  0  0  0
   52.5110  160.3660   30.5620 C   0  0  0  0  0  0  0  0  0  0  0  0
   52.1590  161.5130   31.2780 C   0  0  0  0  0  0  0  0  0  0  0  0
   50.8630  161.6570   31.7760 C   0  0  0  0  0  0  0  0  0  0  0  0
   49.9200  160.6550   31.5580 C   0  0  0  0  0  0  0  0  0  0  0  0
   48.6700  160.8610   32.0730 O   0  0  0  0  0  0  0  0  0  0  0  0
   50.2730  159.5080   30.8420 C   0  0  0  0  0  0  0  0  0  0  0  0
   49.3130  158.4320   30.5900 C   0  0  0  0  0  0  0  0  0  0  0  0
   48.1510  158.4870   30.9890 O   0  0  0  0  0  0  0  0  0  0  0  0
   49.7890  157.2540   29.8290 C   0  0  0  0  0  0  0  0  0  0  0  0
   48.8720  156.2490   29.5840 O   0  0  0  0  0  0  0  0  0  0  0  0
   51.5170  154.8060   29.0950 C   0  0  0  0  0  0  0  0  0  0  0  0
   52.0360  153.7370   28.3610 C   0  0  0  0  0  0  0  0  0  0  0  0
   52.6950  153.9520   27.1390 C   0  0  0  0  0  0  0  0  0  0  0  0
   53.2620  152.7770   26.3810 C   0  0  0  0  0  0  0  0  0  0  0  0
   52.5810  151.6200   26.6160 F   0  0  0  0  0  0  0  0  0  0  0  0
   54.5610  152.5020   26.7020 F   0  0  0  0  0  0  0  0  0  0  0  0
   54.6575  156.8345   24.1754 H   0  0  0  0  0  0  0  0  0  0  0  0
   54.2900  157.4169   25.9518 H   0  0  0  0  0  0  0  0  0  0  0  0
   53.3872  154.8159   24.5609 H   0  0  0  0  0  0  0  0  0  0  0  0
   52.3783  157.3593   27.0147 H   0  0  0  0  0  0  0  0  0  0  0  0
   53.5326  160.2533   30.1700 H   0  0  0  0  0  0  0  0  0  0  0  0
   52.9043  162.3037   31.4495 H   0  0  0  0  0  0  0  0  0  0  0  0
   50.5867  162.5603   32.3397 H   0  0  0  0  0  0  0  0  0  0  0  0
   47.9430  160.3630   31.7520 H   0  0  0  0  0  0  0  0  0  0  0  0
   48.1590  156.3980   28.9930 H   0  0  0  0  0  0  0  0  0  0  0  0
   51.0022  154.6130   30.0478 H   0  0  0  0  0  0  0  0  0  0  0  0
   51.9272  152.7121   28.7452 H   0  0  0  0  0  0  0  0  0  0  0  0
   53.1748  153.0905   25.3302 H   0  0  0  0  0  0  0  0  0  0  0  0
  1  2  2  0
  2  3  1  0
  3  4  2  0
  4  5  1  0
  5  6  1  0
  6  7  1  0
  7  8  1  0
  8  9  2  0
  9 10  1  0
 10 11  2  0
 11 12  1  0
 12 13  1  0
 12 14  2  0
 14 15  1  0
 15 16  2  0
 15 17  1  0
 17 18  1  0
  5 19  2  0
 19 20  1  0
 20 21  2  0
 21 22  1  0
 22 23  1  0
 22 24  1  0
 21  3  1  0
 17  6  2  0
 14  8  1  0
  1 25  1  0
  1 26  1  0
  2 27  1  0
  4 28  1  0
  9 29  1  0
 10 30  1  0
 11 31  1  0
 13 32  1  0
 18 33  1  0
 19 34  1  0
 20 35  1  0
 22 36  1  0
M  END
>  <meeko>  (4) 
{"is_sidechain": [false], "free_energy": -9.443, "intermolecular_energy": -11.342, "internal_energy": -0.416}

$$$$
cand_021_out
     RDKit          3D

 36 38  0  0  0  0  0  0  0  0999 V2000
   51.5490  152.4570   28.0790 C   0  0  0  0  0  0  0  0  0  0  0  0
   52.1550  153.4050   28.8040 C   0  0  0  0  0  0  0  0  0  0  0  0
   52.2720  154.7970   28.3520 C   0  0  0  0  0  0  0  0  0  0  0  0
   51.7950  155.8290   29.1810 C   0  0  0  0  0  0  0  0  0  0  0  0
   51.8890  157.1760   28.8020 C   0  0  0  0  0  0  0  0  0  0  0  0
   51.4070  158.2630   29.6790 C   0  0  0  0  0  0  0  0  0  0  0  0
   50.0750  158.1110   30.0460 O   0  0  0  0  0  0  0  0  0  0  0  0
   49.5010  159.0550   30.8600 C   0  0  0  0  0  0  0  0  0  0  0  0
   48.1570  158.8720   31.1900 C   0  0  0  0  0  0  0  0  0  0  0  0
   47.5120  159.7960   32.0170 C   0  0  0  0  0  0  0  0  0  0  0  0
   48.2100  160.8980   32.5130 C   0  0  0  0  0  0  0  0  0  0  0  0
   49.5510  161.0780   32.1810 C   0  0  0  0  0  0  0  0  0  0  0  0
   50.1740  162.1790   32.7010 O   0  0  0  0  0  0  0  0  0  0  0  0
   50.1950  160.1550   31.3540 C   0  0  0  0  0  0  0  0  0  0  0  0
   51.6030  160.3050   30.9810 C   0  0  0  0  0  0  0  0  0  0  0  0
   52.2870  161.2450   31.3830 O   0  0  0  0  0  0  0  0  0  0  0  0
   52.1900  159.2770   30.0930 C   0  0  0  0  0  0  0  0  0  0  0  0
   53.5230  159.4190   29.7570 O   0  0  0  0  0  0  0  0  0  0  0  0
   52.4970  157.4840   27.5800 C   0  0  0  0  0  0  0  0  0  0  0  0
   52.9800  156.4690   26.7490 C   0  0  0  0  0  0  0  0  0  0  0  0
   52.8730  155.1190   27.1210 C   0  0  0  0  0  0  0  0  0  0  0  0
   53.3870  154.0470   26.1920 C   0  0  0  0  0  0  0  0  0  0  0  0
   54.4720  154.4500   25.4700 F   0  0  0  0  0  0  0  0  0  0  0  0
   52.4670  153.6470   25.2650 F   0  0  0  0  0  0  0  0  0  0  0  0
   51.4870  151.4275   28.4615 H   0  0  0  0  0  0  0  0  0  0  0  0
   51.1129  152.7074   27.1007 H   0  0  0  0  0  0  0  0  0  0  0  0
   52.5832  153.1297   29.7791 H   0  0  0  0  0  0  0  0  0  0  0  0
   51.3380  155.5735   30.1484 H   0  0  0  0  0  0  0  0  0  0  0  0
   47.6069  158.0028   30.8002 H   0  0  0  0  0  0  0  0  0  0  0  0
   46.4527  159.6544   32.2773 H   0  0  0  0  0  0  0  0  0  0  0  0
   47.7020  161.6236   33.1653 H   0  0  0  0  0  0  0  0  0  0  0  0
   49.7580  162.6770   33.3790 H   0  0  0  0  0  0  0  0  0  0  0  0
   53.8620  158.9980   28.9920 H   0  0  0  0  0  0  0  0  0  0  0  0
   52.5959  158.5349   27.2703 H   0  0  0  0  0  0  0  0  0  0  0  0
   53.4506  156.7314   25.7900 H   0  0  0  0  0  0  0  0  0  0  0  0
   53.6398  153.2234   26.8760 H   0  0  0  0  0  0  0  0  0  0  0  0
  1  2  2  0
  2  3  1  0
  3  4  2  0
  4  5  1  0
  5  6  1  0
  6  7  1  0
  7  8  1  0
  8  9  2  0
  9 10  1  0
 10 11  2  0
 11 12  1  0
 12 13  1  0
 12 14  2  0
 14 15  1  0
 15 16  2  0
 15 17  1  0
 17 18  1  0
  5 19  2  0
 19 20  1  0
 20 21  2  0
 21 22  1  0
 22 23  1  0
 22 24  1  0
 21  3  1  0
 17  6  2  0
 14  8  1  0
  1 25  1  0
  1 26  1  0
  2 27  1  0
  4 28  1  0
  9 29  1  0
 10 30  1  0
 11 31  1  0
 13 32  1  0
 18 33  1  0
 19 34  1  0
 20 35  1  0
 22 36  1  0
M  END
>  <meeko>  (5) 
{"is_sidechain": [false], "free_energy": -9.044, "intermolecular_energy": -11.267, "internal_energy": 0.002}

$$$$
cand_021_out
     RDKit          3D

 36 38  0  0  0  0  0  0  0  0999 V2000
   51.6140  152.1650   27.7680 C   0  0  0  0  0  0  0  0  0  0  0  0
   52.4390  153.0450   28.3490 C   0  0  0  0  0  0  0  0  0  0  0  0
   52.4490  154.4720   28.0020 C   0  0  0  0  0  0  0  0  0  0  0  0
   51.8040  155.3880   28.8530 C   0  0  0  0  0  0  0  0  0  0  0  0
   51.7900  156.7620   28.5750 C   0  0  0  0  0  0  0  0  0  0  0  0
   51.1300  157.7290   29.4760 C   0  0  0  0  0  0  0  0  0  0  0  0
   51.9210  158.8380   29.7520 O   0  0  0  0  0  0  0  0  0  0  0  0
   51.4270  159.8140   30.5800 C   0  0  0  0  0  0  0  0  0  0  0  0
   52.2610  160.9020   30.8440 C   0  0  0  0  0  0  0  0  0  0  0  0
   51.8180  161.9320   31.6770 C   0  0  0  0  0  0  0  0  0  0  0  0
   50.5440  161.8740   32.2460 C   0  0  0  0  0  0  0  0  0  0  0  0
   49.7150  160.7870   31.9820 C   0  0  0  0  0  0  0  0  0  0  0  0
   48.4810  160.7940   32.5710 O   0  0  0  0  0  0  0  0  0  0  0  0
   50.1580  159.7560   31.1480 C   0  0  0  0  0  0  0  0  0  0  0  0
   49.3190  158.5970   30.8440 C   0  0  0  0  0  0  0  0  0  0  0  0
   48.1830  158.4760   31.3010 O   0  0  0  0  0  0  0  0  0  0  0  0
   49.8850  157.5550   29.9570 C   0  0  0  0  0  0  0  0  0  0  0  0
   49.0800  156.4700   29.6640 O   0  0  0  0  0  0  0  0  0  0  0  0
   52.4590  157.2180   27.4330 C   0  0  0  0  0  0  0  0  0  0  0  0
   53.1080  156.3200   26.5820 C   0  0  0  0  0  0  0  0  0  0  0  0
   53.1110  154.9410   26.8520 C   0  0  0  0  0  0  0  0  0  0  0  0
   53.8050  153.9960   25.9020 C   0  0  0  0  0  0  0  0  0  0  0  0
   54.7680  154.6100   25.1580 F   0  0  0  0  0  0  0  0  0  0  0  0
   52.9600  153.4240   24.9950 F   0  0  0  0  0  0  0  0  0  0  0  0
   51.6443  151.1055   28.0623 H   0  0  0  0  0  0  0  0  0  0  0  0
   50.9059  152.5015   26.9964 H   0  0  0  0  0  0  0  0  0  0  0  0
   53.1381  152.6843   29.1179 H   0  0  0  0  0  0  0  0  0  0  0  0
   51.2991  155.0176   29.7573 H   0  0  0  0  0  0  0  0  0  0  0  0
   53.2650  160.9480   30.3969 H   0  0  0  0  0  0  0  0  0  0  0  0
   52.4738  162.7903   31.8852 H   0  0  0  0  0  0  0  0  0  0  0  0
   50.1960  162.6858   32.9017 H   0  0  0  0  0  0  0  0  0  0  0  0
   48.2350  161.4990   33.1380 H   0  0  0  0  0  0  0  0  0  0  0  0
   49.4580  155.6840   29.3230 H   0  0  0  0  0  0  0  0  0  0  0  0
   52.4738  158.2937   27.2035 H   0  0  0  0  0  0  0  0  0  0  0  0
   53.6243  156.6981   25.6873 H   0  0  0  0  0  0  0  0  0  0  0  0
   54.2347  153.2369   26.5722 H   0  0  0  0  0  0  0  0  0  0  0  0
  1  2  2  0
  2  3  1  0
  3  4  2  0
  4  5  1  0
  5  6  1  0
  6  7  1  0
  7  8  1  0
  8  9  2  0
  9 10  1  0
 10 11  2  0
 11 12  1  0
 12 13  1  0
 12 14  2  0
 14 15  1  0
 15 16  2  0
 15 17  1  0
 17 18  1  0
  5 19  2  0
 19 20  1  0
 20 21  2  0
 21 22  1  0
 22 23  1  0
 22 24  1  0
 21  3  1  0
 17  6  2  0
 14  8  1  0
  1 25  1  0
  1 26  1  0
  2 27  1  0
  4 28  1  0
  9 29  1  0
 10 30  1  0
 11 31  1  0
 13 32  1  0
 18 33  1  0
 19 34  1  0
 20 35  1  0
 22 36  1  0
M  END
>  <meeko>  (6) 
{"is_sidechain": [false], "free_energy": -8.439, "intermolecular_energy": -10.211, "internal_energy": -0.308}

$$$$
cand_021_out
     RDKit          3D

 36 38  0  0  0  0  0  0  0  0999 V2000
   51.3270  160.9420   30.1040 C   0  0  0  0  0  0  0  0  0  0  0  0
   51.8700  159.7460   30.3620 C   0  0  0  0  0  0  0  0  0  0  0  0
   51.2350  158.4840   29.9590 C   0  0  0  0  0  0  0  0  0  0  0  0
   51.9150  157.6280   29.0740 C   0  0  0  0  0  0  0  0  0  0  0  0
   51.3600  156.4080   28.6630 C   0  0  0  0  0  0  0  0  0  0  0  0
   52.0800  155.4980   27.7480 C   0  0  0  0  0  0  0  0  0  0  0  0
   51.6790  154.1730   27.8760 O   0  0  0  0  0  0  0  0  0  0  0  0
   52.2710  153.2220   27.0840 C   0  0  0  0  0  0  0  0  0  0  0  0
   51.8500  151.9030   27.2570 C   0  0  0  0  0  0  0  0  0  0  0  0
   52.4120  150.8860   26.4800 C   0  0  0  0  0  0  0  0  0  0  0  0
   53.3910  151.1880   25.5330 C   0  0  0  0  0  0  0  0  0  0  0  0
   53.8100  152.5060   25.3630 C   0  0  0  0  0  0  0  0  0  0  0  0
   54.7720  152.7310   24.4180 O   0  0  0  0  0  0  0  0  0  0  0  0
   53.2490  153.5230   26.1400 C   0  0  0  0  0  0  0  0  0  0  0  0
   53.6590  154.9200   25.9930 C   0  0  0  0  0  0  0  0  0  0  0  0
   54.5100  155.2670   25.1770 O   0  0  0  0  0  0  0  0  0  0  0  0
   53.0090  155.9200   26.8710 C   0  0  0  0  0  0  0  0  0  0  0  0
   53.3930  157.2390   26.7150 O   0  0  0  0  0  0  0  0  0  0  0  0
   50.1120  156.0380   29.1750 C   0  0  0  0  0  0  0  0  0  0  0  0
   49.4280  156.8750   30.0590 C   0  0  0  0  0  0  0  0  0  0  0  0
   49.9770  158.1050   30.4600 C   0  0  0  0  0  0  0  0  0  0  0  0
   49.2030  158.9950   31.4020 C   0  0  0  0  0  0  0  0  0  0  0  0
   48.4890  158.2910   32.3260 F   0  0  0  0  0  0  0  0  0  0  0  0
   48.2880  159.7870   30.7680 F   0  0  0  0  0  0  0  0  0  0  0  0
   51.8403  161.8601   30.4259 H   0  0  0  0  0  0  0  0  0  0  0  0
   50.3674  161.0067   29.5701 H   0  0  0  0  0  0  0  0  0  0  0  0
   52.8302  159.7065   30.8972 H   0  0  0  0  0  0  0  0  0  0  0  0
   52.9050  157.9226   28.6957 H   0  0  0  0  0  0  0  0  0  0  0  0
   51.0777  151.6641   28.0030 H   0  0  0  0  0  0  0  0  0  0  0  0
   52.0817  149.8455   26.6155 H   0  0  0  0  0  0  0  0  0  0  0  0
   53.8315  150.3868   24.9214 H   0  0  0  0  0  0  0  0  0  0  0  0
   55.2300  152.0090   24.0330 H   0  0  0  0  0  0  0  0  0  0  0  0
   53.8670  157.5030   25.9500 H   0  0  0  0  0  0  0  0  0  0  0  0
   49.6648  155.0778   28.8782 H   0  0  0  0  0  0  0  0  0  0  0  0
   48.4457  156.5673   30.4469 H   0  0  0  0  0  0  0  0  0  0  0  0
   49.9884  159.6022   31.8757 H   0  0  0  0  0  0  0  0  0  0  0  0
  1  2  2  0
  2  3  1  0
  3  4  2  0
  4  5  1  0
  5  6  1  0
  6  7  1  0
  7  8  1  0
  8  9  2  0
  9 10  1  0
 10 11  2  0
 11 12  1  0
 12 13  1  0
 12 14  2  0
 14 15  1  0
 15 16  2  0
 15 17  1  0
 17 18  1  0
  5 19  2  0
 19 20  1  0
 20 21  2  0
 21 22  1  0
 22 23  1  0
 22 24  1  0
 21  3  1  0
 17  6  2  0
 14  8  1  0
  1 25  1  0
  1 26  1  0
  2 27  1  0
  4 28  1  0
  9 29  1  0
 10 30  1  0
 11 31  1  0
 13 32  1  0
 18 33  1  0
 19 34  1  0
 20 35  1  0
 22 36  1  0
M  END
>  <meeko>  (7) 
{"is_sidechain": [false], "free_energy": -8.09, "intermolecular_energy": -10.259, "internal_energy": 0.171}

$$$$
cand_021_out
     RDKit          3D

 36 38  0  0  0  0  0  0  0  0999 V2000
   48.0130  158.8830   30.1380 C   0  0  0  0  0  0  0  0  0  0  0  0
   48.9330  158.0210   30.5880 C   0  0  0  0  0  0  0  0  0  0  0  0
   50.2910  157.9520   30.0340 C   0  0  0  0  0  0  0  0  0  0  0  0
   50.6520  156.8460   29.2430 C   0  0  0  0  0  0  0  0  0  0  0  0
   51.9330  156.7330   28.6820 C   0  0  0  0  0  0  0  0  0  0  0  0
   52.3090  155.5820   27.8350 C   0  0  0  0  0  0  0  0  0  0  0  0
   51.7990  154.3770   28.3020 O   0  0  0  0  0  0  0  0  0  0  0  0
   52.0760  153.2270   27.6080 C   0  0  0  0  0  0  0  0  0  0  0  0
   51.5580  152.0370   28.1210 C   0  0  0  0  0  0  0  0  0  0  0  0
   51.8010  150.8300   27.4600 C   0  0  0  0  0  0  0  0  0  0  0  0
   52.5590  150.8140   26.2890 C   0  0  0  0  0  0  0  0  0  0  0  0
   53.0750  152.0030   25.7790 C   0  0  0  0  0  0  0  0  0  0  0  0
   53.8090  151.9150   24.6280 O   0  0  0  0  0  0  0  0  0  0  0  0
   52.8330  153.2100   26.4400 C   0  0  0  0  0  0  0  0  0  0  0  0
   53.3550  154.4810   25.9390 C   0  0  0  0  0  0  0  0  0  0  0  0
   54.0260  154.5510   24.9100 O   0  0  0  0  0  0  0  0  0  0  0  0
   53.0490  155.7030   26.7170 C   0  0  0  0  0  0  0  0  0  0  0  0
   53.5350  156.9010   26.2290 O   0  0  0  0  0  0  0  0  0  0  0  0
   52.8510  157.7650   28.9050 C   0  0  0  0  0  0  0  0  0  0  0  0
   52.5040  158.8720   29.6830 C   0  0  0  0  0  0  0  0  0  0  0  0
   51.2260  158.9790   30.2570 C   0  0  0  0  0  0  0  0  0  0  0  0
   50.8900  160.1790   31.1100 C   0  0  0  0  0  0  0  0  0  0  0  0
   50.3880  161.2170   30.3840 F   0  0  0  0  0  0  0  0  0  0  0  0
   51.9690  160.6910   31.7720 F   0  0  0  0  0  0  0  0  0  0  0  0
   47.0079  158.8977   30.5848 H   0  0  0  0  0  0  0  0  0  0  0  0
   48.2621  159.5766   29.3214 H   0  0  0  0  0  0  0  0  0  0  0  0
   48.6608  157.3371   31.4054 H   0  0  0  0  0  0  0  0  0  0  0  0
   49.9132  156.0518   29.0602 H   0  0  0  0  0  0  0  0  0  0  0  0
   50.9596  152.0491   29.0439 H   0  0  0  0  0  0  0  0  0  0  0  0
   51.3940  149.8912   27.8636 H   0  0  0  0  0  0  0  0  0  0  0  0
   52.7490  149.8635   25.7690 H   0  0  0  0  0  0  0  0  0  0  0  0
   54.3290  151.1520   24.4600 H   0  0  0  0  0  0  0  0  0  0  0  0
   52.9610  157.6360   26.1320 H   0  0  0  0  0  0  0  0  0  0  0  0
   53.8565  157.7040   28.4631 H   0  0  0  0  0  0  0  0  0  0  0  0
   53.2415  159.6711   29.8486 H   0  0  0  0  0  0  0  0  0  0  0  0
   50.1462  159.7840   31.8176 H   0  0  0  0  0  0  0  0  0  0  0  0
  1  2  2  0
  2  3  1  0
  3  4  2  0
  4  5  1  0
  5  6  1  0
  6  7  1  0
  7  8  1  0
  8  9  2  0
  9 10  1  0
 10 11  2  0
 11 12  1  0
 12 13  1  0
 12 14  2  0
 14 15  1  0
 15 16  2  0
 15 17  1  0
 17 18  1  0
  5 19  2  0
 19 20  1  0
 20 21  2  0
 21 22  1  0
 22 23  1  0
 22 24  1  0
 21  3  1  0
 17  6  2  0
 14  8  1  0
  1 25  1  0
  1 26  1  0
  2 27  1  0
  4 28  1  0
  9 29  1  0
 10 30  1  0
 11 31  1  0
 13 32  1  0
 18 33  1  0
 19 34  1  0
 20 35  1  0
 22 36  1  0
M  END
>  <meeko>  (8) 
{"is_sidechain": [false], "free_energy": -8.019, "intermolecular_energy": -9.921, "internal_energy": -0.08}

$$$$
