cand_049_out
     RDKit          3D

 47 49  0  0  0  0  0  0  0  0999 V2000
   52.4700  161.3750   31.8380 C   0  0  0  0  0  0  0  0  0  0  0  0
   52.2510  161.0170   30.3740 C   0  0  0  0  0  0  0  0  0  0  0  0
   51.3750  159.7930   30.2190 C   0  0  0  0  0  0  0  0  0  0  0  0
   51.9240  158.6700   29.5660 C   0  0  0  0  0  0  0  0  0  0  0  0
   51.2040  157.4760   29.4100 C   0  0  0  0  0  0  0  0  0  0  0  0
   51.8140  156.3370   28.6910 C   0  0  0  0  0  0  0  0  0  0  0  0
   52.3680  156.7040   27.4700 O   0  0  0  0  0  0  0  0  0  0  0  0
   52.9680  155.7430   26.6970 C   0  0  0  0  0  0  0  0  0  0  0  0
   53.4980  156.1530   25.4740 C   0  0  0  0  0  0  0  0  0  0  0  0
   54.1240  155.2250   24.6390 C   0  0  0  0  0  0  0  0  0  0  0  0
   54.2210  153.8880   25.0280 C   0  0  0  0  0  0  0  0  0  0  0  0
   53.6910  153.4800   26.2500 C   0  0  0  0  0  0  0  0  0  0  0  0
   53.8200  152.1570   26.5690 O   0  0  0  0  0  0  0  0  0  0  0  0
   53.0640  154.4100   27.0840 C   0  0  0  0  0  0  0  0  0  0  0  0
   52.4930  154.0240   28.3760 C   0  0  0  0  0  0  0  0  0  0  0  0
   52.5450  152.8680   28.7910 O   0  0  0  0  0  0  0  0  0  0  0  0
   51.8440  155.0840   29.1820 C   0  0  0  0  0  0  0  0  0  0  0  0
   51.3200  154.7100   30.4070 O   0  0  0  0  0  0  0  0  0  0  0  0
   49.9040  157.4170   29.9160 C   0  0  0  0  0  0  0  0  0  0  0  0
   49.3450  158.5170   30.5710 C   0  0  0  0  0  0  0  0  0  0  0  0
   50.0650  159.7140   30.7320 C   0  0  0  0  0  0  0  0  0  0  0  0
   49.3880  160.8670   31.4450 C   0  0  0  0  0  0  0  0  0  0  0  0
   48.5390  160.4410   32.6600 C   0  0  0  0  0  0  0  0  0  0  0  0
   48.5160  161.5080   33.7560 C   0  0  0  0  0  0  0  0  0  0  0  0
   47.1060  160.1400   32.2080 C   0  0  0  0  0  0  0  0  0  0  0  0
   52.0025  160.6108   32.4763 H   0  0  0  0  0  0  0  0  0  0  0  0
   53.5490  161.4177   32.0476 H   0  0  0  0  0  0  0  0  0  0  0  0
   52.0167  162.3551   32.0476 H   0  0  0  0  0  0  0  0  0  0  0  0
   51.7685  161.8663   29.8682 H   0  0  0  0  0  0  0  0  0  0  0  0
   53.2309  160.7946   29.9265 H   0  0  0  0  0  0  0  0  0  0  0  0
   52.9472  158.7321   29.1671 H   0  0  0  0  0  0  0  0  0  0  0  0
   53.4230  157.2067   25.1672 H   0  0  0  0  0  0  0  0  0  0  0  0
   54.5411  155.5480   23.6737 H   0  0  0  0  0  0  0  0  0  0  0  0
   54.7152  153.1576   24.3706 H   0  0  0  0  0  0  0  0  0  0  0  0
   53.0910  151.6870   26.9260 H   0  0  0  0  0  0  0  0  0  0  0  0
   51.2640  153.8030   30.6350 H   0  0  0  0  0  0  0  0  0  0  0  0
   49.3145  156.4958   29.7978 H   0  0  0  0  0  0  0  0  0  0  0  0
   48.3218  158.4454   30.9685 H   0  0  0  0  0  0  0  0  0  0  0  0
   50.1655  161.5629   31.7931 H   0  0  0  0  0  0  0  0  0  0  0  0
   48.6997  161.3286   30.7217 H   0  0  0  0  0  0  0  0  0  0  0  0
   49.0029  159.5388   33.0852 H   0  0  0  0  0  0  0  0  0  0  0  0
   48.5265  161.0209   34.7422 H   0  0  0  0  0  0  0  0  0  0  0  0
   49.4004  162.1545   33.6569 H   0  0  0  0  0  0  0  0  0  0  0  0
   47.6045  162.1158   33.6569 H   0  0  0  0  0  0  0  0  0  0  0  0
   46.4638  160.0051   33.0908 H   0  0  0  0  0  0  0  0  0  0  0  0
   46.7282  160.9784   31.6044 H   0  0  0  0  0  0  0  0  0  0  0  0
   47.0974  159.2205   31.6044 H   0  0  0  0  0  0  0  0  0  0  0  0
  1  2  1  0
  2  3  1  0
  3  4  2  0
  4  5  1  0
  5  6  1  0
  6  7  1  0
  7  8  1  0
  8  9  2  0
  9 10  1  0
 10 11  2  0
 11 12  1  0
 12 13  1  0
 12 14  2  0
 14 15  1  0
 15 16  2  0
 15 17  1  0
 17 18  1  0
  5 19  2  0
 19 20  1  0
 20 21  2  0
 21 22  1  0
 22 23  1  0
 23 24  1  0
 23 25  1  0
 21  3  1  0
 17  6  2  0
 14  8  1  0
  1 26  1  0
  1 27  1  0
  1 28  1  0
  2 29  1  0
  2 30  1  0
  4 31  1  0
  9 32  1  0
 10 33  1  0
 11 34  1  0
 13 35  1  0
 18 36  1  0
 19 37  1  0
 20 38  1  0
 22 39  1  0
 22 40  1  0
 23 41  1  0
 24 42  1  0
 24 43  1  0
 24 44  1  0
 25 45  1  0
 25 46  1  0
 25 47  1  0
M  END
>  <meeko>  (1) 
{"is_sidechain": [false], "free_energy": -10.689, "intermolecular_energy": -13.813, "internal_energy": -0.037}

$$$$
cand_049_out
     RDKit          3D

 47 49  0  0  0  0  0  0  0  0999 V2000
   54.1840  155.9240   24.7740 C   0  0  0  0  0  0  0  0  0  0  0  0
   53.0560  154.9130   24.9350 C   0  0  0  0  0  0  0  0  0  0  0  0
   52.6540  154.7440   26.3830 C   0  0  0  0  0  0  0  0  0  0  0  0
   52.3070  155.9030   27.1090 C   0  0  0  0  0  0  0  0  0  0  0  0
   51.8820  155.8430   28.4440 C   0  0  0  0  0  0  0  0  0  0  0  0
   51.5580  157.0900   29.1710 C   0  0  0  0  0  0  0  0  0  0  0  0
   50.2560  157.1080   29.6580 O   0  0  0  0  0  0  0  0  0  0  0  0
   49.8220  158.2070   30.3520 C   0  0  0  0  0  0  0  0  0  0  0  0
   48.5040  158.1880   30.8110 C   0  0  0  0  0  0  0  0  0  0  0  0
   47.9990  159.2760   31.5270 C   0  0  0  0  0  0  0  0  0  0  0  0
   48.8120  160.3810   31.7850 C   0  0  0  0  0  0  0  0  0  0  0  0
   50.1270  160.3990   31.3270 C   0  0  0  0  0  0  0  0  0  0  0  0
   50.8670  161.5110   31.6150 O   0  0  0  0  0  0  0  0  0  0  0  0
   50.6310  159.3100   30.6100 C   0  0  0  0  0  0  0  0  0  0  0  0
   52.0070  159.2870   30.1090 C   0  0  0  0  0  0  0  0  0  0  0  0
   52.7840  160.2190   30.3030 O   0  0  0  0  0  0  0  0  0  0  0  0
   52.4410  158.0890   29.3550 C   0  0  0  0  0  0  0  0  0  0  0  0
   53.7470  158.0730   28.8990 O   0  0  0  0  0  0  0  0  0  0  0  0
   51.8160  154.5930   29.0620 C   0  0  0  0  0  0  0  0  0  0  0  0
   52.1510  153.4340   28.3580 C   0  0  0  0  0  0  0  0  0  0  0  0
   52.5730  153.4890   27.0190 C   0  0  0  0  0  0  0  0  0  0  0  0
   52.9300  152.1900   26.3260 C   0  0  0  0  0  0  0  0  0  0  0  0
   54.0910  152.3160   25.3180 C   0  0  0  0  0  0  0  0  0  0  0  0
   55.4510  152.4350   26.0100 C   0  0  0  0  0  0  0  0  0  0  0  0
   54.0950  151.1040   24.3820 C   0  0  0  0  0  0  0  0  0  0  0  0
   54.5371  156.2405   25.7665 H   0  0  0  0  0  0  0  0  0  0  0  0
   55.0142  155.4620   24.2196 H   0  0  0  0  0  0  0  0  0  0  0  0
   53.8153  156.7996   24.2196 H   0  0  0  0  0  0  0  0  0  0  0  0
   52.1834  155.2591   24.3615 H   0  0  0  0  0  0  0  0  0  0  0  0
   53.4133  153.9410   24.5643 H   0  0  0  0  0  0  0  0  0  0  0  0
   52.3718  156.8827   26.6131 H   0  0  0  0  0  0  0  0  0  0  0  0
   47.8634  157.3169   30.6091 H   0  0  0  0  0  0  0  0  0  0  0  0
   46.9599  159.2620   31.8878 H   0  0  0  0  0  0  0  0  0  0  0  0
   48.4142  161.2370   32.3498 H   0  0  0  0  0  0  0  0  0  0  0  0
   50.7910  162.2770   31.0790 H   0  0  0  0  0  0  0  0  0  0  0  0
   54.4570  158.0810   29.5110 H   0  0  0  0  0  0  0  0  0  0  0  0
   51.4975  154.5201   30.1123 H   0  0  0  0  0  0  0  0  0  0  0  0
   52.0831  152.4586   28.8620 H   0  0  0  0  0  0  0  0  0  0  0  0
   53.2161  151.4557   27.0934 H   0  0  0  0  0  0  0  0  0  0  0  0
   52.0433  151.8801   25.7536 H   0  0  0  0  0  0  0  0  0  0  0  0
   53.9300  153.2402   24.7436 H   0  0  0  0  0  0  0  0  0  0  0  0
   55.3097  152.4226   27.1008 H   0  0  0  0  0  0  0  0  0  0  0  0
   56.0887  151.5892   25.7133 H   0  0  0  0  0  0  0  0  0  0  0  0
   55.9321  153.3787   25.7133 H   0  0  0  0  0  0  0  0  0  0  0  0
   54.0981  150.1799   24.9787 H   0  0  0  0  0  0  0  0  0  0  0  0
   53.1968  151.1278   23.7475 H   0  0  0  0  0  0  0  0  0  0  0  0
   54.9931  151.1337   23.7475 H   0  0  0  0  0  0  0  0  0  0  0  0
  1  2  1  0
  2  3  1  0
  3  4  2  0
  4  5  1  0
  5  6  1  0
  6  7  1  0
  7  8  1  0
  8  9  2  0
  9 10  1  0
 10 11  2  0
 11 12  1  0
 12 13  1  0
 12 14  2  0
 14 15  1  0
 15 16  2  0
 15 17  1  0
 17 18  1  0
  5 19  2  0
 19 20  1  0
 20 21  2  0
 21 22  1  0
 22 23  1  0
 23 24  1  0
 23 25  1  0
 21  3  1  0
 17  6  2  0
 14  8  1  0
  1 26  1  0
  1 27  1  0
  1 28  1  0
  2 29  1  0
  2 30  1  0
  4 31  1  0
  9 32  1  0
 10 33  1  0
 11 34  1  0
 13 35  1  0
 18 36  1  0
 19 37  1  0
 20 38  1  0
 22 39  1  0
 22 40  1  0
 23 41  1  0
 24 42  1  0
 24 43  1  0
 24 44  1  0
 25 45  1  0
 25 46  1  0
 25 47  1  0
M  END
>  <meeko>  (2) 
{"is_sidechain": [false], "free_energy": -10.286, "intermolecular_energy": -13.254, "internal_energy": -0.075}

$$$$
cand_049_out
     RDKit          3D

 47 49  0  0  0  0  0  0  0  0999 V2000
   47.6280  158.9540   29.8770 C   0  0  0  0  0  0  0  0  0  0  0  0
   48.6310  158.6510   30.9820 C   0  0  0  0  0  0  0  0  0  0  0  0
   50.0430  158.5540   30.4490 C   0  0  0  0  0  0  0  0  0  0  0  0
   50.3990  157.3910   29.7360 C   0  0  0  0  0  0  0  0  0  0  0  0
   51.6710  157.2270   29.1690 C   0  0  0  0  0  0  0  0  0  0  0  0
   52.0050  155.9750   28.4560 C   0  0  0  0  0  0  0  0  0  0  0  0
   52.5150  156.1980   27.1820 O   0  0  0  0  0  0  0  0  0  0  0  0
   52.8670  155.1220   26.4100 C   0  0  0  0  0  0  0  0  0  0  0  0
   53.3620  155.3920   25.1340 C   0  0  0  0  0  0  0  0  0  0  0  0
   53.7410  154.3400   24.2960 C   0  0  0  0  0  0  0  0  0  0  0  0
   53.6250  153.0200   24.7350 C   0  0  0  0  0  0  0  0  0  0  0  0
   53.1310  152.7520   26.0090 C   0  0  0  0  0  0  0  0  0  0  0  0
   53.0450  151.4380   26.3760 O   0  0  0  0  0  0  0  0  0  0  0  0
   52.7520  153.8050   26.8470 C   0  0  0  0  0  0  0  0  0  0  0  0
   52.2280  153.5690   28.1930 C   0  0  0  0  0  0  0  0  0  0  0  0
   52.1040  152.4360   28.6530 O   0  0  0  0  0  0  0  0  0  0  0  0
   51.8480  154.7530   28.9980 C   0  0  0  0  0  0  0  0  0  0  0  0
   51.3670  154.5180   30.2730 O   0  0  0  0  0  0  0  0  0  0  0  0
   52.6050  158.2530   29.3320 C   0  0  0  0  0  0  0  0  0  0  0  0
   52.2690  159.4150   30.0300 C   0  0  0  0  0  0  0  0  0  0  0  0
   50.9940  159.5840   30.5960 C   0  0  0  0  0  0  0  0  0  0  0  0
   50.7080  160.8680   31.3480 C   0  0  0  0  0  0  0  0  0  0  0  0
   49.4150  160.8270   32.1890 C   0  0  0  0  0  0  0  0  0  0  0  0
   49.7000  160.7150   33.6880 C   0  0  0  0  0  0  0  0  0  0  0  0
   48.5840  162.0840   31.9180 C   0  0  0  0  0  0  0  0  0  0  0  0
   46.6661  159.2446   30.3245 H   0  0  0  0  0  0  0  0  0  0  0  0
   48.0064  159.7779   29.2541 H   0  0  0  0  0  0  0  0  0  0  0  0
   47.4870  158.0584   29.2541 H   0  0  0  0  0  0  0  0  0  0  0  0
   48.5881  159.4547   31.7318 H   0  0  0  0  0  0  0  0  0  0  0  0
   48.3664  157.6803   31.4266 H   0  0  0  0  0  0  0  0  0  0  0  0
   49.6563  156.5878   29.6210 H   0  0  0  0  0  0  0  0  0  0  0  0
   53.4539  156.4321   24.7879 H   0  0  0  0  0  0  0  0  0  0  0  0
   54.1311  154.5522   23.2896 H   0  0  0  0  0  0  0  0  0  0  0  0
   53.9236  152.1922   24.0750 H   0  0  0  0  0  0  0  0  0  0  0  0
   53.5320  151.1240   27.1130 H   0  0  0  0  0  0  0  0  0  0  0  0
   50.5050  154.8010   30.5080 H   0  0  0  0  0  0  0  0  0  0  0  0
   53.6137  158.1447   28.9069 H   0  0  0  0  0  0  0  0  0  0  0  0
   53.0173  160.2138   30.1389 H   0  0  0  0  0  0  0  0  0  0  0  0
   51.5533  161.0697   32.0224 H   0  0  0  0  0  0  0  0  0  0  0  0
   50.5720  161.6561   30.5927 H   0  0  0  0  0  0  0  0  0  0  0  0
   48.8561  159.9281   31.8898 H   0  0  0  0  0  0  0  0  0  0  0  0
   48.8226  161.0598   34.2548 H   0  0  0  0  0  0  0  0  0  0  0  0
   49.9127  159.6664   33.9435 H   0  0  0  0  0  0  0  0  0  0  0  0
   50.5697  161.3382   33.9435 H   0  0  0  0  0  0  0  0  0  0  0  0
   48.2838  162.5382   32.8738 H   0  0  0  0  0  0  0  0  0  0  0  0
   49.1848  162.8038   31.3427 H   0  0  0  0  0  0  0  0  0  0  0  0
   47.6864  161.8132   31.3427 H   0  0  0  0  0  0  0  0  0  0  0  0
  1  2  1  0
  2  3  1  0
  3  4  2  0
  4  5  1  0
  5  6  1  0
  6  7  1  0
  7  8  1  0
  8  9  2  0
  9 10  1  0
 10 11  2  0
 11 12  1  0
 12 13  1  0
 12 14  2  0
 14 15  1  0
 15 16  2  0
 15 17  1  0
 17 18  1  0
  5 19  2  0
 19 20  1  0
 20 21  2  0
 21 22  1  0
 22 23  1  0
 23 24  1  0
 23 25  1  0
 21  3  1  0
 17  6  2  0
 14  8  1  0
  1 26  1  0
  1 27  1  0
  1 28  1  0
  2 29  1  0
  2 30  1  0
  4 31  1  0
  9 32  1  0
 10 33  1  0
 11 34  1  0
 13 35  1  0
 18 36  1  0
 19 37  1  0
 20 38  1  0
 22 39  1  0
 22 40  1  0
 23 41  1  0
 24 42  1  0
 24 43  1  0
 24 44  1  0
 25 45  1  0
 25 46  1  0
 25 47  1  0
M  END
>  <meeko>  (3) 
{"is_sidechain": [false], "free_energy": -10.046, "intermolecular_energy": -13.533, "internal_energy": 0.512}

$$$$
cand_049_out
     RDKit          3D

 47 49  0  0  0  0  0  0  0  0999 V2000
   52.8610  156.0300   24.7180 C   0  0  0  0  0  0  0  0  0  0  0  0
   53.7600  156.0760   25.9460 C   0  0  0  0  0  0  0  0  0  0  0  0
   53.0120  155.6930   27.2040 C   0  0  0  0  0  0  0  0  0  0  0  0
   52.3150  156.7080   27.8910 C   0  0  0  0  0  0  0  0  0  0  0  0
   51.5600  156.4430   29.0430 C   0  0  0  0  0  0  0  0  0  0  0  0
   50.8710  157.5490   29.7430 C   0  0  0  0  0  0  0  0  0  0  0  0
   51.7280  158.5900   30.0820 O   0  0  0  0  0  0  0  0  0  0  0  0
   51.2190  159.6810   30.7370 C   0  0  0  0  0  0  0  0  0  0  0  0
   52.1170  160.6960   31.0710 C   0  0  0  0  0  0  0  0  0  0  0  0
   51.6630  161.8360   31.7370 C   0  0  0  0  0  0  0  0  0  0  0  0
   50.3130  161.9630   32.0690 C   0  0  0  0  0  0  0  0  0  0  0  0
   49.4190  160.9490   31.7350 C   0  0  0  0  0  0  0  0  0  0  0  0
   48.1110  161.1370   32.0880 O   0  0  0  0  0  0  0  0  0  0  0  0
   49.8730  159.8080   31.0690 C   0  0  0  0  0  0  0  0  0  0  0  0
   48.9670  158.7190   30.6990 C   0  0  0  0  0  0  0  0  0  0  0  0
   47.7650  158.7600   30.9500 O   0  0  0  0  0  0  0  0  0  0  0  0
   49.5500  157.5500   30.0010 C   0  0  0  0  0  0  0  0  0  0  0  0
   48.6820  156.5330   29.6450 O   0  0  0  0  0  0  0  0  0  0  0  0
   51.5160  155.1300   29.5170 C   0  0  0  0  0  0  0  0  0  0  0  0
   52.1960  154.1100   28.8470 C   0  0  0  0  0  0  0  0  0  0  0  0
   52.9500  154.3710   27.6900 C   0  0  0  0  0  0  0  0  0  0  0  0
   53.6680  153.2140   27.0260 C   0  0  0  0  0  0  0  0  0  0  0  0
   52.8730  152.5590   25.8790 C   0  0  0  0  0  0  0  0  0  0  0  0
   53.7300  152.3410   24.6290 C   0  0  0  0  0  0  0  0  0  0  0  0
   52.3000  151.2190   26.3480 C   0  0  0  0  0  0  0  0  0  0  0  0
   51.8092  155.9762   25.0354 H   0  0  0  0  0  0  0  0  0  0  0  0
   53.0163  156.9373   24.1157 H   0  0  0  0  0  0  0  0  0  0  0  0
   53.1081  155.1433   24.1157 H   0  0  0  0  0  0  0  0  0  0  0  0
   54.5961  155.3759   25.8017 H   0  0  0  0  0  0  0  0  0  0  0  0
   54.1241  157.1072   26.0650 H   0  0  0  0  0  0  0  0  0  0  0  0
   52.3649  157.7394   27.5119 H   0  0  0  0  0  0  0  0  0  0  0  0
   53.1810  160.5979   30.8098 H   0  0  0  0  0  0  0  0  0  0  0  0
   52.3706  162.6359   32.0007 H   0  0  0  0  0  0  0  0  0  0  0  0
   49.9563  162.8619   32.5932 H   0  0  0  0  0  0  0  0  0  0  0  0
   47.5360  160.4010   32.1650 H   0  0  0  0  0  0  0  0  0  0  0  0
   48.8790  155.6470   29.8760 H   0  0  0  0  0  0  0  0  0  0  0  0
   50.9411  154.8971   30.4254 H   0  0  0  0  0  0  0  0  0  0  0  0
   52.1401  153.0814   29.2329 H   0  0  0  0  0  0  0  0  0  0  0  0
   54.6202  153.5853   26.6191 H   0  0  0  0  0  0  0  0  0  0  0  0
   53.8095  152.4422   27.7969 H   0  0  0  0  0  0  0  0  0  0  0  0
   52.0590  153.2472   25.6073 H   0  0  0  0  0  0  0  0  0  0  0  0
   54.7557  152.0801   24.9286 H   0  0  0  0  0  0  0  0  0  0  0  0
   53.3035  151.5227   24.0302 H   0  0  0  0  0  0  0  0  0  0  0  0
   53.7464  153.2636   24.0302 H   0  0  0  0  0  0  0  0  0  0  0  0
   52.2877  151.1902   27.4476 H   0  0  0  0  0  0  0  0  0  0  0  0
   51.2745  151.1051   25.9667 H   0  0  0  0  0  0  0  0  0  0  0  0
   52.9261  150.3989   25.9667 H   0  0  0  0  0  0  0  0  0  0  0  0
  1  2  1  0
  2  3  1  0
  3  4  2  0
  4  5  1  0
  5  6  1  0
  6  7  1  0
  7  8  1  0
  8  9  2  0
  9 10  1  0
 10 11  2  0
 11 12  1  0
 12 13  1  0
 12 14  2  0
 14 15  1  0
 15 16  2  0
 15 17  1  0
 17 18  1  0
  5 19  2  0
 19 20  1  0
 20 21  2  0
 21 22  1  0
 22 23  1  0
 23 24  1  0
 23 25  1  0
 21  3  1  0
 17  6  2  0
 14  8  1  0
  1 26  1  0
  1 27  1  0
  1 28  1  0
  2 29  1  0
  2 30  1  0
  4 31  1  0
  9 32  1  0
 10 33  1  0
 11 34  1  0
 13 35  1  0
 18 36  1  0
 19 37  1  0
 20 38  1  0
 22 39  1  0
 22 40  1  0
 23 41  1  0
 24 42  1  0
 24 43  1  0
 24 44  1  0
 25 45  1  0
 25 46  1  0
 25 47  1  0
M  END
>  <meeko>  (4) 
{"is_sidechain": [false], "free_energy": -9.425, "intermolecular_energy": -11.346, "internal_energy": -0.871}

$$$$
cand_049_out
     RDKit          3D

 47 49  0  0  0  0  0  0  0  0999 V2000
   51.6040  152.3960   27.8250 C   0  0  0  0  0  0  0  0  0  0  0  0
   52.0740  153.3530   28.9130 C   0  0  0  0  0  0  0  0  0  0  0  0
   52.2600  154.7580   28.3850 C   0  0  0  0  0  0  0  0  0  0  0  0
   51.7900  155.8260   29.1760 C   0  0  0  0  0  0  0  0  0  0  0  0
   51.9530  157.1640   28.7900 C   0  0  0  0  0  0  0  0  0  0  0  0
   51.4140  158.2480   29.6420 C   0  0  0  0  0  0  0  0  0  0  0  0
   50.0680  158.0780   29.9440 O   0  0  0  0  0  0  0  0  0  0  0  0
   49.4410  159.0120   30.7270 C   0  0  0  0  0  0  0  0  0  0  0  0
   48.0860  158.8090   30.9940 C   0  0  0  0  0  0  0  0  0  0  0  0
   47.3880  159.7220   31.7870 C   0  0  0  0  0  0  0  0  0  0  0  0
   48.0440  160.8360   32.3140 C   0  0  0  0  0  0  0  0  0  0  0  0
   49.3960  161.0370   32.0470 C   0  0  0  0  0  0  0  0  0  0  0  0
   49.9760  162.1470   32.5950 O   0  0  0  0  0  0  0  0  0  0  0  0
   50.0940  160.1230   31.2530 C   0  0  0  0  0  0  0  0  0  0  0  0
   51.5150  160.2950   30.9470 C   0  0  0  0  0  0  0  0  0  0  0  0
   52.1630  161.2460   31.3810 O   0  0  0  0  0  0  0  0  0  0  0  0
   52.1600  159.2740   30.0900 C   0  0  0  0  0  0  0  0  0  0  0  0
   53.5070  159.4400   29.8200 O   0  0  0  0  0  0  0  0  0  0  0  0
   52.5940  157.4300   27.5790 C   0  0  0  0  0  0  0  0  0  0  0  0
   53.0720  156.3850   26.7840 C   0  0  0  0  0  0  0  0  0  0  0  0
   52.9140  155.0430   27.1700 C   0  0  0  0  0  0  0  0  0  0  0  0
   53.4500  153.9650   26.2490 C   0  0  0  0  0  0  0  0  0  0  0  0
   53.6660  154.4340   24.7960 C   0  0  0  0  0  0  0  0  0  0  0  0
   54.9050  155.3210   24.6490 C   0  0  0  0  0  0  0  0  0  0  0  0
   53.7960  153.2160   23.8750 C   0  0  0  0  0  0  0  0  0  0  0  0
   51.1643  151.5008   28.2890 H   0  0  0  0  0  0  0  0  0  0  0  0
   50.8480  152.8940   27.2002 H   0  0  0  0  0  0  0  0  0  0  0  0
   52.4603  152.1022   27.2002 H   0  0  0  0  0  0  0  0  0  0  0  0
   51.3249  153.3718   29.7183 H   0  0  0  0  0  0  0  0  0  0  0  0
   53.0460  152.9965   29.2846 H   0  0  0  0  0  0  0  0  0  0  0  0
   51.2800  155.6029   30.1247 H   0  0  0  0  0  0  0  0  0  0  0  0
   47.5687  157.9308   30.5802 H   0  0  0  0  0  0  0  0  0  0  0  0
   46.3199  159.5633   31.9968 H   0  0  0  0  0  0  0  0  0  0  0  0
   47.4936  161.5542   32.9395 H   0  0  0  0  0  0  0  0  0  0  0  0
   50.3200  162.1140   33.4670 H   0  0  0  0  0  0  0  0  0  0  0  0
   53.9040  158.9680   29.1140 H   0  0  0  0  0  0  0  0  0  0  0  0
   52.7240  158.4708   27.2477 H   0  0  0  0  0  0  0  0  0  0  0  0
   53.5820  156.6174   25.8375 H   0  0  0  0  0  0  0  0  0  0  0  0
   54.4145  153.6173   26.6475 H   0  0  0  0  0  0  0  0  0  0  0  0
   52.6933  153.1673   26.2175 H   0  0  0  0  0  0  0  0  0  0  0  0
   52.7910  155.0368   24.5114 H   0  0  0  0  0  0  0  0  0  0  0  0
   55.2827  155.5914   25.6461 H   0  0  0  0  0  0  0  0  0  0  0  0
   55.6841  154.7742   24.0976 H   0  0  0  0  0  0  0  0  0  0  0  0
   54.6385  156.2348   24.0976 H   0  0  0  0  0  0  0  0  0  0  0  0
   53.8933  152.3049   24.4836 H   0  0  0  0  0  0  0  0  0  0  0  0
   52.9010  153.1391   23.2402 H   0  0  0  0  0  0  0  0  0  0  0  0
   54.6871  153.3298   23.2402 H   0  0  0  0  0  0  0  0  0  0  0  0
  1  2  1  0
  2  3  1  0
  3  4  2  0
  4  5  1  0
  5  6  1  0
  6  7  1  0
  7  8  1  0
  8  9  2  0
  9 10  1  0
 10 11  2  0
 11 12  1  0
 12 13  1  0
 12 14  2  0
 14 15  1  0
 15 16  2  0
 15 17  1  0
 17 18  1  0
  5 19  2  0
 19 20  1  0
 20 21  2  0
 21 22  1  0
 22 23  1  0
 23 24  1  0
 23 25  1  0
 21  3  1  0
 17  6  2  0
 14  8  1  0
  1 26  1  0
  1 27  1  0
  1 28  1  0
  2 29  1  0
  2 30  1  0
  4 31  1  0
  9 32  1  0
 10 33  1  0
 11 34  1  0
 13 35  1  0
 18 36  1  0
 19 37  1  0
 20 38  1  0
 22 39  1  0
 22 40  1  0
 23 41  1  0
 24 42  1  0
 24 43  1  0
 24 44  1  0
 25 45  1  0
 25 46  1  0
 25 47  1  0
M  END
>  <meeko>  (5) 
{"is_sidechain": [false], "free_energy": -9.235, "intermolecular_energy": -12.492, "internal_energy": 0.521}

$$$$
cand_049_out
     RDKit          3D

 47 49  0  0  0  0  0  0  0  0999 V2000
   51.5550  152.3630   27.5070 C   0  0  0  0  0  0  0  0  0  0  0  0
   52.1030  153.1980   28.6570 C   0  0  0  0  0  0  0  0  0  0  0  0
   52.2480  154.6540   28.2770 C   0  0  0  0  0  0  0  0  0  0  0  0
   51.6070  155.6130   29.0880 C   0  0  0  0  0  0  0  0  0  0  0  0
   51.7170  156.9890   28.8400 C   0  0  0  0  0  0  0  0  0  0  0  0
   51.0010  157.9530   29.7030 C   0  0  0  0  0  0  0  0  0  0  0  0
   51.7840  159.0460   30.0570 O   0  0  0  0  0  0  0  0  0  0  0  0
   51.2430  160.0190   30.8570 C   0  0  0  0  0  0  0  0  0  0  0  0
   52.0680  161.0900   31.1990 C   0  0  0  0  0  0  0  0  0  0  0  0
   51.5790  162.1170   32.0100 C   0  0  0  0  0  0  0  0  0  0  0  0
   50.2640  162.0720   32.4780 C   0  0  0  0  0  0  0  0  0  0  0  0
   49.4420  161.0020   32.1360 C   0  0  0  0  0  0  0  0  0  0  0  0
   48.1660  161.0210   32.6270 O   0  0  0  0  0  0  0  0  0  0  0  0
   49.9330  159.9750   31.3250 C   0  0  0  0  0  0  0  0  0  0  0  0
   49.1020  158.8320   30.9410 C   0  0  0  0  0  0  0  0  0  0  0  0
   47.9340  158.7250   31.3070 O   0  0  0  0  0  0  0  0  0  0  0  0
   49.7200  157.7930   30.0840 C   0  0  0  0  0  0  0  0  0  0  0  0
   48.9210  156.7250   29.7170 O   0  0  0  0  0  0  0  0  0  0  0  0
   52.4790  157.4050   27.7460 C   0  0  0  0  0  0  0  0  0  0  0  0
   53.1260  156.4700   26.9340 C   0  0  0  0  0  0  0  0  0  0  0  0
   53.0220  155.0910   27.1830 C   0  0  0  0  0  0  0  0  0  0  0  0
   53.7430  154.1390   26.2510 C   0  0  0  0  0  0  0  0  0  0  0  0
   53.7210  154.5740   24.7710 C   0  0  0  0  0  0  0  0  0  0  0  0
   54.8700  155.5250   24.4290 C   0  0  0  0  0  0  0  0  0  0  0  0
   53.7930  153.3380   23.8690 C   0  0  0  0  0  0  0  0  0  0  0  0
   50.9935  151.5074   27.9102 H   0  0  0  0  0  0  0  0  0  0  0  0
   50.8870  152.9821   26.8901 H   0  0  0  0  0  0  0  0  0  0  0  0
   52.3888  151.9965   26.8901 H   0  0  0  0  0  0  0  0  0  0  0  0
   51.4154  153.1204   29.5121 H   0  0  0  0  0  0  0  0  0  0  0  0
   53.1004  152.8117   28.9139 H   0  0  0  0  0  0  0  0  0  0  0  0
   51.0023  155.2715   29.9411 H   0  0  0  0  0  0  0  0  0  0  0  0
   53.1037  161.1261   30.8302 H   0  0  0  0  0  0  0  0  0  0  0  0
   52.2300  162.9615   32.2801 H   0  0  0  0  0  0  0  0  0  0  0  0
   49.8784  162.8809   33.1159 H   0  0  0  0  0  0  0  0  0  0  0  0
   47.7710  160.2290   32.9370 H   0  0  0  0  0  0  0  0  0  0  0  0
   48.5980  156.6620   28.8390 H   0  0  0  0  0  0  0  0  0  0  0  0
   52.5706  158.4780   27.5217 H   0  0  0  0  0  0  0  0  0  0  0  0
   53.7286  156.8203   26.0831 H   0  0  0  0  0  0  0  0  0  0  0  0
   54.7918  154.0658   26.5746 H   0  0  0  0  0  0  0  0  0  0  0  0
   53.2144  153.1760   26.3079 H   0  0  0  0  0  0  0  0  0  0  0  0
   52.7791  155.1160   24.6005 H   0  0  0  0  0  0  0  0  0  0  0  0
   55.3239  155.9007   25.3579 H   0  0  0  0  0  0  0  0  0  0  0  0
   55.6287  154.9871   23.8416 H   0  0  0  0  0  0  0  0  0  0  0  0
   54.4834  156.3709   23.8416 H   0  0  0  0  0  0  0  0  0  0  0  0
   53.8457  152.4325   24.4913 H   0  0  0  0  0  0  0  0  0  0  0  0
   52.8959  153.2947   23.2340 H   0  0  0  0  0  0  0  0  0  0  0  0
   54.6891  153.3992   23.2340 H   0  0  0  0  0  0  0  0  0  0  0  0
  1  2  1  0
  2  3  1  0
  3  4  2  0
  4  5  1  0
  5  6  1  0
  6  7  1  0
  7  8  1  0
  8  9  2  0
  9 10  1  0
 10 11  2  0
 11 12  1  0
 12 13  1  0
 12 14  2  0
 14 15  1  0
 15 16  2  0
 15 17  1  0
 17 18  1  0
  5 19  2  0
 19 20  1  0
 20 21  2  0
 21 22  1  0
 22 23  1  0
 23 24  1  0
 23 25  1  0
 21  3  1  0
 17  6  2  0
 14  8  1  0
  1 26  1  0
  1 27  1  0
  1 28  1  0
  2 29  1  0
  2 30  1  0
  4 31  1  0
  9 32  1  0
 10 33  1  0
 11 34  1  0
 13 35  1  0
 18 36  1  0
 19 37  1  0
 20 38  1  0
 22 39  1  0
 22 40  1  0
 23 41  1  0
 24 42  1  0
 24 43  1  0
 24 44  1  0
 25 45  1  0
 25 46  1  0
 25 47  1  0
M  END
>  <meeko>  (6) 
{"is_sidechain": [false], "free_energy": -8.856, "intermolecular_energy": -11.67, "internal_energy": 0.188}

$$$$
cand_049_out
     RDKit          3D

 47 49  0  0  0  0  0  0  0  0999 V2000
   51.6760  160.3440   31.4990 C   0  0  0  0  0  0  0  0  0  0  0  0
   51.8640  159.8910   30.0570 C   0  0  0  0  0  0  0  0  0  0  0  0
   51.2440  158.5330   29.8090 C   0  0  0  0  0  0  0  0  0  0  0  0
   51.9140  157.6540   28.9320 C   0  0  0  0  0  0  0  0  0  0  0  0
   51.4390  156.3610   28.6710 C   0  0  0  0  0  0  0  0  0  0  0  0
   52.1620  155.4880   27.7200 C   0  0  0  0  0  0  0  0  0  0  0  0
   51.7800  154.1550   27.8140 O   0  0  0  0  0  0  0  0  0  0  0  0
   52.3720  153.2360   26.9880 C   0  0  0  0  0  0  0  0  0  0  0  0
   51.9690  151.9070   27.1250 C   0  0  0  0  0  0  0  0  0  0  0  0
   52.5320  150.9200   26.3130 C   0  0  0  0  0  0  0  0  0  0  0  0
   53.4970  151.2620   25.3630 C   0  0  0  0  0  0  0  0  0  0  0  0
   53.8980  152.5880   25.2270 C   0  0  0  0  0  0  0  0  0  0  0  0
   54.8450  152.8530   24.2780 O   0  0  0  0  0  0  0  0  0  0  0  0
   53.3340  153.5750   26.0410 C   0  0  0  0  0  0  0  0  0  0  0  0
   53.7270  154.9810   25.9310 C   0  0  0  0  0  0  0  0  0  0  0  0
   54.5640  155.3610   25.1150 O   0  0  0  0  0  0  0  0  0  0  0  0
   53.0750  155.9480   26.8450 C   0  0  0  0  0  0  0  0  0  0  0  0
   53.4440  157.2750   26.7230 O   0  0  0  0  0  0  0  0  0  0  0  0
   50.2610  155.9490   29.2990 C   0  0  0  0  0  0  0  0  0  0  0  0
   49.5870  156.8040   30.1750 C   0  0  0  0  0  0  0  0  0  0  0  0
   50.0620  158.0990   30.4420 C   0  0  0  0  0  0  0  0  0  0  0  0
   49.2700  158.9710   31.3960 C   0  0  0  0  0  0  0  0  0  0  0  0
   48.0500  159.6570   30.7490 C   0  0  0  0  0  0  0  0  0  0  0  0
   46.8120  159.6080   31.6470 C   0  0  0  0  0  0  0  0  0  0  0  0
   48.3900  161.1140   30.4230 C   0  0  0  0  0  0  0  0  0  0  0  0
   52.0071  159.5462   32.1801 H   0  0  0  0  0  0  0  0  0  0  0  0
   52.2721  161.2507   31.6792 H   0  0  0  0  0  0  0  0  0  0  0  0
   50.6130  160.5622   31.6792 H   0  0  0  0  0  0  0  0  0  0  0  0
   51.3913  160.6256   29.3885 H   0  0  0  0  0  0  0  0  0  0  0  0
   52.9436  159.8149   29.8606 H   0  0  0  0  0  0  0  0  0  0  0  0
   52.8366  157.9933   28.4383 H   0  0  0  0  0  0  0  0  0  0  0  0
   51.2082  151.6369   27.8722 H   0  0  0  0  0  0  0  0  0  0  0  0
   52.2151  149.8723   26.4218 H   0  0  0  0  0  0  0  0  0  0  0  0
   53.9396  150.4844   24.7231 H   0  0  0  0  0  0  0  0  0  0  0  0
   54.9570  153.7280   23.9580 H   0  0  0  0  0  0  0  0  0  0  0  0
   53.9550  157.6830   27.3950 H   0  0  0  0  0  0  0  0  0  0  0  0
   49.8608  154.9434   29.1023 H   0  0  0  0  0  0  0  0  0  0  0  0
   48.6659  156.4561   30.6655 H   0  0  0  0  0  0  0  0  0  0  0  0
   48.9143  158.3423   32.2256 H   0  0  0  0  0  0  0  0  0  0  0  0
   49.9453  159.7715   31.7322 H   0  0  0  0  0  0  0  0  0  0  0  0
   47.8128  159.1057   29.8272 H   0  0  0  0  0  0  0  0  0  0  0  0
   47.1235  159.6203   32.7019 H   0  0  0  0  0  0  0  0  0  0  0  0
   46.1758  160.4817   31.4423 H   0  0  0  0  0  0  0  0  0  0  0  0
   46.2468  158.6868   31.4423 H   0  0  0  0  0  0  0  0  0  0  0  0
   48.5216  161.6779   31.3583 H   0  0  0  0  0  0  0  0  0  0  0  0
   49.3210  161.1513   29.8383 H   0  0  0  0  0  0  0  0  0  0  0  0
   47.5717  161.5595   29.8383 H   0  0  0  0  0  0  0  0  0  0  0  0
  1  2  1  0
  2  3  1  0
  3  4  2  0
  4  5  1  0
  5  6  1  0
  6  7  1  0
  7  8  1  0
  8  9  2  0
  9 10  1  0
 10 11  2  0
 11 12  1  0
 12 13  1  0
 12 14  2  0
 14 15  1  0
 15 16  2  0
 15 17  1  0
 17 18  1  0
  5 19  2  0
 19 20  1  0
 20 21  2  0
 21 22  1  0
 22 23  1  0
 23 24  1  0
 23 25  1  0
 21  3  1  0
 17  6  2  0
 14  8  1  0
  1 26  1  0
  1 27  1  0
  1 28  1  0
  2 29  1  0
  2 30  1  0
  4 31  1  0
  9 32  1  0
 10 33  1  0
 11 34  1  0
 13 35  1  0
 18 36  1  0
 19 37  1  0
 20 38  1  0
 22 39  1  0
 22 40  1  0
 23 41  1  0
 24 42  1  0
 24 43  1  0
 24 44  1  0
 25 45  1  0
 25 46  1  0
 25 47  1  0
M  END
>  <meeko>  (7) 
{"is_sidechain": [false], "free_energy": -8.625, "intermolecular_energy": -11.753, "internal_energy": 0.57}

$$$$
