cand_038_out
     RDKit          3D

 47 49  0  0  0  0  0  0  0  0999 V2000
   52.4230  161.0540   31.6980 C   0  0  0  0  0  0  0  0  0  0  0  0
   51.6570  160.8930   30.3890 C   0  0  0  0  0  0  0  0  0  0  0  0
   50.9390  159.5620   30.3000 C   0  0  0  0  0  0  0  0  0  0  0  0
   51.6480  158.5660   29.5740 C   0  0  0  0  0  0  0  0  0  0  0  0
   51.1630  157.2690   29.3930 C   0  0  0  0  0  0  0  0  0  0  0  0
   51.9020  156.2520   28.6170 C   0  0  0  0  0  0  0  0  0  0  0  0
   52.3940  156.7430   27.4120 O   0  0  0  0  0  0  0  0  0  0  0  0
   53.1010  155.9030   26.5930 C   0  0  0  0  0  0  0  0  0  0  0  0
   53.5890  156.4410   25.4010 C   0  0  0  0  0  0  0  0  0  0  0  0
   54.3160  155.6390   24.5190 C   0  0  0  0  0  0  0  0  0  0  0  0
   54.5560  154.2980   24.8280 C   0  0  0  0  0  0  0  0  0  0  0  0
   54.0680  153.7630   26.0180 C   0  0  0  0  0  0  0  0  0  0  0  0
   54.3380  152.4430   26.2570 O   0  0  0  0  0  0  0  0  0  0  0  0
   53.3410  154.5670   26.8990 C   0  0  0  0  0  0  0  0  0  0  0  0
   52.8100  154.0440   28.1600 C   0  0  0  0  0  0  0  0  0  0  0  0
   52.9730  152.8730   28.4990 O   0  0  0  0  0  0  0  0  0  0  0  0
   52.0600  154.9800   29.0280 C   0  0  0  0  0  0  0  0  0  0  0  0
   51.5520  154.4710   30.2100 O   0  0  0  0  0  0  0  0  0  0  0  0
   49.9190  156.9690   29.9360 C   0  0  0  0  0  0  0  0  0  0  0  0
   49.2000  157.9340   30.6530 C   0  0  0  0  0  0  0  0  0  0  0  0
   49.6750  159.2510   30.8680 C   0  0  0  0  0  0  0  0  0  0  0  0
   48.7840  160.2430   31.6660 C   0  0  0  0  0  0  0  0  0  0  0  0
   47.2990  159.7890   31.7900 C   0  0  0  0  0  0  0  0  0  0  0  0
   49.2600  160.4140   33.1260 C   0  0  0  0  0  0  0  0  0  0  0  0
   48.7370  161.6060   30.9410 C   0  0  0  0  0  0  0  0  0  0  0  0
   51.7361  160.9096   32.5449 H   0  0  0  0  0  0  0  0  0  0  0  0
   53.2274  160.3053   31.7466 H   0  0  0  0  0  0  0  0  0  0  0  0
   52.8580  162.0632   31.7466 H   0  0  0  0  0  0  0  0  0  0  0  0
   50.9143  161.7008   30.3127 H   0  0  0  0  0  0  0  0  0  0  0  0
   52.3859  160.9366   29.5663 H   0  0  0  0  0  0  0  0  0  0  0  0
   52.6219  158.8288   29.1354 H   0  0  0  0  0  0  0  0  0  0  0  0
   53.4008  157.4968   25.1565 H   0  0  0  0  0  0  0  0  0  0  0  0
   54.7002  156.0636   23.5798 H   0  0  0  0  0  0  0  0  0  0  0  0
   55.1289  153.6661   24.1334 H   0  0  0  0  0  0  0  0  0  0  0  0
   54.1360  151.7990   25.6090 H   0  0  0  0  0  0  0  0  0  0  0  0
   52.0120  153.7920   30.6630 H   0  0  0  0  0  0  0  0  0  0  0  0
   49.4947  155.9631   29.8012 H   0  0  0  0  0  0  0  0  0  0  0  0
   48.2203  157.6559   31.0687 H   0  0  0  0  0  0  0  0  0  0  0  0
   47.0284  159.7063   32.8530 H   0  0  0  0  0  0  0  0  0  0  0  0
   46.6474  160.5290   31.3023 H   0  0  0  0  0  0  0  0  0  0  0  0
   47.1726  158.8112   31.3023 H   0  0  0  0  0  0  0  0  0  0  0  0
   48.4507  160.1233   33.8119 H   0  0  0  0  0  0  0  0  0  0  0  0
   50.1377  159.7750   33.3027 H   0  0  0  0  0  0  0  0  0  0  0  0
   49.5304  161.4655   33.3027 H   0  0  0  0  0  0  0  0  0  0  0  0
   48.7091  162.4161   31.6846 H   0  0  0  0  0  0  0  0  0  0  0  0
   49.6318  161.7173   30.3110 H   0  0  0  0  0  0  0  0  0  0  0  0
   47.8366  161.6554   30.3110 H   0  0  0  0  0  0  0  0  0  0  0  0
  1  2  1  0
  2  3  1  0
  3  4  2  0
  4  5  1  0
  5  6  1  0
  6  7  1  0
  7  8  1  0
  8  9  2  0
  9 10  1  0
 10 11  2  0
 11 12  1  0
 12 13  1  0
 12 14  2  0
 14 15  1  0
 15 16  2  0
 15 17  1  0
 17 18  1  0
  5 19  2  0
 19 20  1  0
 20 21  2  0
 21 22  1  0
 22 23  1  0
 22 24  1  0
 22 25  1  0
 21  3  1  0
 17  6  2  0
 14  8  1  0
  1 26  1  0
  1 27  1  0
  1 28  1  0
  2 29  1  0
  2 30  1  0
  4 31  1  0
  9 32  1  0
 10 33  1  0
 11 34  1  0
 13 35  1  0
 18 36  1  0
 19 37  1  0
 20 38  1  0
 23 39  1  0
 23 40  1  0
 23 41  1  0
 24 42  1  0
 24 43  1  0
 24 44  1  0
 25 45  1  0
 25 46  1  0
 25 47  1  0
M  END
>  <meeko>  (1) 
{"is_sidechain": [false], "free_energy": -11.207, "intermolecular_energy": -13.828, "internal_energy": -0.128}

$$$$
cand_038_out
     RDKit          3D

 47 49  0  0  0  0  0  0  0  0999 V2000
   47.2810  159.3900   30.6140 C   0  0  0  0  0  0  0  0  0  0  0  0
   48.2960  158.5360   31.3660 C   0  0  0  0  0  0  0  0  0  0  0  0
   49.7050  158.7160   30.8380 C   0  0  0  0  0  0  0  0  0  0  0  0
   50.1860  157.6150   30.0770 C   0  0  0  0  0  0  0  0  0  0  0  0
   51.4530  157.5930   29.4900 C   0  0  0  0  0  0  0  0  0  0  0  0
   51.9460  156.4320   28.7200 C   0  0  0  0  0  0  0  0  0  0  0  0
   52.4880  156.7910   27.4910 O   0  0  0  0  0  0  0  0  0  0  0  0
   52.9850  155.8090   26.6740 C   0  0  0  0  0  0  0  0  0  0  0  0
   53.5330  156.2140   25.4560 C   0  0  0  0  0  0  0  0  0  0  0  0
   54.0550  155.2640   24.5750 C   0  0  0  0  0  0  0  0  0  0  0  0
   54.0280  153.9090   24.9110 C   0  0  0  0  0  0  0  0  0  0  0  0
   53.4790  153.5060   26.1270 C   0  0  0  0  0  0  0  0  0  0  0  0
   53.4840  152.1640   26.3920 O   0  0  0  0  0  0  0  0  0  0  0  0
   52.9580  154.4580   27.0070 C   0  0  0  0  0  0  0  0  0  0  0  0
   52.3730  154.0780   28.2950 C   0  0  0  0  0  0  0  0  0  0  0  0
   52.3060  152.9050   28.6580 O   0  0  0  0  0  0  0  0  0  0  0  0
   51.8560  155.1630   29.1590 C   0  0  0  0  0  0  0  0  0  0  0  0
   51.2930  154.7910   30.3670 O   0  0  0  0  0  0  0  0  0  0  0  0
   52.2710  158.6990   29.6920 C   0  0  0  0  0  0  0  0  0  0  0  0
   51.8210  159.7940   30.4410 C   0  0  0  0  0  0  0  0  0  0  0  0
   50.5350  159.8520   31.0310 C   0  0  0  0  0  0  0  0  0  0  0  0
   50.1490  161.1120   31.8540 C   0  0  0  0  0  0  0  0  0  0  0  0
   48.9810  161.9330   31.2300 C   0  0  0  0  0  0  0  0  0  0  0  0
   49.6550  160.7550   33.2750 C   0  0  0  0  0  0  0  0  0  0  0  0
   51.3470  162.0850   31.9180 C   0  0  0  0  0  0  0  0  0  0  0  0
   46.6456  159.9246   31.3354 H   0  0  0  0  0  0  0  0  0  0  0  0
   47.8108  160.1180   29.9821 H   0  0  0  0  0  0  0  0  0  0  0  0
   46.6544  158.7435   29.9821 H   0  0  0  0  0  0  0  0  0  0  0  0
   48.2779  158.8193   32.4287 H   0  0  0  0  0  0  0  0  0  0  0  0
   48.0170  157.4813   31.2257 H   0  0  0  0  0  0  0  0  0  0  0  0
   49.5306  156.7415   29.9448 H   0  0  0  0  0  0  0  0  0  0  0  0
   53.5538  157.2811   25.1899 H   0  0  0  0  0  0  0  0  0  0  0  0
   54.4878  155.5837   23.6156 H   0  0  0  0  0  0  0  0  0  0  0  0
   54.4393  153.1610   24.2172 H   0  0  0  0  0  0  0  0  0  0  0  0
   53.9030  151.8410   27.1650 H   0  0  0  0  0  0  0  0  0  0  0  0
   50.3620  154.7890   30.4680 H   0  0  0  0  0  0  0  0  0  0  0  0
   53.2821  158.7144   29.2591 H   0  0  0  0  0  0  0  0  0  0  0  0
   52.4989  160.6495   30.5773 H   0  0  0  0  0  0  0  0  0  0  0  0
   48.3663  162.3651   32.0334 H   0  0  0  0  0  0  0  0  0  0  0  0
   49.3925  162.7416   30.6080 H   0  0  0  0  0  0  0  0  0  0  0  0
   48.3595  161.2720   30.6080 H   0  0  0  0  0  0  0  0  0  0  0  0
   50.3104  161.2286   34.0208 H   0  0  0  0  0  0  0  0  0  0  0  0
   48.6255  161.1192   33.4076 H   0  0  0  0  0  0  0  0  0  0  0  0
   49.6777  159.6633   33.4076 H   0  0  0  0  0  0  0  0  0  0  0  0
   51.5980  162.2889   32.9694 H   0  0  0  0  0  0  0  0  0  0  0  0
   52.2143  161.6324   31.4151 H   0  0  0  0  0  0  0  0  0  0  0  0
   51.0818  163.0267   31.4151 H   0  0  0  0  0  0  0  0  0  0  0  0
  1  2  1  0
  2  3  1  0
  3  4  2  0
  4  5  1  0
  5  6  1  0
  6  7  1  0
  7  8  1  0
  8  9  2  0
  9 10  1  0
 10 11  2  0
 11 12  1  0
 12 13  1  0
 12 14  2  0
 14 15  1  0
 15 16  2  0
 15 17  1  0
 17 18  1  0
  5 19  2  0
 19 20  1  0
 20 21  2  0
 21 22  1  0
 22 23  1  0
 22 24  1  0
 22 25  1  0
 21  3  1  0
 17  6  2  0
 14  8  1  0
  1 26  1  0
  1 27  1  0
  1 28  1  0
  2 29  1  0
  2 30  1  0
  4 31  1  0
  9 32  1  0
 10 33  1  0
 11 34  1  0
 13 35  1  0
 18 36  1  0
 19 37  1  0
 20 38  1  0
 23 39  1  0
 23 40  1  0
 23 41  1  0
 24 42  1  0
 24 43  1  0
 24 44  1  0
 25 45  1  0
 25 46  1  0
 25 47  1  0
M  END
>  <meeko>  (2) 
{"is_sidechain": [false], "free_energy": -10.254, "intermolecular_energy": -12.888, "internal_energy": 0.108}

$$$$
cand_038_out
     RDKit          3D

 47 49  0  0  0  0  0  0  0  0999 V2000
   54.8350  156.5520   24.8000 C   0  0  0  0  0  0  0  0  0  0  0  0
   53.4510  155.9110   24.8310 C   0  0  0  0  0  0  0  0  0  0  0  0
   53.0360  155.5020   26.2300 C   0  0  0  0  0  0  0  0  0  0  0  0
   52.5890  156.5800   27.0420 C   0  0  0  0  0  0  0  0  0  0  0  0
   52.1480  156.4080   28.3560 C   0  0  0  0  0  0  0  0  0  0  0  0
   51.7070  157.5430   29.1950 C   0  0  0  0  0  0  0  0  0  0  0  0
   50.3610  157.4700   29.5370 O   0  0  0  0  0  0  0  0  0  0  0  0
   49.8210  158.4600   30.3150 C   0  0  0  0  0  0  0  0  0  0  0  0
   48.4700  158.3400   30.6460 C   0  0  0  0  0  0  0  0  0  0  0  0
   47.8560  159.3150   31.4340 C   0  0  0  0  0  0  0  0  0  0  0  0
   48.5910  160.4110   31.8910 C   0  0  0  0  0  0  0  0  0  0  0  0
   49.9380  160.5300   31.5580 C   0  0  0  0  0  0  0  0  0  0  0  0
   50.5980  161.6280   32.0370 O   0  0  0  0  0  0  0  0  0  0  0  0
   50.5520  159.5530   30.7700 C   0  0  0  0  0  0  0  0  0  0  0  0
   51.9650  159.6380   30.3980 C   0  0  0  0  0  0  0  0  0  0  0  0
   52.6760  160.5760   30.7540 O   0  0  0  0  0  0  0  0  0  0  0  0
   52.5220  158.5470   29.5660 C   0  0  0  0  0  0  0  0  0  0  0  0
   53.8550  158.6460   29.2090 O   0  0  0  0  0  0  0  0  0  0  0  0
   52.1780  155.1210   28.8790 C   0  0  0  0  0  0  0  0  0  0  0  0
   52.6180  154.0430   28.0990 C   0  0  0  0  0  0  0  0  0  0  0  0
   53.0530  154.1840   26.7590 C   0  0  0  0  0  0  0  0  0  0  0  0
   53.5340  152.9190   25.9940 C   0  0  0  0  0  0  0  0  0  0  0  0
   53.5160  153.0820   24.4450 C   0  0  0  0  0  0  0  0  0  0  0  0
   54.9980  152.5560   26.3280 C   0  0  0  0  0  0  0  0  0  0  0  0
   52.5910  151.7340   26.2940 C   0  0  0  0  0  0  0  0  0  0  0  0
   55.1868  156.7149   25.8294 H   0  0  0  0  0  0  0  0  0  0  0  0
   55.5355  155.8867   24.2741 H   0  0  0  0  0  0  0  0  0  0  0  0
   54.7806  157.5166   24.2741 H   0  0  0  0  0  0  0  0  0  0  0  0
   52.7182  156.6332   24.4419 H   0  0  0  0  0  0  0  0  0  0  0  0
   53.4880  155.0021   24.2125 H   0  0  0  0  0  0  0  0  0  0  0  0
   52.5905  157.5944   26.6165 H   0  0  0  0  0  0  0  0  0  0  0  0
   47.8897  157.4776   30.2860 H   0  0  0  0  0  0  0  0  0  0  0  0
   46.7917  159.2199   31.6954 H   0  0  0  0  0  0  0  0  0  0  0  0
   48.1070  161.1786   32.5127 H   0  0  0  0  0  0  0  0  0  0  0  0
   50.1790  162.4660   32.0320 H   0  0  0  0  0  0  0  0  0  0  0  0
   54.5230  158.4420   29.8340 H   0  0  0  0  0  0  0  0  0  0  0  0
   51.8532  154.9466   29.9154 H   0  0  0  0  0  0  0  0  0  0  0  0
   52.6258  153.0394   28.5493 H   0  0  0  0  0  0  0  0  0  0  0  0
   53.3985  154.1455   24.1896 H   0  0  0  0  0  0  0  0  0  0  0  0
   54.4611  152.7064   24.0258 H   0  0  0  0  0  0  0  0  0  0  0  0
   52.6757  152.5092   24.0258 H   0  0  0  0  0  0  0  0  0  0  0  0
   55.1278  152.5238   27.4198 H   0  0  0  0  0  0  0  0  0  0  0  0
   55.2381  151.5711   25.9010 H   0  0  0  0  0  0  0  0  0  0  0  0
   55.6704  153.3146   25.9010 H   0  0  0  0  0  0  0  0  0  0  0  0
   52.4925  151.6102   27.3826 H   0  0  0  0  0  0  0  0  0  0  0  0
   51.6015  151.9330   25.8566 H   0  0  0  0  0  0  0  0  0  0  0  0
   53.0071  150.8145   25.8566 H   0  0  0  0  0  0  0  0  0  0  0  0
  1  2  1  0
  2  3  1  0
  3  4  2  0
  4  5  1  0
  5  6  1  0
  6  7  1  0
  7  8  1  0
  8  9  2  0
  9 10  1  0
 10 11  2  0
 11 12  1  0
 12 13  1  0
 12 14  2  0
 14 15  1  0
 15 16  2  0
 15 17  1  0
 17 18  1  0
  5 19  2  0
 19 20  1  0
 20 21  2  0
 21 22  1  0
 22 23  1  0
 22 24  1  0
 22 25  1  0
 21  3  1  0
 17  6  2  0
 14  8  1  0
  1 26  1  0
  1 27  1  0
  1 28  1  0
  2 29  1  0
  2 30  1  0
  4 31  1  0
  9 32  1  0
 10 33  1  0
 11 34  1  0
 13 35  1  0
 18 36  1  0
 19 37  1  0
 20 38  1  0
 23 39  1  0
 23 40  1  0
 23 41  1  0
 24 42  1  0
 24 43  1  0
 24 44  1  0
 25 45  1  0
 25 46  1  0
 25 47  1  0
M  END
>  <meeko>  (3) 
{"is_sidechain": [false], "free_energy": -9.491, "intermolecular_energy": -11.714, "internal_energy": -0.126}

$$$$
cand_038_out
     RDKit          3D

 47 49  0  0  0  0  0  0  0  0999 V2000
   55.1350  156.7590   24.6670 C   0  0  0  0  0  0  0  0  0  0  0  0
   53.6940  156.2640   24.6060 C   0  0  0  0  0  0  0  0  0  0  0  0
   53.2410  155.6460   25.9130 C   0  0  0  0  0  0  0  0  0  0  0  0
   52.6210  156.5620   26.8060 C   0  0  0  0  0  0  0  0  0  0  0  0
   52.1200  156.1860   28.0540 C   0  0  0  0  0  0  0  0  0  0  0  0
   51.4990  157.1560   28.9800 C   0  0  0  0  0  0  0  0  0  0  0  0
   52.3070  158.2600   29.2280 O   0  0  0  0  0  0  0  0  0  0  0  0
   51.8500  159.2390   30.0710 C   0  0  0  0  0  0  0  0  0  0  0  0
   52.6880  160.3370   30.2800 C   0  0  0  0  0  0  0  0  0  0  0  0
   52.2840  161.3690   31.1290 C   0  0  0  0  0  0  0  0  0  0  0  0
   51.0440  161.3060   31.7690 C   0  0  0  0  0  0  0  0  0  0  0  0
   50.2110  160.2100   31.5600 C   0  0  0  0  0  0  0  0  0  0  0  0
   49.0120  160.2110   32.2180 O   0  0  0  0  0  0  0  0  0  0  0  0
   50.6160  159.1770   30.7090 C   0  0  0  0  0  0  0  0  0  0  0  0
   49.7700  158.0080   30.4610 C   0  0  0  0  0  0  0  0  0  0  0  0
   48.6700  157.8760   30.9930 O   0  0  0  0  0  0  0  0  0  0  0  0
   50.2870  156.9730   29.5370 C   0  0  0  0  0  0  0  0  0  0  0  0
   49.4850  155.8660   29.3200 O   0  0  0  0  0  0  0  0  0  0  0  0
   52.2650  154.8550   28.4270 C   0  0  0  0  0  0  0  0  0  0  0  0
   52.8760  153.9330   27.5670 C   0  0  0  0  0  0  0  0  0  0  0  0
   53.3760  154.2820   26.2880 C   0  0  0  0  0  0  0  0  0  0  0  0
   54.0480  153.1790   25.4240 C   0  0  0  0  0  0  0  0  0  0  0  0
   53.7700  153.3250   23.8990 C   0  0  0  0  0  0  0  0  0  0  0  0
   55.5890  153.2020   25.5410 C   0  0  0  0  0  0  0  0  0  0  0  0
   53.4880  151.7940   25.8140 C   0  0  0  0  0  0  0  0  0  0  0  0
   55.4423  156.8645   25.7179 H   0  0  0  0  0  0  0  0  0  0  0  0
   55.7929  156.0353   24.1635 H   0  0  0  0  0  0  0  0  0  0  0  0
   55.2093  157.7342   24.1635 H   0  0  0  0  0  0  0  0  0  0  0  0
   53.0376  157.1149   24.3711 H   0  0  0  0  0  0  0  0  0  0  0  0
   53.6385  155.4866   23.8298 H   0  0  0  0  0  0  0  0  0  0  0  0
   52.5319  157.6148   26.5000 H   0  0  0  0  0  0  0  0  0  0  0  0
   53.6646  160.3884   29.7764 H   0  0  0  0  0  0  0  0  0  0  0  0
   52.9436  162.2336   31.2943 H   0  0  0  0  0  0  0  0  0  0  0  0
   50.7263  162.1204   32.4366 H   0  0  0  0  0  0  0  0  0  0  0  0
   48.2890  159.7230   31.8760 H   0  0  0  0  0  0  0  0  0  0  0  0
   48.5930  155.9790   29.0570 H   0  0  0  0  0  0  0  0  0  0  0  0
   51.8960  154.5218   29.4082 H   0  0  0  0  0  0  0  0  0  0  0  0
   52.9720  152.8891   27.9004 H   0  0  0  0  0  0  0  0  0  0  0  0
   52.8052  153.8317   23.7490 H   0  0  0  0  0  0  0  0  0  0  0  0
   54.5718  153.9184   23.4353 H   0  0  0  0  0  0  0  0  0  0  0  0
   53.7366  152.3281   23.4353 H   0  0  0  0  0  0  0  0  0  0  0  0
   55.8761  153.2063   26.6029 H   0  0  0  0  0  0  0  0  0  0  0  0
   56.0072  152.3100   25.0517 H   0  0  0  0  0  0  0  0  0  0  0  0
   55.9804  154.1061   25.0517 H   0  0  0  0  0  0  0  0  0  0  0  0
   53.4532  151.7080   26.9101 H   0  0  0  0  0  0  0  0  0  0  0  0
   52.4733  151.6803   25.4049 H   0  0  0  0  0  0  0  0  0  0  0  0
   54.1386  151.0070   25.4049 H   0  0  0  0  0  0  0  0  0  0  0  0
  1  2  1  0
  2  3  1  0
  3  4  2  0
  4  5  1  0
  5  6  1  0
  6  7  1  0
  7  8  1  0
  8  9  2  0
  9 10  1  0
 10 11  2  0
 11 12  1  0
 12 13  1  0
 12 14  2  0
 14 15  1  0
 15 16  2  0
 15 17  1  0
 17 18  1  0
  5 19  2  0
 19 20  1  0
 20 21  2  0
 21 22  1  0
 22 23  1  0
 22 24  1  0
 22 25  1  0
 21  3  1  0
 17  6  2  0
 14  8  1  0
  1 26  1  0
  1 27  1  0
  1 28  1  0
  2 29  1  0
  2 30  1  0
  4 31  1  0
  9 32  1  0
 10 33  1  0
 11 34  1  0
 13 35  1  0
 18 36  1  0
 19 37  1  0
 20 38  1  0
 23 39  1  0
 23 40  1  0
 23 41  1  0
 24 42  1  0
 24 43  1  0
 24 44  1  0
 25 45  1  0
 25 46  1  0
 25 47  1  0
M  END
>  <meeko>  (4) 
{"is_sidechain": [false], "free_energy": -8.638, "intermolecular_energy": -10.535, "internal_energy": -0.252}

$$$$
