cand_050_out
     RDKit          3D

 38 40  0  0  0  0  0  0  0  0999 V2000
   50.0270  161.2230   33.0700 C   0  0  0  0  0  0  0  0  0  0  0  0
   50.1500  161.4330   31.5670 C   0  0  0  0  0  0  0  0  0  0  0  0
   50.5500  160.1630   30.8480 C   0  0  0  0  0  0  0  0  0  0  0  0
   51.8960  160.0100   30.4720 C   0  0  0  0  0  0  0  0  0  0  0  0
   52.3290  158.8660   29.7970 C   0  0  0  0  0  0  0  0  0  0  0  0
   51.4340  157.8400   29.4830 C   0  0  0  0  0  0  0  0  0  0  0  0
   51.9100  156.6450   28.7530 C   0  0  0  0  0  0  0  0  0  0  0  0
   52.5250  156.9580   27.5460 O   0  0  0  0  0  0  0  0  0  0  0  0
   53.0120  155.9390   26.7680 C   0  0  0  0  0  0  0  0  0  0  0  0
   53.6080  156.2960   25.5580 C   0  0  0  0  0  0  0  0  0  0  0  0
   54.1280  155.3070   24.7190 C   0  0  0  0  0  0  0  0  0  0  0  0
   54.0520  153.9640   25.0910 C   0  0  0  0  0  0  0  0  0  0  0  0
   53.4570  153.6100   26.2990 C   0  0  0  0  0  0  0  0  0  0  0  0
   53.4160  152.2760   26.6000 O   0  0  0  0  0  0  0  0  0  0  0  0
   52.9360  154.5990   27.1380 C   0  0  0  0  0  0  0  0  0  0  0  0
   52.3030  154.2710   28.4150 C   0  0  0  0  0  0  0  0  0  0  0  0
   52.2040  153.1130   28.8160 O   0  0  0  0  0  0  0  0  0  0  0  0
   51.7770  155.3920   29.2260 C   0  0  0  0  0  0  0  0  0  0  0  0
   51.1910  155.0750   30.4380 O   0  0  0  0  0  0  0  0  0  0  0  0
   50.0880  157.9970   29.8440 C   0  0  0  0  0  0  0  0  0  0  0  0
   49.6270  159.1450   30.5230 C   0  0  0  0  0  0  0  0  0  0  0  0
   48.1630  159.2350   30.8960 C   0  0  0  0  0  0  0  0  0  0  0  0
   47.6530  160.4980   30.8130 F   0  0  0  0  0  0  0  0  0  0  0  0
   47.9140  158.8290   32.1730 F   0  0  0  0  0  0  0  0  0  0  0  0
   47.3710  158.4670   30.0960 F   0  0  0  0  0  0  0  0  0  0  0  0
   50.5148  162.0558   33.5977 H   0  0  0  0  0  0  0  0  0  0  0  0
   48.9637  161.1847   33.3491 H   0  0  0  0  0  0  0  0  0  0  0  0
   50.5136  160.2768   33.3491 H   0  0  0  0  0  0  0  0  0  0  0  0
   49.1798  161.7723   31.1753 H   0  0  0  0  0  0  0  0  0  0  0  0
   50.9345  162.1840   31.3919 H   0  0  0  0  0  0  0  0  0  0  0  0
   52.6192  160.8030   30.7129 H   0  0  0  0  0  0  0  0  0  0  0  0
   53.3866  158.7719   29.5095 H   0  0  0  0  0  0  0  0  0  0  0  0
   53.6684  157.3545   25.2650 H   0  0  0  0  0  0  0  0  0  0  0  0
   54.5976  155.5872   23.7646 H   0  0  0  0  0  0  0  0  0  0  0  0
   54.4618  153.1858   24.4304 H   0  0  0  0  0  0  0  0  0  0  0  0
   52.6670  151.9160   27.0310 H   0  0  0  0  0  0  0  0  0  0  0  0
   50.3890  155.4870   30.6930 H   0  0  0  0  0  0  0  0  0  0  0  0
   49.3709  157.2023   29.5906 H   0  0  0  0  0  0  0  0  0  0  0  0
  1  2  1  0
  2  3  1  0
  3  4  2  0
  4  5  1  0
  5  6  2  0
  6  7  1  0
  7  8  1  0
  8  9  1  0
  9 10  2  0
 10 11  1  0
 11 12  2  0
 12 13  1  0
 13 14  1  0
 13 15  2  0
 15 16  1  0
 16 17  2  0
 16 18  1  0
 18 19  1  0
  6 20  1  0
 20 21  2  0
 21 22  1  0
 22 23  1  0
 22 24  1  0
 22 25  1  0
 21  3  1  0
 18  7  2  0
 15  9  1  0
  1 26  1  0
  1 27  1  0
  1 28  1  0
  2 29  1  0
  2 30  1  0
  4 31  1  0
  5 32  1  0
 10 33  1  0
 11 34  1  0
 12 35  1  0
 14 36  1  0
 19 37  1  0
 20 38  1  0
M  END
>  <meeko>  (1) 
{"is_sidechain": [false], "free_energy": -10.805, "intermolecular_energy": -13.332, "internal_energy": -0.316}

$$$$
cand_050_out
     RDKit          3D

 38 40  0  0  0  0  0  0  0  0999 V2000
   47.4220  159.8630   31.7290 C   0  0  0  0  0  0  0  0  0  0  0  0
   48.8960  160.2380   31.6630 C   0  0  0  0  0  0  0  0  0  0  0  0
   49.7000  159.2380   30.8610 C   0  0  0  0  0  0  0  0  0  0  0  0
   49.0920  158.0160   30.5250 C   0  0  0  0  0  0  0  0  0  0  0  0
   49.7820  157.0460   29.7940 C   0  0  0  0  0  0  0  0  0  0  0  0
   51.0970  157.2680   29.3750 C   0  0  0  0  0  0  0  0  0  0  0  0
   51.8160  156.2210   28.6180 C   0  0  0  0  0  0  0  0  0  0  0  0
   52.3360  156.6830   27.4140 O   0  0  0  0  0  0  0  0  0  0  0  0
   53.0260  155.8100   26.6130 C   0  0  0  0  0  0  0  0  0  0  0  0
   53.5180  156.3110   25.4070 C   0  0  0  0  0  0  0  0  0  0  0  0
   54.2330  155.4760   24.5450 C   0  0  0  0  0  0  0  0  0  0  0  0
   54.4570  154.1420   24.8900 C   0  0  0  0  0  0  0  0  0  0  0  0
   53.9660  153.6450   26.0940 C   0  0  0  0  0  0  0  0  0  0  0  0
   54.2210  152.3280   26.3680 O   0  0  0  0  0  0  0  0  0  0  0  0
   53.2490  154.4800   26.9560 C   0  0  0  0  0  0  0  0  0  0  0  0
   52.7160  153.9970   28.2300 C   0  0  0  0  0  0  0  0  0  0  0  0
   52.8770  152.8380   28.6070 O   0  0  0  0  0  0  0  0  0  0  0  0
   51.9650  154.9610   29.0660 C   0  0  0  0  0  0  0  0  0  0  0  0
   51.4750  154.5010   30.2750 O   0  0  0  0  0  0  0  0  0  0  0  0
   51.7110  158.4800   29.7240 C   0  0  0  0  0  0  0  0  0  0  0  0
   51.0330  159.4730   30.4630 C   0  0  0  0  0  0  0  0  0  0  0  0
   51.7560  160.7630   30.7860 C   0  0  0  0  0  0  0  0  0  0  0  0
   53.0610  160.7750   30.3840 F   0  0  0  0  0  0  0  0  0  0  0  0
   51.7880  161.0350   32.1210 F   0  0  0  0  0  0  0  0  0  0  0  0
   51.1820  161.8480   30.1950 F   0  0  0  0  0  0  0  0  0  0  0  0
   47.1106  159.7838   32.7810 H   0  0  0  0  0  0  0  0  0  0  0  0
   46.8238  160.6376   31.2268 H   0  0  0  0  0  0  0  0  0  0  0  0
   47.2666  158.8967   31.2268 H   0  0  0  0  0  0  0  0  0  0  0  0
   48.9899  161.2280   31.1927 H   0  0  0  0  0  0  0  0  0  0  0  0
   49.2908  160.2461   32.6897 H   0  0  0  0  0  0  0  0  0  0  0  0
   48.0571  157.8206   30.8425 H   0  0  0  0  0  0  0  0  0  0  0  0
   49.2849  156.0968   29.5453 H   0  0  0  0  0  0  0  0  0  0  0  0
   53.3430  157.3625   25.1354 H   0  0  0  0  0  0  0  0  0  0  0  0
   54.6198  155.8700   23.5936 H   0  0  0  0  0  0  0  0  0  0  0  0
   55.0206  153.4847   24.2115 H   0  0  0  0  0  0  0  0  0  0  0  0
   55.0890  151.9910   26.2790 H   0  0  0  0  0  0  0  0  0  0  0  0
   51.9610  153.8690   30.7670 H   0  0  0  0  0  0  0  0  0  0  0  0
   52.7503  158.6616   29.4129 H   0  0  0  0  0  0  0  0  0  0  0  0
  1  2  1  0
  2  3  1  0
  3  4  2  0
  4  5  1  0
  5  6  2  0
  6  7  1  0
  7  8  1  0
  8  9  1  0
  9 10  2  0
 10 11  1  0
 11 12  2  0
 12 13  1  0
 13 14  1  0
 13 15  2  0
 15 16  1  0
 16 17  2  0
 16 18  1  0
 18 19  1  0
  6 20  1  0
 20 21  2  0
 21 22  1  0
 22 23  1  0
 22 24  1  0
 22 25  1  0
 21  3  1  0
 18  7  2  0
 15  9  1  0
  1 26  1  0
  1 27  1  0
  1 28  1  0
  2 29  1  0
  2 30  1  0
  4 31  1  0
  5 32  1  0
 10 33  1  0
 11 34  1  0
 12 35  1  0
 14 36  1  0
 19 37  1  0
 20 38  1  0
M  END
>  <meeko>  (2) 
{"is_sidechain": [false], "free_energy": -10.766, "intermolecular_energy": -13.189, "internal_energy": -0.411}

$$$$
cand_050_out
     RDKit          3D

 38 40  0  0  0  0  0  0  0  0999 V2000
   52.0330  151.5810   26.6400 C   0  0  0  0  0  0  0  0  0  0  0  0
   53.1380  152.6210   26.5250 C   0  0  0  0  0  0  0  0  0  0  0  0
   52.7680  153.9200   27.2090 C   0  0  0  0  0  0  0  0  0  0  0  0
   52.1850  153.8540   28.4860 C   0  0  0  0  0  0  0  0  0  0  0  0
   51.8110  155.0140   29.1680 C   0  0  0  0  0  0  0  0  0  0  0  0
   52.0130  156.2740   28.5970 C   0  0  0  0  0  0  0  0  0  0  0  0
   51.5940  157.4890   29.3270 C   0  0  0  0  0  0  0  0  0  0  0  0
   50.2650  157.4450   29.7350 O   0  0  0  0  0  0  0  0  0  0  0  0
   49.7490  158.5130   30.4240 C   0  0  0  0  0  0  0  0  0  0  0  0
   48.4070  158.4340   30.8000 C   0  0  0  0  0  0  0  0  0  0  0  0
   47.8190  159.4850   31.5070 C   0  0  0  0  0  0  0  0  0  0  0  0
   48.5720  160.6130   31.8370 C   0  0  0  0  0  0  0  0  0  0  0  0
   49.9100  160.6900   31.4610 C   0  0  0  0  0  0  0  0  0  0  0  0
   50.5880  161.8240   31.8160 O   0  0  0  0  0  0  0  0  0  0  0  0
   50.4980  159.6380   30.7530 C   0  0  0  0  0  0  0  0  0  0  0  0
   51.9010  159.6790   30.3380 C   0  0  0  0  0  0  0  0  0  0  0  0
   52.6300  160.6330   30.5970 O   0  0  0  0  0  0  0  0  0  0  0  0
   52.4250  158.5160   29.5860 C   0  0  0  0  0  0  0  0  0  0  0  0
   53.7550  158.5560   29.2080 O   0  0  0  0  0  0  0  0  0  0  0  0
   52.5800  156.3420   27.3160 C   0  0  0  0  0  0  0  0  0  0  0  0
   52.9620  155.1820   26.6080 C   0  0  0  0  0  0  0  0  0  0  0  0
   53.5850  155.3360   25.2370 C   0  0  0  0  0  0  0  0  0  0  0  0
   54.8680  154.8770   25.1630 F   0  0  0  0  0  0  0  0  0  0  0  0
   53.6420  156.6330   24.8220 F   0  0  0  0  0  0  0  0  0  0  0  0
   52.9000  154.6630   24.2710 F   0  0  0  0  0  0  0  0  0  0  0  0
   51.8238  151.3841   27.7018 H   0  0  0  0  0  0  0  0  0  0  0  0
   51.1227  151.9576   26.1506 H   0  0  0  0  0  0  0  0  0  0  0  0
   52.3538  150.6495   26.1506 H   0  0  0  0  0  0  0  0  0  0  0  0
   54.0511  152.2219   26.9908 H   0  0  0  0  0  0  0  0  0  0  0  0
   53.2957  152.8324   25.4571 H   0  0  0  0  0  0  0  0  0  0  0  0
   52.0206  152.8731   28.9559 H   0  0  0  0  0  0  0  0  0  0  0  0
   51.3527  154.9354   30.1649 H   0  0  0  0  0  0  0  0  0  0  0  0
   47.8135  157.5452   30.5398 H   0  0  0  0  0  0  0  0  0  0  0  0
   46.7616  159.4239   31.8041 H   0  0  0  0  0  0  0  0  0  0  0  0
   48.1083  161.4406   32.3939 H   0  0  0  0  0  0  0  0  0  0  0  0
   51.4760  161.9430   31.5450 H   0  0  0  0  0  0  0  0  0  0  0  0
   54.3210  157.8380   29.4140 H   0  0  0  0  0  0  0  0  0  0  0  0
   52.7313  157.3268   26.8499 H   0  0  0  0  0  0  0  0  0  0  0  0
  1  2  1  0
  2  3  1  0
  3  4  2  0
  4  5  1  0
  5  6  2  0
  6  7  1  0
  7  8  1  0
  8  9  1  0
  9 10  2  0
 10 11  1  0
 11 12  2  0
 12 13  1  0
 13 14  1  0
 13 15  2  0
 15 16  1  0
 16 17  2  0
 16 18  1  0
 18 19  1  0
  6 20  1  0
 20 21  2  0
 21 22  1  0
 22 23  1  0
 22 24  1  0
 22 25  1  0
 21  3  1  0
 18  7  2  0
 15  9  1  0
  1 26  1  0
  1 27  1  0
  1 28  1  0
  2 29  1  0
  2 30  1  0
  4 31  1  0
  5 32  1  0
 10 33  1  0
 11 34  1  0
 12 35  1  0
 14 36  1  0
 19 37  1  0
 20 38  1  0
M  END
>  <meeko>  (3) 
{"is_sidechain": [false], "free_energy": -10.712, "intermolecular_energy": -13.054, "internal_energy": -0.479}

$$$$
cand_050_out
     RDKit          3D

 38 40  0  0  0  0  0  0  0  0999 V2000
   52.3610  151.3620   26.6280 C   0  0  0  0  0  0  0  0  0  0  0  0
   53.0870  152.5770   26.0680 C   0  0  0  0  0  0  0  0  0  0  0  0
   52.7460  153.8400   26.8280 C   0  0  0  0  0  0  0  0  0  0  0  0
   52.1030  153.7140   28.0710 C   0  0  0  0  0  0  0  0  0  0  0  0
   51.7530  154.8410   28.8180 C   0  0  0  0  0  0  0  0  0  0  0  0
   52.0380  156.1260   28.3490 C   0  0  0  0  0  0  0  0  0  0  0  0
   51.6420  157.3060   29.1470 C   0  0  0  0  0  0  0  0  0  0  0  0
   50.3190  157.2540   29.5730 O   0  0  0  0  0  0  0  0  0  0  0  0
   49.8240  158.2890   30.3230 C   0  0  0  0  0  0  0  0  0  0  0  0
   48.4880  158.2030   30.7170 C   0  0  0  0  0  0  0  0  0  0  0  0
   47.9210  159.2220   31.4850 C   0  0  0  0  0  0  0  0  0  0  0  0
   48.6890  160.3250   31.8600 C   0  0  0  0  0  0  0  0  0  0  0  0
   50.0220  160.4090   31.4660 C   0  0  0  0  0  0  0  0  0  0  0  0
   50.7170  161.5180   31.8680 O   0  0  0  0  0  0  0  0  0  0  0  0
   50.5890  159.3890   30.6960 C   0  0  0  0  0  0  0  0  0  0  0  0
   51.9850  159.4390   30.2620 C   0  0  0  0  0  0  0  0  0  0  0  0
   52.7280  160.3720   30.5570 O   0  0  0  0  0  0  0  0  0  0  0  0
   52.4870  158.3110   29.4430 C   0  0  0  0  0  0  0  0  0  0  0  0
   53.8110  158.3580   29.0470 O   0  0  0  0  0  0  0  0  0  0  0  0
   52.6640  156.2550   27.1010 C   0  0  0  0  0  0  0  0  0  0  0  0
   53.0250  155.1310   26.3280 C   0  0  0  0  0  0  0  0  0  0  0  0
   53.7160  155.3500   24.9990 C   0  0  0  0  0  0  0  0  0  0  0  0
   55.0400  155.0200   25.0090 F   0  0  0  0  0  0  0  0  0  0  0  0
   53.6710  156.6470   24.5840 F   0  0  0  0  0  0  0  0  0  0  0  0
   53.1630  154.6150   23.9940 F   0  0  0  0  0  0  0  0  0  0  0  0
   52.3818  151.3969   27.7273 H   0  0  0  0  0  0  0  0  0  0  0  0
   51.3173  151.3662   26.2807 H   0  0  0  0  0  0  0  0  0  0  0  0
   52.8592  150.4449   26.2807 H   0  0  0  0  0  0  0  0  0  0  0  0
   54.1714  152.4045   26.1339 H   0  0  0  0  0  0  0  0  0  0  0  0
   52.7688  152.7120   25.0237 H   0  0  0  0  0  0  0  0  0  0  0  0
   51.8717  152.7121   28.4618 H   0  0  0  0  0  0  0  0  0  0  0  0
   51.2472  154.7156   29.7867 H   0  0  0  0  0  0  0  0  0  0  0  0
   47.8822  157.3333   30.4228 H   0  0  0  0  0  0  0  0  0  0  0  0
   46.8676  159.1552   31.7948 H   0  0  0  0  0  0  0  0  0  0  0  0
   48.2421  161.1270   32.4659 H   0  0  0  0  0  0  0  0  0  0  0  0
   51.1820  162.0320   31.2390 H   0  0  0  0  0  0  0  0  0  0  0  0
   54.4910  158.3810   29.6900 H   0  0  0  0  0  0  0  0  0  0  0  0
   52.8799  157.2615   26.7133 H   0  0  0  0  0  0  0  0  0  0  0  0
  1  2  1  0
  2  3  1  0
  3  4  2  0
  4  5  1  0
  5  6  2  0
  6  7  1  0
  7  8  1  0
  8  9  1  0
  9 10  2  0
 10 11  1  0
 11 12  2  0
 12 13  1  0
 13 14  1  0
 13 15  2  0
 15 16  1  0
 16 17  2  0
 16 18  1  0
 18 19  1  0
  6 20  1  0
 20 21  2  0
 21 22  1  0
 22 23  1  0
 22 24  1  0
 22 25  1  0
 21  3  1  0
 18  7  2  0
 15  9  1  0
  1 26  1  0
  1 27  1  0
  1 28  1  0
  2 29  1  0
  2 30  1  0
  4 31  1  0
  5 32  1  0
 10 33  1  0
 11 34  1  0
 12 35  1  0
 14 36  1  0
 19 37  1  0
 20 38  1  0
M  END
>  <meeko>  (4) 
{"is_sidechain": [false], "free_energy": -10.308, "intermolecular_energy": -12.692, "internal_energy": -0.342}

$$$$
cand_050_out
     RDKit          3D

 38 40  0  0  0  0  0  0  0  0999 V2000
   52.5860  151.7110   26.0010 C   0  0  0  0  0  0  0  0  0  0  0  0
   53.6370  152.6660   26.5470 C   0  0  0  0  0  0  0  0  0  0  0  0
   53.0140  153.8610   27.2370 C   0  0  0  0  0  0  0  0  0  0  0  0
   52.4610  153.6740   28.5160 C   0  0  0  0  0  0  0  0  0  0  0  0
   51.8630  154.7330   29.2030 C   0  0  0  0  0  0  0  0  0  0  0  0
   51.8030  156.0090   28.6360 C   0  0  0  0  0  0  0  0  0  0  0  0
   51.1490  157.1120   29.3720 C   0  0  0  0  0  0  0  0  0  0  0  0
   52.0070  158.1760   29.6290 O   0  0  0  0  0  0  0  0  0  0  0  0
   51.5260  159.2660   30.3080 C   0  0  0  0  0  0  0  0  0  0  0  0
   52.4240  160.3040   30.5570 C   0  0  0  0  0  0  0  0  0  0  0  0
   51.9980  161.4450   31.2420 C   0  0  0  0  0  0  0  0  0  0  0  0
   50.6750  161.5470   31.6750 C   0  0  0  0  0  0  0  0  0  0  0  0
   49.7800  160.5100   31.4250 C   0  0  0  0  0  0  0  0  0  0  0  0
   48.5000  160.6760   31.8770 O   0  0  0  0  0  0  0  0  0  0  0  0
   50.2070  159.3680   30.7410 C   0  0  0  0  0  0  0  0  0  0  0  0
   49.2990  158.2560   30.4570 C   0  0  0  0  0  0  0  0  0  0  0  0
   48.1190  158.2740   30.8000 O   0  0  0  0  0  0  0  0  0  0  0  0
   49.8530  157.0890   29.7330 C   0  0  0  0  0  0  0  0  0  0  0  0
   48.9860  156.0470   29.4580 O   0  0  0  0  0  0  0  0  0  0  0  0
   52.3400  156.1940   27.3530 C   0  0  0  0  0  0  0  0  0  0  0  0
   52.9460  155.1380   26.6400 C   0  0  0  0  0  0  0  0  0  0  0  0
   53.5200  155.4190   25.2670 C   0  0  0  0  0  0  0  0  0  0  0  0
   52.9610  154.6660   24.2760 F   0  0  0  0  0  0  0  0  0  0  0  0
   54.8590  155.1780   25.1910 F   0  0  0  0  0  0  0  0  0  0  0  0
   53.3490  156.7150   24.8840 F   0  0  0  0  0  0  0  0  0  0  0  0
   52.0573  151.2306   26.8374 H   0  0  0  0  0  0  0  0  0  0  0  0
   51.8664  152.2707   25.3854 H   0  0  0  0  0  0  0  0  0  0  0  0
   53.0744  150.9413   25.3854 H   0  0  0  0  0  0  0  0  0  0  0  0
   54.2657  152.1262   27.2704 H   0  0  0  0  0  0  0  0  0  0  0  0
   54.2331  153.0357   25.6996 H   0  0  0  0  0  0  0  0  0  0  0  0
   52.4998  152.6787   28.9827 H   0  0  0  0  0  0  0  0  0  0  0  0
   51.4345  154.5608   30.2014 H   0  0  0  0  0  0  0  0  0  0  0  0
   53.4663  160.2244   30.2145 H   0  0  0  0  0  0  0  0  0  0  0  0
   52.7058  162.2634   31.4401 H   0  0  0  0  0  0  0  0  0  0  0  0
   50.3397  162.4458   32.2133 H   0  0  0  0  0  0  0  0  0  0  0  0
   47.7950  160.2160   31.4670 H   0  0  0  0  0  0  0  0  0  0  0  0
   48.1440  156.0190   29.8670 H   0  0  0  0  0  0  0  0  0  0  0  0
   52.2871  157.1904   26.8900 H   0  0  0  0  0  0  0  0  0  0  0  0
  1  2  1  0
  2  3  1  0
  3  4  2  0
  4  5  1  0
  5  6  2  0
  6  7  1  0
  7  8  1  0
  8  9  1  0
  9 10  2  0
 10 11  1  0
 11 12  2  0
 12 13  1  0
 13 14  1  0
 13 15  2  0
 15 16  1  0
 16 17  2  0
 16 18  1  0
 18 19  1  0
  6 20  1  0
 20 21  2  0
 21 22  1  0
 22 23  1  0
 22 24  1  0
 22 25  1  0
 21  3  1  0
 18  7  2  0
 15  9  1  0
  1 26  1  0
  1 27  1  0
  1 28  1  0
  2 29  1  0
  2 30  1  0
  4 31  1  0
  5 32  1  0
 10 33  1  0
 11 34  1  0
 12 35  1  0
 14 36  1  0
 19 37  1  0
 20 38  1  0
M  END
>  <meeko>  (5) 
{"is_sidechain": [false], "free_energy": -9.812, "intermolecular_energy": -11.853, "internal_energy": -0.569}

$$$$
cand_050_out
     RDKit          3D

 38 40  0  0  0  0  0  0  0  0999 V2000
   54.0680  154.9090   24.8880 C   0  0  0  0  0  0  0  0  0  0  0  0
   53.4600  154.2600   26.1230 C   0  0  0  0  0  0  0  0  0  0  0  0
   52.9050  155.2870   27.0870 C   0  0  0  0  0  0  0  0  0  0  0  0
   52.9860  156.6440   26.7310 C   0  0  0  0  0  0  0  0  0  0  0  0
   52.5010  157.6410   27.5800 C   0  0  0  0  0  0  0  0  0  0  0  0
   51.9190  157.3130   28.8080 C   0  0  0  0  0  0  0  0  0  0  0  0
   51.4290  158.3850   29.7000 C   0  0  0  0  0  0  0  0  0  0  0  0
   50.0910  158.2330   30.0470 O   0  0  0  0  0  0  0  0  0  0  0  0
   49.5100  159.1620   30.8710 C   0  0  0  0  0  0  0  0  0  0  0  0
   48.1620  158.9790   31.1810 C   0  0  0  0  0  0  0  0  0  0  0  0
   47.5100  159.8870   32.0190 C   0  0  0  0  0  0  0  0  0  0  0  0
   48.2060  160.9770   32.5450 C   0  0  0  0  0  0  0  0  0  0  0  0
   49.5510  161.1580   32.2340 C   0  0  0  0  0  0  0  0  0  0  0  0
   50.1720  162.2460   32.7840 O   0  0  0  0  0  0  0  0  0  0  0  0
   50.2030  160.2490   31.3960 C   0  0  0  0  0  0  0  0  0  0  0  0
   51.6150  160.4020   31.0440 C   0  0  0  0  0  0  0  0  0  0  0  0
   52.2970  161.3300   31.4730 O   0  0  0  0  0  0  0  0  0  0  0  0
   52.2090  159.3890   30.1420 C   0  0  0  0  0  0  0  0  0  0  0  0
   53.5470  159.5330   29.8250 O   0  0  0  0  0  0  0  0  0  0  0  0
   51.8520  155.9610   29.1730 C   0  0  0  0  0  0  0  0  0  0  0  0
   52.3370  154.9370   28.3310 C   0  0  0  0  0  0  0  0  0  0  0  0
   52.2130  153.4980   28.7870 C   0  0  0  0  0  0  0  0  0  0  0  0
   51.4960  152.7130   27.9310 F   0  0  0  0  0  0  0  0  0  0  0  0
   51.5930  153.3750   29.9940 F   0  0  0  0  0  0  0  0  0  0  0  0
   53.4220  152.8850   28.9210 F   0  0  0  0  0  0  0  0  0  0  0  0
   54.7899  155.6795   25.1965 H   0  0  0  0  0  0  0  0  0  0  0  0
   54.5822  154.1442   24.2874 H   0  0  0  0  0  0  0  0  0  0  0  0
   53.2713  155.3723   24.2874 H   0  0  0  0  0  0  0  0  0  0  0  0
   52.6453  153.5912   25.8084 H   0  0  0  0  0  0  0  0  0  0  0  0
   54.2545  153.7022   26.6403 H   0  0  0  0  0  0  0  0  0  0  0  0
   53.4385  156.9252   25.7686 H   0  0  0  0  0  0  0  0  0  0  0  0
   52.5778  158.6963   27.2791 H   0  0  0  0  0  0  0  0  0  0  0  0
   47.6132  158.1207   30.7660 H   0  0  0  0  0  0  0  0  0  0  0  0
   46.4475  159.7430   32.2646 H   0  0  0  0  0  0  0  0  0  0  0  0
   47.6923  161.6920   33.2044 H   0  0  0  0  0  0  0  0  0  0  0  0
   50.5530  162.1870   33.6370 H   0  0  0  0  0  0  0  0  0  0  0  0
   54.1660  158.8830   30.0970 H   0  0  0  0  0  0  0  0  0  0  0  0
   51.4090  155.6905   30.1428 H   0  0  0  0  0  0  0  0  0  0  0  0
  1  2  1  0
  2  3  1  0
  3  4  2  0
  4  5  1  0
  5  6  2  0
  6  7  1  0
  7  8  1  0
  8  9  1  0
  9 10  2  0
 10 11  1  0
 11 12  2  0
 12 13  1  0
 13 14  1  0
 13 15  2  0
 15 16  1  0
 16 17  2  0
 16 18  1  0
 18 19  1  0
  6 20  1  0
 20 21  2  0
 21 22  1  0
 22 23  1  0
 22 24  1  0
 22 25  1  0
 21  3  1  0
 18  7  2  0
 15  9  1  0
  1 26  1  0
  1 27  1  0
  1 28  1  0
  2 29  1  0
  2 30  1  0
  4 31  1  0
  5 32  1  0
 10 33  1  0
 11 34  1  0
 12 35  1  0
 14 36  1  0
 19 37  1  0
 20 38  1  0
M  END
>  <meeko>  (6) 
{"is_sidechain": [false], "free_energy": -9.176, "intermolecular_energy": -11.198, "internal_energy": -0.439}

$$$$
cand_050_out
     RDKit          3D

 38 40  0  0  0  0  0  0  0  0999 V2000
   47.8190  159.4360   30.7810 C   0  0  0  0  0  0  0  0  0  0  0  0
   48.9300  158.6520   31.4650 C   0  0  0  0  0  0  0  0  0  0  0  0
   49.7790  157.8880   30.4730 C   0  0  0  0  0  0  0  0  0  0  0  0
   49.3510  156.6070   30.0810 C   0  0  0  0  0  0  0  0  0  0  0  0
   50.0930  155.8460   29.1760 C   0  0  0  0  0  0  0  0  0  0  0  0
   51.2810  156.3410   28.6310 C   0  0  0  0  0  0  0  0  0  0  0  0
   52.0610  155.5110   27.6890 C   0  0  0  0  0  0  0  0  0  0  0  0
   51.7210  154.1640   27.7430 O   0  0  0  0  0  0  0  0  0  0  0  0
   52.3720  153.2820   26.9180 C   0  0  0  0  0  0  0  0  0  0  0  0
   52.0100  151.9380   27.0170 C   0  0  0  0  0  0  0  0  0  0  0  0
   52.6320  150.9880   26.2030 C   0  0  0  0  0  0  0  0  0  0  0  0
   53.6130  151.3830   25.2920 C   0  0  0  0  0  0  0  0  0  0  0  0
   53.9720  152.7240   25.1960 C   0  0  0  0  0  0  0  0  0  0  0  0
   54.9410  153.0410   24.2820 O   0  0  0  0  0  0  0  0  0  0  0  0
   53.3510  153.6750   26.0110 C   0  0  0  0  0  0  0  0  0  0  0  0
   53.6980  155.0940   25.9410 C   0  0  0  0  0  0  0  0  0  0  0  0
   54.5470  155.5210   25.1600 O   0  0  0  0  0  0  0  0  0  0  0  0
   52.9860  156.0180   26.8530 C   0  0  0  0  0  0  0  0  0  0  0  0
   53.3110  157.3600   26.7730 O   0  0  0  0  0  0  0  0  0  0  0  0
   51.7190  157.6110   29.0330 C   0  0  0  0  0  0  0  0  0  0  0  0
   50.9860  158.3970   29.9480 C   0  0  0  0  0  0  0  0  0  0  0  0
   51.5130  159.7670   30.3190 C   0  0  0  0  0  0  0  0  0  0  0  0
   51.4760  160.0240   31.6590 F   0  0  0  0  0  0  0  0  0  0  0  0
   50.8120  160.7810   29.7390 F   0  0  0  0  0  0  0  0  0  0  0  0
   52.8110  159.9470   29.9480 F   0  0  0  0  0  0  0  0  0  0  0  0
   47.1706  159.8936   31.5427 H   0  0  0  0  0  0  0  0  0  0  0  0
   48.2596  160.2243   30.1530 H   0  0  0  0  0  0  0  0  0  0  0  0
   47.2239  158.7567   30.1530 H   0  0  0  0  0  0  0  0  0  0  0  0
   49.5730  159.3544   32.0157 H   0  0  0  0  0  0  0  0  0  0  0  0
   48.4629  157.9234   32.1440 H   0  0  0  0  0  0  0  0  0  0  0  0
   48.4170  156.1983   30.4940 H   0  0  0  0  0  0  0  0  0  0  0  0
   49.7386  154.8451   28.8885 H   0  0  0  0  0  0  0  0  0  0  0  0
   51.2364  151.6271   27.7345 H   0  0  0  0  0  0  0  0  0  0  0  0
   52.3484  149.9280   26.2801 H   0  0  0  0  0  0  0  0  0  0  0  0
   54.1018  150.6349   24.6506 H   0  0  0  0  0  0  0  0  0  0  0  0
   55.2530  152.3900   23.6860 H   0  0  0  0  0  0  0  0  0  0  0  0
   54.2090  157.6240   26.7430 H   0  0  0  0  0  0  0  0  0  0  0  0
   52.6605  158.0059   28.6237 H   0  0  0  0  0  0  0  0  0  0  0  0
  1  2  1  0
  2  3  1  0
  3  4  2  0
  4  5  1  0
  5  6  2  0
  6  7  1  0
  7  8  1  0
  8  9  1  0
  9 10  2  0
 10 11  1  0
 11 12  2  0
 12 13  1  0
 13 14  1  0
 13 15  2  0
 15 16  1  0
 16 17  2  0
 16 18  1  0
 18 19  1  0
  6 20  1  0
 20 21  2  0
 21 22  1  0
 22 23  1  0
 22 24  1  0
 22 25  1  0
 21  3  1  0
 18  7  2  0
 15  9  1  0
  1 26  1  0
  1 27  1  0
  1 28  1  0
  2 29  1  0
  2 30  1  0
  4 31  1  0
  5 32  1  0
 10 33  1  0
 11 34  1  0
 12 35  1  0
 14 36  1  0
 19 37  1  0
 20 38  1  0
M  END
>  <meeko>  (7) 
{"is_sidechain": [false], "free_energy": -8.648, "intermolecular_energy": -10.88, "internal_energy": -0.107}

$$$$
cand_050_out
     RDKit          3D

 38 40  0  0  0  0  0  0  0  0999 V2000
   54.9190  155.0560   24.5070 C   0  0  0  0  0  0  0  0  0  0  0  0
   54.0130  154.2230   25.4010 C   0  0  0  0  0  0  0  0  0  0  0  0
   53.2900  155.0720   26.4240 C   0  0  0  0  0  0  0  0  0  0  0  0
   53.4250  156.4680   26.3420 C   0  0  0  0  0  0  0  0  0  0  0  0
   52.7910  157.3080   27.2600 C   0  0  0  0  0  0  0  0  0  0  0  0
   52.0000  156.7790   28.2850 C   0  0  0  0  0  0  0  0  0  0  0  0
   51.3530  157.6850   29.2580 C   0  0  0  0  0  0  0  0  0  0  0  0
   52.1070  158.8230   29.5240 O   0  0  0  0  0  0  0  0  0  0  0  0
   51.6190  159.7470   30.4110 C   0  0  0  0  0  0  0  0  0  0  0  0
   52.4150  160.8660   30.6610 C   0  0  0  0  0  0  0  0  0  0  0  0
   51.9770  161.8480   31.5530 C   0  0  0  0  0  0  0  0  0  0  0  0
   50.7440  161.7100   32.1930 C   0  0  0  0  0  0  0  0  0  0  0  0
   49.9520  160.5930   31.9430 C   0  0  0  0  0  0  0  0  0  0  0  0
   48.7570  160.5220   32.6060 O   0  0  0  0  0  0  0  0  0  0  0  0
   50.3910  159.6100   31.0510 C   0  0  0  0  0  0  0  0  0  0  0  0
   49.5900  158.4210   30.7610 C   0  0  0  0  0  0  0  0  0  0  0  0
   48.4920  158.2310   31.2790 O   0  0  0  0  0  0  0  0  0  0  0  0
   50.1490  157.4360   29.8060 C   0  0  0  0  0  0  0  0  0  0  0  0
   49.3810  156.3210   29.5260 O   0  0  0  0  0  0  0  0  0  0  0  0
   51.8780  155.3850   28.3790 C   0  0  0  0  0  0  0  0  0  0  0  0
   52.5110  154.5170   27.4630 C   0  0  0  0  0  0  0  0  0  0  0  0
   52.3160  153.0240   27.6180 C   0  0  0  0  0  0  0  0  0  0  0  0
   53.4720  152.3070   27.5070 F   0  0  0  0  0  0  0  0  0  0  0  0
   51.4750  152.4980   26.6840 F   0  0  0  0  0  0  0  0  0  0  0  0
   51.7910  152.6870   28.8290 F   0  0  0  0  0  0  0  0  0  0  0  0
   55.5861  155.6693   25.1306 H   0  0  0  0  0  0  0  0  0  0  0  0
   55.5209  154.3894   23.8720 H   0  0  0  0  0  0  0  0  0  0  0  0
   54.3052  155.7117   23.8720 H   0  0  0  0  0  0  0  0  0  0  0  0
   53.2681  153.7115   24.7737 H   0  0  0  0  0  0  0  0  0  0  0  0
   54.6412  153.5002   25.9422 H   0  0  0  0  0  0  0  0  0  0  0  0
   54.0398  156.9063   25.5421 H   0  0  0  0  0  0  0  0  0  0  0  0
   52.9151  158.3977   27.1760 H   0  0  0  0  0  0  0  0  0  0  0  0
   53.3863  160.9746   30.1562 H   0  0  0  0  0  0  0  0  0  0  0  0
   52.6037  162.7300   31.7511 H   0  0  0  0  0  0  0  0  0  0  0  0
   50.3985  162.4836   32.8945 H   0  0  0  0  0  0  0  0  0  0  0  0
   48.1420  161.2250   32.5390 H   0  0  0  0  0  0  0  0  0  0  0  0
   48.5310  156.4220   29.1450 H   0  0  0  0  0  0  0  0  0  0  0  0
   51.2715  154.9555   29.1900 H   0  0  0  0  0  0  0  0  0  0  0  0
  1  2  1  0
  2  3  1  0
  3  4  2  0
  4  5  1  0
  5  6  2  0
  6  7  1  0
  7  8  1  0
  8  9  1  0
  9 10  2  0
 10 11  1  0
 11 12  2  0
 12 13  1  0
 13 14  1  0
 13 15  2  0
 15 16  1  0
 16 17  2  0
 16 18  1  0
 18 19  1  0
  6 20  1  0
 20 21  2  0
 21 22  1  0
 22 23  1  0
 22 24  1  0
 22 25  1  0
 21  3  1  0
 18  7  2  0
 15  9  1  0
  1 26  1  0
  1 27  1  0
  1 28  1  0
  2 29  1  0
  2 30  1  0
  4 31  1  0
  5 32  1  0
 10 33  1  0
 11 34  1  0
 12 35  1  0
 14 36  1  0
 19 37  1  0
 20 38  1  0
M  END
>  <meeko>  (8) 
{"is_sidechain": [false], "free_energy": -8.535, "intermolecular_energy": -10.693, "internal_energy": -0.154}

$$$$
cand_050_out
     RDKit          3D

 38 40  0  0  0  0  0  0  0  0999 V2000
   52.0530  161.2440   30.9460 C   0  0  0  0  0  0  0  0  0  0  0  0
   50.9840  160.1650   31.0390 C   0  0  0  0  0  0  0  0  0  0  0  0
   51.3090  158.9680   30.1720 C   0  0  0  0  0  0  0  0  0  0  0  0
   52.6280  158.8250   29.7070 C   0  0  0  0  0  0  0  0  0  0  0  0
   52.9920  157.7480   28.8950 C   0  0  0  0  0  0  0  0  0  0  0  0
   52.0520  156.7800   28.5280 C   0  0  0  0  0  0  0  0  0  0  0  0
   52.4540  155.6580   27.6530 C   0  0  0  0  0  0  0  0  0  0  0  0
   51.9220  154.4390   28.0570 O   0  0  0  0  0  0  0  0  0  0  0  0
   52.2190  153.3140   27.3300 C   0  0  0  0  0  0  0  0  0  0  0  0
   51.6770  152.1090   27.7800 C   0  0  0  0  0  0  0  0  0  0  0  0
   51.9370  150.9260   27.0840 C   0  0  0  0  0  0  0  0  0  0  0  0
   52.7370  150.9480   25.9410 C   0  0  0  0  0  0  0  0  0  0  0  0
   53.2760  152.1520   25.4940 C   0  0  0  0  0  0  0  0  0  0  0  0
   54.0520  152.1010   24.3670 O   0  0  0  0  0  0  0  0  0  0  0  0
   53.0170  153.3360   26.1910 C   0  0  0  0  0  0  0  0  0  0  0  0
   53.5640  154.6210   25.7560 C   0  0  0  0  0  0  0  0  0  0  0  0
   54.2710  154.7240   24.7550 O   0  0  0  0  0  0  0  0  0  0  0  0
   53.2350  155.8150   26.5680 C   0  0  0  0  0  0  0  0  0  0  0  0
   53.7450  157.0280   26.1430 O   0  0  0  0  0  0  0  0  0  0  0  0
   50.7320  156.9300   28.9780 C   0  0  0  0  0  0  0  0  0  0  0  0
   50.3410  158.0110   29.7970 C   0  0  0  0  0  0  0  0  0  0  0  0
   48.9020  158.0940   30.2580 C   0  0  0  0  0  0  0  0  0  0  0  0
   48.2580  159.2240   29.8430 F   0  0  0  0  0  0  0  0  0  0  0  0
   48.7780  158.0880   31.6150 F   0  0  0  0  0  0  0  0  0  0  0  0
   48.1460  157.0550   29.8060 F   0  0  0  0  0  0  0  0  0  0  0  0
   52.3552  161.5490   31.9587 H   0  0  0  0  0  0  0  0  0  0  0  0
   52.9263  160.8494   30.4060 H   0  0  0  0  0  0  0  0  0  0  0  0
   51.6502  162.1136   30.4060 H   0  0  0  0  0  0  0  0  0  0  0  0
   50.9034  159.8343   32.0850 H   0  0  0  0  0  0  0  0  0  0  0  0
   50.0360  160.5947   30.6830 H   0  0  0  0  0  0  0  0  0  0  0  0
   53.3850  159.5725   29.9868 H   0  0  0  0  0  0  0  0  0  0  0  0
   54.0296  157.6605   28.5404 H   0  0  0  0  0  0  0  0  0  0  0  0
   51.0463  152.0909   28.6810 H   0  0  0  0  0  0  0  0  0  0  0  0
   51.5104  149.9757   27.4376 H   0  0  0  0  0  0  0  0  0  0  0  0
   52.9417  150.0160   25.3938 H   0  0  0  0  0  0  0  0  0  0  0  0
   54.3130  151.2740   24.0160 H   0  0  0  0  0  0  0  0  0  0  0  0
   54.3140  157.5180   26.7030 H   0  0  0  0  0  0  0  0  0  0  0  0
   49.9796  156.1834   28.6841 H   0  0  0  0  0  0  0  0  0  0  0  0
  1  2  1  0
  2  3  1  0
  3  4  2  0
  4  5  1  0
  5  6  2  0
  6  7  1  0
  7  8  1  0
  8  9  1  0
  9 10  2  0
 10 11  1  0
 11 12  2  0
 12 13  1  0
 13 14  1  0
 13 15  2  0
 15 16  1  0
 16 17  2  0
 16 18  1  0
 18 19  1  0
  6 20  1  0
 20 21  2  0
 21 22  1  0
 22 23  1  0
 22 24  1  0
 22 25  1  0
 21  3  1  0
 18  7  2  0
 15  9  1  0
  1 26  1  0
  1 27  1  0
  1 28  1  0
  2 29  1  0
  2 30  1  0
  4 31  1  0
  5 32  1  0
 10 33  1  0
 11 34  1  0
 12 35  1  0
 14 36  1  0
 19 37  1  0
 20 38  1  0
M  END
>  <meeko>  (9) 
{"is_sidechain": [false], "free_energy": -7.835, "intermolecular_energy": -9.701, "internal_energy": -0.282}

$$$$
