cand_047_out
     RDKit          3D

 38 40  0  0  0  0  0  0  0  0999 V2000
   52.1920  161.1260   30.6000 C   0  0  0  0  0  0  0  0  0  0  0  0
   51.3630  159.8840   30.4190 C   0  0  0  0  0  0  0  0  0  0  0  0
   51.9280  158.7860   29.7420 C   0  0  0  0  0  0  0  0  0  0  0  0
   51.2090  157.6000   29.5340 C   0  0  0  0  0  0  0  0  0  0  0  0
   51.7940  156.4540   28.8040 C   0  0  0  0  0  0  0  0  0  0  0  0
   52.3470  156.8170   27.5810 O   0  0  0  0  0  0  0  0  0  0  0  0
   52.9250  155.8490   26.8020 C   0  0  0  0  0  0  0  0  0  0  0  0
   53.4810  156.2600   25.5900 C   0  0  0  0  0  0  0  0  0  0  0  0
   54.0850  155.3240   24.7470 C   0  0  0  0  0  0  0  0  0  0  0  0
   54.1300  153.9780   25.1150 C   0  0  0  0  0  0  0  0  0  0  0  0
   53.5740  153.5690   26.3240 C   0  0  0  0  0  0  0  0  0  0  0  0
   53.6520  152.2370   26.6230 O   0  0  0  0  0  0  0  0  0  0  0  0
   52.9710  154.5080   27.1680 C   0  0  0  0  0  0  0  0  0  0  0  0
   52.3740  154.1210   28.4470 C   0  0  0  0  0  0  0  0  0  0  0  0
   52.3680  152.9550   28.8370 O   0  0  0  0  0  0  0  0  0  0  0  0
   51.7680  155.1920   29.2720 C   0  0  0  0  0  0  0  0  0  0  0  0
   51.1960  154.8150   30.4730 O   0  0  0  0  0  0  0  0  0  0  0  0
   49.8930  157.5300   29.9980 C   0  0  0  0  0  0  0  0  0  0  0  0
   49.3140  158.6120   30.6670 C   0  0  0  0  0  0  0  0  0  0  0  0
   50.0360  159.7980   30.8810 C   0  0  0  0  0  0  0  0  0  0  0  0
   49.3620  160.9240   31.6310 C   0  0  0  0  0  0  0  0  0  0  0  0
   48.6480  160.4340   32.8810 C   0  0  0  0  0  0  0  0  0  0  0  0
   49.5730  159.9200   33.7380 F   0  0  0  0  0  0  0  0  0  0  0  0
   52.3248  161.3250   31.6737 H   0  0  0  0  0  0  0  0  0  0  0  0
   53.1757  160.9820   30.1293 H   0  0  0  0  0  0  0  0  0  0  0  0
   51.6817  161.9793   30.1293 H   0  0  0  0  0  0  0  0  0  0  0  0
   52.9594  158.8605   29.3668 H   0  0  0  0  0  0  0  0  0  0  0  0
   53.4437  157.3200   25.2986 H   0  0  0  0  0  0  0  0  0  0  0  0
   54.5255  155.6478   23.7925 H   0  0  0  0  0  0  0  0  0  0  0  0
   54.6044  153.2412   24.4501 H   0  0  0  0  0  0  0  0  0  0  0  0
   53.4080  151.9340   27.4750 H   0  0  0  0  0  0  0  0  0  0  0  0
   51.3750  155.3050   31.2500 H   0  0  0  0  0  0  0  0  0  0  0  0
   49.3065  156.6138   29.8351 H   0  0  0  0  0  0  0  0  0  0  0  0
   48.2789  158.5339   31.0309 H   0  0  0  0  0  0  0  0  0  0  0  0
   50.1244  161.6608   31.9241 H   0  0  0  0  0  0  0  0  0  0  0  0
   48.6092  161.3708   30.9649 H   0  0  0  0  0  0  0  0  0  0  0  0
   48.1243  161.2736   33.3614 H   0  0  0  0  0  0  0  0  0  0  0  0
   47.9129  159.6604   32.6143 H   0  0  0  0  0  0  0  0  0  0  0  0
  1  2  1  0
  2  3  2  0
  3  4  1  0
  4  5  1  0
  5  6  1  0
  6  7  1  0
  7  8  2  0
  8  9  1  0
  9 10  2  0
 10 11  1  0
 11 12  1  0
 11 13  2  0
 13 14  1  0
 14 15  2  0
 14 16  1  0
 16 17  1  0
  4 18  2  0
 18 19  1  0
 19 20  2  0
 20 21  1  0
 21 22  1  0
 22 23  1  0
 20  2  1  0
 16  5  2  0
 13  7  1  0
  1 24  1  0
  1 25  1  0
  1 26  1  0
  3 27  1  0
  8 28  1  0
  9 29  1  0
 10 30  1  0
 12 31  1  0
 17 32  1  0
 18 33  1  0
 19 34  1  0
 21 35  1  0
 21 36  1  0
 22 37  1  0
 22 38  1  0
M  END
>  <meeko>  (1) 
{"is_sidechain": [false], "free_energy": -10.685, "intermolecular_energy": -13.183, "internal_energy": -0.303}

$$$$
cand_047_out
     RDKit          3D

 38 40  0  0  0  0  0  0  0  0999 V2000
   48.0350  158.8860   31.2690 C   0  0  0  0  0  0  0  0  0  0  0  0
   49.4470  158.9320   30.7520 C   0  0  0  0  0  0  0  0  0  0  0  0
   49.9510  157.8130   30.0600 C   0  0  0  0  0  0  0  0  0  0  0  0
   51.2600  157.7860   29.5560 C   0  0  0  0  0  0  0  0  0  0  0  0
   51.7970  156.6050   28.8490 C   0  0  0  0  0  0  0  0  0  0  0  0
   52.3640  156.9220   27.6200 O   0  0  0  0  0  0  0  0  0  0  0  0
   52.9020  155.9170   26.8590 C   0  0  0  0  0  0  0  0  0  0  0  0
   53.4740  156.2820   25.6390 C   0  0  0  0  0  0  0  0  0  0  0  0
   54.0400  155.3060   24.8150 C   0  0  0  0  0  0  0  0  0  0  0  0
   54.0310  153.9670   25.2080 C   0  0  0  0  0  0  0  0  0  0  0  0
   53.4580  153.6040   26.4250 C   0  0  0  0  0  0  0  0  0  0  0  0
   53.4830  152.2760   26.7480 O   0  0  0  0  0  0  0  0  0  0  0  0
   52.8950  154.5820   27.2500 C   0  0  0  0  0  0  0  0  0  0  0  0
   52.2830  154.2430   28.5370 C   0  0  0  0  0  0  0  0  0  0  0  0
   52.2300  153.0870   28.9480 O   0  0  0  0  0  0  0  0  0  0  0  0
   51.7210  155.3530   29.3400 C   0  0  0  0  0  0  0  0  0  0  0  0
   51.1340  155.0220   30.5480 O   0  0  0  0  0  0  0  0  0  0  0  0
   52.0780  158.8980   29.7740 C   0  0  0  0  0  0  0  0  0  0  0  0
   51.5970  160.0140   30.4640 C   0  0  0  0  0  0  0  0  0  0  0  0
   50.2850  160.0440   30.9630 C   0  0  0  0  0  0  0  0  0  0  0  0
   49.8160  161.2890   31.6800 C   0  0  0  0  0  0  0  0  0  0  0  0
   50.1590  161.2610   33.1610 C   0  0  0  0  0  0  0  0  0  0  0  0
   49.3150  160.3960   33.7880 F   0  0  0  0  0  0  0  0  0  0  0  0
   48.0471  158.8864   32.3689 H   0  0  0  0  0  0  0  0  0  0  0  0
   47.4835  159.7667   30.9080 H   0  0  0  0  0  0  0  0  0  0  0  0
   47.5420  157.9713   30.9080 H   0  0  0  0  0  0  0  0  0  0  0  0
   49.3014  156.9379   29.9110 H   0  0  0  0  0  0  0  0  0  0  0  0
   53.4791  157.3368   25.3268 H   0  0  0  0  0  0  0  0  0  0  0  0
   54.4935  155.5935   23.8549 H   0  0  0  0  0  0  0  0  0  0  0  0
   54.4757  153.1992   24.5578 H   0  0  0  0  0  0  0  0  0  0  0  0
   54.2250  151.7520   26.5180 H   0  0  0  0  0  0  0  0  0  0  0  0
   51.1580  154.1360   30.8520 H   0  0  0  0  0  0  0  0  0  0  0  0
   53.1119  158.8947   29.3983 H   0  0  0  0  0  0  0  0  0  0  0  0
   52.2557  160.8813   30.6184 H   0  0  0  0  0  0  0  0  0  0  0  0
   50.2976  162.1650   31.2211 H   0  0  0  0  0  0  0  0  0  0  0  0
   48.7211  161.3405   31.5873 H   0  0  0  0  0  0  0  0  0  0  0  0
   51.1983  160.9261   33.2940 H   0  0  0  0  0  0  0  0  0  0  0  0
   50.0505  162.2680   33.5901 H   0  0  0  0  0  0  0  0  0  0  0  0
  1  2  1  0
  2  3  2  0
  3  4  1  0
  4  5  1  0
  5  6  1  0
  6  7  1  0
  7  8  2  0
  8  9  1  0
  9 10  2  0
 10 11  1  0
 11 12  1  0
 11 13  2  0
 13 14  1  0
 14 15  2  0
 14 16  1  0
 16 17  1  0
  4 18  2  0
 18 19  1  0
 19 20  2  0
 20 21  1  0
 21 22  1  0
 22 23  1  0
 20  2  1  0
 16  5  2  0
 13  7  1  0
  1 24  1  0
  1 25  1  0
  1 26  1  0
  3 27  1  0
  8 28  1  0
  9 29  1  0
 10 30  1  0
 12 31  1  0
 17 32  1  0
 18 33  1  0
 19 34  1  0
 21 35  1  0
 21 36  1  0
 22 37  1  0
 22 38  1  0
M  END
>  <meeko>  (2) 
{"is_sidechain": [false], "free_energy": -10.404, "intermolecular_energy": -12.835, "internal_energy": -0.305}

$$$$
cand_047_out
     RDKit          3D

 38 40  0  0  0  0  0  0  0  0999 V2000
   48.6200  158.5480   30.9030 C   0  0  0  0  0  0  0  0  0  0  0  0
   49.9950  158.4030   30.3120 C   0  0  0  0  0  0  0  0  0  0  0  0
   50.3190  157.2080   29.6390 C   0  0  0  0  0  0  0  0  0  0  0  0
   51.5840  157.0040   29.0690 C   0  0  0  0  0  0  0  0  0  0  0  0
   51.9330  155.7420   28.3820 C   0  0  0  0  0  0  0  0  0  0  0  0
   52.4030  155.9430   27.0890 O   0  0  0  0  0  0  0  0  0  0  0  0
   52.7650  154.8550   26.3380 C   0  0  0  0  0  0  0  0  0  0  0  0
   53.2450  155.1030   25.0520 C   0  0  0  0  0  0  0  0  0  0  0  0
   53.6290  154.0380   24.2340 C   0  0  0  0  0  0  0  0  0  0  0  0
   53.5320  152.7260   24.7010 C   0  0  0  0  0  0  0  0  0  0  0  0
   53.0510  152.4800   25.9840 C   0  0  0  0  0  0  0  0  0  0  0  0
   52.9810  151.1730   26.3780 O   0  0  0  0  0  0  0  0  0  0  0  0
   52.6680  153.5470   26.8030 C   0  0  0  0  0  0  0  0  0  0  0  0
   52.1580  153.3320   28.1580 C   0  0  0  0  0  0  0  0  0  0  0  0
   52.0360  152.2070   28.6380 O   0  0  0  0  0  0  0  0  0  0  0  0
   51.7870  154.5300   28.9480 C   0  0  0  0  0  0  0  0  0  0  0  0
   51.2940  154.3160   30.2220 O   0  0  0  0  0  0  0  0  0  0  0  0
   52.5430  158.0130   29.1990 C   0  0  0  0  0  0  0  0  0  0  0  0
   52.2400  159.2020   29.8690 C   0  0  0  0  0  0  0  0  0  0  0  0
   50.9710  159.4090   30.4340 C   0  0  0  0  0  0  0  0  0  0  0  0
   50.6990  160.7250   31.1260 C   0  0  0  0  0  0  0  0  0  0  0  0
   51.9760  161.3980   31.6040 C   0  0  0  0  0  0  0  0  0  0  0  0
   52.4490  162.1940   30.6050 F   0  0  0  0  0  0  0  0  0  0  0  0
   48.6901  158.5406   32.0007 H   0  0  0  0  0  0  0  0  0  0  0  0
   48.1762  159.4979   30.5703 H   0  0  0  0  0  0  0  0  0  0  0  0
   47.9878  157.7115   30.5703 H   0  0  0  0  0  0  0  0  0  0  0  0
   49.5606  156.4153   29.5588 H   0  0  0  0  0  0  0  0  0  0  0  0
   53.3210  156.1363   24.6825 H   0  0  0  0  0  0  0  0  0  0  0  0
   54.0085  154.2334   23.2202 H   0  0  0  0  0  0  0  0  0  0  0  0
   53.8352  151.8879   24.0562 H   0  0  0  0  0  0  0  0  0  0  0  0
   53.6980  150.5940   26.2090 H   0  0  0  0  0  0  0  0  0  0  0  0
   50.6140  154.8650   30.5580 H   0  0  0  0  0  0  0  0  0  0  0  0
   53.5457  157.8699   28.7699 H   0  0  0  0  0  0  0  0  0  0  0  0
   53.0063  159.9865   29.9549 H   0  0  0  0  0  0  0  0  0  0  0  0
   50.1872  161.3967   30.4210 H   0  0  0  0  0  0  0  0  0  0  0  0
   50.0751  160.5196   32.0084 H   0  0  0  0  0  0  0  0  0  0  0  0
   51.7624  162.0081   32.4940 H   0  0  0  0  0  0  0  0  0  0  0  0
   52.7263  160.6371   31.8648 H   0  0  0  0  0  0  0  0  0  0  0  0
  1  2  1  0
  2  3  2  0
  3  4  1  0
  4  5  1  0
  5  6  1  0
  6  7  1  0
  7  8  2  0
  8  9  1  0
  9 10  2  0
 10 11  1  0
 11 12  1  0
 11 13  2  0
 13 14  1  0
 14 15  2  0
 14 16  1  0
 16 17  1  0
  4 18  2  0
 18 19  1  0
 19 20  2  0
 20 21  1  0
 21 22  1  0
 22 23  1  0
 20  2  1  0
 16  5  2  0
 13  7  1  0
  1 24  1  0
  1 25  1  0
  1 26  1  0
  3 27  1  0
  8 28  1  0
  9 29  1  0
 10 30  1  0
 12 31  1  0
 17 32  1  0
 18 33  1  0
 19 34  1  0
 21 35  1  0
 21 36  1  0
 22 37  1  0
 22 38  1  0
M  END
>  <meeko>  (3) 
{"is_sidechain": [false], "free_energy": -9.938, "intermolecular_energy": -12.375, "internal_energy": -0.19}

$$$$
cand_047_out
     RDKit          3D

 38 40  0  0  0  0  0  0  0  0999 V2000
   53.5760  156.1510   25.7200 C   0  0  0  0  0  0  0  0  0  0  0  0
   52.8480  155.9310   27.0180 C   0  0  0  0  0  0  0  0  0  0  0  0
   52.4210  157.0550   27.7520 C   0  0  0  0  0  0  0  0  0  0  0  0
   51.7420  156.9220   28.9720 C   0  0  0  0  0  0  0  0  0  0  0  0
   51.3120  158.1000   29.7560 C   0  0  0  0  0  0  0  0  0  0  0  0
   49.9820  158.0280   30.1550 O   0  0  0  0  0  0  0  0  0  0  0  0
   49.4550  159.0570   30.8910 C   0  0  0  0  0  0  0  0  0  0  0  0
   48.1210  158.9370   31.2830 C   0  0  0  0  0  0  0  0  0  0  0  0
   47.5210  159.9510   32.0340 C   0  0  0  0  0  0  0  0  0  0  0  0
   48.2540  161.0840   32.3910 C   0  0  0  0  0  0  0  0  0  0  0  0
   49.5850  161.2030   31.9980 C   0  0  0  0  0  0  0  0  0  0  0  0
   50.2440  162.3380   32.3800 O   0  0  0  0  0  0  0  0  0  0  0  0
   50.1850  160.1870   31.2480 C   0  0  0  0  0  0  0  0  0  0  0  0
   51.5800  160.2720   30.8140 C   0  0  0  0  0  0  0  0  0  0  0  0
   52.2880  161.2400   31.0820 O   0  0  0  0  0  0  0  0  0  0  0  0
   52.1240  159.1380   30.0300 C   0  0  0  0  0  0  0  0  0  0  0  0
   53.4390  159.2340   29.6140 O   0  0  0  0  0  0  0  0  0  0  0  0
   51.5090  155.6350   29.4670 C   0  0  0  0  0  0  0  0  0  0  0  0
   51.9320  154.5100   28.7540 C   0  0  0  0  0  0  0  0  0  0  0  0
   52.6060  154.6420   27.5290 C   0  0  0  0  0  0  0  0  0  0  0  0
   53.0160  153.3860   26.7950 C   0  0  0  0  0  0  0  0  0  0  0  0
   51.9050  152.3500   26.7660 C   0  0  0  0  0  0  0  0  0  0  0  0
   52.4260  151.1650   26.3420 F   0  0  0  0  0  0  0  0  0  0  0  0
   54.6100  156.4635   25.9279 H   0  0  0  0  0  0  0  0  0  0  0  0
   53.5850  155.2155   25.1415 H   0  0  0  0  0  0  0  0  0  0  0  0
   53.0653  156.9349   25.1415 H   0  0  0  0  0  0  0  0  0  0  0  0
   52.6251  158.0618   27.3586 H   0  0  0  0  0  0  0  0  0  0  0  0
   47.5424  158.0449   31.0010 H   0  0  0  0  0  0  0  0  0  0  0  0
   46.4699  159.8564   32.3442 H   0  0  0  0  0  0  0  0  0  0  0  0
   47.7810  161.8821   32.9821 H   0  0  0  0  0  0  0  0  0  0  0  0
   49.7580  163.1010   32.6270 H   0  0  0  0  0  0  0  0  0  0  0  0
   53.6720  159.8330   28.9340 H   0  0  0  0  0  0  0  0  0  0  0  0
   50.9876  155.5069   30.4271 H   0  0  0  0  0  0  0  0  0  0  0  0
   51.7341  153.5063   29.1582 H   0  0  0  0  0  0  0  0  0  0  0  0
   53.2808  153.6506   25.7607 H   0  0  0  0  0  0  0  0  0  0  0  0
   53.8727  152.9478   27.3278 H   0  0  0  0  0  0  0  0  0  0  0  0
   51.4842  152.2297   27.7752 H   0  0  0  0  0  0  0  0  0  0  0  0
   51.1063  152.6749   26.0830 H   0  0  0  0  0  0  0  0  0  0  0  0
  1  2  1  0
  2  3  2  0
  3  4  1  0
  4  5  1  0
  5  6  1  0
  6  7  1  0
  7  8  2  0
  8  9  1  0
  9 10  2  0
 10 11  1  0
 11 12  1  0
 11 13  2  0
 13 14  1  0
 14 15  2  0
 14 16  1  0
 16 17  1  0
  4 18  2  0
 18 19  1  0
 19 20  2  0
 20 21  1  0
 21 22  1  0
 22 23  1  0
 20  2  1  0
 16  5  2  0
 13  7  1  0
  1 24  1  0
  1 25  1  0
  1 26  1  0
  3 27  1  0
  8 28  1  0
  9 29  1  0
 10 30  1  0
 12 31  1  0
 17 32  1  0
 18 33  1  0
 19 34  1  0
 21 35  1  0
 21 36  1  0
 22 37  1  0
 22 38  1  0
M  END
>  <meeko>  (4) 
{"is_sidechain": [false], "free_energy": -9.774, "intermolecular_energy": -12.206, "internal_energy": -0.156}

$$$$
cand_047_out
     RDKit          3D

 38 40  0  0  0  0  0  0  0  0999 V2000
   51.8750  153.2870   28.8810 C   0  0  0  0  0  0  0  0  0  0  0  0
   52.1290  154.7000   28.4330 C   0  0  0  0  0  0  0  0  0  0  0  0
   51.6700  155.7580   29.2420 C   0  0  0  0  0  0  0  0  0  0  0  0
   51.8670  157.0990   28.8810 C   0  0  0  0  0  0  0  0  0  0  0  0
   51.3680  158.2110   29.7180 C   0  0  0  0  0  0  0  0  0  0  0  0
   50.0250  158.0750   30.0530 O   0  0  0  0  0  0  0  0  0  0  0  0
   49.4350  159.0390   30.8290 C   0  0  0  0  0  0  0  0  0  0  0  0
   48.0900  158.8540   31.1530 C   0  0  0  0  0  0  0  0  0  0  0  0
   47.4270  159.8000   31.9400 C   0  0  0  0  0  0  0  0  0  0  0  0
   48.1080  160.9290   32.3990 C   0  0  0  0  0  0  0  0  0  0  0  0
   49.4490  161.1110   32.0730 C   0  0  0  0  0  0  0  0  0  0  0  0
   50.0550  162.2390   32.5540 O   0  0  0  0  0  0  0  0  0  0  0  0
   50.1120  160.1640   31.2870 C   0  0  0  0  0  0  0  0  0  0  0  0
   51.5220  160.3170   30.9220 C   0  0  0  0  0  0  0  0  0  0  0  0
   52.1860  161.2870   31.2810 O   0  0  0  0  0  0  0  0  0  0  0  0
   52.1340  159.2530   30.0920 C   0  0  0  0  0  0  0  0  0  0  0  0
   53.4610  159.4140   29.7410 O   0  0  0  0  0  0  0  0  0  0  0  0
   52.5190  157.3750   27.6750 C   0  0  0  0  0  0  0  0  0  0  0  0
   52.9750  156.3370   26.8580 C   0  0  0  0  0  0  0  0  0  0  0  0
   52.7830  154.9940   27.2220 C   0  0  0  0  0  0  0  0  0  0  0  0
   53.3200  153.9180   26.3060 C   0  0  0  0  0  0  0  0  0  0  0  0
   53.9930  154.4970   25.0720 C   0  0  0  0  0  0  0  0  0  0  0  0
   53.3440  154.0370   23.9670 F   0  0  0  0  0  0  0  0  0  0  0  0
   51.8677  153.2466   29.9802 H   0  0  0  0  0  0  0  0  0  0  0  0
   50.9018  152.9494   28.4952 H   0  0  0  0  0  0  0  0  0  0  0  0
   52.6697  152.6316   28.4952 H   0  0  0  0  0  0  0  0  0  0  0  0
   51.1441  155.5267   30.1800 H   0  0  0  0  0  0  0  0  0  0  0  0
   47.5528  157.9655   30.7897 H   0  0  0  0  0  0  0  0  0  0  0  0
   46.3676  159.6548   32.1979 H   0  0  0  0  0  0  0  0  0  0  0  0
   47.5856  161.6737   33.0174 H   0  0  0  0  0  0  0  0  0  0  0  0
   50.0710  163.0190   32.0360 H   0  0  0  0  0  0  0  0  0  0  0  0
   53.6900  159.6210   28.8570 H   0  0  0  0  0  0  0  0  0  0  0  0
   52.6744  158.4193   27.3665 H   0  0  0  0  0  0  0  0  0  0  0  0
   53.4916  156.5751   25.9165 H   0  0  0  0  0  0  0  0  0  0  0  0
   54.0546  153.3153   26.8602 H   0  0  0  0  0  0  0  0  0  0  0  0
   52.4703  153.3051   25.9708 H   0  0  0  0  0  0  0  0  0  0  0  0
   53.9405  155.5953   25.1022 H   0  0  0  0  0  0  0  0  0  0  0  0
   55.0493  154.1914   25.0418 H   0  0  0  0  0  0  0  0  0  0  0  0
  1  2  1  0
  2  3  2  0
  3  4  1  0
  4  5  1  0
  5  6  1  0
  6  7  1  0
  7  8  2  0
  8  9  1  0
  9 10  2  0
 10 11  1  0
 11 12  1  0
 11 13  2  0
 13 14  1  0
 14 15  2  0
 14 16  1  0
 16 17  1  0
  4 18  2  0
 18 19  1  0
 19 20  2  0
 20 21  1  0
 21 22  1  0
 22 23  1  0
 20  2  1  0
 16  5  2  0
 13  7  1  0
  1 24  1  0
  1 25  1  0
  1 26  1  0
  3 27  1  0
  8 28  1  0
  9 29  1  0
 10 30  1  0
 12 31  1  0
 17 32  1  0
 18 33  1  0
 19 34  1  0
 21 35  1  0
 21 36  1  0
 22 37  1  0
 22 38  1  0
M  END
>  <meeko>  (5) 
{"is_sidechain": [false], "free_energy": -9.252, "intermolecular_energy": -11.519, "internal_energy": -0.2}

$$$$
cand_047_out
     RDKit          3D

 38 40  0  0  0  0  0  0  0  0999 V2000
   53.7510  155.8940   25.5000 C   0  0  0  0  0  0  0  0  0  0  0  0
   53.0050  155.5350   26.7570 C   0  0  0  0  0  0  0  0  0  0  0  0
   52.3860  156.5640   27.4930 C   0  0  0  0  0  0  0  0  0  0  0  0
   51.6800  156.3000   28.6760 C   0  0  0  0  0  0  0  0  0  0  0  0
   51.0470  157.3810   29.4610 C   0  0  0  0  0  0  0  0  0  0  0  0
   51.9170  158.4290   29.7380 O   0  0  0  0  0  0  0  0  0  0  0  0
   51.4570  159.5000   30.4590 C   0  0  0  0  0  0  0  0  0  0  0  0
   52.3590  160.5370   30.7000 C   0  0  0  0  0  0  0  0  0  0  0  0
   51.9550  161.6570   31.4310 C   0  0  0  0  0  0  0  0  0  0  0  0
   50.6500  161.7390   31.9210 C   0  0  0  0  0  0  0  0  0  0  0  0
   49.7520  160.7030   31.6800 C   0  0  0  0  0  0  0  0  0  0  0  0
   48.4910  160.8470   32.1900 O   0  0  0  0  0  0  0  0  0  0  0  0
   50.1570  159.5830   30.9480 C   0  0  0  0  0  0  0  0  0  0  0  0
   49.2440  158.4720   30.6720 C   0  0  0  0  0  0  0  0  0  0  0  0
   48.0830  158.4670   31.0760 O   0  0  0  0  0  0  0  0  0  0  0  0
   49.7680  157.3360   29.8800 C   0  0  0  0  0  0  0  0  0  0  0  0
   48.9020  156.2850   29.6360 O   0  0  0  0  0  0  0  0  0  0  0  0
   51.6180  154.9800   29.1330 C   0  0  0  0  0  0  0  0  0  0  0  0
   52.2330  153.9490   28.4180 C   0  0  0  0  0  0  0  0  0  0  0  0
   52.9340  154.2110   27.2300 C   0  0  0  0  0  0  0  0  0  0  0  0
   53.5570  153.0490   26.4920 C   0  0  0  0  0  0  0  0  0  0  0  0
   52.5760  151.9070   26.2870 C   0  0  0  0  0  0  0  0  0  0  0  0
   53.1730  150.9510   25.5230 F   0  0  0  0  0  0  0  0  0  0  0  0
   54.7132  156.3570   25.7642 H   0  0  0  0  0  0  0  0  0  0  0  0
   53.9320  154.9844   24.9086 H   0  0  0  0  0  0  0  0  0  0  0  0
   53.1530  156.6030   24.9086 H   0  0  0  0  0  0  0  0  0  0  0  0
   52.4580  157.6003   27.1312 H   0  0  0  0  0  0  0  0  0  0  0  0
   53.3873  160.4727   30.3148 H   0  0  0  0  0  0  0  0  0  0  0  0
   52.6656  162.4750   31.6207 H   0  0  0  0  0  0  0  0  0  0  0  0
   50.3321  162.6209   32.4965 H   0  0  0  0  0  0  0  0  0  0  0  0
   47.7490  160.8210   31.6170 H   0  0  0  0  0  0  0  0  0  0  0  0
   48.1500  156.1640   30.1810 H   0  0  0  0  0  0  0  0  0  0  0  0
   51.0798  154.7509   30.0646 H   0  0  0  0  0  0  0  0  0  0  0  0
   52.1670  152.9165   28.7915 H   0  0  0  0  0  0  0  0  0  0  0  0
   53.9038  153.3989   25.5085 H   0  0  0  0  0  0  0  0  0  0  0  0
   54.3924  152.6716   27.1000 H   0  0  0  0  0  0  0  0  0  0  0  0
   52.2955  151.4805   27.2614 H   0  0  0  0  0  0  0  0  0  0  0  0
   51.6699  152.2767   25.7847 H   0  0  0  0  0  0  0  0  0  0  0  0
  1  2  1  0
  2  3  2  0
  3  4  1  0
  4  5  1  0
  5  6  1  0
  6  7  1  0
  7  8  2  0
  8  9  1  0
  9 10  2  0
 10 11  1  0
 11 12  1  0
 11 13  2  0
 13 14  1  0
 14 15  2  0
 14 16  1  0
 16 17  1  0
  4 18  2  0
 18 19  1  0
 19 20  2  0
 20 21  1  0
 21 22  1  0
 22 23  1  0
 20  2  1  0
 16  5  2  0
 13  7  1  0
  1 24  1  0
  1 25  1  0
  1 26  1  0
  3 27  1  0
  8 28  1  0
  9 29  1  0
 10 30  1  0
 12 31  1  0
 17 32  1  0
 18 33  1  0
 19 34  1  0
 21 35  1  0
 21 36  1  0
 22 37  1  0
 22 38  1  0
M  END
>  <meeko>  (6) 
{"is_sidechain": [false], "free_energy": -8.818, "intermolecular_energy": -11.017, "internal_energy": -0.166}

$$$$
cand_047_out
     RDKit          3D

 38 40  0  0  0  0  0  0  0  0999 V2000
   51.8950  159.3550   30.0530 C   0  0  0  0  0  0  0  0  0  0  0  0
   51.3280  158.0130   29.6770 C   0  0  0  0  0  0  0  0  0  0  0  0
   52.0360  157.2130   28.7590 C   0  0  0  0  0  0  0  0  0  0  0  0
   51.5620  155.9550   28.3610 C   0  0  0  0  0  0  0  0  0  0  0  0
   52.2920  155.1230   27.3810 C   0  0  0  0  0  0  0  0  0  0  0  0
   51.9800  153.7720   27.4790 O   0  0  0  0  0  0  0  0  0  0  0  0
   52.5870  152.8870   26.6270 C   0  0  0  0  0  0  0  0  0  0  0  0
   52.2320  151.5430   26.7500 C   0  0  0  0  0  0  0  0  0  0  0  0
   52.8150  150.5880   25.9130 C   0  0  0  0  0  0  0  0  0  0  0  0
   53.7540  150.9780   24.9550 C   0  0  0  0  0  0  0  0  0  0  0  0
   54.1070  152.3190   24.8340 C   0  0  0  0  0  0  0  0  0  0  0  0
   55.0320  152.6320   23.8770 O   0  0  0  0  0  0  0  0  0  0  0  0
   53.5220  153.2740   25.6720 C   0  0  0  0  0  0  0  0  0  0  0  0
   53.8650  154.6940   25.5780 C   0  0  0  0  0  0  0  0  0  0  0  0
   54.6870  155.1130   24.7660 O   0  0  0  0  0  0  0  0  0  0  0  0
   53.1830  155.6260   26.5050 C   0  0  0  0  0  0  0  0  0  0  0  0
   53.5230  156.9630   26.4180 O   0  0  0  0  0  0  0  0  0  0  0  0
   50.3430  155.5080   28.8810 C   0  0  0  0  0  0  0  0  0  0  0  0
   49.6250  156.2920   29.7870 C   0  0  0  0  0  0  0  0  0  0  0  0
   50.1020  157.5500   30.1920 C   0  0  0  0  0  0  0  0  0  0  0  0
   49.2900  158.3390   31.1920 C   0  0  0  0  0  0  0  0  0  0  0  0
   48.2390  159.2080   30.5200 C   0  0  0  0  0  0  0  0  0  0  0  0
   47.1730  159.3280   31.3590 F   0  0  0  0  0  0  0  0  0  0  0  0
   51.9323  159.4433   31.1488 H   0  0  0  0  0  0  0  0  0  0  0  0
   52.9109  159.4519   29.6425 H   0  0  0  0  0  0  0  0  0  0  0  0
   51.2563  160.1510   29.6425 H   0  0  0  0  0  0  0  0  0  0  0  0
   52.9845  157.5845   28.3440 H   0  0  0  0  0  0  0  0  0  0  0  0
   51.4937  151.2356   27.5053 H   0  0  0  0  0  0  0  0  0  0  0  0
   52.5345  149.5287   26.0085 H   0  0  0  0  0  0  0  0  0  0  0  0
   54.2140  150.2261   24.2969 H   0  0  0  0  0  0  0  0  0  0  0  0
   55.6720  151.9970   23.6200 H   0  0  0  0  0  0  0  0  0  0  0  0
   54.3310  157.2150   26.0160 H   0  0  0  0  0  0  0  0  0  0  0  0
   49.9458  154.5294   28.5735 H   0  0  0  0  0  0  0  0  0  0  0  0
   48.6717  155.9189   30.1895 H   0  0  0  0  0  0  0  0  0  0  0  0
   48.7866  157.6366   31.8726 H   0  0  0  0  0  0  0  0  0  0  0  0
   49.9777  159.0017   31.7378 H   0  0  0  0  0  0  0  0  0  0  0  0
   48.6594  160.2026   30.3104 H   0  0  0  0  0  0  0  0  0  0  0  0
   47.9214  158.7484   29.5724 H   0  0  0  0  0  0  0  0  0  0  0  0
  1  2  1  0
  2  3  2  0
  3  4  1  0
  4  5  1  0
  5  6  1  0
  6  7  1  0
  7  8  2  0
  8  9  1  0
  9 10  2  0
 10 11  1  0
 11 12  1  0
 11 13  2  0
 13 14  1  0
 14 15  2  0
 14 16  1  0
 16 17  1  0
  4 18  2  0
 18 19  1  0
 19 20  2  0
 20 21  1  0
 21 22  1  0
 22 23  1  0
 20  2  1  0
 16  5  2  0
 13  7  1  0
  1 24  1  0
  1 25  1  0
  1 26  1  0
  3 27  1  0
  8 28  1  0
  9 29  1  0
 10 30  1  0
 12 31  1  0
 17 32  1  0
 18 33  1  0
 19 34  1  0
 21 35  1  0
 21 36  1  0
 22 37  1  0
 22 38  1  0
M  END
>  <meeko>  (7) 
{"is_sidechain": [false], "free_energy": -8.777, "intermolecular_energy": -11.256, "internal_energy": 0.124}

$$$$
cand_047_out
     RDKit          3D

 38 40  0  0  0  0  0  0  0  0999 V2000
   51.8820  152.8100   28.1660 C   0  0  0  0  0  0  0  0  0  0  0  0
   52.1730  154.2660   27.9230 C   0  0  0  0  0  0  0  0  0  0  0  0
   51.5710  155.2250   28.7610 C   0  0  0  0  0  0  0  0  0  0  0  0
   51.7940  156.5980   28.5880 C   0  0  0  0  0  0  0  0  0  0  0  0
   51.1450  157.6070   29.4530 C   0  0  0  0  0  0  0  0  0  0  0  0
   51.9720  158.6870   29.7380 O   0  0  0  0  0  0  0  0  0  0  0  0
   51.4930  159.6980   30.5300 C   0  0  0  0  0  0  0  0  0  0  0  0
   52.3520  160.7700   30.7790 C   0  0  0  0  0  0  0  0  0  0  0  0
   51.9270  161.8320   31.5800 C   0  0  0  0  0  0  0  0  0  0  0  0
   50.6450  161.8210   32.1340 C   0  0  0  0  0  0  0  0  0  0  0  0
   49.7900  160.7510   31.8860 C   0  0  0  0  0  0  0  0  0  0  0  0
   48.5500  160.8040   32.4600 O   0  0  0  0  0  0  0  0  0  0  0  0
   50.2160  159.6890   31.0830 C   0  0  0  0  0  0  0  0  0  0  0  0
   49.3490  158.5440   30.7970 C   0  0  0  0  0  0  0  0  0  0  0  0
   48.2110  158.4580   31.2540 O   0  0  0  0  0  0  0  0  0  0  0  0
   49.8920  157.4740   29.9280 C   0  0  0  0  0  0  0  0  0  0  0  0
   49.0700  156.3910   29.6740 O   0  0  0  0  0  0  0  0  0  0  0  0
   52.6210  157.0110   27.5390 C   0  0  0  0  0  0  0  0  0  0  0  0
   53.2210  156.0730   26.6940 C   0  0  0  0  0  0  0  0  0  0  0  0
   53.0040  154.6970   26.8710 C   0  0  0  0  0  0  0  0  0  0  0  0
   53.7000  153.7330   25.9390 C   0  0  0  0  0  0  0  0  0  0  0  0
   53.3970  154.0270   24.4790 C   0  0  0  0  0  0  0  0  0  0  0  0
   53.9760  153.0620   23.7110 F   0  0  0  0  0  0  0  0  0  0  0  0
   51.8439  152.6194   29.2487 H   0  0  0  0  0  0  0  0  0  0  0  0
   50.9139  152.5491   27.7135 H   0  0  0  0  0  0  0  0  0  0  0  0
   52.6754  152.1970   27.7135 H   0  0  0  0  0  0  0  0  0  0  0  0
   50.9088  154.8877   29.5720 H   0  0  0  0  0  0  0  0  0  0  0  0
   53.3626  160.7781   30.3447 H   0  0  0  0  0  0  0  0  0  0  0  0
   52.6026  162.6780   31.7748 H   0  0  0  0  0  0  0  0  0  0  0  0
   50.3112  162.6573   32.7658 H   0  0  0  0  0  0  0  0  0  0  0  0
   48.4140  161.3160   33.2330 H   0  0  0  0  0  0  0  0  0  0  0  0
   48.7460  156.2430   28.8080 H   0  0  0  0  0  0  0  0  0  0  0  0
   52.8011  158.0840   27.3772 H   0  0  0  0  0  0  0  0  0  0  0  0
   53.8730  156.4180   25.8780 H   0  0  0  0  0  0  0  0  0  0  0  0
   54.7859  153.8083   26.0977 H   0  0  0  0  0  0  0  0  0  0  0  0
   53.3321  152.7209   26.1633 H   0  0  0  0  0  0  0  0  0  0  0  0
   52.3087  154.0245   24.3188 H   0  0  0  0  0  0  0  0  0  0  0  0
   53.7958  155.0147   24.2044 H   0  0  0  0  0  0  0  0  0  0  0  0
  1  2  1  0
  2  3  2  0
  3  4  1  0
  4  5  1  0
  5  6  1  0
  6  7  1  0
  7  8  2  0
  8  9  1  0
  9 10  2  0
 10 11  1  0
 11 12  1  0
 11 13  2  0
 13 14  1  0
 14 15  2  0
 14 16  1  0
 16 17  1  0
  4 18  2  0
 18 19  1  0
 19 20  2  0
 20 21  1  0
 21 22  1  0
 22 23  1  0
 20  2  1  0
 16  5  2  0
 13  7  1  0
  1 24  1  0
  1 25  1  0
  1 26  1  0
  3 27  1  0
  8 28  1  0
  9 29  1  0
 10 30  1  0
 12 31  1  0
 17 32  1  0
 18 33  1  0
 19 34  1  0
 21 35  1  0
 21 36  1  0
 22 37  1  0
 22 38  1  0
M  END
>  <meeko>  (8) 
{"is_sidechain": [false], "free_energy": -8.39, "intermolecular_energy": -10.639, "internal_energy": -0.016}

$$$$
cand_047_out
     RDKit          3D

 38 40  0  0  0  0  0  0  0  0999 V2000
   49.0500  157.0620   30.3150 C   0  0  0  0  0  0  0  0  0  0  0  0
   50.3990  157.2610   29.6800 C   0  0  0  0  0  0  0  0  0  0  0  0
   50.8740  156.2870   28.7800 C   0  0  0  0  0  0  0  0  0  0  0  0
   52.1240  156.4070   28.1570 C   0  0  0  0  0  0  0  0  0  0  0  0
   52.6330  155.3750   27.2290 C   0  0  0  0  0  0  0  0  0  0  0  0
   52.1890  154.0960   27.5460 O   0  0  0  0  0  0  0  0  0  0  0  0
   52.5860  153.0430   26.7640 C   0  0  0  0  0  0  0  0  0  0  0  0
   52.1050  151.7800   27.1090 C   0  0  0  0  0  0  0  0  0  0  0  0
   52.4720  150.6630   26.3540 C   0  0  0  0  0  0  0  0  0  0  0  0
   53.3220  150.8100   25.2560 C   0  0  0  0  0  0  0  0  0  0  0  0
   53.8030  152.0710   24.9140 C   0  0  0  0  0  0  0  0  0  0  0  0
   54.6320  152.1440   23.8290 O   0  0  0  0  0  0  0  0  0  0  0  0
   53.4330  153.1880   25.6690 C   0  0  0  0  0  0  0  0  0  0  0  0
   53.9150  154.5320   25.3440 C   0  0  0  0  0  0  0  0  0  0  0  0
   54.6720  154.7410   24.3980 O   0  0  0  0  0  0  0  0  0  0  0  0
   53.4580  155.6500   26.2010 C   0  0  0  0  0  0  0  0  0  0  0  0
   53.9300  156.9130   25.8940 O   0  0  0  0  0  0  0  0  0  0  0  0
   52.9160  157.5180   28.4630 C   0  0  0  0  0  0  0  0  0  0  0  0
   52.4630  158.4910   29.3580 C   0  0  0  0  0  0  0  0  0  0  0  0
   51.2080  158.3740   29.9780 C   0  0  0  0  0  0  0  0  0  0  0  0
   50.7660  159.4720   30.9180 C   0  0  0  0  0  0  0  0  0  0  0  0
   50.3820  160.7420   30.1770 C   0  0  0  0  0  0  0  0  0  0  0  0
   49.5190  160.4190   29.1750 F   0  0  0  0  0  0  0  0  0  0  0  0
   49.1543  157.0774   31.4099 H   0  0  0  0  0  0  0  0  0  0  0  0
   48.3735  157.8701   29.9997 H   0  0  0  0  0  0  0  0  0  0  0  0
   48.6357  156.0930   29.9997 H   0  0  0  0  0  0  0  0  0  0  0  0
   50.2479  155.4096   28.5604 H   0  0  0  0  0  0  0  0  0  0  0  0
   51.4370  151.6634   27.9751 H   0  0  0  0  0  0  0  0  0  0  0  0
   52.0911  149.6672   26.6248 H   0  0  0  0  0  0  0  0  0  0  0  0
   53.6112  149.9306   24.6619 H   0  0  0  0  0  0  0  0  0  0  0  0
   55.3950  151.6020   23.7860 H   0  0  0  0  0  0  0  0  0  0  0  0
   54.3820  157.4140   26.5430 H   0  0  0  0  0  0  0  0  0  0  0  0
   53.9053  157.6272   27.9946 H   0  0  0  0  0  0  0  0  0  0  0  0
   53.0984  159.3610   29.5802 H   0  0  0  0  0  0  0  0  0  0  0  0
   49.8956  159.1191   31.4906 H   0  0  0  0  0  0  0  0  0  0  0  0
   51.6113  159.7100   31.5804 H   0  0  0  0  0  0  0  0  0  0  0  0
   49.8967  161.4434   30.8716 H   0  0  0  0  0  0  0  0  0  0  0  0
   51.2810  161.2179   29.7583 H   0  0  0  0  0  0  0  0  0  0  0  0
  1  2  1  0
  2  3  2  0
  3  4  1  0
  4  5  1  0
  5  6  1  0
  6  7  1  0
  7  8  2  0
  8  9  1  0
  9 10  2  0
 10 11  1  0
 11 12  1  0
 11 13  2  0
 13 14  1  0
 14 15  2  0
 14 16  1  0
 16 17  1  0
  4 18  2  0
 18 19  1  0
 19 20  2  0
 20 21  1  0
 21 22  1  0
 22 23  1  0
 20  2  1  0
 16  5  2  0
 13  7  1  0
  1 24  1  0
  1 25  1  0
  1 26  1  0
  3 27  1  0
  8 28  1  0
  9 29  1  0
 10 30  1  0
 12 31  1  0
 17 32  1  0
 18 33  1  0
 19 34  1  0
 21 35  1  0
 21 36  1  0
 22 37  1  0
 22 38  1  0
M  END
>  <meeko>  (9) 
{"is_sidechain": [false], "free_energy": -7.964, "intermolecular_energy": -9.991, "internal_energy": -0.137}

$$$$
