cand_035_out
     RDKit          3D

 36 38  0  0  0  0  0  0  0  0999 V2000
   47.3410  159.5700   30.9350 C   0  0  0  0  0  0  0  0  0  0  0  0
   48.3450  158.8100   31.3880 C   0  0  0  0  0  0  0  0  0  0  0  0
   49.6920  158.8840   30.8140 C   0  0  0  0  0  0  0  0  0  0  0  0
   50.1540  157.7780   30.0820 C   0  0  0  0  0  0  0  0  0  0  0  0
   51.4310  157.7690   29.5010 C   0  0  0  0  0  0  0  0  0  0  0  0
   51.8950  156.5770   28.7610 C   0  0  0  0  0  0  0  0  0  0  0  0
   52.4880  156.8950   27.5440 O   0  0  0  0  0  0  0  0  0  0  0  0
   52.9640  155.8800   26.7530 C   0  0  0  0  0  0  0  0  0  0  0  0
   53.5400  156.2420   25.5350 C   0  0  0  0  0  0  0  0  0  0  0  0
   54.0450  155.2580   24.6830 C   0  0  0  0  0  0  0  0  0  0  0  0
   53.9760  153.9120   25.0500 C   0  0  0  0  0  0  0  0  0  0  0  0
   53.4010  153.5530   26.2670 C   0  0  0  0  0  0  0  0  0  0  0  0
   53.3670  152.2180   26.5630 O   0  0  0  0  0  0  0  0  0  0  0  0
   52.8940  154.5390   27.1190 C   0  0  0  0  0  0  0  0  0  0  0  0
   52.2830  154.2040   28.4050 C   0  0  0  0  0  0  0  0  0  0  0  0
   52.1920  153.0450   28.8020 O   0  0  0  0  0  0  0  0  0  0  0  0
   51.7710  155.3220   29.2310 C   0  0  0  0  0  0  0  0  0  0  0  0
   51.2080  154.9980   30.4510 O   0  0  0  0  0  0  0  0  0  0  0  0
   52.2500  158.8890   29.6810 C   0  0  0  0  0  0  0  0  0  0  0  0
   51.8000  159.9950   30.4080 C   0  0  0  0  0  0  0  0  0  0  0  0
   50.5200  160.0080   30.9800 C   0  0  0  0  0  0  0  0  0  0  0  0
   50.0650  161.2160   31.7590 C   0  0  0  0  0  0  0  0  0  0  0  0
   50.0490  161.0160   33.1100 F   0  0  0  0  0  0  0  0  0  0  0  0
   46.3421  159.4893   31.3886 H   0  0  0  0  0  0  0  0  0  0  0  0
   47.5146  160.2755   30.1090 H   0  0  0  0  0  0  0  0  0  0  0  0
   48.1542  158.1098   32.2146 H   0  0  0  0  0  0  0  0  0  0  0  0
   49.5012  156.9008   29.9617 H   0  0  0  0  0  0  0  0  0  0  0  0
   53.5962  157.3019   25.2461 H   0  0  0  0  0  0  0  0  0  0  0  0
   54.4976  155.5429   23.7218 H   0  0  0  0  0  0  0  0  0  0  0  0
   54.3750  153.1369   24.3792 H   0  0  0  0  0  0  0  0  0  0  0  0
   52.5440  151.7780   26.6540 H   0  0  0  0  0  0  0  0  0  0  0  0
   51.5420  154.2740   30.9440 H   0  0  0  0  0  0  0  0  0  0  0  0
   53.2600  158.8994   29.2453 H   0  0  0  0  0  0  0  0  0  0  0  0
   52.4590  160.8668   30.5330 H   0  0  0  0  0  0  0  0  0  0  0  0
   50.7469  162.0504   31.5381 H   0  0  0  0  0  0  0  0  0  0  0  0
   49.0313  161.4308   31.4504 H   0  0  0  0  0  0  0  0  0  0  0  0
  1  2  2  0
  2  3  1  0
  3  4  2  0
  4  5  1  0
  5  6  1  0
  6  7  1  0
  7  8  1  0
  8  9  2  0
  9 10  1  0
 10 11  2  0
 11 12  1  0
 12 13  1  0
 12 14  2  0
 14 15  1  0
 15 16  2  0
 15 17  1  0
 17 18  1  0
  5 19  2  0
 19 20  1  0
 20 21  2  0
 21 22  1  0
 22 23  1  0
 21  3  1  0
 17  6  2  0
 14  8  1  0
  1 24  1  0
  1 25  1  0
  2 26  1  0
  4 27  1  0
  9 28  1  0
 10 29  1  0
 11 30  1  0
 13 31  1  0
 18 32  1  0
 19 33  1  0
 20 34  1  0
 22 35  1  0
 22 36  1  0
M  END
>  <meeko>  (1) 
{"is_sidechain": [false], "free_energy": -10.502, "intermolecular_energy": -12.958, "internal_energy": -0.049}

$$$$
cand_035_out
     RDKit          3D

 36 38  0  0  0  0  0  0  0  0999 V2000
   52.6400  161.3540   31.6230 C   0  0  0  0  0  0  0  0  0  0  0  0
   51.9810  161.0470   30.4990 C   0  0  0  0  0  0  0  0  0  0  0  0
   51.1840  159.8220   30.3800 C   0  0  0  0  0  0  0  0  0  0  0  0
   51.7590  158.7280   29.7120 C   0  0  0  0  0  0  0  0  0  0  0  0
   51.0620  157.5200   29.5550 C   0  0  0  0  0  0  0  0  0  0  0  0
   51.6880  156.4000   28.8230 C   0  0  0  0  0  0  0  0  0  0  0  0
   52.2620  156.7940   27.6190 O   0  0  0  0  0  0  0  0  0  0  0  0
   52.8780  155.8510   26.8380 C   0  0  0  0  0  0  0  0  0  0  0  0
   53.4290  156.2880   25.6320 C   0  0  0  0  0  0  0  0  0  0  0  0
   54.0730  155.3780   24.7900 C   0  0  0  0  0  0  0  0  0  0  0  0
   54.1660  154.0330   25.1540 C   0  0  0  0  0  0  0  0  0  0  0  0
   53.6160  153.6000   26.3570 C   0  0  0  0  0  0  0  0  0  0  0  0
   53.7450  152.2700   26.6520 O   0  0  0  0  0  0  0  0  0  0  0  0
   52.9720  154.5110   27.2000 C   0  0  0  0  0  0  0  0  0  0  0  0
   52.3810  154.0960   28.4730 C   0  0  0  0  0  0  0  0  0  0  0  0
   52.4290  152.9330   28.8660 O   0  0  0  0  0  0  0  0  0  0  0  0
   51.7140  155.1380   29.2880 C   0  0  0  0  0  0  0  0  0  0  0  0
   51.1720  154.7400   30.4960 O   0  0  0  0  0  0  0  0  0  0  0  0
   49.7630  157.4320   30.0670 C   0  0  0  0  0  0  0  0  0  0  0  0
   49.1820  158.5140   30.7330 C   0  0  0  0  0  0  0  0  0  0  0  0
   49.8820  159.7180   30.9000 C   0  0  0  0  0  0  0  0  0  0  0  0
   49.2260  160.8670   31.6220 C   0  0  0  0  0  0  0  0  0  0  0  0
   48.2950  161.5220   30.8670 F   0  0  0  0  0  0  0  0  0  0  0  0
   53.2291  162.2812   31.6794 H   0  0  0  0  0  0  0  0  0  0  0  0
   52.5924  160.6791   32.4903 H   0  0  0  0  0  0  0  0  0  0  0  0
   52.0390  161.7327   29.6408 H   0  0  0  0  0  0  0  0  0  0  0  0
   52.7763  158.8201   29.3037 H   0  0  0  0  0  0  0  0  0  0  0  0
   53.3562  157.3474   25.3451 H   0  0  0  0  0  0  0  0  0  0  0  0
   54.5072  155.7213   23.8394 H   0  0  0  0  0  0  0  0  0  0  0  0
   54.6732  153.3168   24.4909 H   0  0  0  0  0  0  0  0  0  0  0  0
   53.4860  151.9480   27.4930 H   0  0  0  0  0  0  0  0  0  0  0  0
   50.2940  154.9810   30.7180 H   0  0  0  0  0  0  0  0  0  0  0  0
   49.1923  156.4998   29.9437 H   0  0  0  0  0  0  0  0  0  0  0  0
   48.1612  158.4204   31.1320 H   0  0  0  0  0  0  0  0  0  0  0  0
   48.7313  160.4756   32.5231 H   0  0  0  0  0  0  0  0  0  0  0  0
   50.0168  161.5925   31.8634 H   0  0  0  0  0  0  0  0  0  0  0  0
  1  2  2  0
  2  3  1  0
  3  4  2  0
  4  5  1  0
  5  6  1  0
  6  7  1  0
  7  8  1  0
  8  9  2  0
  9 10  1  0
 10 11  2  0
 11 12  1  0
 12 13  1  0
 12 14  2  0
 14 15  1  0
 15 16  2  0
 15 17  1  0
 17 18  1  0
  5 19  2  0
 19 20  1  0
 20 21  2  0
 21 22  1  0
 22 23  1  0
 21  3  1  0
 17  6  2  0
 14  8  1  0
  1 24  1  0
  1 25  1  0
  2 26  1  0
  4 27  1  0
  9 28  1  0
 10 29  1  0
 11 30  1  0
 13 31  1  0
 18 32  1  0
 19 33  1  0
 20 34  1  0
 22 35  1  0
 22 36  1  0
M  END
>  <meeko>  (2) 
{"is_sidechain": [false], "free_energy": -10.346, "intermolecular_energy": -12.594, "internal_energy": -0.22}

$$$$
cand_035_out
     RDKit          3D

 36 38  0  0  0  0  0  0  0  0999 V2000
   54.0580  156.3220   25.1280 C   0  0  0  0  0  0  0  0  0  0  0  0
   53.3600  155.2350   25.4740 C   0  0  0  0  0  0  0  0  0  0  0  0
   52.7430  155.1000   26.7980 C   0  0  0  0  0  0  0  0  0  0  0  0
   52.3720  156.2760   27.4710 C   0  0  0  0  0  0  0  0  0  0  0  0
   51.7770  156.2330   28.7410 C   0  0  0  0  0  0  0  0  0  0  0  0
   51.4250  157.4910   29.4320 C   0  0  0  0  0  0  0  0  0  0  0  0
   50.1040  157.5170   29.8660 O   0  0  0  0  0  0  0  0  0  0  0  0
   49.6440  158.6290   30.5230 C   0  0  0  0  0  0  0  0  0  0  0  0
   48.3090  158.6180   30.9290 C   0  0  0  0  0  0  0  0  0  0  0  0
   47.7780  159.7190   31.6060 C   0  0  0  0  0  0  0  0  0  0  0  0
   48.5810  160.8280   31.8760 C   0  0  0  0  0  0  0  0  0  0  0  0
   49.9130  160.8360   31.4700 C   0  0  0  0  0  0  0  0  0  0  0  0
   50.6430  161.9540   31.7690 O   0  0  0  0  0  0  0  0  0  0  0  0
   50.4450  159.7350   30.7930 C   0  0  0  0  0  0  0  0  0  0  0  0
   51.8390  159.7030   30.3500 C   0  0  0  0  0  0  0  0  0  0  0  0
   52.6100  160.6370   30.5580 O   0  0  0  0  0  0  0  0  0  0  0  0
   52.3010  158.4920   29.6340 C   0  0  0  0  0  0  0  0  0  0  0  0
   53.6240  158.4640   29.2320 O   0  0  0  0  0  0  0  0  0  0  0  0
   51.5730  154.9840   29.3370 C   0  0  0  0  0  0  0  0  0  0  0  0
   51.9380  153.8080   28.6760 C   0  0  0  0  0  0  0  0  0  0  0  0
   52.5240  153.8500   27.4020 C   0  0  0  0  0  0  0  0  0  0  0  0
   52.9070  152.5630   26.7160 C   0  0  0  0  0  0  0  0  0  0  0  0
   51.9150  151.6250   26.7270 F   0  0  0  0  0  0  0  0  0  0  0  0
   54.5078  156.3911   24.1266 H   0  0  0  0  0  0  0  0  0  0  0  0
   54.1823  157.1470   25.8449 H   0  0  0  0  0  0  0  0  0  0  0  0
   53.2453  154.4191   24.7452 H   0  0  0  0  0  0  0  0  0  0  0  0
   52.5516  157.2502   26.9927 H   0  0  0  0  0  0  0  0  0  0  0  0
   47.6757  157.7441   30.7165 H   0  0  0  0  0  0  0  0  0  0  0  0
   46.7258  159.7116   31.9265 H   0  0  0  0  0  0  0  0  0  0  0  0
   48.1624  161.6946   32.4088 H   0  0  0  0  0  0  0  0  0  0  0  0
   51.5720  161.8940   31.8750 H   0  0  0  0  0  0  0  0  0  0  0  0
   53.9700  157.7020   28.8100 H   0  0  0  0  0  0  0  0  0  0  0  0
   51.1200  154.9268   30.3377 H   0  0  0  0  0  0  0  0  0  0  0  0
   51.7635  152.8363   29.1612 H   0  0  0  0  0  0  0  0  0  0  0  0
   53.1619  152.7883   25.6699 H   0  0  0  0  0  0  0  0  0  0  0  0
   53.7581  152.1410   27.2706 H   0  0  0  0  0  0  0  0  0  0  0  0
  1  2  2  0
  2  3  1  0
  3  4  2  0
  4  5  1  0
  5  6  1  0
  6  7  1  0
  7  8  1  0
  8  9  2  0
  9 10  1  0
 10 11  2  0
 11 12  1  0
 12 13  1  0
 12 14  2  0
 14 15  1  0
 15 16  2  0
 15 17  1  0
 17 18  1  0
  5 19  2  0
 19 20  1  0
 20 21  2  0
 21 22  1  0
 22 23  1  0
 21  3  1  0
 17  6  2  0
 14  8  1  0
  1 24  1  0
  1 25  1  0
  2 26  1  0
  4 27  1  0
  9 28  1  0
 10 29  1  0
 11 30  1  0
 13 31  1  0
 18 32  1  0
 19 33  1  0
 20 34  1  0
 22 35  1  0
 22 36  1  0
M  END
>  <meeko>  (3) 
{"is_sidechain": [false], "free_energy": -10.263, "intermolecular_energy": -12.418, "internal_energy": -0.293}

$$$$
cand_035_out
     RDKit          3D

 36 38  0  0  0  0  0  0  0  0999 V2000
   54.0860  156.6300   25.1720 C   0  0  0  0  0  0  0  0  0  0  0  0
   53.5250  155.4440   25.4360 C   0  0  0  0  0  0  0  0  0  0  0  0
   52.9240  155.1450   26.7400 C   0  0  0  0  0  0  0  0  0  0  0  0
   52.3160  156.2020   27.4390 C   0  0  0  0  0  0  0  0  0  0  0  0
   51.7190  155.9990   28.6930 C   0  0  0  0  0  0  0  0  0  0  0  0
   51.1140  157.1380   29.4120 C   0  0  0  0  0  0  0  0  0  0  0  0
   52.0140  158.1730   29.6400 O   0  0  0  0  0  0  0  0  0  0  0  0
   51.5820  159.2940   30.3000 C   0  0  0  0  0  0  0  0  0  0  0  0
   52.5220  160.3020   30.5200 C   0  0  0  0  0  0  0  0  0  0  0  0
   52.1470  161.4720   31.1850 C   0  0  0  0  0  0  0  0  0  0  0  0
   50.8330  161.6330   31.6300 C   0  0  0  0  0  0  0  0  0  0  0  0
   49.8970  160.6260   31.4090 C   0  0  0  0  0  0  0  0  0  0  0  0
   48.6290  160.8510   31.8700 O   0  0  0  0  0  0  0  0  0  0  0  0
   50.2730  159.4560   30.7440 C   0  0  0  0  0  0  0  0  0  0  0  0
   49.3200  158.3740   30.4920 C   0  0  0  0  0  0  0  0  0  0  0  0
   48.1460  158.4440   30.8450 O   0  0  0  0  0  0  0  0  0  0  0  0
   49.8210  157.1720   29.7850 C   0  0  0  0  0  0  0  0  0  0  0  0
   48.9110  156.1620   29.5390 O   0  0  0  0  0  0  0  0  0  0  0  0
   51.7550  154.7140   29.2450 C   0  0  0  0  0  0  0  0  0  0  0  0
   52.3570  153.6560   28.5580 C   0  0  0  0  0  0  0  0  0  0  0  0
   52.9450  153.8560   27.3000 C   0  0  0  0  0  0  0  0  0  0  0  0
   53.5870  152.6950   26.5850 C   0  0  0  0  0  0  0  0  0  0  0  0
   52.7140  151.6840   26.2980 F   0  0  0  0  0  0  0  0  0  0  0  0
   54.5280  156.8214   24.1831 H   0  0  0  0  0  0  0  0  0  0  0  0
   54.1051  157.4134   25.9439 H   0  0  0  0  0  0  0  0  0  0  0  0
   53.5144  154.6716   24.6529 H   0  0  0  0  0  0  0  0  0  0  0  0
   52.3079  157.2082   26.9945 H   0  0  0  0  0  0  0  0  0  0  0  0
   53.5571  160.1753   30.1701 H   0  0  0  0  0  0  0  0  0  0  0  0
   52.8872  162.2670   31.3582 H   0  0  0  0  0  0  0  0  0  0  0  0
   50.5379  162.5539   32.1543 H   0  0  0  0  0  0  0  0  0  0  0  0
   48.4420  161.6170   32.3770 H   0  0  0  0  0  0  0  0  0  0  0  0
   47.9970  156.3590   29.4760 H   0  0  0  0  0  0  0  0  0  0  0  0
   51.3039  154.5340   30.2320 H   0  0  0  0  0  0  0  0  0  0  0  0
   52.3699  152.6531   29.0097 H   0  0  0  0  0  0  0  0  0  0  0  0
   54.0179  153.0617   25.6417 H   0  0  0  0  0  0  0  0  0  0  0  0
   54.3519  152.2817   27.2589 H   0  0  0  0  0  0  0  0  0  0  0  0
  1  2  2  0
  2  3  1  0
  3  4  2  0
  4  5  1  0
  5  6  1  0
  6  7  1  0
  7  8  1  0
  8  9  2  0
  9 10  1  0
 10 11  2  0
 11 12  1  0
 12 13  1  0
 12 14  2  0
 14 15  1  0
 15 16  2  0
 15 17  1  0
 17 18  1  0
  5 19  2  0
 19 20  1  0
 20 21  2  0
 21 22  1  0
 22 23  1  0
 21  3  1  0
 17  6  2  0
 14  8  1  0
  1 24  1  0
  1 25  1  0
  2 26  1  0
  4 27  1  0
  9 28  1  0
 10 29  1  0
 11 30  1  0
 13 31  1  0
 18 32  1  0
 19 33  1  0
 20 34  1  0
 22 35  1  0
 22 36  1  0
M  END
>  <meeko>  (4) 
{"is_sidechain": [false], "free_energy": -9.143, "intermolecular_energy": -10.911, "internal_energy": -0.419}

$$$$
cand_035_out
     RDKit          3D

 36 38  0  0  0  0  0  0  0  0999 V2000
   51.6230  152.4140   28.0570 C   0  0  0  0  0  0  0  0  0  0  0  0
   51.9570  153.4070   28.8900 C   0  0  0  0  0  0  0  0  0  0  0  0
   52.1960  154.7720   28.4110 C   0  0  0  0  0  0  0  0  0  0  0  0
   51.7390  155.8360   29.2070 C   0  0  0  0  0  0  0  0  0  0  0  0
   51.9280  157.1710   28.8190 C   0  0  0  0  0  0  0  0  0  0  0  0
   51.4100  158.2640   29.6680 C   0  0  0  0  0  0  0  0  0  0  0  0
   50.0730  158.0940   30.0100 O   0  0  0  0  0  0  0  0  0  0  0  0
   49.4650  159.0380   30.7970 C   0  0  0  0  0  0  0  0  0  0  0  0
   48.1190  158.8360   31.1050 C   0  0  0  0  0  0  0  0  0  0  0  0
   47.4400  159.7590   31.9040 C   0  0  0  0  0  0  0  0  0  0  0  0
   48.1080  160.8840   32.3950 C   0  0  0  0  0  0  0  0  0  0  0  0
   49.4510  161.0830   32.0860 C   0  0  0  0  0  0  0  0  0  0  0  0
   50.0420  162.2050   32.6000 O   0  0  0  0  0  0  0  0  0  0  0  0
   50.1290  160.1590   31.2860 C   0  0  0  0  0  0  0  0  0  0  0  0
   51.5410  160.3320   30.9390 C   0  0  0  0  0  0  0  0  0  0  0  0
   52.1970  161.2900   31.3380 O   0  0  0  0  0  0  0  0  0  0  0  0
   52.1640  159.2990   30.0790 C   0  0  0  0  0  0  0  0  0  0  0  0
   53.5010  159.4630   29.7680 O   0  0  0  0  0  0  0  0  0  0  0  0
   52.5730  157.4250   27.6040 C   0  0  0  0  0  0  0  0  0  0  0  0
   53.0310  156.3740   26.8040 C   0  0  0  0  0  0  0  0  0  0  0  0
   52.8520  155.0390   27.1970 C   0  0  0  0  0  0  0  0  0  0  0  0
   53.3570  153.9280   26.3110 C   0  0  0  0  0  0  0  0  0  0  0  0
   52.6190  153.7620   25.1740 F   0  0  0  0  0  0  0  0  0  0  0  0
   51.4507  151.4011   28.4498 H   0  0  0  0  0  0  0  0  0  0  0  0
   51.5208  152.6108   26.9796 H   0  0  0  0  0  0  0  0  0  0  0  0
   52.0550  153.1929   29.9645 H   0  0  0  0  0  0  0  0  0  0  0  0
   51.2226  155.6178   30.1535 H   0  0  0  0  0  0  0  0  0  0  0  0
   47.5930  157.9505   30.7188 H   0  0  0  0  0  0  0  0  0  0  0  0
   46.3789  159.6002   32.1468 H   0  0  0  0  0  0  0  0  0  0  0  0
   47.5738  161.6110   33.0244 H   0  0  0  0  0  0  0  0  0  0  0  0
   49.7320  163.0540   32.3540 H   0  0  0  0  0  0  0  0  0  0  0  0
   54.1590  159.2670   30.4070 H   0  0  0  0  0  0  0  0  0  0  0  0
   52.7216  158.4638   27.2742 H   0  0  0  0  0  0  0  0  0  0  0  0
   53.5385  156.5966   25.8538 H   0  0  0  0  0  0  0  0  0  0  0  0
   54.3940  154.1557   26.0233 H   0  0  0  0  0  0  0  0  0  0  0  0
   53.2804  152.9938   26.8867 H   0  0  0  0  0  0  0  0  0  0  0  0
  1  2  2  0
  2  3  1  0
  3  4  2  0
  4  5  1  0
  5  6  1  0
  6  7  1  0
  7  8  1  0
  8  9  2  0
  9 10  1  0
 10 11  2  0
 11 12  1  0
 12 13  1  0
 12 14  2  0
 14 15  1  0
 15 16  2  0
 15 17  1  0
 17 18  1  0
  5 19  2  0
 19 20  1  0
 20 21  2  0
 21 22  1  0
 22 23  1  0
 21  3  1  0
 17  6  2  0
 14  8  1  0
  1 24  1  0
  1 25  1  0
  2 26  1  0
  4 27  1  0
  9 28  1  0
 10 29  1  0
 11 30  1  0
 13 31  1  0
 18 32  1  0
 19 33  1  0
 20 34  1  0
 22 35  1  0
 22 36  1  0
M  END
>  <meeko>  (5) 
{"is_sidechain": [false], "free_energy": -8.584, "intermolecular_energy": -10.949, "internal_energy": 0.309}

$$$$
cand_035_out
     RDKit          3D

 36 38  0  0  0  0  0  0  0  0999 V2000
   51.0730  160.3870   30.0810 C   0  0  0  0  0  0  0  0  0  0  0  0
   51.8170  159.2750   30.0520 C   0  0  0  0  0  0  0  0  0  0  0  0
   51.2510  157.9750   29.6790 C   0  0  0  0  0  0  0  0  0  0  0  0
   51.9710  157.1830   28.7670 C   0  0  0  0  0  0  0  0  0  0  0  0
   51.4970  155.9270   28.3590 C   0  0  0  0  0  0  0  0  0  0  0  0
   52.2670  155.1340   27.3780 C   0  0  0  0  0  0  0  0  0  0  0  0
   51.9760  153.7760   27.4350 O   0  0  0  0  0  0  0  0  0  0  0  0
   52.6210  152.9230   26.5760 C   0  0  0  0  0  0  0  0  0  0  0  0
   52.3090  151.5660   26.6770 C   0  0  0  0  0  0  0  0  0  0  0  0
   52.9290  150.6440   25.8310 C   0  0  0  0  0  0  0  0  0  0  0  0
   53.8600  151.0790   24.8850 C   0  0  0  0  0  0  0  0  0  0  0  0
   54.1690  152.4330   24.7870 C   0  0  0  0  0  0  0  0  0  0  0  0
   55.0880  152.7890   23.8370 O   0  0  0  0  0  0  0  0  0  0  0  0
   53.5490  153.3560   25.6340 C   0  0  0  0  0  0  0  0  0  0  0  0
   53.8460  154.7870   25.5630 C   0  0  0  0  0  0  0  0  0  0  0  0
   54.6460  155.2470   24.7530 O   0  0  0  0  0  0  0  0  0  0  0  0
   53.1390  155.6790   26.5100 C   0  0  0  0  0  0  0  0  0  0  0  0
   53.4140  157.0310   26.4260 O   0  0  0  0  0  0  0  0  0  0  0  0
   50.2740  155.4800   28.8710 C   0  0  0  0  0  0  0  0  0  0  0  0
   49.5510  156.2590   29.7780 C   0  0  0  0  0  0  0  0  0  0  0  0
   50.0290  157.5110   30.1940 C   0  0  0  0  0  0  0  0  0  0  0  0
   49.2240  158.3270   31.1740 C   0  0  0  0  0  0  0  0  0  0  0  0
   48.0500  158.7950   30.6550 F   0  0  0  0  0  0  0  0  0  0  0  0
   51.5292  161.3467   30.3654 H   0  0  0  0  0  0  0  0  0  0  0  0
   50.0053  160.3413   29.8204 H   0  0  0  0  0  0  0  0  0  0  0  0
   52.8831  159.3381   30.3154 H   0  0  0  0  0  0  0  0  0  0  0  0
   52.9249  157.5556   28.3654 H   0  0  0  0  0  0  0  0  0  0  0  0
   51.5757  151.2235   27.4220 H   0  0  0  0  0  0  0  0  0  0  0  0
   52.6840  149.5745   25.9097 H   0  0  0  0  0  0  0  0  0  0  0  0
   54.3483  150.3529   24.2184 H   0  0  0  0  0  0  0  0  0  0  0  0
   55.9200  152.3580   23.8040 H   0  0  0  0  0  0  0  0  0  0  0  0
   53.8310  157.3780   25.6620 H   0  0  0  0  0  0  0  0  0  0  0  0
   49.8770  154.5038   28.5557 H   0  0  0  0  0  0  0  0  0  0  0  0
   48.5940  155.8857   30.1714 H   0  0  0  0  0  0  0  0  0  0  0  0
   48.9933  157.6969   32.0456 H   0  0  0  0  0  0  0  0  0  0  0  0
   49.8320  159.2032   31.4436 H   0  0  0  0  0  0  0  0  0  0  0  0
  1  2  2  0
  2  3  1  0
  3  4  2  0
  4  5  1  0
  5  6  1  0
  6  7  1  0
  7  8  1  0
  8  9  2  0
  9 10  1  0
 10 11  2  0
 11 12  1  0
 12 13  1  0
 12 14  2  0
 14 15  1  0
 15 16  2  0
 15 17  1  0
 17 18  1  0
  5 19  2  0
 19 20  1  0
 20 21  2  0
 21 22  1  0
 22 23  1  0
 21  3  1  0
 17  6  2  0
 14  8  1  0
  1 24  1  0
  1 25  1  0
  2 26  1  0
  4 27  1  0
  9 28  1  0
 10 29  1  0
 11 30  1  0
 13 31  1  0
 18 32  1  0
 19 33  1  0
 20 34  1  0
 22 35  1  0
 22 36  1  0
M  END
>  <meeko>  (6) 
{"is_sidechain": [false], "free_energy": -8.44, "intermolecular_energy": -11.047, "internal_energy": 0.584}

$$$$
cand_035_out
     RDKit          3D

 36 38  0  0  0  0  0  0  0  0999 V2000
   51.8510  151.9880   27.2200 C   0  0  0  0  0  0  0  0  0  0  0  0
   51.9440  152.8980   28.1970 C   0  0  0  0  0  0  0  0  0  0  0  0
   52.2180  154.3100   27.9150 C   0  0  0  0  0  0  0  0  0  0  0  0
   51.6350  155.2720   28.7580 C   0  0  0  0  0  0  0  0  0  0  0  0
   51.8480  156.6440   28.5550 C   0  0  0  0  0  0  0  0  0  0  0  0
   51.1960  157.6290   29.4440 C   0  0  0  0  0  0  0  0  0  0  0  0
   51.9960  158.7360   29.7020 O   0  0  0  0  0  0  0  0  0  0  0  0
   51.5130  159.7290   30.5140 C   0  0  0  0  0  0  0  0  0  0  0  0
   52.3540  160.8160   30.7570 C   0  0  0  0  0  0  0  0  0  0  0  0
   51.9220  161.8630   31.5740 C   0  0  0  0  0  0  0  0  0  0  0  0
   50.6500  161.8230   32.1490 C   0  0  0  0  0  0  0  0  0  0  0  0
   49.8120  160.7370   31.9050 C   0  0  0  0  0  0  0  0  0  0  0  0
   48.5800  160.7630   32.4980 O   0  0  0  0  0  0  0  0  0  0  0  0
   50.2450  159.6890   31.0870 C   0  0  0  0  0  0  0  0  0  0  0  0
   49.3960  158.5310   30.8060 C   0  0  0  0  0  0  0  0  0  0  0  0
   48.2620  158.4270   31.2670 O   0  0  0  0  0  0  0  0  0  0  0  0
   49.9520  157.4720   29.9320 C   0  0  0  0  0  0  0  0  0  0  0  0
   49.1380  156.3890   29.6600 O   0  0  0  0  0  0  0  0  0  0  0  0
   52.6470  157.0410   27.4780 C   0  0  0  0  0  0  0  0  0  0  0  0
   53.2320  156.0930   26.6340 C   0  0  0  0  0  0  0  0  0  0  0  0
   53.0280  154.7200   26.8420 C   0  0  0  0  0  0  0  0  0  0  0  0
   53.6720  153.7230   25.9130 C   0  0  0  0  0  0  0  0  0  0  0  0
   53.0920  153.6780   24.6770 F   0  0  0  0  0  0  0  0  0  0  0  0
   51.6443  150.9360   27.4661 H   0  0  0  0  0  0  0  0  0  0  0  0
   51.9813  152.2921   26.1709 H   0  0  0  0  0  0  0  0  0  0  0  0
   51.8111  152.5773   29.2408 H   0  0  0  0  0  0  0  0  0  0  0  0
   50.9993  154.9428   29.5932 H   0  0  0  0  0  0  0  0  0  0  0  0
   53.3565  160.8480   30.3053 H   0  0  0  0  0  0  0  0  0  0  0  0
   52.5844  162.7202   31.7648 H   0  0  0  0  0  0  0  0  0  0  0  0
   50.3103  162.6473   32.7933 H   0  0  0  0  0  0  0  0  0  0  0  0
   48.1190  159.9630   32.6580 H   0  0  0  0  0  0  0  0  0  0  0  0
   49.2670  155.5790   30.1140 H   0  0  0  0  0  0  0  0  0  0  0  0
   52.8170  158.1119   27.2930 H   0  0  0  0  0  0  0  0  0  0  0  0
   53.8607  156.4273   25.7956 H   0  0  0  0  0  0  0  0  0  0  0  0
   54.7311  153.9939   25.7912 H   0  0  0  0  0  0  0  0  0  0  0  0
   53.5459  152.7289   26.3666 H   0  0  0  0  0  0  0  0  0  0  0  0
  1  2  2  0
  2  3  1  0
  3  4  2  0
  4  5  1  0
  5  6  1  0
  6  7  1  0
  7  8  1  0
  8  9  2  0
  9 10  1  0
 10 11  2  0
 11 12  1  0
 12 13  1  0
 12 14  2  0
 14 15  1  0
 15 16  2  0
 15 17  1  0
 17 18  1  0
  5 19  2  0
 19 20  1  0
 20 21  2  0
 21 22  1  0
 22 23  1  0
 21  3  1  0
 17  6  2  0
 14  8  1  0
  1 24  1  0
  1 25  1  0
  2 26  1  0
  4 27  1  0
  9 28  1  0
 10 29  1  0
 11 30  1  0
 13 31  1  0
 18 32  1  0
 19 33  1  0
 20 34  1  0
 22 35  1  0
 22 36  1  0
M  END
>  <meeko>  (7) 
{"is_sidechain": [false], "free_energy": -7.873, "intermolecular_energy": -10.406, "internal_energy": 0.643}

$$$$
cand_035_out
     RDKit          3D

 36 38  0  0  0  0  0  0  0  0999 V2000
   51.9730  160.9210   31.5660 C   0  0  0  0  0  0  0  0  0  0  0  0
   51.6770  160.4460   30.3500 C   0  0  0  0  0  0  0  0  0  0  0  0
   51.0570  159.1310   30.1630 C   0  0  0  0  0  0  0  0  0  0  0  0
   51.7040  158.2150   29.3160 C   0  0  0  0  0  0  0  0  0  0  0  0
   51.1750  156.9370   29.0840 C   0  0  0  0  0  0  0  0  0  0  0  0
   51.8680  156.0100   28.1660 C   0  0  0  0  0  0  0  0  0  0  0  0
   51.4420  154.6930   28.3040 O   0  0  0  0  0  0  0  0  0  0  0  0
   52.0040  153.7270   27.5110 C   0  0  0  0  0  0  0  0  0  0  0  0
   51.5570  152.4180   27.6920 C   0  0  0  0  0  0  0  0  0  0  0  0
   52.0880  151.3860   26.9140 C   0  0  0  0  0  0  0  0  0  0  0  0
   53.0650  151.6630   25.9560 C   0  0  0  0  0  0  0  0  0  0  0  0
   53.5100  152.9710   25.7780 C   0  0  0  0  0  0  0  0  0  0  0  0
   54.4680  153.1710   24.8210 O   0  0  0  0  0  0  0  0  0  0  0  0
   52.9790  154.0030   26.5560 C   0  0  0  0  0  0  0  0  0  0  0  0
   53.4190  155.3900   26.3990 C   0  0  0  0  0  0  0  0  0  0  0  0
   54.2680  155.7150   25.5730 O   0  0  0  0  0  0  0  0  0  0  0  0
   52.7980  156.4080   27.2780 C   0  0  0  0  0  0  0  0  0  0  0  0
   53.2080  157.7170   27.1130 O   0  0  0  0  0  0  0  0  0  0  0  0
   49.9700  156.5930   29.7060 C   0  0  0  0  0  0  0  0  0  0  0  0
   49.3180  157.4970   30.5500 C   0  0  0  0  0  0  0  0  0  0  0  0
   49.8520  158.7720   30.7910 C   0  0  0  0  0  0  0  0  0  0  0  0
   49.1230  159.7230   31.7060 C   0  0  0  0  0  0  0  0  0  0  0  0
   49.3350  159.4710   33.0310 F   0  0  0  0  0  0  0  0  0  0  0  0
   52.4381  161.9123   31.6710 H   0  0  0  0  0  0  0  0  0  0  0  0
   51.7511  160.3201   32.4602 H   0  0  0  0  0  0  0  0  0  0  0  0
   51.9055  161.0598   29.4662 H   0  0  0  0  0  0  0  0  0  0  0  0
   52.6443  158.5063   28.8251 H   0  0  0  0  0  0  0  0  0  0  0  0
   50.7872  152.1985   28.4465 H   0  0  0  0  0  0  0  0  0  0  0  0
   51.7357  150.3537   27.0566 H   0  0  0  0  0  0  0  0  0  0  0  0
   53.4824  150.8504   25.3432 H   0  0  0  0  0  0  0  0  0  0  0  0
   54.4940  152.6230   24.0620 H   0  0  0  0  0  0  0  0  0  0  0  0
   52.5890  158.3750   26.8610 H   0  0  0  0  0  0  0  0  0  0  0  0
   49.5306  155.6002   29.5290 H   0  0  0  0  0  0  0  0  0  0  0  0
   48.3733  157.2047   31.0318 H   0  0  0  0  0  0  0  0  0  0  0  0
   49.4622  160.7462   31.4872 H   0  0  0  0  0  0  0  0  0  0  0  0
   48.0469  159.5925   31.5190 H   0  0  0  0  0  0  0  0  0  0  0  0
  1  2  2  0
  2  3  1  0
  3  4  2  0
  4  5  1  0
  5  6  1  0
  6  7  1  0
  7  8  1  0
  8  9  2  0
  9 10  1  0
 10 11  2  0
 11 12  1  0
 12 13  1  0
 12 14  2  0
 14 15  1  0
 15 16  2  0
 15 17  1  0
 17 18  1  0
  5 19  2  0
 19 20  1  0
 20 21  2  0
 21 22  1  0
 22 23  1  0
 21  3  1  0
 17  6  2  0
 14  8  1  0
  1 24  1  0
  1 25  1  0
  2 26  1  0
  4 27  1  0
  9 28  1  0
 10 29  1  0
 11 30  1  0
 13 31  1  0
 18 32  1  0
 19 33  1  0
 20 34  1  0
 22 35  1  0
 22 36  1  0
M  END
>  <meeko>  (8) 
{"is_sidechain": [false], "free_energy": -7.542, "intermolecular_energy": -9.834, "internal_energy": 0.48}

$$$$
cand_035_out
     RDKit          3D

 36 38  0  0  0  0  0  0  0  0999 V2000
   51.5260  152.1980   28.6680 C   0  0  0  0  0  0  0  0  0  0  0  0
   52.1330  152.5020   27.5150 C   0  0  0  0  0  0  0  0  0  0  0  0
   52.4660  153.8840   27.1570 C   0  0  0  0  0  0  0  0  0  0  0  0
   52.0590  154.9050   28.0320 C   0  0  0  0  0  0  0  0  0  0  0  0
   52.3390  156.2530   27.7610 C   0  0  0  0  0  0  0  0  0  0  0  0
   51.8720  157.3030   28.6910 C   0  0  0  0  0  0  0  0  0  0  0  0
   50.5240  157.1790   29.0120 O   0  0  0  0  0  0  0  0  0  0  0  0
   49.9600  158.0890   29.8680 C   0  0  0  0  0  0  0  0  0  0  0  0
   48.6030  157.9360   30.1520 C   0  0  0  0  0  0  0  0  0  0  0  0
   47.9670  158.8290   31.0180 C   0  0  0  0  0  0  0  0  0  0  0  0
   48.6880  159.8740   31.5990 C   0  0  0  0  0  0  0  0  0  0  0  0
   50.0430  160.0250   31.3130 C   0  0  0  0  0  0  0  0  0  0  0  0
   50.6880  161.0690   31.9170 O   0  0  0  0  0  0  0  0  0  0  0  0
   50.6790  159.1310   30.4470 C   0  0  0  0  0  0  0  0  0  0  0  0
   52.1000  159.2550   30.1210 C   0  0  0  0  0  0  0  0  0  0  0  0
   52.8030  160.1420   30.5970 O   0  0  0  0  0  0  0  0  0  0  0  0
   52.6760  158.2610   29.1860 C   0  0  0  0  0  0  0  0  0  0  0  0
   54.0230  158.3760   28.8950 O   0  0  0  0  0  0  0  0  0  0  0  0
   53.0230  156.5660   26.5820 C   0  0  0  0  0  0  0  0  0  0  0  0
   53.4320  155.5580   25.7040 C   0  0  0  0  0  0  0  0  0  0  0  0
   53.1620  154.2090   25.9790 C   0  0  0  0  0  0  0  0  0  0  0  0
   53.6160  153.1460   25.0110 C   0  0  0  0  0  0  0  0  0  0  0  0
   53.5520  153.5380   23.7050 F   0  0  0  0  0  0  0  0  0  0  0  0
   51.2902  151.1502   28.9059 H   0  0  0  0  0  0  0  0  0  0  0  0
   51.2628  152.9958   29.3780 H   0  0  0  0  0  0  0  0  0  0  0  0
   52.3893  151.6922   26.8161 H   0  0  0  0  0  0  0  0  0  0  0  0
   51.5097  154.6424   28.9481 H   0  0  0  0  0  0  0  0  0  0  0  0
   48.0342  157.1131   29.6946 H   0  0  0  0  0  0  0  0  0  0  0  0
   46.8969  158.7086   31.2424 H   0  0  0  0  0  0  0  0  0  0  0  0
   48.1871  160.5766   32.2812 H   0  0  0  0  0  0  0  0  0  0  0  0
   51.4750  161.4140   31.5430 H   0  0  0  0  0  0  0  0  0  0  0  0
   54.6610  158.0170   29.4810 H   0  0  0  0  0  0  0  0  0  0  0  0
   53.2416  157.6172   26.3428 H   0  0  0  0  0  0  0  0  0  0  0  0
   53.9731  155.8263   24.7846 H   0  0  0  0  0  0  0  0  0  0  0  0
   54.6582  152.8833   25.2454 H   0  0  0  0  0  0  0  0  0  0  0  0
   52.9350  152.2899   25.1265 H   0  0  0  0  0  0  0  0  0  0  0  0
  1  2  2  0
  2  3  1  0
  3  4  2  0
  4  5  1  0
  5  6  1  0
  6  7  1  0
  7  8  1  0
  8  9  2  0
  9 10  1  0
 10 11  2  0
 11 12  1  0
 12 13  1  0
 12 14  2  0
 14 15  1  0
 15 16  2  0
 15 17  1  0
 17 18  1  0
  5 19  2  0
 19 20  1  0
 20 21  2  0
 21 22  1  0
 22 23  1  0
 21  3  1  0
 17  6  2  0
 14  8  1  0
  1 24  1  0
  1 25  1  0
  2 26  1  0
  4 27  1  0
  9 28  1  0
 10 29  1  0
 11 30  1  0
 13 31  1  0
 18 32  1  0
 19 33  1  0
 20 34  1  0
 22 35  1  0
 22 36  1  0
M  END
>  <meeko>  (9) 
{"is_sidechain": [false], "free_energy": -7.515, "intermolecular_energy": -8.996, "internal_energy": -0.325}

$$$$
