native_VP7_out
     RDKit          3D

 45 48  0  0  0  0  0  0  0  0999 V2000
  185.7580   22.5800   44.4300 C   0  0  0  0  0  0  0  0  0  0  0  0
  184.9130   23.1230   45.5790 C   0  0  0  0  0  0  0  0  0  0  0  0
  184.5800   24.5970   45.3550 C   0  0  0  0  0  0  0  0  0  0  0  0
  185.6860   23.0150   46.7740 O   0  0  0  0  0  0  0  0  0  0  0  0
  183.6820   22.3320   45.7350 C   0  0  0  0  0  0  0  0  0  0  0  0
  182.6760   21.6870   45.8670 C   0  0  0  0  0  0  0  0  0  0  0  0
  181.4860   20.9240   46.0230 C   0  0  0  0  0  0  0  0  0  0  0  0
  181.4450   19.5680   45.4860 C   0  0  0  0  0  0  0  0  0  0  0  0
  180.3700   18.7670   45.5970 C   0  0  0  0  0  0  0  0  0  0  0  0
  179.1670   19.2740   46.2890 C   0  0  0  0  0  0  0  0  0  0  0  0
  179.2370   20.6510   46.8010 C   0  0  0  0  0  0  0  0  0  0  0  0
  180.4200   21.4440   46.6580 C   0  0  0  0  0  0  0  0  0  0  0  0
  178.0360   20.8180   47.3580 C   0  0  0  0  0  0  0  0  0  0  0  0
  177.5880   21.9730   48.1310 C   0  0  0  0  0  0  0  0  0  0  0  0
  178.5350   22.9230   48.3080 N   0  0  0  0  0  0  0  0  0  0  0  0
  178.2060   24.0010   49.0150 C   0  0  0  0  0  0  0  0  0  0  0  0
  179.1780   24.9600   49.2100 N   0  0  0  0  0  0  0  0  0  0  0  0
  177.0200   24.2000   49.5850 N   0  0  0  0  0  0  0  0  0  0  0  0
  176.0970   23.2430   49.3850 C   0  0  0  0  0  0  0  0  0  0  0  0
  176.3160   22.0850   48.6630 C   0  0  0  0  0  0  0  0  0  0  0  0
  175.1960   21.1150   48.4350 C   0  0  0  0  0  0  0  0  0  0  0  0
  174.9470   20.7650   46.9620 C   0  0  0  0  0  0  0  0  0  0  0  0
  175.9180   19.7350   46.3930 C   0  0  0  0  0  0  0  0  0  0  0  0
  177.2000   19.5800   47.2110 C   0  0  1  0  0  0  0  0  0  0  0  0
  178.0710   18.6080   46.4830 N   0  0  0  0  0  0  0  0  0  0  0  0
  186.6179   22.0274   44.8365 H   0  0  0  0  0  0  0  0  0  0  0  0
  185.1470   21.9050   43.8127 H   0  0  0  0  0  0  0  0  0  0  0  0
  186.1181   23.4162   43.8127 H   0  0  0  0  0  0  0  0  0  0  0  0
  184.4666   25.0991   46.3271 H   0  0  0  0  0  0  0  0  0  0  0  0
  185.3929   25.0745   44.7883 H   0  0  0  0  0  0  0  0  0  0  0  0
  183.6408   24.6787   44.7883 H   0  0  0  0  0  0  0  0  0  0  0  0
  186.6060   23.2590   46.5870 H   0  0  0  0  0  0  0  0  0  0  0  0
  182.3346   19.1827   44.9662 H   0  0  0  0  0  0  0  0  0  0  0  0
  180.3863   17.7497   45.1788 H   0  0  0  0  0  0  0  0  0  0  0  0
  180.4571   22.4663   47.0624 H   0  0  0  0  0  0  0  0  0  0  0  0
  178.9540   25.8020   49.6680 H   0  0  0  0  0  0  0  0  0  0  0  0
  180.0960   24.8020   48.8900 H   0  0  0  0  0  0  0  0  0  0  0  0
  175.1002   23.3917   49.8258 H   0  0  0  0  0  0  0  0  0  0  0  0
  175.4316   20.1854   48.9739 H   0  0  0  0  0  0  0  0  0  0  0  0
  174.2802   21.6034   48.7995 H   0  0  0  0  0  0  0  0  0  0  0  0
  173.9264   20.3652   46.8698 H   0  0  0  0  0  0  0  0  0  0  0  0
  175.0945   21.6911   46.3870 H   0  0  0  0  0  0  0  0  0  0  0  0
  175.4089   18.7605   46.3576 H   0  0  0  0  0  0  0  0  0  0  0  0
  176.2148   20.0905   45.3953 H   0  0  0  0  0  0  0  0  0  0  0  0
  176.8722   19.2798   48.2172 H   0  0  0  0  0  0  0  0  0  0  0  0
  1  2  1  0
  2  3  1  0
  2  4  1  0
  2  5  1  0
  5  6  3  0
  6  7  1  0
  7  8  1  0
  8  9  2  0
  9 10  1  0
 10 11  1  0
 11 12  1  0
 11 13  2  0
 13 14  1  0
 14 15  2  0
 15 16  1  0
 16 17  1  0
 16 18  2  0
 18 19  1  0
 19 20  2  0
 20 21  1  0
 21 22  1  0
 22 23  1  0
 23 24  1  0
 24 25  1  0
 12  7  2  0
 24 13  1  0
 25 10  2  0
 20 14  1  0
  1 26  1  0
  1 27  1  0
  1 28  1  0
  3 29  1  0
  3 30  1  0
  3 31  1  0
  4 32  1  0
  8 33  1  0
  9 34  1  0
 12 35  1  0
 17 36  1  0
 17 37  1  0
 19 38  1  0
 21 39  1  0
 21 40  1  0
 22 41  1  0
 22 42  1  0
 23 43  1  0
 23 44  1  0
 24 45  1  1
M  END
>  <meeko>  (1) 
{"is_sidechain": [false], "free_energy": -8.004, "intermolecular_energy": -10.812, "internal_energy": 1.121}

$$$$
native_VP7_out
     RDKit          3D

 45 48  0  0  0  0  0  0  0  0999 V2000
  180.6440   14.2640   44.0180 C   0  0  0  0  0  0  0  0  0  0  0  0
  181.3090   15.4090   43.2590 C   0  0  0  0  0  0  0  0  0  0  0  0
  180.7950   15.4750   41.8210 C   0  0  0  0  0  0  0  0  0  0  0  0
  182.7120   15.1490   43.2220 O   0  0  0  0  0  0  0  0  0  0  0  0
  181.0800   16.6890   43.9490 C   0  0  0  0  0  0  0  0  0  0  0  0
  180.8970   17.7360   44.5100 C   0  0  0  0  0  0  0  0  0  0  0  0
  180.6800   18.9760   45.1740 C   0  0  0  0  0  0  0  0  0  0  0  0
  181.7740   19.9390   45.2370 C   0  0  0  0  0  0  0  0  0  0  0  0
  181.6600   21.1410   45.8300 C   0  0  0  0  0  0  0  0  0  0  0  0
  180.3730   21.5120   46.4540 C   0  0  0  0  0  0  0  0  0  0  0  0
  179.2990   20.5100   46.3880 C   0  0  0  0  0  0  0  0  0  0  0  0
  179.4870   19.2530   45.7280 C   0  0  0  0  0  0  0  0  0  0  0  0
  178.2920   21.1180   47.0180 C   0  0  0  0  0  0  0  0  0  0  0  0
  176.9230   20.6240   47.1500 C   0  0  0  0  0  0  0  0  0  0  0  0
  176.6930   19.4510   46.5170 N   0  0  0  0  0  0  0  0  0  0  0  0
  175.4640   18.9450   46.5780 C   0  0  0  0  0  0  0  0  0  0  0  0
  175.2280   17.7580   45.9170 N   0  0  0  0  0  0  0  0  0  0  0  0
  174.4370   19.5230   47.1940 N   0  0  0  0  0  0  0  0  0  0  0  0
  174.6980   20.6840   47.8210 C   0  0  0  0  0  0  0  0  0  0  0  0
  175.9340   21.3040   47.8360 C   0  0  0  0  0  0  0  0  0  0  0  0
  176.1380   22.5600   48.6290 C   0  0  0  0  0  0  0  0  0  0  0  0
  177.3010   22.5020   49.6300 C   0  0  0  0  0  0  0  0  0  0  0  0
  178.6760   22.7020   49.0010 C   0  0  0  0  0  0  0  0  0  0  0  0
  178.7000   22.4830   47.4890 C   0  0  1  0  0  0  0  0  0  0  0  0
  180.1170   22.6400   47.0430 N   0  0  0  0  0  0  0  0  0  0  0  0
  180.7433   14.4349   45.1001 H   0  0  0  0  0  0  0  0  0  0  0  0
  179.5781   14.2170   43.7505 H   0  0  0  0  0  0  0  0  0  0  0  0
  181.1314   13.3148   43.7505 H   0  0  0  0  0  0  0  0  0  0  0  0
  179.7040   15.6151   41.8277 H   0  0  0  0  0  0  0  0  0  0  0  0
  181.2699   16.3195   41.3002 H   0  0  0  0  0  0  0  0  0  0  0  0
  181.0412   14.5379   41.3002 H   0  0  0  0  0  0  0  0  0  0  0  0
  182.8650   14.2570   42.8710 H   0  0  0  0  0  0  0  0  0  0  0  0
  182.7368   19.6697   44.7783 H   0  0  0  0  0  0  0  0  0  0  0  0
  182.5116   21.8369   45.8501 H   0  0  0  0  0  0  0  0  0  0  0  0
  178.6655   18.5234   45.6751 H   0  0  0  0  0  0  0  0  0  0  0  0
  175.4380   17.6780   44.9590 H   0  0  0  0  0  0  0  0  0  0  0  0
  174.8480   16.9910   46.4030 H   0  0  0  0  0  0  0  0  0  0  0  0
  173.8723   21.1735   48.3583 H   0  0  0  0  0  0  0  0  0  0  0  0
  176.3320   23.3826   47.9250 H   0  0  0  0  0  0  0  0  0  0  0  0
  175.2232   22.7064   49.2220 H   0  0  0  0  0  0  0  0  0  0  0  0
  177.1480   23.2892   50.3830 H   0  0  0  0  0  0  0  0  0  0  0  0
  177.2952   21.4912   50.0640 H   0  0  0  0  0  0  0  0  0  0  0  0
  179.0056   23.7309   49.2077 H   0  0  0  0  0  0  0  0  0  0  0  0
  179.3439   21.9489   49.4445 H   0  0  0  0  0  0  0  0  0  0  0  0
  177.9788   23.2045   47.0775 H   0  0  0  0  0  0  0  0  0  0  0  0
  1  2  1  0
  2  3  1  0
  2  4  1  0
  2  5  1  0
  5  6  3  0
  6  7  1  0
  7  8  1  0
  8  9  2  0
  9 10  1  0
 10 11  1  0
 11 12  1  0
 11 13  2  0
 13 14  1  0
 14 15  2  0
 15 16  1  0
 16 17  1  0
 16 18  2  0
 18 19  1  0
 19 20  2  0
 20 21  1  0
 21 22  1  0
 22 23  1  0
 23 24  1  0
 24 25  1  0
 12  7  2  0
 24 13  1  0
 25 10  2  0
 20 14  1  0
  1 26  1  0
  1 27  1  0
  1 28  1  0
  3 29  1  0
  3 30  1  0
  3 31  1  0
  4 32  1  0
  8 33  1  0
  9 34  1  0
 12 35  1  0
 17 36  1  0
 17 37  1  0
 19 38  1  0
 21 39  1  0
 21 40  1  0
 22 41  1  0
 22 42  1  0
 23 43  1  0
 23 44  1  0
 24 45  1  6
M  END
>  <meeko>  (2) 
{"is_sidechain": [false], "free_energy": -7.733, "intermolecular_energy": -10.445, "internal_energy": 1.121}

$$$$
