cand_037_out
     RDKit          3D

 35 37  0  0  0  0  0  0  0  0999 V2000
   21.0760  -27.1040   41.8280 C   0  0  0  0  0  0  0  0  0  0  0  0
   20.1000  -27.3890   40.7190 C   0  0  0  0  0  0  0  0  0  0  0  0
   20.1140  -28.6550   40.1070 C   0  0  0  0  0  0  0  0  0  0  0  0
   19.2310  -28.9810   39.0660 C   0  0  0  0  0  0  0  0  0  0  0  0
   19.2940  -30.3170   38.4370 C   0  0  0  0  0  0  0  0  0  0  0  0
   18.8620  -31.3330   39.2820 O   0  0  0  0  0  0  0  0  0  0  0  0
   18.8670  -32.6250   38.8230 C   0  0  0  0  0  0  0  0  0  0  0  0
   18.4390  -33.6150   39.7100 C   0  0  0  0  0  0  0  0  0  0  0  0
   18.4180  -34.9510   39.3040 C   0  0  0  0  0  0  0  0  0  0  0  0
   18.8250  -35.2980   38.0150 C   0  0  0  0  0  0  0  0  0  0  0  0
   19.2510  -34.3100   37.1310 C   0  0  0  0  0  0  0  0  0  0  0  0
   19.6350  -34.7190   35.8840 O   0  0  0  0  0  0  0  0  0  0  0  0
   19.2730  -32.9720   37.5370 C   0  0  0  0  0  0  0  0  0  0  0  0
   19.7140  -31.9020   36.6410 C   0  0  0  0  0  0  0  0  0  0  0  0
   20.0790  -32.1260   35.4900 O   0  0  0  0  0  0  0  0  0  0  0  0
   19.7060  -30.5180   37.1710 C   0  0  0  0  0  0  0  0  0  0  0  0
   20.1120  -29.5140   36.3120 O   0  0  0  0  0  0  0  0  0  0  0  0
   18.3360  -28.0010   38.6250 C   0  0  0  0  0  0  0  0  0  0  0  0
   18.3160  -26.7340   39.2150 C   0  0  0  0  0  0  0  0  0  0  0  0
   19.2000  -26.4080   40.2550 C   0  0  0  0  0  0  0  0  0  0  0  0
   19.1290  -25.0350   40.8730 C   0  0  0  0  0  0  0  0  0  0  0  0
   20.0800  -24.1790   40.4020 F   0  0  0  0  0  0  0  0  0  0  0  0
   20.5801  -27.2488   42.7991 H   0  0  0  0  0  0  0  0  0  0  0  0
   21.9325  -27.7895   41.7478 H   0  0  0  0  0  0  0  0  0  0  0  0
   21.4290  -26.0653   41.7478 H   0  0  0  0  0  0  0  0  0  0  0  0
   20.8358  -29.4094   40.4532 H   0  0  0  0  0  0  0  0  0  0  0  0
   18.1190  -33.3430   40.7267 H   0  0  0  0  0  0  0  0  0  0  0  0
   18.0800  -35.7314   40.0016 H   0  0  0  0  0  0  0  0  0  0  0  0
   18.8093  -36.3511   37.6976 H   0  0  0  0  0  0  0  0  0  0  0  0
   19.3520  -35.5490   35.5560 H   0  0  0  0  0  0  0  0  0  0  0  0
   20.5140  -29.7310   35.4940 H   0  0  0  0  0  0  0  0  0  0  0  0
   17.6399  -28.2299   37.8046 H   0  0  0  0  0  0  0  0  0  0  0  0
   17.5969  -25.9816   38.8589 H   0  0  0  0  0  0  0  0  0  0  0  0
   18.1384  -24.6073   40.6592 H   0  0  0  0  0  0  0  0  0  0  0  0
   19.3062  -25.1552   41.9520 H   0  0  0  0  0  0  0  0  0  0  0  0
  1  2  1  0
  2  3  2  0
  3  4  1  0
  4  5  1  0
  5  6  1  0
  6  7  1  0
  7  8  2  0
  8  9  1  0
  9 10  2  0
 10 11  1  0
 11 12  1  0
 11 13  2  0
 13 14  1  0
 14 15  2  0
 14 16  1  0
 16 17  1  0
  4 18  2  0
 18 19  1  0
 19 20  2  0
 20 21  1  0
 21 22  1  0
 20  2  1  0
 16  5  2  0
 13  7  1  0
  1 23  1  0
  1 24  1  0
  1 25  1  0
  3 26  1  0
  8 27  1  0
  9 28  1  0
 10 29  1  0
 12 30  1  0
 17 31  1  0
 18 32  1  0
 19 33  1  0
 21 34  1  0
 21 35  1  0
M  END
>  <meeko>  (1) 
{"is_sidechain": [false], "free_energy": -7.838, "intermolecular_energy": -9.213, "internal_energy": -0.351}

$$$$
cand_037_out
     RDKit          3D

 35 37  0  0  0  0  0  0  0  0999 V2000
   18.4150  -33.7670   39.1180 C   0  0  0  0  0  0  0  0  0  0  0  0
   18.9150  -32.5200   38.4420 C   0  0  0  0  0  0  0  0  0  0  0  0
   18.8550  -31.2970   39.1360 C   0  0  0  0  0  0  0  0  0  0  0  0
   19.3030  -30.1000   38.5580 C   0  0  0  0  0  0  0  0  0  0  0  0
   19.2030  -28.8340   39.3150 C   0  0  0  0  0  0  0  0  0  0  0  0
   20.1010  -28.7650   40.3740 O   0  0  0  0  0  0  0  0  0  0  0  0
   20.1160  -27.6410   41.1600 C   0  0  0  0  0  0  0  0  0  0  0  0
   21.0240  -27.6210   42.2210 C   0  0  0  0  0  0  0  0  0  0  0  0
   21.0900  -26.5060   43.0580 C   0  0  0  0  0  0  0  0  0  0  0  0
   20.2510  -25.4120   42.8370 C   0  0  0  0  0  0  0  0  0  0  0  0
   19.3470  -25.4340   41.7780 C   0  0  0  0  0  0  0  0  0  0  0  0
   18.5570  -24.3290   41.6180 O   0  0  0  0  0  0  0  0  0  0  0  0
   19.2790  -26.5510   40.9400 C   0  0  0  0  0  0  0  0  0  0  0  0
   18.3430  -26.6150   39.8160 C   0  0  0  0  0  0  0  0  0  0  0  0
   17.5790  -25.6910   39.5520 O   0  0  0  0  0  0  0  0  0  0  0  0
   18.3450  -27.8470   38.9930 C   0  0  0  0  0  0  0  0  0  0  0  0
   17.4670  -27.8910   37.9260 O   0  0  0  0  0  0  0  0  0  0  0  0
   19.7970  -30.1380   37.2510 C   0  0  0  0  0  0  0  0  0  0  0  0
   19.8540  -31.3420   36.5430 C   0  0  0  0  0  0  0  0  0  0  0  0
   19.4050  -32.5400   37.1210 C   0  0  0  0  0  0  0  0  0  0  0  0
   19.5030  -33.8180   36.3250 C   0  0  0  0  0  0  0  0  0  0  0  0
   20.1300  -33.6620   35.1250 F   0  0  0  0  0  0  0  0  0  0  0  0
   18.4666  -33.6383   40.2092 H   0  0  0  0  0  0  0  0  0  0  0  0
   17.3727  -33.9531   38.8196 H   0  0  0  0  0  0  0  0  0  0  0  0
   19.0400  -34.6216   38.8196 H   0  0  0  0  0  0  0  0  0  0  0  0
   18.4466  -31.2794   40.1572 H   0  0  0  0  0  0  0  0  0  0  0  0
   21.6856  -28.4820   42.3966 H   0  0  0  0  0  0  0  0  0  0  0  0
   21.8048  -26.4891   43.8939 H   0  0  0  0  0  0  0  0  0  0  0  0
   20.3040  -24.5345   43.4981 H   0  0  0  0  0  0  0  0  0  0  0  0
   17.6770  -24.4240   41.3090 H   0  0  0  0  0  0  0  0  0  0  0  0
   16.5440  -27.8390   38.0770 H   0  0  0  0  0  0  0  0  0  0  0  0
   20.1449  -29.2098   36.7741 H   0  0  0  0  0  0  0  0  0  0  0  0
   20.2561  -31.3509   35.5192 H   0  0  0  0  0  0  0  0  0  0  0  0
   20.0635  -34.5558   36.9178 H   0  0  0  0  0  0  0  0  0  0  0  0
   18.4753  -34.1483   36.1136 H   0  0  0  0  0  0  0  0  0  0  0  0
  1  2  1  0
  2  3  2  0
  3  4  1  0
  4  5  1  0
  5  6  1  0
  6  7  1  0
  7  8  2  0
  8  9  1  0
  9 10  2  0
 10 11  1  0
 11 12  1  0
 11 13  2  0
 13 14  1  0
 14 15  2  0
 14 16  1  0
 16 17  1  0
  4 18  2  0
 18 19  1  0
 19 20  2  0
 20 21  1  0
 21 22  1  0
 20  2  1  0
 16  5  2  0
 13  7  1  0
  1 23  1  0
  1 24  1  0
  1 25  1  0
  3 26  1  0
  8 27  1  0
  9 28  1  0
 10 29  1  0
 12 30  1  0
 17 31  1  0
 18 32  1  0
 19 33  1  0
 21 34  1  0
 21 35  1  0
M  END
>  <meeko>  (2) 
{"is_sidechain": [false], "free_energy": -7.461, "intermolecular_energy": -8.801, "internal_energy": -0.32}

$$$$
cand_037_out
     RDKit          3D

 35 37  0  0  0  0  0  0  0  0999 V2000
   20.5250  -31.1110   35.0220 C   0  0  0  0  0  0  0  0  0  0  0  0
   19.9310  -31.2110   36.4010 C   0  0  0  0  0  0  0  0  0  0  0  0
   19.8140  -30.0450   37.1790 C   0  0  0  0  0  0  0  0  0  0  0  0
   19.2720  -30.0740   38.4720 C   0  0  0  0  0  0  0  0  0  0  0  0
   19.1860  -28.8280   39.2630 C   0  0  0  0  0  0  0  0  0  0  0  0
   20.1180  -28.7760   40.2940 O   0  0  0  0  0  0  0  0  0  0  0  0
   20.1480  -27.6730   41.1070 C   0  0  0  0  0  0  0  0  0  0  0  0
   21.0900  -27.6700   42.1380 C   0  0  0  0  0  0  0  0  0  0  0  0
   21.1740  -26.5750   43.0000 C   0  0  0  0  0  0  0  0  0  0  0  0
   20.3190  -25.4840   42.8330 C   0  0  0  0  0  0  0  0  0  0  0  0
   19.3810  -25.4880   41.8040 C   0  0  0  0  0  0  0  0  0  0  0  0
   18.5760  -24.3880   41.6970 O   0  0  0  0  0  0  0  0  0  0  0  0
   19.2960  -26.5850   40.9410 C   0  0  0  0  0  0  0  0  0  0  0  0
   18.3240  -26.6300   39.8470 C   0  0  0  0  0  0  0  0  0  0  0  0
   17.5430  -25.7070   39.6310 O   0  0  0  0  0  0  0  0  0  0  0  0
   18.3100  -27.8420   38.9940 C   0  0  0  0  0  0  0  0  0  0  0  0
   17.3980  -27.8680   37.9550 O   0  0  0  0  0  0  0  0  0  0  0  0
   18.8640  -31.3060   38.9940 C   0  0  0  0  0  0  0  0  0  0  0  0
   18.9850  -32.4750   38.2380 C   0  0  0  0  0  0  0  0  0  0  0  0
   19.5270  -32.4470   36.9440 C   0  0  0  0  0  0  0  0  0  0  0  0
   19.6190  -33.7320   36.1600 C   0  0  0  0  0  0  0  0  0  0  0  0
   18.5640  -34.5700   36.3680 F   0  0  0  0  0  0  0  0  0  0  0  0
   21.6069  -30.9289   35.1011 H   0  0  0  0  0  0  0  0  0  0  0  0
   20.3502  -32.0512   34.4784 H   0  0  0  0  0  0  0  0  0  0  0  0
   20.0520  -30.2798   34.4784 H   0  0  0  0  0  0  0  0  0  0  0  0
   20.1563  -29.0861   36.7626 H   0  0  0  0  0  0  0  0  0  0  0  0
   21.7645  -28.5288   42.2707 H   0  0  0  0  0  0  0  0  0  0  0  0
   21.9155  -26.5718   43.8125 H   0  0  0  0  0  0  0  0  0  0  0  0
   20.3863  -24.6224   43.5135 H   0  0  0  0  0  0  0  0  0  0  0  0
   17.6830  -24.4320   41.9760 H   0  0  0  0  0  0  0  0  0  0  0  0
   17.6290  -28.2690   37.1400 H   0  0  0  0  0  0  0  0  0  0  0  0
   18.4438  -31.3551   40.0094 H   0  0  0  0  0  0  0  0  0  0  0  0
   18.6501  -33.4323   38.6640 H   0  0  0  0  0  0  0  0  0  0  0  0
   19.6619  -33.4847   35.0890 H   0  0  0  0  0  0  0  0  0  0  0  0
   20.5230  -34.2570   36.5021 H   0  0  0  0  0  0  0  0  0  0  0  0
  1  2  1  0
  2  3  2  0
  3  4  1  0
  4  5  1  0
  5  6  1  0
  6  7  1  0
  7  8  2  0
  8  9  1  0
  9 10  2  0
 10 11  1  0
 11 12  1  0
 11 13  2  0
 13 14  1  0
 14 15  2  0
 14 16  1  0
 16 17  1  0
  4 18  2  0
 18 19  1  0
 19 20  2  0
 20 21  1  0
 21 22  1  0
 20  2  1  0
 16  5  2  0
 13  7  1  0
  1 23  1  0
  1 24  1  0
  1 25  1  0
  3 26  1  0
  8 27  1  0
  9 28  1  0
 10 29  1  0
 12 30  1  0
 17 31  1  0
 18 32  1  0
 19 33  1  0
 21 34  1  0
 21 35  1  0
M  END
>  <meeko>  (3) 
{"is_sidechain": [false], "free_energy": -7.397, "intermolecular_energy": -8.702, "internal_energy": -0.343}

$$$$
cand_037_out
     RDKit          3D

 35 37  0  0  0  0  0  0  0  0999 V2000
   17.8980  -25.2760   38.2110 C   0  0  0  0  0  0  0  0  0  0  0  0
   18.6820  -26.3530   38.9090 C   0  0  0  0  0  0  0  0  0  0  0  0
   18.7070  -27.6460   38.3550 C   0  0  0  0  0  0  0  0  0  0  0  0
   19.4170  -28.6940   38.9610 C   0  0  0  0  0  0  0  0  0  0  0  0
   19.3990  -30.0430   38.3560 C   0  0  0  0  0  0  0  0  0  0  0  0
   18.9960  -31.0300   39.2480 O   0  0  0  0  0  0  0  0  0  0  0  0
   18.9340  -32.3300   38.8160 C   0  0  0  0  0  0  0  0  0  0  0  0
   18.5370  -33.2900   39.7490 C   0  0  0  0  0  0  0  0  0  0  0  0
   18.4520  -34.6320   39.3730 C   0  0  0  0  0  0  0  0  0  0  0  0
   18.7610  -35.0140   38.0660 C   0  0  0  0  0  0  0  0  0  0  0  0
   19.1560  -34.0550   37.1370 C   0  0  0  0  0  0  0  0  0  0  0  0
   19.4430  -34.4980   35.8750 O   0  0  0  0  0  0  0  0  0  0  0  0
   19.2430  -32.7120   37.5140 C   0  0  0  0  0  0  0  0  0  0  0  0
   19.6530  -31.6720   36.5690 C   0  0  0  0  0  0  0  0  0  0  0  0
   19.9350  -31.9270   35.4010 O   0  0  0  0  0  0  0  0  0  0  0  0
   19.7200  -30.2790   37.0700 C   0  0  0  0  0  0  0  0  0  0  0  0
   20.0960  -29.3020   36.1660 O   0  0  0  0  0  0  0  0  0  0  0  0
   20.0930  -28.4330   40.1570 C   0  0  0  0  0  0  0  0  0  0  0  0
   20.0690  -27.1570   40.7270 C   0  0  0  0  0  0  0  0  0  0  0  0
   19.3580  -26.1090   40.1220 C   0  0  0  0  0  0  0  0  0  0  0  0
   19.3770  -24.7440   40.7640 C   0  0  0  0  0  0  0  0  0  0  0  0
   20.1600  -23.8450   40.1020 F   0  0  0  0  0  0  0  0  0  0  0  0
   17.4236  -24.6243   38.9594 H   0  0  0  0  0  0  0  0  0  0  0  0
   18.5746  -24.6794   37.5815 H   0  0  0  0  0  0  0  0  0  0  0  0
   17.1224  -25.7366   37.5815 H   0  0  0  0  0  0  0  0  0  0  0  0
   18.1560  -27.8405   37.4230 H   0  0  0  0  0  0  0  0  0  0  0  0
   18.2917  -32.9896   40.7783 H   0  0  0  0  0  0  0  0  0  0  0  0
   18.1411  -35.3895   40.1076 H   0  0  0  0  0  0  0  0  0  0  0  0
   18.6925  -36.0714   37.7706 H   0  0  0  0  0  0  0  0  0  0  0  0
   19.0470  -35.2830   35.5520 H   0  0  0  0  0  0  0  0  0  0  0  0
   20.8720  -28.8000   36.3150 H   0  0  0  0  0  0  0  0  0  0  0  0
   20.6497  -29.2407   40.6546 H   0  0  0  0  0  0  0  0  0  0  0  0
   20.6154  -26.9714   41.6635 H   0  0  0  0  0  0  0  0  0  0  0  0
   18.3477  -24.3568   40.7906 H   0  0  0  0  0  0  0  0  0  0  0  0
   19.8019  -24.8648   41.7714 H   0  0  0  0  0  0  0  0  0  0  0  0
  1  2  1  0
  2  3  2  0
  3  4  1  0
  4  5  1  0
  5  6  1  0
  6  7  1  0
  7  8  2  0
  8  9  1  0
  9 10  2  0
 10 11  1  0
 11 12  1  0
 11 13  2  0
 13 14  1  0
 14 15  2  0
 14 16  1  0
 16 17  1  0
  4 18  2  0
 18 19  1  0
 19 20  2  0
 20 21  1  0
 21 22  1  0
 20  2  1  0
 16  5  2  0
 13  7  1  0
  1 23  1  0
  1 24  1  0
  1 25  1  0
  3 26  1  0
  8 27  1  0
  9 28  1  0
 10 29  1  0
 12 30  1  0
 17 31  1  0
 18 32  1  0
 19 33  1  0
 21 34  1  0
 21 35  1  0
M  END
>  <meeko>  (4) 
{"is_sidechain": [false], "free_energy": -7.25, "intermolecular_energy": -8.695, "internal_energy": -0.179}

$$$$
cand_037_out
     RDKit          3D

 35 37  0  0  0  0  0  0  0  0999 V2000
   19.4030  -24.7460   37.4430 C   0  0  0  0  0  0  0  0  0  0  0  0
   19.4730  -26.0440   38.2000 C   0  0  0  0  0  0  0  0  0  0  0  0
   20.2260  -26.1010   39.3870 C   0  0  0  0  0  0  0  0  0  0  0  0
   20.3320  -27.2830   40.1360 C   0  0  0  0  0  0  0  0  0  0  0  0
   21.1500  -27.3040   41.3670 C   0  0  0  0  0  0  0  0  0  0  0  0
   22.1540  -28.2650   41.3320 O   0  0  0  0  0  0  0  0  0  0  0  0
   22.9890  -28.3920   42.4120 C   0  0  0  0  0  0  0  0  0  0  0  0
   23.9740  -29.3790   42.3400 C   0  0  0  0  0  0  0  0  0  0  0  0
   24.8580  -29.5600   43.4060 C   0  0  0  0  0  0  0  0  0  0  0  0
   24.7590  -28.7550   44.5420 C   0  0  0  0  0  0  0  0  0  0  0  0
   23.7770  -27.7700   44.6120 C   0  0  0  0  0  0  0  0  0  0  0  0
   23.7370  -27.0170   45.7530 O   0  0  0  0  0  0  0  0  0  0  0  0
   22.8910  -27.5900   43.5460 C   0  0  0  0  0  0  0  0  0  0  0  0
   21.8440  -26.5670   43.5780 C   0  0  0  0  0  0  0  0  0  0  0  0
   21.6980  -25.8160   44.5380 O   0  0  0  0  0  0  0  0  0  0  0  0
   20.9520  -26.4630   42.4000 C   0  0  0  0  0  0  0  0  0  0  0  0
   19.9760  -25.4850   42.4350 O   0  0  0  0  0  0  0  0  0  0  0  0
   19.6850  -28.4290   39.6630 C   0  0  0  0  0  0  0  0  0  0  0  0
   18.9430  -28.3920   38.4790 C   0  0  0  0  0  0  0  0  0  0  0  0
   18.8360  -27.2100   37.7300 C   0  0  0  0  0  0  0  0  0  0  0  0
   18.0090  -27.2140   36.4690 C   0  0  0  0  0  0  0  0  0  0  0  0
   18.7440  -27.4130   35.3390 F   0  0  0  0  0  0  0  0  0  0  0  0
   19.3578  -23.9085   38.1547 H   0  0  0  0  0  0  0  0  0  0  0  0
   20.2968  -24.6418   36.8104 H   0  0  0  0  0  0  0  0  0  0  0  0
   18.5031  -24.7385   36.8104 H   0  0  0  0  0  0  0  0  0  0  0  0
   20.7447  -25.1963   39.7368 H   0  0  0  0  0  0  0  0  0  0  0  0
   24.0536  -30.0132   41.4448 H   0  0  0  0  0  0  0  0  0  0  0  0
   25.6335  -30.3382   43.3503 H   0  0  0  0  0  0  0  0  0  0  0  0
   25.4558  -28.8985   45.3810 H   0  0  0  0  0  0  0  0  0  0  0  0
   23.4360  -26.1300   45.7190 H   0  0  0  0  0  0  0  0  0  0  0  0
   19.6210  -25.2070   43.2570 H   0  0  0  0  0  0  0  0  0  0  0  0
   19.7608  -29.3694   40.2286 H   0  0  0  0  0  0  0  0  0  0  0  0
   18.4354  -29.3030   38.1291 H   0  0  0  0  0  0  0  0  0  0  0  0
   17.2620  -28.0179   36.5448 H   0  0  0  0  0  0  0  0  0  0  0  0
   17.5446  -26.2206   36.3828 H   0  0  0  0  0  0  0  0  0  0  0  0
  1  2  1  0
  2  3  2  0
  3  4  1  0
  4  5  1  0
  5  6  1  0
  6  7  1  0
  7  8  2  0
  8  9  1  0
  9 10  2  0
 10 11  1  0
 11 12  1  0
 11 13  2  0
 13 14  1  0
 14 15  2  0
 14 16  1  0
 16 17  1  0
  4 18  2  0
 18 19  1  0
 19 20  2  0
 20 21  1  0
 21 22  1  0
 20  2  1  0
 16  5  2  0
 13  7  1  0
  1 23  1  0
  1 24  1  0
  1 25  1  0
  3 26  1  0
  8 27  1  0
  9 28  1  0
 10 29  1  0
 12 30  1  0
 17 31  1  0
 18 32  1  0
 19 33  1  0
 21 34  1  0
 21 35  1  0
M  END
>  <meeko>  (5) 
{"is_sidechain": [false], "free_energy": -7.03, "intermolecular_energy": -8.385, "internal_energy": -0.23}

$$$$
cand_037_out
     RDKit          3D

 35 37  0  0  0  0  0  0  0  0999 V2000
   18.5640  -34.0940   39.4440 C   0  0  0  0  0  0  0  0  0  0  0  0
   19.0120  -33.1850   38.3320 C   0  0  0  0  0  0  0  0  0  0  0  0
   19.1230  -31.8050   38.5830 C   0  0  0  0  0  0  0  0  0  0  0  0
   19.5320  -30.9060   37.5870 C   0  0  0  0  0  0  0  0  0  0  0  0
   19.6170  -29.4610   37.8880 C   0  0  0  0  0  0  0  0  0  0  0  0
   19.8550  -29.2020   39.2330 O   0  0  0  0  0  0  0  0  0  0  0  0
   19.9570  -27.9000   39.6510 C   0  0  0  0  0  0  0  0  0  0  0  0
   20.1820  -27.6860   41.0120 C   0  0  0  0  0  0  0  0  0  0  0  0
   20.2970  -26.3840   41.5020 C   0  0  0  0  0  0  0  0  0  0  0  0
   20.1900  -25.2960   40.6340 C   0  0  0  0  0  0  0  0  0  0  0  0
   19.9680  -25.5110   39.2760 C   0  0  0  0  0  0  0  0  0  0  0  0
   19.8730  -24.4020   38.4820 O   0  0  0  0  0  0  0  0  0  0  0  0
   19.8500  -26.8150   38.7860 C   0  0  0  0  0  0  0  0  0  0  0  0
   19.6150  -27.0860   37.3660 C   0  0  0  0  0  0  0  0  0  0  0  0
   19.5160  -26.1830   36.5390 O   0  0  0  0  0  0  0  0  0  0  0  0
   19.4980  -28.5030   36.9490 C   0  0  0  0  0  0  0  0  0  0  0  0
   19.2900  -28.7480   35.6050 O   0  0  0  0  0  0  0  0  0  0  0  0
   19.8100  -31.4090   36.3120 C   0  0  0  0  0  0  0  0  0  0  0  0
   19.6930  -32.7750   36.0430 C   0  0  0  0  0  0  0  0  0  0  0  0
   19.2830  -33.6750   37.0390 C   0  0  0  0  0  0  0  0  0  0  0  0
   19.1890  -35.1430   36.7070 C   0  0  0  0  0  0  0  0  0  0  0  0
   18.9750  -35.3860   35.3820 F   0  0  0  0  0  0  0  0  0  0  0  0
   18.7937  -33.6280   40.4136 H   0  0  0  0  0  0  0  0  0  0  0  0
   17.4798  -34.2623   39.3657 H   0  0  0  0  0  0  0  0  0  0  0  0
   19.0910  -35.0564   39.3657 H   0  0  0  0  0  0  0  0  0  0  0  0
   18.8830  -31.4215   39.5856 H   0  0  0  0  0  0  0  0  0  0  0  0
   20.2685  -28.5421   41.6973 H   0  0  0  0  0  0  0  0  0  0  0  0
   20.4724  -26.2149   42.5747 H   0  0  0  0  0  0  0  0  0  0  0  0
   20.2809  -24.2707   41.0219 H   0  0  0  0  0  0  0  0  0  0  0  0
   19.7320  -23.5600   38.8680 H   0  0  0  0  0  0  0  0  0  0  0  0
   19.5490  -28.1110   34.9680 H   0  0  0  0  0  0  0  0  0  0  0  0
   20.1241  -30.7219   35.5125 H   0  0  0  0  0  0  0  0  0  0  0  0
   19.9257  -33.1507   35.0357 H   0  0  0  0  0  0  0  0  0  0  0  0
   20.1307  -35.6284   37.0029 H   0  0  0  0  0  0  0  0  0  0  0  0
   18.3240  -35.5451   37.2548 H   0  0  0  0  0  0  0  0  0  0  0  0
  1  2  1  0
  2  3  2  0
  3  4  1  0
  4  5  1  0
  5  6  1  0
  6  7  1  0
  7  8  2  0
  8  9  1  0
  9 10  2  0
 10 11  1  0
 11 12  1  0
 11 13  2  0
 13 14  1  0
 14 15  2  0
 14 16  1  0
 16 17  1  0
  4 18  2  0
 18 19  1  0
 19 20  2  0
 20 21  1  0
 21 22  1  0
 20  2  1  0
 16  5  2  0
 13  7  1  0
  1 23  1  0
  1 24  1  0
  1 25  1  0
  3 26  1  0
  8 27  1  0
  9 28  1  0
 10 29  1  0
 12 30  1  0
 17 31  1  0
 18 32  1  0
 19 33  1  0
 21 34  1  0
 21 35  1  0
M  END
>  <meeko>  (6) 
{"is_sidechain": [false], "free_energy": -6.905, "intermolecular_energy": -8.599, "internal_energy": 0.131}

$$$$
cand_037_out
     RDKit          3D

 35 37  0  0  0  0  0  0  0  0999 V2000
   21.0890  -27.2130   42.1480 C   0  0  0  0  0  0  0  0  0  0  0  0
   20.1740  -27.2590   40.9550 C   0  0  0  0  0  0  0  0  0  0  0  0
   20.2620  -28.3490   40.0700 C   0  0  0  0  0  0  0  0  0  0  0  0
   19.4390  -28.4480   38.9380 C   0  0  0  0  0  0  0  0  0  0  0  0
   19.5780  -29.6010   38.0230 C   0  0  0  0  0  0  0  0  0  0  0  0
   19.8990  -29.2250   36.7240 O   0  0  0  0  0  0  0  0  0  0  0  0
   20.0590  -30.1980   35.7720 C   0  0  0  0  0  0  0  0  0  0  0  0
   20.3670  -29.7730   34.4770 C   0  0  0  0  0  0  0  0  0  0  0  0
   20.5450  -30.7130   33.4610 C   0  0  0  0  0  0  0  0  0  0  0  0
   20.4160  -32.0760   33.7360 C   0  0  0  0  0  0  0  0  0  0  0  0
   20.1110  -32.4970   35.0280 C   0  0  0  0  0  0  0  0  0  0  0  0
   20.0000  -33.8460   35.2280 O   0  0  0  0  0  0  0  0  0  0  0  0
   19.9310  -31.5560   36.0450 C   0  0  0  0  0  0  0  0  0  0  0  0
   19.6080  -31.9550   37.4160 C   0  0  0  0  0  0  0  0  0  0  0  0
   19.4860  -33.1340   37.7390 O   0  0  0  0  0  0  0  0  0  0  0  0
   19.4310  -30.8790   38.4200 C   0  0  0  0  0  0  0  0  0  0  0  0
   19.1400  -31.2680   39.7140 O   0  0  0  0  0  0  0  0  0  0  0  0
   18.5290  -27.4160   38.6870 C   0  0  0  0  0  0  0  0  0  0  0  0
   18.4360  -26.3210   39.5500 C   0  0  0  0  0  0  0  0  0  0  0  0
   19.2610  -26.2210   40.6820 C   0  0  0  0  0  0  0  0  0  0  0  0
   19.1120  -25.0290   41.5940 C   0  0  0  0  0  0  0  0  0  0  0  0
   19.9490  -24.0000   41.2810 F   0  0  0  0  0  0  0  0  0  0  0  0
   20.4905  -27.2431   43.0705 H   0  0  0  0  0  0  0  0  0  0  0  0
   21.7679  -28.0781   42.1230 H   0  0  0  0  0  0  0  0  0  0  0  0
   21.6777  -26.2841   42.1230 H   0  0  0  0  0  0  0  0  0  0  0  0
   20.9950  -29.1443   40.2707 H   0  0  0  0  0  0  0  0  0  0  0  0
   20.4690  -28.6997   34.2588 H   0  0  0  0  0  0  0  0  0  0  0  0
   20.7875  -30.3795   32.4412 H   0  0  0  0  0  0  0  0  0  0  0  0
   20.5550  -32.8156   32.9338 H   0  0  0  0  0  0  0  0  0  0  0  0
   19.3760  -34.1790   35.8420 H   0  0  0  0  0  0  0  0  0  0  0  0
   19.1630  -30.6390   40.4080 H   0  0  0  0  0  0  0  0  0  0  0  0
   17.8795  -27.4669   37.8007 H   0  0  0  0  0  0  0  0  0  0  0  0
   17.7058  -25.5256   39.3396 H   0  0  0  0  0  0  0  0  0  0  0  0
   18.0752  -24.6674   41.5286 H   0  0  0  0  0  0  0  0  0  0  0  0
   19.3728  -25.3624   42.6093 H   0  0  0  0  0  0  0  0  0  0  0  0
  1  2  1  0
  2  3  2  0
  3  4  1  0
  4  5  1  0
  5  6  1  0
  6  7  1  0
  7  8  2  0
  8  9  1  0
  9 10  2  0
 10 11  1  0
 11 12  1  0
 11 13  2  0
 13 14  1  0
 14 15  2  0
 14 16  1  0
 16 17  1  0
  4 18  2  0
 18 19  1  0
 19 20  2  0
 20 21  1  0
 21 22  1  0
 20  2  1  0
 16  5  2  0
 13  7  1  0
  1 23  1  0
  1 24  1  0
  1 25  1  0
  3 26  1  0
  8 27  1  0
  9 28  1  0
 10 29  1  0
 12 30  1  0
 17 31  1  0
 18 32  1  0
 19 33  1  0
 21 34  1  0
 21 35  1  0
M  END
>  <meeko>  (7) 
{"is_sidechain": [false], "free_energy": -6.904, "intermolecular_energy": -8.214, "internal_energy": -0.252}

$$$$
cand_037_out
     RDKit          3D

 35 37  0  0  0  0  0  0  0  0999 V2000
   24.4040  -29.8450   42.1650 C   0  0  0  0  0  0  0  0  0  0  0  0
   23.4080  -28.8050   42.6000 C   0  0  0  0  0  0  0  0  0  0  0  0
   22.5030  -28.2900   41.6540 C   0  0  0  0  0  0  0  0  0  0  0  0
   21.5530  -27.3160   41.9970 C   0  0  0  0  0  0  0  0  0  0  0  0
   20.6340  -26.7870   40.9660 C   0  0  0  0  0  0  0  0  0  0  0  0
   20.5440  -25.4000   40.9830 O   0  0  0  0  0  0  0  0  0  0  0  0
   19.7250  -24.7770   40.0760 C   0  0  0  0  0  0  0  0  0  0  0  0
   19.6550  -23.3840   40.1380 C   0  0  0  0  0  0  0  0  0  0  0  0
   18.8400  -22.6890   39.2430 C   0  0  0  0  0  0  0  0  0  0  0  0
   18.0980  -23.3830   38.2860 C   0  0  0  0  0  0  0  0  0  0  0  0
   18.1710  -24.7720   38.2250 C   0  0  0  0  0  0  0  0  0  0  0  0
   17.4190  -25.3890   37.2630 O   0  0  0  0  0  0  0  0  0  0  0  0
   18.9850  -25.4690   39.1220 C   0  0  0  0  0  0  0  0  0  0  0  0
   19.0900  -26.9290   39.0940 C   0  0  0  0  0  0  0  0  0  0  0  0
   18.4740  -27.6100   38.2780 O   0  0  0  0  0  0  0  0  0  0  0  0
   19.9750  -27.5720   40.0930 C   0  0  0  0  0  0  0  0  0  0  0  0
   20.0770  -28.9500   40.0480 O   0  0  0  0  0  0  0  0  0  0  0  0
   21.5350  -26.8410   43.3120 C   0  0  0  0  0  0  0  0  0  0  0  0
   22.4350  -27.3330   44.2610 C   0  0  0  0  0  0  0  0  0  0  0  0
   23.3860  -28.3070   43.9180 C   0  0  0  0  0  0  0  0  0  0  0  0
   24.3230  -28.8220   44.9810 C   0  0  0  0  0  0  0  0  0  0  0  0
   25.6360  -28.7740   44.6150 F   0  0  0  0  0  0  0  0  0  0  0  0
   24.8542  -30.3151   43.0518 H   0  0  0  0  0  0  0  0  0  0  0  0
   23.8944  -30.6114   41.5626 H   0  0  0  0  0  0  0  0  0  0  0  0
   25.1917  -29.3690   41.5626 H   0  0  0  0  0  0  0  0  0  0  0  0
   22.5411  -28.6604   40.6189 H   0  0  0  0  0  0  0  0  0  0  0  0
   20.2407  -22.8355   40.8904 H   0  0  0  0  0  0  0  0  0  0  0  0
   18.7824  -21.5916   39.2920 H   0  0  0  0  0  0  0  0  0  0  0  0
   17.4567  -22.8335   37.5812 H   0  0  0  0  0  0  0  0  0  0  0  0
   16.7840  -26.0340   37.5070 H   0  0  0  0  0  0  0  0  0  0  0  0
   19.3240  -29.4810   40.2140 H   0  0  0  0  0  0  0  0  0  0  0  0
   20.8044  -26.0717   43.6026 H   0  0  0  0  0  0  0  0  0  0  0  0
   22.3977  -26.9515   45.2920 H   0  0  0  0  0  0  0  0  0  0  0  0
   24.1911  -28.2125   45.8871 H   0  0  0  0  0  0  0  0  0  0  0  0
   24.0717  -29.8793   45.1509 H   0  0  0  0  0  0  0  0  0  0  0  0
  1  2  1  0
  2  3  2  0
  3  4  1  0
  4  5  1  0
  5  6  1  0
  6  7  1  0
  7  8  2  0
  8  9  1  0
  9 10  2  0
 10 11  1  0
 11 12  1  0
 11 13  2  0
 13 14  1  0
 14 15  2  0
 14 16  1  0
 16 17  1  0
  4 18  2  0
 18 19  1  0
 19 20  2  0
 20 21  1  0
 21 22  1  0
 20  2  1  0
 16  5  2  0
 13  7  1  0
  1 23  1  0
  1 24  1  0
  1 25  1  0
  3 26  1  0
  8 27  1  0
  9 28  1  0
 10 29  1  0
 12 30  1  0
 17 31  1  0
 18 32  1  0
 19 33  1  0
 21 34  1  0
 21 35  1  0
M  END
>  <meeko>  (8) 
{"is_sidechain": [false], "free_energy": -6.787, "intermolecular_energy": -8.42, "internal_energy": 0.09}

$$$$
cand_037_out
     RDKit          3D

 35 37  0  0  0  0  0  0  0  0999 V2000
   20.0100  -25.2980   49.1330 C   0  0  0  0  0  0  0  0  0  0  0  0
   20.5820  -24.4160   48.0570 C   0  0  0  0  0  0  0  0  0  0  0  0
   20.1520  -24.5950   46.7290 C   0  0  0  0  0  0  0  0  0  0  0  0
   20.6500  -23.8070   45.6810 C   0  0  0  0  0  0  0  0  0  0  0  0
   20.1860  -24.0420   44.2970 C   0  0  0  0  0  0  0  0  0  0  0  0
   20.4360  -25.3360   43.8560 O   0  0  0  0  0  0  0  0  0  0  0  0
   20.0550  -25.6900   42.5870 C   0  0  0  0  0  0  0  0  0  0  0  0
   20.3390  -26.9950   42.1800 C   0  0  0  0  0  0  0  0  0  0  0  0
   19.9760  -27.4200   40.9010 C   0  0  0  0  0  0  0  0  0  0  0  0
   19.3280  -26.5430   40.0290 C   0  0  0  0  0  0  0  0  0  0  0  0
   19.0440  -25.2420   40.4370 C   0  0  0  0  0  0  0  0  0  0  0  0
   18.4080  -24.4360   39.5330 O   0  0  0  0  0  0  0  0  0  0  0  0
   19.4100  -24.8160   41.7170 C   0  0  0  0  0  0  0  0  0  0  0  0
   19.1310  -23.4570   42.1860 C   0  0  0  0  0  0  0  0  0  0  0  0
   18.5590  -22.6300   41.4800 O   0  0  0  0  0  0  0  0  0  0  0  0
   19.5660  -23.1030   43.5570 C   0  0  0  0  0  0  0  0  0  0  0  0
   19.2850  -21.8220   43.9950 O   0  0  0  0  0  0  0  0  0  0  0  0
   21.6140  -22.8380   45.9790 C   0  0  0  0  0  0  0  0  0  0  0  0
   22.0600  -22.6550   47.2910 C   0  0  0  0  0  0  0  0  0  0  0  0
   21.5630  -23.4450   48.3400 C   0  0  0  0  0  0  0  0  0  0  0  0
   22.0610  -23.1980   49.7410 C   0  0  0  0  0  0  0  0  0  0  0  0
   23.4200  -23.1360   49.8300 F   0  0  0  0  0  0  0  0  0  0  0  0
   20.2742  -24.8906   50.1200 H   0  0  0  0  0  0  0  0  0  0  0  0
   18.9152  -25.3355   49.0329 H   0  0  0  0  0  0  0  0  0  0  0  0
   20.4223  -26.3129   49.0329 H   0  0  0  0  0  0  0  0  0  0  0  0
   19.4064  -25.3727   46.5073 H   0  0  0  0  0  0  0  0  0  0  0  0
   20.8482  -27.6874   42.8665 H   0  0  0  0  0  0  0  0  0  0  0  0
   20.2008  -28.4477   40.5795 H   0  0  0  0  0  0  0  0  0  0  0  0
   19.0422  -26.8791   39.0213 H   0  0  0  0  0  0  0  0  0  0  0  0
   17.9110  -24.8150   38.8360 H   0  0  0  0  0  0  0  0  0  0  0  0
   19.7530  -21.4630   44.7240 H   0  0  0  0  0  0  0  0  0  0  0  0
   22.0254  -22.2135   45.1723 H   0  0  0  0  0  0  0  0  0  0  0  0
   22.8114  -21.8807   47.5049 H   0  0  0  0  0  0  0  0  0  0  0  0
   21.6445  -22.2437   50.0958 H   0  0  0  0  0  0  0  0  0  0  0  0
   21.7340  -24.0491   50.3564 H   0  0  0  0  0  0  0  0  0  0  0  0
  1  2  1  0
  2  3  2  0
  3  4  1  0
  4  5  1  0
  5  6  1  0
  6  7  1  0
  7  8  2  0
  8  9  1  0
  9 10  2  0
 10 11  1  0
 11 12  1  0
 11 13  2  0
 13 14  1  0
 14 15  2  0
 14 16  1  0
 16 17  1  0
  4 18  2  0
 18 19  1  0
 19 20  2  0
 20 21  1  0
 21 22  1  0
 20  2  1  0
 16  5  2  0
 13  7  1  0
  1 23  1  0
  1 24  1  0
  1 25  1  0
  3 26  1  0
  8 27  1  0
  9 28  1  0
 10 29  1  0
 12 30  1  0
 17 31  1  0
 18 32  1  0
 19 33  1  0
 21 34  1  0
 21 35  1  0
M  END
>  <meeko>  (9) 
{"is_sidechain": [false], "free_energy": -6.614, "intermolecular_energy": -7.845, "internal_energy": -0.28}

$$$$
