cand_021_out
     RDKit          3D

 36 38  0  0  0  0  0  0  0  0999 V2000
   22.1810  -27.6210   41.9390 C   0  0  0  0  0  0  0  0  0  0  0  0
   21.0200  -26.9780   41.7650 C   0  0  0  0  0  0  0  0  0  0  0  0
   20.0960  -27.2930   40.6680 C   0  0  0  0  0  0  0  0  0  0  0  0
   20.1460  -28.5670   40.0750 C   0  0  0  0  0  0  0  0  0  0  0  0
   19.2820  -28.9240   39.0300 C   0  0  0  0  0  0  0  0  0  0  0  0
   19.3190  -30.2680   38.4180 C   0  0  0  0  0  0  0  0  0  0  0  0
   18.8580  -31.2640   39.2700 O   0  0  0  0  0  0  0  0  0  0  0  0
   18.8410  -32.5620   38.8260 C   0  0  0  0  0  0  0  0  0  0  0  0
   18.3860  -33.5320   39.7200 C   0  0  0  0  0  0  0  0  0  0  0  0
   18.3410  -34.8720   39.3290 C   0  0  0  0  0  0  0  0  0  0  0  0
   18.7500  -35.2420   38.0470 C   0  0  0  0  0  0  0  0  0  0  0  0
   19.2040  -34.2710   37.1560 C   0  0  0  0  0  0  0  0  0  0  0  0
   19.5880  -34.7020   35.9170 O   0  0  0  0  0  0  0  0  0  0  0  0
   19.2490  -32.9310   37.5480 C   0  0  0  0  0  0  0  0  0  0  0  0
   19.7180  -31.8800   36.6440 C   0  0  0  0  0  0  0  0  0  0  0  0
   20.0880  -32.1240   35.4960 O   0  0  0  0  0  0  0  0  0  0  0  0
   19.7350  -30.4910   37.1570 C   0  0  0  0  0  0  0  0  0  0  0  0
   20.1670  -29.5040   36.2920 O   0  0  0  0  0  0  0  0  0  0  0  0
   18.3370  -27.9860   38.5970 C   0  0  0  0  0  0  0  0  0  0  0  0
   18.2720  -26.7190   39.1810 C   0  0  0  0  0  0  0  0  0  0  0  0
   19.1470  -26.3560   40.2180 C   0  0  0  0  0  0  0  0  0  0  0  0
   19.0640  -24.9720   40.8140 C   0  0  0  0  0  0  0  0  0  0  0  0
   20.1280  -24.1880   40.4780 F   0  0  0  0  0  0  0  0  0  0  0  0
   19.0330  -24.9710   42.1790 F   0  0  0  0  0  0  0  0  0  0  0  0
   22.8402  -27.3490   42.7765 H   0  0  0  0  0  0  0  0  0  0  0  0
   22.4759  -28.4214   41.2445 H   0  0  0  0  0  0  0  0  0  0  0  0
   20.7469  -26.1812   42.4725 H   0  0  0  0  0  0  0  0  0  0  0  0
   20.8801  -29.3007   40.4394 H   0  0  0  0  0  0  0  0  0  0  0  0
   18.0634  -33.2418   40.7308 H   0  0  0  0  0  0  0  0  0  0  0  0
   17.9824  -35.6374   40.0330 H   0  0  0  0  0  0  0  0  0  0  0  0
   18.7142  -36.2978   37.7403 H   0  0  0  0  0  0  0  0  0  0  0  0
   20.1520  -35.4470   35.8330 H   0  0  0  0  0  0  0  0  0  0  0  0
   19.5550  -28.8870   35.9400 H   0  0  0  0  0  0  0  0  0  0  0  0
   17.6388  -28.2496   37.7888 H   0  0  0  0  0  0  0  0  0  0  0  0
   17.5249  -25.9950   38.8237 H   0  0  0  0  0  0  0  0  0  0  0  0
   18.1246  -24.5773   40.3996 H   0  0  0  0  0  0  0  0  0  0  0  0
  1  2  2  0
  2  3  1  0
  3  4  2  0
  4  5  1  0
  5  6  1  0
  6  7  1  0
  7  8  1  0
  8  9  2  0
  9 10  1  0
 10 11  2  0
 11 12  1  0
 12 13  1  0
 12 14  2  0
 14 15  1  0
 15 16  2  0
 15 17  1  0
 17 18  1  0
  5 19  2  0
 19 20  1  0
 20 21  2  0
 21 22  1  0
 22 23  1  0
 22 24  1  0
 21  3  1  0
 17  6  2  0
 14  8  1  0
  1 25  1  0
  1 26  1  0
  2 27  1  0
  4 28  1  0
  9 29  1  0
 10 30  1  0
 11 31  1  0
 13 32  1  0
 18 33  1  0
 19 34  1  0
 20 35  1  0
 22 36  1  0
M  END
>  <meeko>  (1) 
{"is_sidechain": [false], "free_energy": -8.116, "intermolecular_energy": -10.013, "internal_energy": -0.36}

$$$$
cand_021_out
     RDKit          3D

 36 38  0  0  0  0  0  0  0  0999 V2000
   18.5720  -33.8510   39.6520 C   0  0  0  0  0  0  0  0  0  0  0  0
   19.1260  -33.6620   38.4480 C   0  0  0  0  0  0  0  0  0  0  0  0
   19.3320  -32.3270   37.8710 C   0  0  0  0  0  0  0  0  0  0  0  0
   19.1900  -31.1960   38.6940 C   0  0  0  0  0  0  0  0  0  0  0  0
   19.3840  -29.8990   38.1970 C   0  0  0  0  0  0  0  0  0  0  0  0
   19.2540  -28.7090   39.0630 C   0  0  0  0  0  0  0  0  0  0  0  0
   20.1770  -28.6930   40.1020 O   0  0  0  0  0  0  0  0  0  0  0  0
   20.1640  -27.6420   40.9830 C   0  0  0  0  0  0  0  0  0  0  0  0
   21.0980  -27.6740   42.0210 C   0  0  0  0  0  0  0  0  0  0  0  0
   21.1390  -26.6320   42.9520 C   0  0  0  0  0  0  0  0  0  0  0  0
   20.2500  -25.5620   42.8450 C   0  0  0  0  0  0  0  0  0  0  0  0
   19.3190  -25.5330   41.8090 C   0  0  0  0  0  0  0  0  0  0  0  0
   18.4790  -24.4550   41.7640 O   0  0  0  0  0  0  0  0  0  0  0  0
   19.2770  -26.5750   40.8780 C   0  0  0  0  0  0  0  0  0  0  0  0
   18.3160  -26.5830   39.7750 C   0  0  0  0  0  0  0  0  0  0  0  0
   17.5050  -25.6740   39.6090 O   0  0  0  0  0  0  0  0  0  0  0  0
   18.3480  -27.7370   38.8480 C   0  0  0  0  0  0  0  0  0  0  0  0
   17.4460  -27.7300   37.8000 O   0  0  0  0  0  0  0  0  0  0  0  0
   19.7520  -29.7470   36.8550 C   0  0  0  0  0  0  0  0  0  0  0  0
   19.9030  -30.8630   36.0270 C   0  0  0  0  0  0  0  0  0  0  0  0
   19.6950  -32.1620   36.5210 C   0  0  0  0  0  0  0  0  0  0  0  0
   19.8460  -33.3440   35.5950 C   0  0  0  0  0  0  0  0  0  0  0  0
   20.3170  -32.9940   34.3650 F   0  0  0  0  0  0  0  0  0  0  0  0
   18.6720  -33.9990   35.3570 F   0  0  0  0  0  0  0  0  0  0  0  0
   18.4384  -34.8708   40.0420 H   0  0  0  0  0  0  0  0  0  0  0  0
   18.2504  -32.9865   40.2513 H   0  0  0  0  0  0  0  0  0  0  0  0
   19.4396  -34.5420   37.8673 H   0  0  0  0  0  0  0  0  0  0  0  0
   18.9206  -31.3315   39.7519 H   0  0  0  0  0  0  0  0  0  0  0  0
   21.7996  -28.5170   42.1057 H   0  0  0  0  0  0  0  0  0  0  0  0
   21.8735  -26.6557   43.7705 H   0  0  0  0  0  0  0  0  0  0  0  0
   20.2842  -24.7423   43.5778 H   0  0  0  0  0  0  0  0  0  0  0  0
   18.8120  -23.6090   41.5340 H   0  0  0  0  0  0  0  0  0  0  0  0
   17.5920  -28.2740   37.0510 H   0  0  0  0  0  0  0  0  0  0  0  0
   19.9240  -28.7396   36.4481 H   0  0  0  0  0  0  0  0  0  0  0  0
   20.1886  -30.7224   34.9741 H   0  0  0  0  0  0  0  0  0  0  0  0
   20.5560  -33.9915   36.1304 H   0  0  0  0  0  0  0  0  0  0  0  0
  1  2  2  0
  2  3  1  0
  3  4  2  0
  4  5  1  0
  5  6  1  0
  6  7  1  0
  7  8  1  0
  8  9  2  0
  9 10  1  0
 10 11  2  0
 11 12  1  0
 12 13  1  0
 12 14  2  0
 14 15  1  0
 15 16  2  0
 15 17  1  0
 17 18  1  0
  5 19  2  0
 19 20  1  0
 20 21  2  0
 21 22  1  0
 22 23  1  0
 22 24  1  0
 21  3  1  0
 17  6  2  0
 14  8  1  0
  1 25  1  0
  1 26  1  0
  2 27  1  0
  4 28  1  0
  9 29  1  0
 10 30  1  0
 11 31  1  0
 13 32  1  0
 18 33  1  0
 19 34  1  0
 20 35  1  0
 22 36  1  0
M  END
>  <meeko>  (2) 
{"is_sidechain": [false], "free_energy": -7.996, "intermolecular_energy": -9.752, "internal_energy": -0.473}

$$$$
cand_021_out
     RDKit          3D

 36 38  0  0  0  0  0  0  0  0999 V2000
   20.0820  -30.3120   34.0890 C   0  0  0  0  0  0  0  0  0  0  0  0
   20.5470  -31.1620   35.0130 C   0  0  0  0  0  0  0  0  0  0  0  0
   20.0010  -31.2300   36.3740 C   0  0  0  0  0  0  0  0  0  0  0  0
   19.8920  -30.0470   37.1280 C   0  0  0  0  0  0  0  0  0  0  0  0
   19.3700  -30.0530   38.4300 C   0  0  0  0  0  0  0  0  0  0  0  0
   19.2370  -28.8100   39.2170 C   0  0  0  0  0  0  0  0  0  0  0  0
   20.1440  -28.7340   40.2670 O   0  0  0  0  0  0  0  0  0  0  0  0
   20.1270  -27.6290   41.0790 C   0  0  0  0  0  0  0  0  0  0  0  0
   21.0440  -27.6010   42.1310 C   0  0  0  0  0  0  0  0  0  0  0  0
   21.0800  -26.5030   42.9940 C   0  0  0  0  0  0  0  0  0  0  0  0
   20.2020  -25.4350   42.8060 C   0  0  0  0  0  0  0  0  0  0  0  0
   19.2870  -25.4660   41.7550 C   0  0  0  0  0  0  0  0  0  0  0  0
   18.4560  -24.3870   41.6290 O   0  0  0  0  0  0  0  0  0  0  0  0
   19.2510  -26.5640   40.8930 C   0  0  0  0  0  0  0  0  0  0  0  0
   18.3070  -26.6360   39.7770 C   0  0  0  0  0  0  0  0  0  0  0  0
   17.5060  -25.7330   39.5400 O   0  0  0  0  0  0  0  0  0  0  0  0
   18.3430  -27.8470   38.9250 C   0  0  0  0  0  0  0  0  0  0  0  0
   17.4570  -27.9000   37.8650 O   0  0  0  0  0  0  0  0  0  0  0  0
   18.9290  -31.2680   38.9650 C   0  0  0  0  0  0  0  0  0  0  0  0
   19.0250  -32.4500   38.2260 C   0  0  0  0  0  0  0  0  0  0  0  0
   19.5610  -32.4470   36.9270 C   0  0  0  0  0  0  0  0  0  0  0  0
   19.6700  -33.7440   36.1630 C   0  0  0  0  0  0  0  0  0  0  0  0
   18.6410  -33.9280   35.2880 F   0  0  0  0  0  0  0  0  0  0  0  0
   19.6590  -34.8480   36.9670 F   0  0  0  0  0  0  0  0  0  0  0  0
   20.5243  -30.2985   33.0819 H   0  0  0  0  0  0  0  0  0  0  0  0
   19.2577  -29.6271   34.3369 H   0  0  0  0  0  0  0  0  0  0  0  0
   21.3719  -31.8370   34.7412 H   0  0  0  0  0  0  0  0  0  0  0  0
   20.2237  -29.0957   36.6864 H   0  0  0  0  0  0  0  0  0  0  0  0
   21.7371  -28.4420   42.2803 H   0  0  0  0  0  0  0  0  0  0  0  0
   21.8021  -26.4804   43.8235 H   0  0  0  0  0  0  0  0  0  0  0  0
   20.2319  -24.5706   43.4856 H   0  0  0  0  0  0  0  0  0  0  0  0
   18.3240  -23.9920   40.7880 H   0  0  0  0  0  0  0  0  0  0  0  0
   17.7560  -27.7250   36.9950 H   0  0  0  0  0  0  0  0  0  0  0  0
   18.5020  -31.2932   39.9784 H   0  0  0  0  0  0  0  0  0  0  0  0
   18.6763  -33.3955   38.6670 H   0  0  0  0  0  0  0  0  0  0  0  0
   20.6331  -33.6472   35.6405 H   0  0  0  0  0  0  0  0  0  0  0  0
  1  2  2  0
  2  3  1  0
  3  4  2  0
  4  5  1  0
  5  6  1  0
  6  7  1  0
  7  8  1  0
  8  9  2  0
  9 10  1  0
 10 11  2  0
 11 12  1  0
 12 13  1  0
 12 14  2  0
 14 15  1  0
 15 16  2  0
 15 17  1  0
 17 18  1  0
  5 19  2  0
 19 20  1  0
 20 21  2  0
 21 22  1  0
 22 23  1  0
 22 24  1  0
 21  3  1  0
 17  6  2  0
 14  8  1  0
  1 25  1  0
  1 26  1  0
  2 27  1  0
  4 28  1  0
  9 29  1  0
 10 30  1  0
 11 31  1  0
 13 32  1  0
 18 33  1  0
 19 34  1  0
 20 35  1  0
 22 36  1  0
M  END
>  <meeko>  (3) 
{"is_sidechain": [false], "free_energy": -7.843, "intermolecular_energy": -9.403, "internal_energy": -0.633}

$$$$
cand_021_out
     RDKit          3D

 36 38  0  0  0  0  0  0  0  0999 V2000
   18.3650  -24.7300   37.1760 C   0  0  0  0  0  0  0  0  0  0  0  0
   17.9420  -25.3010   38.3110 C   0  0  0  0  0  0  0  0  0  0  0  0
   18.6740  -26.3890   38.9710 C   0  0  0  0  0  0  0  0  0  0  0  0
   18.6610  -27.6730   38.3960 C   0  0  0  0  0  0  0  0  0  0  0  0
   19.3500  -28.7450   38.9800 C   0  0  0  0  0  0  0  0  0  0  0  0
   19.3530  -30.0900   38.3670 C   0  0  0  0  0  0  0  0  0  0  0  0
   18.9400  -31.0850   39.2450 O   0  0  0  0  0  0  0  0  0  0  0  0
   18.8980  -32.3830   38.8020 C   0  0  0  0  0  0  0  0  0  0  0  0
   18.4940  -33.3530   39.7210 C   0  0  0  0  0  0  0  0  0  0  0  0
   18.4280  -34.6940   39.3340 C   0  0  0  0  0  0  0  0  0  0  0  0
   18.7650  -35.0640   38.0310 C   0  0  0  0  0  0  0  0  0  0  0  0
   19.1680  -34.0940   37.1160 C   0  0  0  0  0  0  0  0  0  0  0  0
   19.4830  -34.5250   35.8570 O   0  0  0  0  0  0  0  0  0  0  0  0
   19.2350  -32.7530   37.5030 C   0  0  0  0  0  0  0  0  0  0  0  0
   19.6530  -31.7020   36.5740 C   0  0  0  0  0  0  0  0  0  0  0  0
   19.9590  -31.9470   35.4080 O   0  0  0  0  0  0  0  0  0  0  0  0
   19.6990  -30.3140   37.0860 C   0  0  0  0  0  0  0  0  0  0  0  0
   20.0820  -29.3260   36.1970 O   0  0  0  0  0  0  0  0  0  0  0  0
   20.0830  -28.5090   40.1480 C   0  0  0  0  0  0  0  0  0  0  0  0
   20.1110  -27.2390   40.7270 C   0  0  0  0  0  0  0  0  0  0  0  0
   19.4090  -26.1660   40.1510 C   0  0  0  0  0  0  0  0  0  0  0  0
   19.4430  -24.8110   40.8130 C   0  0  0  0  0  0  0  0  0  0  0  0
   20.2410  -23.9230   40.1550 F   0  0  0  0  0  0  0  0  0  0  0  0
   19.9220  -24.8450   42.0920 F   0  0  0  0  0  0  0  0  0  0  0  0
   17.7817  -23.9172   36.7186 H   0  0  0  0  0  0  0  0  0  0  0  0
   19.2958  -25.0737   36.7011 H   0  0  0  0  0  0  0  0  0  0  0  0
   17.0083  -24.9402   38.7672 H   0  0  0  0  0  0  0  0  0  0  0  0
   18.0970  -27.8396   37.4664 H   0  0  0  0  0  0  0  0  0  0  0  0
   18.2281  -33.0622   40.7480 H   0  0  0  0  0  0  0  0  0  0  0  0
   18.1100  -35.4593   40.0573 H   0  0  0  0  0  0  0  0  0  0  0  0
   18.7124  -36.1199   37.7271 H   0  0  0  0  0  0  0  0  0  0  0  0
   19.4100  -33.9400   35.1280 H   0  0  0  0  0  0  0  0  0  0  0  0
   20.8760  -29.4180   35.7070 H   0  0  0  0  0  0  0  0  0  0  0  0
   20.6430  -29.3326   40.6149 H   0  0  0  0  0  0  0  0  0  0  0  0
   20.6909  -27.0756   41.6474 H   0  0  0  0  0  0  0  0  0  0  0  0
   18.3888  -24.4974   40.7961 H   0  0  0  0  0  0  0  0  0  0  0  0
  1  2  2  0
  2  3  1  0
  3  4  2  0
  4  5  1  0
  5  6  1  0
  6  7  1  0
  7  8  1  0
  8  9  2  0
  9 10  1  0
 10 11  2  0
 11 12  1  0
 12 13  1  0
 12 14  2  0
 14 15  1  0
 15 16  2  0
 15 17  1  0
 17 18  1  0
  5 19  2  0
 19 20  1  0
 20 21  2  0
 21 22  1  0
 22 23  1  0
 22 24  1  0
 21  3  1  0
 17  6  2  0
 14  8  1  0
  1 25  1  0
  1 26  1  0
  2 27  1  0
  4 28  1  0
  9 29  1  0
 10 30  1  0
 11 31  1  0
 13 32  1  0
 18 33  1  0
 19 34  1  0
 20 35  1  0
 22 36  1  0
M  END
>  <meeko>  (4) 
{"is_sidechain": [false], "free_energy": -7.524, "intermolecular_energy": -9.168, "internal_energy": -0.475}

$$$$
cand_021_out
     RDKit          3D

 36 38  0  0  0  0  0  0  0  0999 V2000
   23.9990  -29.8510   42.3830 C   0  0  0  0  0  0  0  0  0  0  0  0
   23.9650  -28.5130   42.4350 C   0  0  0  0  0  0  0  0  0  0  0  0
   22.7130  -27.7490   42.3730 C   0  0  0  0  0  0  0  0  0  0  0  0
   22.1090  -27.5250   41.1220 C   0  0  0  0  0  0  0  0  0  0  0  0
   20.9090  -26.8090   41.0060 C   0  0  0  0  0  0  0  0  0  0  0  0
   20.2620  -26.5880   39.6960 C   0  0  0  0  0  0  0  0  0  0  0  0
   20.0750  -25.2430   39.4050 O   0  0  0  0  0  0  0  0  0  0  0  0
   19.4820  -24.8980   38.2170 C   0  0  0  0  0  0  0  0  0  0  0  0
   19.3000  -23.5360   37.9720 C   0  0  0  0  0  0  0  0  0  0  0  0
   18.7030  -23.1170   36.7790 C   0  0  0  0  0  0  0  0  0  0  0  0
   18.2910  -24.0580   35.8350 C   0  0  0  0  0  0  0  0  0  0  0  0
   18.4750  -25.4170   36.0820 C   0  0  0  0  0  0  0  0  0  0  0  0
   18.0490  -26.2840   35.1140 O   0  0  0  0  0  0  0  0  0  0  0  0
   19.0700  -25.8350   37.2750 C   0  0  0  0  0  0  0  0  0  0  0  0
   19.2820  -27.2520   37.5740 C   0  0  0  0  0  0  0  0  0  0  0  0
   18.9540  -28.1410   36.7900 O   0  0  0  0  0  0  0  0  0  0  0  0
   19.9150  -27.5920   38.8690 C   0  0  0  0  0  0  0  0  0  0  0  0
   20.1230  -28.9320   39.1370 O   0  0  0  0  0  0  0  0  0  0  0  0
   20.2990  -26.3360   42.1740 C   0  0  0  0  0  0  0  0  0  0  0  0
   20.8850  -26.5570   43.4230 C   0  0  0  0  0  0  0  0  0  0  0  0
   22.0950  -27.2610   43.5390 C   0  0  0  0  0  0  0  0  0  0  0  0
   22.7110  -27.4650   44.9020 C   0  0  0  0  0  0  0  0  0  0  0  0
   23.9880  -26.9950   44.9780 F   0  0  0  0  0  0  0  0  0  0  0  0
   22.7890  -28.7780   45.2690 F   0  0  0  0  0  0  0  0  0  0  0  0
   24.9627  -30.3791   42.4332 H   0  0  0  0  0  0  0  0  0  0  0  0
   23.0633  -30.4218   42.2901 H   0  0  0  0  0  0  0  0  0  0  0  0
   24.9138  -27.9643   42.5279 H   0  0  0  0  0  0  0  0  0  0  0  0
   22.5890  -27.9205   40.2147 H   0  0  0  0  0  0  0  0  0  0  0  0
   19.6255  -22.7938   38.7158 H   0  0  0  0  0  0  0  0  0  0  0  0
   18.5580  -22.0441   36.5846 H   0  0  0  0  0  0  0  0  0  0  0  0
   17.8214  -23.7275   34.8968 H   0  0  0  0  0  0  0  0  0  0  0  0
   17.6120  -27.0790   35.3550 H   0  0  0  0  0  0  0  0  0  0  0  0
   19.9500  -29.5750   38.4770 H   0  0  0  0  0  0  0  0  0  0  0  0
   19.3492  -25.7851   42.1078 H   0  0  0  0  0  0  0  0  0  0  0  0
   20.3917  -26.1742   44.3286 H   0  0  0  0  0  0  0  0  0  0  0  0
   22.0352  -26.9097   45.5690 H   0  0  0  0  0  0  0  0  0  0  0  0
  1  2  2  0
  2  3  1  0
  3  4  2  0
  4  5  1  0
  5  6  1  0
  6  7  1  0
  7  8  1  0
  8  9  2  0
  9 10  1  0
 10 11  2  0
 11 12  1  0
 12 13  1  0
 12 14  2  0
 14 15  1  0
 15 16  2  0
 15 17  1  0
 17 18  1  0
  5 19  2  0
 19 20  1  0
 20 21  2  0
 21 22  1  0
 22 23  1  0
 22 24  1  0
 21  3  1  0
 17  6  2  0
 14  8  1  0
  1 25  1  0
  1 26  1  0
  2 27  1  0
  4 28  1  0
  9 29  1  0
 10 30  1  0
 11 31  1  0
 13 32  1  0
 18 33  1  0
 19 34  1  0
 20 35  1  0
 22 36  1  0
M  END
>  <meeko>  (5) 
{"is_sidechain": [false], "free_energy": -7.428, "intermolecular_energy": -9.192, "internal_energy": -0.332}

$$$$
cand_021_out
     RDKit          3D

 36 38  0  0  0  0  0  0  0  0999 V2000
   19.3400  -23.5670   37.9380 C   0  0  0  0  0  0  0  0  0  0  0  0
   19.6070  -24.7430   37.3560 C   0  0  0  0  0  0  0  0  0  0  0  0
   19.6720  -26.0030   38.1080 C   0  0  0  0  0  0  0  0  0  0  0  0
   20.4270  -26.0540   39.2940 C   0  0  0  0  0  0  0  0  0  0  0  0
   20.5170  -27.2280   40.0550 C   0  0  0  0  0  0  0  0  0  0  0  0
   21.2930  -27.2800   41.3110 C   0  0  0  0  0  0  0  0  0  0  0  0
   22.2960  -28.2420   41.2880 O   0  0  0  0  0  0  0  0  0  0  0  0
   23.0930  -28.3960   42.3940 C   0  0  0  0  0  0  0  0  0  0  0  0
   24.0770  -29.3840   42.3340 C   0  0  0  0  0  0  0  0  0  0  0  0
   24.9230  -29.5910   43.4260 C   0  0  0  0  0  0  0  0  0  0  0  0
   24.7860  -28.8110   44.5750 C   0  0  0  0  0  0  0  0  0  0  0  0
   23.8030  -27.8260   44.6330 C   0  0  0  0  0  0  0  0  0  0  0  0
   23.7240  -27.0990   45.7880 O   0  0  0  0  0  0  0  0  0  0  0  0
   22.9560  -27.6190   43.5410 C   0  0  0  0  0  0  0  0  0  0  0  0
   21.9110  -26.5950   43.5590 C   0  0  0  0  0  0  0  0  0  0  0  0
   21.7320  -25.8630   44.5310 O   0  0  0  0  0  0  0  0  0  0  0  0
   21.0610  -26.4620   42.3540 C   0  0  0  0  0  0  0  0  0  0  0  0
   20.0860  -25.4820   42.3750 O   0  0  0  0  0  0  0  0  0  0  0  0
   19.8120  -28.3580   39.6240 C   0  0  0  0  0  0  0  0  0  0  0  0
   19.0530  -28.3190   38.4510 C   0  0  0  0  0  0  0  0  0  0  0  0
   18.9740  -27.1480   37.6800 C   0  0  0  0  0  0  0  0  0  0  0  0
   18.1620  -27.1450   36.4080 C   0  0  0  0  0  0  0  0  0  0  0  0
   16.8360  -27.3720   36.6290 F   0  0  0  0  0  0  0  0  0  0  0  0
   18.5470  -28.1070   35.5190 F   0  0  0  0  0  0  0  0  0  0  0  0
   19.3020  -22.6496   37.3323 H   0  0  0  0  0  0  0  0  0  0  0  0
   19.1586  -23.5183   39.0219 H   0  0  0  0  0  0  0  0  0  0  0  0
   19.7849  -24.7664   36.2707 H   0  0  0  0  0  0  0  0  0  0  0  0
   20.9588  -25.1523   39.6319 H   0  0  0  0  0  0  0  0  0  0  0  0
   24.1861  -29.9986   41.4283 H   0  0  0  0  0  0  0  0  0  0  0  0
   25.6983  -30.3700   43.3802 H   0  0  0  0  0  0  0  0  0  0  0  0
   25.4536  -28.9739   45.4339 H   0  0  0  0  0  0  0  0  0  0  0  0
   24.5010  -26.9130   46.2800 H   0  0  0  0  0  0  0  0  0  0  0  0
   19.1960  -25.7020   42.1800 H   0  0  0  0  0  0  0  0  0  0  0  0
   19.8558  -29.2853   40.2140 H   0  0  0  0  0  0  0  0  0  0  0  0
   18.5095  -29.2188   38.1270 H   0  0  0  0  0  0  0  0  0  0  0  0
   18.3378  -26.1387   36.0002 H   0  0  0  0  0  0  0  0  0  0  0  0
  1  2  2  0
  2  3  1  0
  3  4  2  0
  4  5  1  0
  5  6  1  0
  6  7  1  0
  7  8  1  0
  8  9  2  0
  9 10  1  0
 10 11  2  0
 11 12  1  0
 12 13  1  0
 12 14  2  0
 14 15  1  0
 15 16  2  0
 15 17  1  0
 17 18  1  0
  5 19  2  0
 19 20  1  0
 20 21  2  0
 21 22  1  0
 22 23  1  0
 22 24  1  0
 21  3  1  0
 17  6  2  0
 14  8  1  0
  1 25  1  0
  1 26  1  0
  2 27  1  0
  4 28  1  0
  9 29  1  0
 10 30  1  0
 11 31  1  0
 13 32  1  0
 18 33  1  0
 19 34  1  0
 20 35  1  0
 22 36  1  0
M  END
>  <meeko>  (6) 
{"is_sidechain": [false], "free_energy": -7.369, "intermolecular_energy": -8.968, "internal_energy": -0.483}

$$$$
cand_021_out
     RDKit          3D

 36 38  0  0  0  0  0  0  0  0999 V2000
   22.1780  -25.3380   45.6050 C   0  0  0  0  0  0  0  0  0  0  0  0
   22.7580  -26.5140   45.3360 C   0  0  0  0  0  0  0  0  0  0  0  0
   22.7380  -27.1200   43.9980 C   0  0  0  0  0  0  0  0  0  0  0  0
   21.7690  -26.6990   43.0700 C   0  0  0  0  0  0  0  0  0  0  0  0
   21.7100  -27.2370   41.7760 C   0  0  0  0  0  0  0  0  0  0  0  0
   20.7060  -26.7830   40.7930 C   0  0  0  0  0  0  0  0  0  0  0  0
   20.5940  -25.3990   40.7320 O   0  0  0  0  0  0  0  0  0  0  0  0
   19.6940  -24.8440   39.8590 C   0  0  0  0  0  0  0  0  0  0  0  0
   19.6030  -23.4520   39.8420 C   0  0  0  0  0  0  0  0  0  0  0  0
   18.7060  -22.8230   38.9740 C   0  0  0  0  0  0  0  0  0  0  0  0
   17.9040  -23.5860   38.1240 C   0  0  0  0  0  0  0  0  0  0  0  0
   17.9970  -24.9750   38.1430 C   0  0  0  0  0  0  0  0  0  0  0  0
   17.1820  -25.6600   37.2840 O   0  0  0  0  0  0  0  0  0  0  0  0
   18.8920  -25.6040   39.0120 C   0  0  0  0  0  0  0  0  0  0  0  0
   19.0220  -27.0610   39.0630 C   0  0  0  0  0  0  0  0  0  0  0  0
   18.3550  -27.8010   38.3410 O   0  0  0  0  0  0  0  0  0  0  0  0
   19.9940  -27.6290   40.0240 C   0  0  0  0  0  0  0  0  0  0  0  0
   20.1190  -29.0050   40.0560 O   0  0  0  0  0  0  0  0  0  0  0  0
   22.6620  -28.1950   41.4090 C   0  0  0  0  0  0  0  0  0  0  0  0
   23.6350  -28.6180   42.3190 C   0  0  0  0  0  0  0  0  0  0  0  0
   23.6850  -28.0900   43.6200 C   0  0  0  0  0  0  0  0  0  0  0  0
   24.7360  -28.5830   44.5850 C   0  0  0  0  0  0  0  0  0  0  0  0
   25.7110  -29.3130   43.9730 F   0  0  0  0  0  0  0  0  0  0  0  0
   24.2350  -29.3970   45.5600 F   0  0  0  0  0  0  0  0  0  0  0  0
   22.2196  -24.9244   46.6234 H   0  0  0  0  0  0  0  0  0  0  0  0
   21.6597  -24.7852   44.8076 H   0  0  0  0  0  0  0  0  0  0  0  0
   23.2703  -27.0482   46.1497 H   0  0  0  0  0  0  0  0  0  0  0  0
   21.0403  -25.9299   43.3658 H   0  0  0  0  0  0  0  0  0  0  0  0
   20.2362  -22.8504   40.5107 H   0  0  0  0  0  0  0  0  0  0  0  0
   18.6321  -21.7256   38.9608 H   0  0  0  0  0  0  0  0  0  0  0  0
   17.1993  -23.0906   37.4399 H   0  0  0  0  0  0  0  0  0  0  0  0
   17.4980  -26.4300   36.8500 H   0  0  0  0  0  0  0  0  0  0  0  0
   20.9660  -29.4010   39.9810 H   0  0  0  0  0  0  0  0  0  0  0  0
   22.6443  -28.6193   40.3943 H   0  0  0  0  0  0  0  0  0  0  0  0
   24.3719  -29.3749   42.0122 H   0  0  0  0  0  0  0  0  0  0  0  0
   25.1373  -27.6542   45.0166 H   0  0  0  0  0  0  0  0  0  0  0  0
  1  2  2  0
  2  3  1  0
  3  4  2  0
  4  5  1  0
  5  6  1  0
  6  7  1  0
  7  8  1  0
  8  9  2  0
  9 10  1  0
 10 11  2  0
 11 12  1  0
 12 13  1  0
 12 14  2  0
 14 15  1  0
 15 16  2  0
 15 17  1  0
 17 18  1  0
  5 19  2  0
 19 20  1  0
 20 21  2  0
 21 22  1  0
 22 23  1  0
 22 24  1  0
 21  3  1  0
 17  6  2  0
 14  8  1  0
  1 25  1  0
  1 26  1  0
  2 27  1  0
  4 28  1  0
  9 29  1  0
 10 30  1  0
 11 31  1  0
 13 32  1  0
 18 33  1  0
 19 34  1  0
 20 35  1  0
 22 36  1  0
M  END
>  <meeko>  (7) 
{"is_sidechain": [false], "free_energy": -7.366, "intermolecular_energy": -9.116, "internal_energy": -0.332}

$$$$
cand_021_out
     RDKit          3D

 36 38  0  0  0  0  0  0  0  0999 V2000
   20.4440  -31.4260   34.5600 C   0  0  0  0  0  0  0  0  0  0  0  0
   20.0390  -32.1910   35.5820 C   0  0  0  0  0  0  0  0  0  0  0  0
   19.6870  -31.6390   36.8960 C   0  0  0  0  0  0  0  0  0  0  0  0
   19.7360  -30.2460   37.0880 C   0  0  0  0  0  0  0  0  0  0  0  0
   19.4020  -29.6640   38.3200 C   0  0  0  0  0  0  0  0  0  0  0  0
   19.4340  -28.2010   38.5190 C   0  0  0  0  0  0  0  0  0  0  0  0
   18.6590  -27.5120   37.5940 O   0  0  0  0  0  0  0  0  0  0  0  0
   18.6010  -26.1430   37.6660 C   0  0  0  0  0  0  0  0  0  0  0  0
   17.8250  -25.4900   36.7080 C   0  0  0  0  0  0  0  0  0  0  0  0
   17.7220  -24.0960   36.7270 C   0  0  0  0  0  0  0  0  0  0  0  0
   18.3950  -23.3580   37.7020 C   0  0  0  0  0  0  0  0  0  0  0  0
   19.1690  -24.0130   38.6570 C   0  0  0  0  0  0  0  0  0  0  0  0
   19.8010  -23.2280   39.5830 O   0  0  0  0  0  0  0  0  0  0  0  0
   19.2720  -25.4060   38.6380 C   0  0  0  0  0  0  0  0  0  0  0  0
   20.0750  -26.1330   39.6220 C   0  0  0  0  0  0  0  0  0  0  0  0
   20.6910  -25.5550   40.5160 O   0  0  0  0  0  0  0  0  0  0  0  0
   20.1250  -27.6080   39.5100 C   0  0  0  0  0  0  0  0  0  0  0  0
   20.8740  -28.2870   40.4530 O   0  0  0  0  0  0  0  0  0  0  0  0
   18.9890  -30.5020   39.3620 C   0  0  0  0  0  0  0  0  0  0  0  0
   18.9300  -31.8860   39.1830 C   0  0  0  0  0  0  0  0  0  0  0  0
   19.2780  -32.4710   37.9540 C   0  0  0  0  0  0  0  0  0  0  0  0
   19.2230  -33.9710   37.8000 C   0  0  0  0  0  0  0  0  0  0  0  0
   18.1060  -34.3930   37.1420 F   0  0  0  0  0  0  0  0  0  0  0  0
   19.2100  -34.6370   38.9930 F   0  0  0  0  0  0  0  0  0  0  0  0
   20.6967  -31.8874   33.5940 H   0  0  0  0  0  0  0  0  0  0  0  0
   20.5240  -30.3362   34.6866 H   0  0  0  0  0  0  0  0  0  0  0  0
   19.9671  -33.2781   35.4305 H   0  0  0  0  0  0  0  0  0  0  0  0
   20.0431  -29.5987   36.2533 H   0  0  0  0  0  0  0  0  0  0  0  0
   17.2951  -26.0711   35.9389 H   0  0  0  0  0  0  0  0  0  0  0  0
   17.1098  -23.5801   35.9726 H   0  0  0  0  0  0  0  0  0  0  0  0
   18.3143  -22.2611   37.7162 H   0  0  0  0  0  0  0  0  0  0  0  0
   20.4770  -23.5910   40.1220 H   0  0  0  0  0  0  0  0  0  0  0  0
   20.6580  -29.1710   40.6770 H   0  0  0  0  0  0  0  0  0  0  0  0
   18.7079  -30.0662   40.3321 H   0  0  0  0  0  0  0  0  0  0  0  0
   18.6064  -32.5271   40.0162 H   0  0  0  0  0  0  0  0  0  0  0  0
   20.1370  -34.1984   37.2318 H   0  0  0  0  0  0  0  0  0  0  0  0
  1  2  2  0
  2  3  1  0
  3  4  2  0
  4  5  1  0
  5  6  1  0
  6  7  1  0
  7  8  1  0
  8  9  2  0
  9 10  1  0
 10 11  2  0
 11 12  1  0
 12 13  1  0
 12 14  2  0
 14 15  1  0
 15 16  2  0
 15 17  1  0
 17 18  1  0
  5 19  2  0
 19 20  1  0
 20 21  2  0
 21 22  1  0
 22 23  1  0
 22 24  1  0
 21  3  1  0
 17  6  2  0
 14  8  1  0
  1 25  1  0
  1 26  1  0
  2 27  1  0
  4 28  1  0
  9 29  1  0
 10 30  1  0
 11 31  1  0
 13 32  1  0
 18 33  1  0
 19 34  1  0
 20 35  1  0
 22 36  1  0
M  END
>  <meeko>  (8) 
{"is_sidechain": [false], "free_energy": -7.231, "intermolecular_energy": -8.838, "internal_energy": -0.443}

$$$$
cand_021_out
     RDKit          3D

 36 38  0  0  0  0  0  0  0  0999 V2000
   21.8990  -27.6250   42.0020 C   0  0  0  0  0  0  0  0  0  0  0  0
   20.6070  -27.5220   41.6640 C   0  0  0  0  0  0  0  0  0  0  0  0
   20.1430  -27.5980   40.2740 C   0  0  0  0  0  0  0  0  0  0  0  0
   20.0780  -28.8520   39.6410 C   0  0  0  0  0  0  0  0  0  0  0  0
   19.6330  -28.9840   38.3170 C   0  0  0  0  0  0  0  0  0  0  0  0
   19.5460  -30.3020   37.6570 C   0  0  0  0  0  0  0  0  0  0  0  0
   20.0250  -30.2870   36.3520 O   0  0  0  0  0  0  0  0  0  0  0  0
   20.0010  -31.4490   35.6230 C   0  0  0  0  0  0  0  0  0  0  0  0
   20.4770  -31.3840   34.3130 C   0  0  0  0  0  0  0  0  0  0  0  0
   20.4810  -32.5330   33.5170 C   0  0  0  0  0  0  0  0  0  0  0  0
   20.0110  -33.7420   34.0300 C   0  0  0  0  0  0  0  0  0  0  0  0
   19.5360  -33.8030   35.3390 C   0  0  0  0  0  0  0  0  0  0  0  0
   19.0910  -35.0200   35.7780 O   0  0  0  0  0  0  0  0  0  0  0  0
   19.5310  -32.6550   36.1340 C   0  0  0  0  0  0  0  0  0  0  0  0
   19.0420  -32.6750   37.5130 C   0  0  0  0  0  0  0  0  0  0  0  0
   18.6190  -33.7030   38.0400 O   0  0  0  0  0  0  0  0  0  0  0  0
   19.0720  -31.4030   38.2700 C   0  0  0  0  0  0  0  0  0  0  0  0
   18.6200  -31.4350   39.5760 O   0  0  0  0  0  0  0  0  0  0  0  0
   19.2250  -27.8330   37.6340 C   0  0  0  0  0  0  0  0  0  0  0  0
   19.2780  -26.5810   38.2520 C   0  0  0  0  0  0  0  0  0  0  0  0
   19.7370  -26.4470   39.5730 C   0  0  0  0  0  0  0  0  0  0  0  0
   19.8000  -25.0770   40.2050 C   0  0  0  0  0  0  0  0  0  0  0  0
   18.7630  -24.8410   41.0560 F   0  0  0  0  0  0  0  0  0  0  0  0
   19.7580  -24.0600   39.2950 F   0  0  0  0  0  0  0  0  0  0  0  0
   22.1978  -27.5617   43.0587 H   0  0  0  0  0  0  0  0  0  0  0  0
   22.6612  -27.7729   41.2228 H   0  0  0  0  0  0  0  0  0  0  0  0
   19.8634  -27.3744   42.4610 H   0  0  0  0  0  0  0  0  0  0  0  0
   20.3833  -29.7507   40.1970 H   0  0  0  0  0  0  0  0  0  0  0  0
   20.8481  -30.4311   33.9078 H   0  0  0  0  0  0  0  0  0  0  0  0
   20.8556  -32.4837   32.4839 H   0  0  0  0  0  0  0  0  0  0  0  0
   20.0152  -34.6456   33.4027 H   0  0  0  0  0  0  0  0  0  0  0  0
   19.6990  -35.7210   35.9140 H   0  0  0  0  0  0  0  0  0  0  0  0
   18.2620  -30.6620   39.9680 H   0  0  0  0  0  0  0  0  0  0  0  0
   18.8588  -27.9146   36.6000 H   0  0  0  0  0  0  0  0  0  0  0  0
   18.9559  -25.6879   37.6965 H   0  0  0  0  0  0  0  0  0  0  0  0
   20.7630  -25.0896   40.7365 H   0  0  0  0  0  0  0  0  0  0  0  0
  1  2  2  0
  2  3  1  0
  3  4  2  0
  4  5  1  0
  5  6  1  0
  6  7  1  0
  7  8  1  0
  8  9  2  0
  9 10  1  0
 10 11  2  0
 11 12  1  0
 12 13  1  0
 12 14  2  0
 14 15  1  0
 15 16  2  0
 15 17  1  0
 17 18  1  0
  5 19  2  0
 19 20  1  0
 20 21  2  0
 21 22  1  0
 22 23  1  0
 22 24  1  0
 21  3  1  0
 17  6  2  0
 14  8  1  0
  1 25  1  0
  1 26  1  0
  2 27  1  0
  4 28  1  0
  9 29  1  0
 10 30  1  0
 11 31  1  0
 13 32  1  0
 18 33  1  0
 19 34  1  0
 20 35  1  0
 22 36  1  0
M  END
>  <meeko>  (9) 
{"is_sidechain": [false], "free_energy": -7.177, "intermolecular_energy": -8.892, "internal_energy": -0.323}

$$$$
