cand_053_out
     RDKit          3D

 44 46  0  0  0  0  0  0  0  0999 V2000
   19.0750  -22.9340   39.4670 C   0  0  0  0  0  0  0  0  0  0  0  0
   19.8360  -23.9340   40.3230 C   0  0  0  0  0  0  0  0  0  0  0  0
   18.8900  -24.9460   40.9710 C   0  0  0  0  0  0  0  0  0  0  0  0
   19.0510  -26.3270   40.3710 C   0  0  0  0  0  0  0  0  0  0  0  0
   18.2680  -26.6570   39.2510 C   0  0  0  0  0  0  0  0  0  0  0  0
   18.3750  -27.9070   38.6380 C   0  0  0  0  0  0  0  0  0  0  0  0
   19.2730  -28.8630   39.1210 C   0  0  0  0  0  0  0  0  0  0  0  0
   19.3490  -30.1920   38.4780 C   0  0  0  0  0  0  0  0  0  0  0  0
   18.8990  -31.2170   39.3030 O   0  0  0  0  0  0  0  0  0  0  0  0
   18.9150  -32.5050   38.8310 C   0  0  0  0  0  0  0  0  0  0  0  0
   18.4690  -33.5030   39.6980 C   0  0  0  0  0  0  0  0  0  0  0  0
   18.4570  -34.8360   39.2800 C   0  0  0  0  0  0  0  0  0  0  0  0
   18.8920  -35.1690   37.9950 C   0  0  0  0  0  0  0  0  0  0  0  0
   19.3360  -34.1710   37.1320 C   0  0  0  0  0  0  0  0  0  0  0  0
   19.7470  -34.5670   35.8890 O   0  0  0  0  0  0  0  0  0  0  0  0
   19.3480  -32.8380   37.5520 C   0  0  0  0  0  0  0  0  0  0  0  0
   19.8070  -31.7590   36.6770 C   0  0  0  0  0  0  0  0  0  0  0  0
   20.1970  -31.9720   35.5300 O   0  0  0  0  0  0  0  0  0  0  0  0
   19.7880  -30.3810   37.2200 C   0  0  0  0  0  0  0  0  0  0  0  0
   20.2120  -29.3670   36.3790 O   0  0  0  0  0  0  0  0  0  0  0  0
   20.0510  -28.5380   40.2390 C   0  0  0  0  0  0  0  0  0  0  0  0
   19.9650  -27.2770   40.8670 C   0  0  0  0  0  0  0  0  0  0  0  0
   20.8440  -27.0250   42.0710 C   0  0  0  0  0  0  0  0  0  0  0  0
   22.2310  -27.6250   41.8980 C   0  0  0  0  0  0  0  0  0  0  0  0
   18.5379  -22.2282   40.1177 H   0  0  0  0  0  0  0  0  0  0  0  0
   19.7830  -22.3813   38.8320 H   0  0  0  0  0  0  0  0  0  0  0  0
   18.3535  -23.4691   38.8320 H   0  0  0  0  0  0  0  0  0  0  0  0
   20.5567  -24.4721   39.6897 H   0  0  0  0  0  0  0  0  0  0  0  0
   20.3542  -23.3831   41.1217 H   0  0  0  0  0  0  0  0  0  0  0  0
   19.1069  -24.9978   42.0482 H   0  0  0  0  0  0  0  0  0  0  0  0
   17.8570  -24.6129   40.7925 H   0  0  0  0  0  0  0  0  0  0  0  0
   17.5587  -25.9176   38.8506 H   0  0  0  0  0  0  0  0  0  0  0  0
   17.7464  -28.1417   37.7664 H   0  0  0  0  0  0  0  0  0  0  0  0
   18.1270  -33.2404   40.7100 H   0  0  0  0  0  0  0  0  0  0  0  0
   18.1050  -35.6234   39.9628 H   0  0  0  0  0  0  0  0  0  0  0  0
   18.8837  -36.2184   37.6655 H   0  0  0  0  0  0  0  0  0  0  0  0
   19.1160  -34.8440   35.2530 H   0  0  0  0  0  0  0  0  0  0  0  0
   19.9600  -28.4820   36.5500 H   0  0  0  0  0  0  0  0  0  0  0  0
   20.7496  -29.2874   40.6395 H   0  0  0  0  0  0  0  0  0  0  0  0
   20.9423  -25.9393   42.2182 H   0  0  0  0  0  0  0  0  0  0  0  0
   20.3727  -27.5030   42.9424 H   0  0  0  0  0  0  0  0  0  0  0  0
   22.6736  -27.8165   42.8867 H   0  0  0  0  0  0  0  0  0  0  0  0
   22.1546  -28.5705   41.3411 H   0  0  0  0  0  0  0  0  0  0  0  0
   22.8678  -26.9219   41.3411 H   0  0  0  0  0  0  0  0  0  0  0  0
  1  2  1  0
  2  3  1  0
  3  4  1  0
  4  5  2  0
  5  6  1  0
  6  7  2  0
  7  8  1  0
  8  9  1  0
  9 10  1  0
 10 11  2  0
 11 12  1  0
 12 13  2  0
 13 14  1  0
 14 15  1  0
 14 16  2  0
 16 17  1  0
 17 18  2  0
 17 19  1  0
 19 20  1  0
  7 21  1  0
 21 22  2  0
 22 23  1  0
 23 24  1  0
 22  4  1  0
 19  8  2  0
 16 10  1  0
  1 25  1  0
  1 26  1  0
  1 27  1  0
  2 28  1  0
  2 29  1  0
  3 30  1  0
  3 31  1  0
  5 32  1  0
  6 33  1  0
 11 34  1  0
 12 35  1  0
 13 36  1  0
 15 37  1  0
 20 38  1  0
 21 39  1  0
 23 40  1  0
 23 41  1  0
 24 42  1  0
 24 43  1  0
 24 44  1  0
M  END
>  <meeko>  (1) 
{"is_sidechain": [false], "free_energy": -7.873, "intermolecular_energy": -10.175, "internal_energy": -0.685}

$$$$
cand_053_out
     RDKit          3D

 44 46  0  0  0  0  0  0  0  0999 V2000
   20.5650  -33.8970   33.0140 C   0  0  0  0  0  0  0  0  0  0  0  0
   20.1250  -32.7730   33.9380 C   0  0  0  0  0  0  0  0  0  0  0  0
   19.8660  -33.2870   35.3560 C   0  0  0  0  0  0  0  0  0  0  0  0
   19.7010  -32.1510   36.3420 C   0  0  0  0  0  0  0  0  0  0  0  0
   19.9210  -30.8400   35.8840 C   0  0  0  0  0  0  0  0  0  0  0  0
   19.7740  -29.7430   36.7350 C   0  0  0  0  0  0  0  0  0  0  0  0
   19.3930  -29.9210   38.0690 C   0  0  0  0  0  0  0  0  0  0  0  0
   19.2720  -28.7500   38.9630 C   0  0  0  0  0  0  0  0  0  0  0  0
   20.2160  -28.7520   39.9840 O   0  0  0  0  0  0  0  0  0  0  0  0
   20.2160  -27.7210   40.8890 C   0  0  0  0  0  0  0  0  0  0  0  0
   21.1700  -27.7710   41.9060 C   0  0  0  0  0  0  0  0  0  0  0  0
   21.2270  -26.7510   42.8590 C   0  0  0  0  0  0  0  0  0  0  0  0
   20.3310  -25.6820   42.7940 C   0  0  0  0  0  0  0  0  0  0  0  0
   19.3800  -25.6350   41.7780 C   0  0  0  0  0  0  0  0  0  0  0  0
   18.5340  -24.5600   41.7730 O   0  0  0  0  0  0  0  0  0  0  0  0
   19.3230  -26.6560   40.8250 C   0  0  0  0  0  0  0  0  0  0  0  0
   18.3400  -26.6450   39.7410 C   0  0  0  0  0  0  0  0  0  0  0  0
   17.5240  -25.7340   39.6130 O   0  0  0  0  0  0  0  0  0  0  0  0
   18.3580  -27.7780   38.7880 C   0  0  0  0  0  0  0  0  0  0  0  0
   17.4330  -27.7500   37.7600 O   0  0  0  0  0  0  0  0  0  0  0  0
   19.1770  -31.2270   38.5280 C   0  0  0  0  0  0  0  0  0  0  0  0
   19.3120  -32.3480   37.6820 C   0  0  0  0  0  0  0  0  0  0  0  0
   19.0610  -33.7160   38.2740 C   0  0  0  0  0  0  0  0  0  0  0  0
   18.5290  -33.6310   39.6970 C   0  0  0  0  0  0  0  0  0  0  0  0
   20.9009  -34.7551   33.6146 H   0  0  0  0  0  0  0  0  0  0  0  0
   19.7199  -34.2020   32.3794 H   0  0  0  0  0  0  0  0  0  0  0  0
   21.3926  -33.5472   32.3794 H   0  0  0  0  0  0  0  0  0  0  0  0
   20.9148  -32.0082   33.9729 H   0  0  0  0  0  0  0  0  0  0  0  0
   19.1887  -32.3486   33.5465 H   0  0  0  0  0  0  0  0  0  0  0  0
   18.9479  -33.8929   35.3534 H   0  0  0  0  0  0  0  0  0  0  0  0
   20.7337  -33.8873   35.6668 H   0  0  0  0  0  0  0  0  0  0  0  0
   20.2141  -30.6757   34.8366 H   0  0  0  0  0  0  0  0  0  0  0  0
   19.9597  -28.7285   36.3525 H   0  0  0  0  0  0  0  0  0  0  0  0
   21.8764  -28.6126   41.9573 H   0  0  0  0  0  0  0  0  0  0  0  0
   21.9785  -26.7901   43.6614 H   0  0  0  0  0  0  0  0  0  0  0  0
   20.3763  -24.8786   43.5440 H   0  0  0  0  0  0  0  0  0  0  0  0
   17.6110  -24.6910   41.6760 H   0  0  0  0  0  0  0  0  0  0  0  0
   17.3760  -28.4690   37.1630 H   0  0  0  0  0  0  0  0  0  0  0  0
   18.8937  -31.3830   39.5794 H   0  0  0  0  0  0  0  0  0  0  0  0
   18.3244  -34.2435   37.6501 H   0  0  0  0  0  0  0  0  0  0  0  0
   20.0188  -34.2563   38.3005 H   0  0  0  0  0  0  0  0  0  0  0  0
   19.3586  -33.7635   40.4071 H   0  0  0  0  0  0  0  0  0  0  0  0
   18.0636  -32.6471   39.8563 H   0  0  0  0  0  0  0  0  0  0  0  0
   17.7802  -34.4209   39.8563 H   0  0  0  0  0  0  0  0  0  0  0  0
  1  2  1  0
  2  3  1  0
  3  4  1  0
  4  5  2  0
  5  6  1  0
  6  7  2  0
  7  8  1  0
  8  9  1  0
  9 10  1  0
 10 11  2  0
 11 12  1  0
 12 13  2  0
 13 14  1  0
 14 15  1  0
 14 16  2  0
 16 17  1  0
 17 18  2  0
 17 19  1  0
 19 20  1  0
  7 21  1  0
 21 22  2  0
 22 23  1  0
 23 24  1  0
 22  4  1  0
 19  8  2  0
 16 10  1  0
  1 25  1  0
  1 26  1  0
  1 27  1  0
  2 28  1  0
  2 29  1  0
  3 30  1  0
  3 31  1  0
  5 32  1  0
  6 33  1  0
 11 34  1  0
 12 35  1  0
 13 36  1  0
 15 37  1  0
 20 38  1  0
 21 39  1  0
 23 40  1  0
 23 41  1  0
 24 42  1  0
 24 43  1  0
 24 44  1  0
M  END
>  <meeko>  (2) 
{"is_sidechain": [false], "free_energy": -7.782, "intermolecular_energy": -10.161, "internal_energy": -0.581}

$$$$
cand_053_out
     RDKit          3D

 44 46  0  0  0  0  0  0  0  0999 V2000
   19.8970  -35.4700   38.1400 C   0  0  0  0  0  0  0  0  0  0  0  0
   18.8750  -35.0010   37.1160 C   0  0  0  0  0  0  0  0  0  0  0  0
   19.4320  -33.8690   36.2510 C   0  0  0  0  0  0  0  0  0  0  0  0
   19.3990  -32.5410   36.9760 C   0  0  0  0  0  0  0  0  0  0  0  0
   18.8340  -32.5050   38.2630 C   0  0  0  0  0  0  0  0  0  0  0  0
   18.7830  -31.3170   38.9960 C   0  0  0  0  0  0  0  0  0  0  0  0
   19.3030  -30.1310   38.4690 C   0  0  0  0  0  0  0  0  0  0  0  0
   19.2120  -28.8780   39.2470 C   0  0  0  0  0  0  0  0  0  0  0  0
   20.1350  -28.8180   40.2860 O   0  0  0  0  0  0  0  0  0  0  0  0
   20.1590  -27.7080   41.0910 C   0  0  0  0  0  0  0  0  0  0  0  0
   21.0900  -27.6980   42.1300 C   0  0  0  0  0  0  0  0  0  0  0  0
   21.1690  -26.5960   42.9850 C   0  0  0  0  0  0  0  0  0  0  0  0
   20.3170  -25.5050   42.7990 C   0  0  0  0  0  0  0  0  0  0  0  0
   19.3890  -25.5180   41.7620 C   0  0  0  0  0  0  0  0  0  0  0  0
   18.5870  -24.4170   41.6370 O   0  0  0  0  0  0  0  0  0  0  0  0
   19.3100  -26.6210   40.9070 C   0  0  0  0  0  0  0  0  0  0  0  0
   18.3500  -26.6750   39.8050 C   0  0  0  0  0  0  0  0  0  0  0  0
   17.5730  -25.7500   39.5730 O   0  0  0  0  0  0  0  0  0  0  0  0
   18.3410  -27.8920   38.9620 C   0  0  0  0  0  0  0  0  0  0  0  0
   17.4380  -27.9260   37.9140 O   0  0  0  0  0  0  0  0  0  0  0  0
   19.8640  -30.1650   37.1860 C   0  0  0  0  0  0  0  0  0  0  0  0
   19.9330  -31.3560   36.4330 C   0  0  0  0  0  0  0  0  0  0  0  0
   20.5530  -31.2880   35.0560 C   0  0  0  0  0  0  0  0  0  0  0  0
   20.2130  -29.9880   34.3420 C   0  0  0  0  0  0  0  0  0  0  0  0
   19.5088  -35.2918   39.1537 H   0  0  0  0  0  0  0  0  0  0  0  0
   20.0861  -36.5450   38.0035 H   0  0  0  0  0  0  0  0  0  0  0  0
   20.8353  -34.9124   38.0035 H   0  0  0  0  0  0  0  0  0  0  0  0
   18.6038  -35.8470   36.4674 H   0  0  0  0  0  0  0  0  0  0  0  0
   17.9929  -34.6240   37.6543 H   0  0  0  0  0  0  0  0  0  0  0  0
   20.4731  -34.1036   35.9843 H   0  0  0  0  0  0  0  0  0  0  0  0
   18.8038  -33.7841   35.3520 H   0  0  0  0  0  0  0  0  0  0  0  0
   18.4252  -33.4280   38.7001 H   0  0  0  0  0  0  0  0  0  0  0  0
   18.3291  -31.3146   39.9980 H   0  0  0  0  0  0  0  0  0  0  0  0
   21.7613  -28.5571   42.2759 H   0  0  0  0  0  0  0  0  0  0  0  0
   21.9023  -26.5875   43.8048 H   0  0  0  0  0  0  0  0  0  0  0  0
   20.3794  -24.6366   43.4713 H   0  0  0  0  0  0  0  0  0  0  0  0
   18.1760  -24.0490   42.3950 H   0  0  0  0  0  0  0  0  0  0  0  0
   16.5600  -27.6270   38.0440 H   0  0  0  0  0  0  0  0  0  0  0  0
   20.2625  -29.2357   36.7528 H   0  0  0  0  0  0  0  0  0  0  0  0
   21.6460  -31.3639   35.1544 H   0  0  0  0  0  0  0  0  0  0  0  0
   20.1488  -32.1193   34.4597 H   0  0  0  0  0  0  0  0  0  0  0  0
   20.0079  -29.2039   35.0858 H   0  0  0  0  0  0  0  0  0  0  0  0
   21.0616  -29.6829   33.7120 H   0  0  0  0  0  0  0  0  0  0  0  0
   19.3237  -30.1374   33.7120 H   0  0  0  0  0  0  0  0  0  0  0  0
  1  2  1  0
  2  3  1  0
  3  4  1  0
  4  5  2  0
  5  6  1  0
  6  7  2  0
  7  8  1  0
  8  9  1  0
  9 10  1  0
 10 11  2  0
 11 12  1  0
 12 13  2  0
 13 14  1  0
 14 15  1  0
 14 16  2  0
 16 17  1  0
 17 18  2  0
 17 19  1  0
 19 20  1  0
  7 21  1  0
 21 22  2  0
 22 23  1  0
 23 24  1  0
 22  4  1  0
 19  8  2  0
 16 10  1  0
  1 25  1  0
  1 26  1  0
  1 27  1  0
  2 28  1  0
  2 29  1  0
  3 30  1  0
  3 31  1  0
  5 32  1  0
  6 33  1  0
 11 34  1  0
 12 35  1  0
 13 36  1  0
 15 37  1  0
 20 38  1  0
 21 39  1  0
 23 40  1  0
 23 41  1  0
 24 42  1  0
 24 43  1  0
 24 44  1  0
M  END
>  <meeko>  (3) 
{"is_sidechain": [false], "free_energy": -7.377, "intermolecular_energy": -9.847, "internal_energy": -0.371}

$$$$
cand_053_out
     RDKit          3D

 44 46  0  0  0  0  0  0  0  0999 V2000
   19.0520  -22.4590   42.3880 C   0  0  0  0  0  0  0  0  0  0  0  0
   19.6080  -23.6100   41.5640 C   0  0  0  0  0  0  0  0  0  0  0  0
   19.6480  -24.9070   42.3750 C   0  0  0  0  0  0  0  0  0  0  0  0
   19.6840  -26.1270   41.4800 C   0  0  0  0  0  0  0  0  0  0  0  0
   18.7590  -26.1990   40.4240 C   0  0  0  0  0  0  0  0  0  0  0  0
   18.7440  -27.2890   39.5510 C   0  0  0  0  0  0  0  0  0  0  0  0
   19.6590  -28.3350   39.6990 C   0  0  0  0  0  0  0  0  0  0  0  0
   19.6070  -29.4950   38.7840 C   0  0  0  0  0  0  0  0  0  0  0  0
   19.3510  -30.6920   39.4430 O   0  0  0  0  0  0  0  0  0  0  0  0
   19.2770  -31.8500   38.7120 C   0  0  0  0  0  0  0  0  0  0  0  0
   19.0340  -33.0290   39.4170 C   0  0  0  0  0  0  0  0  0  0  0  0
   18.9450  -34.2440   38.7320 C   0  0  0  0  0  0  0  0  0  0  0  0
   19.0980  -34.2780   37.3440 C   0  0  0  0  0  0  0  0  0  0  0  0
   19.3410  -33.0990   36.6450 C   0  0  0  0  0  0  0  0  0  0  0  0
   19.4800  -33.2040   35.2880 O   0  0  0  0  0  0  0  0  0  0  0  0
   19.4300  -31.8840   37.3300 C   0  0  0  0  0  0  0  0  0  0  0  0
   19.6840  -30.6230   36.6330 C   0  0  0  0  0  0  0  0  0  0  0  0
   19.8220  -30.5710   35.4120 O   0  0  0  0  0  0  0  0  0  0  0  0
   19.7690  -29.3920   37.4520 C   0  0  0  0  0  0  0  0  0  0  0  0
   19.9960  -28.2040   36.7800 O   0  0  0  0  0  0  0  0  0  0  0  0
   20.5800  -28.2660   40.7530 C   0  0  0  0  0  0  0  0  0  0  0  0
   20.6170  -27.1700   41.6410 C   0  0  0  0  0  0  0  0  0  0  0  0
   21.6460  -27.1910   42.7480 C   0  0  0  0  0  0  0  0  0  0  0  0
   22.9220  -27.9040   42.3260 C   0  0  0  0  0  0  0  0  0  0  0  0
   19.1624  -22.6875   43.4583 H   0  0  0  0  0  0  0  0  0  0  0  0
   19.6045  -21.5378   42.1508 H   0  0  0  0  0  0  0  0  0  0  0  0
   17.9870  -22.3192   42.1508 H   0  0  0  0  0  0  0  0  0  0  0  0
   18.9695  -23.7594   40.6808 H   0  0  0  0  0  0  0  0  0  0  0  0
   20.6355  -23.3569   41.2636 H   0  0  0  0  0  0  0  0  0  0  0  0
   20.5471  -24.9034   43.0088 H   0  0  0  0  0  0  0  0  0  0  0  0
   18.7347  -24.9572   42.9860 H   0  0  0  0  0  0  0  0  0  0  0  0
   18.0348  -25.3831   40.2829 H   0  0  0  0  0  0  0  0  0  0  0  0
   18.0039  -27.3246   38.7380 H   0  0  0  0  0  0  0  0  0  0  0  0
   18.9127  -33.0024   40.5100 H   0  0  0  0  0  0  0  0  0  0  0  0
   18.7542  -35.1746   39.2866 H   0  0  0  0  0  0  0  0  0  0  0  0
   19.0266  -35.2340   36.8047 H   0  0  0  0  0  0  0  0  0  0  0  0
   20.2200  -32.8180   34.8610 H   0  0  0  0  0  0  0  0  0  0  0  0
   19.4950  -27.4430   36.9950 H   0  0  0  0  0  0  0  0  0  0  0  0
   21.2950  -29.0903   40.8921 H   0  0  0  0  0  0  0  0  0  0  0  0
   21.8925  -26.1550   43.0235 H   0  0  0  0  0  0  0  0  0  0  0  0
   21.2170  -27.7379   43.6006 H   0  0  0  0  0  0  0  0  0  0  0  0
   23.4806  -28.2162   43.2207 H   0  0  0  0  0  0  0  0  0  0  0  0
   22.6659  -28.7897   41.7261 H   0  0  0  0  0  0  0  0  0  0  0  0
   23.5421  -27.2216   41.7261 H   0  0  0  0  0  0  0  0  0  0  0  0
  1  2  1  0
  2  3  1  0
  3  4  1  0
  4  5  2  0
  5  6  1  0
  6  7  2  0
  7  8  1  0
  8  9  1  0
  9 10  1  0
 10 11  2  0
 11 12  1  0
 12 13  2  0
 13 14  1  0
 14 15  1  0
 14 16  2  0
 16 17  1  0
 17 18  2  0
 17 19  1  0
 19 20  1  0
  7 21  1  0
 21 22  2  0
 22 23  1  0
 23 24  1  0
 22  4  1  0
 19  8  2  0
 16 10  1  0
  1 25  1  0
  1 26  1  0
  1 27  1  0
  2 28  1  0
  2 29  1  0
  3 30  1  0
  3 31  1  0
  5 32  1  0
  6 33  1  0
 11 34  1  0
 12 35  1  0
 13 36  1  0
 15 37  1  0
 20 38  1  0
 21 39  1  0
 23 40  1  0
 23 41  1  0
 24 42  1  0
 24 43  1  0
 24 44  1  0
M  END
>  <meeko>  (4) 
{"is_sidechain": [false], "free_energy": -7.175, "intermolecular_energy": -9.406, "internal_energy": -0.551}

$$$$
cand_053_out
     RDKit          3D

 44 46  0  0  0  0  0  0  0  0999 V2000
   19.3210  -23.7640   43.1000 C   0  0  0  0  0  0  0  0  0  0  0  0
   19.6660  -25.0470   42.3600 C   0  0  0  0  0  0  0  0  0  0  0  0
   19.4520  -24.8940   40.8530 C   0  0  0  0  0  0  0  0  0  0  0  0
   19.3890  -26.2370   40.1570 C   0  0  0  0  0  0  0  0  0  0  0  0
   20.0730  -27.3170   40.7420 C   0  0  0  0  0  0  0  0  0  0  0  0
   20.0470  -28.5870   40.1620 C   0  0  0  0  0  0  0  0  0  0  0  0
   19.3290  -28.8200   38.9850 C   0  0  0  0  0  0  0  0  0  0  0  0
   19.3390  -30.1640   38.3700 C   0  0  0  0  0  0  0  0  0  0  0  0
   18.9190  -31.1610   39.2440 O   0  0  0  0  0  0  0  0  0  0  0  0
   18.8810  -32.4590   38.8010 C   0  0  0  0  0  0  0  0  0  0  0  0
   18.4680  -33.4280   39.7170 C   0  0  0  0  0  0  0  0  0  0  0  0
   18.4040  -34.7690   39.3300 C   0  0  0  0  0  0  0  0  0  0  0  0
   18.7520  -35.1390   38.0290 C   0  0  0  0  0  0  0  0  0  0  0  0
   19.1640  -34.1690   37.1180 C   0  0  0  0  0  0  0  0  0  0  0  0
   19.4890  -34.6010   35.8610 O   0  0  0  0  0  0  0  0  0  0  0  0
   19.2280  -32.8280   37.5060 C   0  0  0  0  0  0  0  0  0  0  0  0
   19.6540  -31.7780   36.5800 C   0  0  0  0  0  0  0  0  0  0  0  0
   19.9680  -32.0240   35.4170 O   0  0  0  0  0  0  0  0  0  0  0  0
   19.6960  -30.3890   37.0920 C   0  0  0  0  0  0  0  0  0  0  0  0
   20.0870  -29.4030   36.2040 O   0  0  0  0  0  0  0  0  0  0  0  0
   18.6490  -27.7430   38.3990 C   0  0  0  0  0  0  0  0  0  0  0  0
   18.6570  -26.4550   38.9740 C   0  0  0  0  0  0  0  0  0  0  0  0
   17.8960  -25.3590   38.2620 C   0  0  0  0  0  0  0  0  0  0  0  0
   18.7400  -24.6820   37.1920 C   0  0  0  0  0  0  0  0  0  0  0  0
   19.3689  -23.9420   44.1844 H   0  0  0  0  0  0  0  0  0  0  0  0
   20.0396  -22.9778   42.8254 H   0  0  0  0  0  0  0  0  0  0  0  0
   18.3050  -23.4442   42.8254 H   0  0  0  0  0  0  0  0  0  0  0  0
   20.7205  -25.2970   42.5486 H   0  0  0  0  0  0  0  0  0  0  0  0
   19.0051  -25.8469   42.7251 H   0  0  0  0  0  0  0  0  0  0  0  0
   18.5071  -24.3581   40.6797 H   0  0  0  0  0  0  0  0  0  0  0  0
   20.3043  -24.3339   40.4408 H   0  0  0  0  0  0  0  0  0  0  0  0
   20.6382  -27.1589   41.6723 H   0  0  0  0  0  0  0  0  0  0  0  0
   20.5973  -29.4130   40.6362 H   0  0  0  0  0  0  0  0  0  0  0  0
   18.1935  -33.1364   40.7415 H   0  0  0  0  0  0  0  0  0  0  0  0
   18.0792  -35.5340   40.0506 H   0  0  0  0  0  0  0  0  0  0  0  0
   18.7008  -36.1947   37.7242 H   0  0  0  0  0  0  0  0  0  0  0  0
   19.9070  -35.4320   35.7450 H   0  0  0  0  0  0  0  0  0  0  0  0
   19.4520  -28.8140   35.8490 H   0  0  0  0  0  0  0  0  0  0  0  0
   18.0933  -27.9072   37.4640 H   0  0  0  0  0  0  0  0  0  0  0  0
   17.0047  -25.7958   37.7878 H   0  0  0  0  0  0  0  0  0  0  0  0
   17.6180  -24.5990   39.0070 H   0  0  0  0  0  0  0  0  0  0  0  0
   19.5122  -24.0626   37.6716 H   0  0  0  0  0  0  0  0  0  0  0  0
   19.2209  -25.4476   36.5655 H   0  0  0  0  0  0  0  0  0  0  0  0
   18.0970  -24.0464   36.5655 H   0  0  0  0  0  0  0  0  0  0  0  0
  1  2  1  0
  2  3  1  0
  3  4  1  0
  4  5  2  0
  5  6  1  0
  6  7  2  0
  7  8  1  0
  8  9  1  0
  9 10  1  0
 10 11  2  0
 11 12  1  0
 12 13  2  0
 13 14  1  0
 14 15  1  0
 14 16  2  0
 16 17  1  0
 17 18  2  0
 17 19  1  0
 19 20  1  0
  7 21  1  0
 21 22  2  0
 22 23  1  0
 23 24  1  0
 22  4  1  0
 19  8  2  0
 16 10  1  0
  1 25  1  0
  1 26  1  0
  1 27  1  0
  2 28  1  0
  2 29  1  0
  3 30  1  0
  3 31  1  0
  5 32  1  0
  6 33  1  0
 11 34  1  0
 12 35  1  0
 13 36  1  0
 15 37  1  0
 20 38  1  0
 21 39  1  0
 23 40  1  0
 23 41  1  0
 24 42  1  0
 24 43  1  0
 24 44  1  0
M  END
>  <meeko>  (5) 
{"is_sidechain": [false], "free_energy": -7.031, "intermolecular_energy": -9.281, "internal_energy": -0.489}

$$$$
cand_053_out
     RDKit          3D

 44 46  0  0  0  0  0  0  0  0999 V2000
   18.2360  -35.4700   39.4050 C   0  0  0  0  0  0  0  0  0  0  0  0
   19.4410  -34.6370   38.9950 C   0  0  0  0  0  0  0  0  0  0  0  0
   19.2020  -33.9330   37.6580 C   0  0  0  0  0  0  0  0  0  0  0  0
   19.2920  -32.4280   37.7920 C   0  0  0  0  0  0  0  0  0  0  0  0
   18.9800  -31.8560   39.0380 C   0  0  0  0  0  0  0  0  0  0  0  0
   19.0550  -30.4760   39.2380 C   0  0  0  0  0  0  0  0  0  0  0  0
   19.4530  -29.6260   38.2020 C   0  0  0  0  0  0  0  0  0  0  0  0
   19.4960  -28.1650   38.4230 C   0  0  0  0  0  0  0  0  0  0  0  0
   18.7860  -27.4520   37.4630 O   0  0  0  0  0  0  0  0  0  0  0  0
   18.7440  -26.0840   37.5490 C   0  0  0  0  0  0  0  0  0  0  0  0
   18.0320  -25.4090   36.5560 C   0  0  0  0  0  0  0  0  0  0  0  0
   17.9480  -24.0150   36.5840 C   0  0  0  0  0  0  0  0  0  0  0  0
   18.5740  -23.2970   37.6070 C   0  0  0  0  0  0  0  0  0  0  0  0
   19.2820  -23.9740   38.5960 C   0  0  0  0  0  0  0  0  0  0  0  0
   19.8700  -23.2090   39.5660 O   0  0  0  0  0  0  0  0  0  0  0  0
   19.3670  -25.3680   38.5660 C   0  0  0  0  0  0  0  0  0  0  0  0
   20.1010  -26.1180   39.5850 C   0  0  0  0  0  0  0  0  0  0  0  0
   20.6710  -25.5580   40.5200 O   0  0  0  0  0  0  0  0  0  0  0  0
   20.1370  -27.5930   39.4580 C   0  0  0  0  0  0  0  0  0  0  0  0
   20.8230  -28.2920   40.4360 O   0  0  0  0  0  0  0  0  0  0  0  0
   19.7600  -30.1940   36.9580 C   0  0  0  0  0  0  0  0  0  0  0  0
   19.6990  -31.5860   36.7390 C   0  0  0  0  0  0  0  0  0  0  0  0
   20.0470  -32.1010   35.3600 C   0  0  0  0  0  0  0  0  0  0  0  0
   20.7840  -31.0580   34.5330 C   0  0  0  0  0  0  0  0  0  0  0  0
   18.1755  -35.5118   40.5025 H   0  0  0  0  0  0  0  0  0  0  0  0
   17.3199  -35.0115   39.0045 H   0  0  0  0  0  0  0  0  0  0  0  0
   18.3413  -36.4891   39.0045 H   0  0  0  0  0  0  0  0  0  0  0  0
   19.6331  -33.8797   39.7693 H   0  0  0  0  0  0  0  0  0  0  0  0
   20.3052  -35.3084   38.8839 H   0  0  0  0  0  0  0  0  0  0  0  0
   19.9597  -34.2723   36.9364 H   0  0  0  0  0  0  0  0  0  0  0  0
   18.1881  -34.1860   37.3145 H   0  0  0  0  0  0  0  0  0  0  0  0
   18.6715  -32.5067   39.8695 H   0  0  0  0  0  0  0  0  0  0  0  0
   18.7983  -30.0535   40.2207 H   0  0  0  0  0  0  0  0  0  0  0  0
   17.5376  -25.9743   35.7523 H   0  0  0  0  0  0  0  0  0  0  0  0
   17.3890  -23.4820   35.8007 H   0  0  0  0  0  0  0  0  0  0  0  0
   18.5073  -22.1993   37.6305 H   0  0  0  0  0  0  0  0  0  0  0  0
   19.7050  -23.3920   40.4700 H   0  0  0  0  0  0  0  0  0  0  0  0
   21.7450  -28.4310   40.3510 H   0  0  0  0  0  0  0  0  0  0  0  0
   20.0570  -29.5353   36.1287 H   0  0  0  0  0  0  0  0  0  0  0  0
   20.6870  -32.9896   35.4635 H   0  0  0  0  0  0  0  0  0  0  0  0
   19.1085  -32.3458   34.8412 H   0  0  0  0  0  0  0  0  0  0  0  0
   21.2869  -30.3463   35.2042 H   0  0  0  0  0  0  0  0  0  0  0  0
   21.5325  -31.5551   33.8984 H   0  0  0  0  0  0  0  0  0  0  0  0
   20.0655  -30.5185   33.8984 H   0  0  0  0  0  0  0  0  0  0  0  0
  1  2  1  0
  2  3  1  0
  3  4  1  0
  4  5  2  0
  5  6  1  0
  6  7  2  0
  7  8  1  0
  8  9  1  0
  9 10  1  0
 10 11  2  0
 11 12  1  0
 12 13  2  0
 13 14  1  0
 14 15  1  0
 14 16  2  0
 16 17  1  0
 17 18  2  0
 17 19  1  0
 19 20  1  0
  7 21  1  0
 21 22  2  0
 22 23  1  0
 23 24  1  0
 22  4  1  0
 19  8  2  0
 16 10  1  0
  1 25  1  0
  1 26  1  0
  1 27  1  0
  2 28  1  0
  2 29  1  0
  3 30  1  0
  3 31  1  0
  5 32  1  0
  6 33  1  0
 11 34  1  0
 12 35  1  0
 13 36  1  0
 15 37  1  0
 20 38  1  0
 21 39  1  0
 23 40  1  0
 23 41  1  0
 24 42  1  0
 24 43  1  0
 24 44  1  0
M  END
>  <meeko>  (6) 
{"is_sidechain": [false], "free_energy": -7.022, "intermolecular_energy": -9.294, "internal_energy": -0.466}

$$$$
cand_053_out
     RDKit          3D

 44 46  0  0  0  0  0  0  0  0999 V2000
   19.8990  -22.6970   41.9630 C   0  0  0  0  0  0  0  0  0  0  0  0
   19.7520  -23.7550   40.8800 C   0  0  0  0  0  0  0  0  0  0  0  0
   18.9000  -24.9300   41.3630 C   0  0  0  0  0  0  0  0  0  0  0  0
   19.1170  -26.1650   40.5140 C   0  0  0  0  0  0  0  0  0  0  0  0
   18.4360  -26.2520   39.2870 C   0  0  0  0  0  0  0  0  0  0  0  0
   18.6000  -27.3560   38.4480 C   0  0  0  0  0  0  0  0  0  0  0  0
   19.4550  -28.4020   38.8040 C   0  0  0  0  0  0  0  0  0  0  0  0
   19.5910  -29.5770   37.9170 C   0  0  0  0  0  0  0  0  0  0  0  0
   19.8740  -29.2290   36.6000 O   0  0  0  0  0  0  0  0  0  0  0  0
   20.0250  -30.2250   35.6690 C   0  0  0  0  0  0  0  0  0  0  0  0
   20.2940  -29.8290   34.3580 C   0  0  0  0  0  0  0  0  0  0  0  0
   20.4610  -30.7920   33.3600 C   0  0  0  0  0  0  0  0  0  0  0  0
   20.3610  -32.1500   33.6740 C   0  0  0  0  0  0  0  0  0  0  0  0
   20.0920  -32.5400   34.9830 C   0  0  0  0  0  0  0  0  0  0  0  0
   20.0080  -33.8850   35.2210 O   0  0  0  0  0  0  0  0  0  0  0  0
   19.9250  -31.5760   35.9800 C   0  0  0  0  0  0  0  0  0  0  0  0
   19.6420  -31.9440   37.3680 C   0  0  0  0  0  0  0  0  0  0  0  0
   19.5470  -33.1180   37.7240 O   0  0  0  0  0  0  0  0  0  0  0  0
   19.4730  -30.8460   38.3480 C   0  0  0  0  0  0  0  0  0  0  0  0
   19.2190  -31.2070   39.6590 O   0  0  0  0  0  0  0  0  0  0  0  0
   20.1310  -28.3190   40.0280 C   0  0  0  0  0  0  0  0  0  0  0  0
   19.9860  -27.2090   40.8870 C   0  0  0  0  0  0  0  0  0  0  0  0
   20.7560  -27.2150   42.1880 C   0  0  0  0  0  0  0  0  0  0  0  0
   22.2010  -27.6500   41.9920 C   0  0  0  0  0  0  0  0  0  0  0  0
   19.8328  -23.1733   42.9523 H   0  0  0  0  0  0  0  0  0  0  0  0
   20.8748  -22.1999   41.8599 H   0  0  0  0  0  0  0  0  0  0  0  0
   19.0956  -21.9527   41.8599 H   0  0  0  0  0  0  0  0  0  0  0  0
   19.2722  -23.3024   39.9997 H   0  0  0  0  0  0  0  0  0  0  0  0
   20.7532  -24.1333   40.6260 H   0  0  0  0  0  0  0  0  0  0  0  0
   19.1691  -25.1613   42.4042 H   0  0  0  0  0  0  0  0  0  0  0  0
   17.8415  -24.6413   41.2844 H   0  0  0  0  0  0  0  0  0  0  0  0
   17.7629  -25.4368   38.9830 H   0  0  0  0  0  0  0  0  0  0  0  0
   18.0501  -27.4027   37.4965 H   0  0  0  0  0  0  0  0  0  0  0  0
   20.3744  -28.7601   34.1110 H   0  0  0  0  0  0  0  0  0  0  0  0
   20.6714  -30.4811   32.3260 H   0  0  0  0  0  0  0  0  0  0  0  0
   20.4945  -32.9088   32.8889 H   0  0  0  0  0  0  0  0  0  0  0  0
   19.5320  -34.2000   35.9640 H   0  0  0  0  0  0  0  0  0  0  0  0
   18.5790  -31.8640   39.8480 H   0  0  0  0  0  0  0  0  0  0  0  0
   20.7944  -29.1434   40.3284 H   0  0  0  0  0  0  0  0  0  0  0  0
   20.7449  -26.2001   42.6122 H   0  0  0  0  0  0  0  0  0  0  0  0
   20.2731  -27.9343   42.8658 H   0  0  0  0  0  0  0  0  0  0  0  0
   22.6771  -27.7933   42.9732 H   0  0  0  0  0  0  0  0  0  0  0  0
   22.2263  -28.5956   41.4305 H   0  0  0  0  0  0  0  0  0  0  0  0
   22.7441  -26.8755   41.4305 H   0  0  0  0  0  0  0  0  0  0  0  0
  1  2  1  0
  2  3  1  0
  3  4  1  0
  4  5  2  0
  5  6  1  0
  6  7  2  0
  7  8  1  0
  8  9  1  0
  9 10  1  0
 10 11  2  0
 11 12  1  0
 12 13  2  0
 13 14  1  0
 14 15  1  0
 14 16  2  0
 16 17  1  0
 17 18  2  0
 17 19  1  0
 19 20  1  0
  7 21  1  0
 21 22  2  0
 22 23  1  0
 23 24  1  0
 22  4  1  0
 19  8  2  0
 16 10  1  0
  1 25  1  0
  1 26  1  0
  1 27  1  0
  2 28  1  0
  2 29  1  0
  3 30  1  0
  3 31  1  0
  5 32  1  0
  6 33  1  0
 11 34  1  0
 12 35  1  0
 13 36  1  0
 15 37  1  0
 20 38  1  0
 21 39  1  0
 23 40  1  0
 23 41  1  0
 24 42  1  0
 24 43  1  0
 24 44  1  0
M  END
>  <meeko>  (7) 
{"is_sidechain": [false], "free_energy": -6.999, "intermolecular_energy": -9.238, "internal_energy": -0.492}

$$$$
cand_053_out
     RDKit          3D

 44 46  0  0  0  0  0  0  0  0999 V2000
   18.2560  -26.5710   34.1860 C   0  0  0  0  0  0  0  0  0  0  0  0
   18.6420  -27.5020   35.3250 C   0  0  0  0  0  0  0  0  0  0  0  0
   17.8270  -27.2090   36.5860 C   0  0  0  0  0  0  0  0  0  0  0  0
   18.7010  -27.1540   37.8200 C   0  0  0  0  0  0  0  0  0  0  0  0
   18.8620  -28.3340   38.5680 C   0  0  0  0  0  0  0  0  0  0  0  0
   19.6660  -28.3600   39.7090 C   0  0  0  0  0  0  0  0  0  0  0  0
   20.3400  -27.2120   40.1340 C   0  0  0  0  0  0  0  0  0  0  0  0
   21.1610  -27.2520   41.3630 C   0  0  0  0  0  0  0  0  0  0  0  0
   22.1490  -28.2290   41.3210 O   0  0  0  0  0  0  0  0  0  0  0  0
   22.9840  -28.3760   42.3990 C   0  0  0  0  0  0  0  0  0  0  0  0
   23.9500  -29.3800   42.3190 C   0  0  0  0  0  0  0  0  0  0  0  0
   24.8350  -29.5820   43.3820 C   0  0  0  0  0  0  0  0  0  0  0  0
   24.7530  -28.7800   44.5220 C   0  0  0  0  0  0  0  0  0  0  0  0
   23.7870  -27.7790   44.5980 C   0  0  0  0  0  0  0  0  0  0  0  0
   23.7630  -27.0310   45.7430 O   0  0  0  0  0  0  0  0  0  0  0  0
   22.9020  -27.5780   43.5350 C   0  0  0  0  0  0  0  0  0  0  0  0
   21.8740  -26.5380   43.5740 C   0  0  0  0  0  0  0  0  0  0  0  0
   21.7440  -25.7880   44.5400 O   0  0  0  0  0  0  0  0  0  0  0  0
   20.9810  -26.4130   42.4000 C   0  0  0  0  0  0  0  0  0  0  0  0
   20.0210  -25.4180   42.4420 O   0  0  0  0  0  0  0  0  0  0  0  0
   20.1780  -26.0350   39.3920 C   0  0  0  0  0  0  0  0  0  0  0  0
   19.3780  -25.9890   38.2310 C   0  0  0  0  0  0  0  0  0  0  0  0
   19.2630  -24.6700   37.5010 C   0  0  0  0  0  0  0  0  0  0  0  0
   19.2800  -23.4870   38.4590 C   0  0  0  0  0  0  0  0  0  0  0  0
   17.8655  -25.6291   34.5987 H   0  0  0  0  0  0  0  0  0  0  0  0
   19.1413  -26.3613   33.5678 H   0  0  0  0  0  0  0  0  0  0  0  0
   17.4820  -27.0493   33.5678 H   0  0  0  0  0  0  0  0  0  0  0  0
   18.4601  -28.5416   35.0148 H   0  0  0  0  0  0  0  0  0  0  0  0
   19.7058  -27.3440   35.5559 H   0  0  0  0  0  0  0  0  0  0  0  0
   17.3202  -26.2402   36.4652 H   0  0  0  0  0  0  0  0  0  0  0  0
   17.0986  -28.0225   36.7190 H   0  0  0  0  0  0  0  0  0  0  0  0
   18.3460  -29.2515   38.2488 H   0  0  0  0  0  0  0  0  0  0  0  0
   19.7701  -29.2945   40.2798 H   0  0  0  0  0  0  0  0  0  0  0  0
   24.0149  -30.0115   41.4207 H   0  0  0  0  0  0  0  0  0  0  0  0
   25.5966  -30.3733   43.3203 H   0  0  0  0  0  0  0  0  0  0  0  0
   25.4497  -28.9382   45.3584 H   0  0  0  0  0  0  0  0  0  0  0  0
   23.2810  -27.3310   46.4890 H   0  0  0  0  0  0  0  0  0  0  0  0
   19.1140  -25.6390   42.3690 H   0  0  0  0  0  0  0  0  0  0  0  0
   20.6896  -25.1197   39.7244 H   0  0  0  0  0  0  0  0  0  0  0  0
   20.1082  -24.5748   36.8035 H   0  0  0  0  0  0  0  0  0  0  0  0
   18.3027  -24.6601   36.9645 H   0  0  0  0  0  0  0  0  0  0  0  0
   19.2747  -23.8546   39.4957 H   0  0  0  0  0  0  0  0  0  0  0  0
   20.1868  -22.8887   38.2867 H   0  0  0  0  0  0  0  0  0  0  0  0
   18.3907  -22.8629   38.2867 H   0  0  0  0  0  0  0  0  0  0  0  0
  1  2  1  0
  2  3  1  0
  3  4  1  0
  4  5  2  0
  5  6  1  0
  6  7  2  0
  7  8  1  0
  8  9  1  0
  9 10  1  0
 10 11  2  0
 11 12  1  0
 12 13  2  0
 13 14  1  0
 14 15  1  0
 14 16  2  0
 16 17  1  0
 17 18  2  0
 17 19  1  0
 19 20  1  0
  7 21  1  0
 21 22  2  0
 22 23  1  0
 23 24  1  0
 22  4  1  0
 19  8  2  0
 16 10  1  0
  1 25  1  0
  1 26  1  0
  1 27  1  0
  2 28  1  0
  2 29  1  0
  3 30  1  0
  3 31  1  0
  5 32  1  0
  6 33  1  0
 11 34  1  0
 12 35  1  0
 13 36  1  0
 15 37  1  0
 20 38  1  0
 21 39  1  0
 23 40  1  0
 23 41  1  0
 24 42  1  0
 24 43  1  0
 24 44  1  0
M  END
>  <meeko>  (8) 
{"is_sidechain": [false], "free_energy": -6.914, "intermolecular_energy": -9.059, "internal_energy": -0.561}

$$$$
cand_053_out
     RDKit          3D

 44 46  0  0  0  0  0  0  0  0999 V2000
   19.9400  -25.5340   49.1670 C   0  0  0  0  0  0  0  0  0  0  0  0
   21.0760  -24.5400   48.9860 C   0  0  0  0  0  0  0  0  0  0  0  0
   20.6740  -23.4000   48.0480 C   0  0  0  0  0  0  0  0  0  0  0  0
   20.4980  -23.8820   46.6240 C   0  0  0  0  0  0  0  0  0  0  0  0
   21.5640  -24.5780   46.0260 C   0  0  0  0  0  0  0  0  0  0  0  0
   21.4660  -25.0630   44.7200 C   0  0  0  0  0  0  0  0  0  0  0  0
   20.2980  -24.8760   43.9750 C   0  0  0  0  0  0  0  0  0  0  0  0
   20.2250  -25.3700   42.5830 C   0  0  0  0  0  0  0  0  0  0  0  0
   19.8890  -24.3740   41.6740 O   0  0  0  0  0  0  0  0  0  0  0  0
   19.7850  -24.6950   40.3440 C   0  0  0  0  0  0  0  0  0  0  0  0
   19.4300  -23.6670   39.4700 C   0  0  0  0  0  0  0  0  0  0  0  0
   19.3100  -23.9260   38.1020 C   0  0  0  0  0  0  0  0  0  0  0  0
   19.5450  -25.2130   37.6110 C   0  0  0  0  0  0  0  0  0  0  0  0
   19.8980  -26.2360   38.4870 C   0  0  0  0  0  0  0  0  0  0  0  0
   20.1140  -27.4700   37.9380 O   0  0  0  0  0  0  0  0  0  0  0  0
   20.0180  -25.9760   39.8540 C   0  0  0  0  0  0  0  0  0  0  0  0
   20.3880  -27.0220   40.8080 C   0  0  0  0  0  0  0  0  0  0  0  0
   20.6180  -28.1760   40.4510 O   0  0  0  0  0  0  0  0  0  0  0  0
   20.4800  -26.6450   42.2370 C   0  0  0  0  0  0  0  0  0  0  0  0
   20.8430  -27.6400   43.1280 O   0  0  0  0  0  0  0  0  0  0  0  0
   19.2370  -24.1800   44.5680 C   0  0  0  0  0  0  0  0  0  0  0  0
   19.3120  -23.6890   45.8890 C   0  0  0  0  0  0  0  0  0  0  0  0
   18.1150  -22.9470   46.4380 C   0  0  0  0  0  0  0  0  0  0  0  0
   16.9250  -23.0070   45.4900 C   0  0  0  0  0  0  0  0  0  0  0  0
   19.7589  -25.6924   50.2404 H   0  0  0  0  0  0  0  0  0  0  0  0
   19.0281  -25.1385   48.6958 H   0  0  0  0  0  0  0  0  0  0  0  0
   20.2110  -26.4903   48.6958 H   0  0  0  0  0  0  0  0  0  0  0  0
   21.3437  -24.1195   49.9666 H   0  0  0  0  0  0  0  0  0  0  0  0
   21.9323  -25.0689   48.5421 H   0  0  0  0  0  0  0  0  0  0  0  0
   19.7247  -22.9683   48.3981 H   0  0  0  0  0  0  0  0  0  0  0  0
   21.4768  -22.6481   48.0586 H   0  0  0  0  0  0  0  0  0  0  0  0
   22.4900  -24.7430   46.5963 H   0  0  0  0  0  0  0  0  0  0  0  0
   22.3169  -25.5978   44.2728 H   0  0  0  0  0  0  0  0  0  0  0  0
   19.2449  -22.6542   39.8572 H   0  0  0  0  0  0  0  0  0  0  0  0
   19.0305  -23.1166   37.4116 H   0  0  0  0  0  0  0  0  0  0  0  0
   19.4513  -25.4175   36.5343 H   0  0  0  0  0  0  0  0  0  0  0  0
   19.4450  -27.8780   37.4240 H   0  0  0  0  0  0  0  0  0  0  0  0
   21.5160  -28.2490   42.9000 H   0  0  0  0  0  0  0  0  0  0  0  0
   18.3183  -24.0111   43.9870 H   0  0  0  0  0  0  0  0  0  0  0  0
   17.8271  -23.3983   47.3989 H   0  0  0  0  0  0  0  0  0  0  0  0
   18.3972  -21.8913   46.5640 H   0  0  0  0  0  0  0  0  0  0  0  0
   15.9936  -23.0540   46.0733 H   0  0  0  0  0  0  0  0  0  0  0  0
   16.9156  -22.1082   44.8559 H   0  0  0  0  0  0  0  0  0  0  0  0
   17.0061  -23.9022   44.8559 H   0  0  0  0  0  0  0  0  0  0  0  0
  1  2  1  0
  2  3  1  0
  3  4  1  0
  4  5  2  0
  5  6  1  0
  6  7  2  0
  7  8  1  0
  8  9  1  0
  9 10  1  0
 10 11  2  0
 11 12  1  0
 12 13  2  0
 13 14  1  0
 14 15  1  0
 14 16  2  0
 16 17  1  0
 17 18  2  0
 17 19  1  0
 19 20  1  0
  7 21  1  0
 21 22  2  0
 22 23  1  0
 23 24  1  0
 22  4  1  0
 19  8  2  0
 16 10  1  0
  1 25  1  0
  1 26  1  0
  1 27  1  0
  2 28  1  0
  2 29  1  0
  3 30  1  0
  3 31  1  0
  5 32  1  0
  6 33  1  0
 11 34  1  0
 12 35  1  0
 13 36  1  0
 15 37  1  0
 20 38  1  0
 21 39  1  0
 23 40  1  0
 23 41  1  0
 24 42  1  0
 24 43  1  0
 24 44  1  0
M  END
>  <meeko>  (9) 
{"is_sidechain": [false], "free_energy": -6.907, "intermolecular_energy": -8.968, "internal_energy": -0.643}

$$$$
