cand_049_out
     RDKit          3D

 47 49  0  0  0  0  0  0  0  0999 V2000
   22.2710  -27.6110   41.9360 C   0  0  0  0  0  0  0  0  0  0  0  0
   20.8760  -27.0670   42.2140 C   0  0  0  0  0  0  0  0  0  0  0  0
   19.9500  -27.2660   41.0340 C   0  0  0  0  0  0  0  0  0  0  0  0
   19.9990  -28.5040   40.3600 C   0  0  0  0  0  0  0  0  0  0  0  0
   19.1520  -28.7980   39.2820 C   0  0  0  0  0  0  0  0  0  0  0  0
   19.2640  -30.1000   38.5900 C   0  0  0  0  0  0  0  0  0  0  0  0
   18.8480  -31.1680   39.3770 O   0  0  0  0  0  0  0  0  0  0  0  0
   18.8990  -32.4350   38.8570 C   0  0  0  0  0  0  0  0  0  0  0  0
   18.4850  -33.4770   39.6870 C   0  0  0  0  0  0  0  0  0  0  0  0
   18.5100  -34.7930   39.2180 C   0  0  0  0  0  0  0  0  0  0  0  0
   18.9490  -35.0660   37.9210 C   0  0  0  0  0  0  0  0  0  0  0  0
   19.3620  -34.0240   37.0950 C   0  0  0  0  0  0  0  0  0  0  0  0
   19.7790  -34.3610   35.8370 O   0  0  0  0  0  0  0  0  0  0  0  0
   19.3370  -32.7080   37.5650 C   0  0  0  0  0  0  0  0  0  0  0  0
   19.7630  -31.5830   36.7300 C   0  0  0  0  0  0  0  0  0  0  0  0
   20.1550  -31.7420   35.5750 O   0  0  0  0  0  0  0  0  0  0  0  0
   19.7040  -30.2280   37.3240 C   0  0  0  0  0  0  0  0  0  0  0  0
   20.0960  -29.1720   36.5210 O   0  0  0  0  0  0  0  0  0  0  0  0
   18.2440  -27.8200   38.8700 C   0  0  0  0  0  0  0  0  0  0  0  0
   18.1760  -26.5900   39.5280 C   0  0  0  0  0  0  0  0  0  0  0  0
   19.0200  -26.2940   40.6120 C   0  0  0  0  0  0  0  0  0  0  0  0
   18.8950  -24.9340   41.2680 C   0  0  0  0  0  0  0  0  0  0  0  0
   19.8410  -23.8660   40.6810 C   0  0  0  0  0  0  0  0  0  0  0  0
   19.3100  -23.2770   39.3710 C   0  0  0  0  0  0  0  0  0  0  0  0
   20.0470  -22.7440   41.7010 C   0  0  0  0  0  0  0  0  0  0  0  0
   22.7832  -27.8108   42.8887 H   0  0  0  0  0  0  0  0  0  0  0  0
   22.1924  -28.5444   41.3592 H   0  0  0  0  0  0  0  0  0  0  0  0
   22.8450  -26.8708   41.3592 H   0  0  0  0  0  0  0  0  0  0  0  0
   20.4576  -27.5892   43.0870 H   0  0  0  0  0  0  0  0  0  0  0  0
   20.9616  -25.9868   42.4032 H   0  0  0  0  0  0  0  0  0  0  0  0
   20.7242  -29.2623   40.6903 H   0  0  0  0  0  0  0  0  0  0  0  0
   18.1394  -33.2630   40.7091 H   0  0  0  0  0  0  0  0  0  0  0  0
   18.1833  -35.6152   39.8716 H   0  0  0  0  0  0  0  0  0  0  0  0
   18.9685  -36.1022   37.5525 H   0  0  0  0  0  0  0  0  0  0  0  0
   20.5550  -33.9730   35.4810 H   0  0  0  0  0  0  0  0  0  0  0  0
   19.5400  -28.8820   35.8240 H   0  0  0  0  0  0  0  0  0  0  0  0
   17.5761  -28.0204   38.0192 H   0  0  0  0  0  0  0  0  0  0  0  0
   17.4473  -25.8380   39.1911 H   0  0  0  0  0  0  0  0  0  0  0  0
   17.8594  -24.5843   41.1449 H   0  0  0  0  0  0  0  0  0  0  0  0
   19.1755  -25.0625   42.3239 H   0  0  0  0  0  0  0  0  0  0  0  0
   20.7985  -24.3597   40.4587 H   0  0  0  0  0  0  0  0  0  0  0  0
   18.5888  -22.4770   39.5944 H   0  0  0  0  0  0  0  0  0  0  0  0
   20.1470  -22.8640   38.7888 H   0  0  0  0  0  0  0  0  0  0  0  0
   18.8128  -24.0668   38.7888 H   0  0  0  0  0  0  0  0  0  0  0  0
   19.9715  -23.1551   42.7185 H   0  0  0  0  0  0  0  0  0  0  0  0
   21.0422  -22.2974   41.5588 H   0  0  0  0  0  0  0  0  0  0  0  0
   19.2754  -21.9730   41.5588 H   0  0  0  0  0  0  0  0  0  0  0  0
  1  2  1  0
  2  3  1  0
  3  4  2  0
  4  5  1  0
  5  6  1  0
  6  7  1  0
  7  8  1  0
  8  9  2  0
  9 10  1  0
 10 11  2  0
 11 12  1  0
 12 13  1  0
 12 14  2  0
 14 15  1  0
 15 16  2  0
 15 17  1  0
 17 18  1  0
  5 19  2  0
 19 20  1  0
 20 21  2  0
 21 22  1  0
 22 23  1  0
 23 24  1  0
 23 25  1  0
 21  3  1  0
 17  6  2  0
 14  8  1  0
  1 26  1  0
  1 27  1  0
  1 28  1  0
  2 29  1  0
  2 30  1  0
  4 31  1  0
  9 32  1  0
 10 33  1  0
 11 34  1  0
 13 35  1  0
 18 36  1  0
 19 37  1  0
 20 38  1  0
 22 39  1  0
 22 40  1  0
 23 41  1  0
 24 42  1  0
 24 43  1  0
 24 44  1  0
 25 45  1  0
 25 46  1  0
 25 47  1  0
M  END
>  <meeko>  (1) 
{"is_sidechain": [false], "free_energy": -8.005, "intermolecular_energy": -10.345, "internal_energy": -0.761}

$$$$
cand_049_out
     RDKit          3D

 47 49  0  0  0  0  0  0  0  0999 V2000
   22.3020  -27.6050   41.8640 C   0  0  0  0  0  0  0  0  0  0  0  0
   20.8580  -27.2240   42.1630 C   0  0  0  0  0  0  0  0  0  0  0  0
   20.0060  -27.2290   40.9130 C   0  0  0  0  0  0  0  0  0  0  0  0
   20.1130  -28.3360   40.0470 C   0  0  0  0  0  0  0  0  0  0  0  0
   19.3350  -28.4500   38.8860 C   0  0  0  0  0  0  0  0  0  0  0  0
   19.5060  -29.6180   37.9950 C   0  0  0  0  0  0  0  0  0  0  0  0
   19.8290  -29.2600   36.6910 O   0  0  0  0  0  0  0  0  0  0  0  0
   20.0160  -30.2470   35.7590 C   0  0  0  0  0  0  0  0  0  0  0  0
   20.3240  -29.8410   34.4600 C   0  0  0  0  0  0  0  0  0  0  0  0
   20.5300  -30.7970   33.4610 C   0  0  0  0  0  0  0  0  0  0  0  0
   20.4290  -32.1560   33.7630 C   0  0  0  0  0  0  0  0  0  0  0  0
   20.1210  -32.5590   35.0600 C   0  0  0  0  0  0  0  0  0  0  0  0
   20.0380  -33.9050   35.2860 O   0  0  0  0  0  0  0  0  0  0  0  0
   19.9150  -31.6020   36.0580 C   0  0  0  0  0  0  0  0  0  0  0  0
   19.5900  -31.9820   37.4340 C   0  0  0  0  0  0  0  0  0  0  0  0
   19.4910  -33.1580   37.7780 O   0  0  0  0  0  0  0  0  0  0  0  0
   19.3830  -30.8910   38.4140 C   0  0  0  0  0  0  0  0  0  0  0  0
   19.0900  -31.2620   39.7140 O   0  0  0  0  0  0  0  0  0  0  0  0
   18.4380  -27.4220   38.5880 C   0  0  0  0  0  0  0  0  0  0  0  0
   18.3130  -26.3190   39.4360 C   0  0  0  0  0  0  0  0  0  0  0  0
   19.0890  -26.2040   40.6030 C   0  0  0  0  0  0  0  0  0  0  0  0
   18.9050  -24.9730   41.4670 C   0  0  0  0  0  0  0  0  0  0  0  0
   19.7970  -23.7830   41.0580 C   0  0  0  0  0  0  0  0  0  0  0  0
   19.3050  -23.1000   39.7800 C   0  0  0  0  0  0  0  0  0  0  0  0
   19.8480  -22.7610   42.1980 C   0  0  0  0  0  0  0  0  0  0  0  0
   22.8465  -27.7487   42.8089 H   0  0  0  0  0  0  0  0  0  0  0  0
   22.3221  -28.5392   41.2836 H   0  0  0  0  0  0  0  0  0  0  0  0
   22.7803  -26.8023   41.2836 H   0  0  0  0  0  0  0  0  0  0  0  0
   20.4408  -27.9451   42.8813 H   0  0  0  0  0  0  0  0  0  0  0  0
   20.8517  -26.2050   42.5773 H   0  0  0  0  0  0  0  0  0  0  0  0
   20.8289  -29.1352   40.2895 H   0  0  0  0  0  0  0  0  0  0  0  0
   20.4046  -28.7700   34.2223 H   0  0  0  0  0  0  0  0  0  0  0  0
   20.7718  -30.4781   32.4364 H   0  0  0  0  0  0  0  0  0  0  0  0
   20.5926  -32.9081   32.9771 H   0  0  0  0  0  0  0  0  0  0  0  0
   20.5070  -34.2900   36.0010 H   0  0  0  0  0  0  0  0  0  0  0  0
   19.4260  -30.7610   40.4320 H   0  0  0  0  0  0  0  0  0  0  0  0
   17.8242  -27.4814   37.6771 H   0  0  0  0  0  0  0  0  0  0  0  0
   17.5937  -25.5252   39.1861 H   0  0  0  0  0  0  0  0  0  0  0  0
   17.8536  -24.6568   41.3998 H   0  0  0  0  0  0  0  0  0  0  0  0
   19.1971  -25.2542   42.4895 H   0  0  0  0  0  0  0  0  0  0  0  0
   20.8028  -24.1799   40.8558 H   0  0  0  0  0  0  0  0  0  0  0  0
   18.6809  -22.2336   40.0442 H   0  0  0  0  0  0  0  0  0  0  0  0
   20.1690  -22.7628   39.1886 H   0  0  0  0  0  0  0  0  0  0  0  0
   18.7115  -23.8127   39.1886 H   0  0  0  0  0  0  0  0  0  0  0  0
   19.8217  -23.2872   43.1636 H   0  0  0  0  0  0  0  0  0  0  0  0
   20.7765  -22.1757   42.1245 H   0  0  0  0  0  0  0  0  0  0  0  0
   18.9824  -22.0862   42.1245 H   0  0  0  0  0  0  0  0  0  0  0  0
  1  2  1  0
  2  3  1  0
  3  4  2  0
  4  5  1  0
  5  6  1  0
  6  7  1  0
  7  8  1  0
  8  9  2  0
  9 10  1  0
 10 11  2  0
 11 12  1  0
 12 13  1  0
 12 14  2  0
 14 15  1  0
 15 16  2  0
 15 17  1  0
 17 18  1  0
  5 19  2  0
 19 20  1  0
 20 21  2  0
 21 22  1  0
 22 23  1  0
 23 24  1  0
 23 25  1  0
 21  3  1  0
 17  6  2  0
 14  8  1  0
  1 26  1  0
  1 27  1  0
  1 28  1  0
  2 29  1  0
  2 30  1  0
  4 31  1  0
  9 32  1  0
 10 33  1  0
 11 34  1  0
 13 35  1  0
 18 36  1  0
 19 37  1  0
 20 38  1  0
 22 39  1  0
 22 40  1  0
 23 41  1  0
 24 42  1  0
 24 43  1  0
 24 44  1  0
 25 45  1  0
 25 46  1  0
 25 47  1  0
M  END
>  <meeko>  (2) 
{"is_sidechain": [false], "free_energy": -7.329, "intermolecular_energy": -9.673, "internal_energy": -0.559}

$$$$
cand_049_out
     RDKit          3D

 47 49  0  0  0  0  0  0  0  0999 V2000
   18.7900  -33.6180   39.3330 C   0  0  0  0  0  0  0  0  0  0  0  0
   19.0190  -33.6510   37.8280 C   0  0  0  0  0  0  0  0  0  0  0  0
   19.3160  -32.2740   37.2740 C   0  0  0  0  0  0  0  0  0  0  0  0
   19.1930  -31.1730   38.1470 C   0  0  0  0  0  0  0  0  0  0  0  0
   19.4860  -29.8640   37.7370 C   0  0  0  0  0  0  0  0  0  0  0  0
   19.3110  -28.7400   38.6820 C   0  0  0  0  0  0  0  0  0  0  0  0
   20.2280  -28.7660   39.7270 O   0  0  0  0  0  0  0  0  0  0  0  0
   20.1790  -27.7800   40.6780 C   0  0  0  0  0  0  0  0  0  0  0  0
   21.1080  -27.8530   41.7160 C   0  0  0  0  0  0  0  0  0  0  0  0
   21.1140  -26.8790   42.7170 C   0  0  0  0  0  0  0  0  0  0  0  0
   20.1910  -25.8310   42.6780 C   0  0  0  0  0  0  0  0  0  0  0  0
   19.2650  -25.7600   41.6420 C   0  0  0  0  0  0  0  0  0  0  0  0
   18.3910  -24.7080   41.6650 O   0  0  0  0  0  0  0  0  0  0  0  0
   19.2590  -26.7360   40.6410 C   0  0  0  0  0  0  0  0  0  0  0  0
   18.3020  -26.6990   39.5330 C   0  0  0  0  0  0  0  0  0  0  0  0
   17.4650  -25.8060   39.4270 O   0  0  0  0  0  0  0  0  0  0  0  0
   18.3760  -27.7850   38.5290 C   0  0  0  0  0  0  0  0  0  0  0  0
   17.4760  -27.7320   37.4800 O   0  0  0  0  0  0  0  0  0  0  0  0
   19.9020  -29.6610   36.4200 C   0  0  0  0  0  0  0  0  0  0  0  0
   20.0350  -30.7400   35.5420 C   0  0  0  0  0  0  0  0  0  0  0  0
   19.7470  -32.0530   35.9510 C   0  0  0  0  0  0  0  0  0  0  0  0
   19.9050  -33.1700   34.9380 C   0  0  0  0  0  0  0  0  0  0  0  0
   20.6540  -32.7510   33.6570 C   0  0  0  0  0  0  0  0  0  0  0  0
   21.2330  -33.9510   32.9030 C   0  0  0  0  0  0  0  0  0  0  0  0
   19.7070  -31.9760   32.7360 C   0  0  0  0  0  0  0  0  0  0  0  0
   19.7494  -33.7563   39.8530 H   0  0  0  0  0  0  0  0  0  0  0  0
   18.3557  -32.6480   39.6166 H   0  0  0  0  0  0  0  0  0  0  0  0
   18.0995  -34.4259   39.6166 H   0  0  0  0  0  0  0  0  0  0  0  0
   19.8705  -34.3130   37.6119 H   0  0  0  0  0  0  0  0  0  0  0  0
   18.0996  -34.0206   37.3504 H   0  0  0  0  0  0  0  0  0  0  0  0
   18.8573  -31.3461   39.1801 H   0  0  0  0  0  0  0  0  0  0  0  0
   21.8356  -28.6774   41.7462 H   0  0  0  0  0  0  0  0  0  0  0  0
   21.8457  -26.9371   43.5363 H   0  0  0  0  0  0  0  0  0  0  0  0
   20.1964  -25.0629   43.4654 H   0  0  0  0  0  0  0  0  0  0  0  0
   18.0450  -24.3690   40.8630 H   0  0  0  0  0  0  0  0  0  0  0  0
   16.7080  -28.2700   37.4930 H   0  0  0  0  0  0  0  0  0  0  0  0
   20.1271  -28.6427   36.0703 H   0  0  0  0  0  0  0  0  0  0  0  0
   20.3717  -30.5579   34.5107 H   0  0  0  0  0  0  0  0  0  0  0  0
   20.4625  -33.9912   35.4122 H   0  0  0  0  0  0  0  0  0  0  0  0
   18.8916  -33.4688   34.6318 H   0  0  0  0  0  0  0  0  0  0  0  0
   21.4965  -32.1131   33.9624 H   0  0  0  0  0  0  0  0  0  0  0  0
   21.5936  -34.6984   33.6250 H   0  0  0  0  0  0  0  0  0  0  0  0
   20.4518  -34.3987   32.2711 H   0  0  0  0  0  0  0  0  0  0  0  0
   22.0696  -33.6181   32.2711 H   0  0  0  0  0  0  0  0  0  0  0  0
   18.9976  -31.3955   33.3441 H   0  0  0  0  0  0  0  0  0  0  0  0
   20.2904  -31.2929   32.1012 H   0  0  0  0  0  0  0  0  0  0  0  0
   19.1528  -32.6830   32.1012 H   0  0  0  0  0  0  0  0  0  0  0  0
  1  2  1  0
  2  3  1  0
  3  4  2  0
  4  5  1  0
  5  6  1  0
  6  7  1  0
  7  8  1  0
  8  9  2  0
  9 10  1  0
 10 11  2  0
 11 12  1  0
 12 13  1  0
 12 14  2  0
 14 15  1  0
 15 16  2  0
 15 17  1  0
 17 18  1  0
  5 19  2  0
 19 20  1  0
 20 21  2  0
 21 22  1  0
 22 23  1  0
 23 24  1  0
 23 25  1  0
 21  3  1  0
 17  6  2  0
 14  8  1  0
  1 26  1  0
  1 27  1  0
  1 28  1  0
  2 29  1  0
  2 30  1  0
  4 31  1  0
  9 32  1  0
 10 33  1  0
 11 34  1  0
 13 35  1  0
 18 36  1  0
 19 37  1  0
 20 38  1  0
 22 39  1  0
 22 40  1  0
 23 41  1  0
 24 42  1  0
 24 43  1  0
 24 44  1  0
 25 45  1  0
 25 46  1  0
 25 47  1  0
M  END
>  <meeko>  (3) 
{"is_sidechain": [false], "free_energy": -7.296, "intermolecular_energy": -9.879, "internal_energy": -0.311}

$$$$
cand_049_out
     RDKit          3D

 47 49  0  0  0  0  0  0  0  0999 V2000
   19.2140  -23.5660   38.3530 C   0  0  0  0  0  0  0  0  0  0  0  0
   19.5560  -24.7190   37.4190 C   0  0  0  0  0  0  0  0  0  0  0  0
   19.5910  -26.0430   38.1490 C   0  0  0  0  0  0  0  0  0  0  0  0
   20.3310  -26.1150   39.3470 C   0  0  0  0  0  0  0  0  0  0  0  0
   20.3900  -27.2870   40.1160 C   0  0  0  0  0  0  0  0  0  0  0  0
   21.2050  -27.3200   41.3490 C   0  0  0  0  0  0  0  0  0  0  0  0
   22.2030  -28.2870   41.3110 O   0  0  0  0  0  0  0  0  0  0  0  0
   23.0340  -28.4250   42.3920 C   0  0  0  0  0  0  0  0  0  0  0  0
   24.0130  -29.4170   42.3170 C   0  0  0  0  0  0  0  0  0  0  0  0
   24.8940  -29.6100   43.3830 C   0  0  0  0  0  0  0  0  0  0  0  0
   24.7960  -28.8110   44.5240 C   0  0  0  0  0  0  0  0  0  0  0  0
   23.8190  -27.8220   44.5980 C   0  0  0  0  0  0  0  0  0  0  0  0
   23.7800  -27.0750   45.7430 O   0  0  0  0  0  0  0  0  0  0  0  0
   22.9380  -27.6300   43.5300 C   0  0  0  0  0  0  0  0  0  0  0  0
   21.8960  -26.6020   43.5660 C   0  0  0  0  0  0  0  0  0  0  0  0
   21.7520  -25.8550   44.5320 O   0  0  0  0  0  0  0  0  0  0  0  0
   21.0080  -26.4850   42.3860 C   0  0  0  0  0  0  0  0  0  0  0  0
   20.0370  -25.5000   42.4260 O   0  0  0  0  0  0  0  0  0  0  0  0
   19.6950  -28.4110   39.6610 C   0  0  0  0  0  0  0  0  0  0  0  0
   18.9520  -28.3570   38.4800 C   0  0  0  0  0  0  0  0  0  0  0  0
   18.8880  -27.1830   37.7100 C   0  0  0  0  0  0  0  0  0  0  0  0
   18.0700  -27.2060   36.4350 C   0  0  0  0  0  0  0  0  0  0  0  0
   18.9180  -27.2060   35.1470 C   0  0  0  0  0  0  0  0  0  0  0  0
   19.4860  -28.5910   34.8250 C   0  0  0  0  0  0  0  0  0  0  0  0
   18.0700  -26.7140   33.9700 C   0  0  0  0  0  0  0  0  0  0  0  0
   19.3125  -23.8982   39.3970 H   0  0  0  0  0  0  0  0  0  0  0  0
   19.9023  -22.7280   38.1684 H   0  0  0  0  0  0  0  0  0  0  0  0
   18.1801  -23.2388   38.1684 H   0  0  0  0  0  0  0  0  0  0  0  0
   18.7969  -24.7706   36.6246 H   0  0  0  0  0  0  0  0  0  0  0  0
   20.5559  -24.5337   36.9997 H   0  0  0  0  0  0  0  0  0  0  0  0
   20.8790  -25.2248   39.6893 H   0  0  0  0  0  0  0  0  0  0  0  0
   24.0905  -30.0466   41.4183 H   0  0  0  0  0  0  0  0  0  0  0  0
   25.6656  -30.3918   43.3239 H   0  0  0  0  0  0  0  0  0  0  0  0
   25.4902  -28.9629   45.3637 H   0  0  0  0  0  0  0  0  0  0  0  0
   23.3760  -27.4220   46.5150 H   0  0  0  0  0  0  0  0  0  0  0  0
   20.2850  -24.6000   42.5100 H   0  0  0  0  0  0  0  0  0  0  0  0
   19.7337  -29.3465   40.2384 H   0  0  0  0  0  0  0  0  0  0  0  0
   18.4058  -29.2513   38.1456 H   0  0  0  0  0  0  0  0  0  0  0  0
   17.4474  -28.1129   36.4395 H   0  0  0  0  0  0  0  0  0  0  0  0
   17.4723  -26.2827   36.4231 H   0  0  0  0  0  0  0  0  0  0  0  0
   19.7686  -26.5287   35.3135 H   0  0  0  0  0  0  0  0  0  0  0  0
   19.7048  -29.1244   35.7618 H   0  0  0  0  0  0  0  0  0  0  0  0
   18.7497  -29.1626   34.2409 H   0  0  0  0  0  0  0  0  0  0  0  0
   20.4116  -28.4810   34.2409 H   0  0  0  0  0  0  0  0  0  0  0  0
   17.1778  -26.1963   34.3520 H   0  0  0  0  0  0  0  0  0  0  0  0
   18.6624  -26.0193   33.3564 H   0  0  0  0  0  0  0  0  0  0  0  0
   17.7609  -27.5730   33.3564 H   0  0  0  0  0  0  0  0  0  0  0  0
  1  2  1  0
  2  3  1  0
  3  4  2  0
  4  5  1  0
  5  6  1  0
  6  7  1  0
  7  8  1  0
  8  9  2  0
  9 10  1  0
 10 11  2  0
 11 12  1  0
 12 13  1  0
 12 14  2  0
 14 15  1  0
 15 16  2  0
 15 17  1  0
 17 18  1  0
  5 19  2  0
 19 20  1  0
 20 21  2  0
 21 22  1  0
 22 23  1  0
 23 24  1  0
 23 25  1  0
 21  3  1  0
 17  6  2  0
 14  8  1  0
  1 26  1  0
  1 27  1  0
  1 28  1  0
  2 29  1  0
  2 30  1  0
  4 31  1  0
  9 32  1  0
 10 33  1  0
 11 34  1  0
 13 35  1  0
 18 36  1  0
 19 37  1  0
 20 38  1  0
 22 39  1  0
 22 40  1  0
 23 41  1  0
 24 42  1  0
 24 43  1  0
 24 44  1  0
 25 45  1  0
 25 46  1  0
 25 47  1  0
M  END
>  <meeko>  (4) 
{"is_sidechain": [false], "free_energy": -7.168, "intermolecular_energy": -9.378, "internal_energy": -0.646}

$$$$
cand_049_out
     RDKit          3D

 47 49  0  0  0  0  0  0  0  0999 V2000
   18.7070  -24.2530   37.3410 C   0  0  0  0  0  0  0  0  0  0  0  0
   18.0600  -24.9460   38.5330 C   0  0  0  0  0  0  0  0  0  0  0  0
   18.9600  -26.0100   39.1210 C   0  0  0  0  0  0  0  0  0  0  0  0
   18.9030  -27.3030   38.5600 C   0  0  0  0  0  0  0  0  0  0  0  0
   19.7270  -28.3450   39.0090 C   0  0  0  0  0  0  0  0  0  0  0  0
   19.6070  -29.6910   38.4070 C   0  0  0  0  0  0  0  0  0  0  0  0
   19.2550  -30.6670   39.3330 O   0  0  0  0  0  0  0  0  0  0  0  0
   19.1090  -31.9620   38.9080 C   0  0  0  0  0  0  0  0  0  0  0  0
   18.7690  -32.9110   39.8730 C   0  0  0  0  0  0  0  0  0  0  0  0
   18.6030  -34.2480   39.5070 C   0  0  0  0  0  0  0  0  0  0  0  0
   18.7780  -34.6370   38.1770 C   0  0  0  0  0  0  0  0  0  0  0  0
   19.1180  -33.6880   37.2160 C   0  0  0  0  0  0  0  0  0  0  0  0
   19.2720  -34.1360   35.9330 O   0  0  0  0  0  0  0  0  0  0  0  0
   19.2840  -32.3500   37.5830 C   0  0  0  0  0  0  0  0  0  0  0  0
   19.6410  -31.3210   36.6050 C   0  0  0  0  0  0  0  0  0  0  0  0
   19.8040  -31.5840   35.4150 O   0  0  0  0  0  0  0  0  0  0  0  0
   19.8000  -29.9340   37.0970 C   0  0  0  0  0  0  0  0  0  0  0  0
   20.1240  -28.9680   36.1610 O   0  0  0  0  0  0  0  0  0  0  0  0
   20.6190  -28.0810   40.0510 C   0  0  0  0  0  0  0  0  0  0  0  0
   20.6930  -26.8050   40.6160 C   0  0  0  0  0  0  0  0  0  0  0  0
   19.8720  -25.7580   40.1650 C   0  0  0  0  0  0  0  0  0  0  0  0
   20.0040  -24.4050   40.8350 C   0  0  0  0  0  0  0  0  0  0  0  0
   19.1450  -24.2500   42.1070 C   0  0  0  0  0  0  0  0  0  0  0  0
   19.7850  -24.9210   43.3250 C   0  0  0  0  0  0  0  0  0  0  0  0
   18.9190  -22.7640   42.4000 C   0  0  0  0  0  0  0  0  0  0  0  0
   19.4167  -23.4929   37.6996 H   0  0  0  0  0  0  0  0  0  0  0  0
   19.2423  -24.9957   36.7312 H   0  0  0  0  0  0  0  0  0  0  0  0
   17.9293  -23.7699   36.7312 H   0  0  0  0  0  0  0  0  0  0  0  0
   17.8438  -24.1950   39.3071 H   0  0  0  0  0  0  0  0  0  0  0  0
   17.1369  -25.4330   38.1856 H   0  0  0  0  0  0  0  0  0  0  0  0
   18.1904  -27.4999   37.7455 H   0  0  0  0  0  0  0  0  0  0  0  0
   18.6319  -32.6059   40.9209 H   0  0  0  0  0  0  0  0  0  0  0  0
   18.3340  -34.9962   40.2672 H   0  0  0  0  0  0  0  0  0  0  0  0
   18.6476  -35.6906   37.8892 H   0  0  0  0  0  0  0  0  0  0  0  0
   18.6660  -34.7560   35.5760 H   0  0  0  0  0  0  0  0  0  0  0  0
   19.4810  -28.3400   35.8950 H   0  0  0  0  0  0  0  0  0  0  0  0
   21.2684  -28.8839   40.4299 H   0  0  0  0  0  0  0  0  0  0  0  0
   21.4084  -26.6166   41.4301 H   0  0  0  0  0  0  0  0  0  0  0  0
   21.0588  -24.2559   41.1093 H   0  0  0  0  0  0  0  0  0  0  0  0
   19.6447  -23.6558   40.1142 H   0  0  0  0  0  0  0  0  0  0  0  0
   18.1842  -24.7512   41.9183 H   0  0  0  0  0  0  0  0  0  0  0  0
   19.3688  -24.4846   44.2450 H   0  0  0  0  0  0  0  0  0  0  0  0
   19.5731  -26.0002   43.3026 H   0  0  0  0  0  0  0  0  0  0  0  0
   20.8730  -24.7604   43.3026 H   0  0  0  0  0  0  0  0  0  0  0  0
   18.8947  -22.6044   43.4881 H   0  0  0  0  0  0  0  0  0  0  0  0
   19.7379  -22.1751   41.9612 H   0  0  0  0  0  0  0  0  0  0  0  0
   17.9620  -22.4452   41.9612 H   0  0  0  0  0  0  0  0  0  0  0  0
  1  2  1  0
  2  3  1  0
  3  4  2  0
  4  5  1  0
  5  6  1  0
  6  7  1  0
  7  8  1  0
  8  9  2  0
  9 10  1  0
 10 11  2  0
 11 12  1  0
 12 13  1  0
 12 14  2  0
 14 15  1  0
 15 16  2  0
 15 17  1  0
 17 18  1  0
  5 19  2  0
 19 20  1  0
 20 21  2  0
 21 22  1  0
 22 23  1  0
 23 24  1  0
 23 25  1  0
 21  3  1  0
 17  6  2  0
 14  8  1  0
  1 26  1  0
  1 27  1  0
  1 28  1  0
  2 29  1  0
  2 30  1  0
  4 31  1  0
  9 32  1  0
 10 33  1  0
 11 34  1  0
 13 35  1  0
 18 36  1  0
 19 37  1  0
 20 38  1  0
 22 39  1  0
 22 40  1  0
 23 41  1  0
 24 42  1  0
 24 43  1  0
 24 44  1  0
 25 45  1  0
 25 46  1  0
 25 47  1  0
M  END
>  <meeko>  (5) 
{"is_sidechain": [false], "free_energy": -7.047, "intermolecular_energy": -9.251, "internal_energy": -0.617}

$$$$
cand_049_out
     RDKit          3D

 47 49  0  0  0  0  0  0  0  0999 V2000
   19.6720  -23.8590   43.5920 C   0  0  0  0  0  0  0  0  0  0  0  0
   19.9000  -25.3630   43.6560 C   0  0  0  0  0  0  0  0  0  0  0  0
   20.2330  -25.9390   42.2970 C   0  0  0  0  0  0  0  0  0  0  0  0
   19.5820  -25.3920   41.1730 C   0  0  0  0  0  0  0  0  0  0  0  0
   19.8540  -25.8310   39.8690 C   0  0  0  0  0  0  0  0  0  0  0  0
   19.1210  -25.2450   38.7260 C   0  0  0  0  0  0  0  0  0  0  0  0
   19.5490  -23.9600   38.4130 O   0  0  0  0  0  0  0  0  0  0  0  0
   18.9530  -23.2980   37.3710 C   0  0  0  0  0  0  0  0  0  0  0  0
   19.4030  -22.0050   37.1010 C   0  0  0  0  0  0  0  0  0  0  0  0
   18.8390  -21.2750   36.0520 C   0  0  0  0  0  0  0  0  0  0  0  0
   17.8270  -21.8390   35.2730 C   0  0  0  0  0  0  0  0  0  0  0  0
   17.3790  -23.1290   35.5430 C   0  0  0  0  0  0  0  0  0  0  0  0
   16.3860  -23.6200   34.7410 O   0  0  0  0  0  0  0  0  0  0  0  0
   17.9430  -23.8580   36.5940 C   0  0  0  0  0  0  0  0  0  0  0  0
   17.5020  -25.2170   36.9130 C   0  0  0  0  0  0  0  0  0  0  0  0
   16.6220  -25.7830   36.2690 O   0  0  0  0  0  0  0  0  0  0  0  0
   18.1590  -25.9010   38.0510 C   0  0  0  0  0  0  0  0  0  0  0  0
   17.7440  -27.1900   38.3340 O   0  0  0  0  0  0  0  0  0  0  0  0
   20.7940  -26.8500   39.6980 C   0  0  0  0  0  0  0  0  0  0  0  0
   21.4530  -27.4010   40.7990 C   0  0  0  0  0  0  0  0  0  0  0  0
   21.1860  -26.9600   42.1060 C   0  0  0  0  0  0  0  0  0  0  0  0
   21.9340  -27.6140   43.2500 C   0  0  0  0  0  0  0  0  0  0  0  0
   23.4660  -27.6200   43.0740 C   0  0  0  0  0  0  0  0  0  0  0  0
   24.1840  -26.8800   44.2060 C   0  0  0  0  0  0  0  0  0  0  0  0
   23.9720  -29.0640   43.0040 C   0  0  0  0  0  0  0  0  0  0  0  0
   19.6106  -23.4537   44.6128 H   0  0  0  0  0  0  0  0  0  0  0  0
   20.5084  -23.3837   43.0585 H   0  0  0  0  0  0  0  0  0  0  0  0
   18.7324  -23.6530   43.0585 H   0  0  0  0  0  0  0  0  0  0  0  0
   20.7338  -25.5678   44.3436 H   0  0  0  0  0  0  0  0  0  0  0  0
   18.9713  -25.8350   44.0093 H   0  0  0  0  0  0  0  0  0  0  0  0
   18.8376  -24.5962   41.3231 H   0  0  0  0  0  0  0  0  0  0  0  0
   20.2013  -21.5609   37.7138 H   0  0  0  0  0  0  0  0  0  0  0  0
   19.1924  -20.2552   35.8396 H   0  0  0  0  0  0  0  0  0  0  0  0
   17.3839  -21.2643   34.4463 H   0  0  0  0  0  0  0  0  0  0  0  0
   15.6880  -24.1210   35.1140 H   0  0  0  0  0  0  0  0  0  0  0  0
   18.2780  -27.7480   38.8640 H   0  0  0  0  0  0  0  0  0  0  0  0
   21.0171  -27.2217   38.6870 H   0  0  0  0  0  0  0  0  0  0  0  0
   22.1961  -28.1963   40.6398 H   0  0  0  0  0  0  0  0  0  0  0  0
   21.6941  -27.0707   44.1759 H   0  0  0  0  0  0  0  0  0  0  0  0
   21.6126  -28.6655   43.2813 H   0  0  0  0  0  0  0  0  0  0  0  0
   23.6915  -27.0911   42.1362 H   0  0  0  0  0  0  0  0  0  0  0  0
   23.8220  -27.2531   45.1754 H   0  0  0  0  0  0  0  0  0  0  0  0
   25.2675  -27.0531   44.1279 H   0  0  0  0  0  0  0  0  0  0  0  0
   23.9783  -25.8022   44.1279 H   0  0  0  0  0  0  0  0  0  0  0  0
   24.1088  -29.4544   44.0233 H   0  0  0  0  0  0  0  0  0  0  0  0
   23.2377  -29.6843   42.4692 H   0  0  0  0  0  0  0  0  0  0  0  0
   24.9329  -29.0903   42.4692 H   0  0  0  0  0  0  0  0  0  0  0  0
  1  2  1  0
  2  3  1  0
  3  4  2  0
  4  5  1  0
  5  6  1  0
  6  7  1  0
  7  8  1  0
  8  9  2  0
  9 10  1  0
 10 11  2  0
 11 12  1  0
 12 13  1  0
 12 14  2  0
 14 15  1  0
 15 16  2  0
 15 17  1  0
 17 18  1  0
  5 19  2  0
 19 20  1  0
 20 21  2  0
 21 22  1  0
 22 23  1  0
 23 24  1  0
 23 25  1  0
 21  3  1  0
 17  6  2  0
 14  8  1  0
  1 26  1  0
  1 27  1  0
  1 28  1  0
  2 29  1  0
  2 30  1  0
  4 31  1  0
  9 32  1  0
 10 33  1  0
 11 34  1  0
 13 35  1  0
 18 36  1  0
 19 37  1  0
 20 38  1  0
 22 39  1  0
 22 40  1  0
 23 41  1  0
 24 42  1  0
 24 43  1  0
 24 44  1  0
 25 45  1  0
 25 46  1  0
 25 47  1  0
M  END
>  <meeko>  (6) 
{"is_sidechain": [false], "free_energy": -6.959, "intermolecular_energy": -8.944, "internal_energy": -0.811}

$$$$
cand_049_out
     RDKit          3D

 47 49  0  0  0  0  0  0  0  0999 V2000
   16.2150  -22.9450   45.3330 C   0  0  0  0  0  0  0  0  0  0  0  0
   17.5180  -22.6030   46.0420 C   0  0  0  0  0  0  0  0  0  0  0  0
   18.6800  -23.4070   45.5020 C   0  0  0  0  0  0  0  0  0  0  0  0
   18.6800  -23.7200   44.1270 C   0  0  0  0  0  0  0  0  0  0  0  0
   19.7330  -24.4250   43.5250 C   0  0  0  0  0  0  0  0  0  0  0  0
   19.6710  -24.7550   42.0850 C   0  0  0  0  0  0  0  0  0  0  0  0
   19.5810  -26.1220   41.8470 O   0  0  0  0  0  0  0  0  0  0  0  0
   19.5170  -26.5680   40.5520 C   0  0  0  0  0  0  0  0  0  0  0  0
   19.4420  -27.9480   40.3600 C   0  0  0  0  0  0  0  0  0  0  0  0
   19.3720  -28.4680   39.0660 C   0  0  0  0  0  0  0  0  0  0  0  0
   19.3750  -27.6090   37.9650 C   0  0  0  0  0  0  0  0  0  0  0  0
   19.4490  -26.2330   38.1590 C   0  0  0  0  0  0  0  0  0  0  0  0
   19.4470  -25.4490   37.0380 O   0  0  0  0  0  0  0  0  0  0  0  0
   19.5200  -25.7130   39.4550 C   0  0  0  0  0  0  0  0  0  0  0  0
   19.6000  -24.2720   39.7040 C   0  0  0  0  0  0  0  0  0  0  0  0
   19.6000  -23.4530   38.7870 O   0  0  0  0  0  0  0  0  0  0  0  0
   19.6790  -23.8240   41.1130 C   0  0  0  0  0  0  0  0  0  0  0  0
   19.7390  -22.4600   41.3360 O   0  0  0  0  0  0  0  0  0  0  0  0
   20.8010  -24.8300   44.3280 C   0  0  0  0  0  0  0  0  0  0  0  0
   20.8220  -24.5240   45.6910 C   0  0  0  0  0  0  0  0  0  0  0  0
   19.7710  -23.8140   46.2960 C   0  0  0  0  0  0  0  0  0  0  0  0
   19.8600  -23.5300   47.7820 C   0  0  0  0  0  0  0  0  0  0  0  0
   20.7890  -24.4930   48.5490 C   0  0  0  0  0  0  0  0  0  0  0  0
   21.6290  -23.7720   49.6050 C   0  0  0  0  0  0  0  0  0  0  0  0
   19.9550  -25.5890   49.2190 C   0  0  0  0  0  0  0  0  0  0  0  0
   15.4340  -23.1500   46.0800 H   0  0  0  0  0  0  0  0  0  0  0  0
   15.9067  -22.0973   44.7034 H   0  0  0  0  0  0  0  0  0  0  0  0
   16.3628  -23.8348   44.7034 H   0  0  0  0  0  0  0  0  0  0  0  0
   17.7296  -21.5328   45.9010 H   0  0  0  0  0  0  0  0  0  0  0  0
   17.4007  -22.8461   47.1084 H   0  0  0  0  0  0  0  0  0  0  0  0
   17.8285  -23.4017   43.5076 H   0  0  0  0  0  0  0  0  0  0  0  0
   19.4380  -28.6253   41.2268 H   0  0  0  0  0  0  0  0  0  0  0  0
   19.3144  -29.5559   38.9137 H   0  0  0  0  0  0  0  0  0  0  0  0
   19.3190  -28.0194   36.9460 H   0  0  0  0  0  0  0  0  0  0  0  0
   18.6830  -25.4080   36.4970 H   0  0  0  0  0  0  0  0  0  0  0  0
   18.9500  -21.9710   41.4680 H   0  0  0  0  0  0  0  0  0  0  0  0
   21.6334  -25.3951   43.8834 H   0  0  0  0  0  0  0  0  0  0  0  0
   21.6780  -24.8452   46.3026 H   0  0  0  0  0  0  0  0  0  0  0  0
   20.2365  -22.5053   47.9166 H   0  0  0  0  0  0  0  0  0  0  0  0
   18.8492  -23.6667   48.1937 H   0  0  0  0  0  0  0  0  0  0  0  0
   21.4825  -24.9339   47.8177 H   0  0  0  0  0  0  0  0  0  0  0  0
   21.2871  -24.0654   50.6085 H   0  0  0  0  0  0  0  0  0  0  0  0
   22.6869  -24.0476   49.4829 H   0  0  0  0  0  0  0  0  0  0  0  0
   21.5169  -22.6846   49.4829 H   0  0  0  0  0  0  0  0  0  0  0  0
   20.0301  -25.4903   50.3120 H   0  0  0  0  0  0  0  0  0  0  0  0
   18.9032  -25.4880   48.9131 H   0  0  0  0  0  0  0  0  0  0  0  0
   20.3327  -26.5758   48.9131 H   0  0  0  0  0  0  0  0  0  0  0  0
  1  2  1  0
  2  3  1  0
  3  4  2  0
  4  5  1  0
  5  6  1  0
  6  7  1  0
  7  8  1  0
  8  9  2  0
  9 10  1  0
 10 11  2  0
 11 12  1  0
 12 13  1  0
 12 14  2  0
 14 15  1  0
 15 16  2  0
 15 17  1  0
 17 18  1  0
  5 19  2  0
 19 20  1  0
 20 21  2  0
 21 22  1  0
 22 23  1  0
 23 24  1  0
 23 25  1  0
 21  3  1  0
 17  6  2  0
 14  8  1  0
  1 26  1  0
  1 27  1  0
  1 28  1  0
  2 29  1  0
  2 30  1  0
  4 31  1  0
  9 32  1  0
 10 33  1  0
 11 34  1  0
 13 35  1  0
 18 36  1  0
 19 37  1  0
 20 38  1  0
 22 39  1  0
 22 40  1  0
 23 41  1  0
 24 42  1  0
 24 43  1  0
 24 44  1  0
 25 45  1  0
 25 46  1  0
 25 47  1  0
M  END
>  <meeko>  (7) 
{"is_sidechain": [false], "free_energy": -6.844, "intermolecular_energy": -8.871, "internal_energy": -0.733}

$$$$
cand_049_out
     RDKit          3D

 47 49  0  0  0  0  0  0  0  0999 V2000
   16.5340  -23.0900   45.3280 C   0  0  0  0  0  0  0  0  0  0  0  0
   17.8180  -22.6860   46.0390 C   0  0  0  0  0  0  0  0  0  0  0  0
   18.9950  -23.5260   45.5960 C   0  0  0  0  0  0  0  0  0  0  0  0
   19.0150  -23.9790   44.2610 C   0  0  0  0  0  0  0  0  0  0  0  0
   20.0820  -24.7290   43.7460 C   0  0  0  0  0  0  0  0  0  0  0  0
   20.0400  -25.2060   42.3460 C   0  0  0  0  0  0  0  0  0  0  0  0
   19.7130  -24.2000   41.4430 O   0  0  0  0  0  0  0  0  0  0  0  0
   19.6390  -24.5060   40.1090 C   0  0  0  0  0  0  0  0  0  0  0  0
   19.2930  -23.4700   39.2400 C   0  0  0  0  0  0  0  0  0  0  0  0
   19.2020  -23.7130   37.8670 C   0  0  0  0  0  0  0  0  0  0  0  0
   19.4570  -24.9900   37.3640 C   0  0  0  0  0  0  0  0  0  0  0  0
   19.8020  -26.0220   38.2330 C   0  0  0  0  0  0  0  0  0  0  0  0
   20.0390  -27.2470   37.6740 O   0  0  0  0  0  0  0  0  0  0  0  0
   19.8920  -25.7780   39.6060 C   0  0  0  0  0  0  0  0  0  0  0  0
   20.2510  -26.8350   40.5550 C   0  0  0  0  0  0  0  0  0  0  0  0
   20.4970  -27.9820   40.1880 O   0  0  0  0  0  0  0  0  0  0  0  0
   20.3130  -26.4750   41.9900 C   0  0  0  0  0  0  0  0  0  0  0  0
   20.6660  -27.4780   42.8750 O   0  0  0  0  0  0  0  0  0  0  0  0
   21.1460  -25.0360   44.5970 C   0  0  0  0  0  0  0  0  0  0  0  0
   21.1470  -24.5910   45.9210 C   0  0  0  0  0  0  0  0  0  0  0  0
   20.0810  -23.8360   46.4390 C   0  0  0  0  0  0  0  0  0  0  0  0
   20.1500  -23.4000   47.8890 C   0  0  0  0  0  0  0  0  0  0  0  0
   20.9750  -24.3430   48.7880 C   0  0  0  0  0  0  0  0  0  0  0  0
   21.7740  -23.5830   49.8490 C   0  0  0  0  0  0  0  0  0  0  0  0
   20.0440  -25.3490   49.4710 C   0  0  0  0  0  0  0  0  0  0  0  0
   15.7627  -23.3327   46.0738 H   0  0  0  0  0  0  0  0  0  0  0  0
   16.1862  -22.2579   44.6982 H   0  0  0  0  0  0  0  0  0  0  0  0
   16.7253  -23.9714   44.6982 H   0  0  0  0  0  0  0  0  0  0  0  0
   18.0308  -21.6299   45.8165 H   0  0  0  0  0  0  0  0  0  0  0  0
   17.6742  -22.8422   47.1183 H   0  0  0  0  0  0  0  0  0  0  0  0
   18.1674  -23.7366   43.6031 H   0  0  0  0  0  0  0  0  0  0  0  0
   19.0922  -22.4634   39.6356 H   0  0  0  0  0  0  0  0  0  0  0  0
   18.9291  -22.8970   37.1816 H   0  0  0  0  0  0  0  0  0  0  0  0
   19.3855  -25.1807   36.2830 H   0  0  0  0  0  0  0  0  0  0  0  0
   20.9080  -27.4850   37.4170 H   0  0  0  0  0  0  0  0  0  0  0  0
   21.3720  -27.3430   43.4770 H   0  0  0  0  0  0  0  0  0  0  0  0
   21.9901  -25.6331   44.2215 H   0  0  0  0  0  0  0  0  0  0  0  0
   21.9995  -24.8365   46.5714 H   0  0  0  0  0  0  0  0  0  0  0  0
   20.6046  -22.3991   47.9281 H   0  0  0  0  0  0  0  0  0  0  0  0
   19.1199  -23.4123   48.2748 H   0  0  0  0  0  0  0  0  0  0  0  0
   21.6954  -24.8667   48.1424 H   0  0  0  0  0  0  0  0  0  0  0  0
   21.4444  -23.8965   50.8506 H   0  0  0  0  0  0  0  0  0  0  0  0
   22.8450  -23.8039   49.7296 H   0  0  0  0  0  0  0  0  0  0  0  0
   21.6069  -22.5023   49.7296 H   0  0  0  0  0  0  0  0  0  0  0  0
   20.1353  -25.2504   50.5628 H   0  0  0  0  0  0  0  0  0  0  0  0
   19.0048  -25.1496   49.1704 H   0  0  0  0  0  0  0  0  0  0  0  0
   20.3232  -26.3696   49.1704 H   0  0  0  0  0  0  0  0  0  0  0  0
  1  2  1  0
  2  3  1  0
  3  4  2  0
  4  5  1  0
  5  6  1  0
  6  7  1  0
  7  8  1  0
  8  9  2  0
  9 10  1  0
 10 11  2  0
 11 12  1  0
 12 13  1  0
 12 14  2  0
 14 15  1  0
 15 16  2  0
 15 17  1  0
 17 18  1  0
  5 19  2  0
 19 20  1  0
 20 21  2  0
 21 22  1  0
 22 23  1  0
 23 24  1  0
 23 25  1  0
 21  3  1  0
 17  6  2  0
 14  8  1  0
  1 26  1  0
  1 27  1  0
  1 28  1  0
  2 29  1  0
  2 30  1  0
  4 31  1  0
  9 32  1  0
 10 33  1  0
 11 34  1  0
 13 35  1  0
 18 36  1  0
 19 37  1  0
 20 38  1  0
 22 39  1  0
 22 40  1  0
 23 41  1  0
 24 42  1  0
 24 43  1  0
 24 44  1  0
 25 45  1  0
 25 46  1  0
 25 47  1  0
M  END
>  <meeko>  (8) 
{"is_sidechain": [false], "free_energy": -6.84, "intermolecular_energy": -9.012, "internal_energy": -0.588}

$$$$
cand_049_out
     RDKit          3D

 47 49  0  0  0  0  0  0  0  0999 V2000
   20.6670  -31.3050   34.6100 C   0  0  0  0  0  0  0  0  0  0  0  0
   20.0470  -32.2550   35.6250 C   0  0  0  0  0  0  0  0  0  0  0  0
   19.8110  -31.5780   36.9570 C   0  0  0  0  0  0  0  0  0  0  0  0
   19.6620  -30.1750   36.9650 C   0  0  0  0  0  0  0  0  0  0  0  0
   19.3990  -29.4630   38.1450 C   0  0  0  0  0  0  0  0  0  0  0  0
   19.2820  -27.9890   38.1040 C   0  0  0  0  0  0  0  0  0  0  0  0
   18.3300  -27.5480   37.1910 O   0  0  0  0  0  0  0  0  0  0  0  0
   18.1180  -26.2010   37.0520 C   0  0  0  0  0  0  0  0  0  0  0  0
   17.1640  -25.8030   36.1140 C   0  0  0  0  0  0  0  0  0  0  0  0
   16.8980  -24.4450   35.9240 C   0  0  0  0  0  0  0  0  0  0  0  0
   17.5850  -23.4860   36.6710 C   0  0  0  0  0  0  0  0  0  0  0  0
   18.5360  -23.8850   37.6060 C   0  0  0  0  0  0  0  0  0  0  0  0
   19.1710  -22.8950   38.3040 O   0  0  0  0  0  0  0  0  0  0  0  0
   18.8020  -25.2440   37.7950 C   0  0  0  0  0  0  0  0  0  0  0  0
   19.7940  -25.7070   38.7680 C   0  0  0  0  0  0  0  0  0  0  0  0
   20.4330  -24.9250   39.4670 O   0  0  0  0  0  0  0  0  0  0  0  0
   20.0070  -27.1680   38.8870 C   0  0  0  0  0  0  0  0  0  0  0  0
   20.9360  -27.5940   39.8190 O   0  0  0  0  0  0  0  0  0  0  0  0
   19.2950  -30.1770   39.3400 C   0  0  0  0  0  0  0  0  0  0  0  0
   19.4340  -31.5670   39.3510 C   0  0  0  0  0  0  0  0  0  0  0  0
   19.6920  -32.2850   38.1710 C   0  0  0  0  0  0  0  0  0  0  0  0
   19.8410  -33.7900   38.2650 C   0  0  0  0  0  0  0  0  0  0  0  0
   18.5220  -34.5630   38.0670 C   0  0  0  0  0  0  0  0  0  0  0  0
   18.5590  -35.4700   36.8340 C   0  0  0  0  0  0  0  0  0  0  0  0
   18.2240  -35.4030   39.3120 C   0  0  0  0  0  0  0  0  0  0  0  0
   21.1943  -30.4971   35.1384 H   0  0  0  0  0  0  0  0  0  0  0  0
   21.3795  -31.8566   33.9791 H   0  0  0  0  0  0  0  0  0  0  0  0
   19.8752  -30.8749   33.9791 H   0  0  0  0  0  0  0  0  0  0  0  0
   19.0844  -32.6157   35.2334 H   0  0  0  0  0  0  0  0  0  0  0  0
   20.7464  -33.0889   35.7845 H   0  0  0  0  0  0  0  0  0  0  0  0
   19.7548  -29.6230   36.0180 H   0  0  0  0  0  0  0  0  0  0  0  0
   16.6223  -26.5579   35.5251 H   0  0  0  0  0  0  0  0  0  0  0  0
   16.1463  -24.1306   35.1849 H   0  0  0  0  0  0  0  0  0  0  0  0
   17.3750  -22.4167   36.5209 H   0  0  0  0  0  0  0  0  0  0  0  0
   19.8790  -22.4240   37.9090 H   0  0  0  0  0  0  0  0  0  0  0  0
   21.1110  -28.5090   39.9220 H   0  0  0  0  0  0  0  0  0  0  0  0
   19.1020  -29.6407   40.2808 H   0  0  0  0  0  0  0  0  0  0  0  0
   19.3396  -32.1105   40.3027 H   0  0  0  0  0  0  0  0  0  0  0  0
   20.5527  -34.1163   37.4924 H   0  0  0  0  0  0  0  0  0  0  0  0
   20.1912  -34.0127   39.2837 H   0  0  0  0  0  0  0  0  0  0  0  0
   17.7262  -33.8202   37.9088 H   0  0  0  0  0  0  0  0  0  0  0  0
   18.6019  -36.5217   37.1536 H   0  0  0  0  0  0  0  0  0  0  0  0
   17.6534  -35.3066   36.2313 H   0  0  0  0  0  0  0  0  0  0  0  0
   19.4482  -35.2334   36.2313 H   0  0  0  0  0  0  0  0  0  0  0  0
   18.4346  -34.8094   40.2138 H   0  0  0  0  0  0  0  0  0  0  0  0
   17.1652  -35.7012   39.3083 H   0  0  0  0  0  0  0  0  0  0  0  0
   18.8581  -36.3018   39.3083 H   0  0  0  0  0  0  0  0  0  0  0  0
  1  2  1  0
  2  3  1  0
  3  4  2  0
  4  5  1  0
  5  6  1  0
  6  7  1  0
  7  8  1  0
  8  9  2  0
  9 10  1  0
 10 11  2  0
 11 12  1  0
 12 13  1  0
 12 14  2  0
 14 15  1  0
 15 16  2  0
 15 17  1  0
 17 18  1  0
  5 19  2  0
 19 20  1  0
 20 21  2  0
 21 22  1  0
 22 23  1  0
 23 24  1  0
 23 25  1  0
 21  3  1  0
 17  6  2  0
 14  8  1  0
  1 26  1  0
  1 27  1  0
  1 28  1  0
  2 29  1  0
  2 30  1  0
  4 31  1  0
  9 32  1  0
 10 33  1  0
 11 34  1  0
 13 35  1  0
 18 36  1  0
 19 37  1  0
 20 38  1  0
 22 39  1  0
 22 40  1  0
 23 41  1  0
 24 42  1  0
 24 43  1  0
 24 44  1  0
 25 45  1  0
 25 46  1  0
 25 47  1  0
M  END
>  <meeko>  (9) 
{"is_sidechain": [false], "free_energy": -5.61, "intermolecular_energy": -7.321, "internal_energy": -0.69}

$$$$
