cand_001_out
     RDKit          3D

 45 48  0  0  0  0  0  0  0  0999 V2000
   19.6910  -24.5620   40.2210 C   0  0  0  0  0  0  0  0  0  0  0  0
   19.6170  -25.9880   39.7470 C   0  0  0  0  0  0  0  0  0  0  0  0
   19.4650  -26.2330   38.3740 C   0  0  0  0  0  0  0  0  0  0  0  0
   19.4220  -27.5380   37.8760 C   0  0  0  0  0  0  0  0  0  0  0  0
   19.5430  -28.6340   38.7350 C   0  0  0  0  0  0  0  0  0  0  0  0
   19.4800  -30.0080   38.1920 C   0  0  0  0  0  0  0  0  0  0  0  0
   19.0550  -30.9410   39.1310 O   0  0  0  0  0  0  0  0  0  0  0  0
   18.9520  -32.2570   38.7570 C   0  0  0  0  0  0  0  0  0  0  0  0
   18.5370  -33.1620   39.7350 C   0  0  0  0  0  0  0  0  0  0  0  0
   18.4090  -34.5160   39.4210 C   0  0  0  0  0  0  0  0  0  0  0  0
   18.6960  -34.9660   38.1300 C   0  0  0  0  0  0  0  0  0  0  0  0
   19.1100  -34.0610   37.1570 C   0  0  0  0  0  0  0  0  0  0  0  0
   19.3730  -34.5680   35.9140 O   0  0  0  0  0  0  0  0  0  0  0  0
   19.2380  -32.7050   37.4720 C   0  0  0  0  0  0  0  0  0  0  0  0
   19.6700  -31.7210   36.4780 C   0  0  0  0  0  0  0  0  0  0  0  0
   19.9340  -32.0370   35.3200 O   0  0  0  0  0  0  0  0  0  0  0  0
   19.7820  -30.3100   36.9160 C   0  0  0  0  0  0  0  0  0  0  0  0
   20.1790  -29.3860   35.9650 O   0  0  0  0  0  0  0  0  0  0  0  0
   19.6890  -28.3910   40.1070 C   0  0  0  0  0  0  0  0  0  0  0  0
   19.7390  -27.0810   40.6290 C   0  0  0  0  0  0  0  0  0  0  0  0
   19.9360  -26.9080   42.1240 C   0  0  0  0  0  0  0  0  0  0  0  0
   21.3230  -27.2420   42.6300 C   0  0  0  0  0  0  0  0  0  0  0  0
   21.6790  -26.9470   43.9550 C   0  0  0  0  0  0  0  0  0  0  0  0
   22.9490  -27.2720   44.4390 C   0  0  0  0  0  0  0  0  0  0  0  0
   23.8730  -27.9010   43.6080 C   0  0  0  0  0  0  0  0  0  0  0  0
   23.5280  -28.2100   42.2940 C   0  0  0  0  0  0  0  0  0  0  0  0
   22.2590  -27.8880   41.8090 C   0  0  0  0  0  0  0  0  0  0  0  0
   19.6921  -24.5408   41.3208 H   0  0  0  0  0  0  0  0  0  0  0  0
   20.6144  -24.0979   39.8444 H   0  0  0  0  0  0  0  0  0  0  0  0
   18.8206  -24.0048   39.8444 H   0  0  0  0  0  0  0  0  0  0  0  0
   19.3783  -25.3849   37.6789 H   0  0  0  0  0  0  0  0  0  0  0  0
   19.2915  -27.7045   36.7965 H   0  0  0  0  0  0  0  0  0  0  0  0
   18.3111  -32.8087   40.7519 H   0  0  0  0  0  0  0  0  0  0  0  0
   18.0816  -35.2298   40.1913 H   0  0  0  0  0  0  0  0  0  0  0  0
   18.5950  -36.0331   37.8830 H   0  0  0  0  0  0  0  0  0  0  0  0
   19.5870  -35.4750   35.8140 H   0  0  0  0  0  0  0  0  0  0  0  0
   21.0510  -29.0450   35.9790 H   0  0  0  0  0  0  0  0  0  0  0  0
   19.7668  -29.2448   40.7962 H   0  0  0  0  0  0  0  0  0  0  0  0
   19.7242  -25.8586   42.3768 H   0  0  0  0  0  0  0  0  0  0  0  0
   19.2524  -27.6208   42.6084 H   0  0  0  0  0  0  0  0  0  0  0  0
   20.9520  -26.4557   44.6184 H   0  0  0  0  0  0  0  0  0  0  0  0
   23.2193  -27.0308   45.4776 H   0  0  0  0  0  0  0  0  0  0  0  0
   24.8737  -28.1534   43.9886 H   0  0  0  0  0  0  0  0  0  0  0  0
   24.2566  -28.7084   41.6377 H   0  0  0  0  0  0  0  0  0  0  0  0
   21.9907  -28.1433   40.7732 H   0  0  0  0  0  0  0  0  0  0  0  0
  1  2  1  0
  2  3  2  0
  3  4  1  0
  4  5  2  0
  5  6  1  0
  6  7  1  0
  7  8  1  0
  8  9  2  0
  9 10  1  0
 10 11  2  0
 11 12  1  0
 12 13  1  0
 12 14  2  0
 14 15  1  0
 15 16  2  0
 15 17  1  0
 17 18  1  0
  5 19  1  0
 19 20  2  0
 20 21  1  0
 21 22  1  0
 22 23  2  0
 23 24  1  0
 24 25  2  0
 25 26  1  0
 26 27  2  0
 20  2  1  0
 27 22  1  0
 17  6  2  0
 14  8  1  0
  1 28  1  0
  1 29  1  0
  1 30  1  0
  3 31  1  0
  4 32  1  0
  9 33  1  0
 10 34  1  0
 11 35  1  0
 13 36  1  0
 18 37  1  0
 19 38  1  0
 21 39  1  0
 21 40  1  0
 23 41  1  0
 24 42  1  0
 25 43  1  0
 26 44  1  0
 27 45  1  0
M  END
>  <meeko>  (1) 
{"is_sidechain": [false], "free_energy": -9.705, "intermolecular_energy": -11.974, "internal_energy": -0.136}

$$$$
cand_001_out
     RDKit          3D

 45 48  0  0  0  0  0  0  0  0999 V2000
   19.3820  -24.2760   40.8450 C   0  0  0  0  0  0  0  0  0  0  0  0
   19.4550  -25.5840   40.1060 C   0  0  0  0  0  0  0  0  0  0  0  0
   19.3160  -25.5770   38.7100 C   0  0  0  0  0  0  0  0  0  0  0  0
   19.4060  -26.7590   37.9710 C   0  0  0  0  0  0  0  0  0  0  0  0
   19.6510  -27.9810   38.6060 C   0  0  0  0  0  0  0  0  0  0  0  0
   19.7290  -29.2240   37.8090 C   0  0  0  0  0  0  0  0  0  0  0  0
   19.9450  -28.9840   36.4560 O   0  0  0  0  0  0  0  0  0  0  0  0
   20.0390  -30.0530   35.6010 C   0  0  0  0  0  0  0  0  0  0  0  0
   20.2410  -29.7680   34.2500 C   0  0  0  0  0  0  0  0  0  0  0  0
   20.3480  -30.8090   33.3270 C   0  0  0  0  0  0  0  0  0  0  0  0
   20.2520  -32.1350   33.7530 C   0  0  0  0  0  0  0  0  0  0  0  0
   20.0500  -32.4180   35.1010 C   0  0  0  0  0  0  0  0  0  0  0  0
   19.9670  -33.7380   35.4500 O   0  0  0  0  0  0  0  0  0  0  0  0
   19.9430  -31.3740   36.0250 C   0  0  0  0  0  0  0  0  0  0  0  0
   19.7310  -31.6280   37.4510 C   0  0  0  0  0  0  0  0  0  0  0  0
   19.6440  -32.7670   37.9050 O   0  0  0  0  0  0  0  0  0  0  0  0
   19.6240  -30.4520   38.3460 C   0  0  0  0  0  0  0  0  0  0  0  0
   19.4360  -30.7040   39.6940 O   0  0  0  0  0  0  0  0  0  0  0  0
   19.7850  -27.9900   40.0010 C   0  0  0  0  0  0  0  0  0  0  0  0
   19.7020  -26.8070   40.7640 C   0  0  0  0  0  0  0  0  0  0  0  0
   19.8950  -26.9040   42.2670 C   0  0  0  0  0  0  0  0  0  0  0  0
   21.3050  -27.2280   42.7110 C   0  0  0  0  0  0  0  0  0  0  0  0
   21.7380  -26.8700   43.9970 C   0  0  0  0  0  0  0  0  0  0  0  0
   23.0290  -27.1850   44.4260 C   0  0  0  0  0  0  0  0  0  0  0  0
   23.8990  -27.8680   43.5790 C   0  0  0  0  0  0  0  0  0  0  0  0
   23.4780  -28.2410   42.3040 C   0  0  0  0  0  0  0  0  0  0  0  0
   22.1870  -27.9280   41.8740 C   0  0  0  0  0  0  0  0  0  0  0  0
   19.3926  -24.4659   41.9284 H   0  0  0  0  0  0  0  0  0  0  0  0
   20.2468  -23.6527   40.5735 H   0  0  0  0  0  0  0  0  0  0  0  0
   18.4533  -23.7528   40.5735 H   0  0  0  0  0  0  0  0  0  0  0  0
   19.1332  -24.6256   38.1891 H   0  0  0  0  0  0  0  0  0  0  0  0
   19.2829  -26.7285   36.8783 H   0  0  0  0  0  0  0  0  0  0  0  0
   20.3158  -28.7236   33.9129 H   0  0  0  0  0  0  0  0  0  0  0  0
   20.5082  -30.5845   32.2621 H   0  0  0  0  0  0  0  0  0  0  0  0
   20.3359  -32.9550   33.0246 H   0  0  0  0  0  0  0  0  0  0  0  0
   19.9150  -33.9810   36.3530 H   0  0  0  0  0  0  0  0  0  0  0  0
   18.6130  -31.0300   40.0000 H   0  0  0  0  0  0  0  0  0  0  0  0
   19.9598  -28.9466   40.5151 H   0  0  0  0  0  0  0  0  0  0  0  0
   19.6110  -25.9383   42.7106 H   0  0  0  0  0  0  0  0  0  0  0  0
   19.2664  -27.7413   42.6043 H   0  0  0  0  0  0  0  0  0  0  0  0
   21.0541  -26.3363   44.6733 H   0  0  0  0  0  0  0  0  0  0  0  0
   23.3594  -26.8935   45.4339 H   0  0  0  0  0  0  0  0  0  0  0  0
   24.9171  -28.1126   43.9162 H   0  0  0  0  0  0  0  0  0  0  0  0
   24.1635  -28.7826   41.6356 H   0  0  0  0  0  0  0  0  0  0  0  0
   21.8583  -28.2331   40.8696 H   0  0  0  0  0  0  0  0  0  0  0  0
  1  2  1  0
  2  3  2  0
  3  4  1  0
  4  5  2  0
  5  6  1  0
  6  7  1  0
  7  8  1  0
  8  9  2  0
  9 10  1  0
 10 11  2  0
 11 12  1  0
 12 13  1  0
 12 14  2  0
 14 15  1  0
 15 16  2  0
 15 17  1  0
 17 18  1  0
  5 19  1  0
 19 20  2  0
 20 21  1  0
 21 22  1  0
 22 23  2  0
 23 24  1  0
 24 25  2  0
 25 26  1  0
 26 27  2  0
 20  2  1  0
 27 22  1  0
 17  6  2  0
 14  8  1  0
  1 28  1  0
  1 29  1  0
  1 30  1  0
  3 31  1  0
  4 32  1  0
  9 33  1  0
 10 34  1  0
 11 35  1  0
 13 36  1  0
 18 37  1  0
 19 38  1  0
 21 39  1  0
 21 40  1  0
 23 41  1  0
 24 42  1  0
 25 43  1  0
 26 44  1  0
 27 45  1  0
M  END
>  <meeko>  (2) 
{"is_sidechain": [false], "free_energy": -8.928, "intermolecular_energy": -11.136, "internal_energy": -0.017}

$$$$
cand_001_out
     RDKit          3D

 45 48  0  0  0  0  0  0  0  0999 V2000
   19.6260  -24.1210   42.4380 C   0  0  0  0  0  0  0  0  0  0  0  0
   19.6210  -25.0110   41.2250 C   0  0  0  0  0  0  0  0  0  0  0  0
   19.4330  -24.4270   39.9630 C   0  0  0  0  0  0  0  0  0  0  0  0
   19.4500  -25.2030   38.8010 C   0  0  0  0  0  0  0  0  0  0  0  0
   19.6680  -26.5830   38.8670 C   0  0  0  0  0  0  0  0  0  0  0  0
   19.6680  -27.3900   37.6280 C   0  0  0  0  0  0  0  0  0  0  0  0
   19.8550  -28.7470   37.8680 O   0  0  0  0  0  0  0  0  0  0  0  0
   19.8760  -29.6110   36.8030 C   0  0  0  0  0  0  0  0  0  0  0  0
   20.0810  -30.9620   37.0870 C   0  0  0  0  0  0  0  0  0  0  0  0
   20.1110  -31.8950   36.0490 C   0  0  0  0  0  0  0  0  0  0  0  0
   19.9360  -31.4780   34.7280 C   0  0  0  0  0  0  0  0  0  0  0  0
   19.7320  -30.1300   34.4470 C   0  0  0  0  0  0  0  0  0  0  0  0
   19.5670  -29.7920   33.1320 O   0  0  0  0  0  0  0  0  0  0  0  0
   19.7020  -29.1960   35.4870 C   0  0  0  0  0  0  0  0  0  0  0  0
   19.4890  -27.7700   35.2340 C   0  0  0  0  0  0  0  0  0  0  0  0
   19.3200  -27.3270   34.1010 O   0  0  0  0  0  0  0  0  0  0  0  0
   19.4830  -26.8620   36.4050 C   0  0  0  0  0  0  0  0  0  0  0  0
   19.2680  -25.5180   36.1560 O   0  0  0  0  0  0  0  0  0  0  0  0
   19.8510  -27.1680   40.1270 C   0  0  0  0  0  0  0  0  0  0  0  0
   19.8420  -26.4010   41.3120 C   0  0  0  0  0  0  0  0  0  0  0  0
   20.0840  -27.1110   42.6310 C   0  0  0  0  0  0  0  0  0  0  0  0
   21.5390  -27.2510   43.0250 C   0  0  0  0  0  0  0  0  0  0  0  0
   22.0050  -26.6710   44.2150 C   0  0  0  0  0  0  0  0  0  0  0  0
   23.3400  -26.8140   44.6000 C   0  0  0  0  0  0  0  0  0  0  0  0
   24.2220  -27.5440   43.8060 C   0  0  0  0  0  0  0  0  0  0  0  0
   23.7690  -28.1360   42.6280 C   0  0  0  0  0  0  0  0  0  0  0  0
   22.4350  -27.9950   42.2420 C   0  0  0  0  0  0  0  0  0  0  0  0
   19.6225  -24.7402   43.3471 H   0  0  0  0  0  0  0  0  0  0  0  0
   20.5277  -23.4911   42.4269 H   0  0  0  0  0  0  0  0  0  0  0  0
   18.7314  -23.4810   42.4269 H   0  0  0  0  0  0  0  0  0  0  0  0
   19.2698  -23.3418   39.8873 H   0  0  0  0  0  0  0  0  0  0  0  0
   19.2902  -24.7234   37.8240 H   0  0  0  0  0  0  0  0  0  0  0  0
   20.2188  -31.2912   38.1275 H   0  0  0  0  0  0  0  0  0  0  0  0
   20.2727  -32.9599   36.2721 H   0  0  0  0  0  0  0  0  0  0  0  0
   19.9593  -32.2137   33.9105 H   0  0  0  0  0  0  0  0  0  0  0  0
   18.8720  -29.2160   32.8800 H   0  0  0  0  0  0  0  0  0  0  0  0
   19.6640  -25.1100   35.4120 H   0  0  0  0  0  0  0  0  0  0  0  0
   20.0060  -28.2549   40.1946 H   0  0  0  0  0  0  0  0  0  0  0  0
   19.5692  -26.5461   43.4221 H   0  0  0  0  0  0  0  0  0  0  0  0
   19.7001  -28.1340   42.5043 H   0  0  0  0  0  0  0  0  0  0  0  0
   21.3128  -26.0987   44.8501 H   0  0  0  0  0  0  0  0  0  0  0  0
   23.6956  -26.3495   45.5316 H   0  0  0  0  0  0  0  0  0  0  0  0
   25.2740  -27.6530   44.1082 H   0  0  0  0  0  0  0  0  0  0  0  0
   24.4637  -28.7150   42.0018 H   0  0  0  0  0  0  0  0  0  0  0  0
   22.0827  -28.4716   41.3153 H   0  0  0  0  0  0  0  0  0  0  0  0
  1  2  1  0
  2  3  2  0
  3  4  1  0
  4  5  2  0
  5  6  1  0
  6  7  1  0
  7  8  1  0
  8  9  2  0
  9 10  1  0
 10 11  2  0
 11 12  1  0
 12 13  1  0
 12 14  2  0
 14 15  1  0
 15 16  2  0
 15 17  1  0
 17 18  1  0
  5 19  1  0
 19 20  2  0
 20 21  1  0
 21 22  1  0
 22 23  2  0
 23 24  1  0
 24 25  2  0
 25 26  1  0
 26 27  2  0
 20  2  1  0
 27 22  1  0
 17  6  2  0
 14  8  1  0
  1 28  1  0
  1 29  1  0
  1 30  1  0
  3 31  1  0
  4 32  1  0
  9 33  1  0
 10 34  1  0
 11 35  1  0
 13 36  1  0
 18 37  1  0
 19 38  1  0
 21 39  1  0
 21 40  1  0
 23 41  1  0
 24 42  1  0
 25 43  1  0
 26 44  1  0
 27 45  1  0
M  END
>  <meeko>  (3) 
{"is_sidechain": [false], "free_energy": -8.604, "intermolecular_energy": -10.514, "internal_energy": -0.238}

$$$$
cand_001_out
     RDKit          3D

 45 48  0  0  0  0  0  0  0  0999 V2000
   20.2470  -31.1010   33.3080 C   0  0  0  0  0  0  0  0  0  0  0  0
   20.0570  -30.3130   34.5740 C   0  0  0  0  0  0  0  0  0  0  0  0
   20.0380  -28.9120   34.4980 C   0  0  0  0  0  0  0  0  0  0  0  0
   19.8340  -28.1310   35.6390 C   0  0  0  0  0  0  0  0  0  0  0  0
   19.6300  -28.7300   36.8860 C   0  0  0  0  0  0  0  0  0  0  0  0
   19.4300  -27.8870   38.0850 C   0  0  0  0  0  0  0  0  0  0  0  0
   20.3230  -28.1850   39.1090 O   0  0  0  0  0  0  0  0  0  0  0  0
   20.2480  -27.4750   40.2800 C   0  0  0  0  0  0  0  0  0  0  0  0
   21.1520  -27.8170   41.2870 C   0  0  0  0  0  0  0  0  0  0  0  0
   21.1310  -27.1320   42.5030 C   0  0  0  0  0  0  0  0  0  0  0  0
   20.2060  -26.1080   42.7140 C   0  0  0  0  0  0  0  0  0  0  0  0
   19.3050  -25.7690   41.7090 C   0  0  0  0  0  0  0  0  0  0  0  0
   18.4280  -24.7560   41.9810 O   0  0  0  0  0  0  0  0  0  0  0  0
   19.3270  -26.4550   40.4910 C   0  0  0  0  0  0  0  0  0  0  0  0
   18.3970  -26.1290   39.4080 C   0  0  0  0  0  0  0  0  0  0  0  0
   17.5600  -25.2360   39.5140 O   0  0  0  0  0  0  0  0  0  0  0  0
   18.4970  -26.9220   38.1600 C   0  0  0  0  0  0  0  0  0  0  0  0
   17.6220  -26.5970   37.1380 O   0  0  0  0  0  0  0  0  0  0  0  0
   19.6540  -30.1280   36.9650 C   0  0  0  0  0  0  0  0  0  0  0  0
   19.8540  -30.9340   35.8240 C   0  0  0  0  0  0  0  0  0  0  0  0
   19.8290  -32.4420   35.9940 C   0  0  0  0  0  0  0  0  0  0  0  0
   19.3780  -32.9250   37.3550 C   0  0  0  0  0  0  0  0  0  0  0  0
   18.6730  -34.1330   37.4760 C   0  0  0  0  0  0  0  0  0  0  0  0
   18.2730  -34.6000   38.7300 C   0  0  0  0  0  0  0  0  0  0  0  0
   18.5780  -33.8720   39.8770 C   0  0  0  0  0  0  0  0  0  0  0  0
   19.2890  -32.6780   39.7720 C   0  0  0  0  0  0  0  0  0  0  0  0
   19.6910  -32.2090   38.5200 C   0  0  0  0  0  0  0  0  0  0  0  0
   20.4981  -32.1423   33.5584 H   0  0  0  0  0  0  0  0  0  0  0  0
   19.3179  -31.0792   32.7196 H   0  0  0  0  0  0  0  0  0  0  0  0
   21.0641  -30.6581   32.7196 H   0  0  0  0  0  0  0  0  0  0  0  0
   20.1860  -28.4206   33.5250 H   0  0  0  0  0  0  0  0  0  0  0  0
   19.8339  -27.0342   35.5552 H   0  0  0  0  0  0  0  0  0  0  0  0
   21.8799  -28.6252   41.1226 H   0  0  0  0  0  0  0  0  0  0  0  0
   21.8445  -27.3995   43.2963 H   0  0  0  0  0  0  0  0  0  0  0  0
   20.1893  -25.5698   43.6732 H   0  0  0  0  0  0  0  0  0  0  0  0
   18.4990  -24.2770   42.7840 H   0  0  0  0  0  0  0  0  0  0  0  0
   16.7520  -26.9430   37.1390 H   0  0  0  0  0  0  0  0  0  0  0  0
   19.5131  -30.6110   37.9432 H   0  0  0  0  0  0  0  0  0  0  0  0
   19.1451  -32.8590   35.2401 H   0  0  0  0  0  0  0  0  0  0  0  0
   20.8686  -32.7817   35.8764 H   0  0  0  0  0  0  0  0  0  0  0  0
   18.4335  -34.7169   36.5751 H   0  0  0  0  0  0  0  0  0  0  0  0
   17.7158  -35.5449   38.8117 H   0  0  0  0  0  0  0  0  0  0  0  0
   18.2585  -34.2384   40.8637 H   0  0  0  0  0  0  0  0  0  0  0  0
   19.5340  -32.1038   40.6777 H   0  0  0  0  0  0  0  0  0  0  0  0
   20.2583  -31.2695   38.4464 H   0  0  0  0  0  0  0  0  0  0  0  0
  1  2  1  0
  2  3  2  0
  3  4  1  0
  4  5  2  0
  5  6  1  0
  6  7  1  0
  7  8  1  0
  8  9  2  0
  9 10  1  0
 10 11  2  0
 11 12  1  0
 12 13  1  0
 12 14  2  0
 14 15  1  0
 15 16  2  0
 15 17  1  0
 17 18  1  0
  5 19  1  0
 19 20  2  0
 20 21  1  0
 21 22  1  0
 22 23  2  0
 23 24  1  0
 24 25  2  0
 25 26  1  0
 26 27  2  0
 20  2  1  0
 27 22  1  0
 17  6  2  0
 14  8  1  0
  1 28  1  0
  1 29  1  0
  1 30  1  0
  3 31  1  0
  4 32  1  0
  9 33  1  0
 10 34  1  0
 11 35  1  0
 13 36  1  0
 18 37  1  0
 19 38  1  0
 21 39  1  0
 21 40  1  0
 23 41  1  0
 24 42  1  0
 25 43  1  0
 26 44  1  0
 27 45  1  0
M  END
>  <meeko>  (4) 
{"is_sidechain": [false], "free_energy": -8.585, "intermolecular_energy": -10.994, "internal_energy": 0.265}

$$$$
cand_001_out
     RDKit          3D

 45 48  0  0  0  0  0  0  0  0999 V2000
   20.0120  -23.4540   43.9760 C   0  0  0  0  0  0  0  0  0  0  0  0
   19.7830  -23.9720   42.5820 C   0  0  0  0  0  0  0  0  0  0  0  0
   19.5550  -23.0490   41.5510 C   0  0  0  0  0  0  0  0  0  0  0  0
   19.3680  -23.4730   40.2330 C   0  0  0  0  0  0  0  0  0  0  0  0
   19.4150  -24.8320   39.9070 C   0  0  0  0  0  0  0  0  0  0  0  0
   19.2000  -25.2640   38.5090 C   0  0  0  0  0  0  0  0  0  0  0  0
   18.0510  -24.7180   37.9470 O   0  0  0  0  0  0  0  0  0  0  0  0
   17.7320  -25.0360   36.6510 C   0  0  0  0  0  0  0  0  0  0  0  0
   16.5640  -24.4780   36.1310 C   0  0  0  0  0  0  0  0  0  0  0  0
   16.1820  -24.7590   34.8180 C   0  0  0  0  0  0  0  0  0  0  0  0
   16.9680  -25.5970   34.0250 C   0  0  0  0  0  0  0  0  0  0  0  0
   18.1340  -26.1530   34.5460 C   0  0  0  0  0  0  0  0  0  0  0  0
   18.8570  -26.9640   33.7140 O   0  0  0  0  0  0  0  0  0  0  0  0
   18.5150  -25.8710   35.8610 C   0  0  0  0  0  0  0  0  0  0  0  0
   19.7330  -26.4340   36.4460 C   0  0  0  0  0  0  0  0  0  0  0  0
   20.4800  -27.1730   35.8100 O   0  0  0  0  0  0  0  0  0  0  0  0
   20.0430  -26.0790   37.8510 C   0  0  0  0  0  0  0  0  0  0  0  0
   21.2030  -26.6060   38.3910 O   0  0  0  0  0  0  0  0  0  0  0  0
   19.6370  -25.7560   40.9370 C   0  0  0  0  0  0  0  0  0  0  0  0
   19.8340  -25.3470   42.2730 C   0  0  0  0  0  0  0  0  0  0  0  0
   20.1040  -26.4120   43.3200 C   0  0  0  0  0  0  0  0  0  0  0  0
   21.5430  -26.8740   43.4070 C   0  0  0  0  0  0  0  0  0  0  0  0
   22.3220  -26.5430   44.5260 C   0  0  0  0  0  0  0  0  0  0  0  0
   23.6440  -26.9840   44.6280 C   0  0  0  0  0  0  0  0  0  0  0  0
   24.1990  -27.7650   43.6170 C   0  0  0  0  0  0  0  0  0  0  0  0
   23.4320  -28.1110   42.5060 C   0  0  0  0  0  0  0  0  0  0  0  0
   22.1110  -27.6730   42.4030 C   0  0  0  0  0  0  0  0  0  0  0  0
   19.6793  -24.2065   44.7061 H   0  0  0  0  0  0  0  0  0  0  0  0
   21.0835  -23.2515   44.1205 H   0  0  0  0  0  0  0  0  0  0  0  0
   19.4406  -22.5252   44.1205 H   0  0  0  0  0  0  0  0  0  0  0  0
   19.5229  -21.9744   41.7837 H   0  0  0  0  0  0  0  0  0  0  0  0
   19.1818  -22.7300   39.4435 H   0  0  0  0  0  0  0  0  0  0  0  0
   15.9445  -23.8171   36.7550 H   0  0  0  0  0  0  0  0  0  0  0  0
   15.2607  -24.3197   34.4078 H   0  0  0  0  0  0  0  0  0  0  0  0
   16.6670  -25.8179   32.9903 H   0  0  0  0  0  0  0  0  0  0  0  0
   18.4170  -27.5080   33.0920 H   0  0  0  0  0  0  0  0  0  0  0  0
   21.1840  -27.4380   38.8200 H   0  0  0  0  0  0  0  0  0  0  0  0
   19.6583  -26.8294   40.6974 H   0  0  0  0  0  0  0  0  0  0  0  0
   19.8159  -26.0066   44.3012 H   0  0  0  0  0  0  0  0  0  0  0  0
   19.5162  -27.2925   43.0213 H   0  0  0  0  0  0  0  0  0  0  0  0
   21.8881  -25.9308   45.3303 H   0  0  0  0  0  0  0  0  0  0  0  0
   24.2470  -26.7141   45.5075 H   0  0  0  0  0  0  0  0  0  0  0  0
   25.2412  -28.1082   43.6954 H   0  0  0  0  0  0  0  0  0  0  0  0
   23.8687  -28.7305   41.7088 H   0  0  0  0  0  0  0  0  0  0  0  0
   21.5095  -27.9567   41.5268 H   0  0  0  0  0  0  0  0  0  0  0  0
  1  2  1  0
  2  3  2  0
  3  4  1  0
  4  5  2  0
  5  6  1  0
  6  7  1  0
  7  8  1  0
  8  9  2  0
  9 10  1  0
 10 11  2  0
 11 12  1  0
 12 13  1  0
 12 14  2  0
 14 15  1  0
 15 16  2  0
 15 17  1  0
 17 18  1  0
  5 19  1  0
 19 20  2  0
 20 21  1  0
 21 22  1  0
 22 23  2  0
 23 24  1  0
 24 25  2  0
 25 26  1  0
 26 27  2  0
 20  2  1  0
 27 22  1  0
 17  6  2  0
 14  8  1  0
  1 28  1  0
  1 29  1  0
  1 30  1  0
  3 31  1  0
  4 32  1  0
  9 33  1  0
 10 34  1  0
 11 35  1  0
 13 36  1  0
 18 37  1  0
 19 38  1  0
 21 39  1  0
 21 40  1  0
 23 41  1  0
 24 42  1  0
 25 43  1  0
 26 44  1  0
 27 45  1  0
M  END
>  <meeko>  (5) 
{"is_sidechain": [false], "free_energy": -8.525, "intermolecular_energy": -9.898, "internal_energy": -0.757}

$$$$
cand_001_out
     RDKit          3D

 45 48  0  0  0  0  0  0  0  0999 V2000
   20.7950  -34.2090   32.7950 C   0  0  0  0  0  0  0  0  0  0  0  0
   20.5280  -33.0000   33.6490 C   0  0  0  0  0  0  0  0  0  0  0  0
   20.9520  -31.7440   33.1880 C   0  0  0  0  0  0  0  0  0  0  0  0
   20.7030  -30.5840   33.9270 C   0  0  0  0  0  0  0  0  0  0  0  0
   20.0110  -30.6460   35.1410 C   0  0  0  0  0  0  0  0  0  0  0  0
   19.7690  -29.4100   35.9150 C   0  0  0  0  0  0  0  0  0  0  0  0
   19.8500  -29.6100   37.2890 O   0  0  0  0  0  0  0  0  0  0  0  0
   19.6460  -28.5420   38.1270 C   0  0  0  0  0  0  0  0  0  0  0  0
   19.7220  -28.7900   39.4980 C   0  0  0  0  0  0  0  0  0  0  0  0
   19.5270  -27.7480   40.4060 C   0  0  0  0  0  0  0  0  0  0  0  0
   19.2560  -26.4580   39.9430 C   0  0  0  0  0  0  0  0  0  0  0  0
   19.1820  -26.2130   38.5750 C   0  0  0  0  0  0  0  0  0  0  0  0
   18.9150  -24.9280   38.1910 O   0  0  0  0  0  0  0  0  0  0  0  0
   19.3770  -27.2580   37.6660 C   0  0  0  0  0  0  0  0  0  0  0  0
   19.3070  -27.0430   36.2200 C   0  0  0  0  0  0  0  0  0  0  0  0
   19.0820  -25.9370   35.7360 O   0  0  0  0  0  0  0  0  0  0  0  0
   19.5210  -28.2190   35.3430 C   0  0  0  0  0  0  0  0  0  0  0  0
   19.4660  -28.0020   33.9780 O   0  0  0  0  0  0  0  0  0  0  0  0
   19.5920  -31.9000   35.6040 C   0  0  0  0  0  0  0  0  0  0  0  0
   19.8300  -33.0820   34.8710 C   0  0  0  0  0  0  0  0  0  0  0  0
   19.3080  -34.3930   35.4300 C   0  0  0  0  0  0  0  0  0  0  0  0
   19.0130  -34.3840   36.9140 C   0  0  0  0  0  0  0  0  0  0  0  0
   19.3980  -35.4700   37.7160 C   0  0  0  0  0  0  0  0  0  0  0  0
   19.1520  -35.4610   39.0910 C   0  0  0  0  0  0  0  0  0  0  0  0
   18.5260  -34.3660   39.6810 C   0  0  0  0  0  0  0  0  0  0  0  0
   18.1490  -33.2760   38.8990 C   0  0  0  0  0  0  0  0  0  0  0  0
   18.3960  -33.2820   37.5250 C   0  0  0  0  0  0  0  0  0  0  0  0
   20.9871  -35.0787   33.4405 H   0  0  0  0  0  0  0  0  0  0  0  0
   19.9196  -34.4099   32.1600 H   0  0  0  0  0  0  0  0  0  0  0  0
   21.6736  -34.0226   32.1600 H   0  0  0  0  0  0  0  0  0  0  0  0
   21.4885  -31.6714   32.2304 H   0  0  0  0  0  0  0  0  0  0  0  0
   21.0549  -29.6124   33.5500 H   0  0  0  0  0  0  0  0  0  0  0  0
   19.9354  -29.8056   39.8628 H   0  0  0  0  0  0  0  0  0  0  0  0
   19.5867  -27.9426   41.4870 H   0  0  0  0  0  0  0  0  0  0  0  0
   19.1013  -25.6371   40.6587 H   0  0  0  0  0  0  0  0  0  0  0  0
   19.1070  -24.2170   38.7690 H   0  0  0  0  0  0  0  0  0  0  0  0
   20.1470  -27.5190   33.5530 H   0  0  0  0  0  0  0  0  0  0  0  0
   19.0626  -31.9651   36.5660 H   0  0  0  0  0  0  0  0  0  0  0  0
   18.3780  -34.6440   34.8989 H   0  0  0  0  0  0  0  0  0  0  0  0
   20.1096  -35.1313   35.2808 H   0  0  0  0  0  0  0  0  0  0  0  0
   19.8979  -36.3359   37.2575 H   0  0  0  0  0  0  0  0  0  0  0  0
   19.4532  -36.3200   39.7085 H   0  0  0  0  0  0  0  0  0  0  0  0
   18.3293  -34.3614   40.7633 H   0  0  0  0  0  0  0  0  0  0  0  0
   17.6562  -32.4099   39.3648 H   0  0  0  0  0  0  0  0  0  0  0  0
   18.1040  -32.4142   36.9154 H   0  0  0  0  0  0  0  0  0  0  0  0
  1  2  1  0
  2  3  2  0
  3  4  1  0
  4  5  2  0
  5  6  1  0
  6  7  1  0
  7  8  1  0
  8  9  2  0
  9 10  1  0
 10 11  2  0
 11 12  1  0
 12 13  1  0
 12 14  2  0
 14 15  1  0
 15 16  2  0
 15 17  1  0
 17 18  1  0
  5 19  1  0
 19 20  2  0
 20 21  1  0
 21 22  1  0
 22 23  2  0
 23 24  1  0
 24 25  2  0
 25 26  1  0
 26 27  2  0
 20  2  1  0
 27 22  1  0
 17  6  2  0
 14  8  1  0
  1 28  1  0
  1 29  1  0
  1 30  1  0
  3 31  1  0
  4 32  1  0
  9 33  1  0
 10 34  1  0
 11 35  1  0
 13 36  1  0
 18 37  1  0
 19 38  1  0
 21 39  1  0
 21 40  1  0
 23 41  1  0
 24 42  1  0
 25 43  1  0
 26 44  1  0
 27 45  1  0
M  END
>  <meeko>  (6) 
{"is_sidechain": [false], "free_energy": -8.264, "intermolecular_energy": -10.707, "internal_energy": 0.375}

$$$$
cand_001_out
     RDKit          3D

 45 48  0  0  0  0  0  0  0  0999 V2000
   19.6950  -24.7750   41.2770 C   0  0  0  0  0  0  0  0  0  0  0  0
   19.6050  -26.0740   40.5240 C   0  0  0  0  0  0  0  0  0  0  0  0
   20.4950  -27.1070   40.8560 C   0  0  0  0  0  0  0  0  0  0  0  0
   20.4360  -28.3440   40.2090 C   0  0  0  0  0  0  0  0  0  0  0  0
   19.4770  -28.5880   39.2210 C   0  0  0  0  0  0  0  0  0  0  0  0
   19.4390  -29.8990   38.5380 C   0  0  0  0  0  0  0  0  0  0  0  0
   19.0640  -30.9370   39.3840 O   0  0  0  0  0  0  0  0  0  0  0  0
   18.9880  -32.2100   38.8760 C   0  0  0  0  0  0  0  0  0  0  0  0
   18.6230  -33.2240   39.7630 C   0  0  0  0  0  0  0  0  0  0  0  0
   18.5240  -34.5410   39.3110 C   0  0  0  0  0  0  0  0  0  0  0  0
   18.7900  -34.8450   37.9750 C   0  0  0  0  0  0  0  0  0  0  0  0
   19.1540  -33.8310   37.0920 C   0  0  0  0  0  0  0  0  0  0  0  0
   19.3990  -34.1980   35.7980 O   0  0  0  0  0  0  0  0  0  0  0  0
   19.2530  -32.5130   37.5450 C   0  0  0  0  0  0  0  0  0  0  0  0
   19.6320  -31.4180   36.6500 C   0  0  0  0  0  0  0  0  0  0  0  0
   19.8740  -31.6030   35.4600 O   0  0  0  0  0  0  0  0  0  0  0  0
   19.7160  -30.0570   37.2310 C   0  0  0  0  0  0  0  0  0  0  0  0
   20.0620  -29.0280   36.3740 O   0  0  0  0  0  0  0  0  0  0  0  0
   18.5910  -27.5560   38.8850 C   0  0  0  0  0  0  0  0  0  0  0  0
   18.6320  -26.3020   39.5290 C   0  0  0  0  0  0  0  0  0  0  0  0
   17.6110  -25.2520   39.1280 C   0  0  0  0  0  0  0  0  0  0  0  0
   18.0730  -24.2850   38.0600 C   0  0  0  0  0  0  0  0  0  0  0  0
   17.7100  -24.4900   36.7190 C   0  0  0  0  0  0  0  0  0  0  0  0
   18.1110  -23.5900   35.7290 C   0  0  0  0  0  0  0  0  0  0  0  0
   18.8710  -22.4740   36.0660 C   0  0  0  0  0  0  0  0  0  0  0  0
   19.2280  -22.2520   37.3950 C   0  0  0  0  0  0  0  0  0  0  0  0
   18.8270  -23.1480   38.3870 C   0  0  0  0  0  0  0  0  0  0  0  0
   19.6811  -24.9763   42.3583 H   0  0  0  0  0  0  0  0  0  0  0  0
   20.6309  -24.2615   41.0117 H   0  0  0  0  0  0  0  0  0  0  0  0
   18.8389  -24.1373   41.0117 H   0  0  0  0  0  0  0  0  0  0  0  0
   21.2508  -26.9403   41.6377 H   0  0  0  0  0  0  0  0  0  0  0  0
   21.1516  -29.1343   40.4797 H   0  0  0  0  0  0  0  0  0  0  0  0
   18.4137  -32.9857   40.8163 H   0  0  0  0  0  0  0  0  0  0  0  0
   18.2358  -35.3408   40.0091 H   0  0  0  0  0  0  0  0  0  0  0  0
   18.7124  -35.8833   37.6201 H   0  0  0  0  0  0  0  0  0  0  0  0
   18.7520  -34.0480   35.1370 H   0  0  0  0  0  0  0  0  0  0  0  0
   20.7740  -28.4590   36.5890 H   0  0  0  0  0  0  0  0  0  0  0  0
   17.8429  -27.7286   38.0973 H   0  0  0  0  0  0  0  0  0  0  0  0
   16.7164  -25.7714   38.7539 H   0  0  0  0  0  0  0  0  0  0  0  0
   17.4217  -24.6483   40.0278 H   0  0  0  0  0  0  0  0  0  0  0  0
   17.1046  -25.3669   36.4459 H   0  0  0  0  0  0  0  0  0  0  0  0
   17.8255  -23.7637   34.6810 H   0  0  0  0  0  0  0  0  0  0  0  0
   19.1895  -21.7681   35.2848 H   0  0  0  0  0  0  0  0  0  0  0  0
   19.8269  -21.3689   37.6624 H   0  0  0  0  0  0  0  0  0  0  0  0
   19.1047  -22.9610   39.4348 H   0  0  0  0  0  0  0  0  0  0  0  0
  1  2  1  0
  2  3  2  0
  3  4  1  0
  4  5  2  0
  5  6  1  0
  6  7  1  0
  7  8  1  0
  8  9  2  0
  9 10  1  0
 10 11  2  0
 11 12  1  0
 12 13  1  0
 12 14  2  0
 14 15  1  0
 15 16  2  0
 15 17  1  0
 17 18  1  0
  5 19  1  0
 19 20  2  0
 20 21  1  0
 21 22  1  0
 22 23  2  0
 23 24  1  0
 24 25  2  0
 25 26  1  0
 26 27  2  0
 20  2  1  0
 27 22  1  0
 17  6  2  0
 14  8  1  0
  1 28  1  0
  1 29  1  0
  1 30  1  0
  3 31  1  0
  4 32  1  0
  9 33  1  0
 10 34  1  0
 11 35  1  0
 13 36  1  0
 18 37  1  0
 19 38  1  0
 21 39  1  0
 21 40  1  0
 23 41  1  0
 24 42  1  0
 25 43  1  0
 26 44  1  0
 27 45  1  0
M  END
>  <meeko>  (7) 
{"is_sidechain": [false], "free_energy": -8.17, "intermolecular_energy": -9.416, "internal_energy": -0.801}

$$$$
cand_001_out
     RDKit          3D

 45 48  0  0  0  0  0  0  0  0999 V2000
   18.0220  -27.5830   36.4730 C   0  0  0  0  0  0  0  0  0  0  0  0
   18.8490  -27.4780   37.7240 C   0  0  0  0  0  0  0  0  0  0  0  0
   18.8610  -28.5620   38.6160 C   0  0  0  0  0  0  0  0  0  0  0  0
   19.6360  -28.5300   39.7780 C   0  0  0  0  0  0  0  0  0  0  0  0
   20.4310  -27.4180   40.0760 C   0  0  0  0  0  0  0  0  0  0  0  0
   21.2330  -27.3960   41.3170 C   0  0  0  0  0  0  0  0  0  0  0  0
   22.2500  -28.3440   41.3190 O   0  0  0  0  0  0  0  0  0  0  0  0
   23.0730  -28.4310   42.4140 C   0  0  0  0  0  0  0  0  0  0  0  0
   24.0710  -29.4060   42.3800 C   0  0  0  0  0  0  0  0  0  0  0  0
   24.9430  -29.5470   43.4610 C   0  0  0  0  0  0  0  0  0  0  0  0
   24.8190  -28.7140   44.5740 C   0  0  0  0  0  0  0  0  0  0  0  0
   23.8220  -27.7420   44.6060 C   0  0  0  0  0  0  0  0  0  0  0  0
   23.7570  -26.9600   45.7260 O   0  0  0  0  0  0  0  0  0  0  0  0
   22.9480  -27.6020   43.5230 C   0  0  0  0  0  0  0  0  0  0  0  0
   21.8880  -26.5930   43.5160 C   0  0  0  0  0  0  0  0  0  0  0  0
   21.7190  -25.8180   44.4550 O   0  0  0  0  0  0  0  0  0  0  0  0
   21.0100  -26.5320   42.3240 C   0  0  0  0  0  0  0  0  0  0  0  0
   20.0190  -25.5660   42.3220 O   0  0  0  0  0  0  0  0  0  0  0  0
   20.4150  -26.3330   39.1890 C   0  0  0  0  0  0  0  0  0  0  0  0
   19.6430  -26.3480   38.0080 C   0  0  0  0  0  0  0  0  0  0  0  0
   19.7140  -25.1440   37.0860 C   0  0  0  0  0  0  0  0  0  0  0  0
   18.7210  -24.0440   37.3930 C   0  0  0  0  0  0  0  0  0  0  0  0
   19.0660  -23.0110   38.2790 C   0  0  0  0  0  0  0  0  0  0  0  0
   18.1660  -21.9780   38.5510 C   0  0  0  0  0  0  0  0  0  0  0  0
   16.9170  -21.9600   37.9350 C   0  0  0  0  0  0  0  0  0  0  0  0
   16.5670  -22.9730   37.0440 C   0  0  0  0  0  0  0  0  0  0  0  0
   17.4650  -24.0060   36.7700 C   0  0  0  0  0  0  0  0  0  0  0  0
   16.9641  -27.7173   36.7430 H   0  0  0  0  0  0  0  0  0  0  0  0
   18.1352  -26.6633   35.8803 H   0  0  0  0  0  0  0  0  0  0  0  0
   18.3615  -28.4453   35.8803 H   0  0  0  0  0  0  0  0  0  0  0  0
   18.2507  -29.4505   38.3966 H   0  0  0  0  0  0  0  0  0  0  0  0
   19.6210  -29.3882   40.4659 H   0  0  0  0  0  0  0  0  0  0  0  0
   24.1703  -30.0623   41.5028 H   0  0  0  0  0  0  0  0  0  0  0  0
   25.7292  -30.3159   43.4356 H   0  0  0  0  0  0  0  0  0  0  0  0
   25.5076  -28.8250   45.4246 H   0  0  0  0  0  0  0  0  0  0  0  0
   23.4560  -27.3250   46.5350 H   0  0  0  0  0  0  0  0  0  0  0  0
   19.9560  -24.9590   43.0320 H   0  0  0  0  0  0  0  0  0  0  0  0
   21.0213  -25.4447   39.4200 H   0  0  0  0  0  0  0  0  0  0  0  0
   20.7263  -24.7194   37.1566 H   0  0  0  0  0  0  0  0  0  0  0  0
   19.4639  -25.5120   36.0800 H   0  0  0  0  0  0  0  0  0  0  0  0
   20.0537  -23.0152   38.7632 H   0  0  0  0  0  0  0  0  0  0  0  0
   18.4440  -21.1777   39.2526 H   0  0  0  0  0  0  0  0  0  0  0  0
   16.2078  -21.1475   38.1514 H   0  0  0  0  0  0  0  0  0  0  0  0
   15.5814  -22.9584   36.5558 H   0  0  0  0  0  0  0  0  0  0  0  0
   17.1850  -24.7973   36.0591 H   0  0  0  0  0  0  0  0  0  0  0  0
  1  2  1  0
  2  3  2  0
  3  4  1  0
  4  5  2  0
  5  6  1  0
  6  7  1  0
  7  8  1  0
  8  9  2  0
  9 10  1  0
 10 11  2  0
 11 12  1  0
 12 13  1  0
 12 14  2  0
 14 15  1  0
 15 16  2  0
 15 17  1  0
 17 18  1  0
  5 19  1  0
 19 20  2  0
 20 21  1  0
 21 22  1  0
 22 23  2  0
 23 24  1  0
 24 25  2  0
 25 26  1  0
 26 27  2  0
 20  2  1  0
 27 22  1  0
 17  6  2  0
 14  8  1  0
  1 28  1  0
  1 29  1  0
  1 30  1  0
  3 31  1  0
  4 32  1  0
  9 33  1  0
 10 34  1  0
 11 35  1  0
 13 36  1  0
 18 37  1  0
 19 38  1  0
 21 39  1  0
 21 40  1  0
 23 41  1  0
 24 42  1  0
 25 43  1  0
 26 44  1  0
 27 45  1  0
M  END
>  <meeko>  (8) 
{"is_sidechain": [false], "free_energy": -8.165, "intermolecular_energy": -9.288, "internal_energy": -0.923}

$$$$
cand_001_out
     RDKit          3D

 45 48  0  0  0  0  0  0  0  0999 V2000
   20.2880  -27.1460   39.5830 C   0  0  0  0  0  0  0  0  0  0  0  0
   20.1070  -25.9180   40.4320 C   0  0  0  0  0  0  0  0  0  0  0  0
   19.8560  -24.6920   39.7970 C   0  0  0  0  0  0  0  0  0  0  0  0
   19.6500  -23.5260   40.5390 C   0  0  0  0  0  0  0  0  0  0  0  0
   19.6780  -23.5550   41.9370 C   0  0  0  0  0  0  0  0  0  0  0  0
   19.4720  -22.3080   42.7040 C   0  0  0  0  0  0  0  0  0  0  0  0
   18.1310  -21.9540   42.8090 O   0  0  0  0  0  0  0  0  0  0  0  0
   17.7990  -20.8150   43.4980 C   0  0  0  0  0  0  0  0  0  0  0  0
   16.4430  -20.4890   43.5660 C   0  0  0  0  0  0  0  0  0  0  0  0
   16.0360  -19.3440   44.2530 C   0  0  0  0  0  0  0  0  0  0  0  0
   16.9830  -18.5260   44.8730 C   0  0  0  0  0  0  0  0  0  0  0  0
   18.3350  -18.8530   44.8040 C   0  0  0  0  0  0  0  0  0  0  0  0
   19.2070  -18.0090   45.4340 O   0  0  0  0  0  0  0  0  0  0  0  0
   18.7420  -20.0000   44.1150 C   0  0  0  0  0  0  0  0  0  0  0  0
   20.1520  -20.3800   44.0190 C   0  0  0  0  0  0  0  0  0  0  0  0
   21.0430  -19.7160   44.5440 O   0  0  0  0  0  0  0  0  0  0  0  0
   20.4780  -21.6090   43.2590 C   0  0  0  0  0  0  0  0  0  0  0  0
   21.8130  -21.9660   43.1860 O   0  0  0  0  0  0  0  0  0  0  0  0
   19.9340  -24.7770   42.5720 C   0  0  0  0  0  0  0  0  0  0  0  0
   20.1400  -25.9660   41.8410 C   0  0  0  0  0  0  0  0  0  0  0  0
   20.3750  -27.2530   42.6110 C   0  0  0  0  0  0  0  0  0  0  0  0
   21.8010  -27.4740   43.0680 C   0  0  0  0  0  0  0  0  0  0  0  0
   22.2470  -26.9160   44.2760 C   0  0  0  0  0  0  0  0  0  0  0  0
   23.5540  -27.1330   44.7190 C   0  0  0  0  0  0  0  0  0  0  0  0
   24.4260  -27.9150   43.9660 C   0  0  0  0  0  0  0  0  0  0  0  0
   23.9920  -28.4850   42.7700 C   0  0  0  0  0  0  0  0  0  0  0  0
   22.6860  -28.2700   42.3260 C   0  0  0  0  0  0  0  0  0  0  0  0
   20.4175  -28.0246   40.2320 H   0  0  0  0  0  0  0  0  0  0  0  0
   19.4009  -27.2868   38.9480 H   0  0  0  0  0  0  0  0  0  0  0  0
   21.1780  -27.0248   38.9480 H   0  0  0  0  0  0  0  0  0  0  0  0
   19.8209  -24.6482   38.6984 H   0  0  0  0  0  0  0  0  0  0  0  0
   19.4638  -22.5752   40.0181 H   0  0  0  0  0  0  0  0  0  0  0  0
   15.6965  -21.1336   43.0789 H   0  0  0  0  0  0  0  0  0  0  0  0
   14.9681  -19.0857   44.3061 H   0  0  0  0  0  0  0  0  0  0  0  0
   16.6615  -17.6245   45.4152 H   0  0  0  0  0  0  0  0  0  0  0  0
   19.5790  -17.2860   44.9670 H   0  0  0  0  0  0  0  0  0  0  0  0
   22.0630  -22.8650   43.2680 H   0  0  0  0  0  0  0  0  0  0  0  0
   19.9756  -24.8105   43.6707 H   0  0  0  0  0  0  0  0  0  0  0  0
   19.7294  -27.2405   43.5015 H   0  0  0  0  0  0  0  0  0  0  0  0
   20.1444  -28.0736   41.9157 H   0  0  0  0  0  0  0  0  0  0  0  0
   21.5616  -26.3025   44.8792 H   0  0  0  0  0  0  0  0  0  0  0  0
   23.8948  -26.6854   45.6642 H   0  0  0  0  0  0  0  0  0  0  0  0
   25.4558  -28.0828   44.3143 H   0  0  0  0  0  0  0  0  0  0  0  0
   24.6794  -29.1048   42.1755 H   0  0  0  0  0  0  0  0  0  0  0  0
   22.3478  -28.7292   41.3854 H   0  0  0  0  0  0  0  0  0  0  0  0
  1  2  1  0
  2  3  2  0
  3  4  1  0
  4  5  2  0
  5  6  1  0
  6  7  1  0
  7  8  1  0
  8  9  2  0
  9 10  1  0
 10 11  2  0
 11 12  1  0
 12 13  1  0
 12 14  2  0
 14 15  1  0
 15 16  2  0
 15 17  1  0
 17 18  1  0
  5 19  1  0
 19 20  2  0
 20 21  1  0
 21 22  1  0
 22 23  2  0
 23 24  1  0
 24 25  2  0
 25 26  1  0
 26 27  2  0
 20  2  1  0
 27 22  1  0
 17  6  2  0
 14  8  1  0
  1 28  1  0
  1 29  1  0
  1 30  1  0
  3 31  1  0
  4 32  1  0
  9 33  1  0
 10 34  1  0
 11 35  1  0
 13 36  1  0
 18 37  1  0
 19 38  1  0
 21 39  1  0
 21 40  1  0
 23 41  1  0
 24 42  1  0
 25 43  1  0
 26 44  1  0
 27 45  1  0
M  END
>  <meeko>  (9) 
{"is_sidechain": [false], "free_energy": -8.156, "intermolecular_energy": -9.187, "internal_energy": -1.012}

$$$$
