cand_036_out
     RDKit          3D

 35 37  0  0  0  0  0  0  0  0999 V2000
   19.0110  -25.0190   40.8050 C   0  0  0  0  0  0  0  0  0  0  0  0
   19.1000  -26.3950   40.2050 C   0  0  0  0  0  0  0  0  0  0  0  0
   18.2260  -26.7520   39.1700 C   0  0  0  0  0  0  0  0  0  0  0  0
   18.2800  -28.0220   38.5900 C   0  0  0  0  0  0  0  0  0  0  0  0
   19.2060  -28.9720   39.0340 C   0  0  0  0  0  0  0  0  0  0  0  0
   19.3020  -30.3130   38.4190 C   0  0  0  0  0  0  0  0  0  0  0  0
   18.8770  -31.3270   39.2680 O   0  0  0  0  0  0  0  0  0  0  0  0
   18.9130  -32.6240   38.8230 C   0  0  0  0  0  0  0  0  0  0  0  0
   18.4910  -33.6120   39.7140 C   0  0  0  0  0  0  0  0  0  0  0  0
   18.5010  -34.9530   39.3230 C   0  0  0  0  0  0  0  0  0  0  0  0
   18.9310  -35.3050   38.0420 C   0  0  0  0  0  0  0  0  0  0  0  0
   19.3520  -34.3170   37.1550 C   0  0  0  0  0  0  0  0  0  0  0  0
   19.7610  -34.7320   35.9170 O   0  0  0  0  0  0  0  0  0  0  0  0
   19.3430  -32.9760   37.5470 C   0  0  0  0  0  0  0  0  0  0  0  0
   19.7770  -31.9070   36.6460 C   0  0  0  0  0  0  0  0  0  0  0  0
   20.1630  -32.1370   35.5020 O   0  0  0  0  0  0  0  0  0  0  0  0
   19.7360  -30.5180   37.1620 C   0  0  0  0  0  0  0  0  0  0  0  0
   20.1350  -29.5160   36.2980 O   0  0  0  0  0  0  0  0  0  0  0  0
   20.0880  -28.6090   40.0640 C   0  0  0  0  0  0  0  0  0  0  0  0
   20.0470  -27.3350   40.6570 C   0  0  0  0  0  0  0  0  0  0  0  0
   21.0120  -27.0060   41.7630 C   0  0  0  0  0  0  0  0  0  0  0  0
   19.0160  -25.0964   41.9023 H   0  0  0  0  0  0  0  0  0  0  0  0
   19.8722  -24.4190   40.4758 H   0  0  0  0  0  0  0  0  0  0  0  0
   18.0797  -24.5350   40.4758 H   0  0  0  0  0  0  0  0  0  0  0  0
   17.4866  -26.0220   38.8088 H   0  0  0  0  0  0  0  0  0  0  0  0
   17.5867  -28.2777   37.7752 H   0  0  0  0  0  0  0  0  0  0  0  0
   18.1510  -33.3350   40.7228 H   0  0  0  0  0  0  0  0  0  0  0  0
   18.1698  -35.7325   40.0249 H   0  0  0  0  0  0  0  0  0  0  0  0
   18.9373  -36.3609   37.7338 H   0  0  0  0  0  0  0  0  0  0  0  0
   19.1820  -35.2300   35.3750 H   0  0  0  0  0  0  0  0  0  0  0  0
   20.3530  -28.6680   36.6330 H   0  0  0  0  0  0  0  0  0  0  0  0
   20.8304  -29.3403   40.4162 H   0  0  0  0  0  0  0  0  0  0  0  0
   20.5255  -27.1719   42.7355 H   0  0  0  0  0  0  0  0  0  0  0  0
   21.8979  -27.6529   41.6811 H   0  0  0  0  0  0  0  0  0  0  0  0
   21.3183  -25.9527   41.6811 H   0  0  0  0  0  0  0  0  0  0  0  0
  1  2  1  0
  2  3  2  0
  3  4  1  0
  4  5  2  0
  5  6  1  0
  6  7  1  0
  7  8  1  0
  8  9  2  0
  9 10  1  0
 10 11  2  0
 11 12  1  0
 12 13  1  0
 12 14  2  0
 14 15  1  0
 15 16  2  0
 15 17  1  0
 17 18  1  0
  5 19  1  0
 19 20  2  0
 20 21  1  0
 20  2  1  0
 17  6  2  0
 14  8  1  0
  1 22  1  0
  1 23  1  0
  1 24  1  0
  3 25  1  0
  4 26  1  0
  9 27  1  0
 10 28  1  0
 11 29  1  0
 13 30  1  0
 18 31  1  0
 19 32  1  0
 21 33  1  0
 21 34  1  0
 21 35  1  0
M  END
>  <meeko>  (1) 
{"is_sidechain": [false], "free_energy": -7.911, "intermolecular_energy": -8.835, "internal_energy": -0.238}

$$$$
cand_036_out
     RDKit          3D

 35 37  0  0  0  0  0  0  0  0999 V2000
   19.5830  -33.7330   36.1310 C   0  0  0  0  0  0  0  0  0  0  0  0
   19.4810  -32.4730   36.9460 C   0  0  0  0  0  0  0  0  0  0  0  0
   19.9080  -31.2590   36.3910 C   0  0  0  0  0  0  0  0  0  0  0  0
   19.8290  -30.0700   37.1200 C   0  0  0  0  0  0  0  0  0  0  0  0
   19.3280  -30.0640   38.4250 C   0  0  0  0  0  0  0  0  0  0  0  0
   19.2090  -28.8150   39.2070 C   0  0  0  0  0  0  0  0  0  0  0  0
   20.1150  -28.7480   40.2590 O   0  0  0  0  0  0  0  0  0  0  0  0
   20.1140  -27.6410   41.0680 C   0  0  0  0  0  0  0  0  0  0  0  0
   21.0300  -27.6230   42.1200 C   0  0  0  0  0  0  0  0  0  0  0  0
   21.0820  -26.5230   42.9800 C   0  0  0  0  0  0  0  0  0  0  0  0
   20.2190  -25.4430   42.7870 C   0  0  0  0  0  0  0  0  0  0  0  0
   19.3050  -25.4630   41.7360 C   0  0  0  0  0  0  0  0  0  0  0  0
   18.4900  -24.3730   41.6050 O   0  0  0  0  0  0  0  0  0  0  0  0
   19.2530  -26.5640   40.8760 C   0  0  0  0  0  0  0  0  0  0  0  0
   18.3080  -26.6260   39.7600 C   0  0  0  0  0  0  0  0  0  0  0  0
   17.5220  -25.7120   39.5220 O   0  0  0  0  0  0  0  0  0  0  0  0
   18.3280  -27.8410   38.9130 C   0  0  0  0  0  0  0  0  0  0  0  0
   17.4410  -27.8820   37.8540 O   0  0  0  0  0  0  0  0  0  0  0  0
   18.8920  -31.2790   38.9760 C   0  0  0  0  0  0  0  0  0  0  0  0
   18.9630  -32.4840   38.2550 C   0  0  0  0  0  0  0  0  0  0  0  0
   18.4880  -33.7570   38.9000 C   0  0  0  0  0  0  0  0  0  0  0  0
   19.6532  -34.6003   36.8040 H   0  0  0  0  0  0  0  0  0  0  0  0
   18.6900  -33.8326   35.4965 H   0  0  0  0  0  0  0  0  0  0  0  0
   20.4804  -33.6876   35.4965 H   0  0  0  0  0  0  0  0  0  0  0  0
   20.3108  -31.2422   35.3675 H   0  0  0  0  0  0  0  0  0  0  0  0
   20.1648  -29.1279   36.6620 H   0  0  0  0  0  0  0  0  0  0  0  0
   21.7105  -28.4737   42.2723 H   0  0  0  0  0  0  0  0  0  0  0  0
   21.8037  -26.5081   43.8100 H   0  0  0  0  0  0  0  0  0  0  0  0
   20.2606  -24.5771   43.4641 H   0  0  0  0  0  0  0  0  0  0  0  0
   18.4690  -23.7190   42.2760 H   0  0  0  0  0  0  0  0  0  0  0  0
   17.5480  -27.2970   37.1290 H   0  0  0  0  0  0  0  0  0  0  0  0
   18.4845  -31.2888   39.9977 H   0  0  0  0  0  0  0  0  0  0  0  0
   18.5277  -33.6506   39.9941 H   0  0  0  0  0  0  0  0  0  0  0  0
   17.4530  -33.9617   38.5888 H   0  0  0  0  0  0  0  0  0  0  0  0
   19.1359  -34.5897   38.5888 H   0  0  0  0  0  0  0  0  0  0  0  0
  1  2  1  0
  2  3  2  0
  3  4  1  0
  4  5  2  0
  5  6  1  0
  6  7  1  0
  7  8  1  0
  8  9  2  0
  9 10  1  0
 10 11  2  0
 11 12  1  0
 12 13  1  0
 12 14  2  0
 14 15  1  0
 15 16  2  0
 15 17  1  0
 17 18  1  0
  5 19  1  0
 19 20  2  0
 20 21  1  0
 20  2  1  0
 17  6  2  0
 14  8  1  0
  1 22  1  0
  1 23  1  0
  1 24  1  0
  3 25  1  0
  4 26  1  0
  9 27  1  0
 10 28  1  0
 11 29  1  0
 13 30  1  0
 18 31  1  0
 19 32  1  0
 21 33  1  0
 21 34  1  0
 21 35  1  0
M  END
>  <meeko>  (2) 
{"is_sidechain": [false], "free_energy": -7.518, "intermolecular_energy": -8.39, "internal_energy": -0.245}

$$$$
cand_036_out
     RDKit          3D

 35 37  0  0  0  0  0  0  0  0999 V2000
   18.0090  -27.2780   36.4740 C   0  0  0  0  0  0  0  0  0  0  0  0
   18.8250  -27.2640   37.7380 C   0  0  0  0  0  0  0  0  0  0  0  0
   18.9400  -28.4380   38.4940 C   0  0  0  0  0  0  0  0  0  0  0  0
   19.6890  -28.4620   39.6730 C   0  0  0  0  0  0  0  0  0  0  0  0
   20.3360  -27.3100   40.1320 C   0  0  0  0  0  0  0  0  0  0  0  0
   21.1560  -27.3160   41.3620 C   0  0  0  0  0  0  0  0  0  0  0  0
   22.1620  -28.2750   41.3360 O   0  0  0  0  0  0  0  0  0  0  0  0
   22.9990  -28.3890   42.4160 C   0  0  0  0  0  0  0  0  0  0  0  0
   23.9850  -29.3750   42.3530 C   0  0  0  0  0  0  0  0  0  0  0  0
   24.8710  -29.5420   43.4190 C   0  0  0  0  0  0  0  0  0  0  0  0
   24.7730  -28.7240   44.5470 C   0  0  0  0  0  0  0  0  0  0  0  0
   23.7880  -27.7410   44.6070 C   0  0  0  0  0  0  0  0  0  0  0  0
   23.7480  -26.9760   45.7400 O   0  0  0  0  0  0  0  0  0  0  0  0
   22.9010  -27.5740   43.5400 C   0  0  0  0  0  0  0  0  0  0  0  0
   21.8510  -26.5540   43.5630 C   0  0  0  0  0  0  0  0  0  0  0  0
   21.7050  -25.7920   44.5170 O   0  0  0  0  0  0  0  0  0  0  0  0
   20.9570  -26.4650   42.3850 C   0  0  0  0  0  0  0  0  0  0  0  0
   19.9790  -25.4890   42.4120 O   0  0  0  0  0  0  0  0  0  0  0  0
   20.2270  -26.1380   39.3680 C   0  0  0  0  0  0  0  0  0  0  0  0
   19.4790  -26.0980   38.1790 C   0  0  0  0  0  0  0  0  0  0  0  0
   19.3920  -24.8100   37.4070 C   0  0  0  0  0  0  0  0  0  0  0  0
   16.9390  -27.2964   36.7285 H   0  0  0  0  0  0  0  0  0  0  0  0
   18.2303  -26.3759   35.8847 H   0  0  0  0  0  0  0  0  0  0  0  0
   18.2611  -28.1720   35.8847 H   0  0  0  0  0  0  0  0  0  0  0  0
   18.4335  -29.3535   38.1545 H   0  0  0  0  0  0  0  0  0  0  0  0
   19.7708  -29.3970   40.2466 H   0  0  0  0  0  0  0  0  0  0  0  0
   24.0638  -30.0194   41.4650 H   0  0  0  0  0  0  0  0  0  0  0  0
   25.6478  -30.3193   43.3705 H   0  0  0  0  0  0  0  0  0  0  0  0
   25.4721  -28.8558   45.3860 H   0  0  0  0  0  0  0  0  0  0  0  0
   23.5900  -27.3770   46.5710 H   0  0  0  0  0  0  0  0  0  0  0  0
   19.4270  -25.3570   41.6660 H   0  0  0  0  0  0  0  0  0  0  0  0
   20.7405  -25.2268   39.7087 H   0  0  0  0  0  0  0  0  0  0  0  0
   19.3349  -23.9650   38.1089 H   0  0  0  0  0  0  0  0  0  0  0  0
   20.2848  -24.7010   36.7738 H   0  0  0  0  0  0  0  0  0  0  0  0
   18.4926  -24.8221   36.7738 H   0  0  0  0  0  0  0  0  0  0  0  0
  1  2  1  0
  2  3  2  0
  3  4  1  0
  4  5  2  0
  5  6  1  0
  6  7  1  0
  7  8  1  0
  8  9  2  0
  9 10  1  0
 10 11  2  0
 11 12  1  0
 12 13  1  0
 12 14  2  0
 14 15  1  0
 15 16  2  0
 15 17  1  0
 17 18  1  0
  5 19  1  0
 19 20  2  0
 20 21  1  0
 20  2  1  0
 17  6  2  0
 14  8  1  0
  1 22  1  0
  1 23  1  0
  1 24  1  0
  3 25  1  0
  4 26  1  0
  9 27  1  0
 10 28  1  0
 11 29  1  0
 13 30  1  0
 18 31  1  0
 19 32  1  0
 21 33  1  0
 21 34  1  0
 21 35  1  0
M  END
>  <meeko>  (3) 
{"is_sidechain": [false], "free_energy": -7.204, "intermolecular_energy": -8.178, "internal_energy": -0.107}

$$$$
cand_036_out
     RDKit          3D

 35 37  0  0  0  0  0  0  0  0999 V2000
   24.3200  -28.6400   45.0380 C   0  0  0  0  0  0  0  0  0  0  0  0
   23.3700  -28.1750   43.9690 C   0  0  0  0  0  0  0  0  0  0  0  0
   22.4040  -27.2080   44.2790 C   0  0  0  0  0  0  0  0  0  0  0  0
   21.5060  -26.7540   43.3110 C   0  0  0  0  0  0  0  0  0  0  0  0
   21.5440  -27.2590   42.0080 C   0  0  0  0  0  0  0  0  0  0  0  0
   20.6220  -26.7750   40.9580 C   0  0  0  0  0  0  0  0  0  0  0  0
   20.5240  -25.3890   40.9230 O   0  0  0  0  0  0  0  0  0  0  0  0
   19.7010  -24.8050   39.9940 C   0  0  0  0  0  0  0  0  0  0  0  0
   19.6200  -23.4120   40.0050 C   0  0  0  0  0  0  0  0  0  0  0  0
   18.8020  -22.7540   39.0840 C   0  0  0  0  0  0  0  0  0  0  0  0
   18.0650  -23.4890   38.1530 C   0  0  0  0  0  0  0  0  0  0  0  0
   18.1480  -24.8790   38.1440 C   0  0  0  0  0  0  0  0  0  0  0  0
   17.4000  -25.5360   37.2060 O   0  0  0  0  0  0  0  0  0  0  0  0
   18.9660  -25.5370   39.0660 C   0  0  0  0  0  0  0  0  0  0  0  0
   19.0810  -26.9960   39.0920 C   0  0  0  0  0  0  0  0  0  0  0  0
   18.4680  -27.7100   38.3000 O   0  0  0  0  0  0  0  0  0  0  0  0
   19.9690  -27.5950   40.1140 C   0  0  0  0  0  0  0  0  0  0  0  0
   20.0800  -28.9730   40.1200 O   0  0  0  0  0  0  0  0  0  0  0  0
   22.5180  -28.2200   41.6950 C   0  0  0  0  0  0  0  0  0  0  0  0
   23.4310  -28.6860   42.6580 C   0  0  0  0  0  0  0  0  0  0  0  0
   24.4470  -29.7240   42.2670 C   0  0  0  0  0  0  0  0  0  0  0  0
   23.8895  -28.4293   46.0281 H   0  0  0  0  0  0  0  0  0  0  0  0
   24.4879  -29.7221   44.9339 H   0  0  0  0  0  0  0  0  0  0  0  0
   25.2776  -28.1087   44.9339 H   0  0  0  0  0  0  0  0  0  0  0  0
   22.3526  -26.8009   45.2996 H   0  0  0  0  0  0  0  0  0  0  0  0
   20.7602  -25.9903   43.5767 H   0  0  0  0  0  0  0  0  0  0  0  0
   20.2000  -22.8327   40.7385 H   0  0  0  0  0  0  0  0  0  0  0  0
   18.7382  -21.6559   39.0919 H   0  0  0  0  0  0  0  0  0  0  0  0
   17.4200  -22.9709   37.4280 H   0  0  0  0  0  0  0  0  0  0  0  0
   17.8230  -26.0270   36.5290 H   0  0  0  0  0  0  0  0  0  0  0  0
   20.8290  -29.3850   39.7350 H   0  0  0  0  0  0  0  0  0  0  0  0
   22.5685  -28.6186   40.6710 H   0  0  0  0  0  0  0  0  0  0  0  0
   24.8832  -30.1697   43.1731 H   0  0  0  0  0  0  0  0  0  0  0  0
   23.9585  -30.5089   41.6710 H   0  0  0  0  0  0  0  0  0  0  0  0
   25.2422  -29.2525   41.6710 H   0  0  0  0  0  0  0  0  0  0  0  0
  1  2  1  0
  2  3  2  0
  3  4  1  0
  4  5  2  0
  5  6  1  0
  6  7  1  0
  7  8  1  0
  8  9  2  0
  9 10  1  0
 10 11  2  0
 11 12  1  0
 12 13  1  0
 12 14  2  0
 14 15  1  0
 15 16  2  0
 15 17  1  0
 17 18  1  0
  5 19  1  0
 19 20  2  0
 20 21  1  0
 20  2  1  0
 17  6  2  0
 14  8  1  0
  1 22  1  0
  1 23  1  0
  1 24  1  0
  3 25  1  0
  4 26  1  0
  9 27  1  0
 10 28  1  0
 11 29  1  0
 13 30  1  0
 18 31  1  0
 19 32  1  0
 21 33  1  0
 21 34  1  0
 21 35  1  0
M  END
>  <meeko>  (4) 
{"is_sidechain": [false], "free_energy": -7.062, "intermolecular_energy": -8.13, "internal_energy": 0.004}

$$$$
cand_036_out
     RDKit          3D

 35 37  0  0  0  0  0  0  0  0999 V2000
   19.1080  -25.2180   41.6120 C   0  0  0  0  0  0  0  0  0  0  0  0
   19.2250  -26.4030   40.6940 C   0  0  0  0  0  0  0  0  0  0  0  0
   18.3130  -26.5490   39.6400 C   0  0  0  0  0  0  0  0  0  0  0  0
   18.3910  -27.6370   38.7680 C   0  0  0  0  0  0  0  0  0  0  0  0
   19.3790  -28.6140   38.9300 C   0  0  0  0  0  0  0  0  0  0  0  0
   19.4990  -29.7610   38.0060 C   0  0  0  0  0  0  0  0  0  0  0  0
   19.8760  -29.3820   36.7230 O   0  0  0  0  0  0  0  0  0  0  0  0
   20.0260  -30.3490   35.7620 C   0  0  0  0  0  0  0  0  0  0  0  0
   20.3900  -29.9230   34.4840 C   0  0  0  0  0  0  0  0  0  0  0  0
   20.5610  -30.8570   33.4600 C   0  0  0  0  0  0  0  0  0  0  0  0
   20.3680  -32.2170   33.7140 C   0  0  0  0  0  0  0  0  0  0  0  0
   20.0050  -32.6400   34.9900 C   0  0  0  0  0  0  0  0  0  0  0  0
   19.8320  -33.9850   35.1690 O   0  0  0  0  0  0  0  0  0  0  0  0
   19.8330  -31.7040   36.0140 C   0  0  0  0  0  0  0  0  0  0  0  0
   19.4510  -32.1060   37.3690 C   0  0  0  0  0  0  0  0  0  0  0  0
   19.2700  -33.2840   37.6710 O   0  0  0  0  0  0  0  0  0  0  0  0
   19.2870  -31.0360   38.3800 C   0  0  0  0  0  0  0  0  0  0  0  0
   18.9400  -31.4280   39.6590 O   0  0  0  0  0  0  0  0  0  0  0  0
   20.2980  -28.4610   39.9810 C   0  0  0  0  0  0  0  0  0  0  0  0
   20.2340  -27.3710   40.8660 C   0  0  0  0  0  0  0  0  0  0  0  0
   21.2410  -27.2650   41.9780 C   0  0  0  0  0  0  0  0  0  0  0  0
   19.1417  -25.5592   42.6572 H   0  0  0  0  0  0  0  0  0  0  0  0
   19.9422  -24.5257   41.4252 H   0  0  0  0  0  0  0  0  0  0  0  0
   18.1546  -24.7022   41.4252 H   0  0  0  0  0  0  0  0  0  0  0  0
   17.5242  -25.7956   39.4975 H   0  0  0  0  0  0  0  0  0  0  0  0
   17.6673  -27.7268   37.9444 H   0  0  0  0  0  0  0  0  0  0  0  0
   20.5421  -28.8522   34.2833 H   0  0  0  0  0  0  0  0  0  0  0  0
   20.8479  -30.5215   32.4525 H   0  0  0  0  0  0  0  0  0  0  0  0
   20.5026  -32.9526   32.9073 H   0  0  0  0  0  0  0  0  0  0  0  0
   19.0050  -34.3810   34.9760 H   0  0  0  0  0  0  0  0  0  0  0  0
   18.1730  -31.0740   40.0660 H   0  0  0  0  0  0  0  0  0  0  0  0
   21.0886  -29.2140   40.1150 H   0  0  0  0  0  0  0  0  0  0  0  0
   20.7239  -27.3194   42.9474 H   0  0  0  0  0  0  0  0  0  0  0  0
   21.9618  -28.0922   41.9000 H   0  0  0  0  0  0  0  0  0  0  0  0
   21.7738  -26.3058   41.9000 H   0  0  0  0  0  0  0  0  0  0  0  0
  1  2  1  0
  2  3  2  0
  3  4  1  0
  4  5  2  0
  5  6  1  0
  6  7  1  0
  7  8  1  0
  8  9  2  0
  9 10  1  0
 10 11  2  0
 11 12  1  0
 12 13  1  0
 12 14  2  0
 14 15  1  0
 15 16  2  0
 15 17  1  0
 17 18  1  0
  5 19  1  0
 19 20  2  0
 20 21  1  0
 20  2  1  0
 17  6  2  0
 14  8  1  0
  1 22  1  0
  1 23  1  0
  1 24  1  0
  3 25  1  0
  4 26  1  0
  9 27  1  0
 10 28  1  0
 11 29  1  0
 13 30  1  0
 18 31  1  0
 19 32  1  0
 21 33  1  0
 21 34  1  0
 21 35  1  0
M  END
>  <meeko>  (5) 
{"is_sidechain": [false], "free_energy": -6.991, "intermolecular_energy": -7.822, "internal_energy": -0.224}

$$$$
cand_036_out
     RDKit          3D

 35 37  0  0  0  0  0  0  0  0999 V2000
   25.0030  -29.1230   44.9910 C   0  0  0  0  0  0  0  0  0  0  0  0
   23.9450  -28.6000   44.0590 C   0  0  0  0  0  0  0  0  0  0  0  0
   23.0770  -27.5920   44.5000 C   0  0  0  0  0  0  0  0  0  0  0  0
   22.0830  -27.0830   43.6610 C   0  0  0  0  0  0  0  0  0  0  0  0
   21.9250  -27.5740   42.3610 C   0  0  0  0  0  0  0  0  0  0  0  0
   20.8980  -27.0330   41.4440 C   0  0  0  0  0  0  0  0  0  0  0  0
   20.7170  -27.8200   40.3130 O   0  0  0  0  0  0  0  0  0  0  0  0
   19.7920  -27.4350   39.3760 C   0  0  0  0  0  0  0  0  0  0  0  0
   19.6540  -28.2460   38.2490 C   0  0  0  0  0  0  0  0  0  0  0  0
   18.7290  -27.9110   37.2590 C   0  0  0  0  0  0  0  0  0  0  0  0
   17.9410  -26.7660   37.3950 C   0  0  0  0  0  0  0  0  0  0  0  0
   18.0810  -25.9580   38.5210 C   0  0  0  0  0  0  0  0  0  0  0  0
   17.2790  -24.8510   38.5910 O   0  0  0  0  0  0  0  0  0  0  0  0
   19.0080  -26.2930   39.5120 C   0  0  0  0  0  0  0  0  0  0  0  0
   19.1870  -25.4710   40.7100 C   0  0  0  0  0  0  0  0  0  0  0  0
   18.5270  -24.4530   40.9040 O   0  0  0  0  0  0  0  0  0  0  0  0
   20.2020  -25.9100   41.6960 C   0  0  0  0  0  0  0  0  0  0  0  0
   20.3520  -25.1340   42.8300 O   0  0  0  0  0  0  0  0  0  0  0  0
   22.8010  -28.5770   41.9170 C   0  0  0  0  0  0  0  0  0  0  0  0
   23.8080  -29.0980   42.7490 C   0  0  0  0  0  0  0  0  0  0  0  0
   24.7120  -30.1790   42.2220 C   0  0  0  0  0  0  0  0  0  0  0  0
   24.6848  -28.9657   46.0321 H   0  0  0  0  0  0  0  0  0  0  0  0
   25.1511  -30.1981   44.8113 H   0  0  0  0  0  0  0  0  0  0  0  0
   25.9471  -28.5878   44.8113 H   0  0  0  0  0  0  0  0  0  0  0  0
   23.1799  -27.1961   45.5211 H   0  0  0  0  0  0  0  0  0  0  0  0
   21.4173  -26.2874   44.0267 H   0  0  0  0  0  0  0  0  0  0  0  0
   20.2736  -29.1485   38.1409 H   0  0  0  0  0  0  0  0  0  0  0  0
   18.6204  -28.5499   36.3701 H   0  0  0  0  0  0  0  0  0  0  0  0
   17.2116  -26.5029   36.6148 H   0  0  0  0  0  0  0  0  0  0  0  0
   17.0160  -24.4130   37.8060 H   0  0  0  0  0  0  0  0  0  0  0  0
   21.0520  -25.3090   43.4280 H   0  0  0  0  0  0  0  0  0  0  0  0
   22.6972  -28.9650   40.8930 H   0  0  0  0  0  0  0  0  0  0  0  0
   25.1654  -30.7211   43.0649 H   0  0  0  0  0  0  0  0  0  0  0  0
   24.1268  -30.8793   41.6079 H   0  0  0  0  0  0  0  0  0  0  0  0
   25.5048  -29.7270   41.6079 H   0  0  0  0  0  0  0  0  0  0  0  0
  1  2  1  0
  2  3  2  0
  3  4  1  0
  4  5  2  0
  5  6  1  0
  6  7  1  0
  7  8  1  0
  8  9  2  0
  9 10  1  0
 10 11  2  0
 11 12  1  0
 12 13  1  0
 12 14  2  0
 14 15  1  0
 15 16  2  0
 15 17  1  0
 17 18  1  0
  5 19  1  0
 19 20  2  0
 20 21  1  0
 20  2  1  0
 17  6  2  0
 14  8  1  0
  1 22  1  0
  1 23  1  0
  1 24  1  0
  3 25  1  0
  4 26  1  0
  9 27  1  0
 10 28  1  0
 11 29  1  0
 13 30  1  0
 18 31  1  0
 19 32  1  0
 21 33  1  0
 21 34  1  0
 21 35  1  0
M  END
>  <meeko>  (6) 
{"is_sidechain": [false], "free_energy": -6.886, "intermolecular_energy": -8.231, "internal_energy": 0.303}

$$$$
cand_036_out
     RDKit          3D

 35 37  0  0  0  0  0  0  0  0999 V2000
   19.6840  -25.3800   43.1490 C   0  0  0  0  0  0  0  0  0  0  0  0
   19.7140  -26.0670   41.8120 C   0  0  0  0  0  0  0  0  0  0  0  0
   18.7390  -25.7520   40.8550 C   0  0  0  0  0  0  0  0  0  0  0  0
   18.7370  -26.3710   39.6030 C   0  0  0  0  0  0  0  0  0  0  0  0
   19.7030  -27.3270   39.2760 C   0  0  0  0  0  0  0  0  0  0  0  0
   19.7380  -27.9770   37.9490 C   0  0  0  0  0  0  0  0  0  0  0  0
   19.8240  -29.3620   38.0280 O   0  0  0  0  0  0  0  0  0  0  0  0
   19.8650  -30.0930   36.8680 C   0  0  0  0  0  0  0  0  0  0  0  0
   19.9670  -31.4790   36.9940 C   0  0  0  0  0  0  0  0  0  0  0  0
   20.0110  -32.2810   35.8520 C   0  0  0  0  0  0  0  0  0  0  0  0
   19.9520  -31.6980   34.5850 C   0  0  0  0  0  0  0  0  0  0  0  0
   19.8500  -30.3150   34.4610 C   0  0  0  0  0  0  0  0  0  0  0  0
   19.7980  -29.8100   33.1910 O   0  0  0  0  0  0  0  0  0  0  0  0
   19.8070  -29.5120   35.6050 C   0  0  0  0  0  0  0  0  0  0  0  0
   19.7010  -28.0550   35.5200 C   0  0  0  0  0  0  0  0  0  0  0  0
   19.6390  -27.4690   34.4410 O   0  0  0  0  0  0  0  0  0  0  0  0
   19.6710  -27.2950   36.7910 C   0  0  0  0  0  0  0  0  0  0  0  0
   19.5570  -25.9210   36.6980 O   0  0  0  0  0  0  0  0  0  0  0  0
   20.6840  -27.6350   40.2320 C   0  0  0  0  0  0  0  0  0  0  0  0
   20.7020  -27.0190   41.4960 C   0  0  0  0  0  0  0  0  0  0  0  0
   21.7730  -27.3950   42.4830 C   0  0  0  0  0  0  0  0  0  0  0  0
   19.7169  -26.1338   43.9494 H   0  0  0  0  0  0  0  0  0  0  0  0
   20.5539  -24.7126   43.2379 H   0  0  0  0  0  0  0  0  0  0  0  0
   18.7593  -24.7909   43.2379 H   0  0  0  0  0  0  0  0  0  0  0  0
   17.9653  -25.0074   41.0934 H   0  0  0  0  0  0  0  0  0  0  0  0
   17.9661  -26.1030   38.8655 H   0  0  0  0  0  0  0  0  0  0  0  0
   20.0127  -31.9392   37.9921 H   0  0  0  0  0  0  0  0  0  0  0  0
   20.0923  -33.3735   35.9508 H   0  0  0  0  0  0  0  0  0  0  0  0
   19.9861  -32.3305   33.6857 H   0  0  0  0  0  0  0  0  0  0  0  0
   19.7560  -30.3910   32.4570 H   0  0  0  0  0  0  0  0  0  0  0  0
   19.0860  -25.4440   37.3540 H   0  0  0  0  0  0  0  0  0  0  0  0
   21.4580  -28.3769   39.9861 H   0  0  0  0  0  0  0  0  0  0  0  0
   21.3920  -27.2612   43.5062 H   0  0  0  0  0  0  0  0  0  0  0  0
   22.0576  -28.4468   42.3323 H   0  0  0  0  0  0  0  0  0  0  0  0
   22.6526  -26.7519   42.3323 H   0  0  0  0  0  0  0  0  0  0  0  0
  1  2  1  0
  2  3  2  0
  3  4  1  0
  4  5  2  0
  5  6  1  0
  6  7  1  0
  7  8  1  0
  8  9  2  0
  9 10  1  0
 10 11  2  0
 11 12  1  0
 12 13  1  0
 12 14  2  0
 14 15  1  0
 15 16  2  0
 15 17  1  0
 17 18  1  0
  5 19  1  0
 19 20  2  0
 20 21  1  0
 20  2  1  0
 17  6  2  0
 14  8  1  0
  1 22  1  0
  1 23  1  0
  1 24  1  0
  3 25  1  0
  4 26  1  0
  9 27  1  0
 10 28  1  0
 11 29  1  0
 13 30  1  0
 18 31  1  0
 19 32  1  0
 21 33  1  0
 21 34  1  0
 21 35  1  0
M  END
>  <meeko>  (7) 
{"is_sidechain": [false], "free_energy": -6.856, "intermolecular_energy": -7.844, "internal_energy": -0.051}

$$$$
cand_036_out
     RDKit          3D

 35 37  0  0  0  0  0  0  0  0999 V2000
   22.0940  -23.2860   49.8470 C   0  0  0  0  0  0  0  0  0  0  0  0
   21.5910  -23.4990   48.4450 C   0  0  0  0  0  0  0  0  0  0  0  0
   22.1050  -22.7150   47.4040 C   0  0  0  0  0  0  0  0  0  0  0  0
   21.6610  -22.8860   46.0900 C   0  0  0  0  0  0  0  0  0  0  0  0
   20.6850  -23.8390   45.7840 C   0  0  0  0  0  0  0  0  0  0  0  0
   20.2170  -24.0580   44.3980 C   0  0  0  0  0  0  0  0  0  0  0  0
   20.4900  -25.3380   43.9330 O   0  0  0  0  0  0  0  0  0  0  0  0
   20.1090  -25.6770   42.6590 C   0  0  0  0  0  0  0  0  0  0  0  0
   20.4160  -26.9680   42.2270 C   0  0  0  0  0  0  0  0  0  0  0  0
   20.0540  -27.3770   40.9420 C   0  0  0  0  0  0  0  0  0  0  0  0
   19.3850  -26.4960   40.0890 C   0  0  0  0  0  0  0  0  0  0  0  0
   19.0800  -25.2080   40.5230 C   0  0  0  0  0  0  0  0  0  0  0  0
   18.4240  -24.3970   39.6370 O   0  0  0  0  0  0  0  0  0  0  0  0
   19.4430  -24.7990   41.8090 C   0  0  0  0  0  0  0  0  0  0  0  0
   19.1420  -23.4550   42.3040 C   0  0  0  0  0  0  0  0  0  0  0  0
   18.5510  -22.6250   41.6150 O   0  0  0  0  0  0  0  0  0  0  0  0
   19.5770  -23.1180   43.6790 C   0  0  0  0  0  0  0  0  0  0  0  0
   19.2750  -21.8500   44.1400 O   0  0  0  0  0  0  0  0  0  0  0  0
   20.1780  -24.6300   46.8270 C   0  0  0  0  0  0  0  0  0  0  0  0
   20.6160  -24.4730   48.1530 C   0  0  0  0  0  0  0  0  0  0  0  0
   20.0300  -25.3430   49.2310 C   0  0  0  0  0  0  0  0  0  0  0  0
   21.3267  -23.6109   50.5651 H   0  0  0  0  0  0  0  0  0  0  0  0
   23.0117  -23.8727   50.0004 H   0  0  0  0  0  0  0  0  0  0  0  0
   22.3113  -22.2186   50.0004 H   0  0  0  0  0  0  0  0  0  0  0  0
   22.8686  -21.9543   47.6239 H   0  0  0  0  0  0  0  0  0  0  0  0
   22.0842  -22.2638   45.2876 H   0  0  0  0  0  0  0  0  0  0  0  0
   20.9426  -27.6626   42.8981 H   0  0  0  0  0  0  0  0  0  0  0  0
   20.2960  -28.3944   40.6009 H   0  0  0  0  0  0  0  0  0  0  0  0
   19.0997  -26.8187   39.0768 H   0  0  0  0  0  0  0  0  0  0  0  0
   18.4770  -23.4660   39.7270 H   0  0  0  0  0  0  0  0  0  0  0  0
   19.5080  -21.6010   45.0130 H   0  0  0  0  0  0  0  0  0  0  0  0
   19.4182  -25.3925   46.6005 H   0  0  0  0  0  0  0  0  0  0  0  0
   20.3024  -24.9386   50.2170 H   0  0  0  0  0  0  0  0  0  0  0  0
   18.9346  -25.3616   49.1322 H   0  0  0  0  0  0  0  0  0  0  0  0
   20.4245  -26.3651   49.1322 H   0  0  0  0  0  0  0  0  0  0  0  0
  1  2  1  0
  2  3  2  0
  3  4  1  0
  4  5  2  0
  5  6  1  0
  6  7  1  0
  7  8  1  0
  8  9  2  0
  9 10  1  0
 10 11  2  0
 11 12  1  0
 12 13  1  0
 12 14  2  0
 14 15  1  0
 15 16  2  0
 15 17  1  0
 17 18  1  0
  5 19  1  0
 19 20  2  0
 20 21  1  0
 20  2  1  0
 17  6  2  0
 14  8  1  0
  1 22  1  0
  1 23  1  0
  1 24  1  0
  3 25  1  0
  4 26  1  0
  9 27  1  0
 10 28  1  0
 11 29  1  0
 13 30  1  0
 18 31  1  0
 19 32  1  0
 21 33  1  0
 21 34  1  0
 21 35  1  0
M  END
>  <meeko>  (8) 
{"is_sidechain": [false], "free_energy": -6.836, "intermolecular_energy": -7.664, "internal_energy": -0.209}

$$$$
cand_036_out
     RDKit          3D

 35 37  0  0  0  0  0  0  0  0999 V2000
   20.7550  -21.5890   49.8450 C   0  0  0  0  0  0  0  0  0  0  0  0
   20.9480  -22.4920   48.6570 C   0  0  0  0  0  0  0  0  0  0  0  0
   20.3040  -23.7370   48.6280 C   0  0  0  0  0  0  0  0  0  0  0  0
   20.4610  -24.6000   47.5420 C   0  0  0  0  0  0  0  0  0  0  0  0
   21.2700  -24.2460   46.4580 C   0  0  0  0  0  0  0  0  0  0  0  0
   21.4310  -25.1300   45.2840 C   0  0  0  0  0  0  0  0  0  0  0  0
   22.5350  -25.9680   45.3870 O   0  0  0  0  0  0  0  0  0  0  0  0
   22.8030  -26.8430   44.3650 C   0  0  0  0  0  0  0  0  0  0  0  0
   23.9290  -27.6550   44.5030 C   0  0  0  0  0  0  0  0  0  0  0  0
   24.2570  -28.5690   43.4990 C   0  0  0  0  0  0  0  0  0  0  0  0
   23.4580  -28.6710   42.3580 C   0  0  0  0  0  0  0  0  0  0  0  0
   22.3340  -27.8600   42.2230 C   0  0  0  0  0  0  0  0  0  0  0  0
   21.5960  -28.0110   41.0800 O   0  0  0  0  0  0  0  0  0  0  0  0
   22.0070  -26.9450   43.2270 C   0  0  0  0  0  0  0  0  0  0  0  0
   20.8350  -26.0730   43.1240 C   0  0  0  0  0  0  0  0  0  0  0  0
   20.0810  -26.1090   42.1540 O   0  0  0  0  0  0  0  0  0  0  0  0
   20.5810  -25.1330   44.2400 C   0  0  0  0  0  0  0  0  0  0  0  0
   19.4650  -24.3250   44.1390 O   0  0  0  0  0  0  0  0  0  0  0  0
   21.9060  -22.9950   46.4840 C   0  0  0  0  0  0  0  0  0  0  0  0
   21.7570  -22.1130   47.5690 C   0  0  0  0  0  0  0  0  0  0  0  0
   22.4700  -20.7890   47.5450 C   0  0  0  0  0  0  0  0  0  0  0  0
   20.8791  -22.1697   50.7710 H   0  0  0  0  0  0  0  0  0  0  0  0
   21.5007  -20.7809   49.8163 H   0  0  0  0  0  0  0  0  0  0  0  0
   19.7441  -21.1563   49.8163 H   0  0  0  0  0  0  0  0  0  0  0  0
   19.6664  -24.0379   49.4724 H   0  0  0  0  0  0  0  0  0  0  0  0
   19.9421  -25.5699   47.5391 H   0  0  0  0  0  0  0  0  0  0  0  0
   24.5581  -27.5755   45.4019 H   0  0  0  0  0  0  0  0  0  0  0  0
   25.1452  -29.2089   43.6070 H   0  0  0  0  0  0  0  0  0  0  0  0
   23.7161  -29.3908   41.5673 H   0  0  0  0  0  0  0  0  0  0  0  0
   21.4980  -28.8600   40.6950 H   0  0  0  0  0  0  0  0  0  0  0  0
   18.8580  -24.4510   43.4360 H   0  0  0  0  0  0  0  0  0  0  0  0
   22.5372  -22.6969   45.6338 H   0  0  0  0  0  0  0  0  0  0  0  0
   22.6517  -20.4516   48.5761 H   0  0  0  0  0  0  0  0  0  0  0  0
   23.4307  -20.8993   47.0207 H   0  0  0  0  0  0  0  0  0  0  0  0
   21.8491  -20.0476   47.0207 H   0  0  0  0  0  0  0  0  0  0  0  0
  1  2  1  0
  2  3  2  0
  3  4  1  0
  4  5  2  0
  5  6  1  0
  6  7  1  0
  7  8  1  0
  8  9  2  0
  9 10  1  0
 10 11  2  0
 11 12  1  0
 12 13  1  0
 12 14  2  0
 14 15  1  0
 15 16  2  0
 15 17  1  0
 17 18  1  0
  5 19  1  0
 19 20  2  0
 20 21  1  0
 20  2  1  0
 17  6  2  0
 14  8  1  0
  1 22  1  0
  1 23  1  0
  1 24  1  0
  3 25  1  0
  4 26  1  0
  9 27  1  0
 10 28  1  0
 11 29  1  0
 13 30  1  0
 18 31  1  0
 19 32  1  0
 21 33  1  0
 21 34  1  0
 21 35  1  0
M  END
>  <meeko>  (9) 
{"is_sidechain": [false], "free_energy": -6.728, "intermolecular_energy": -7.433, "internal_energy": -0.32}

$$$$
