cand_047_out
     RDKit          3D

 38 40  0  0  0  0  0  0  0  0999 V2000
   21.1120  -27.1110   41.8230 C   0  0  0  0  0  0  0  0  0  0  0  0
   20.1060  -27.4210   40.7480 C   0  0  0  0  0  0  0  0  0  0  0  0
   20.1390  -28.6900   40.1370 C   0  0  0  0  0  0  0  0  0  0  0  0
   19.2350  -29.0430   39.1260 C   0  0  0  0  0  0  0  0  0  0  0  0
   19.2820  -30.3670   38.4680 C   0  0  0  0  0  0  0  0  0  0  0  0
   18.8570  -31.3980   39.2970 O   0  0  0  0  0  0  0  0  0  0  0  0
   18.8490  -32.6800   38.8110 C   0  0  0  0  0  0  0  0  0  0  0  0
   18.4000  -33.6820   39.6720 C   0  0  0  0  0  0  0  0  0  0  0  0
   18.3680  -35.0100   39.2390 C   0  0  0  0  0  0  0  0  0  0  0  0
   18.7860  -35.3350   37.9480 C   0  0  0  0  0  0  0  0  0  0  0  0
   19.2350  -34.3340   37.0900 C   0  0  0  0  0  0  0  0  0  0  0  0
   19.6310  -34.7220   35.8400 O   0  0  0  0  0  0  0  0  0  0  0  0
   19.2650  -33.0050   37.5240 C   0  0  0  0  0  0  0  0  0  0  0  0
   19.7290  -31.9230   36.6540 C   0  0  0  0  0  0  0  0  0  0  0  0
   20.1200  -32.1300   35.5080 O   0  0  0  0  0  0  0  0  0  0  0  0
   19.7140  -30.5480   37.2060 C   0  0  0  0  0  0  0  0  0  0  0  0
   20.1670  -29.5340   36.3810 O   0  0  0  0  0  0  0  0  0  0  0  0
   18.2970  -28.0940   38.7100 C   0  0  0  0  0  0  0  0  0  0  0  0
   18.2550  -26.8280   39.3010 C   0  0  0  0  0  0  0  0  0  0  0  0
   19.1560  -26.4760   40.3190 C   0  0  0  0  0  0  0  0  0  0  0  0
   19.0430  -25.1000   40.9340 C   0  0  0  0  0  0  0  0  0  0  0  0
   19.4620  -24.0030   39.9670 C   0  0  0  0  0  0  0  0  0  0  0  0
   20.0310  -22.9900   40.6780 F   0  0  0  0  0  0  0  0  0  0  0  0
   20.6490  -27.2537   42.8106 H   0  0  0  0  0  0  0  0  0  0  0  0
   21.9757  -27.7847   41.7222 H   0  0  0  0  0  0  0  0  0  0  0  0
   21.4467  -26.0680   41.7222 H   0  0  0  0  0  0  0  0  0  0  0  0
   20.8932  -29.4220   40.4616 H   0  0  0  0  0  0  0  0  0  0  0  0
   18.0717  -33.4267   40.6903 H   0  0  0  0  0  0  0  0  0  0  0  0
   18.0128  -35.8003   39.9167 H   0  0  0  0  0  0  0  0  0  0  0  0
   18.7609  -36.3809   37.6082 H   0  0  0  0  0  0  0  0  0  0  0  0
   20.5060  -34.5510   35.5530 H   0  0  0  0  0  0  0  0  0  0  0  0
   20.7640  -28.8930   36.7130 H   0  0  0  0  0  0  0  0  0  0  0  0
   17.5852  -28.3458   37.9100 H   0  0  0  0  0  0  0  0  0  0  0  0
   17.5054  -26.0969   38.9638 H   0  0  0  0  0  0  0  0  0  0  0  0
   17.9979  -24.9297   41.2318 H   0  0  0  0  0  0  0  0  0  0  0  0
   19.7176  -25.0613   41.8020 H   0  0  0  0  0  0  0  0  0  0  0  0
   20.1894  -24.4032   39.2454 H   0  0  0  0  0  0  0  0  0  0  0  0
   18.5841  -23.6301   39.4190 H   0  0  0  0  0  0  0  0  0  0  0  0
  1  2  1  0
  2  3  2  0
  3  4  1  0
  4  5  1  0
  5  6  1  0
  6  7  1  0
  7  8  2  0
  8  9  1  0
  9 10  2  0
 10 11  1  0
 11 12  1  0
 11 13  2  0
 13 14  1  0
 14 15  2  0
 14 16  1  0
 16 17  1  0
  4 18  2  0
 18 19  1  0
 19 20  2  0
 20 21  1  0
 21 22  1  0
 22 23  1  0
 20  2  1  0
 16  5  2  0
 13  7  1  0
  1 24  1  0
  1 25  1  0
  1 26  1  0
  3 27  1  0
  8 28  1  0
  9 29  1  0
 10 30  1  0
 12 31  1  0
 17 32  1  0
 18 33  1  0
 19 34  1  0
 21 35  1  0
 21 36  1  0
 22 37  1  0
 22 38  1  0
M  END
>  <meeko>  (1) 
{"is_sidechain": [false], "free_energy": -7.705, "intermolecular_energy": -9.507, "internal_energy": -0.385}

$$$$
cand_047_out
     RDKit          3D

 38 40  0  0  0  0  0  0  0  0999 V2000
   20.5220  -31.1950   34.9730 C   0  0  0  0  0  0  0  0  0  0  0  0
   19.9400  -31.2530   36.3590 C   0  0  0  0  0  0  0  0  0  0  0  0
   19.8360  -30.0590   37.0990 C   0  0  0  0  0  0  0  0  0  0  0  0
   19.3090  -30.0420   38.3990 C   0  0  0  0  0  0  0  0  0  0  0  0
   19.2190  -28.7930   39.1860 C   0  0  0  0  0  0  0  0  0  0  0  0
   20.1320  -28.7470   40.2330 O   0  0  0  0  0  0  0  0  0  0  0  0
   20.1570  -27.6410   41.0430 C   0  0  0  0  0  0  0  0  0  0  0  0
   21.0980  -27.6310   42.0730 C   0  0  0  0  0  0  0  0  0  0  0  0
   21.1760  -26.5350   42.9360 C   0  0  0  0  0  0  0  0  0  0  0  0
   20.3110  -25.4520   42.7700 C   0  0  0  0  0  0  0  0  0  0  0  0
   19.3710  -25.4640   41.7420 C   0  0  0  0  0  0  0  0  0  0  0  0
   18.5550  -24.3720   41.6370 O   0  0  0  0  0  0  0  0  0  0  0  0
   19.2960  -26.5610   40.8780 C   0  0  0  0  0  0  0  0  0  0  0  0
   18.3230  -26.6150   39.7860 C   0  0  0  0  0  0  0  0  0  0  0  0
   17.5230  -25.7040   39.5800 O   0  0  0  0  0  0  0  0  0  0  0  0
   18.3290  -27.8180   38.9210 C   0  0  0  0  0  0  0  0  0  0  0  0
   17.3980  -27.8650   37.9000 O   0  0  0  0  0  0  0  0  0  0  0  0
   18.9000  -31.2520   38.9670 C   0  0  0  0  0  0  0  0  0  0  0  0
   19.0010  -32.4460   38.2480 C   0  0  0  0  0  0  0  0  0  0  0  0
   19.5230  -32.4630   36.9450 C   0  0  0  0  0  0  0  0  0  0  0  0
   19.5860  -33.7840   36.2120 C   0  0  0  0  0  0  0  0  0  0  0  0
   19.0080  -34.9240   37.0350 C   0  0  0  0  0  0  0  0  0  0  0  0
   20.0030  -35.4620   37.7930 F   0  0  0  0  0  0  0  0  0  0  0  0
   21.6146  -31.0861   35.0384 H   0  0  0  0  0  0  0  0  0  0  0  0
   20.2775  -32.1220   34.4336 H   0  0  0  0  0  0  0  0  0  0  0  0
   20.0994  -30.3345   34.4336 H   0  0  0  0  0  0  0  0  0  0  0  0
   20.1766  -29.1162   36.6462 H   0  0  0  0  0  0  0  0  0  0  0  0
   21.7780  -28.4854   42.2056 H   0  0  0  0  0  0  0  0  0  0  0  0
   21.9194  -26.5255   43.7467 H   0  0  0  0  0  0  0  0  0  0  0  0
   20.3716  -24.5898   43.4504 H   0  0  0  0  0  0  0  0  0  0  0  0
   18.7410  -23.7090   41.0010 H   0  0  0  0  0  0  0  0  0  0  0  0
   16.4870  -27.9430   38.1020 H   0  0  0  0  0  0  0  0  0  0  0  0
   18.4948  -31.2644   39.9896 H   0  0  0  0  0  0  0  0  0  0  0  0
   18.6665  -33.3866   38.7100 H   0  0  0  0  0  0  0  0  0  0  0  0
   19.0149  -33.6976   35.2759 H   0  0  0  0  0  0  0  0  0  0  0  0
   20.6441  -34.0115   36.0151 H   0  0  0  0  0  0  0  0  0  0  0  0
   18.2101  -34.5415   37.6885 H   0  0  0  0  0  0  0  0  0  0  0  0
   18.5867  -35.6915   36.3691 H   0  0  0  0  0  0  0  0  0  0  0  0
  1  2  1  0
  2  3  2  0
  3  4  1  0
  4  5  1  0
  5  6  1  0
  6  7  1  0
  7  8  2  0
  8  9  1  0
  9 10  2  0
 10 11  1  0
 11 12  1  0
 11 13  2  0
 13 14  1  0
 14 15  2  0
 14 16  1  0
 16 17  1  0
  4 18  2  0
 18 19  1  0
 19 20  2  0
 20 21  1  0
 21 22  1  0
 22 23  1  0
 20  2  1  0
 16  5  2  0
 13  7  1  0
  1 24  1  0
  1 25  1  0
  1 26  1  0
  3 27  1  0
  8 28  1  0
  9 29  1  0
 10 30  1  0
 12 31  1  0
 17 32  1  0
 18 33  1  0
 19 34  1  0
 21 35  1  0
 21 36  1  0
 22 37  1  0
 22 38  1  0
M  END
>  <meeko>  (2) 
{"is_sidechain": [false], "free_energy": -7.599, "intermolecular_energy": -9.339, "internal_energy": -0.422}

$$$$
cand_047_out
     RDKit          3D

 38 40  0  0  0  0  0  0  0  0999 V2000
   17.8050  -25.2620   38.0610 C   0  0  0  0  0  0  0  0  0  0  0  0
   18.6480  -26.3140   38.7260 C   0  0  0  0  0  0  0  0  0  0  0  0
   18.6500  -27.6170   38.1910 C   0  0  0  0  0  0  0  0  0  0  0  0
   19.4090  -28.6470   38.7660 C   0  0  0  0  0  0  0  0  0  0  0  0
   19.3960  -30.0210   38.2190 C   0  0  0  0  0  0  0  0  0  0  0  0
   19.0350  -30.9760   39.1630 O   0  0  0  0  0  0  0  0  0  0  0  0
   18.9810  -32.2930   38.7870 C   0  0  0  0  0  0  0  0  0  0  0  0
   18.6000  -33.2150   39.7620 C   0  0  0  0  0  0  0  0  0  0  0  0
   18.5250  -34.5740   39.4460 C   0  0  0  0  0  0  0  0  0  0  0  0
   18.8350  -35.0090   38.1560 C   0  0  0  0  0  0  0  0  0  0  0  0
   19.2160  -34.0880   37.1840 C   0  0  0  0  0  0  0  0  0  0  0  0
   19.5060  -34.5820   35.9430 O   0  0  0  0  0  0  0  0  0  0  0  0
   19.2880  -32.7280   37.5020 C   0  0  0  0  0  0  0  0  0  0  0  0
   19.6840  -31.7260   36.5100 C   0  0  0  0  0  0  0  0  0  0  0  0
   19.9790  -32.0320   35.3570 O   0  0  0  0  0  0  0  0  0  0  0  0
   19.7220  -30.3100   36.9450 C   0  0  0  0  0  0  0  0  0  0  0  0
   20.1100  -29.3730   36.0050 O   0  0  0  0  0  0  0  0  0  0  0  0
   20.1610  -28.3620   39.9090 C   0  0  0  0  0  0  0  0  0  0  0  0
   20.1650  -27.0760   40.4560 C   0  0  0  0  0  0  0  0  0  0  0  0
   19.4110  -26.0420   39.8780 C   0  0  0  0  0  0  0  0  0  0  0  0
   19.4760  -24.6680   40.5040 C   0  0  0  0  0  0  0  0  0  0  0  0
   19.5490  -24.7310   42.0210 C   0  0  0  0  0  0  0  0  0  0  0  0
   19.9390  -23.5130   42.4890 F   0  0  0  0  0  0  0  0  0  0  0  0
   17.3125  -24.6474   38.8289 H   0  0  0  0  0  0  0  0  0  0  0  0
   18.4437  -24.6228   37.4337 H   0  0  0  0  0  0  0  0  0  0  0  0
   17.0419  -25.7460   37.4337 H   0  0  0  0  0  0  0  0  0  0  0  0
   18.0414  -27.8321   37.3003 H   0  0  0  0  0  0  0  0  0  0  0  0
   18.3587  -32.8724   40.7791 H   0  0  0  0  0  0  0  0  0  0  0  0
   18.2217  -35.3012   40.2136 H   0  0  0  0  0  0  0  0  0  0  0  0
   18.7782  -36.0791   37.9078 H   0  0  0  0  0  0  0  0  0  0  0  0
   19.7420  -35.4830   35.8410 H   0  0  0  0  0  0  0  0  0  0  0  0
   19.4620  -28.9140   35.5080 H   0  0  0  0  0  0  0  0  0  0  0  0
   20.7553  -29.1574   40.3825 H   0  0  0  0  0  0  0  0  0  0  0  0
   20.7679  -26.8707   41.3529 H   0  0  0  0  0  0  0  0  0  0  0  0
   20.3699  -24.1492   40.1276 H   0  0  0  0  0  0  0  0  0  0  0  0
   18.5562  -24.1293   40.2323 H   0  0  0  0  0  0  0  0  0  0  0  0
   18.5597  -24.9852   42.4292 H   0  0  0  0  0  0  0  0  0  0  0  0
   20.2712  -25.5009   42.3304 H   0  0  0  0  0  0  0  0  0  0  0  0
  1  2  1  0
  2  3  2  0
  3  4  1  0
  4  5  1  0
  5  6  1  0
  6  7  1  0
  7  8  2  0
  8  9  1  0
  9 10  2  0
 10 11  1  0
 11 12  1  0
 11 13  2  0
 13 14  1  0
 14 15  2  0
 14 16  1  0
 16 17  1  0
  4 18  2  0
 18 19  1  0
 19 20  2  0
 20 21  1  0
 21 22  1  0
 22 23  1  0
 20  2  1  0
 16  5  2  0
 13  7  1  0
  1 24  1  0
  1 25  1  0
  1 26  1  0
  3 27  1  0
  8 28  1  0
  9 29  1  0
 10 30  1  0
 12 31  1  0
 17 32  1  0
 18 33  1  0
 19 34  1  0
 21 35  1  0
 21 36  1  0
 22 37  1  0
 22 38  1  0
M  END
>  <meeko>  (3) 
{"is_sidechain": [false], "free_energy": -7.105, "intermolecular_energy": -8.897, "internal_energy": -0.254}

$$$$
cand_047_out
     RDKit          3D

 38 40  0  0  0  0  0  0  0  0999 V2000
   19.5420  -24.7410   37.3480 C   0  0  0  0  0  0  0  0  0  0  0  0
   19.5940  -26.0250   38.1300 C   0  0  0  0  0  0  0  0  0  0  0  0
   20.3430  -26.0600   39.3230 C   0  0  0  0  0  0  0  0  0  0  0  0
   20.4390  -27.2250   40.0970 C   0  0  0  0  0  0  0  0  0  0  0  0
   21.2410  -27.2700   41.3380 C   0  0  0  0  0  0  0  0  0  0  0  0
   22.2230  -28.2530   41.3120 O   0  0  0  0  0  0  0  0  0  0  0  0
   23.0420  -28.4020   42.4010 C   0  0  0  0  0  0  0  0  0  0  0  0
   24.0230  -29.3920   42.3260 C   0  0  0  0  0  0  0  0  0  0  0  0
   24.8900  -29.5970   43.4020 C   0  0  0  0  0  0  0  0  0  0  0  0
   24.7740  -28.8150   44.5530 C   0  0  0  0  0  0  0  0  0  0  0  0
   23.7930  -27.8300   44.6270 C   0  0  0  0  0  0  0  0  0  0  0  0
   23.7340  -27.1020   45.7830 O   0  0  0  0  0  0  0  0  0  0  0  0
   22.9270  -27.6240   43.5480 C   0  0  0  0  0  0  0  0  0  0  0  0
   21.8830  -26.5980   43.5850 C   0  0  0  0  0  0  0  0  0  0  0  0
   21.7130  -25.8760   44.5650 O   0  0  0  0  0  0  0  0  0  0  0  0
   21.0230  -26.4550   42.3870 C   0  0  0  0  0  0  0  0  0  0  0  0
   20.0310  -25.4920   42.4370 O   0  0  0  0  0  0  0  0  0  0  0  0
   19.7860  -28.3770   39.6490 C   0  0  0  0  0  0  0  0  0  0  0  0
   19.0450  -28.3610   38.4650 C   0  0  0  0  0  0  0  0  0  0  0  0
   18.9430  -27.1930   37.6920 C   0  0  0  0  0  0  0  0  0  0  0  0
   18.1070  -27.2350   36.4330 C   0  0  0  0  0  0  0  0  0  0  0  0
   18.8160  -27.9540   35.2970 C   0  0  0  0  0  0  0  0  0  0  0  0
   20.0860  -27.4720   35.2020 F   0  0  0  0  0  0  0  0  0  0  0  0
   19.5075  -23.8893   38.0433 H   0  0  0  0  0  0  0  0  0  0  0  0
   20.4376  -24.6610   36.7144 H   0  0  0  0  0  0  0  0  0  0  0  0
   18.6428  -24.7337   36.7144 H   0  0  0  0  0  0  0  0  0  0  0  0
   20.8653  -25.1507   39.6553 H   0  0  0  0  0  0  0  0  0  0  0  0
   24.1133  -30.0101   41.4206 H   0  0  0  0  0  0  0  0  0  0  0  0
   25.6650  -30.3754   43.3425 H   0  0  0  0  0  0  0  0  0  0  0  0
   25.4568  -28.9770   45.4001 H   0  0  0  0  0  0  0  0  0  0  0  0
   23.6260  -27.5380   46.6060 H   0  0  0  0  0  0  0  0  0  0  0  0
   20.0460  -24.8390   43.1080 H   0  0  0  0  0  0  0  0  0  0  0  0
   19.8564  -29.3054   40.2347 H   0  0  0  0  0  0  0  0  0  0  0  0
   18.5338  -29.2768   38.1332 H   0  0  0  0  0  0  0  0  0  0  0  0
   17.1648  -27.7592   36.6507 H   0  0  0  0  0  0  0  0  0  0  0  0
   17.9238  -26.1982   36.1144 H   0  0  0  0  0  0  0  0  0  0  0  0
   18.8442  -29.0342   35.5028 H   0  0  0  0  0  0  0  0  0  0  0  0
   18.2786  -27.7847   34.3523 H   0  0  0  0  0  0  0  0  0  0  0  0
  1  2  1  0
  2  3  2  0
  3  4  1  0
  4  5  1  0
  5  6  1  0
  6  7  1  0
  7  8  2  0
  8  9  1  0
  9 10  2  0
 10 11  1  0
 11 12  1  0
 11 13  2  0
 13 14  1  0
 14 15  2  0
 14 16  1  0
 16 17  1  0
  4 18  2  0
 18 19  1  0
 19 20  2  0
 20 21  1  0
 21 22  1  0
 22 23  1  0
 20  2  1  0
 16  5  2  0
 13  7  1  0
  1 24  1  0
  1 25  1  0
  1 26  1  0
  3 27  1  0
  8 28  1  0
  9 29  1  0
 10 30  1  0
 12 31  1  0
 17 32  1  0
 18 33  1  0
 19 34  1  0
 21 35  1  0
 21 36  1  0
 22 37  1  0
 22 38  1  0
M  END
>  <meeko>  (4) 
{"is_sidechain": [false], "free_energy": -7.083, "intermolecular_energy": -8.639, "internal_energy": -0.485}

$$$$
cand_047_out
     RDKit          3D

 38 40  0  0  0  0  0  0  0  0999 V2000
   21.2060  -27.2390   42.0160 C   0  0  0  0  0  0  0  0  0  0  0  0
   20.2060  -27.3770   40.9010 C   0  0  0  0  0  0  0  0  0  0  0  0
   20.3340  -28.4600   40.0090 C   0  0  0  0  0  0  0  0  0  0  0  0
   19.4410  -28.6460   38.9440 C   0  0  0  0  0  0  0  0  0  0  0  0
   19.5850  -29.7690   37.9940 C   0  0  0  0  0  0  0  0  0  0  0  0
   19.8820  -29.3510   36.7020 O   0  0  0  0  0  0  0  0  0  0  0  0
   20.0450  -30.2940   35.7210 C   0  0  0  0  0  0  0  0  0  0  0  0
   20.3570  -29.8300   34.4420 C   0  0  0  0  0  0  0  0  0  0  0  0
   20.5340  -30.7380   33.3950 C   0  0  0  0  0  0  0  0  0  0  0  0
   20.3970  -32.1080   33.6270 C   0  0  0  0  0  0  0  0  0  0  0  0
   20.0850  -32.5690   34.9030 C   0  0  0  0  0  0  0  0  0  0  0  0
   19.9650  -33.9220   35.0600 O   0  0  0  0  0  0  0  0  0  0  0  0
   19.9100  -31.6590   35.9500 C   0  0  0  0  0  0  0  0  0  0  0  0
   19.5800  -32.1010   37.3070 C   0  0  0  0  0  0  0  0  0  0  0  0
   19.4370  -33.2890   37.5880 O   0  0  0  0  0  0  0  0  0  0  0  0
   19.4230  -31.0590   38.3470 C   0  0  0  0  0  0  0  0  0  0  0  0
   19.1000  -31.4850   39.6220 O   0  0  0  0  0  0  0  0  0  0  0  0
   18.4160  -27.7120   38.7650 C   0  0  0  0  0  0  0  0  0  0  0  0
   18.2790  -26.6280   39.6370 C   0  0  0  0  0  0  0  0  0  0  0  0
   19.1690  -26.4450   40.7070 C   0  0  0  0  0  0  0  0  0  0  0  0
   18.9540  -25.2660   41.6280 C   0  0  0  0  0  0  0  0  0  0  0  0
   19.3480  -23.9500   40.9770 C   0  0  0  0  0  0  0  0  0  0  0  0
   20.3670  -24.1840   40.1050 F   0  0  0  0  0  0  0  0  0  0  0  0
   20.6882  -27.3105   42.9839 H   0  0  0  0  0  0  0  0  0  0  0  0
   21.9534  -28.0425   41.9398 H   0  0  0  0  0  0  0  0  0  0  0  0
   21.7078  -26.2631   41.9398 H   0  0  0  0  0  0  0  0  0  0  0  0
   21.1552  -29.1778   40.1516 H   0  0  0  0  0  0  0  0  0  0  0  0
   20.4634  -28.7506   34.2586 H   0  0  0  0  0  0  0  0  0  0  0  0
   20.7815  -30.3733   32.3872 H   0  0  0  0  0  0  0  0  0  0  0  0
   20.5355  -32.8225   32.8022 H   0  0  0  0  0  0  0  0  0  0  0  0
   19.8910  -34.2880   35.9200 H   0  0  0  0  0  0  0  0  0  0  0  0
   19.2170  -30.9100   40.3520 H   0  0  0  0  0  0  0  0  0  0  0  0
   17.7104  -27.8314   37.9296 H   0  0  0  0  0  0  0  0  0  0  0  0
   17.4619  -25.9080   39.4824 H   0  0  0  0  0  0  0  0  0  0  0  0
   17.8899  -25.2207   41.9030 H   0  0  0  0  0  0  0  0  0  0  0  0
   19.5905  -25.4087   42.5137 H   0  0  0  0  0  0  0  0  0  0  0  0
   18.4863  -23.5316   40.4362 H   0  0  0  0  0  0  0  0  0  0  0  0
   19.6692  -23.2320   41.7460 H   0  0  0  0  0  0  0  0  0  0  0  0
  1  2  1  0
  2  3  2  0
  3  4  1  0
  4  5  1  0
  5  6  1  0
  6  7  1  0
  7  8  2  0
  8  9  1  0
  9 10  2  0
 10 11  1  0
 11 12  1  0
 11 13  2  0
 13 14  1  0
 14 15  2  0
 14 16  1  0
 16 17  1  0
  4 18  2  0
 18 19  1  0
 19 20  2  0
 20 21  1  0
 21 22  1  0
 22 23  1  0
 20  2  1  0
 16  5  2  0
 13  7  1  0
  1 24  1  0
  1 25  1  0
  1 26  1  0
  3 27  1  0
  8 28  1  0
  9 29  1  0
 10 30  1  0
 12 31  1  0
 17 32  1  0
 18 33  1  0
 19 34  1  0
 21 35  1  0
 21 36  1  0
 22 37  1  0
 22 38  1  0
M  END
>  <meeko>  (5) 
{"is_sidechain": [false], "free_energy": -6.884, "intermolecular_energy": -8.328, "internal_energy": -0.551}

$$$$
cand_047_out
     RDKit          3D

 38 40  0  0  0  0  0  0  0  0999 V2000
   23.7310  -28.7380   42.1160 C   0  0  0  0  0  0  0  0  0  0  0  0
   22.4840  -27.8980   42.0750 C   0  0  0  0  0  0  0  0  0  0  0  0
   21.8830  -27.6400   40.8280 C   0  0  0  0  0  0  0  0  0  0  0  0
   20.7230  -26.8600   40.7170 C   0  0  0  0  0  0  0  0  0  0  0  0
   20.1030  -26.5690   39.4070 C   0  0  0  0  0  0  0  0  0  0  0  0
   19.8950  -25.2110   39.1960 O   0  0  0  0  0  0  0  0  0  0  0  0
   19.3280  -24.8020   38.0170 C   0  0  0  0  0  0  0  0  0  0  0  0
   19.1520  -23.4290   37.8410 C   0  0  0  0  0  0  0  0  0  0  0  0
   18.5780  -22.9450   36.6630 C   0  0  0  0  0  0  0  0  0  0  0  0
   18.1780  -23.8340   35.6630 C   0  0  0  0  0  0  0  0  0  0  0  0
   18.3530  -25.2030   35.8410 C   0  0  0  0  0  0  0  0  0  0  0  0
   17.9390  -26.0170   34.8240 O   0  0  0  0  0  0  0  0  0  0  0  0
   18.9300  -25.6860   37.0200 C   0  0  0  0  0  0  0  0  0  0  0  0
   19.1320  -27.1190   37.2470 C   0  0  0  0  0  0  0  0  0  0  0  0
   18.8000  -27.9630   36.4180 O   0  0  0  0  0  0  0  0  0  0  0  0
   19.7590  -27.5270   38.5260 C   0  0  0  0  0  0  0  0  0  0  0  0
   19.9340  -28.8830   38.7360 O   0  0  0  0  0  0  0  0  0  0  0  0
   20.1730  -26.3160   41.8820 C   0  0  0  0  0  0  0  0  0  0  0  0
   20.7600  -26.5580   43.1270 C   0  0  0  0  0  0  0  0  0  0  0  0
   21.9190  -27.3440   43.2390 C   0  0  0  0  0  0  0  0  0  0  0  0
   22.4920  -27.5870   44.6160 C   0  0  0  0  0  0  0  0  0  0  0  0
   23.3570  -26.4300   45.0900 C   0  0  0  0  0  0  0  0  0  0  0  0
   24.4050  -26.2900   44.2320 F   0  0  0  0  0  0  0  0  0  0  0  0
   24.0115  -28.9270   43.1627 H   0  0  0  0  0  0  0  0  0  0  0  0
   23.5449  -29.6956   41.6076 H   0  0  0  0  0  0  0  0  0  0  0  0
   24.5485  -28.2058   41.6076 H   0  0  0  0  0  0  0  0  0  0  0  0
   22.3350  -28.0610   39.9178 H   0  0  0  0  0  0  0  0  0  0  0  0
   19.4650  -22.7284   38.6292 H   0  0  0  0  0  0  0  0  0  0  0  0
   18.4409  -21.8626   36.5229 H   0  0  0  0  0  0  0  0  0  0  0  0
   17.7252  -23.4526   34.7359 H   0  0  0  0  0  0  0  0  0  0  0  0
   17.2190  -25.7590   34.2810 H   0  0  0  0  0  0  0  0  0  0  0  0
   20.7790  -29.2150   38.9640 H   0  0  0  0  0  0  0  0  0  0  0  0
   19.2697  -25.6916   41.8178 H   0  0  0  0  0  0  0  0  0  0  0  0
   20.3080  -26.1268   44.0324 H   0  0  0  0  0  0  0  0  0  0  0  0
   21.6628  -27.7235   45.3258 H   0  0  0  0  0  0  0  0  0  0  0  0
   23.1264  -28.4842   44.5645 H   0  0  0  0  0  0  0  0  0  0  0  0
   22.7628  -25.5044   45.1031 H   0  0  0  0  0  0  0  0  0  0  0  0
   23.7279  -26.6302   46.1060 H   0  0  0  0  0  0  0  0  0  0  0  0
  1  2  1  0
  2  3  2  0
  3  4  1  0
  4  5  1  0
  5  6  1  0
  6  7  1  0
  7  8  2  0
  8  9  1  0
  9 10  2  0
 10 11  1  0
 11 12  1  0
 11 13  2  0
 13 14  1  0
 14 15  2  0
 14 16  1  0
 16 17  1  0
  4 18  2  0
 18 19  1  0
 19 20  2  0
 20 21  1  0
 21 22  1  0
 22 23  1  0
 20  2  1  0
 16  5  2  0
 13  7  1  0
  1 24  1  0
  1 25  1  0
  1 26  1  0
  3 27  1  0
  8 28  1  0
  9 29  1  0
 10 30  1  0
 12 31  1  0
 17 32  1  0
 18 33  1  0
 19 34  1  0
 21 35  1  0
 21 36  1  0
 22 37  1  0
 22 38  1  0
M  END
>  <meeko>  (6) 
{"is_sidechain": [false], "free_energy": -6.838, "intermolecular_energy": -8.422, "internal_energy": -0.4}

$$$$
cand_047_out
     RDKit          3D

 38 40  0  0  0  0  0  0  0  0999 V2000
   18.2210  -23.0770   46.7340 C   0  0  0  0  0  0  0  0  0  0  0  0
   19.4040  -23.8110   46.1640 C   0  0  0  0  0  0  0  0  0  0  0  0
   19.3650  -24.2110   44.8140 C   0  0  0  0  0  0  0  0  0  0  0  0
   20.4310  -24.9040   44.2210 C   0  0  0  0  0  0  0  0  0  0  0  0
   20.3830  -25.3440   42.8100 C   0  0  0  0  0  0  0  0  0  0  0  0
   19.9370  -24.3500   41.9480 O   0  0  0  0  0  0  0  0  0  0  0  0
   19.8460  -24.6250   40.6080 C   0  0  0  0  0  0  0  0  0  0  0  0
   19.4070  -23.5940   39.7770 C   0  0  0  0  0  0  0  0  0  0  0  0
   19.2910  -23.8080   38.4020 C   0  0  0  0  0  0  0  0  0  0  0  0
   19.6100  -25.0550   37.8590 C   0  0  0  0  0  0  0  0  0  0  0  0
   20.0460  -26.0830   38.6900 C   0  0  0  0  0  0  0  0  0  0  0  0
   20.3410  -27.2780   38.0930 O   0  0  0  0  0  0  0  0  0  0  0  0
   20.1640  -25.8660   40.0660 C   0  0  0  0  0  0  0  0  0  0  0  0
   20.6190  -26.9200   40.9750 C   0  0  0  0  0  0  0  0  0  0  0  0
   20.9110  -28.0450   40.5740 O   0  0  0  0  0  0  0  0  0  0  0  0
   20.7170  -26.5870   42.4150 C   0  0  0  0  0  0  0  0  0  0  0  0
   21.1350  -27.5930   43.2670 O   0  0  0  0  0  0  0  0  0  0  0  0
   21.5430  -25.2140   45.0090 C   0  0  0  0  0  0  0  0  0  0  0  0
   21.5950  -24.8290   46.3510 C   0  0  0  0  0  0  0  0  0  0  0  0
   20.5310  -24.1310   46.9440 C   0  0  0  0  0  0  0  0  0  0  0  0
   20.6580  -23.7230   48.3940 C   0  0  0  0  0  0  0  0  0  0  0  0
   20.5180  -24.9060   49.3370 C   0  0  0  0  0  0  0  0  0  0  0  0
   19.7380  -25.8490   48.7410 F   0  0  0  0  0  0  0  0  0  0  0  0
   18.2666  -23.1053   47.8327 H   0  0  0  0  0  0  0  0  0  0  0  0
   18.2392  -22.0313   46.3930 H   0  0  0  0  0  0  0  0  0  0  0  0
   17.2922  -23.5577   46.3930 H   0  0  0  0  0  0  0  0  0  0  0  0
   18.4768  -23.9742   44.2098 H   0  0  0  0  0  0  0  0  0  0  0  0
   19.1524  -22.6131   40.2047 H   0  0  0  0  0  0  0  0  0  0  0  0
   18.9482  -22.9942   37.7460 H   0  0  0  0  0  0  0  0  0  0  0  0
   19.5167  -25.2243   36.7761 H   0  0  0  0  0  0  0  0  0  0  0  0
   20.0370  -28.0780   38.4740 H   0  0  0  0  0  0  0  0  0  0  0  0
   22.0090  -27.9250   43.2050 H   0  0  0  0  0  0  0  0  0  0  0  0
   22.3857  -25.7667   44.5681 H   0  0  0  0  0  0  0  0  0  0  0  0
   22.4826  -25.0764   46.9518 H   0  0  0  0  0  0  0  0  0  0  0  0
   21.6451  -23.2625   48.5474 H   0  0  0  0  0  0  0  0  0  0  0  0
   19.8469  -23.0146   48.6179 H   0  0  0  0  0  0  0  0  0  0  0  0
   21.5109  -25.3282   49.5511 H   0  0  0  0  0  0  0  0  0  0  0  0
   20.0570  -24.5803   50.2812 H   0  0  0  0  0  0  0  0  0  0  0  0
  1  2  1  0
  2  3  2  0
  3  4  1  0
  4  5  1  0
  5  6  1  0
  6  7  1  0
  7  8  2  0
  8  9  1  0
  9 10  2  0
 10 11  1  0
 11 12  1  0
 11 13  2  0
 13 14  1  0
 14 15  2  0
 14 16  1  0
 16 17  1  0
  4 18  2  0
 18 19  1  0
 19 20  2  0
 20 21  1  0
 21 22  1  0
 22 23  1  0
 20  2  1  0
 16  5  2  0
 13  7  1  0
  1 24  1  0
  1 25  1  0
  1 26  1  0
  3 27  1  0
  8 28  1  0
  9 29  1  0
 10 30  1  0
 12 31  1  0
 17 32  1  0
 18 33  1  0
 19 34  1  0
 21 35  1  0
 21 36  1  0
 22 37  1  0
 22 38  1  0
M  END
>  <meeko>  (7) 
{"is_sidechain": [false], "free_energy": -6.774, "intermolecular_energy": -8.459, "internal_energy": -0.284}

$$$$
cand_047_out
     RDKit          3D

 38 40  0  0  0  0  0  0  0  0999 V2000
   20.1030  -32.0460   35.4480 C   0  0  0  0  0  0  0  0  0  0  0  0
   19.6830  -31.5270   36.7960 C   0  0  0  0  0  0  0  0  0  0  0  0
   19.7240  -30.1390   37.0280 C   0  0  0  0  0  0  0  0  0  0  0  0
   19.3520  -29.5880   38.2630 C   0  0  0  0  0  0  0  0  0  0  0  0
   19.4150  -28.1330   38.5170 C   0  0  0  0  0  0  0  0  0  0  0  0
   18.6980  -27.3900   37.5860 O   0  0  0  0  0  0  0  0  0  0  0  0
   18.6720  -26.0250   37.7050 C   0  0  0  0  0  0  0  0  0  0  0  0
   17.9280  -25.3200   36.7570 C   0  0  0  0  0  0  0  0  0  0  0  0
   17.8600  -23.9260   36.8210 C   0  0  0  0  0  0  0  0  0  0  0  0
   18.5370  -23.2380   37.8290 C   0  0  0  0  0  0  0  0  0  0  0  0
   19.2800  -23.9430   38.7730 C   0  0  0  0  0  0  0  0  0  0  0  0
   19.9190  -23.2070   39.7320 O   0  0  0  0  0  0  0  0  0  0  0  0
   19.3460  -25.3380   38.7090 C   0  0  0  0  0  0  0  0  0  0  0  0
   20.1150  -26.1170   39.6810 C   0  0  0  0  0  0  0  0  0  0  0  0
   20.7440  -25.5830   40.5930 O   0  0  0  0  0  0  0  0  0  0  0  0
   20.1140  -27.5910   39.5320 C   0  0  0  0  0  0  0  0  0  0  0  0
   20.8540  -28.3170   40.4470 O   0  0  0  0  0  0  0  0  0  0  0  0
   18.9540  -30.4550   39.2850 C   0  0  0  0  0  0  0  0  0  0  0  0
   18.9140  -31.8360   39.0730 C   0  0  0  0  0  0  0  0  0  0  0  0
   19.2800  -32.3870   37.8350 C   0  0  0  0  0  0  0  0  0  0  0  0
   19.1930  -33.8860   37.6610 C   0  0  0  0  0  0  0  0  0  0  0  0
   19.2770  -34.6230   38.9880 C   0  0  0  0  0  0  0  0  0  0  0  0
   18.0330  -35.0630   39.3220 F   0  0  0  0  0  0  0  0  0  0  0  0
   20.7900  -32.8949   35.5797 H   0  0  0  0  0  0  0  0  0  0  0  0
   19.2149  -32.3763   34.8893 H   0  0  0  0  0  0  0  0  0  0  0  0
   20.6112  -31.2463   34.8893 H   0  0  0  0  0  0  0  0  0  0  0  0
   20.0561  -29.4699   36.2205 H   0  0  0  0  0  0  0  0  0  0  0  0
   17.3961  -25.8614   35.9608 H   0  0  0  0  0  0  0  0  0  0  0  0
   17.2721  -23.3700   36.0759 H   0  0  0  0  0  0  0  0  0  0  0  0
   18.4839  -22.1404   37.8779 H   0  0  0  0  0  0  0  0  0  0  0  0
   20.8130  -23.3920   39.9440 H   0  0  0  0  0  0  0  0  0  0  0  0
   21.5910  -28.8190   40.1600 H   0  0  0  0  0  0  0  0  0  0  0  0
   18.6695  -30.0462   40.2658 H   0  0  0  0  0  0  0  0  0  0  0  0
   18.5911  -32.5005   39.8880 H   0  0  0  0  0  0  0  0  0  0  0  0
   18.2353  -34.1319   37.1790 H   0  0  0  0  0  0  0  0  0  0  0  0
   20.0452  -34.2046   37.0427 H   0  0  0  0  0  0  0  0  0  0  0  0
   19.9597  -35.4802   38.8928 H   0  0  0  0  0  0  0  0  0  0  0  0
   19.6579  -33.9478   39.7684 H   0  0  0  0  0  0  0  0  0  0  0  0
  1  2  1  0
  2  3  2  0
  3  4  1  0
  4  5  1  0
  5  6  1  0
  6  7  1  0
  7  8  2  0
  8  9  1  0
  9 10  2  0
 10 11  1  0
 11 12  1  0
 11 13  2  0
 13 14  1  0
 14 15  2  0
 14 16  1  0
 16 17  1  0
  4 18  2  0
 18 19  1  0
 19 20  2  0
 20 21  1  0
 21 22  1  0
 22 23  1  0
 20  2  1  0
 16  5  2  0
 13  7  1  0
  1 24  1  0
  1 25  1  0
  1 26  1  0
  3 27  1  0
  8 28  1  0
  9 29  1  0
 10 30  1  0
 12 31  1  0
 17 32  1  0
 18 33  1  0
 19 34  1  0
 21 35  1  0
 21 36  1  0
 22 37  1  0
 22 38  1  0
M  END
>  <meeko>  (8) 
{"is_sidechain": [false], "free_energy": -6.698, "intermolecular_energy": -8.393, "internal_energy": -0.255}

$$$$
cand_047_out
     RDKit          3D

 38 40  0  0  0  0  0  0  0  0999 V2000
   17.7350  -22.4710   46.7590 C   0  0  0  0  0  0  0  0  0  0  0  0
   18.8560  -23.2430   46.1190 C   0  0  0  0  0  0  0  0  0  0  0  0
   18.8190  -23.4590   44.7270 C   0  0  0  0  0  0  0  0  0  0  0  0
   19.8280  -24.1750   44.0660 C   0  0  0  0  0  0  0  0  0  0  0  0
   19.7810  -24.4200   42.6090 C   0  0  0  0  0  0  0  0  0  0  0  0
   19.8340  -25.7710   42.2860 O   0  0  0  0  0  0  0  0  0  0  0  0
   19.7970  -26.1390   40.9660 C   0  0  0  0  0  0  0  0  0  0  0  0
   19.8380  -27.5060   40.6880 C   0  0  0  0  0  0  0  0  0  0  0  0
   19.8050  -27.9490   39.3640 C   0  0  0  0  0  0  0  0  0  0  0  0
   19.7340  -27.0260   38.3190 C   0  0  0  0  0  0  0  0  0  0  0  0
   19.6940  -25.6630   38.5980 C   0  0  0  0  0  0  0  0  0  0  0  0
   19.6260  -24.8140   37.5280 O   0  0  0  0  0  0  0  0  0  0  0  0
   19.7250  -25.2210   39.9240 C   0  0  0  0  0  0  0  0  0  0  0  0
   19.6860  -23.7960   40.2620 C   0  0  0  0  0  0  0  0  0  0  0  0
   19.6310  -22.9240   39.3980 O   0  0  0  0  0  0  0  0  0  0  0  0
   19.7160  -23.4320   41.6970 C   0  0  0  0  0  0  0  0  0  0  0  0
   19.6910  -22.0840   42.0050 O   0  0  0  0  0  0  0  0  0  0  0  0
   20.8780  -24.6990   44.8260 C   0  0  0  0  0  0  0  0  0  0  0  0
   20.9260  -24.5010   46.2090 C   0  0  0  0  0  0  0  0  0  0  0  0
   19.9190  -23.7780   46.8700 C   0  0  0  0  0  0  0  0  0  0  0  0
   20.0400  -23.5780   48.3630 C   0  0  0  0  0  0  0  0  0  0  0  0
   20.6680  -24.7780   49.0530 C   0  0  0  0  0  0  0  0  0  0  0  0
   19.7560  -25.7890   49.0840 F   0  0  0  0  0  0  0  0  0  0  0  0
   17.8252  -22.5331   47.8535 H   0  0  0  0  0  0  0  0  0  0  0  0
   17.7894  -21.4179   46.4458 H   0  0  0  0  0  0  0  0  0  0  0  0
   16.7706  -22.8974   46.4458 H   0  0  0  0  0  0  0  0  0  0  0  0
   17.9777  -23.0560   44.1441 H   0  0  0  0  0  0  0  0  0  0  0  0
   19.8962  -28.2337   41.5108 H   0  0  0  0  0  0  0  0  0  0  0  0
   19.8350  -29.0264   39.1443 H   0  0  0  0  0  0  0  0  0  0  0  0
   19.7097  -27.3756   37.2763 H   0  0  0  0  0  0  0  0  0  0  0  0
   19.7420  -23.8920   37.6540 H   0  0  0  0  0  0  0  0  0  0  0  0
   20.3040  -21.7340   42.6210 H   0  0  0  0  0  0  0  0  0  0  0  0
   21.6748  -25.2731   44.3305 H   0  0  0  0  0  0  0  0  0  0  0  0
   21.7638  -24.9171   46.7877 H   0  0  0  0  0  0  0  0  0  0  0  0
   20.6651  -22.6929   48.5525 H   0  0  0  0  0  0  0  0  0  0  0  0
   19.0265  -23.4462   48.7697 H   0  0  0  0  0  0  0  0  0  0  0  0
   21.5599  -25.1007   48.4959 H   0  0  0  0  0  0  0  0  0  0  0  0
   20.9651  -24.5090   50.0774 H   0  0  0  0  0  0  0  0  0  0  0  0
  1  2  1  0
  2  3  2  0
  3  4  1  0
  4  5  1  0
  5  6  1  0
  6  7  1  0
  7  8  2  0
  8  9  1  0
  9 10  2  0
 10 11  1  0
 11 12  1  0
 11 13  2  0
 13 14  1  0
 14 15  2  0
 14 16  1  0
 16 17  1  0
  4 18  2  0
 18 19  1  0
 19 20  2  0
 20 21  1  0
 21 22  1  0
 22 23  1  0
 20  2  1  0
 16  5  2  0
 13  7  1  0
  1 24  1  0
  1 25  1  0
  1 26  1  0
  3 27  1  0
  8 28  1  0
  9 29  1  0
 10 30  1  0
 12 31  1  0
 17 32  1  0
 18 33  1  0
 19 34  1  0
 21 35  1  0
 21 36  1  0
 22 37  1  0
 22 38  1  0
M  END
>  <meeko>  (9) 
{"is_sidechain": [false], "free_energy": -6.677, "intermolecular_energy": -8.257, "internal_energy": -0.366}

$$$$
