cand_029_out
     RDKit          3D

 50 53  0  0  0  0  0  0  0  0999 V2000
   21.8930  -27.7290   42.6640 C   0  0  0  0  0  0  0  0  0  0  0  0
   21.9510  -27.1980   41.2400 C   0  0  0  0  0  0  0  0  0  0  0  0
   20.6920  -27.5150   40.4640 C   0  0  0  0  0  0  0  0  0  0  0  0
   20.5930  -28.7600   39.8120 C   0  0  0  0  0  0  0  0  0  0  0  0
   19.4630  -29.1070   39.0570 C   0  0  0  0  0  0  0  0  0  0  0  0
   19.3880  -30.4360   38.4130 C   0  0  0  0  0  0  0  0  0  0  0  0
   19.0270  -31.4460   39.2980 O   0  0  0  0  0  0  0  0  0  0  0  0
   18.9220  -32.7310   38.8320 C   0  0  0  0  0  0  0  0  0  0  0  0
   18.5450  -33.7100   39.7520 C   0  0  0  0  0  0  0  0  0  0  0  0
   18.4210  -35.0390   39.3440 C   0  0  0  0  0  0  0  0  0  0  0  0
   18.6740  -35.3900   38.0160 C   0  0  0  0  0  0  0  0  0  0  0  0
   19.0500  -34.4110   37.0990 C   0  0  0  0  0  0  0  0  0  0  0  0
   19.2820  -34.8240   35.8160 O   0  0  0  0  0  0  0  0  0  0  0  0
   19.1730  -33.0810   37.5090 C   0  0  0  0  0  0  0  0  0  0  0  0
   19.5660  -32.0210   36.5780 C   0  0  0  0  0  0  0  0  0  0  0  0
   19.8110  -32.2510   35.3960 O   0  0  0  0  0  0  0  0  0  0  0  0
   19.6620  -30.6420   37.1110 C   0  0  0  0  0  0  0  0  0  0  0  0
   20.0470  -29.6520   36.2260 O   0  0  0  0  0  0  0  0  0  0  0  0
   18.4140  -28.1870   38.9750 C   0  0  0  0  0  0  0  0  0  0  0  0
   18.5030  -26.9450   39.6110 C   0  0  0  0  0  0  0  0  0  0  0  0
   19.6380  -26.5860   40.3530 C   0  0  0  0  0  0  0  0  0  0  0  0
   19.7430  -25.3370   41.0020 N   0  0  0  0  0  0  0  0  0  0  0  0
   19.2380  -24.2150   40.1960 C   0  0  0  0  0  0  0  0  0  0  0  0
   19.6230  -22.9010   40.8790 C   0  0  0  0  0  0  0  0  0  0  0  0
   19.1110  -22.8570   42.3170 C   0  0  0  0  0  0  0  0  0  0  0  0
   19.5660  -24.0900   43.0970 C   0  0  0  0  0  0  0  0  0  0  0  0
   19.1920  -25.3800   42.3660 C   0  0  0  0  0  0  0  0  0  0  0  0
   21.9845  -26.8917   43.3715 H   0  0  0  0  0  0  0  0  0  0  0  0
   20.9335  -28.2421   42.8252 H   0  0  0  0  0  0  0  0  0  0  0  0
   22.7191  -28.4372   42.8252 H   0  0  0  0  0  0  0  0  0  0  0  0
   22.0819  -26.1063   41.2734 H   0  0  0  0  0  0  0  0  0  0  0  0
   22.7953  -27.6853   40.7304 H   0  0  0  0  0  0  0  0  0  0  0  0
   21.4223  -29.4776   39.8971 H   0  0  0  0  0  0  0  0  0  0  0  0
   18.3457  -33.4346   40.7981 H   0  0  0  0  0  0  0  0  0  0  0  0
   18.1237  -35.8108   40.0692 H   0  0  0  0  0  0  0  0  0  0  0  0
   18.5765  -36.4375   37.6948 H   0  0  0  0  0  0  0  0  0  0  0  0
   19.0900  -34.2540   35.0980 H   0  0  0  0  0  0  0  0  0  0  0  0
   19.7290  -28.7770   36.3350 H   0  0  0  0  0  0  0  0  0  0  0  0
   17.5091  -28.4427   38.4042 H   0  0  0  0  0  0  0  0  0  0  0  0
   17.6665  -26.2355   39.5279 H   0  0  0  0  0  0  0  0  0  0  0  0
   19.6830  -24.2528   39.1908 H   0  0  0  0  0  0  0  0  0  0  0  0
   18.1436  -24.2824   40.1079 H   0  0  0  0  0  0  0  0  0  0  0  0
   20.7190  -22.8071   40.8851 H   0  0  0  0  0  0  0  0  0  0  0  0
   19.1664  -22.0706   40.3205 H   0  0  0  0  0  0  0  0  0  0  0  0
   19.5011  -21.9547   42.8105 H   0  0  0  0  0  0  0  0  0  0  0  0
   18.0113  -22.8400   42.2977 H   0  0  0  0  0  0  0  0  0  0  0  0
   20.6583  -24.0524   43.2211 H   0  0  0  0  0  0  0  0  0  0  0  0
   19.0626  -24.0871   44.0750 H   0  0  0  0  0  0  0  0  0  0  0  0
   19.6095  -26.2432   42.9050 H   0  0  0  0  0  0  0  0  0  0  0  0
   18.0972  -25.4765   42.3208 H   0  0  0  0  0  0  0  0  0  0  0  0
  1  2  1  0
  2  3  1  0
  3  4  2  0
  4  5  1  0
  5  6  1  0
  6  7  1  0
  7  8  1  0
  8  9  2  0
  9 10  1  0
 10 11  2  0
 11 12  1  0
 12 13  1  0
 12 14  2  0
 14 15  1  0
 15 16  2  0
 15 17  1  0
 17 18  1  0
  5 19  2  0
 19 20  1  0
 20 21  2  0
 21 22  1  0
 22 23  1  0
 23 24  1  0
 24 25  1  0
 25 26  1  0
 26 27  1  0
 21  3  1  0
 27 22  1  0
 17  6  2  0
 14  8  1  0
  1 28  1  0
  1 29  1  0
  1 30  1  0
  2 31  1  0
  2 32  1  0
  4 33  1  0
  9 34  1  0
 10 35  1  0
 11 36  1  0
 13 37  1  0
 18 38  1  0
 19 39  1  0
 20 40  1  0
 23 41  1  0
 23 42  1  0
 24 43  1  0
 24 44  1  0
 25 45  1  0
 25 46  1  0
 26 47  1  0
 26 48  1  0
 27 49  1  0
 27 50  1  0
M  END
>  <meeko>  (1) 
{"is_sidechain": [false], "free_energy": -7.978, "intermolecular_energy": -9.843, "internal_energy": -0.804}

$$$$
cand_029_out
     RDKit          3D

 50 53  0  0  0  0  0  0  0  0999 V2000
   18.5280  -33.3060   39.6920 C   0  0  0  0  0  0  0  0  0  0  0  0
   19.5090  -33.2730   38.5290 C   0  0  0  0  0  0  0  0  0  0  0  0
   19.6000  -31.8990   37.9020 C   0  0  0  0  0  0  0  0  0  0  0  0
   19.4090  -30.7670   38.7190 C   0  0  0  0  0  0  0  0  0  0  0  0
   19.4580  -29.4670   38.1960 C   0  0  0  0  0  0  0  0  0  0  0  0
   19.2810  -28.3060   39.0940 C   0  0  0  0  0  0  0  0  0  0  0  0
   20.1370  -28.3350   40.1900 O   0  0  0  0  0  0  0  0  0  0  0  0
   20.0780  -27.3170   41.1070 C   0  0  0  0  0  0  0  0  0  0  0  0
   20.9630  -27.3810   42.1830 C   0  0  0  0  0  0  0  0  0  0  0  0
   20.9540  -26.3770   43.1530 C   0  0  0  0  0  0  0  0  0  0  0  0
   20.0590  -25.3100   43.0480 C   0  0  0  0  0  0  0  0  0  0  0  0
   19.1770  -25.2480   41.9720 C   0  0  0  0  0  0  0  0  0  0  0  0
   18.3280  -24.1760   41.9310 O   0  0  0  0  0  0  0  0  0  0  0  0
   19.1870  -26.2530   41.0010 C   0  0  0  0  0  0  0  0  0  0  0  0
   18.2760  -26.2270   39.8550 C   0  0  0  0  0  0  0  0  0  0  0  0
   17.4560  -25.3250   39.6960 O   0  0  0  0  0  0  0  0  0  0  0  0
   18.3720  -27.3370   38.8790 C   0  0  0  0  0  0  0  0  0  0  0  0
   17.4970  -27.3090   37.8080 O   0  0  0  0  0  0  0  0  0  0  0  0
   19.7180  -29.3120   36.8320 C   0  0  0  0  0  0  0  0  0  0  0  0
   19.9010  -30.4270   36.0080 C   0  0  0  0  0  0  0  0  0  0  0  0
   19.8370  -31.7310   36.5230 C   0  0  0  0  0  0  0  0  0  0  0  0
   20.0210  -32.8670   35.7070 N   0  0  0  0  0  0  0  0  0  0  0  0
   19.0470  -33.9380   35.9670 C   0  0  0  0  0  0  0  0  0  0  0  0
   19.4830  -35.1980   35.2170 C   0  0  0  0  0  0  0  0  0  0  0  0
   19.6530  -34.9210   33.7250 C   0  0  0  0  0  0  0  0  0  0  0  0
   20.5880  -33.7350   33.4940 C   0  0  0  0  0  0  0  0  0  0  0  0
   20.1370  -32.5060   34.2850 C   0  0  0  0  0  0  0  0  0  0  0  0
   19.0837  -33.2873   40.6411 H   0  0  0  0  0  0  0  0  0  0  0  0
   17.8654  -32.4296   39.6378 H   0  0  0  0  0  0  0  0  0  0  0  0
   17.9258  -34.2249   39.6378 H   0  0  0  0  0  0  0  0  0  0  0  0
   20.5047  -33.5623   38.8962 H   0  0  0  0  0  0  0  0  0  0  0  0
   19.1487  -33.9733   37.7611 H   0  0  0  0  0  0  0  0  0  0  0  0
   19.2168  -30.9065   39.7931 H   0  0  0  0  0  0  0  0  0  0  0  0
   21.6674  -28.2217   42.2673 H   0  0  0  0  0  0  0  0  0  0  0  0
   21.6528  -26.4264   44.0011 H   0  0  0  0  0  0  0  0  0  0  0  0
   20.0507  -24.5202   43.8136 H   0  0  0  0  0  0  0  0  0  0  0  0
   18.0260  -23.8480   41.1060 H   0  0  0  0  0  0  0  0  0  0  0  0
   17.4020  -28.0640   37.2620 H   0  0  0  0  0  0  0  0  0  0  0  0
   19.7794  -28.3016   36.4015 H   0  0  0  0  0  0  0  0  0  0  0  0
   20.0988  -30.2792   34.9361 H   0  0  0  0  0  0  0  0  0  0  0  0
   19.0067  -34.1463   37.0464 H   0  0  0  0  0  0  0  0  0  0  0  0
   18.0498  -33.6261   35.6229 H   0  0  0  0  0  0  0  0  0  0  0  0
   20.4415  -35.5471   35.6287 H   0  0  0  0  0  0  0  0  0  0  0  0
   18.7047  -35.9652   35.3426 H   0  0  0  0  0  0  0  0  0  0  0  0
   20.0755  -35.8128   33.2389 H   0  0  0  0  0  0  0  0  0  0  0  0
   18.6683  -34.6808   33.2976 H   0  0  0  0  0  0  0  0  0  0  0  0
   21.6036  -34.0127   33.8125 H   0  0  0  0  0  0  0  0  0  0  0  0
   20.5696  -33.4833   32.4233 H   0  0  0  0  0  0  0  0  0  0  0  0
   20.8769  -31.7004   34.1683 H   0  0  0  0  0  0  0  0  0  0  0  0
   19.1631  -32.1592   33.9092 H   0  0  0  0  0  0  0  0  0  0  0  0
  1  2  1  0
  2  3  1  0
  3  4  2  0
  4  5  1  0
  5  6  1  0
  6  7  1  0
  7  8  1  0
  8  9  2  0
  9 10  1  0
 10 11  2  0
 11 12  1  0
 12 13  1  0
 12 14  2  0
 14 15  1  0
 15 16  2  0
 15 17  1  0
 17 18  1  0
  5 19  2  0
 19 20  1  0
 20 21  2  0
 21 22  1  0
 22 23  1  0
 23 24  1  0
 24 25  1  0
 25 26  1  0
 26 27  1  0
 21  3  1  0
 27 22  1  0
 17  6  2  0
 14  8  1  0
  1 28  1  0
  1 29  1  0
  1 30  1  0
  2 31  1  0
  2 32  1  0
  4 33  1  0
  9 34  1  0
 10 35  1  0
 11 36  1  0
 13 37  1  0
 18 38  1  0
 19 39  1  0
 20 40  1  0
 23 41  1  0
 23 42  1  0
 24 43  1  0
 24 44  1  0
 25 45  1  0
 25 46  1  0
 26 47  1  0
 26 48  1  0
 27 49  1  0
 27 50  1  0
M  END
>  <meeko>  (2) 
{"is_sidechain": [false], "free_energy": -7.654, "intermolecular_energy": -10.553, "internal_energy": 0.305}

$$$$
cand_029_out
     RDKit          3D

 50 53  0  0  0  0  0  0  0  0999 V2000
   19.3020  -23.4490   38.3310 C   0  0  0  0  0  0  0  0  0  0  0  0
   19.6660  -24.5750   37.3750 C   0  0  0  0  0  0  0  0  0  0  0  0
   19.7510  -25.9120   38.0790 C   0  0  0  0  0  0  0  0  0  0  0  0
   20.4830  -26.0010   39.2790 C   0  0  0  0  0  0  0  0  0  0  0  0
   20.6210  -27.2140   39.9680 C   0  0  0  0  0  0  0  0  0  0  0  0
   21.3740  -27.2570   41.2400 C   0  0  0  0  0  0  0  0  0  0  0  0
   22.3550  -28.2410   41.2540 O   0  0  0  0  0  0  0  0  0  0  0  0
   23.1290  -28.3920   42.3760 C   0  0  0  0  0  0  0  0  0  0  0  0
   24.1100  -29.3840   42.3410 C   0  0  0  0  0  0  0  0  0  0  0  0
   24.9310  -29.5910   43.4510 C   0  0  0  0  0  0  0  0  0  0  0  0
   24.7710  -28.8080   44.5960 C   0  0  0  0  0  0  0  0  0  0  0  0
   23.7910  -27.8180   44.6280 C   0  0  0  0  0  0  0  0  0  0  0  0
   23.6890  -27.0890   45.7810 O   0  0  0  0  0  0  0  0  0  0  0  0
   22.9710  -27.6110   43.5170 C   0  0  0  0  0  0  0  0  0  0  0  0
   21.9280  -26.5830   43.5090 C   0  0  0  0  0  0  0  0  0  0  0  0
   21.7220  -25.8580   44.4800 O   0  0  0  0  0  0  0  0  0  0  0  0
   21.1170  -26.4400   42.2780 C   0  0  0  0  0  0  0  0  0  0  0  0
   20.1270  -25.4740   42.2870 O   0  0  0  0  0  0  0  0  0  0  0  0
   19.9950  -28.3480   39.4420 C   0  0  0  0  0  0  0  0  0  0  0  0
   19.2730  -28.2760   38.2480 C   0  0  0  0  0  0  0  0  0  0  0  0
   19.1460  -27.0670   37.5460 C   0  0  0  0  0  0  0  0  0  0  0  0
   18.4180  -26.9770   36.3390 N   0  0  0  0  0  0  0  0  0  0  0  0
   18.7730  -28.0180   35.3620 C   0  0  0  0  0  0  0  0  0  0  0  0
   18.1200  -27.6820   34.0200 C   0  0  0  0  0  0  0  0  0  0  0  0
   16.6080  -27.5190   34.1690 C   0  0  0  0  0  0  0  0  0  0  0  0
   16.2740  -26.5080   35.2650 C   0  0  0  0  0  0  0  0  0  0  0  0
   16.9710  -26.8600   36.5800 C   0  0  0  0  0  0  0  0  0  0  0  0
   19.4147  -23.7977   39.3681 H   0  0  0  0  0  0  0  0  0  0  0  0
   19.9686  -22.5913   38.1581 H   0  0  0  0  0  0  0  0  0  0  0  0
   18.2594  -23.1438   38.1581 H   0  0  0  0  0  0  0  0  0  0  0  0
   18.8986  -24.6356   36.5893 H   0  0  0  0  0  0  0  0  0  0  0  0
   20.6554  -24.3521   36.9489 H   0  0  0  0  0  0  0  0  0  0  0  0
   20.9582  -25.0961   39.6857 H   0  0  0  0  0  0  0  0  0  0  0  0
   24.2362  -30.0021   41.4399 H   0  0  0  0  0  0  0  0  0  0  0  0
   25.7051  -30.3721   43.4236 H   0  0  0  0  0  0  0  0  0  0  0  0
   25.4172  -28.9724   45.4709 H   0  0  0  0  0  0  0  0  0  0  0  0
   23.1300  -27.3820   46.4740 H   0  0  0  0  0  0  0  0  0  0  0  0
   19.4760  -25.4650   41.6130 H   0  0  0  0  0  0  0  0  0  0  0  0
   20.0717  -29.3077   39.9741 H   0  0  0  0  0  0  0  0  0  0  0  0
   18.7952  -29.1836   37.8506 H   0  0  0  0  0  0  0  0  0  0  0  0
   19.8658  -28.0544   35.2420 H   0  0  0  0  0  0  0  0  0  0  0  0
   18.4168  -28.9971   35.7148 H   0  0  0  0  0  0  0  0  0  0  0  0
   18.5466  -26.7428   33.6381 H   0  0  0  0  0  0  0  0  0  0  0  0
   18.3149  -28.5081   33.3203 H   0  0  0  0  0  0  0  0  0  0  0  0
   16.1879  -27.1679   33.2150 H   0  0  0  0  0  0  0  0  0  0  0  0
   16.1751  -28.4920   34.4445 H   0  0  0  0  0  0  0  0  0  0  0  0
   16.6021  -25.5089   34.9423 H   0  0  0  0  0  0  0  0  0  0  0  0
   15.1871  -26.5264   35.4335 H   0  0  0  0  0  0  0  0  0  0  0  0
   16.7833  -26.0684   37.3203 H   0  0  0  0  0  0  0  0  0  0  0  0
   16.5800  -27.8137   36.9642 H   0  0  0  0  0  0  0  0  0  0  0  0
  1  2  1  0
  2  3  1  0
  3  4  2  0
  4  5  1  0
  5  6  1  0
  6  7  1  0
  7  8  1  0
  8  9  2  0
  9 10  1  0
 10 11  2  0
 11 12  1  0
 12 13  1  0
 12 14  2  0
 14 15  1  0
 15 16  2  0
 15 17  1  0
 17 18  1  0
  5 19  2  0
 19 20  1  0
 20 21  2  0
 21 22  1  0
 22 23  1  0
 23 24  1  0
 24 25  1  0
 25 26  1  0
 26 27  1  0
 21  3  1  0
 27 22  1  0
 17  6  2  0
 14  8  1  0
  1 28  1  0
  1 29  1  0
  1 30  1  0
  2 31  1  0
  2 32  1  0
  4 33  1  0
  9 34  1  0
 10 35  1  0
 11 36  1  0
 13 37  1  0
 18 38  1  0
 19 39  1  0
 20 40  1  0
 23 41  1  0
 23 42  1  0
 24 43  1  0
 24 44  1  0
 25 45  1  0
 25 46  1  0
 26 47  1  0
 26 48  1  0
 27 49  1  0
 27 50  1  0
M  END
>  <meeko>  (3) 
{"is_sidechain": [false], "free_energy": -7.148, "intermolecular_energy": -9.037, "internal_energy": -0.587}

$$$$
cand_029_out
     RDKit          3D

 50 53  0  0  0  0  0  0  0  0999 V2000
   21.2530  -21.2920   43.2560 C   0  0  0  0  0  0  0  0  0  0  0  0
   19.8250  -21.7800   43.0620 C   0  0  0  0  0  0  0  0  0  0  0  0
   19.7750  -23.2270   42.6250 C   0  0  0  0  0  0  0  0  0  0  0  0
   19.5430  -23.5170   41.2660 C   0  0  0  0  0  0  0  0  0  0  0  0
   19.4610  -24.8370   40.7990 C   0  0  0  0  0  0  0  0  0  0  0  0
   19.2470  -25.0970   39.3600 C   0  0  0  0  0  0  0  0  0  0  0  0
   18.1070  -24.4750   38.8620 O   0  0  0  0  0  0  0  0  0  0  0  0
   17.7870  -24.6340   37.5380 C   0  0  0  0  0  0  0  0  0  0  0  0
   16.6420  -23.9830   37.0800 C   0  0  0  0  0  0  0  0  0  0  0  0
   16.2590  -24.1050   35.7430 C   0  0  0  0  0  0  0  0  0  0  0  0
   17.0200  -24.8790   34.8650 C   0  0  0  0  0  0  0  0  0  0  0  0
   18.1630  -25.5280   35.3250 C   0  0  0  0  0  0  0  0  0  0  0  0
   18.8610  -26.2700   34.4120 O   0  0  0  0  0  0  0  0  0  0  0  0
   18.5460  -25.4050   36.6630 C   0  0  0  0  0  0  0  0  0  0  0  0
   19.7390  -26.0710   37.1880 C   0  0  0  0  0  0  0  0  0  0  0  0
   20.4570  -26.7740   36.4790 O   0  0  0  0  0  0  0  0  0  0  0  0
   20.0620  -25.8720   38.6190 C   0  0  0  0  0  0  0  0  0  0  0  0
   21.1840  -26.5170   39.1070 O   0  0  0  0  0  0  0  0  0  0  0  0
   19.6310  -25.8750   41.7200 C   0  0  0  0  0  0  0  0  0  0  0  0
   19.8530  -25.6020   43.0720 C   0  0  0  0  0  0  0  0  0  0  0  0
   19.9190  -24.2830   43.5470 C   0  0  0  0  0  0  0  0  0  0  0  0
   20.1440  -23.9890   44.9090 N   0  0  0  0  0  0  0  0  0  0  0  0
   18.9100  -23.9410   45.7090 C   0  0  0  0  0  0  0  0  0  0  0  0
   19.2370  -23.3770   47.0930 C   0  0  0  0  0  0  0  0  0  0  0  0
   20.3350  -24.1920   47.7730 C   0  0  0  0  0  0  0  0  0  0  0  0
   21.5640  -24.3110   46.8720 C   0  0  0  0  0  0  0  0  0  0  0  0
   21.1900  -24.8460   45.4890 C   0  0  0  0  0  0  0  0  0  0  0  0
   21.4720  -21.2172   44.3314 H   0  0  0  0  0  0  0  0  0  0  0  0
   21.9501  -22.0029   42.7884 H   0  0  0  0  0  0  0  0  0  0  0  0
   21.3693  -20.3031   42.7884 H   0  0  0  0  0  0  0  0  0  0  0  0
   19.2824  -21.6774   44.0133 H   0  0  0  0  0  0  0  0  0  0  0  0
   19.3621  -21.1704   42.2720 H   0  0  0  0  0  0  0  0  0  0  0  0
   19.4232  -22.6876   40.5535 H   0  0  0  0  0  0  0  0  0  0  0  0
   16.0412  -23.3740   37.7714 H   0  0  0  0  0  0  0  0  0  0  0  0
   15.3566  -23.5907   35.3809 H   0  0  0  0  0  0  0  0  0  0  0  0
   16.7173  -24.9760   33.8119 H   0  0  0  0  0  0  0  0  0  0  0  0
   19.6060  -25.9010   33.9800 H   0  0  0  0  0  0  0  0  0  0  0  0
   21.7420  -26.9910   38.5220 H   0  0  0  0  0  0  0  0  0  0  0  0
   19.5895  -26.9190   41.3760 H   0  0  0  0  0  0  0  0  0  0  0  0
   19.9784  -26.4366   43.7775 H   0  0  0  0  0  0  0  0  0  0  0  0
   18.1726  -23.2938   45.2115 H   0  0  0  0  0  0  0  0  0  0  0  0
   18.4916  -24.9534   45.8090 H   0  0  0  0  0  0  0  0  0  0  0  0
   19.5762  -22.3361   46.9859 H   0  0  0  0  0  0  0  0  0  0  0  0
   18.3301  -23.4260   47.7136 H   0  0  0  0  0  0  0  0  0  0  0  0
   20.6232  -23.6955   48.7113 H   0  0  0  0  0  0  0  0  0  0  0  0
   19.9487  -25.2019   47.9753 H   0  0  0  0  0  0  0  0  0  0  0  0
   22.0234  -23.3178   46.7597 H   0  0  0  0  0  0  0  0  0  0  0  0
   22.2687  -25.0156   47.3377 H   0  0  0  0  0  0  0  0  0  0  0  0
   22.0768  -24.8369   44.8382 H   0  0  0  0  0  0  0  0  0  0  0  0
   20.8175  -25.8771   45.5784 H   0  0  0  0  0  0  0  0  0  0  0  0
  1  2  1  0
  2  3  1  0
  3  4  2  0
  4  5  1  0
  5  6  1  0
  6  7  1  0
  7  8  1  0
  8  9  2  0
  9 10  1  0
 10 11  2  0
 11 12  1  0
 12 13  1  0
 12 14  2  0
 14 15  1  0
 15 16  2  0
 15 17  1  0
 17 18  1  0
  5 19  2  0
 19 20  1  0
 20 21  2  0
 21 22  1  0
 22 23  1  0
 23 24  1  0
 24 25  1  0
 25 26  1  0
 26 27  1  0
 21  3  1  0
 27 22  1  0
 17  6  2  0
 14  8  1  0
  1 28  1  0
  1 29  1  0
  1 30  1  0
  2 31  1  0
  2 32  1  0
  4 33  1  0
  9 34  1  0
 10 35  1  0
 11 36  1  0
 13 37  1  0
 18 38  1  0
 19 39  1  0
 20 40  1  0
 23 41  1  0
 23 42  1  0
 24 43  1  0
 24 44  1  0
 25 45  1  0
 25 46  1  0
 26 47  1  0
 26 48  1  0
 27 49  1  0
 27 50  1  0
M  END
>  <meeko>  (4) 
{"is_sidechain": [false], "free_energy": -7.075, "intermolecular_energy": -9.007, "internal_energy": -0.526}

$$$$
cand_029_out
     RDKit          3D

 50 53  0  0  0  0  0  0  0  0999 V2000
   19.1170  -31.7200   39.4950 C   0  0  0  0  0  0  0  0  0  0  0  0
   19.8010  -32.0620   38.1790 C   0  0  0  0  0  0  0  0  0  0  0  0
   19.8260  -30.8850   37.2300 C   0  0  0  0  0  0  0  0  0  0  0  0
   19.6630  -29.5870   37.7540 C   0  0  0  0  0  0  0  0  0  0  0  0
   19.6540  -28.4550   36.9270 C   0  0  0  0  0  0  0  0  0  0  0  0
   19.5090  -27.1100   37.5220 C   0  0  0  0  0  0  0  0  0  0  0  0
   18.6570  -26.2860   36.7950 O   0  0  0  0  0  0  0  0  0  0  0  0
   18.4330  -25.0070   37.2350 C   0  0  0  0  0  0  0  0  0  0  0  0
   17.5610  -24.2200   36.4820 C   0  0  0  0  0  0  0  0  0  0  0  0
   17.2920  -22.9080   36.8750 C   0  0  0  0  0  0  0  0  0  0  0  0
   17.8960  -22.3810   38.0180 C   0  0  0  0  0  0  0  0  0  0  0  0
   18.7660  -23.1690   38.7690 C   0  0  0  0  0  0  0  0  0  0  0  0
   19.3220  -22.5900   39.8770 O   0  0  0  0  0  0  0  0  0  0  0  0
   19.0340  -24.4820   38.3760 C   0  0  0  0  0  0  0  0  0  0  0  0
   19.9430  -25.3440   39.1350 C   0  0  0  0  0  0  0  0  0  0  0  0
   20.5170  -24.9500   40.1480 O   0  0  0  0  0  0  0  0  0  0  0  0
   20.1550  -26.7220   38.6380 C   0  0  0  0  0  0  0  0  0  0  0  0
   21.0260  -27.5220   39.3550 O   0  0  0  0  0  0  0  0  0  0  0  0
   19.8270  -28.6400   35.5520 C   0  0  0  0  0  0  0  0  0  0  0  0
   19.9820  -29.9230   35.0180 C   0  0  0  0  0  0  0  0  0  0  0  0
   19.9750  -31.0600   35.8400 C   0  0  0  0  0  0  0  0  0  0  0  0
   20.1320  -32.3610   35.3160 N   0  0  0  0  0  0  0  0  0  0  0  0
   19.1530  -33.3250   35.8440 C   0  0  0  0  0  0  0  0  0  0  0  0
   19.5620  -34.7340   35.4120 C   0  0  0  0  0  0  0  0  0  0  0  0
   19.7030  -34.8250   33.8930 C   0  0  0  0  0  0  0  0  0  0  0  0
   20.6450  -33.7430   33.3670 C   0  0  0  0  0  0  0  0  0  0  0  0
   20.2210  -32.3540   33.8480 C   0  0  0  0  0  0  0  0  0  0  0  0
   19.7542  -32.0386   40.3331 H   0  0  0  0  0  0  0  0  0  0  0  0
   18.9529  -30.6338   39.5515 H   0  0  0  0  0  0  0  0  0  0  0  0
   18.1495  -32.2404   39.5515 H   0  0  0  0  0  0  0  0  0  0  0  0
   20.8356  -32.3724   38.3869 H   0  0  0  0  0  0  0  0  0  0  0  0
   19.2307  -32.8718   37.7005 H   0  0  0  0  0  0  0  0  0  0  0  0
   19.5397  -29.4588   38.8395 H   0  0  0  0  0  0  0  0  0  0  0  0
   17.0862  -24.6330   35.5798 H   0  0  0  0  0  0  0  0  0  0  0  0
   16.6027  -22.2880   36.2829 H   0  0  0  0  0  0  0  0  0  0  0  0
   17.6856  -21.3459   38.3251 H   0  0  0  0  0  0  0  0  0  0  0  0
   18.8270  -22.5250   40.6700 H   0  0  0  0  0  0  0  0  0  0  0  0
   21.9020  -27.6510   39.0500 H   0  0  0  0  0  0  0  0  0  0  0  0
   19.8413  -27.7669   34.8831 H   0  0  0  0  0  0  0  0  0  0  0  0
   20.1120  -30.0432   33.9323 H   0  0  0  0  0  0  0  0  0  0  0  0
   19.1330  -33.2668   36.9423 H   0  0  0  0  0  0  0  0  0  0  0  0
   18.1518  -33.0913   35.4528 H   0  0  0  0  0  0  0  0  0  0  0  0
   20.5258  -34.9870   35.8780 H   0  0  0  0  0  0  0  0  0  0  0  0
   18.7804  -35.4383   35.7330 H   0  0  0  0  0  0  0  0  0  0  0  0
   20.1059  -35.8135   33.6273 H   0  0  0  0  0  0  0  0  0  0  0  0
   18.7119  -34.6792   33.4387 H   0  0  0  0  0  0  0  0  0  0  0  0
   21.6642  -33.9504   33.7251 H   0  0  0  0  0  0  0  0  0  0  0  0
   20.6083  -33.7556   32.2677 H   0  0  0  0  0  0  0  0  0  0  0  0
   20.9650  -31.6099   33.5274 H   0  0  0  0  0  0  0  0  0  0  0  0
   19.2422  -32.0951   33.4180 H   0  0  0  0  0  0  0  0  0  0  0  0
  1  2  1  0
  2  3  1  0
  3  4  2  0
  4  5  1  0
  5  6  1  0
  6  7  1  0
  7  8  1  0
  8  9  2  0
  9 10  1  0
 10 11  2  0
 11 12  1  0
 12 13  1  0
 12 14  2  0
 14 15  1  0
 15 16  2  0
 15 17  1  0
 17 18  1  0
  5 19  2  0
 19 20  1  0
 20 21  2  0
 21 22  1  0
 22 23  1  0
 23 24  1  0
 24 25  1  0
 25 26  1  0
 26 27  1  0
 21  3  1  0
 27 22  1  0
 17  6  2  0
 14  8  1  0
  1 28  1  0
  1 29  1  0
  1 30  1  0
  2 31  1  0
  2 32  1  0
  4 33  1  0
  9 34  1  0
 10 35  1  0
 11 36  1  0
 13 37  1  0
 18 38  1  0
 19 39  1  0
 20 40  1  0
 23 41  1  0
 23 42  1  0
 24 43  1  0
 24 44  1  0
 25 45  1  0
 25 46  1  0
 26 47  1  0
 26 48  1  0
 27 49  1  0
 27 50  1  0
M  END
>  <meeko>  (5) 
{"is_sidechain": [false], "free_energy": -7.009, "intermolecular_energy": -9.888, "internal_energy": 0.436}

$$$$
cand_029_out
     RDKit          3D

 50 53  0  0  0  0  0  0  0  0999 V2000
   18.0880  -24.6990   37.6760 C   0  0  0  0  0  0  0  0  0  0  0  0
   17.7170  -25.3040   39.0220 C   0  0  0  0  0  0  0  0  0  0  0  0
   18.6430  -26.4350   39.4110 C   0  0  0  0  0  0  0  0  0  0  0  0
   18.7270  -27.5620   38.5700 C   0  0  0  0  0  0  0  0  0  0  0  0
   19.5480  -28.6550   38.8850 C   0  0  0  0  0  0  0  0  0  0  0  0
   19.6290  -29.8050   37.9600 C   0  0  0  0  0  0  0  0  0  0  0  0
   19.9410  -29.4310   36.6580 O   0  0  0  0  0  0  0  0  0  0  0  0
   20.0460  -30.4010   35.6940 C   0  0  0  0  0  0  0  0  0  0  0  0
   20.3730  -29.9800   34.4040 C   0  0  0  0  0  0  0  0  0  0  0  0
   20.4940  -30.9170   33.3760 C   0  0  0  0  0  0  0  0  0  0  0  0
   20.2860  -32.2730   33.6370 C   0  0  0  0  0  0  0  0  0  0  0  0
   19.9600  -32.6900   34.9250 C   0  0  0  0  0  0  0  0  0  0  0  0
   19.7710  -34.0320   35.1100 O   0  0  0  0  0  0  0  0  0  0  0  0
   19.8400  -31.7520   35.9530 C   0  0  0  0  0  0  0  0  0  0  0  0
   19.4980  -32.1470   37.3210 C   0  0  0  0  0  0  0  0  0  0  0  0
   19.2950  -33.3200   37.6280 O   0  0  0  0  0  0  0  0  0  0  0  0
   19.4020  -31.0760   38.3400 C   0  0  0  0  0  0  0  0  0  0  0  0
   19.0650  -31.4600   39.6250 O   0  0  0  0  0  0  0  0  0  0  0  0
   20.3050  -28.5960   40.0580 C   0  0  0  0  0  0  0  0  0  0  0  0
   20.2250  -27.4880   40.9060 C   0  0  0  0  0  0  0  0  0  0  0  0
   19.3920  -26.3990   40.6040 C   0  0  0  0  0  0  0  0  0  0  0  0
   19.3010  -25.2710   41.4480 N   0  0  0  0  0  0  0  0  0  0  0  0
   19.7180  -25.5410   42.8320 C   0  0  0  0  0  0  0  0  0  0  0  0
   19.3480  -24.3400   43.7050 C   0  0  0  0  0  0  0  0  0  0  0  0
   19.9600  -23.0520   43.1570 C   0  0  0  0  0  0  0  0  0  0  0  0
   19.5930  -22.8570   41.6860 C   0  0  0  0  0  0  0  0  0  0  0  0
   19.9480  -24.0900   40.8550 C   0  0  0  0  0  0  0  0  0  0  0  0
   18.6570  -23.7712   37.8354 H   0  0  0  0  0  0  0  0  0  0  0  0
   18.7033  -25.4138   37.1098 H   0  0  0  0  0  0  0  0  0  0  0  0
   17.1720  -24.4747   37.1098 H   0  0  0  0  0  0  0  0  0  0  0  0
   17.7724  -24.5195   39.7911 H   0  0  0  0  0  0  0  0  0  0  0  0
   16.6986  -25.7119   38.9414 H   0  0  0  0  0  0  0  0  0  0  0  0
   18.1343  -27.5855   37.6436 H   0  0  0  0  0  0  0  0  0  0  0  0
   20.5351  -28.9118   34.1976 H   0  0  0  0  0  0  0  0  0  0  0  0
   20.7535  -30.5867   32.3593 H   0  0  0  0  0  0  0  0  0  0  0  0
   20.3795  -33.0106   32.8264 H   0  0  0  0  0  0  0  0  0  0  0  0
   19.3660  -34.5450   34.4390 H   0  0  0  0  0  0  0  0  0  0  0  0
   19.7010  -31.4070   40.3110 H   0  0  0  0  0  0  0  0  0  0  0  0
   20.9718  -29.4316   40.3171 H   0  0  0  0  0  0  0  0  0  0  0  0
   20.8259  -27.4688   41.8272 H   0  0  0  0  0  0  0  0  0  0  0  0
   19.2042  -26.4398   43.2037 H   0  0  0  0  0  0  0  0  0  0  0  0
   20.8048  -25.7068   42.8679 H   0  0  0  0  0  0  0  0  0  0  0  0
   18.2531  -24.2362   43.7277 H   0  0  0  0  0  0  0  0  0  0  0  0
   19.7415  -24.5102   44.7180 H   0  0  0  0  0  0  0  0  0  0  0  0
   19.5827  -22.1980   43.7387 H   0  0  0  0  0  0  0  0  0  0  0  0
   21.0548  -23.1197   43.2403 H   0  0  0  0  0  0  0  0  0  0  0  0
   18.5114  -22.6722   41.6083 H   0  0  0  0  0  0  0  0  0  0  0  0
   20.1639  -22.0010   41.2970 H   0  0  0  0  0  0  0  0  0  0  0  0
   19.5922  -23.9540   39.8231 H   0  0  0  0  0  0  0  0  0  0  0  0
   21.0390  -24.2299   40.8457 H   0  0  0  0  0  0  0  0  0  0  0  0
  1  2  1  0
  2  3  1  0
  3  4  2  0
  4  5  1  0
  5  6  1  0
  6  7  1  0
  7  8  1  0
  8  9  2  0
  9 10  1  0
 10 11  2  0
 11 12  1  0
 12 13  1  0
 12 14  2  0
 14 15  1  0
 15 16  2  0
 15 17  1  0
 17 18  1  0
  5 19  2  0
 19 20  1  0
 20 21  2  0
 21 22  1  0
 22 23  1  0
 23 24  1  0
 24 25  1  0
 25 26  1  0
 26 27  1  0
 21  3  1  0
 27 22  1  0
 17  6  2  0
 14  8  1  0
  1 28  1  0
  1 29  1  0
  1 30  1  0
  2 31  1  0
  2 32  1  0
  4 33  1  0
  9 34  1  0
 10 35  1  0
 11 36  1  0
 13 37  1  0
 18 38  1  0
 19 39  1  0
 20 40  1  0
 23 41  1  0
 23 42  1  0
 24 43  1  0
 24 44  1  0
 25 45  1  0
 25 46  1  0
 26 47  1  0
 26 48  1  0
 27 49  1  0
 27 50  1  0
M  END
>  <meeko>  (6) 
{"is_sidechain": [false], "free_energy": -6.924, "intermolecular_energy": -8.984, "internal_energy": -0.363}

$$$$
cand_029_out
     RDKit          3D

 50 53  0  0  0  0  0  0  0  0999 V2000
   22.6140  -27.8830   42.0670 C   0  0  0  0  0  0  0  0  0  0  0  0
   21.1370  -27.8150   41.7090 C   0  0  0  0  0  0  0  0  0  0  0  0
   20.5480  -26.4500   41.9890 C   0  0  0  0  0  0  0  0  0  0  0  0
   20.8140  -25.8380   43.2290 C   0  0  0  0  0  0  0  0  0  0  0  0
   20.2800  -24.5840   43.5610 C   0  0  0  0  0  0  0  0  0  0  0  0
   20.6090  -23.9650   44.8610 C   0  0  0  0  0  0  0  0  0  0  0  0
   20.2100  -24.7380   45.9450 O   0  0  0  0  0  0  0  0  0  0  0  0
   20.4530  -24.2800   47.2150 C   0  0  0  0  0  0  0  0  0  0  0  0
   20.0470  -25.0950   48.2720 C   0  0  0  0  0  0  0  0  0  0  0  0
   20.2630  -24.6860   49.5890 C   0  0  0  0  0  0  0  0  0  0  0  0
   20.8830  -23.4630   49.8500 C   0  0  0  0  0  0  0  0  0  0  0  0
   21.2880  -22.6510   48.7920 C   0  0  0  0  0  0  0  0  0  0  0  0
   21.8890  -21.4660   49.1190 O   0  0  0  0  0  0  0  0  0  0  0  0
   21.0720  -23.0610   47.4750 C   0  0  0  0  0  0  0  0  0  0  0  0
   21.4810  -22.2390   46.3340 C   0  0  0  0  0  0  0  0  0  0  0  0
   22.0270  -21.1470   46.4830 O   0  0  0  0  0  0  0  0  0  0  0  0
   21.2120  -22.7670   44.9770 C   0  0  0  0  0  0  0  0  0  0  0  0
   21.5910  -21.9750   43.9090 O   0  0  0  0  0  0  0  0  0  0  0  0
   19.4770  -23.9380   42.6160 C   0  0  0  0  0  0  0  0  0  0  0  0
   19.1980  -24.5380   41.3850 C   0  0  0  0  0  0  0  0  0  0  0  0
   19.7170  -25.7990   41.0550 C   0  0  0  0  0  0  0  0  0  0  0  0
   19.4460  -26.4190   39.8160 N   0  0  0  0  0  0  0  0  0  0  0  0
   18.0850  -26.9690   39.7230 C   0  0  0  0  0  0  0  0  0  0  0  0
   17.9810  -27.8240   38.4580 C   0  0  0  0  0  0  0  0  0  0  0  0
   18.3660  -27.0200   37.2180 C   0  0  0  0  0  0  0  0  0  0  0  0
   19.7410  -26.3750   37.3910 C   0  0  0  0  0  0  0  0  0  0  0  0
   19.8140  -25.5580   38.6810 C   0  0  0  0  0  0  0  0  0  0  0  0
   22.7262  -27.8882   43.1613 H   0  0  0  0  0  0  0  0  0  0  0  0
   23.0506  -28.8022   41.6493 H   0  0  0  0  0  0  0  0  0  0  0  0
   23.1332  -27.0078   41.6493 H   0  0  0  0  0  0  0  0  0  0  0  0
   21.0204  -28.0392   40.6384 H   0  0  0  0  0  0  0  0  0  0  0  0
   20.6029  -28.5493   42.3299 H   0  0  0  0  0  0  0  0  0  0  0  0
   21.4568  -26.3564   43.9557 H   0  0  0  0  0  0  0  0  0  0  0  0
   19.5573  -26.0586   48.0678 H   0  0  0  0  0  0  0  0  0  0  0  0
   19.9440  -25.3287   50.4227 H   0  0  0  0  0  0  0  0  0  0  0  0
   21.0516  -23.1408   50.8882 H   0  0  0  0  0  0  0  0  0  0  0  0
   22.3780  -20.9950   48.4740 H   0  0  0  0  0  0  0  0  0  0  0  0
   21.8230  -21.0780   44.0500 H   0  0  0  0  0  0  0  0  0  0  0  0
   19.0600  -22.9460   42.8441 H   0  0  0  0  0  0  0  0  0  0  0  0
   18.5591  -24.0114   40.6608 H   0  0  0  0  0  0  0  0  0  0  0  0
   17.8766  -27.5901   40.6066 H   0  0  0  0  0  0  0  0  0  0  0  0
   17.3537  -26.1484   39.6793 H   0  0  0  0  0  0  0  0  0  0  0  0
   18.6570  -28.6868   38.5509 H   0  0  0  0  0  0  0  0  0  0  0  0
   16.9392  -28.1593   38.3475 H   0  0  0  0  0  0  0  0  0  0  0  0
   18.3901  -27.6912   36.3468 H   0  0  0  0  0  0  0  0  0  0  0  0
   17.6209  -26.2245   37.0698 H   0  0  0  0  0  0  0  0  0  0  0  0
   20.5057  -27.1651   37.4237 H   0  0  0  0  0  0  0  0  0  0  0  0
   19.9160  -25.6983   36.5416 H   0  0  0  0  0  0  0  0  0  0  0  0
   20.8378  -25.1810   38.8211 H   0  0  0  0  0  0  0  0  0  0  0  0
   19.1203  -24.7065   38.6208 H   0  0  0  0  0  0  0  0  0  0  0  0
  1  2  1  0
  2  3  1  0
  3  4  2  0
  4  5  1  0
  5  6  1  0
  6  7  1  0
  7  8  1  0
  8  9  2  0
  9 10  1  0
 10 11  2  0
 11 12  1  0
 12 13  1  0
 12 14  2  0
 14 15  1  0
 15 16  2  0
 15 17  1  0
 17 18  1  0
  5 19  2  0
 19 20  1  0
 20 21  2  0
 21 22  1  0
 22 23  1  0
 23 24  1  0
 24 25  1  0
 25 26  1  0
 26 27  1  0
 21  3  1  0
 27 22  1  0
 17  6  2  0
 14  8  1  0
  1 28  1  0
  1 29  1  0
  1 30  1  0
  2 31  1  0
  2 32  1  0
  4 33  1  0
  9 34  1  0
 10 35  1  0
 11 36  1  0
 13 37  1  0
 18 38  1  0
 19 39  1  0
 20 40  1  0
 23 41  1  0
 23 42  1  0
 24 43  1  0
 24 44  1  0
 25 45  1  0
 25 46  1  0
 26 47  1  0
 26 48  1  0
 27 49  1  0
 27 50  1  0
M  END
>  <meeko>  (7) 
{"is_sidechain": [false], "free_energy": -6.822, "intermolecular_energy": -8.538, "internal_energy": -0.683}

$$$$
cand_029_out
     RDKit          3D

 50 53  0  0  0  0  0  0  0  0999 V2000
   21.0110  -27.1810   42.7160 C   0  0  0  0  0  0  0  0  0  0  0  0
   20.0850  -26.0810   43.2140 C   0  0  0  0  0  0  0  0  0  0  0  0
   19.7760  -25.0670   42.1360 C   0  0  0  0  0  0  0  0  0  0  0  0
   19.6120  -25.5170   40.8100 C   0  0  0  0  0  0  0  0  0  0  0  0
   19.3470  -24.6260   39.7590 C   0  0  0  0  0  0  0  0  0  0  0  0
   19.1520  -25.1430   38.3880 C   0  0  0  0  0  0  0  0  0  0  0  0
   17.9730  -24.6960   37.8040 O   0  0  0  0  0  0  0  0  0  0  0  0
   17.6660  -25.1020   36.5310 C   0  0  0  0  0  0  0  0  0  0  0  0
   16.4780  -24.6190   35.9800 C   0  0  0  0  0  0  0  0  0  0  0  0
   16.1060  -24.9950   34.6880 C   0  0  0  0  0  0  0  0  0  0  0  0
   16.9200  -25.8540   33.9470 C   0  0  0  0  0  0  0  0  0  0  0  0
   18.1050  -26.3350   34.4990 C   0  0  0  0  0  0  0  0  0  0  0  0
   18.8540  -27.1730   33.7190 O   0  0  0  0  0  0  0  0  0  0  0  0
   18.4770  -25.9580   35.7920 C   0  0  0  0  0  0  0  0  0  0  0  0
   19.7140  -26.4400   36.4100 C   0  0  0  0  0  0  0  0  0  0  0  0
   20.4790  -27.2040   35.8250 O   0  0  0  0  0  0  0  0  0  0  0  0
   20.0200  -25.9760   37.7830 C   0  0  0  0  0  0  0  0  0  0  0  0
   21.1830  -26.4490   38.3610 O   0  0  0  0  0  0  0  0  0  0  0  0
   19.2310  -23.2660   40.0590 C   0  0  0  0  0  0  0  0  0  0  0  0
   19.4000  -22.8060   41.3680 C   0  0  0  0  0  0  0  0  0  0  0  0
   19.6820  -23.6910   42.4200 C   0  0  0  0  0  0  0  0  0  0  0  0
   19.8530  -23.2430   43.7480 N   0  0  0  0  0  0  0  0  0  0  0  0
   20.7270  -22.0640   43.8590 C   0  0  0  0  0  0  0  0  0  0  0  0
   21.0430  -21.8190   45.3360 C   0  0  0  0  0  0  0  0  0  0  0  0
   19.7620  -21.6700   46.1550 C   0  0  0  0  0  0  0  0  0  0  0  0
   18.8310  -22.8610   45.9340 C   0  0  0  0  0  0  0  0  0  0  0  0
   18.5670  -23.0930   44.4460 C   0  0  0  0  0  0  0  0  0  0  0  0
   21.4527  -27.7057   43.5760 H   0  0  0  0  0  0  0  0  0  0  0  0
   20.4377  -27.8946   42.1060 H   0  0  0  0  0  0  0  0  0  0  0  0
   21.8119  -26.7378   42.1060 H   0  0  0  0  0  0  0  0  0  0  0  0
   19.1430  -26.5367   43.5530 H   0  0  0  0  0  0  0  0  0  0  0  0
   20.5932  -25.5568   44.0368 H   0  0  0  0  0  0  0  0  0  0  0  0
   19.6938  -26.5925   40.5942 H   0  0  0  0  0  0  0  0  0  0  0  0
   15.8356  -23.9428   36.5631 H   0  0  0  0  0  0  0  0  0  0  0  0
   15.1702  -24.6140   34.2531 H   0  0  0  0  0  0  0  0  0  0  0  0
   16.6261  -26.1503   32.9293 H   0  0  0  0  0  0  0  0  0  0  0  0
   19.5100  -26.8210   33.1490 H   0  0  0  0  0  0  0  0  0  0  0  0
   22.0090  -26.2970   37.9450 H   0  0  0  0  0  0  0  0  0  0  0  0
   19.0041  -22.5494   39.2559 H   0  0  0  0  0  0  0  0  0  0  0  0
   19.3103  -21.7299   41.5776 H   0  0  0  0  0  0  0  0  0  0  0  0
   21.6610  -22.2433   43.3063 H   0  0  0  0  0  0  0  0  0  0  0  0
   20.2215  -21.1839   43.4349 H   0  0  0  0  0  0  0  0  0  0  0  0
   21.6216  -22.6696   45.7255 H   0  0  0  0  0  0  0  0  0  0  0  0
   21.6216  -20.8872   45.4197 H   0  0  0  0  0  0  0  0  0  0  0  0
   20.0220  -21.6095   47.2221 H   0  0  0  0  0  0  0  0  0  0  0  0
   19.2438  -20.7548   45.8328 H   0  0  0  0  0  0  0  0  0  0  0  0
   19.2956  -23.7625   46.3600 H   0  0  0  0  0  0  0  0  0  0  0  0
   17.8713  -22.6468   46.4270 H   0  0  0  0  0  0  0  0  0  0  0  0
   17.9683  -24.0066   44.3159 H   0  0  0  0  0  0  0  0  0  0  0  0
   18.0160  -22.2372   44.0290 H   0  0  0  0  0  0  0  0  0  0  0  0
  1  2  1  0
  2  3  1  0
  3  4  2  0
  4  5  1  0
  5  6  1  0
  6  7  1  0
  7  8  1  0
  8  9  2  0
  9 10  1  0
 10 11  2  0
 11 12  1  0
 12 13  1  0
 12 14  2  0
 14 15  1  0
 15 16  2  0
 15 17  1  0
 17 18  1  0
  5 19  2  0
 19 20  1  0
 20 21  2  0
 21 22  1  0
 22 23  1  0
 23 24  1  0
 24 25  1  0
 25 26  1  0
 26 27  1  0
 21  3  1  0
 27 22  1  0
 17  6  2  0
 14  8  1  0
  1 28  1  0
  1 29  1  0
  1 30  1  0
  2 31  1  0
  2 32  1  0
  4 33  1  0
  9 34  1  0
 10 35  1  0
 11 36  1  0
 13 37  1  0
 18 38  1  0
 19 39  1  0
 20 40  1  0
 23 41  1  0
 23 42  1  0
 24 43  1  0
 24 44  1  0
 25 45  1  0
 25 46  1  0
 26 47  1  0
 26 48  1  0
 27 49  1  0
 27 50  1  0
M  END
>  <meeko>  (8) 
{"is_sidechain": [false], "free_energy": -6.776, "intermolecular_energy": -8.622, "internal_energy": -0.542}

$$$$
cand_029_out
     RDKit          3D

 50 53  0  0  0  0  0  0  0  0999 V2000
   22.2360  -27.9580   42.4980 C   0  0  0  0  0  0  0  0  0  0  0  0
   22.1650  -27.2040   41.1780 C   0  0  0  0  0  0  0  0  0  0  0  0
   20.8820  -27.4880   40.4300 C   0  0  0  0  0  0  0  0  0  0  0  0
   20.8190  -28.6220   39.5970 C   0  0  0  0  0  0  0  0  0  0  0  0
   19.6670  -28.9290   38.8580 C   0  0  0  0  0  0  0  0  0  0  0  0
   19.6340  -30.1460   38.0190 C   0  0  0  0  0  0  0  0  0  0  0  0
   20.0090  -29.9050   36.7020 O   0  0  0  0  0  0  0  0  0  0  0  0
   20.0210  -30.9490   35.8130 C   0  0  0  0  0  0  0  0  0  0  0  0
   20.4160  -30.6630   34.5060 C   0  0  0  0  0  0  0  0  0  0  0  0
   20.4490  -31.6800   33.5500 C   0  0  0  0  0  0  0  0  0  0  0  0
   20.0850  -32.9820   33.9010 C   0  0  0  0  0  0  0  0  0  0  0  0
   19.6910  -33.2650   35.2070 C   0  0  0  0  0  0  0  0  0  0  0  0
   19.3480  -34.5600   35.4810 O   0  0  0  0  0  0  0  0  0  0  0  0
   19.6600  -32.2460   36.1620 C   0  0  0  0  0  0  0  0  0  0  0  0
   19.2510  -32.4990   37.5450 C   0  0  0  0  0  0  0  0  0  0  0  0
   18.9110  -33.6170   37.9290 O   0  0  0  0  0  0  0  0  0  0  0  0
   19.2580  -31.3530   38.4830 C   0  0  0  0  0  0  0  0  0  0  0  0
   18.8580  -31.6010   39.7830 O   0  0  0  0  0  0  0  0  0  0  0  0
   18.5610  -28.0840   38.9770 C   0  0  0  0  0  0  0  0  0  0  0  0
   18.6120  -26.9500   39.7930 C   0  0  0  0  0  0  0  0  0  0  0  0
   19.7680  -26.6300   40.5220 C   0  0  0  0  0  0  0  0  0  0  0  0
   19.8360  -25.4900   41.3520 N   0  0  0  0  0  0  0  0  0  0  0  0
   19.2730  -24.2800   40.7320 C   0  0  0  0  0  0  0  0  0  0  0  0
   19.6200  -23.0700   41.6020 C   0  0  0  0  0  0  0  0  0  0  0  0
   19.1320  -23.2650   43.0360 C   0  0  0  0  0  0  0  0  0  0  0  0
   19.6500  -24.5820   43.6130 C   0  0  0  0  0  0  0  0  0  0  0  0
   19.3120  -25.7610   42.7000 C   0  0  0  0  0  0  0  0  0  0  0  0
   22.1688  -27.2441   43.3321 H   0  0  0  0  0  0  0  0  0  0  0  0
   21.4011  -28.6717   42.5580 H   0  0  0  0  0  0  0  0  0  0  0  0
   23.1895  -28.5033   42.5580 H   0  0  0  0  0  0  0  0  0  0  0  0
   22.2253  -26.1248   41.3821 H   0  0  0  0  0  0  0  0  0  0  0  0
   23.0044  -27.5386   40.5508 H   0  0  0  0  0  0  0  0  0  0  0  0
   21.6950  -29.2833   39.5242 H   0  0  0  0  0  0  0  0  0  0  0  0
   20.7011  -29.6374   34.2289 H   0  0  0  0  0  0  0  0  0  0  0  0
   20.7619  -31.4557   32.5196 H   0  0  0  0  0  0  0  0  0  0  0  0
   20.1094  -33.7828   33.1473 H   0  0  0  0  0  0  0  0  0  0  0  0
   19.8590  -35.2640   35.1340 H   0  0  0  0  0  0  0  0  0  0  0  0
   18.4310  -30.9300   40.2780 H   0  0  0  0  0  0  0  0  0  0  0  0
   17.6393  -28.3135   38.4222 H   0  0  0  0  0  0  0  0  0  0  0  0
   17.7301  -26.2966   39.8651 H   0  0  0  0  0  0  0  0  0  0  0  0
   19.7003  -24.1470   39.7271 H   0  0  0  0  0  0  0  0  0  0  0  0
   18.1806  -24.3779   40.6484 H   0  0  0  0  0  0  0  0  0  0  0  0
   20.7116  -22.9342   41.6094 H   0  0  0  0  0  0  0  0  0  0  0  0
   19.1227  -22.1835   41.1815 H   0  0  0  0  0  0  0  0  0  0  0  0
   19.4948  -22.4323   43.6565 H   0  0  0  0  0  0  0  0  0  0  0  0
   18.0323  -23.2905   43.0330 H   0  0  0  0  0  0  0  0  0  0  0  0
   20.7423  -24.5184   43.7262 H   0  0  0  0  0  0  0  0  0  0  0  0
   19.1663  -24.7479   44.5869 H   0  0  0  0  0  0  0  0  0  0  0  0
   19.7719  -26.6781   43.0968 H   0  0  0  0  0  0  0  0  0  0  0  0
   18.2211  -25.8942   42.6543 H   0  0  0  0  0  0  0  0  0  0  0  0
  1  2  1  0
  2  3  1  0
  3  4  2  0
  4  5  1  0
  5  6  1  0
  6  7  1  0
  7  8  1  0
  8  9  2  0
  9 10  1  0
 10 11  2  0
 11 12  1  0
 12 13  1  0
 12 14  2  0
 14 15  1  0
 15 16  2  0
 15 17  1  0
 17 18  1  0
  5 19  2  0
 19 20  1  0
 20 21  2  0
 21 22  1  0
 22 23  1  0
 23 24  1  0
 24 25  1  0
 25 26  1  0
 26 27  1  0
 21  3  1  0
 27 22  1  0
 17  6  2  0
 14  8  1  0
  1 28  1  0
  1 29  1  0
  1 30  1  0
  2 31  1  0
  2 32  1  0
  4 33  1  0
  9 34  1  0
 10 35  1  0
 11 36  1  0
 13 37  1  0
 18 38  1  0
 19 39  1  0
 20 40  1  0
 23 41  1  0
 23 42  1  0
 24 43  1  0
 24 44  1  0
 25 45  1  0
 25 46  1  0
 26 47  1  0
 26 48  1  0
 27 49  1  0
 27 50  1  0
M  END
>  <meeko>  (9) 
{"is_sidechain": [false], "free_energy": -6.695, "intermolecular_energy": -8.209, "internal_energy": -0.856}

$$$$
