cand_014_out
     RDKit          3D

 35 37  0  0  0  0  0  0  0  0999 V2000
   18.9890  -25.1540   40.8720 C   0  0  0  0  0  0  0  0  0  0  0  0
   19.1140  -26.5180   40.2490 C   0  0  0  0  0  0  0  0  0  0  0  0
   18.2000  -26.8970   39.2550 C   0  0  0  0  0  0  0  0  0  0  0  0
   18.2740  -28.1580   38.6570 C   0  0  0  0  0  0  0  0  0  0  0  0
   19.2620  -29.0720   39.0350 C   0  0  0  0  0  0  0  0  0  0  0  0
   19.3110  -30.4070   38.4040 C   0  0  0  0  0  0  0  0  0  0  0  0
   18.8680  -31.4210   39.2440 O   0  0  0  0  0  0  0  0  0  0  0  0
   18.8660  -32.7120   38.7800 C   0  0  0  0  0  0  0  0  0  0  0  0
   18.4300  -33.7020   39.6620 C   0  0  0  0  0  0  0  0  0  0  0  0
   18.4000  -35.0360   39.2510 C   0  0  0  0  0  0  0  0  0  0  0  0
   18.8050  -35.3810   37.9600 C   0  0  0  0  0  0  0  0  0  0  0  0
   19.2390  -34.3920   37.0830 C   0  0  0  0  0  0  0  0  0  0  0  0
   19.6200  -34.7980   35.8330 O   0  0  0  0  0  0  0  0  0  0  0  0
   19.2700  -33.0570   37.4930 C   0  0  0  0  0  0  0  0  0  0  0  0
   19.7190  -31.9860   36.6020 C   0  0  0  0  0  0  0  0  0  0  0  0
   20.0830  -32.2070   35.4490 O   0  0  0  0  0  0  0  0  0  0  0  0
   19.7220  -30.6050   37.1370 C   0  0  0  0  0  0  0  0  0  0  0  0
   20.1350  -29.5990   36.2840 O   0  0  0  0  0  0  0  0  0  0  0  0
   20.1620  -28.7010   40.0450 C   0  0  0  0  0  0  0  0  0  0  0  0
   20.0990  -27.4380   40.6640 C   0  0  0  0  0  0  0  0  0  0  0  0
   21.1170  -27.0920   41.7270 C   0  0  0  0  0  0  0  0  0  0  0  0
   22.3620  -27.5850   41.4690 F   0  0  0  0  0  0  0  0  0  0  0  0
   20.7900  -27.5710   42.9600 F   0  0  0  0  0  0  0  0  0  0  0  0
   18.9977  -25.2492   41.9678 H   0  0  0  0  0  0  0  0  0  0  0  0
   19.8333  -24.5259   40.5518 H   0  0  0  0  0  0  0  0  0  0  0  0
   18.0446  -24.6898   40.5518 H   0  0  0  0  0  0  0  0  0  0  0  0
   17.4150  -26.1928   38.9421 H   0  0  0  0  0  0  0  0  0  0  0  0
   17.5463  -28.4346   37.8798 H   0  0  0  0  0  0  0  0  0  0  0  0
   18.1105  -33.4317   40.6793 H   0  0  0  0  0  0  0  0  0  0  0  0
   18.0566  -35.8168   39.9456 H   0  0  0  0  0  0  0  0  0  0  0  0
   18.7810  -36.4323   37.6371 H   0  0  0  0  0  0  0  0  0  0  0  0
   19.7040  -34.1710   35.1420 H   0  0  0  0  0  0  0  0  0  0  0  0
   19.5920  -28.8480   36.1460 H   0  0  0  0  0  0  0  0  0  0  0  0
   20.9367  -29.4150   40.3614 H   0  0  0  0  0  0  0  0  0  0  0  0
   21.1174  -25.9921   41.7122 H   0  0  0  0  0  0  0  0  0  0  0  0
  1  2  1  0
  2  3  2  0
  3  4  1  0
  4  5  2  0
  5  6  1  0
  6  7  1  0
  7  8  1  0
  8  9  2  0
  9 10  1  0
 10 11  2  0
 11 12  1  0
 12 13  1  0
 12 14  2  0
 14 15  1  0
 15 16  2  0
 15 17  1  0
 17 18  1  0
  5 19  1  0
 19 20  2  0
 20 21  1  0
 21 22  1  0
 21 23  1  0
 20  2  1  0
 17  6  2  0
 14  8  1  0
  1 24  1  0
  1 25  1  0
  1 26  1  0
  3 27  1  0
  4 28  1  0
  9 29  1  0
 10 30  1  0
 11 31  1  0
 13 32  1  0
 18 33  1  0
 19 34  1  0
 21 35  1  0
M  END
>  <meeko>  (1) 
{"is_sidechain": [false], "free_energy": -8.312, "intermolecular_energy": -9.769, "internal_energy": -0.492}

$$$$
cand_014_out
     RDKit          3D

 35 37  0  0  0  0  0  0  0  0999 V2000
   19.7330  -33.5220   35.8220 C   0  0  0  0  0  0  0  0  0  0  0  0
   19.5770  -32.3230   36.7160 C   0  0  0  0  0  0  0  0  0  0  0  0
   19.9150  -31.0550   36.2190 C   0  0  0  0  0  0  0  0  0  0  0  0
   19.7960  -29.9160   37.0200 C   0  0  0  0  0  0  0  0  0  0  0  0
   19.3350  -30.0120   38.3370 C   0  0  0  0  0  0  0  0  0  0  0  0
   19.2340  -28.7980   39.1720 C   0  0  0  0  0  0  0  0  0  0  0  0
   20.1690  -28.7680   40.2000 O   0  0  0  0  0  0  0  0  0  0  0  0
   20.1800  -27.6930   41.0520 C   0  0  0  0  0  0  0  0  0  0  0  0
   21.1220  -27.7100   42.0810 C   0  0  0  0  0  0  0  0  0  0  0  0
   21.1890  -26.6460   42.9820 C   0  0  0  0  0  0  0  0  0  0  0  0
   20.3140  -25.5650   42.8560 C   0  0  0  0  0  0  0  0  0  0  0  0
   19.3750  -25.5500   41.8290 C   0  0  0  0  0  0  0  0  0  0  0  0
   18.5500  -24.4610   41.7610 O   0  0  0  0  0  0  0  0  0  0  0  0
   19.3080  -26.6150   40.9270 C   0  0  0  0  0  0  0  0  0  0  0  0
   18.3350  -26.6390   39.8340 C   0  0  0  0  0  0  0  0  0  0  0  0
   17.5380  -25.7220   39.6500 O   0  0  0  0  0  0  0  0  0  0  0  0
   18.3400  -27.8190   38.9380 C   0  0  0  0  0  0  0  0  0  0  0  0
   17.4270  -27.8270   37.9000 O   0  0  0  0  0  0  0  0  0  0  0  0
   19.0200  -31.2820   38.8410 C   0  0  0  0  0  0  0  0  0  0  0  0
   19.1400  -32.4430   38.0520 C   0  0  0  0  0  0  0  0  0  0  0  0
   18.7570  -33.7780   38.6500 C   0  0  0  0  0  0  0  0  0  0  0  0
   18.2740  -33.6850   39.9220 F   0  0  0  0  0  0  0  0  0  0  0  0
   19.7990  -34.6520   38.7240 F   0  0  0  0  0  0  0  0  0  0  0  0
   19.8506  -34.4258   36.4379 H   0  0  0  0  0  0  0  0  0  0  0  0
   18.8406  -33.6245   35.1871 H   0  0  0  0  0  0  0  0  0  0  0  0
   20.6219  -33.3928   35.1871 H   0  0  0  0  0  0  0  0  0  0  0  0
   20.2784  -30.9562   35.1855 H   0  0  0  0  0  0  0  0  0  0  0  0
   20.0681  -28.9323   36.6098 H   0  0  0  0  0  0  0  0  0  0  0  0
   21.8114  -28.5612   42.1822 H   0  0  0  0  0  0  0  0  0  0  0  0
   21.9324  -26.6591   43.7927 H   0  0  0  0  0  0  0  0  0  0  0  0
   20.3668  -24.7272   43.5669 H   0  0  0  0  0  0  0  0  0  0  0  0
   18.2700  -24.1360   40.9280 H   0  0  0  0  0  0  0  0  0  0  0  0
   16.5600  -27.4990   38.0350 H   0  0  0  0  0  0  0  0  0  0  0  0
   18.6700  -31.3742   39.8797 H   0  0  0  0  0  0  0  0  0  0  0  0
   17.9812  -34.1394   37.9590 H   0  0  0  0  0  0  0  0  0  0  0  0
  1  2  1  0
  2  3  2  0
  3  4  1  0
  4  5  2  0
  5  6  1  0
  6  7  1  0
  7  8  1  0
  8  9  2  0
  9 10  1  0
 10 11  2  0
 11 12  1  0
 12 13  1  0
 12 14  2  0
 14 15  1  0
 15 16  2  0
 15 17  1  0
 17 18  1  0
  5 19  1  0
 19 20  2  0
 20 21  1  0
 21 22  1  0
 21 23  1  0
 20  2  1  0
 17  6  2  0
 14  8  1  0
  1 24  1  0
  1 25  1  0
  1 26  1  0
  3 27  1  0
  4 28  1  0
  9 29  1  0
 10 30  1  0
 11 31  1  0
 13 32  1  0
 18 33  1  0
 19 34  1  0
 21 35  1  0
M  END
>  <meeko>  (2) 
{"is_sidechain": [false], "free_energy": -7.926, "intermolecular_energy": -9.436, "internal_energy": -0.372}

$$$$
cand_014_out
     RDKit          3D

 35 37  0  0  0  0  0  0  0  0999 V2000
   19.6940  -33.4970   35.7940 C   0  0  0  0  0  0  0  0  0  0  0  0
   19.6130  -32.2460   36.6270 C   0  0  0  0  0  0  0  0  0  0  0  0
   19.2240  -32.3490   37.9710 C   0  0  0  0  0  0  0  0  0  0  0  0
   19.1250  -31.2120   38.7770 C   0  0  0  0  0  0  0  0  0  0  0  0
   19.4120  -29.9430   38.2630 C   0  0  0  0  0  0  0  0  0  0  0  0
   19.2830  -28.7520   39.1270 C   0  0  0  0  0  0  0  0  0  0  0  0
   20.2160  -28.7260   40.1560 O   0  0  0  0  0  0  0  0  0  0  0  0
   20.2020  -27.6720   41.0350 C   0  0  0  0  0  0  0  0  0  0  0  0
   21.1440  -27.6930   42.0640 C   0  0  0  0  0  0  0  0  0  0  0  0
   21.1860  -26.6500   42.9910 C   0  0  0  0  0  0  0  0  0  0  0  0
   20.2880  -25.5850   42.8890 C   0  0  0  0  0  0  0  0  0  0  0  0
   19.3490  -25.5670   41.8610 C   0  0  0  0  0  0  0  0  0  0  0  0
   18.5010  -24.4950   41.8200 O   0  0  0  0  0  0  0  0  0  0  0  0
   19.3070  -26.6110   40.9340 C   0  0  0  0  0  0  0  0  0  0  0  0
   18.3360  -26.6300   39.8390 C   0  0  0  0  0  0  0  0  0  0  0  0
   17.5180  -25.7270   39.6770 O   0  0  0  0  0  0  0  0  0  0  0  0
   18.3680  -27.7880   38.9150 C   0  0  0  0  0  0  0  0  0  0  0  0
   17.4560  -27.7910   37.8760 O   0  0  0  0  0  0  0  0  0  0  0  0
   19.7780  -29.8380   36.9140 C   0  0  0  0  0  0  0  0  0  0  0  0
   19.8770  -30.9720   36.0830 C   0  0  0  0  0  0  0  0  0  0  0  0
   20.3030  -30.7910   34.6440 C   0  0  0  0  0  0  0  0  0  0  0  0
   21.5820  -31.1980   34.4000 F   0  0  0  0  0  0  0  0  0  0  0  0
   20.2540  -29.4940   34.2280 F   0  0  0  0  0  0  0  0  0  0  0  0
   19.7508  -34.3745   36.4549 H   0  0  0  0  0  0  0  0  0  0  0  0
   18.7989  -33.5734   35.1592 H   0  0  0  0  0  0  0  0  0  0  0  0
   20.5915  -33.4573   35.1592 H   0  0  0  0  0  0  0  0  0  0  0  0
   18.9940  -33.3374   38.3956 H   0  0  0  0  0  0  0  0  0  0  0  0
   18.8178  -31.3159   39.8281 H   0  0  0  0  0  0  0  0  0  0  0  0
   21.8527  -28.5304   42.1447 H   0  0  0  0  0  0  0  0  0  0  0  0
   21.9276  -26.6669   43.8032 H   0  0  0  0  0  0  0  0  0  0  0  0
   20.3225  -24.7627   43.6188 H   0  0  0  0  0  0  0  0  0  0  0  0
   18.2760  -24.1070   40.9960 H   0  0  0  0  0  0  0  0  0  0  0  0
   16.5690  -28.0490   38.0310 H   0  0  0  0  0  0  0  0  0  0  0  0
   19.9935  -28.8448   36.4931 H   0  0  0  0  0  0  0  0  0  0  0  0
   19.5794  -31.4139   34.0977 H   0  0  0  0  0  0  0  0  0  0  0  0
  1  2  1  0
  2  3  2  0
  3  4  1  0
  4  5  2  0
  5  6  1  0
  6  7  1  0
  7  8  1  0
  8  9  2  0
  9 10  1  0
 10 11  2  0
 11 12  1  0
 12 13  1  0
 12 14  2  0
 14 15  1  0
 15 16  2  0
 15 17  1  0
 17 18  1  0
  5 19  1  0
 19 20  2  0
 20 21  1  0
 21 22  1  0
 21 23  1  0
 20  2  1  0
 17  6  2  0
 14  8  1  0
  1 24  1  0
  1 25  1  0
  1 26  1  0
  3 27  1  0
  4 28  1  0
  9 29  1  0
 10 30  1  0
 11 31  1  0
 13 32  1  0
 18 33  1  0
 19 34  1  0
 21 35  1  0
M  END
>  <meeko>  (3) 
{"is_sidechain": [false], "free_energy": -7.59, "intermolecular_energy": -8.997, "internal_energy": -0.417}

$$$$
cand_014_out
     RDKit          3D

 35 37  0  0  0  0  0  0  0  0999 V2000
   19.6490  -24.6430   40.3600 C   0  0  0  0  0  0  0  0  0  0  0  0
   19.5580  -26.0260   39.7740 C   0  0  0  0  0  0  0  0  0  0  0  0
   20.1530  -27.0960   40.4590 C   0  0  0  0  0  0  0  0  0  0  0  0
   20.1020  -28.3940   39.9440 C   0  0  0  0  0  0  0  0  0  0  0  0
   19.4540  -28.6580   38.7320 C   0  0  0  0  0  0  0  0  0  0  0  0
   19.4270  -30.0340   38.1960 C   0  0  0  0  0  0  0  0  0  0  0  0
   19.0180  -30.9730   39.1350 O   0  0  0  0  0  0  0  0  0  0  0  0
   18.9520  -32.2930   38.7660 C   0  0  0  0  0  0  0  0  0  0  0  0
   18.5540  -33.2060   39.7430 C   0  0  0  0  0  0  0  0  0  0  0  0
   18.4630  -34.5640   39.4320 C   0  0  0  0  0  0  0  0  0  0  0  0
   18.7700  -35.0100   38.1450 C   0  0  0  0  0  0  0  0  0  0  0  0
   19.1670  -34.0970   37.1720 C   0  0  0  0  0  0  0  0  0  0  0  0
   19.4520  -34.6010   35.9320 O   0  0  0  0  0  0  0  0  0  0  0  0
   19.2580  -32.7380   37.4830 C   0  0  0  0  0  0  0  0  0  0  0  0
   19.6720  -31.7470   36.4890 C   0  0  0  0  0  0  0  0  0  0  0  0
   19.9500  -32.0580   35.3330 O   0  0  0  0  0  0  0  0  0  0  0  0
   19.7450  -30.3320   36.9230 C   0  0  0  0  0  0  0  0  0  0  0  0
   20.1230  -29.4000   35.9740 O   0  0  0  0  0  0  0  0  0  0  0  0
   18.8790  -27.5850   38.0370 C   0  0  0  0  0  0  0  0  0  0  0  0
   18.9270  -26.2680   38.5360 C   0  0  0  0  0  0  0  0  0  0  0  0
   18.2640  -25.1610   37.7470 C   0  0  0  0  0  0  0  0  0  0  0  0
   17.4190  -25.6160   36.7780 F   0  0  0  0  0  0  0  0  0  0  0  0
   19.1520  -24.3560   37.1010 F   0  0  0  0  0  0  0  0  0  0  0  0
   19.6447  -24.7090   41.4580 H   0  0  0  0  0  0  0  0  0  0  0  0
   20.5806  -24.1635   40.0252 H   0  0  0  0  0  0  0  0  0  0  0  0
   18.7882  -24.0455   40.0252 H   0  0  0  0  0  0  0  0  0  0  0  0
   20.6664  -26.9108   41.4140 H   0  0  0  0  0  0  0  0  0  0  0  0
   20.5766  -29.2176   40.4975 H   0  0  0  0  0  0  0  0  0  0  0  0
   18.3121  -32.8562   40.7575 H   0  0  0  0  0  0  0  0  0  0  0  0
   18.1489  -35.2838   40.2022 H   0  0  0  0  0  0  0  0  0  0  0  0
   18.6983  -36.0801   37.9005 H   0  0  0  0  0  0  0  0  0  0  0  0
   19.3460  -35.5180   35.7640 H   0  0  0  0  0  0  0  0  0  0  0  0
   19.9330  -28.4920   36.1060 H   0  0  0  0  0  0  0  0  0  0  0  0
   18.3772  -27.7760   37.0770 H   0  0  0  0  0  0  0  0  0  0  0  0
   17.7138  -24.6069   38.5218 H   0  0  0  0  0  0  0  0  0  0  0  0
  1  2  1  0
  2  3  2  0
  3  4  1  0
  4  5  2  0
  5  6  1  0
  6  7  1  0
  7  8  1  0
  8  9  2  0
  9 10  1  0
 10 11  2  0
 11 12  1  0
 12 13  1  0
 12 14  2  0
 14 15  1  0
 15 16  2  0
 15 17  1  0
 17 18  1  0
  5 19  1  0
 19 20  2  0
 20 21  1  0
 21 22  1  0
 21 23  1  0
 20  2  1  0
 17  6  2  0
 14  8  1  0
  1 24  1  0
  1 25  1  0
  1 26  1  0
  3 27  1  0
  4 28  1  0
  9 29  1  0
 10 30  1  0
 11 31  1  0
 13 32  1  0
 18 33  1  0
 19 34  1  0
 21 35  1  0
M  END
>  <meeko>  (4) 
{"is_sidechain": [false], "free_energy": -7.354, "intermolecular_energy": -8.898, "internal_energy": -0.238}

$$$$
cand_014_out
     RDKit          3D

 35 37  0  0  0  0  0  0  0  0999 V2000
   19.0260  -25.2010   41.5030 C   0  0  0  0  0  0  0  0  0  0  0  0
   19.2020  -26.3900   40.5970 C   0  0  0  0  0  0  0  0  0  0  0  0
   18.2780  -26.6000   39.5630 C   0  0  0  0  0  0  0  0  0  0  0  0
   18.3980  -27.6970   38.7070 C   0  0  0  0  0  0  0  0  0  0  0  0
   19.4440  -28.6120   38.8590 C   0  0  0  0  0  0  0  0  0  0  0  0
   19.5430  -29.7760   37.9530 C   0  0  0  0  0  0  0  0  0  0  0  0
   19.9040  -29.4260   36.6580 O   0  0  0  0  0  0  0  0  0  0  0  0
   20.0270  -30.4150   35.7150 C   0  0  0  0  0  0  0  0  0  0  0  0
   20.3740  -30.0190   34.4230 C   0  0  0  0  0  0  0  0  0  0  0  0
   20.5190  -30.9760   33.4170 C   0  0  0  0  0  0  0  0  0  0  0  0
   20.3170  -32.3280   33.7020 C   0  0  0  0  0  0  0  0  0  0  0  0
   19.9710  -32.7200   34.9910 C   0  0  0  0  0  0  0  0  0  0  0  0
   19.7900  -34.0600   35.2020 O   0  0  0  0  0  0  0  0  0  0  0  0
   19.8260  -31.7630   35.9980 C   0  0  0  0  0  0  0  0  0  0  0  0
   19.4630  -32.1330   37.3670 C   0  0  0  0  0  0  0  0  0  0  0  0
   19.2770  -33.3020   37.6990 O   0  0  0  0  0  0  0  0  0  0  0  0
   19.3250  -31.0410   38.3590 C   0  0  0  0  0  0  0  0  0  0  0  0
   18.9950  -31.4010   39.6520 O   0  0  0  0  0  0  0  0  0  0  0  0
   20.3550  -28.4150   39.9060 C   0  0  0  0  0  0  0  0  0  0  0  0
   20.2470  -27.3190   40.7840 C   0  0  0  0  0  0  0  0  0  0  0  0
   21.2790  -27.1510   41.8760 C   0  0  0  0  0  0  0  0  0  0  0  0
   22.4560  -27.7890   41.6150 F   0  0  0  0  0  0  0  0  0  0  0  0
   20.8690  -27.6330   43.0830 F   0  0  0  0  0  0  0  0  0  0  0  0
   19.0745  -25.5289   42.5519 H   0  0  0  0  0  0  0  0  0  0  0  0
   19.8259  -24.4711   41.3096 H   0  0  0  0  0  0  0  0  0  0  0  0
   18.0490  -24.7341   41.3096 H   0  0  0  0  0  0  0  0  0  0  0  0
   17.4480  -25.8915   39.4244 H   0  0  0  0  0  0  0  0  0  0  0  0
   17.6608  -27.8428   37.9037 H   0  0  0  0  0  0  0  0  0  0  0  0
   20.5331  -28.9542   34.1973 H   0  0  0  0  0  0  0  0  0  0  0  0
   20.7928  -30.6645   32.3982 H   0  0  0  0  0  0  0  0  0  0  0  0
   20.4313  -33.0815   32.9088 H   0  0  0  0  0  0  0  0  0  0  0  0
   19.1820  -34.5390   34.6720 H   0  0  0  0  0  0  0  0  0  0  0  0
   18.1140  -31.6410   39.8620 H   0  0  0  0  0  0  0  0  0  0  0  0
   21.1751  -29.1347   40.0454 H   0  0  0  0  0  0  0  0  0  0  0  0
   21.4200  -26.0606   41.9087 H   0  0  0  0  0  0  0  0  0  0  0  0
  1  2  1  0
  2  3  2  0
  3  4  1  0
  4  5  2  0
  5  6  1  0
  6  7  1  0
  7  8  1  0
  8  9  2  0
  9 10  1  0
 10 11  2  0
 11 12  1  0
 12 13  1  0
 12 14  2  0
 14 15  1  0
 15 16  2  0
 15 17  1  0
 17 18  1  0
  5 19  1  0
 19 20  2  0
 20 21  1  0
 21 22  1  0
 21 23  1  0
 20  2  1  0
 17  6  2  0
 14  8  1  0
  1 24  1  0
  1 25  1  0
  1 26  1  0
  3 27  1  0
  4 28  1  0
  9 29  1  0
 10 30  1  0
 11 31  1  0
 13 32  1  0
 18 33  1  0
 19 34  1  0
 21 35  1  0
M  END
>  <meeko>  (5) 
{"is_sidechain": [false], "free_energy": -7.334, "intermolecular_energy": -8.649, "internal_energy": -0.464}

$$$$
cand_014_out
     RDKit          3D

 35 37  0  0  0  0  0  0  0  0999 V2000
   17.7720  -27.2710   36.5960 C   0  0  0  0  0  0  0  0  0  0  0  0
   18.6580  -27.2280   37.8110 C   0  0  0  0  0  0  0  0  0  0  0  0
   18.8760  -28.4080   38.5380 C   0  0  0  0  0  0  0  0  0  0  0  0
   19.6820  -28.4090   39.6780 C   0  0  0  0  0  0  0  0  0  0  0  0
   20.2950  -27.2330   40.1230 C   0  0  0  0  0  0  0  0  0  0  0  0
   21.1300  -27.2530   41.3420 C   0  0  0  0  0  0  0  0  0  0  0  0
   22.1300  -28.2160   41.2980 O   0  0  0  0  0  0  0  0  0  0  0  0
   22.9750  -28.3410   42.3710 C   0  0  0  0  0  0  0  0  0  0  0  0
   23.9550  -29.3320   42.2940 C   0  0  0  0  0  0  0  0  0  0  0  0
   24.8490  -29.5110   43.3510 C   0  0  0  0  0  0  0  0  0  0  0  0
   24.7660  -28.6990   44.4850 C   0  0  0  0  0  0  0  0  0  0  0  0
   23.7880  -27.7110   44.5590 C   0  0  0  0  0  0  0  0  0  0  0  0
   23.7620  -26.9520   45.6960 O   0  0  0  0  0  0  0  0  0  0  0  0
   22.8920  -27.5330   43.5020 C   0  0  0  0  0  0  0  0  0  0  0  0
   21.8500  -26.5070   43.5400 C   0  0  0  0  0  0  0  0  0  0  0  0
   21.7160  -25.7470   44.4970 O   0  0  0  0  0  0  0  0  0  0  0  0
   20.9450  -26.4050   42.3710 C   0  0  0  0  0  0  0  0  0  0  0  0
   19.9720  -25.4240   42.4100 O   0  0  0  0  0  0  0  0  0  0  0  0
   20.0600  -26.0490   39.4100 C   0  0  0  0  0  0  0  0  0  0  0  0
   19.2430  -26.0260   38.2620 C   0  0  0  0  0  0  0  0  0  0  0  0
   19.0530  -24.7190   37.5250 C   0  0  0  0  0  0  0  0  0  0  0  0
   20.0040  -23.7870   37.8170 F   0  0  0  0  0  0  0  0  0  0  0  0
   17.8630  -24.1160   37.7990 F   0  0  0  0  0  0  0  0  0  0  0  0
   16.7194  -27.3221   36.9114 H   0  0  0  0  0  0  0  0  0  0  0  0
   17.9308  -26.3641   35.9941 H   0  0  0  0  0  0  0  0  0  0  0  0
   18.0179  -28.1583   35.9941 H   0  0  0  0  0  0  0  0  0  0  0  0
   18.4055  -29.3450   38.2053 H   0  0  0  0  0  0  0  0  0  0  0  0
   19.8369  -29.3460   40.2330 H   0  0  0  0  0  0  0  0  0  0  0  0
   24.0227  -29.9712   41.4013 H   0  0  0  0  0  0  0  0  0  0  0  0
   25.6204  -30.2929   43.2910 H   0  0  0  0  0  0  0  0  0  0  0  0
   25.4715  -28.8400   45.3171 H   0  0  0  0  0  0  0  0  0  0  0  0
   24.3650  -27.1310   46.3920 H   0  0  0  0  0  0  0  0  0  0  0  0
   19.1100  -25.6300   42.7140 H   0  0  0  0  0  0  0  0  0  0  0  0
   20.5252  -25.1140   39.7555 H   0  0  0  0  0  0  0  0  0  0  0  0
   19.1120  -25.0255   36.4702 H   0  0  0  0  0  0  0  0  0  0  0  0
  1  2  1  0
  2  3  2  0
  3  4  1  0
  4  5  2  0
  5  6  1  0
  6  7  1  0
  7  8  1  0
  8  9  2  0
  9 10  1  0
 10 11  2  0
 11 12  1  0
 12 13  1  0
 12 14  2  0
 14 15  1  0
 15 16  2  0
 15 17  1  0
 17 18  1  0
  5 19  1  0
 19 20  2  0
 20 21  1  0
 21 22  1  0
 21 23  1  0
 20  2  1  0
 17  6  2  0
 14  8  1  0
  1 24  1  0
  1 25  1  0
  1 26  1  0
  3 27  1  0
  4 28  1  0
  9 29  1  0
 10 30  1  0
 11 31  1  0
 13 32  1  0
 18 33  1  0
 19 34  1  0
 21 35  1  0
M  END
>  <meeko>  (6) 
{"is_sidechain": [false], "free_energy": -7.234, "intermolecular_energy": -8.706, "internal_energy": -0.289}

$$$$
cand_014_out
     RDKit          3D

 35 37  0  0  0  0  0  0  0  0999 V2000
   19.9070  -25.0980   43.4480 C   0  0  0  0  0  0  0  0  0  0  0  0
   19.9220  -26.1070   42.3320 C   0  0  0  0  0  0  0  0  0  0  0  0
   18.8670  -26.1160   41.4080 C   0  0  0  0  0  0  0  0  0  0  0  0
   18.8360  -27.0430   40.3630 C   0  0  0  0  0  0  0  0  0  0  0  0
   19.8580  -27.9860   40.2130 C   0  0  0  0  0  0  0  0  0  0  0  0
   19.7970  -28.9690   39.1120 C   0  0  0  0  0  0  0  0  0  0  0  0
   19.5830  -30.2680   39.5570 O   0  0  0  0  0  0  0  0  0  0  0  0
   19.5090  -31.2800   38.6340 C   0  0  0  0  0  0  0  0  0  0  0  0
   19.3100  -32.5710   39.1240 C   0  0  0  0  0  0  0  0  0  0  0  0
   19.2220  -33.6460   38.2380 C   0  0  0  0  0  0  0  0  0  0  0  0
   19.3330  -33.4310   36.8620 C   0  0  0  0  0  0  0  0  0  0  0  0
   19.5310  -32.1420   36.3760 C   0  0  0  0  0  0  0  0  0  0  0  0
   19.6290  -32.0020   35.0190 O   0  0  0  0  0  0  0  0  0  0  0  0
   19.6190  -31.0660   37.2630 C   0  0  0  0  0  0  0  0  0  0  0  0
   19.8270  -29.6960   36.7930 C   0  0  0  0  0  0  0  0  0  0  0  0
   19.9250  -29.4230   35.5990 O   0  0  0  0  0  0  0  0  0  0  0  0
   19.9150  -28.6270   37.8160 C   0  0  0  0  0  0  0  0  0  0  0  0
   20.0980  -27.3340   37.3630 O   0  0  0  0  0  0  0  0  0  0  0  0
   20.9010  -27.9920   41.1500 C   0  0  0  0  0  0  0  0  0  0  0  0
   20.9470  -27.0700   42.2140 C   0  0  0  0  0  0  0  0  0  0  0  0
   22.1140  -27.1150   43.1740 C   0  0  0  0  0  0  0  0  0  0  0  0
   23.2790  -27.5220   42.5930 F   0  0  0  0  0  0  0  0  0  0  0  0
   21.9180  -27.9660   44.2190 F   0  0  0  0  0  0  0  0  0  0  0  0
   19.9148  -25.6213   44.4155 H   0  0  0  0  0  0  0  0  0  0  0  0
   20.7957  -24.4542   43.3722 H   0  0  0  0  0  0  0  0  0  0  0  0
   18.9996  -24.4809   43.3722 H   0  0  0  0  0  0  0  0  0  0  0  0
   18.0527  -25.3832   41.5073 H   0  0  0  0  0  0  0  0  0  0  0  0
   17.9983  -27.0310   39.6502 H   0  0  0  0  0  0  0  0  0  0  0  0
   19.2226  -32.7415   40.2072 H   0  0  0  0  0  0  0  0  0  0  0  0
   19.0650  -34.6641   38.6238 H   0  0  0  0  0  0  0  0  0  0  0  0
   19.2641  -34.2786   36.1643 H   0  0  0  0  0  0  0  0  0  0  0  0
   20.4230  -31.6830   34.6370 H   0  0  0  0  0  0  0  0  0  0  0  0
   19.7000  -27.0570   36.5610 H   0  0  0  0  0  0  0  0  0  0  0  0
   21.7048  -28.7365   41.0516 H   0  0  0  0  0  0  0  0  0  0  0  0
   22.1860  -26.0722   43.5167 H   0  0  0  0  0  0  0  0  0  0  0  0
  1  2  1  0
  2  3  2  0
  3  4  1  0
  4  5  2  0
  5  6  1  0
  6  7  1  0
  7  8  1  0
  8  9  2  0
  9 10  1  0
 10 11  2  0
 11 12  1  0
 12 13  1  0
 12 14  2  0
 14 15  1  0
 15 16  2  0
 15 17  1  0
 17 18  1  0
  5 19  1  0
 19 20  2  0
 20 21  1  0
 21 22  1  0
 21 23  1  0
 20  2  1  0
 17  6  2  0
 14  8  1  0
  1 24  1  0
  1 25  1  0
  1 26  1  0
  3 27  1  0
  4 28  1  0
  9 29  1  0
 10 30  1  0
 11 31  1  0
 13 32  1  0
 18 33  1  0
 19 34  1  0
 21 35  1  0
M  END
>  <meeko>  (7) 
{"is_sidechain": [false], "free_energy": -7.122, "intermolecular_energy": -8.41, "internal_energy": -0.453}

$$$$
cand_014_out
     RDKit          3D

 35 37  0  0  0  0  0  0  0  0999 V2000
   24.2550  -28.6900   45.1370 C   0  0  0  0  0  0  0  0  0  0  0  0
   23.3570  -28.2120   44.0290 C   0  0  0  0  0  0  0  0  0  0  0  0
   22.3930  -27.2320   44.3090 C   0  0  0  0  0  0  0  0  0  0  0  0
   21.5310  -26.7690   43.3130 C   0  0  0  0  0  0  0  0  0  0  0  0
   21.6100  -27.2690   42.0090 C   0  0  0  0  0  0  0  0  0  0  0  0
   20.6770  -26.7780   40.9740 C   0  0  0  0  0  0  0  0  0  0  0  0
   20.5740  -25.3930   40.9500 O   0  0  0  0  0  0  0  0  0  0  0  0
   19.7370  -24.8070   40.0350 C   0  0  0  0  0  0  0  0  0  0  0  0
   19.6490  -23.4150   40.0560 C   0  0  0  0  0  0  0  0  0  0  0  0
   18.8170  -22.7550   39.1490 C   0  0  0  0  0  0  0  0  0  0  0  0
   18.0730  -23.4870   38.2220 C   0  0  0  0  0  0  0  0  0  0  0  0
   18.1610  -24.8760   38.2030 C   0  0  0  0  0  0  0  0  0  0  0  0
   17.4070  -25.5300   37.2680 O   0  0  0  0  0  0  0  0  0  0  0  0
   18.9940  -25.5360   39.1100 C   0  0  0  0  0  0  0  0  0  0  0  0
   19.1160  -26.9940   39.1240 C   0  0  0  0  0  0  0  0  0  0  0  0
   18.5000  -27.7080   38.3340 O   0  0  0  0  0  0  0  0  0  0  0  0
   20.0190  -27.5970   40.1320 C   0  0  0  0  0  0  0  0  0  0  0  0
   20.1380  -28.9740   40.1290 O   0  0  0  0  0  0  0  0  0  0  0  0
   22.5580  -28.2640   41.7340 C   0  0  0  0  0  0  0  0  0  0  0  0
   23.4310  -28.7500   42.7270 C   0  0  0  0  0  0  0  0  0  0  0  0
   24.4480  -29.8060   42.3560 C   0  0  0  0  0  0  0  0  0  0  0  0
   24.1180  -31.0550   42.7920 F   0  0  0  0  0  0  0  0  0  0  0  0
   25.6870  -29.5620   42.8690 F   0  0  0  0  0  0  0  0  0  0  0  0
   23.7995  -28.4476   46.1085 H   0  0  0  0  0  0  0  0  0  0  0  0
   24.3891  -29.7788   45.0564 H   0  0  0  0  0  0  0  0  0  0  0  0
   25.2331  -28.1932   45.0564 H   0  0  0  0  0  0  0  0  0  0  0  0
   22.3152  -26.8228   45.3271 H   0  0  0  0  0  0  0  0  0  0  0  0
   20.7810  -26.0021   43.5566 H   0  0  0  0  0  0  0  0  0  0  0  0
   20.2346  -22.8375   40.7865 H   0  0  0  0  0  0  0  0  0  0  0  0
   18.7479  -21.6573   39.1651 H   0  0  0  0  0  0  0  0  0  0  0  0
   17.4181  -22.9668   37.5075 H   0  0  0  0  0  0  0  0  0  0  0  0
   16.7350  -26.1250   37.5410 H   0  0  0  0  0  0  0  0  0  0  0  0
   20.5310  -29.4090   39.3980 H   0  0  0  0  0  0  0  0  0  0  0  0
   22.6220  -28.6762   40.7162 H   0  0  0  0  0  0  0  0  0  0  0  0
   24.4544  -29.7607   41.2569 H   0  0  0  0  0  0  0  0  0  0  0  0
  1  2  1  0
  2  3  2  0
  3  4  1  0
  4  5  2  0
  5  6  1  0
  6  7  1  0
  7  8  1  0
  8  9  2  0
  9 10  1  0
 10 11  2  0
 11 12  1  0
 12 13  1  0
 12 14  2  0
 14 15  1  0
 15 16  2  0
 15 17  1  0
 17 18  1  0
  5 19  1  0
 19 20  2  0
 20 21  1  0
 21 22  1  0
 21 23  1  0
 20  2  1  0
 17  6  2  0
 14  8  1  0
  1 24  1  0
  1 25  1  0
  1 26  1  0
  3 27  1  0
  4 28  1  0
  9 29  1  0
 10 30  1  0
 11 31  1  0
 13 32  1  0
 18 33  1  0
 19 34  1  0
 21 35  1  0
M  END
>  <meeko>  (8) 
{"is_sidechain": [false], "free_energy": -7.042, "intermolecular_energy": -8.835, "internal_energy": 0.066}

$$$$
cand_014_out
     RDKit          3D

 35 37  0  0  0  0  0  0  0  0999 V2000
   20.7870  -21.5380   49.8290 C   0  0  0  0  0  0  0  0  0  0  0  0
   20.9510  -22.4170   48.6190 C   0  0  0  0  0  0  0  0  0  0  0  0
   20.4510  -23.7270   48.6560 C   0  0  0  0  0  0  0  0  0  0  0  0
   20.5920  -24.5800   47.5590 C   0  0  0  0  0  0  0  0  0  0  0  0
   21.2340  -24.1470   46.3950 C   0  0  0  0  0  0  0  0  0  0  0  0
   21.3890  -25.0710   45.2520 C   0  0  0  0  0  0  0  0  0  0  0  0
   22.5180  -25.8740   45.3530 O   0  0  0  0  0  0  0  0  0  0  0  0
   22.7800  -26.7760   44.3530 C   0  0  0  0  0  0  0  0  0  0  0  0
   23.9330  -27.5500   44.4840 C   0  0  0  0  0  0  0  0  0  0  0  0
   24.2570  -28.4900   43.5030 C   0  0  0  0  0  0  0  0  0  0  0  0
   23.4280  -28.6550   42.3910 C   0  0  0  0  0  0  0  0  0  0  0  0
   22.2780  -27.8820   42.2630 C   0  0  0  0  0  0  0  0  0  0  0  0
   21.5110  -28.0960   41.1510 O   0  0  0  0  0  0  0  0  0  0  0  0
   21.9550  -26.9410   43.2440 C   0  0  0  0  0  0  0  0  0  0  0  0
   20.7550  -26.1080   43.1470 C   0  0  0  0  0  0  0  0  0  0  0  0
   19.9710  -26.2000   42.2050 O   0  0  0  0  0  0  0  0  0  0  0  0
   20.5070  -25.1350   44.2360 C   0  0  0  0  0  0  0  0  0  0  0  0
   19.3650  -24.3620   44.1430 O   0  0  0  0  0  0  0  0  0  0  0  0
   21.7550  -22.8460   46.3650 C   0  0  0  0  0  0  0  0  0  0  0  0
   21.6290  -21.9730   47.4640 C   0  0  0  0  0  0  0  0  0  0  0  0
   22.1900  -20.5730   47.3560 C   0  0  0  0  0  0  0  0  0  0  0  0
   22.2840  -20.1230   46.0720 F   0  0  0  0  0  0  0  0  0  0  0  0
   23.4470  -20.4570   47.8700 F   0  0  0  0  0  0  0  0  0  0  0  0
   20.9000  -22.1437   50.7402 H   0  0  0  0  0  0  0  0  0  0  0  0
   21.5535  -20.7491   49.8157 H   0  0  0  0  0  0  0  0  0  0  0  0
   19.7876  -21.0786   49.8157 H   0  0  0  0  0  0  0  0  0  0  0  0
   19.9408  -24.0875   49.5614 H   0  0  0  0  0  0  0  0  0  0  0  0
   20.1935  -25.6039   47.6115 H   0  0  0  0  0  0  0  0  0  0  0  0
   24.5866  -27.4202   45.3592 H   0  0  0  0  0  0  0  0  0  0  0  0
   25.1659  -29.1009   43.6062 H   0  0  0  0  0  0  0  0  0  0  0  0
   23.6837  -29.3946   41.6179 H   0  0  0  0  0  0  0  0  0  0  0  0
   20.9200  -27.4310   40.8540 H   0  0  0  0  0  0  0  0  0  0  0  0
   19.3460  -23.5060   44.5240 H   0  0  0  0  0  0  0  0  0  0  0  0
   22.2754  -22.4977   45.4606 H   0  0  0  0  0  0  0  0  0  0  0  0
   21.4663  -19.9769   47.9312 H   0  0  0  0  0  0  0  0  0  0  0  0
  1  2  1  0
  2  3  2  0
  3  4  1  0
  4  5  2  0
  5  6  1  0
  6  7  1  0
  7  8  1  0
  8  9  2  0
  9 10  1  0
 10 11  2  0
 11 12  1  0
 12 13  1  0
 12 14  2  0
 14 15  1  0
 15 16  2  0
 15 17  1  0
 17 18  1  0
  5 19  1  0
 19 20  2  0
 20 21  1  0
 21 22  1  0
 21 23  1  0
 20  2  1  0
 17  6  2  0
 14  8  1  0
  1 24  1  0
  1 25  1  0
  1 26  1  0
  3 27  1  0
  4 28  1  0
  9 29  1  0
 10 30  1  0
 11 31  1  0
 13 32  1  0
 18 33  1  0
 19 34  1  0
 21 35  1  0
M  END
>  <meeko>  (9) 
{"is_sidechain": [false], "free_energy": -6.912, "intermolecular_energy": -8.053, "internal_energy": -0.563}

$$$$
