cand_030_out
     RDKit          3D

 38 40  0  0  0  0  0  0  0  0999 V2000
   19.6630  -24.0740   40.0890 C   0  0  0  0  0  0  0  0  0  0  0  0
   18.9780  -25.1500   40.9190 C   0  0  0  0  0  0  0  0  0  0  0  0
   19.1210  -26.5230   40.2990 C   0  0  0  0  0  0  0  0  0  0  0  0
   18.1980  -26.9040   39.3100 C   0  0  0  0  0  0  0  0  0  0  0  0
   18.2700  -28.1590   38.7020 C   0  0  0  0  0  0  0  0  0  0  0  0
   19.2690  -29.0690   39.0610 C   0  0  0  0  0  0  0  0  0  0  0  0
   19.3190  -30.3990   38.4200 C   0  0  0  0  0  0  0  0  0  0  0  0
   18.8710  -31.4180   39.2520 O   0  0  0  0  0  0  0  0  0  0  0  0
   18.8690  -32.7060   38.7790 C   0  0  0  0  0  0  0  0  0  0  0  0
   18.4280  -33.7000   39.6530 C   0  0  0  0  0  0  0  0  0  0  0  0
   18.3980  -35.0320   39.2330 C   0  0  0  0  0  0  0  0  0  0  0  0
   18.8080  -35.3690   37.9410 C   0  0  0  0  0  0  0  0  0  0  0  0
   19.2480  -34.3750   37.0710 C   0  0  0  0  0  0  0  0  0  0  0  0
   19.6350  -34.7740   35.8210 O   0  0  0  0  0  0  0  0  0  0  0  0
   19.2790  -33.0420   37.4920 C   0  0  0  0  0  0  0  0  0  0  0  0
   19.7340  -31.9670   36.6090 C   0  0  0  0  0  0  0  0  0  0  0  0
   20.1030  -32.1810   35.4580 O   0  0  0  0  0  0  0  0  0  0  0  0
   19.7350  -30.5890   37.1540 C   0  0  0  0  0  0  0  0  0  0  0  0
   20.1550  -29.5770   36.3110 O   0  0  0  0  0  0  0  0  0  0  0  0
   20.1810  -28.6980   40.0590 C   0  0  0  0  0  0  0  0  0  0  0  0
   20.1220  -27.4370   40.6890 C   0  0  0  0  0  0  0  0  0  0  0  0
   21.1620  -27.0990   41.7340 C   0  0  0  0  0  0  0  0  0  0  0  0
   20.8550  -27.5790   42.9710 F   0  0  0  0  0  0  0  0  0  0  0  0
   22.4000  -27.6000   41.4530 F   0  0  0  0  0  0  0  0  0  0  0  0
   20.1318  -23.3376   40.7583 H   0  0  0  0  0  0  0  0  0  0  0  0
   20.4338  -24.5356   39.4544 H   0  0  0  0  0  0  0  0  0  0  0  0
   18.9185  -23.5710   39.4544 H   0  0  0  0  0  0  0  0  0  0  0  0
   19.4288  -25.1650   41.9223 H   0  0  0  0  0  0  0  0  0  0  0  0
   17.9057  -24.9097   40.9674 H   0  0  0  0  0  0  0  0  0  0  0  0
   17.4059  -26.2021   39.0100 H   0  0  0  0  0  0  0  0  0  0  0  0
   17.5334  -28.4345   37.9329 H   0  0  0  0  0  0  0  0  0  0  0  0
   18.1046  -33.4355   40.6706 H   0  0  0  0  0  0  0  0  0  0  0  0
   18.0508  -35.8169   39.9211 H   0  0  0  0  0  0  0  0  0  0  0  0
   18.7833  -36.4181   37.6113 H   0  0  0  0  0  0  0  0  0  0  0  0
   20.4590  -35.2010   35.7010 H   0  0  0  0  0  0  0  0  0  0  0  0
   20.1840  -28.6930   36.6200 H   0  0  0  0  0  0  0  0  0  0  0  0
   20.9642  -29.4097   40.3592 H   0  0  0  0  0  0  0  0  0  0  0  0
   21.1689  -25.9991   41.7206 H   0  0  0  0  0  0  0  0  0  0  0  0
  1  2  1  0
  2  3  1  0
  3  4  2  0
  4  5  1  0
  5  6  2  0
  6  7  1  0
  7  8  1  0
  8  9  1  0
  9 10  2  0
 10 11  1  0
 11 12  2  0
 12 13  1  0
 13 14  1  0
 13 15  2  0
 15 16  1  0
 16 17  2  0
 16 18  1  0
 18 19  1  0
  6 20  1  0
 20 21  2  0
 21 22  1  0
 22 23  1  0
 22 24  1  0
 21  3  1  0
 18  7  2  0
 15  9  1  0
  1 25  1  0
  1 26  1  0
  1 27  1  0
  2 28  1  0
  2 29  1  0
  4 30  1  0
  5 31  1  0
 10 32  1  0
 11 33  1  0
 12 34  1  0
 14 35  1  0
 19 36  1  0
 20 37  1  0
 22 38  1  0
M  END
>  <meeko>  (1) 
{"is_sidechain": [false], "free_energy": -8.203, "intermolecular_energy": -10.121, "internal_energy": -0.638}

$$$$
cand_030_out
     RDKit          3D

 38 40  0  0  0  0  0  0  0  0999 V2000
   20.0190  -33.0780   34.3690 C   0  0  0  0  0  0  0  0  0  0  0  0
   19.7180  -33.5060   35.7970 C   0  0  0  0  0  0  0  0  0  0  0  0
   19.5610  -32.3200   36.7240 C   0  0  0  0  0  0  0  0  0  0  0  0
   19.8710  -31.0430   36.2260 C   0  0  0  0  0  0  0  0  0  0  0  0
   19.7540  -29.9070   37.0300 C   0  0  0  0  0  0  0  0  0  0  0  0
   19.3190  -30.0130   38.3550 C   0  0  0  0  0  0  0  0  0  0  0  0
   19.2190  -28.8040   39.1960 C   0  0  0  0  0  0  0  0  0  0  0  0
   20.1700  -28.7670   40.2090 O   0  0  0  0  0  0  0  0  0  0  0  0
   20.1840  -27.6960   41.0660 C   0  0  0  0  0  0  0  0  0  0  0  0
   21.1450  -27.7080   42.0790 C   0  0  0  0  0  0  0  0  0  0  0  0
   21.2150  -26.6470   42.9840 C   0  0  0  0  0  0  0  0  0  0  0  0
   20.3260  -25.5740   42.8770 C   0  0  0  0  0  0  0  0  0  0  0  0
   19.3690  -25.5650   41.8650 C   0  0  0  0  0  0  0  0  0  0  0  0
   18.5310  -24.4840   41.8170 O   0  0  0  0  0  0  0  0  0  0  0  0
   19.2990  -26.6280   40.9600 C   0  0  0  0  0  0  0  0  0  0  0  0
   18.3080  -26.6570   39.8830 C   0  0  0  0  0  0  0  0  0  0  0  0
   17.4970  -25.7490   39.7180 O   0  0  0  0  0  0  0  0  0  0  0  0
   18.3120  -27.8330   38.9820 C   0  0  0  0  0  0  0  0  0  0  0  0
   17.3810  -27.8480   37.9590 O   0  0  0  0  0  0  0  0  0  0  0  0
   19.0260  -31.2880   38.8600 C   0  0  0  0  0  0  0  0  0  0  0  0
   19.1440  -32.4470   38.0650 C   0  0  0  0  0  0  0  0  0  0  0  0
   18.7780  -33.7830   38.6740 C   0  0  0  0  0  0  0  0  0  0  0  0
   19.8170  -34.6630   38.7020 F   0  0  0  0  0  0  0  0  0  0  0  0
   18.3490  -33.6940   39.9660 F   0  0  0  0  0  0  0  0  0  0  0  0
   20.6517  -32.1783   34.3815 H   0  0  0  0  0  0  0  0  0  0  0  0
   20.5461  -33.8897   33.8463 H   0  0  0  0  0  0  0  0  0  0  0  0
   19.0768  -32.8564   33.8463 H   0  0  0  0  0  0  0  0  0  0  0  0
   18.7846  -34.0880   35.8039 H   0  0  0  0  0  0  0  0  0  0  0  0
   20.5654  -34.1081   36.1567 H   0  0  0  0  0  0  0  0  0  0  0  0
   20.2115  -30.9363   35.1855 H   0  0  0  0  0  0  0  0  0  0  0  0
   20.0065  -28.9192   36.6171 H   0  0  0  0  0  0  0  0  0  0  0  0
   21.8456  -28.5518   42.1639 H   0  0  0  0  0  0  0  0  0  0  0  0
   21.9713  -26.6557   43.7827 H   0  0  0  0  0  0  0  0  0  0  0  0
   20.3819  -24.7385   43.5903 H   0  0  0  0  0  0  0  0  0  0  0  0
   18.8760  -23.6320   41.6370 H   0  0  0  0  0  0  0  0  0  0  0  0
   17.6670  -27.8930   37.0680 H   0  0  0  0  0  0  0  0  0  0  0  0
   18.6952  -31.3869   39.9044 H   0  0  0  0  0  0  0  0  0  0  0  0
   17.9718  -34.1357   38.0140 H   0  0  0  0  0  0  0  0  0  0  0  0
  1  2  1  0
  2  3  1  0
  3  4  2  0
  4  5  1  0
  5  6  2  0
  6  7  1  0
  7  8  1  0
  8  9  1  0
  9 10  2  0
 10 11  1  0
 11 12  2  0
 12 13  1  0
 13 14  1  0
 13 15  2  0
 15 16  1  0
 16 17  2  0
 16 18  1  0
 18 19  1  0
  6 20  1  0
 20 21  2  0
 21 22  1  0
 22 23  1  0
 22 24  1  0
 21  3  1  0
 18  7  2  0
 15  9  1  0
  1 25  1  0
  1 26  1  0
  1 27  1  0
  2 28  1  0
  2 29  1  0
  4 30  1  0
  5 31  1  0
 10 32  1  0
 11 33  1  0
 12 34  1  0
 14 35  1  0
 19 36  1  0
 20 37  1  0
 22 38  1  0
M  END
>  <meeko>  (2) 
{"is_sidechain": [false], "free_energy": -7.906, "intermolecular_energy": -9.886, "internal_energy": -0.506}

$$$$
cand_030_out
     RDKit          3D

 38 40  0  0  0  0  0  0  0  0999 V2000
   19.1510  -34.6430   36.2010 C   0  0  0  0  0  0  0  0  0  0  0  0
   19.7710  -33.4380   35.5090 C   0  0  0  0  0  0  0  0  0  0  0  0
   19.6740  -32.1860   36.3530 C   0  0  0  0  0  0  0  0  0  0  0  0
   19.2640  -32.3180   37.6910 C   0  0  0  0  0  0  0  0  0  0  0  0
   19.1470  -31.2020   38.5230 C   0  0  0  0  0  0  0  0  0  0  0  0
   19.4410  -29.9210   38.0430 C   0  0  0  0  0  0  0  0  0  0  0  0
   19.2940  -28.7510   38.9310 C   0  0  0  0  0  0  0  0  0  0  0  0
   20.2100  -28.7460   39.9770 O   0  0  0  0  0  0  0  0  0  0  0  0
   20.1790  -27.7130   40.8790 C   0  0  0  0  0  0  0  0  0  0  0  0
   21.1040  -27.7570   41.9230 C   0  0  0  0  0  0  0  0  0  0  0  0
   21.1280  -26.7350   42.8750 C   0  0  0  0  0  0  0  0  0  0  0  0
   20.2290  -25.6700   42.7830 C   0  0  0  0  0  0  0  0  0  0  0  0
   19.3070  -25.6290   41.7400 C   0  0  0  0  0  0  0  0  0  0  0  0
   18.4560  -24.5580   41.7090 O   0  0  0  0  0  0  0  0  0  0  0  0
   19.2830  -26.6530   40.7890 C   0  0  0  0  0  0  0  0  0  0  0  0
   18.3300  -26.6480   39.6770 C   0  0  0  0  0  0  0  0  0  0  0  0
   17.5130  -25.7440   39.5230 O   0  0  0  0  0  0  0  0  0  0  0  0
   18.3810  -27.7830   38.7270 C   0  0  0  0  0  0  0  0  0  0  0  0
   17.4860  -27.7660   37.6730 O   0  0  0  0  0  0  0  0  0  0  0  0
   19.8330  -29.7850   36.7040 C   0  0  0  0  0  0  0  0  0  0  0  0
   19.9520  -30.8990   35.8470 C   0  0  0  0  0  0  0  0  0  0  0  0
   20.4120  -30.6730   34.4240 C   0  0  0  0  0  0  0  0  0  0  0  0
   20.6320  -29.3610   34.1330 F   0  0  0  0  0  0  0  0  0  0  0  0
   21.5820  -31.3080   34.1220 F   0  0  0  0  0  0  0  0  0  0  0  0
   19.2174  -34.5140   37.2914 H   0  0  0  0  0  0  0  0  0  0  0  0
   18.0951  -34.7322   35.9059 H   0  0  0  0  0  0  0  0  0  0  0  0
   19.6923  -35.5540   35.9059 H   0  0  0  0  0  0  0  0  0  0  0  0
   20.8317  -33.6502   35.3095 H   0  0  0  0  0  0  0  0  0  0  0  0
   19.2174  -33.2612   34.5751 H   0  0  0  0  0  0  0  0  0  0  0  0
   19.0314  -33.3166   38.0895 H   0  0  0  0  0  0  0  0  0  0  0  0
   18.8206  -31.3315   39.5655 H   0  0  0  0  0  0  0  0  0  0  0  0
   21.8129  -28.5949   41.9961 H   0  0  0  0  0  0  0  0  0  0  0  0
   21.8563  -26.7690   43.6987 H   0  0  0  0  0  0  0  0  0  0  0  0
   20.2492  -24.8653   43.5328 H   0  0  0  0  0  0  0  0  0  0  0  0
   17.6860  -24.5560   42.2430 H   0  0  0  0  0  0  0  0  0  0  0  0
   17.7910  -27.5880   36.8040 H   0  0  0  0  0  0  0  0  0  0  0  0
   20.0539  -28.7817   36.3107 H   0  0  0  0  0  0  0  0  0  0  0  0
   19.5780  -31.0802   33.8335 H   0  0  0  0  0  0  0  0  0  0  0  0
  1  2  1  0
  2  3  1  0
  3  4  2  0
  4  5  1  0
  5  6  2  0
  6  7  1  0
  7  8  1  0
  8  9  1  0
  9 10  2  0
 10 11  1  0
 11 12  2  0
 12 13  1  0
 13 14  1  0
 13 15  2  0
 15 16  1  0
 16 17  2  0
 16 18  1  0
 18 19  1  0
  6 20  1  0
 20 21  2  0
 21 22  1  0
 22 23  1  0
 22 24  1  0
 21  3  1  0
 18  7  2  0
 15  9  1  0
  1 25  1  0
  1 26  1  0
  1 27  1  0
  2 28  1  0
  2 29  1  0
  4 30  1  0
  5 31  1  0
 10 32  1  0
 11 33  1  0
 12 34  1  0
 14 35  1  0
 19 36  1  0
 20 37  1  0
 22 38  1  0
M  END
>  <meeko>  (3) 
{"is_sidechain": [false], "free_energy": -7.783, "intermolecular_energy": -9.761, "internal_energy": -0.48}

$$$$
cand_030_out
     RDKit          3D

 38 40  0  0  0  0  0  0  0  0999 V2000
   19.6800  -23.8880   40.8720 C   0  0  0  0  0  0  0  0  0  0  0  0
   19.0280  -25.1360   41.4490 C   0  0  0  0  0  0  0  0  0  0  0  0
   19.2250  -26.3440   40.5580 C   0  0  0  0  0  0  0  0  0  0  0  0
   18.3260  -26.5360   39.4940 C   0  0  0  0  0  0  0  0  0  0  0  0
   18.4480  -27.6320   38.6380 C   0  0  0  0  0  0  0  0  0  0  0  0
   19.4720  -28.5670   38.8170 C   0  0  0  0  0  0  0  0  0  0  0  0
   19.5740  -29.7300   37.9130 C   0  0  0  0  0  0  0  0  0  0  0  0
   19.9230  -29.3790   36.6140 O   0  0  0  0  0  0  0  0  0  0  0  0
   20.0480  -30.3680   35.6710 C   0  0  0  0  0  0  0  0  0  0  0  0
   20.3820  -29.9680   34.3760 C   0  0  0  0  0  0  0  0  0  0  0  0
   20.5280  -30.9250   33.3690 C   0  0  0  0  0  0  0  0  0  0  0  0
   20.3400  -32.2790   33.6570 C   0  0  0  0  0  0  0  0  0  0  0  0
   20.0060  -32.6740   34.9500 C   0  0  0  0  0  0  0  0  0  0  0  0
   19.8370  -34.0150   35.1620 O   0  0  0  0  0  0  0  0  0  0  0  0
   19.8600  -31.7160   35.9570 C   0  0  0  0  0  0  0  0  0  0  0  0
   19.5100  -32.0890   37.3290 C   0  0  0  0  0  0  0  0  0  0  0  0
   19.3360  -33.2590   37.6620 O   0  0  0  0  0  0  0  0  0  0  0  0
   19.3710  -30.9970   38.3200 C   0  0  0  0  0  0  0  0  0  0  0  0
   19.0530  -31.3580   39.6160 O   0  0  0  0  0  0  0  0  0  0  0  0
   20.3590  -28.3870   39.8880 C   0  0  0  0  0  0  0  0  0  0  0  0
   20.2500  -27.2890   40.7670 C   0  0  0  0  0  0  0  0  0  0  0  0
   21.2650  -27.1480   41.8790 C   0  0  0  0  0  0  0  0  0  0  0  0
   20.8170  -27.6150   43.0770 F   0  0  0  0  0  0  0  0  0  0  0  0
   22.4280  -27.8210   41.6440 F   0  0  0  0  0  0  0  0  0  0  0  0
   20.0192  -23.2387   41.6926 H   0  0  0  0  0  0  0  0  0  0  0  0
   20.5421  -24.1774   40.2531 H   0  0  0  0  0  0  0  0  0  0  0  0
   18.9500  -23.3457   40.2531 H   0  0  0  0  0  0  0  0  0  0  0  0
   19.4715  -25.3452   42.4337 H   0  0  0  0  0  0  0  0  0  0  0  0
   17.9474  -24.9473   41.5306 H   0  0  0  0  0  0  0  0  0  0  0  0
   17.5141  -25.8114   39.3337 H   0  0  0  0  0  0  0  0  0  0  0  0
   17.7309  -27.7614   37.8140 H   0  0  0  0  0  0  0  0  0  0  0  0
   20.5299  -28.9019   34.1491 H   0  0  0  0  0  0  0  0  0  0  0  0
   20.7914  -30.6121   32.3479 H   0  0  0  0  0  0  0  0  0  0  0  0
   20.4556  -33.0321   32.8636 H   0  0  0  0  0  0  0  0  0  0  0  0
   19.5760  -34.3270   36.0050 H   0  0  0  0  0  0  0  0  0  0  0  0
   19.1400  -32.2510   39.8880 H   0  0  0  0  0  0  0  0  0  0  0  0
   21.1617  -29.1220   40.0471 H   0  0  0  0  0  0  0  0  0  0  0  0
   21.4375  -26.0621   41.9115 H   0  0  0  0  0  0  0  0  0  0  0  0
  1  2  1  0
  2  3  1  0
  3  4  2  0
  4  5  1  0
  5  6  2  0
  6  7  1  0
  7  8  1  0
  8  9  1  0
  9 10  2  0
 10 11  1  0
 11 12  2  0
 12 13  1  0
 13 14  1  0
 13 15  2  0
 15 16  1  0
 16 17  2  0
 16 18  1  0
 18 19  1  0
  6 20  1  0
 20 21  2  0
 21 22  1  0
 22 23  1  0
 22 24  1  0
 21  3  1  0
 18  7  2  0
 15  9  1  0
  1 25  1  0
  1 26  1  0
  1 27  1  0
  2 28  1  0
  2 29  1  0
  4 30  1  0
  5 31  1  0
 10 32  1  0
 11 33  1  0
 12 34  1  0
 14 35  1  0
 19 36  1  0
 20 37  1  0
 22 38  1  0
M  END
>  <meeko>  (4) 
{"is_sidechain": [false], "free_energy": -7.299, "intermolecular_energy": -9.06, "internal_energy": -0.584}

$$$$
cand_030_out
     RDKit          3D

 38 40  0  0  0  0  0  0  0  0999 V2000
   19.5960  -24.7370   41.9850 C   0  0  0  0  0  0  0  0  0  0  0  0
   19.5400  -24.6790   40.4650 C   0  0  0  0  0  0  0  0  0  0  0  0
   19.4640  -26.0590   39.8470 C   0  0  0  0  0  0  0  0  0  0  0  0
   20.0570  -27.1290   40.5380 C   0  0  0  0  0  0  0  0  0  0  0  0
   20.0280  -28.4260   40.0210 C   0  0  0  0  0  0  0  0  0  0  0  0
   19.4020  -28.6920   38.7990 C   0  0  0  0  0  0  0  0  0  0  0  0
   19.3960  -30.0660   38.2580 C   0  0  0  0  0  0  0  0  0  0  0  0
   18.9930  -31.0150   39.1920 O   0  0  0  0  0  0  0  0  0  0  0  0
   18.9470  -32.3340   38.8170 C   0  0  0  0  0  0  0  0  0  0  0  0
   18.5540  -33.2540   39.7900 C   0  0  0  0  0  0  0  0  0  0  0  0
   18.4830  -34.6130   39.4750 C   0  0  0  0  0  0  0  0  0  0  0  0
   18.8060  -35.0510   38.1880 C   0  0  0  0  0  0  0  0  0  0  0  0
   19.1980  -34.1300   37.2190 C   0  0  0  0  0  0  0  0  0  0  0  0
   19.4990  -34.6270   35.9810 O   0  0  0  0  0  0  0  0  0  0  0  0
   19.2690  -32.7710   37.5370 C   0  0  0  0  0  0  0  0  0  0  0  0
   19.6770  -31.7710   36.5480 C   0  0  0  0  0  0  0  0  0  0  0  0
   19.9690  -32.0760   35.3940 O   0  0  0  0  0  0  0  0  0  0  0  0
   19.7270  -30.3570   36.9860 C   0  0  0  0  0  0  0  0  0  0  0  0
   20.1010  -29.4160   36.0440 O   0  0  0  0  0  0  0  0  0  0  0  0
   18.8240  -27.6230   38.1000 C   0  0  0  0  0  0  0  0  0  0  0  0
   18.8480  -26.3060   38.6030 C   0  0  0  0  0  0  0  0  0  0  0  0
   18.1740  -25.2120   37.8030 C   0  0  0  0  0  0  0  0  0  0  0  0
   19.0560  -24.3770   37.1880 F   0  0  0  0  0  0  0  0  0  0  0  0
   17.3710  -25.6830   36.8060 F   0  0  0  0  0  0  0  0  0  0  0  0
   18.8901  -24.0059   42.4061 H   0  0  0  0  0  0  0  0  0  0  0  0
   19.3230  -25.7473   42.3237 H   0  0  0  0  0  0  0  0  0  0  0  0
   20.6153  -24.4996   42.3237 H   0  0  0  0  0  0  0  0  0  0  0  0
   18.6508  -24.1057   40.1640 H   0  0  0  0  0  0  0  0  0  0  0  0
   20.4630  -24.1978   40.1092 H   0  0  0  0  0  0  0  0  0  0  0  0
   20.5523  -26.9420   41.5022 H   0  0  0  0  0  0  0  0  0  0  0  0
   20.5020  -29.2461   40.5802 H   0  0  0  0  0  0  0  0  0  0  0  0
   18.3005  -32.9095   40.8034 H   0  0  0  0  0  0  0  0  0  0  0  0
   18.1725  -35.3391   40.2408 H   0  0  0  0  0  0  0  0  0  0  0  0
   18.7508  -36.1213   37.9403 H   0  0  0  0  0  0  0  0  0  0  0  0
   18.9010  -34.5080   35.2710 H   0  0  0  0  0  0  0  0  0  0  0  0
   20.3110  -28.5430   36.3130 H   0  0  0  0  0  0  0  0  0  0  0  0
   18.3383  -27.8171   37.1323 H   0  0  0  0  0  0  0  0  0  0  0  0
   17.5855  -24.6816   38.5661 H   0  0  0  0  0  0  0  0  0  0  0  0
  1  2  1  0
  2  3  1  0
  3  4  2  0
  4  5  1  0
  5  6  2  0
  6  7  1  0
  7  8  1  0
  8  9  1  0
  9 10  2  0
 10 11  1  0
 11 12  2  0
 12 13  1  0
 13 14  1  0
 13 15  2  0
 15 16  1  0
 16 17  2  0
 16 18  1  0
 18 19  1  0
  6 20  1  0
 20 21  2  0
 21 22  1  0
 22 23  1  0
 22 24  1  0
 21  3  1  0
 18  7  2  0
 15  9  1  0
  1 25  1  0
  1 26  1  0
  1 27  1  0
  2 28  1  0
  2 29  1  0
  4 30  1  0
  5 31  1  0
 10 32  1  0
 11 33  1  0
 12 34  1  0
 14 35  1  0
 19 36  1  0
 20 37  1  0
 22 38  1  0
M  END
>  <meeko>  (5) 
{"is_sidechain": [false], "free_energy": -7.273, "intermolecular_energy": -9.26, "internal_energy": -0.352}

$$$$
cand_030_out
     RDKit          3D

 38 40  0  0  0  0  0  0  0  0999 V2000
   18.5910  -27.6340   35.3020 C   0  0  0  0  0  0  0  0  0  0  0  0
   17.7980  -27.2910   36.5540 C   0  0  0  0  0  0  0  0  0  0  0  0
   18.6790  -27.2200   37.7830 C   0  0  0  0  0  0  0  0  0  0  0  0
   18.8990  -28.4020   38.5100 C   0  0  0  0  0  0  0  0  0  0  0  0
   19.6960  -28.4050   39.6570 C   0  0  0  0  0  0  0  0  0  0  0  0
   20.3000  -27.2270   40.1080 C   0  0  0  0  0  0  0  0  0  0  0  0
   21.1260  -27.2450   41.3330 C   0  0  0  0  0  0  0  0  0  0  0  0
   22.1320  -28.2040   41.2940 O   0  0  0  0  0  0  0  0  0  0  0  0
   22.9700  -28.3280   42.3740 C   0  0  0  0  0  0  0  0  0  0  0  0
   23.9550  -29.3140   42.3000 C   0  0  0  0  0  0  0  0  0  0  0  0
   24.8420  -29.4910   43.3630 C   0  0  0  0  0  0  0  0  0  0  0  0
   24.7460  -28.6830   44.4990 C   0  0  0  0  0  0  0  0  0  0  0  0
   23.7620  -27.7000   44.5690 C   0  0  0  0  0  0  0  0  0  0  0  0
   23.7240  -26.9450   45.7090 O   0  0  0  0  0  0  0  0  0  0  0  0
   22.8730  -27.5240   43.5050 C   0  0  0  0  0  0  0  0  0  0  0  0
   21.8250  -26.5020   43.5390 C   0  0  0  0  0  0  0  0  0  0  0  0
   21.6810  -25.7480   44.4980 O   0  0  0  0  0  0  0  0  0  0  0  0
   20.9300  -26.4020   42.3630 C   0  0  0  0  0  0  0  0  0  0  0  0
   19.9500  -25.4270   42.3970 O   0  0  0  0  0  0  0  0  0  0  0  0
   20.0680  -26.0430   39.3940 C   0  0  0  0  0  0  0  0  0  0  0  0
   19.2610  -26.0190   38.2370 C   0  0  0  0  0  0  0  0  0  0  0  0
   19.0850  -24.7070   37.5040 C   0  0  0  0  0  0  0  0  0  0  0  0
   17.8570  -24.1480   37.6930 F   0  0  0  0  0  0  0  0  0  0  0  0
   19.9780  -23.7470   37.8830 F   0  0  0  0  0  0  0  0  0  0  0  0
   19.5656  -28.0555   35.5893 H   0  0  0  0  0  0  0  0  0  0  0  0
   18.0339  -28.3716   34.7057 H   0  0  0  0  0  0  0  0  0  0  0  0
   18.7470  -26.7229   34.7057 H   0  0  0  0  0  0  0  0  0  0  0  0
   17.3111  -26.3153   36.4095 H   0  0  0  0  0  0  0  0  0  0  0  0
   17.0558  -28.0869   36.7141 H   0  0  0  0  0  0  0  0  0  0  0  0
   18.4361  -29.3402   38.1703 H   0  0  0  0  0  0  0  0  0  0  0  0
   19.8501  -29.3428   40.2109 H   0  0  0  0  0  0  0  0  0  0  0  0
   24.0321  -29.9502   41.4059 H   0  0  0  0  0  0  0  0  0  0  0  0
   25.6183  -30.2683   43.3064 H   0  0  0  0  0  0  0  0  0  0  0  0
   25.4460  -28.8230   45.3359 H   0  0  0  0  0  0  0  0  0  0  0  0
   22.9420  -26.4840   45.9400 H   0  0  0  0  0  0  0  0  0  0  0  0
   19.0540  -25.6590   42.2490 H   0  0  0  0  0  0  0  0  0  0  0  0
   20.5276  -25.1074   39.7454 H   0  0  0  0  0  0  0  0  0  0  0  0
   19.2375  -24.9947   36.4533 H   0  0  0  0  0  0  0  0  0  0  0  0
  1  2  1  0
  2  3  1  0
  3  4  2  0
  4  5  1  0
  5  6  2  0
  6  7  1  0
  7  8  1  0
  8  9  1  0
  9 10  2  0
 10 11  1  0
 11 12  2  0
 12 13  1  0
 13 14  1  0
 13 15  2  0
 15 16  1  0
 16 17  2  0
 16 18  1  0
 18 19  1  0
  6 20  1  0
 20 21  2  0
 21 22  1  0
 22 23  1  0
 22 24  1  0
 21  3  1  0
 18  7  2  0
 15  9  1  0
  1 25  1  0
  1 26  1  0
  1 27  1  0
  2 28  1  0
  2 29  1  0
  4 30  1  0
  5 31  1  0
 10 32  1  0
 11 33  1  0
 12 34  1  0
 14 35  1  0
 19 36  1  0
 20 37  1  0
 22 38  1  0
M  END
>  <meeko>  (6) 
{"is_sidechain": [false], "free_energy": -7.076, "intermolecular_energy": -8.94, "internal_energy": -0.429}

$$$$
cand_030_out
     RDKit          3D

 38 40  0  0  0  0  0  0  0  0999 V2000
   19.5380  -23.9230   43.0160 C   0  0  0  0  0  0  0  0  0  0  0  0
   19.6600  -25.4330   43.1520 C   0  0  0  0  0  0  0  0  0  0  0  0
   19.7510  -26.1200   41.8060 C   0  0  0  0  0  0  0  0  0  0  0  0
   18.7210  -25.8950   40.8770 C   0  0  0  0  0  0  0  0  0  0  0  0
   18.7400  -26.5020   39.6190 C   0  0  0  0  0  0  0  0  0  0  0  0
   19.7910  -27.3480   39.2520 C   0  0  0  0  0  0  0  0  0  0  0  0
   19.7850  -27.9960   37.9250 C   0  0  0  0  0  0  0  0  0  0  0  0
   19.8780  -29.3810   37.9970 O   0  0  0  0  0  0  0  0  0  0  0  0
   19.8860  -30.1060   36.8320 C   0  0  0  0  0  0  0  0  0  0  0  0
   19.9980  -31.4920   36.9510 C   0  0  0  0  0  0  0  0  0  0  0  0
   20.0100  -32.2890   35.8040 C   0  0  0  0  0  0  0  0  0  0  0  0
   19.9100  -31.7020   34.5400 C   0  0  0  0  0  0  0  0  0  0  0  0
   19.7990  -30.3180   34.4260 C   0  0  0  0  0  0  0  0  0  0  0  0
   19.7040  -29.8090   33.1600 O   0  0  0  0  0  0  0  0  0  0  0  0
   19.7880  -29.5210   35.5740 C   0  0  0  0  0  0  0  0  0  0  0  0
   19.6720  -28.0640   35.4970 C   0  0  0  0  0  0  0  0  0  0  0  0
   19.5720  -27.4730   34.4250 O   0  0  0  0  0  0  0  0  0  0  0  0
   19.6770  -27.3090   36.7720 C   0  0  0  0  0  0  0  0  0  0  0  0
   19.5550  -25.9340   36.6930 O   0  0  0  0  0  0  0  0  0  0  0  0
   20.8100  -27.5880   40.1840 C   0  0  0  0  0  0  0  0  0  0  0  0
   20.8070  -26.9880   41.4600 C   0  0  0  0  0  0  0  0  0  0  0  0
   21.9600  -27.2710   42.3970 C   0  0  0  0  0  0  0  0  0  0  0  0
   21.5650  -27.7850   43.5950 F   0  0  0  0  0  0  0  0  0  0  0  0
   22.8580  -28.1710   41.9000 F   0  0  0  0  0  0  0  0  0  0  0  0
   19.5011  -23.4666   44.0162 H   0  0  0  0  0  0  0  0  0  0  0  0
   20.4076  -23.5329   42.4667 H   0  0  0  0  0  0  0  0  0  0  0  0
   18.6171  -23.6775   42.4667 H   0  0  0  0  0  0  0  0  0  0  0  0
   20.5662  -25.6650   43.7307 H   0  0  0  0  0  0  0  0  0  0  0  0
   18.7568  -25.8016   43.6603 H   0  0  0  0  0  0  0  0  0  0  0  0
   17.8864  -25.2303   41.1446 H   0  0  0  0  0  0  0  0  0  0  0  0
   17.9203  -26.3126   38.9103 H   0  0  0  0  0  0  0  0  0  0  0  0
   20.0766  -31.9555   37.9455 H   0  0  0  0  0  0  0  0  0  0  0  0
   20.0984  -33.3816   35.8960 H   0  0  0  0  0  0  0  0  0  0  0  0
   19.9189  -32.3309   33.6375 H   0  0  0  0  0  0  0  0  0  0  0  0
   18.9740  -29.2720   32.9240 H   0  0  0  0  0  0  0  0  0  0  0  0
   20.2040  -25.3840   37.0860 H   0  0  0  0  0  0  0  0  0  0  0  0
   21.6349  -28.2631   39.9125 H   0  0  0  0  0  0  0  0  0  0  0  0
   22.4204  -26.2794   42.5185 H   0  0  0  0  0  0  0  0  0  0  0  0
  1  2  1  0
  2  3  1  0
  3  4  2  0
  4  5  1  0
  5  6  2  0
  6  7  1  0
  7  8  1  0
  8  9  1  0
  9 10  2  0
 10 11  1  0
 11 12  2  0
 12 13  1  0
 13 14  1  0
 13 15  2  0
 15 16  1  0
 16 17  2  0
 16 18  1  0
 18 19  1  0
  6 20  1  0
 20 21  2  0
 21 22  1  0
 22 23  1  0
 22 24  1  0
 21  3  1  0
 18  7  2  0
 15  9  1  0
  1 25  1  0
  1 26  1  0
  1 27  1  0
  2 28  1  0
  2 29  1  0
  4 30  1  0
  5 31  1  0
 10 32  1  0
 11 33  1  0
 12 34  1  0
 14 35  1  0
 19 36  1  0
 20 37  1  0
 22 38  1  0
M  END
>  <meeko>  (7) 
{"is_sidechain": [false], "free_energy": -6.953, "intermolecular_energy": -8.871, "internal_energy": -0.346}

$$$$
cand_030_out
     RDKit          3D

 38 40  0  0  0  0  0  0  0  0999 V2000
   19.9800  -32.8520   34.7530 C   0  0  0  0  0  0  0  0  0  0  0  0
   19.6950  -32.8480   36.2480 C   0  0  0  0  0  0  0  0  0  0  0  0
   19.6100  -31.4440   36.8070 C   0  0  0  0  0  0  0  0  0  0  0  0
   19.8440  -30.3680   35.9340 C   0  0  0  0  0  0  0  0  0  0  0  0
   19.7870  -29.0480   36.3860 C   0  0  0  0  0  0  0  0  0  0  0  0
   19.4900  -28.7640   37.7220 C   0  0  0  0  0  0  0  0  0  0  0  0
   19.4510  -27.3630   38.1870 C   0  0  0  0  0  0  0  0  0  0  0  0
   18.5260  -26.5880   37.4970 O   0  0  0  0  0  0  0  0  0  0  0  0
   18.3920  -25.2630   37.8290 C   0  0  0  0  0  0  0  0  0  0  0  0
   17.4640  -24.5190   37.1000 C   0  0  0  0  0  0  0  0  0  0  0  0
   17.2770  -23.1650   37.3890 C   0  0  0  0  0  0  0  0  0  0  0  0
   18.0170  -22.5570   38.4060 C   0  0  0  0  0  0  0  0  0  0  0  0
   18.9420  -23.3030   39.1320 C   0  0  0  0  0  0  0  0  0  0  0  0
   19.6310  -22.6460   40.1140 O   0  0  0  0  0  0  0  0  0  0  0  0
   19.1290  -24.6570   38.8410 C   0  0  0  0  0  0  0  0  0  0  0  0
   20.0910  -25.4770   39.5810 C   0  0  0  0  0  0  0  0  0  0  0  0
   20.7730  -25.0180   40.4930 O   0  0  0  0  0  0  0  0  0  0  0  0
   20.2200  -26.9000   39.1900 C   0  0  0  0  0  0  0  0  0  0  0  0
   21.1220  -27.6710   39.9010 O   0  0  0  0  0  0  0  0  0  0  0  0
   19.2720  -29.8370   38.5990 C   0  0  0  0  0  0  0  0  0  0  0  0
   19.3310  -31.1770   38.1630 C   0  0  0  0  0  0  0  0  0  0  0  0
   19.0520  -32.2770   39.1630 C   0  0  0  0  0  0  0  0  0  0  0  0
   19.8890  -32.2500   40.2370 F   0  0  0  0  0  0  0  0  0  0  0  0
   17.7940  -32.2310   39.6870 F   0  0  0  0  0  0  0  0  0  0  0  0
   21.0673  -32.8673   34.5871 H   0  0  0  0  0  0  0  0  0  0  0  0
   19.5267  -33.7439   34.2957 H   0  0  0  0  0  0  0  0  0  0  0  0
   19.5520  -31.9478   34.2957 H   0  0  0  0  0  0  0  0  0  0  0  0
   18.7383  -33.3602   36.4282 H   0  0  0  0  0  0  0  0  0  0  0  0
   20.5249  -33.3642   36.7527 H   0  0  0  0  0  0  0  0  0  0  0  0
   20.0758  -30.5687   34.8776 H   0  0  0  0  0  0  0  0  0  0  0  0
   19.9778  -28.2233   35.6835 H   0  0  0  0  0  0  0  0  0  0  0  0
   16.8808  -24.9974   36.2994 H   0  0  0  0  0  0  0  0  0  0  0  0
   16.5460  -22.5768   36.8149 H   0  0  0  0  0  0  0  0  0  0  0  0
   17.8693  -21.4908   38.6329 H   0  0  0  0  0  0  0  0  0  0  0  0
   20.0470  -21.8270   39.9260 H   0  0  0  0  0  0  0  0  0  0  0  0
   21.9990  -27.3660   40.0280 H   0  0  0  0  0  0  0  0  0  0  0  0
   19.0490  -29.6275   39.6556 H   0  0  0  0  0  0  0  0  0  0  0  0
   19.1963  -33.1890   38.5652 H   0  0  0  0  0  0  0  0  0  0  0  0
  1  2  1  0
  2  3  1  0
  3  4  2  0
  4  5  1  0
  5  6  2  0
  6  7  1  0
  7  8  1  0
  8  9  1  0
  9 10  2  0
 10 11  1  0
 11 12  2  0
 12 13  1  0
 13 14  1  0
 13 15  2  0
 15 16  1  0
 16 17  2  0
 16 18  1  0
 18 19  1  0
  6 20  1  0
 20 21  2  0
 21 22  1  0
 22 23  1  0
 22 24  1  0
 21  3  1  0
 18  7  2  0
 15  9  1  0
  1 25  1  0
  1 26  1  0
  1 27  1  0
  2 28  1  0
  2 29  1  0
  4 30  1  0
  5 31  1  0
 10 32  1  0
 11 33  1  0
 12 34  1  0
 14 35  1  0
 19 36  1  0
 20 37  1  0
 22 38  1  0
M  END
>  <meeko>  (8) 
{"is_sidechain": [false], "free_energy": -6.86, "intermolecular_energy": -8.648, "internal_energy": -0.454}

$$$$
cand_030_out
     RDKit          3D

 38 40  0  0  0  0  0  0  0  0999 V2000
   18.4560  -34.7330   39.4280 C   0  0  0  0  0  0  0  0  0  0  0  0
   19.1810  -34.2340   38.1870 C   0  0  0  0  0  0  0  0  0  0  0  0
   19.2730  -32.7240   38.1510 C   0  0  0  0  0  0  0  0  0  0  0  0
   18.9680  -32.0130   39.3240 C   0  0  0  0  0  0  0  0  0  0  0  0
   19.0270  -30.6180   39.3570 C   0  0  0  0  0  0  0  0  0  0  0  0
   19.3970  -29.8920   38.2200 C   0  0  0  0  0  0  0  0  0  0  0  0
   19.4370  -28.4170   38.2690 C   0  0  0  0  0  0  0  0  0  0  0  0
   18.7620  -27.8210   37.2090 O   0  0  0  0  0  0  0  0  0  0  0  0
   18.7260  -26.4520   37.1330 C   0  0  0  0  0  0  0  0  0  0  0  0
   18.0530  -25.8970   36.0440 C   0  0  0  0  0  0  0  0  0  0  0  0
   17.9760  -24.5080   35.9080 C   0  0  0  0  0  0  0  0  0  0  0  0
   18.5710  -23.6770   36.8600 C   0  0  0  0  0  0  0  0  0  0  0  0
   19.2420  -24.2350   37.9460 C   0  0  0  0  0  0  0  0  0  0  0  0
   19.8000  -23.3630   38.8400 O   0  0  0  0  0  0  0  0  0  0  0  0
   19.3190  -25.6240   38.0810 C   0  0  0  0  0  0  0  0  0  0  0  0
   20.0140  -26.2500   39.2070 C   0  0  0  0  0  0  0  0  0  0  0  0
   20.5560  -25.5880   40.0880 O   0  0  0  0  0  0  0  0  0  0  0  0
   20.0460  -27.7300   39.2530 C   0  0  0  0  0  0  0  0  0  0  0  0
   20.6940  -28.3150   40.3260 O   0  0  0  0  0  0  0  0  0  0  0  0
   19.6860  -30.5990   37.0440 C   0  0  0  0  0  0  0  0  0  0  0  0
   19.6260  -32.0070   36.9890 C   0  0  0  0  0  0  0  0  0  0  0  0
   19.9830  -32.6970   35.6910 C   0  0  0  0  0  0  0  0  0  0  0  0
   18.9320  -33.3520   35.1240 F   0  0  0  0  0  0  0  0  0  0  0  0
   20.4350  -31.8440   34.7260 F   0  0  0  0  0  0  0  0  0  0  0  0
   18.9781  -34.3736   40.3270 H   0  0  0  0  0  0  0  0  0  0  0  0
   17.4236  -34.3532   39.4271 H   0  0  0  0  0  0  0  0  0  0  0  0
   18.4421  -35.8329   39.4271 H   0  0  0  0  0  0  0  0  0  0  0  0
   20.1985  -34.6518   38.1784 H   0  0  0  0  0  0  0  0  0  0  0  0
   18.6087  -34.5599   37.3059 H   0  0  0  0  0  0  0  0  0  0  0  0
   18.6781  -32.5640   40.2309 H   0  0  0  0  0  0  0  0  0  0  0  0
   18.7799  -30.0846   40.2868 H   0  0  0  0  0  0  0  0  0  0  0  0
   17.5841  -26.5511   35.2942 H   0  0  0  0  0  0  0  0  0  0  0  0
   17.4460  -24.0687   35.0500 H   0  0  0  0  0  0  0  0  0  0  0  0
   18.5099  -22.5840   36.7525 H   0  0  0  0  0  0  0  0  0  0  0  0
   20.6990  -23.4570   39.0860 H   0  0  0  0  0  0  0  0  0  0  0  0
   20.3420  -29.0900   40.7190 H   0  0  0  0  0  0  0  0  0  0  0  0
   19.9673  -30.0400   36.1394 H   0  0  0  0  0  0  0  0  0  0  0  0
   20.7726  -33.3975   36.0006 H   0  0  0  0  0  0  0  0  0  0  0  0
  1  2  1  0
  2  3  1  0
  3  4  2  0
  4  5  1  0
  5  6  2  0
  6  7  1  0
  7  8  1  0
  8  9  1  0
  9 10  2  0
 10 11  1  0
 11 12  2  0
 12 13  1  0
 13 14  1  0
 13 15  2  0
 15 16  1  0
 16 17  2  0
 16 18  1  0
 18 19  1  0
  6 20  1  0
 20 21  2  0
 21 22  1  0
 22 23  1  0
 22 24  1  0
 21  3  1  0
 18  7  2  0
 15  9  1  0
  1 25  1  0
  1 26  1  0
  1 27  1  0
  2 28  1  0
  2 29  1  0
  4 30  1  0
  5 31  1  0
 10 32  1  0
 11 33  1  0
 12 34  1  0
 14 35  1  0
 19 36  1  0
 20 37  1  0
 22 38  1  0
M  END
>  <meeko>  (9) 
{"is_sidechain": [false], "free_energy": -6.847, "intermolecular_energy": -8.762, "internal_energy": -0.324}

$$$$
