cand_006_out
     RDKit          3D

 47 50  0  0  0  0  0  0  0  0999 V2000
   19.7270  -24.9680   40.3340 C   0  0  0  0  0  0  0  0  0  0  0  0
   19.6810  -26.3690   39.7860 C   0  0  0  0  0  0  0  0  0  0  0  0
   18.8830  -26.6530   38.6700 C   0  0  0  0  0  0  0  0  0  0  0  0
   18.8290  -27.9440   38.1430 C   0  0  0  0  0  0  0  0  0  0  0  0
   19.5760  -28.9810   38.7150 C   0  0  0  0  0  0  0  0  0  0  0  0
   19.4850  -30.3470   38.1580 C   0  0  0  0  0  0  0  0  0  0  0  0
   19.0550  -31.2840   39.0920 O   0  0  0  0  0  0  0  0  0  0  0  0
   18.9250  -32.5940   38.7070 C   0  0  0  0  0  0  0  0  0  0  0  0
   18.5050  -33.5010   39.6800 C   0  0  0  0  0  0  0  0  0  0  0  0
   18.3520  -34.8510   39.3540 C   0  0  0  0  0  0  0  0  0  0  0  0
   18.6170  -35.2910   38.0560 C   0  0  0  0  0  0  0  0  0  0  0  0
   19.0360  -34.3840   37.0860 C   0  0  0  0  0  0  0  0  0  0  0  0
   19.2770  -34.8830   35.8360 O   0  0  0  0  0  0  0  0  0  0  0  0
   19.1910  -33.0330   37.4140 C   0  0  0  0  0  0  0  0  0  0  0  0
   19.6280  -32.0470   36.4250 C   0  0  0  0  0  0  0  0  0  0  0  0
   19.8740  -32.3550   35.2610 O   0  0  0  0  0  0  0  0  0  0  0  0
   19.7680  -30.6420   36.8760 C   0  0  0  0  0  0  0  0  0  0  0  0
   20.1700  -29.7170   35.9300 O   0  0  0  0  0  0  0  0  0  0  0  0
   20.3640  -28.6950   39.8400 C   0  0  0  0  0  0  0  0  0  0  0  0
   20.4340  -27.3990   40.3840 C   0  0  0  0  0  0  0  0  0  0  0  0
   21.2370  -27.0990   41.5090 N   0  0  0  0  0  0  0  0  0  0  0  0
   22.3790  -28.0180   41.6370 C   0  0  0  0  0  0  0  0  0  0  0  0
   23.3190  -27.4960   42.7240 C   0  0  0  0  0  0  0  0  0  0  0  0
   22.5790  -27.2980   44.0470 C   0  0  0  0  0  0  0  0  0  0  0  0
   21.3430  -26.4190   43.8540 C   0  0  0  0  0  0  0  0  0  0  0  0
   20.4460  -26.9650   42.7420 C   0  0  0  0  0  0  0  0  0  0  0  0
   19.7258  -25.0041   41.4334 H   0  0  0  0  0  0  0  0  0  0  0  0
   20.6421  -24.4675   39.9846 H   0  0  0  0  0  0  0  0  0  0  0  0
   18.8467  -24.4085   39.9846 H   0  0  0  0  0  0  0  0  0  0  0  0
   18.2929  -25.8499   38.2043 H   0  0  0  0  0  0  0  0  0  0  0  0
   18.1930  -28.1491   37.2692 H   0  0  0  0  0  0  0  0  0  0  0  0
   18.2946  -33.1539   40.7024 H   0  0  0  0  0  0  0  0  0  0  0  0
   18.0225  -35.5676   40.1207 H   0  0  0  0  0  0  0  0  0  0  0  0
   18.4949  -36.3537   37.7995 H   0  0  0  0  0  0  0  0  0  0  0  0
   20.1250  -34.7890   35.4500 H   0  0  0  0  0  0  0  0  0  0  0  0
   21.0650  -29.4440   35.8920 H   0  0  0  0  0  0  0  0  0  0  0  0
   20.9421  -29.5048   40.3090 H   0  0  0  0  0  0  0  0  0  0  0  0
   22.0172  -29.0197   41.9122 H   0  0  0  0  0  0  0  0  0  0  0  0
   22.9162  -28.0787   40.6790 H   0  0  0  0  0  0  0  0  0  0  0  0
   24.1327  -28.2210   42.8731 H   0  0  0  0  0  0  0  0  0  0  0  0
   23.7198  -26.5241   42.4004 H   0  0  0  0  0  0  0  0  0  0  0  0
   22.2666  -28.2786   44.4353 H   0  0  0  0  0  0  0  0  0  0  0  0
   23.2561  -26.8016   44.7577 H   0  0  0  0  0  0  0  0  0  0  0  0
   20.7725  -26.3903   44.7940 H   0  0  0  0  0  0  0  0  0  0  0  0
   21.6739  -25.4088   43.5710 H   0  0  0  0  0  0  0  0  0  0  0  0
   20.0522  -27.9491   43.0360 H   0  0  0  0  0  0  0  0  0  0  0  0
   19.6060  -26.2757   42.5708 H   0  0  0  0  0  0  0  0  0  0  0  0
  1  2  1  0
  2  3  2  0
  3  4  1  0
  4  5  2  0
  5  6  1  0
  6  7  1  0
  7  8  1  0
  8  9  2  0
  9 10  1  0
 10 11  2  0
 11 12  1  0
 12 13  1  0
 12 14  2  0
 14 15  1  0
 15 16  2  0
 15 17  1  0
 17 18  1  0
  5 19  1  0
 19 20  2  0
 20 21  1  0
 21 22  1  0
 22 23  1  0
 23 24  1  0
 24 25  1  0
 25 26  1  0
 20  2  1  0
 26 21  1  0
 17  6  2  0
 14  8  1  0
  1 27  1  0
  1 28  1  0
  1 29  1  0
  3 30  1  0
  4 31  1  0
  9 32  1  0
 10 33  1  0
 11 34  1  0
 13 35  1  0
 18 36  1  0
 19 37  1  0
 22 38  1  0
 22 39  1  0
 23 40  1  0
 23 41  1  0
 24 42  1  0
 24 43  1  0
 25 44  1  0
 25 45  1  0
 26 46  1  0
 26 47  1  0
M  END
>  <meeko>  (1) 
{"is_sidechain": [false], "free_energy": -8.434, "intermolecular_energy": -9.913, "internal_energy": -0.276}

$$$$
cand_006_out
     RDKit          3D

 47 50  0  0  0  0  0  0  0  0999 V2000
   19.7190  -24.6470   40.7400 C   0  0  0  0  0  0  0  0  0  0  0  0
   19.6390  -26.0070   40.1010 C   0  0  0  0  0  0  0  0  0  0  0  0
   20.1150  -27.1290   40.7920 C   0  0  0  0  0  0  0  0  0  0  0  0
   20.0470  -28.4000   40.2190 C   0  0  0  0  0  0  0  0  0  0  0  0
   19.4960  -28.5800   38.9450 C   0  0  0  0  0  0  0  0  0  0  0  0
   19.4560  -29.9310   38.3450 C   0  0  0  0  0  0  0  0  0  0  0  0
   19.0680  -30.9130   39.2490 O   0  0  0  0  0  0  0  0  0  0  0  0
   18.9870  -32.2140   38.8230 C   0  0  0  0  0  0  0  0  0  0  0  0
   18.6080  -33.1680   39.7690 C   0  0  0  0  0  0  0  0  0  0  0  0
   18.5060  -34.5110   39.4010 C   0  0  0  0  0  0  0  0  0  0  0  0
   18.7810  -34.8990   38.0880 C   0  0  0  0  0  0  0  0  0  0  0  0
   19.1600  -33.9460   37.1470 C   0  0  0  0  0  0  0  0  0  0  0  0
   19.4150  -34.3960   35.8800 O   0  0  0  0  0  0  0  0  0  0  0  0
   19.2630  -32.6020   37.5160 C   0  0  0  0  0  0  0  0  0  0  0  0
   19.6570  -31.5680   36.5580 C   0  0  0  0  0  0  0  0  0  0  0  0
   19.9100  -31.8300   35.3840 O   0  0  0  0  0  0  0  0  0  0  0  0
   19.7450  -30.1740   37.0530 C   0  0  0  0  0  0  0  0  0  0  0  0
   20.1050  -29.2040   36.1350 O   0  0  0  0  0  0  0  0  0  0  0  0
   19.0310  -27.4530   38.2520 C   0  0  0  0  0  0  0  0  0  0  0  0
   19.0890  -26.1640   38.8130 C   0  0  0  0  0  0  0  0  0  0  0  0
   18.6100  -25.0240   38.1270 N   0  0  0  0  0  0  0  0  0  0  0  0
   17.6850  -25.3780   37.0380 C   0  0  0  0  0  0  0  0  0  0  0  0
   17.0360  -24.1020   36.5000 C   0  0  0  0  0  0  0  0  0  0  0  0
   18.0920  -23.0870   36.0620 C   0  0  0  0  0  0  0  0  0  0  0  0
   19.0920  -22.8200   37.1870 C   0  0  0  0  0  0  0  0  0  0  0  0
   19.6970  -24.1240   37.7100 C   0  0  0  0  0  0  0  0  0  0  0  0
   19.7126  -24.7553   41.8346 H   0  0  0  0  0  0  0  0  0  0  0  0
   20.6480  -24.1485   40.4262 H   0  0  0  0  0  0  0  0  0  0  0  0
   18.8548  -24.0430   40.4262 H   0  0  0  0  0  0  0  0  0  0  0  0
   20.5467  -27.0070   41.7964 H   0  0  0  0  0  0  0  0  0  0  0  0
   20.4303  -29.2688   40.7742 H   0  0  0  0  0  0  0  0  0  0  0  0
   18.3900  -32.8621   40.8029 H   0  0  0  0  0  0  0  0  0  0  0  0
   18.2088  -35.2639   40.1458 H   0  0  0  0  0  0  0  0  0  0  0  0
   18.6982  -35.9568   37.7977 H   0  0  0  0  0  0  0  0  0  0  0  0
   19.7540  -33.8090   35.2350 H   0  0  0  0  0  0  0  0  0  0  0  0
   20.5740  -28.4440   36.4170 H   0  0  0  0  0  0  0  0  0  0  0  0
   18.6100  -27.5800   37.2437 H   0  0  0  0  0  0  0  0  0  0  0  0
   18.2402  -25.8778   36.2306 H   0  0  0  0  0  0  0  0  0  0  0  0
   16.9081  -26.0581   37.4173 H   0  0  0  0  0  0  0  0  0  0  0  0
   16.4040  -24.3574   35.6367 H   0  0  0  0  0  0  0  0  0  0  0  0
   16.4329  -23.6528   37.3028 H   0  0  0  0  0  0  0  0  0  0  0  0
   18.6304  -23.4820   35.1878 H   0  0  0  0  0  0  0  0  0  0  0  0
   17.5879  -22.1427   35.8085 H   0  0  0  0  0  0  0  0  0  0  0  0
   19.8992  -22.1779   36.8047 H   0  0  0  0  0  0  0  0  0  0  0  0
   18.5619  -22.3254   38.0143 H   0  0  0  0  0  0  0  0  0  0  0  0
   20.2866  -24.6022   36.9139 H   0  0  0  0  0  0  0  0  0  0  0  0
   20.3526  -23.9115   38.5673 H   0  0  0  0  0  0  0  0  0  0  0  0
  1  2  1  0
  2  3  2  0
  3  4  1  0
  4  5  2  0
  5  6  1  0
  6  7  1  0
  7  8  1  0
  8  9  2  0
  9 10  1  0
 10 11  2  0
 11 12  1  0
 12 13  1  0
 12 14  2  0
 14 15  1  0
 15 16  2  0
 15 17  1  0
 17 18  1  0
  5 19  1  0
 19 20  2  0
 20 21  1  0
 21 22  1  0
 22 23  1  0
 23 24  1  0
 24 25  1  0
 25 26  1  0
 20  2  1  0
 26 21  1  0
 17  6  2  0
 14  8  1  0
  1 27  1  0
  1 28  1  0
  1 29  1  0
  3 30  1  0
  4 31  1  0
  9 32  1  0
 10 33  1  0
 11 34  1  0
 13 35  1  0
 18 36  1  0
 19 37  1  0
 22 38  1  0
 22 39  1  0
 23 40  1  0
 23 41  1  0
 24 42  1  0
 24 43  1  0
 25 44  1  0
 25 45  1  0
 26 46  1  0
 26 47  1  0
M  END
>  <meeko>  (2) 
{"is_sidechain": [false], "free_energy": -7.83, "intermolecular_energy": -9.518, "internal_energy": 0.04}

$$$$
cand_006_out
     RDKit          3D

 47 50  0  0  0  0  0  0  0  0999 V2000
   18.7540  -28.5400   35.7970 C   0  0  0  0  0  0  0  0  0  0  0  0
   19.2780  -28.2200   37.1720 C   0  0  0  0  0  0  0  0  0  0  0  0
   19.5850  -26.8950   37.5070 C   0  0  0  0  0  0  0  0  0  0  0  0
   20.0680  -26.5760   38.7770 C   0  0  0  0  0  0  0  0  0  0  0  0
   20.2500  -27.5730   39.7430 C   0  0  0  0  0  0  0  0  0  0  0  0
   20.7870  -27.2180   41.0740 C   0  0  0  0  0  0  0  0  0  0  0  0
   21.9620  -27.8950   41.3810 O   0  0  0  0  0  0  0  0  0  0  0  0
   22.5700  -27.6580   42.5870 C   0  0  0  0  0  0  0  0  0  0  0  0
   23.7380  -28.3710   42.8590 C   0  0  0  0  0  0  0  0  0  0  0  0
   24.4070  -28.1780   44.0690 C   0  0  0  0  0  0  0  0  0  0  0  0
   23.9080  -27.2710   45.0060 C   0  0  0  0  0  0  0  0  0  0  0  0
   22.7420  -26.5600   44.7330 C   0  0  0  0  0  0  0  0  0  0  0  0
   22.3100  -25.6890   45.6950 O   0  0  0  0  0  0  0  0  0  0  0  0
   22.0720  -26.7570   43.5220 C   0  0  0  0  0  0  0  0  0  0  0  0
   20.8440  -26.0310   43.1950 C   0  0  0  0  0  0  0  0  0  0  0  0
   20.3470  -25.2110   43.9650 O   0  0  0  0  0  0  0  0  0  0  0  0
   20.2070  -26.3160   41.8880 C   0  0  0  0  0  0  0  0  0  0  0  0
   19.0540  -25.6150   41.5850 O   0  0  0  0  0  0  0  0  0  0  0  0
   19.9520  -28.8990   39.3990 C   0  0  0  0  0  0  0  0  0  0  0  0
   19.4610  -29.2410   38.1250 C   0  0  0  0  0  0  0  0  0  0  0  0
   19.1460  -30.5740   37.7740 N   0  0  0  0  0  0  0  0  0  0  0  0
   18.8860  -31.4130   38.9560 C   0  0  0  0  0  0  0  0  0  0  0  0
   18.3300  -32.7610   38.4970 C   0  0  0  0  0  0  0  0  0  0  0  0
   19.2710  -33.4360   37.4980 C   0  0  0  0  0  0  0  0  0  0  0  0
   19.5960  -32.4970   36.3360 C   0  0  0  0  0  0  0  0  0  0  0  0
   20.1240  -31.1550   36.8420 C   0  0  0  0  0  0  0  0  0  0  0  0
   17.8182  -29.1115   35.8851 H   0  0  0  0  0  0  0  0  0  0  0  0
   18.5624  -27.6046   35.2508 H   0  0  0  0  0  0  0  0  0  0  0  0
   19.4986  -29.1377   35.2508 H   0  0  0  0  0  0  0  0  0  0  0  0
   19.4440  -26.0982   36.7619 H   0  0  0  0  0  0  0  0  0  0  0  0
   20.3081  -25.5307   39.0215 H   0  0  0  0  0  0  0  0  0  0  0  0
   24.1315  -29.0849   42.1204 H   0  0  0  0  0  0  0  0  0  0  0  0
   25.3274  -28.7406   44.2843 H   0  0  0  0  0  0  0  0  0  0  0  0
   24.4355  -27.1181   45.9591 H   0  0  0  0  0  0  0  0  0  0  0  0
   22.7300  -24.8580   45.7970 H   0  0  0  0  0  0  0  0  0  0  0  0
   18.4350  -25.9720   40.9800 H   0  0  0  0  0  0  0  0  0  0  0  0
   20.1060  -29.6931   40.1444 H   0  0  0  0  0  0  0  0  0  0  0  0
   19.8232  -31.5700   39.5102 H   0  0  0  0  0  0  0  0  0  0  0  0
   18.1575  -30.9146   39.6125 H   0  0  0  0  0  0  0  0  0  0  0  0
   18.2070  -33.4153   39.3726 H   0  0  0  0  0  0  0  0  0  0  0  0
   17.3625  -32.5887   38.0027 H   0  0  0  0  0  0  0  0  0  0  0  0
   20.2044  -33.7107   38.0112 H   0  0  0  0  0  0  0  0  0  0  0  0
   18.7749  -34.3325   37.0978 H   0  0  0  0  0  0  0  0  0  0  0  0
   20.3599  -32.9659   35.6984 H   0  0  0  0  0  0  0  0  0  0  0  0
   18.6731  -32.3159   35.7655 H   0  0  0  0  0  0  0  0  0  0  0  0
   21.0817  -31.3079   37.3610 H   0  0  0  0  0  0  0  0  0  0  0  0
   20.2774  -30.4729   35.9927 H   0  0  0  0  0  0  0  0  0  0  0  0
  1  2  1  0
  2  3  2  0
  3  4  1  0
  4  5  2  0
  5  6  1  0
  6  7  1  0
  7  8  1  0
  8  9  2  0
  9 10  1  0
 10 11  2  0
 11 12  1  0
 12 13  1  0
 12 14  2  0
 14 15  1  0
 15 16  2  0
 15 17  1  0
 17 18  1  0
  5 19  1  0
 19 20  2  0
 20 21  1  0
 21 22  1  0
 22 23  1  0
 23 24  1  0
 24 25  1  0
 25 26  1  0
 20  2  1  0
 26 21  1  0
 17  6  2  0
 14  8  1  0
  1 27  1  0
  1 28  1  0
  1 29  1  0
  3 30  1  0
  4 31  1  0
  9 32  1  0
 10 33  1  0
 11 34  1  0
 13 35  1  0
 18 36  1  0
 19 37  1  0
 22 38  1  0
 22 39  1  0
 23 40  1  0
 23 41  1  0
 24 42  1  0
 24 43  1  0
 25 44  1  0
 25 45  1  0
 26 46  1  0
 26 47  1  0
M  END
>  <meeko>  (3) 
{"is_sidechain": [false], "free_energy": -7.649, "intermolecular_energy": -9.073, "internal_energy": -0.193}

$$$$
cand_006_out
     RDKit          3D

 47 50  0  0  0  0  0  0  0  0999 V2000
   17.7200  -27.1400   36.4480 C   0  0  0  0  0  0  0  0  0  0  0  0
   18.5610  -27.1140   37.6960 C   0  0  0  0  0  0  0  0  0  0  0  0
   18.9270  -28.3190   38.3120 C   0  0  0  0  0  0  0  0  0  0  0  0
   19.7090  -28.3190   39.4680 C   0  0  0  0  0  0  0  0  0  0  0  0
   20.1490  -27.1160   40.0320 C   0  0  0  0  0  0  0  0  0  0  0  0
   20.9550  -27.1360   41.2710 C   0  0  0  0  0  0  0  0  0  0  0  0
   21.9860  -28.0680   41.2300 O   0  0  0  0  0  0  0  0  0  0  0  0
   22.8150  -28.1900   42.3160 C   0  0  0  0  0  0  0  0  0  0  0  0
   23.8260  -29.1490   42.2360 C   0  0  0  0  0  0  0  0  0  0  0  0
   24.7050  -29.3250   43.3070 C   0  0  0  0  0  0  0  0  0  0  0  0
   24.5730  -28.5420   44.4550 C   0  0  0  0  0  0  0  0  0  0  0  0
   23.5640  -27.5860   44.5330 C   0  0  0  0  0  0  0  0  0  0  0  0
   23.4920  -26.8550   45.6860 O   0  0  0  0  0  0  0  0  0  0  0  0
   22.6830  -27.4120   43.4610 C   0  0  0  0  0  0  0  0  0  0  0  0
   21.6090  -26.4190   43.5010 C   0  0  0  0  0  0  0  0  0  0  0  0
   21.4320  -25.6880   44.4730 O   0  0  0  0  0  0  0  0  0  0  0  0
   20.7250  -26.3190   42.3160 C   0  0  0  0  0  0  0  0  0  0  0  0
   19.7210  -25.3680   42.3600 O   0  0  0  0  0  0  0  0  0  0  0  0
   19.7710  -25.9120   39.4190 C   0  0  0  0  0  0  0  0  0  0  0  0
   18.9850  -25.8920   38.2520 C   0  0  0  0  0  0  0  0  0  0  0  0
   18.6100  -24.6830   37.6200 N   0  0  0  0  0  0  0  0  0  0  0  0
   19.5810  -23.6030   37.8660 C   0  0  0  0  0  0  0  0  0  0  0  0
   19.2360  -22.4110   36.9720 C   0  0  0  0  0  0  0  0  0  0  0  0
   17.7920  -21.9580   37.1880 C   0  0  0  0  0  0  0  0  0  0  0  0
   16.8230  -23.1280   37.0220 C   0  0  0  0  0  0  0  0  0  0  0  0
   17.2190  -24.3040   37.9150 C   0  0  0  0  0  0  0  0  0  0  0  0
   16.6556  -27.1729   36.7237 H   0  0  0  0  0  0  0  0  0  0  0  0
   17.9171  -26.2353   35.8541 H   0  0  0  0  0  0  0  0  0  0  0  0
   17.9726  -28.0308   35.8541 H   0  0  0  0  0  0  0  0  0  0  0  0
   18.5944  -29.2743   37.8798 H   0  0  0  0  0  0  0  0  0  0  0  0
   19.9823  -29.2740   39.9406 H   0  0  0  0  0  0  0  0  0  0  0  0
   23.9303  -29.7652   41.3308 H   0  0  0  0  0  0  0  0  0  0  0  0
   25.5017  -30.0810   43.2458 H   0  0  0  0  0  0  0  0  0  0  0  0
   25.2661  -28.6803   45.2979 H   0  0  0  0  0  0  0  0  0  0  0  0
   24.1920  -26.8910   46.3070 H   0  0  0  0  0  0  0  0  0  0  0  0
   19.8700  -24.5500   42.7910 H   0  0  0  0  0  0  0  0  0  0  0  0
   20.0973  -24.9594   39.8619 H   0  0  0  0  0  0  0  0  0  0  0  0
   19.5340  -23.2981   38.9218 H   0  0  0  0  0  0  0  0  0  0  0  0
   20.5971  -23.9573   37.6378 H   0  0  0  0  0  0  0  0  0  0  0  0
   19.9130  -21.5770   37.2089 H   0  0  0  0  0  0  0  0  0  0  0  0
   19.3515  -22.7180   35.9220 H   0  0  0  0  0  0  0  0  0  0  0  0
   17.6912  -21.5482   38.2038 H   0  0  0  0  0  0  0  0  0  0  0  0
   17.5484  -21.1907   36.4383 H   0  0  0  0  0  0  0  0  0  0  0  0
   15.8100  -22.7963   37.2936 H   0  0  0  0  0  0  0  0  0  0  0  0
   16.8541  -23.4603   35.9739 H   0  0  0  0  0  0  0  0  0  0  0  0
   17.1331  -24.0100   38.9715 H   0  0  0  0  0  0  0  0  0  0  0  0
   16.5526  -25.1577   37.7223 H   0  0  0  0  0  0  0  0  0  0  0  0
  1  2  1  0
  2  3  2  0
  3  4  1  0
  4  5  2  0
  5  6  1  0
  6  7  1  0
  7  8  1  0
  8  9  2  0
  9 10  1  0
 10 11  2  0
 11 12  1  0
 12 13  1  0
 12 14  2  0
 14 15  1  0
 15 16  2  0
 15 17  1  0
 17 18  1  0
  5 19  1  0
 19 20  2  0
 20 21  1  0
 21 22  1  0
 22 23  1  0
 23 24  1  0
 24 25  1  0
 25 26  1  0
 20  2  1  0
 26 21  1  0
 17  6  2  0
 14  8  1  0
  1 27  1  0
  1 28  1  0
  1 29  1  0
  3 30  1  0
  4 31  1  0
  9 32  1  0
 10 33  1  0
 11 34  1  0
 13 35  1  0
 18 36  1  0
 19 37  1  0
 22 38  1  0
 22 39  1  0
 23 40  1  0
 23 41  1  0
 24 42  1  0
 24 43  1  0
 25 44  1  0
 25 45  1  0
 26 46  1  0
 26 47  1  0
M  END
>  <meeko>  (4) 
{"is_sidechain": [false], "free_energy": -7.582, "intermolecular_energy": -9.015, "internal_energy": -0.172}

$$$$
cand_006_out
     RDKit          3D

 47 50  0  0  0  0  0  0  0  0999 V2000
   19.3120  -20.8060   48.9280 C   0  0  0  0  0  0  0  0  0  0  0  0
   19.7090  -21.8130   47.8830 C   0  0  0  0  0  0  0  0  0  0  0  0
   18.7190  -22.5380   47.2060 C   0  0  0  0  0  0  0  0  0  0  0  0
   19.0640  -23.4740   46.2310 C   0  0  0  0  0  0  0  0  0  0  0  0
   20.4060  -23.7040   45.9040 C   0  0  0  0  0  0  0  0  0  0  0  0
   20.7520  -24.7180   44.8860 C   0  0  0  0  0  0  0  0  0  0  0  0
   21.9460  -25.3750   45.1610 O   0  0  0  0  0  0  0  0  0  0  0  0
   22.3860  -26.3440   44.2970 C   0  0  0  0  0  0  0  0  0  0  0  0
   23.5960  -26.9670   44.6060 C   0  0  0  0  0  0  0  0  0  0  0  0
   24.1010  -27.9630   43.7670 C   0  0  0  0  0  0  0  0  0  0  0  0
   23.3950  -28.3360   42.6210 C   0  0  0  0  0  0  0  0  0  0  0  0
   22.1880  -27.7140   42.3150 C   0  0  0  0  0  0  0  0  0  0  0  0
   21.5500  -28.1290   41.1790 O   0  0  0  0  0  0  0  0  0  0  0  0
   21.6840  -26.7160   43.1550 C   0  0  0  0  0  0  0  0  0  0  0  0
   20.4190  -26.0370   42.8700 C   0  0  0  0  0  0  0  0  0  0  0  0
   19.7380  -26.3140   41.8850 O   0  0  0  0  0  0  0  0  0  0  0  0
   19.9770  -24.9880   43.8180 C   0  0  0  0  0  0  0  0  0  0  0  0
   18.7740  -24.3620   43.5460 O   0  0  0  0  0  0  0  0  0  0  0  0
   21.3940  -22.9840   46.5920 C   0  0  0  0  0  0  0  0  0  0  0  0
   21.0660  -22.0340   47.5770 C   0  0  0  0  0  0  0  0  0  0  0  0
   22.0550  -21.2950   48.2660 N   0  0  0  0  0  0  0  0  0  0  0  0
   22.6550  -20.2480   47.4220 C   0  0  0  0  0  0  0  0  0  0  0  0
   23.5350  -19.3500   48.2920 C   0  0  0  0  0  0  0  0  0  0  0  0
   24.5860  -20.1670   49.0430 C   0  0  0  0  0  0  0  0  0  0  0  0
   23.9340  -21.3050   49.8280 C   0  0  0  0  0  0  0  0  0  0  0  0
   23.0450  -22.1600   48.9250 C   0  0  0  0  0  0  0  0  0  0  0  0
   19.4794  -21.2307   49.9288 H   0  0  0  0  0  0  0  0  0  0  0  0
   19.9187  -19.8961   48.8096 H   0  0  0  0  0  0  0  0  0  0  0  0
   18.2476  -20.5549   48.8096 H   0  0  0  0  0  0  0  0  0  0  0  0
   17.6592  -22.3672   47.4459 H   0  0  0  0  0  0  0  0  0  0  0  0
   18.2735  -24.0374   45.7136 H   0  0  0  0  0  0  0  0  0  0  0  0
   24.1513  -26.6740   45.5092 H   0  0  0  0  0  0  0  0  0  0  0  0
   25.0552  -28.4539   44.0089 H   0  0  0  0  0  0  0  0  0  0  0  0
   23.7926  -29.1208   41.9607 H   0  0  0  0  0  0  0  0  0  0  0  0
   21.2680  -27.5010   40.5450 H   0  0  0  0  0  0  0  0  0  0  0  0
   18.1890  -24.1490   44.2450 H   0  0  0  0  0  0  0  0  0  0  0  0
   22.4526  -23.1668   46.3554 H   0  0  0  0  0  0  0  0  0  0  0  0
   23.2672  -20.7140   46.6358 H   0  0  0  0  0  0  0  0  0  0  0  0
   21.8608  -19.6482   46.9535 H   0  0  0  0  0  0  0  0  0  0  0  0
   24.0430  -18.6151   47.6503 H   0  0  0  0  0  0  0  0  0  0  0  0
   22.8948  -18.8438   49.0295 H   0  0  0  0  0  0  0  0  0  0  0  0
   25.2978  -20.5905   48.3191 H   0  0  0  0  0  0  0  0  0  0  0  0
   25.1060  -19.5047   49.7508 H   0  0  0  0  0  0  0  0  0  0  0  0
   24.7213  -21.9394   50.2612 H   0  0  0  0  0  0  0  0  0  0  0  0
   23.3085  -20.8683   50.6205 H   0  0  0  0  0  0  0  0  0  0  0  0
   23.6637  -22.6580   48.1639 H   0  0  0  0  0  0  0  0  0  0  0  0
   22.5287  -22.9220   49.5274 H   0  0  0  0  0  0  0  0  0  0  0  0
  1  2  1  0
  2  3  2  0
  3  4  1  0
  4  5  2  0
  5  6  1  0
  6  7  1  0
  7  8  1  0
  8  9  2  0
  9 10  1  0
 10 11  2  0
 11 12  1  0
 12 13  1  0
 12 14  2  0
 14 15  1  0
 15 16  2  0
 15 17  1  0
 17 18  1  0
  5 19  1  0
 19 20  2  0
 20 21  1  0
 21 22  1  0
 22 23  1  0
 23 24  1  0
 24 25  1  0
 25 26  1  0
 20  2  1  0
 26 21  1  0
 17  6  2  0
 14  8  1  0
  1 27  1  0
  1 28  1  0
  1 29  1  0
  3 30  1  0
  4 31  1  0
  9 32  1  0
 10 33  1  0
 11 34  1  0
 13 35  1  0
 18 36  1  0
 19 37  1  0
 22 38  1  0
 22 39  1  0
 23 40  1  0
 23 41  1  0
 24 42  1  0
 24 43  1  0
 25 44  1  0
 25 45  1  0
 26 46  1  0
 26 47  1  0
M  END
>  <meeko>  (5) 
{"is_sidechain": [false], "free_energy": -7.492, "intermolecular_energy": -8.795, "internal_energy": -0.287}

$$$$
cand_006_out
     RDKit          3D

 47 50  0  0  0  0  0  0  0  0999 V2000
   19.3110  -33.9470   38.0790 C   0  0  0  0  0  0  0  0  0  0  0  0
   19.3400  -32.4430   38.1000 C   0  0  0  0  0  0  0  0  0  0  0  0
   18.9890  -31.7570   39.2710 C   0  0  0  0  0  0  0  0  0  0  0  0
   19.0120  -30.3630   39.3130 C   0  0  0  0  0  0  0  0  0  0  0  0
   19.3930  -29.6200   38.1900 C   0  0  0  0  0  0  0  0  0  0  0  0
   19.3870  -28.1430   38.2480 C   0  0  0  0  0  0  0  0  0  0  0  0
   18.4780  -27.5710   37.3650 O   0  0  0  0  0  0  0  0  0  0  0  0
   18.3680  -26.2050   37.3160 C   0  0  0  0  0  0  0  0  0  0  0  0
   17.4540  -25.6750   36.4040 C   0  0  0  0  0  0  0  0  0  0  0  0
   17.2930  -24.2920   36.3040 C   0  0  0  0  0  0  0  0  0  0  0  0
   18.0440  -23.4390   37.1160 C   0  0  0  0  0  0  0  0  0  0  0  0
   18.9550  -23.9700   38.0250 C   0  0  0  0  0  0  0  0  0  0  0  0
   19.6570  -23.0790   38.7890 O   0  0  0  0  0  0  0  0  0  0  0  0
   19.1170  -25.3560   38.1230 C   0  0  0  0  0  0  0  0  0  0  0  0
   20.0640  -25.9550   39.0650 C   0  0  0  0  0  0  0  0  0  0  0  0
   20.7560  -25.2720   39.8180 O   0  0  0  0  0  0  0  0  0  0  0  0
   20.1660  -27.4330   39.0860 C   0  0  0  0  0  0  0  0  0  0  0  0
   21.0540  -27.9880   39.9890 O   0  0  0  0  0  0  0  0  0  0  0  0
   19.7340  -30.3100   37.0170 C   0  0  0  0  0  0  0  0  0  0  0  0
   19.7190  -31.7150   36.9550 C   0  0  0  0  0  0  0  0  0  0  0  0
   20.0730  -32.4190   35.7800 N   0  0  0  0  0  0  0  0  0  0  0  0
   20.2520  -31.5210   34.6270 C   0  0  0  0  0  0  0  0  0  0  0  0
   20.8540  -32.3140   33.4670 C   0  0  0  0  0  0  0  0  0  0  0  0
   19.9980  -33.5350   33.1290 C   0  0  0  0  0  0  0  0  0  0  0  0
   19.7520  -34.3900   34.3720 C   0  0  0  0  0  0  0  0  0  0  0  0
   19.1730  -33.5520   35.5120 C   0  0  0  0  0  0  0  0  0  0  0  0
   19.3037  -34.3280   39.1109 H   0  0  0  0  0  0  0  0  0  0  0  0
   18.4061  -34.2890   37.5554 H   0  0  0  0  0  0  0  0  0  0  0  0
   20.2021  -34.3236   37.5554 H   0  0  0  0  0  0  0  0  0  0  0  0
   18.6924  -32.3238   40.1659 H   0  0  0  0  0  0  0  0  0  0  0  0
   18.7275  -29.8419   40.2391 H   0  0  0  0  0  0  0  0  0  0  0  0
   16.8614  -26.3461   35.7650 H   0  0  0  0  0  0  0  0  0  0  0  0
   16.5737  -23.8734   35.5847 H   0  0  0  0  0  0  0  0  0  0  0  0
   17.9158  -22.3493   37.0374 H   0  0  0  0  0  0  0  0  0  0  0  0
   20.5910  -23.1300   38.8290 H   0  0  0  0  0  0  0  0  0  0  0  0
   20.7490  -28.2860   40.8230 H   0  0  0  0  0  0  0  0  0  0  0  0
   20.0205  -29.7373   36.1226 H   0  0  0  0  0  0  0  0  0  0  0  0
   19.2776  -31.1091   34.3257 H   0  0  0  0  0  0  0  0  0  0  0  0
   20.9244  -30.6946   34.9006 H   0  0  0  0  0  0  0  0  0  0  0  0
   20.9167  -31.6636   32.5821 H   0  0  0  0  0  0  0  0  0  0  0  0
   21.8544  -32.6614   33.7646 H   0  0  0  0  0  0  0  0  0  0  0  0
   19.0313  -33.1970   32.7273 H   0  0  0  0  0  0  0  0  0  0  0  0
   20.5322  -34.1433   32.3842 H   0  0  0  0  0  0  0  0  0  0  0  0
   19.0434  -35.1931   34.1209 H   0  0  0  0  0  0  0  0  0  0  0  0
   20.7133  -34.8109   34.7018 H   0  0  0  0  0  0  0  0  0  0  0  0
   18.1805  -33.1745   35.2247 H   0  0  0  0  0  0  0  0  0  0  0  0
   19.0764  -34.1713   36.4160 H   0  0  0  0  0  0  0  0  0  0  0  0
  1  2  1  0
  2  3  2  0
  3  4  1  0
  4  5  2  0
  5  6  1  0
  6  7  1  0
  7  8  1  0
  8  9  2  0
  9 10  1  0
 10 11  2  0
 11 12  1  0
 12 13  1  0
 12 14  2  0
 14 15  1  0
 15 16  2  0
 15 17  1  0
 17 18  1  0
  5 19  1  0
 19 20  2  0
 20 21  1  0
 21 22  1  0
 22 23  1  0
 23 24  1  0
 24 25  1  0
 25 26  1  0
 20  2  1  0
 26 21  1  0
 17  6  2  0
 14  8  1  0
  1 27  1  0
  1 28  1  0
  1 29  1  0
  3 30  1  0
  4 31  1  0
  9 32  1  0
 10 33  1  0
 11 34  1  0
 13 35  1  0
 18 36  1  0
 19 37  1  0
 22 38  1  0
 22 39  1  0
 23 40  1  0
 23 41  1  0
 24 42  1  0
 24 43  1  0
 25 44  1  0
 25 45  1  0
 26 46  1  0
 26 47  1  0
M  END
>  <meeko>  (6) 
{"is_sidechain": [false], "free_energy": -7.378, "intermolecular_energy": -9.516, "internal_energy": 0.569}

$$$$
cand_006_out
     RDKit          3D

 47 50  0  0  0  0  0  0  0  0999 V2000
   19.3700  -24.3930   41.0610 C   0  0  0  0  0  0  0  0  0  0  0  0
   19.4400  -25.6310   40.2090 C   0  0  0  0  0  0  0  0  0  0  0  0
   19.9350  -26.8240   40.7540 C   0  0  0  0  0  0  0  0  0  0  0  0
   20.0050  -27.9840   39.9820 C   0  0  0  0  0  0  0  0  0  0  0  0
   19.5760  -27.9830   38.6500 C   0  0  0  0  0  0  0  0  0  0  0  0
   19.6810  -29.2160   37.8410 C   0  0  0  0  0  0  0  0  0  0  0  0
   19.9250  -28.9610   36.4960 O   0  0  0  0  0  0  0  0  0  0  0  0
   20.0470  -30.0190   35.6320 C   0  0  0  0  0  0  0  0  0  0  0  0
   20.2760  -29.7160   34.2890 C   0  0  0  0  0  0  0  0  0  0  0  0
   20.4110  -30.7460   33.3550 C   0  0  0  0  0  0  0  0  0  0  0  0
   20.3170  -32.0770   33.7650 C   0  0  0  0  0  0  0  0  0  0  0  0
   20.0890  -32.3770   35.1060 C   0  0  0  0  0  0  0  0  0  0  0  0
   20.0090  -33.7020   35.4370 O   0  0  0  0  0  0  0  0  0  0  0  0
   19.9530  -31.3450   36.0390 C   0  0  0  0  0  0  0  0  0  0  0  0
   19.7120  -31.6170   37.4570 C   0  0  0  0  0  0  0  0  0  0  0  0
   19.6250  -32.7620   37.8960 O   0  0  0  0  0  0  0  0  0  0  0  0
   19.5750  -30.4520   38.3630 C   0  0  0  0  0  0  0  0  0  0  0  0
   19.3610  -30.7220   39.7030 O   0  0  0  0  0  0  0  0  0  0  0  0
   19.0910  -26.7840   38.1050 C   0  0  0  0  0  0  0  0  0  0  0  0
   19.0110  -25.6050   38.8670 C   0  0  0  0  0  0  0  0  0  0  0  0
   18.5120  -24.3950   38.3300 N   0  0  0  0  0  0  0  0  0  0  0  0
   17.3390  -24.6140   37.4660 C   0  0  0  0  0  0  0  0  0  0  0  0
   16.7210  -23.2600   37.1140 C   0  0  0  0  0  0  0  0  0  0  0  0
   17.7520  -22.3310   36.4750 C   0  0  0  0  0  0  0  0  0  0  0  0
   18.9960  -22.2080   37.3540 C   0  0  0  0  0  0  0  0  0  0  0  0
   19.5650  -23.5840   37.7010 C   0  0  0  0  0  0  0  0  0  0  0  0
   19.3861  -24.6777   42.1234 H   0  0  0  0  0  0  0  0  0  0  0  0
   20.2331  -23.7474   40.8413 H   0  0  0  0  0  0  0  0  0  0  0  0
   18.4397  -23.8488   40.8413 H   0  0  0  0  0  0  0  0  0  0  0  0
   20.2716  -26.8457   41.8010 H   0  0  0  0  0  0  0  0  0  0  0  0
   20.4017  -28.9093   40.4251 H   0  0  0  0  0  0  0  0  0  0  0  0
   20.3501  -28.6670   33.9662 H   0  0  0  0  0  0  0  0  0  0  0  0
   20.5914  -30.5081   32.2963 H   0  0  0  0  0  0  0  0  0  0  0  0
   20.4229  -32.8883   33.0297 H   0  0  0  0  0  0  0  0  0  0  0  0
   19.1740  -34.1010   35.5720 H   0  0  0  0  0  0  0  0  0  0  0  0
   20.0810  -30.7210   40.3010 H   0  0  0  0  0  0  0  0  0  0  0  0
   18.7650  -26.7662   37.0546 H   0  0  0  0  0  0  0  0  0  0  0  0
   17.6502  -25.1282   36.5447 H   0  0  0  0  0  0  0  0  0  0  0  0
   16.5995  -25.2346   37.9932 H   0  0  0  0  0  0  0  0  0  0  0  0
   15.8926  -23.4166   36.4075 H   0  0  0  0  0  0  0  0  0  0  0  0
   16.3575  -22.7918   38.0406 H   0  0  0  0  0  0  0  0  0  0  0  0
   18.0427  -22.7362   35.4945 H   0  0  0  0  0  0  0  0  0  0  0  0
   17.3026  -21.3334   36.3613 H   0  0  0  0  0  0  0  0  0  0  0  0
   19.7604  -21.6289   36.8152 H   0  0  0  0  0  0  0  0  0  0  0  0
   18.7137  -21.7016   38.2888 H   0  0  0  0  0  0  0  0  0  0  0  0
   19.9138  -24.0805   36.7835 H   0  0  0  0  0  0  0  0  0  0  0  0
   20.4106  -23.4712   38.3954 H   0  0  0  0  0  0  0  0  0  0  0  0
  1  2  1  0
  2  3  2  0
  3  4  1  0
  4  5  2  0
  5  6  1  0
  6  7  1  0
  7  8  1  0
  8  9  2  0
  9 10  1  0
 10 11  2  0
 11 12  1  0
 12 13  1  0
 12 14  2  0
 14 15  1  0
 15 16  2  0
 15 17  1  0
 17 18  1  0
  5 19  1  0
 19 20  2  0
 20 21  1  0
 21 22  1  0
 22 23  1  0
 23 24  1  0
 24 25  1  0
 25 26  1  0
 20  2  1  0
 26 21  1  0
 17  6  2  0
 14  8  1  0
  1 27  1  0
  1 28  1  0
  1 29  1  0
  3 30  1  0
  4 31  1  0
  9 32  1  0
 10 33  1  0
 11 34  1  0
 13 35  1  0
 18 36  1  0
 19 37  1  0
 22 38  1  0
 22 39  1  0
 23 40  1  0
 23 41  1  0
 24 42  1  0
 24 43  1  0
 25 44  1  0
 25 45  1  0
 26 46  1  0
 26 47  1  0
M  END
>  <meeko>  (7) 
{"is_sidechain": [false], "free_energy": -7.368, "intermolecular_energy": -8.765, "internal_energy": -0.17}

$$$$
cand_006_out
     RDKit          3D

 47 50  0  0  0  0  0  0  0  0999 V2000
   19.6530  -24.8500   38.3810 C   0  0  0  0  0  0  0  0  0  0  0  0
   19.6540  -26.3090   38.0150 C   0  0  0  0  0  0  0  0  0  0  0  0
   19.3010  -26.7010   36.7170 C   0  0  0  0  0  0  0  0  0  0  0  0
   19.2990  -28.0490   36.3560 C   0  0  0  0  0  0  0  0  0  0  0  0
   19.6550  -29.0370   37.2810 C   0  0  0  0  0  0  0  0  0  0  0  0
   19.6230  -30.4610   36.8860 C   0  0  0  0  0  0  0  0  0  0  0  0
   20.0040  -30.6640   35.5640 O   0  0  0  0  0  0  0  0  0  0  0  0
   20.0200  -31.9420   35.0670 C   0  0  0  0  0  0  0  0  0  0  0  0
   20.3950  -32.0970   33.7310 C   0  0  0  0  0  0  0  0  0  0  0  0
   20.4330  -33.3720   33.1620 C   0  0  0  0  0  0  0  0  0  0  0  0
   20.0970  -34.4900   33.9280 C   0  0  0  0  0  0  0  0  0  0  0  0
   19.7240  -34.3330   35.2600 C   0  0  0  0  0  0  0  0  0  0  0  0
   19.4080  -35.4700   35.9520 O   0  0  0  0  0  0  0  0  0  0  0  0
   19.6840  -33.0560   35.8290 C   0  0  0  0  0  0  0  0  0  0  0  0
   19.2980  -32.8470   37.2250 C   0  0  0  0  0  0  0  0  0  0  0  0
   18.9950  -33.7810   37.9640 O   0  0  0  0  0  0  0  0  0  0  0  0
   19.2810  -31.4540   37.7290 C   0  0  0  0  0  0  0  0  0  0  0  0
   18.9260  -31.2690   39.0530 O   0  0  0  0  0  0  0  0  0  0  0  0
   19.9970  -28.6410   38.5830 C   0  0  0  0  0  0  0  0  0  0  0  0
   20.0070  -27.2870   38.9650 C   0  0  0  0  0  0  0  0  0  0  0  0
   20.3630  -26.8790   40.2720 N   0  0  0  0  0  0  0  0  0  0  0  0
   21.3890  -27.7520   40.8670 C   0  0  0  0  0  0  0  0  0  0  0  0
   21.8860  -27.1210   42.1680 C   0  0  0  0  0  0  0  0  0  0  0  0
   20.7280  -26.8440   43.1260 C   0  0  0  0  0  0  0  0  0  0  0  0
   19.6380  -26.0200   42.4420 C   0  0  0  0  0  0  0  0  0  0  0  0
   19.1890  -26.6750   41.1350 C   0  0  0  0  0  0  0  0  0  0  0  0
   19.6529  -24.7467   39.4761 H   0  0  0  0  0  0  0  0  0  0  0  0
   20.5508  -24.3676   37.9673 H   0  0  0  0  0  0  0  0  0  0  0  0
   18.7545  -24.3688   37.9673 H   0  0  0  0  0  0  0  0  0  0  0  0
   19.0226  -25.9383   35.9748 H   0  0  0  0  0  0  0  0  0  0  0  0
   19.0146  -28.3381   35.3335 H   0  0  0  0  0  0  0  0  0  0  0  0
   20.6601  -31.2163   33.1275 H   0  0  0  0  0  0  0  0  0  0  0  0
   20.7279  -33.4955   32.1095 H   0  0  0  0  0  0  0  0  0  0  0  0
   20.1270  -35.4939   33.4794 H   0  0  0  0  0  0  0  0  0  0  0  0
   20.0770  -35.9440   36.4030 H   0  0  0  0  0  0  0  0  0  0  0  0
   18.9400  -31.9940   39.6460 H   0  0  0  0  0  0  0  0  0  0  0  0
   20.2641  -29.4089   39.3240 H   0  0  0  0  0  0  0  0  0  0  0  0
   20.9547  -28.7402   41.0788 H   0  0  0  0  0  0  0  0  0  0  0  0
   22.2288  -27.8694   40.1664 H   0  0  0  0  0  0  0  0  0  0  0  0
   22.5954  -27.8084   42.6520 H   0  0  0  0  0  0  0  0  0  0  0  0
   22.3746  -26.1654   41.9270 H   0  0  0  0  0  0  0  0  0  0  0  0
   20.3000  -27.8009   43.4594 H   0  0  0  0  0  0  0  0  0  0  0  0
   21.1118  -26.2740   43.9849 H   0  0  0  0  0  0  0  0  0  0  0  0
   18.7737  -25.9370   43.1174 H   0  0  0  0  0  0  0  0  0  0  0  0
   20.0462  -25.0250   42.2111 H   0  0  0  0  0  0  0  0  0  0  0  0
   18.7179  -27.6451   41.3517 H   0  0  0  0  0  0  0  0  0  0  0  0
   18.4620  -26.0258   40.6252 H   0  0  0  0  0  0  0  0  0  0  0  0
  1  2  1  0
  2  3  2  0
  3  4  1  0
  4  5  2  0
  5  6  1  0
  6  7  1  0
  7  8  1  0
  8  9  2  0
  9 10  1  0
 10 11  2  0
 11 12  1  0
 12 13  1  0
 12 14  2  0
 14 15  1  0
 15 16  2  0
 15 17  1  0
 17 18  1  0
  5 19  1  0
 19 20  2  0
 20 21  1  0
 21 22  1  0
 22 23  1  0
 23 24  1  0
 24 25  1  0
 25 26  1  0
 20  2  1  0
 26 21  1  0
 17  6  2  0
 14  8  1  0
  1 27  1  0
  1 28  1  0
  1 29  1  0
  3 30  1  0
  4 31  1  0
  9 32  1  0
 10 33  1  0
 11 34  1  0
 13 35  1  0
 18 36  1  0
 19 37  1  0
 22 38  1  0
 22 39  1  0
 23 40  1  0
 23 41  1  0
 24 42  1  0
 24 43  1  0
 25 44  1  0
 25 45  1  0
 26 46  1  0
 26 47  1  0
M  END
>  <meeko>  (8) 
{"is_sidechain": [false], "free_energy": -7.276, "intermolecular_energy": -8.688, "internal_energy": -0.139}

$$$$
cand_006_out
     RDKit          3D

 47 50  0  0  0  0  0  0  0  0999 V2000
   17.9130  -21.2020   47.9430 C   0  0  0  0  0  0  0  0  0  0  0  0
   18.3170  -21.8870   46.6660 C   0  0  0  0  0  0  0  0  0  0  0  0
   17.5690  -21.6780   45.4990 C   0  0  0  0  0  0  0  0  0  0  0  0
   17.9270  -22.3010   44.3030 C   0  0  0  0  0  0  0  0  0  0  0  0
   19.0450  -23.1410   44.2420 C   0  0  0  0  0  0  0  0  0  0  0  0
   19.3940  -23.8110   42.9710 C   0  0  0  0  0  0  0  0  0  0  0  0
   19.7250  -25.1510   43.1390 O   0  0  0  0  0  0  0  0  0  0  0  0
   20.0680  -25.8940   42.0390 C   0  0  0  0  0  0  0  0  0  0  0  0
   20.4080  -27.2300   42.2580 C   0  0  0  0  0  0  0  0  0  0  0  0
   20.7670  -28.0420   41.1800 C   0  0  0  0  0  0  0  0  0  0  0  0
   20.7850  -27.5190   39.8850 C   0  0  0  0  0  0  0  0  0  0  0  0
   20.4460  -26.1860   39.6700 C   0  0  0  0  0  0  0  0  0  0  0  0
   20.4850  -25.7400   38.3780 O   0  0  0  0  0  0  0  0  0  0  0  0
   20.0890  -25.3730   40.7500 C   0  0  0  0  0  0  0  0  0  0  0  0
   19.7250  -23.9670   40.5670 C   0  0  0  0  0  0  0  0  0  0  0  0
   19.7110  -23.4360   39.4580 O   0  0  0  0  0  0  0  0  0  0  0  0
   19.3690  -23.1900   41.7770 C   0  0  0  0  0  0  0  0  0  0  0  0
   19.0150  -21.8660   41.5910 O   0  0  0  0  0  0  0  0  0  0  0  0
   19.7850  -23.3550   45.4140 C   0  0  0  0  0  0  0  0  0  0  0  0
   19.4410  -22.7350   46.6290 C   0  0  0  0  0  0  0  0  0  0  0  0
   20.1880  -22.9350   47.8130 N   0  0  0  0  0  0  0  0  0  0  0  0
   21.5970  -22.5350   47.6550 C   0  0  0  0  0  0  0  0  0  0  0  0
   22.2780  -22.5590   49.0240 C   0  0  0  0  0  0  0  0  0  0  0  0
   22.1310  -23.9270   49.6900 C   0  0  0  0  0  0  0  0  0  0  0  0
   20.6640  -24.3530   49.7460 C   0  0  0  0  0  0  0  0  0  0  0  0
   20.0180  -24.2900   48.3620 C   0  0  0  0  0  0  0  0  0  0  0  0
   18.2618  -21.7933   48.8025 H   0  0  0  0  0  0  0  0  0  0  0  0
   18.3645  -20.1996   47.9801 H   0  0  0  0  0  0  0  0  0  0  0  0
   16.8173  -21.1122   47.9801 H   0  0  0  0  0  0  0  0  0  0  0  0
   16.6909  -21.0161   45.5265 H   0  0  0  0  0  0  0  0  0  0  0  0
   17.3244  -22.1303   43.3987 H   0  0  0  0  0  0  0  0  0  0  0  0
   20.3932  -27.6424   43.2777 H   0  0  0  0  0  0  0  0  0  0  0  0
   21.0359  -29.0948   41.3510 H   0  0  0  0  0  0  0  0  0  0  0  0
   21.0666  -28.1595   39.0362 H   0  0  0  0  0  0  0  0  0  0  0  0
   19.9500  -25.0180   38.1150 H   0  0  0  0  0  0  0  0  0  0  0  0
   19.6110  -21.1840   41.8290 H   0  0  0  0  0  0  0  0  0  0  0  0
   20.6569  -24.0249   45.3823 H   0  0  0  0  0  0  0  0  0  0  0  0
   22.1058  -23.2367   46.9777 H   0  0  0  0  0  0  0  0  0  0  0  0
   21.6502  -21.5213   47.2312 H   0  0  0  0  0  0  0  0  0  0  0  0
   23.3474  -22.3348   48.8969 H   0  0  0  0  0  0  0  0  0  0  0  0
   21.7976  -21.8056   49.6655 H   0  0  0  0  0  0  0  0  0  0  0  0
   22.7001  -24.6711   49.1134 H   0  0  0  0  0  0  0  0  0  0  0  0
   22.5165  -23.8600   50.7181 H   0  0  0  0  0  0  0  0  0  0  0  0
   20.6038  -25.3844   50.1237 H   0  0  0  0  0  0  0  0  0  0  0  0
   20.1260  -23.6640   50.4137 H   0  0  0  0  0  0  0  0  0  0  0  0
   20.5010  -25.0205   47.6964 H   0  0  0  0  0  0  0  0  0  0  0  0
   18.9466  -24.5261   48.4418 H   0  0  0  0  0  0  0  0  0  0  0  0
  1  2  1  0
  2  3  2  0
  3  4  1  0
  4  5  2  0
  5  6  1  0
  6  7  1  0
  7  8  1  0
  8  9  2  0
  9 10  1  0
 10 11  2  0
 11 12  1  0
 12 13  1  0
 12 14  2  0
 14 15  1  0
 15 16  2  0
 15 17  1  0
 17 18  1  0
  5 19  1  0
 19 20  2  0
 20 21  1  0
 21 22  1  0
 22 23  1  0
 23 24  1  0
 24 25  1  0
 25 26  1  0
 20  2  1  0
 26 21  1  0
 17  6  2  0
 14  8  1  0
  1 27  1  0
  1 28  1  0
  1 29  1  0
  3 30  1  0
  4 31  1  0
  9 32  1  0
 10 33  1  0
 11 34  1  0
 13 35  1  0
 18 36  1  0
 19 37  1  0
 22 38  1  0
 22 39  1  0
 23 40  1  0
 23 41  1  0
 24 42  1  0
 24 43  1  0
 25 44  1  0
 25 45  1  0
 26 46  1  0
 26 47  1  0
M  END
>  <meeko>  (9) 
{"is_sidechain": [false], "free_energy": -7.145, "intermolecular_energy": -8.257, "internal_energy": -0.417}

$$$$
