cand_031_out
     RDKit          3D

 36 38  0  0  0  0  0  0  0  0999 V2000
   22.2540  -27.6410   41.8950 C   0  0  0  0  0  0  0  0  0  0  0  0
   21.0070  -27.1570   41.8550 C   0  0  0  0  0  0  0  0  0  0  0  0
   20.0710  -27.4190   40.7510 C   0  0  0  0  0  0  0  0  0  0  0  0
   20.0940  -28.6690   40.1060 C   0  0  0  0  0  0  0  0  0  0  0  0
   19.2450  -28.9560   39.0260 C   0  0  0  0  0  0  0  0  0  0  0  0
   19.2820  -30.2940   38.3970 C   0  0  0  0  0  0  0  0  0  0  0  0
   18.8720  -31.3050   39.2580 O   0  0  0  0  0  0  0  0  0  0  0  0
   18.8590  -32.5990   38.8030 C   0  0  0  0  0  0  0  0  0  0  0  0
   18.4280  -33.5810   39.6950 C   0  0  0  0  0  0  0  0  0  0  0  0
   18.3920  -34.9180   39.2960 C   0  0  0  0  0  0  0  0  0  0  0  0
   18.7880  -35.2740   38.0050 C   0  0  0  0  0  0  0  0  0  0  0  0
   19.2180  -34.2920   37.1170 C   0  0  0  0  0  0  0  0  0  0  0  0
   19.5920  -34.7110   35.8690 O   0  0  0  0  0  0  0  0  0  0  0  0
   19.2530  -32.9540   37.5170 C   0  0  0  0  0  0  0  0  0  0  0  0
   19.6980  -31.8920   36.6130 C   0  0  0  0  0  0  0  0  0  0  0  0
   20.0690  -32.1260   35.4650 O   0  0  0  0  0  0  0  0  0  0  0  0
   19.6920  -30.5050   37.1330 C   0  0  0  0  0  0  0  0  0  0  0  0
   20.1280  -29.5110   36.2760 O   0  0  0  0  0  0  0  0  0  0  0  0
   18.3570  -27.9640   38.5980 C   0  0  0  0  0  0  0  0  0  0  0  0
   18.3290  -26.7150   39.2200 C   0  0  0  0  0  0  0  0  0  0  0  0
   19.1800  -26.4270   40.2980 C   0  0  0  0  0  0  0  0  0  0  0  0
   19.1160  -25.0650   40.9360 C   0  0  0  0  0  0  0  0  0  0  0  0
   22.9068  -27.4091   42.7494 H   0  0  0  0  0  0  0  0  0  0  0  0
   22.6262  -28.2707   41.0735 H   0  0  0  0  0  0  0  0  0  0  0  0
   20.6640  -26.5304   42.6915 H   0  0  0  0  0  0  0  0  0  0  0  0
   20.7949  -29.4407   40.4569 H   0  0  0  0  0  0  0  0  0  0  0  0
   18.1166  -33.3018   40.7124 H   0  0  0  0  0  0  0  0  0  0  0  0
   18.0513  -35.6922   39.9992 H   0  0  0  0  0  0  0  0  0  0  0  0
   18.7602  -36.3277   37.6906 H   0  0  0  0  0  0  0  0  0  0  0  0
   20.1990  -34.2050   35.3660 H   0  0  0  0  0  0  0  0  0  0  0  0
   19.5670  -29.2040   35.5910 H   0  0  0  0  0  0  0  0  0  0  0  0
   17.6729  -28.1705   37.7617 H   0  0  0  0  0  0  0  0  0  0  0  0
   17.6301  -25.9455   38.8602 H   0  0  0  0  0  0  0  0  0  0  0  0
   19.1210  -25.1723   42.0307 H   0  0  0  0  0  0  0  0  0  0  0  0
   19.9872  -24.4716   40.6217 H   0  0  0  0  0  0  0  0  0  0  0  0
   18.1929  -24.5559   40.6217 H   0  0  0  0  0  0  0  0  0  0  0  0
  1  2  2  0
  2  3  1  0
  3  4  2  0
  4  5  1  0
  5  6  1  0
  6  7  1  0
  7  8  1  0
  8  9  2  0
  9 10  1  0
 10 11  2  0
 11 12  1  0
 12 13  1  0
 12 14  2  0
 14 15  1  0
 15 16  2  0
 15 17  1  0
 17 18  1  0
  5 19  2  0
 19 20  1  0
 20 21  2  0
 21 22  1  0
 21  3  1  0
 17  6  2  0
 14  8  1  0
  1 23  1  0
  1 24  1  0
  2 25  1  0
  4 26  1  0
  9 27  1  0
 10 28  1  0
 11 29  1  0
 13 30  1  0
 18 31  1  0
 19 32  1  0
 20 33  1  0
 22 34  1  0
 22 35  1  0
 22 36  1  0
M  END
>  <meeko>  (1) 
{"is_sidechain": [false], "free_energy": -8.037, "intermolecular_energy": -9.447, "internal_energy": -0.404}

$$$$
cand_031_out
     RDKit          3D

 36 38  0  0  0  0  0  0  0  0999 V2000
   18.5450  -33.8220   39.6930 C   0  0  0  0  0  0  0  0  0  0  0  0
   18.9850  -33.6520   38.4400 C   0  0  0  0  0  0  0  0  0  0  0  0
   19.2880  -32.3360   37.8590 C   0  0  0  0  0  0  0  0  0  0  0  0
   19.1640  -31.1830   38.6560 C   0  0  0  0  0  0  0  0  0  0  0  0
   19.4080  -29.9010   38.1380 C   0  0  0  0  0  0  0  0  0  0  0  0
   19.2940  -28.7190   39.0200 C   0  0  0  0  0  0  0  0  0  0  0  0
   20.2200  -28.7280   40.0560 O   0  0  0  0  0  0  0  0  0  0  0  0
   20.2250  -27.6900   40.9520 C   0  0  0  0  0  0  0  0  0  0  0  0
   21.1790  -27.7320   41.9690 C   0  0  0  0  0  0  0  0  0  0  0  0
   21.2370  -26.7060   42.9140 C   0  0  0  0  0  0  0  0  0  0  0  0
   20.3410  -25.6380   42.8430 C   0  0  0  0  0  0  0  0  0  0  0  0
   19.3890  -25.5980   41.8280 C   0  0  0  0  0  0  0  0  0  0  0  0
   18.5420  -24.5230   41.8180 O   0  0  0  0  0  0  0  0  0  0  0  0
   19.3320  -26.6250   40.8820 C   0  0  0  0  0  0  0  0  0  0  0  0
   18.3470  -26.6200   39.7980 C   0  0  0  0  0  0  0  0  0  0  0  0
   17.5200  -25.7190   39.6730 O   0  0  0  0  0  0  0  0  0  0  0  0
   18.3750  -27.7520   38.8440 C   0  0  0  0  0  0  0  0  0  0  0  0
   17.4310  -27.7450   37.8330 O   0  0  0  0  0  0  0  0  0  0  0  0
   19.7900  -29.7870   36.7980 C   0  0  0  0  0  0  0  0  0  0  0  0
   19.9080  -30.9210   35.9920 C   0  0  0  0  0  0  0  0  0  0  0  0
   19.6600  -32.2020   36.5080 C   0  0  0  0  0  0  0  0  0  0  0  0
   19.7970  -33.3950   35.5990 C   0  0  0  0  0  0  0  0  0  0  0  0
   18.3358  -34.8340   40.0699 H   0  0  0  0  0  0  0  0  0  0  0  0
   18.3927  -32.9497   40.3456 H   0  0  0  0  0  0  0  0  0  0  0  0
   19.1273  -34.5440   37.8122 H   0  0  0  0  0  0  0  0  0  0  0  0
   18.8688  -31.2886   39.7104 H   0  0  0  0  0  0  0  0  0  0  0  0
   21.8853  -28.5733   42.0263 H   0  0  0  0  0  0  0  0  0  0  0  0
   21.9897  -26.7393   43.7155 H   0  0  0  0  0  0  0  0  0  0  0  0
   20.3870  -24.8296   43.5876 H   0  0  0  0  0  0  0  0  0  0  0  0
   17.7090  -24.5850   41.3930 H   0  0  0  0  0  0  0  0  0  0  0  0
   16.5330  -27.9280   38.0300 H   0  0  0  0  0  0  0  0  0  0  0  0
   19.9997  -28.7938   36.3743 H   0  0  0  0  0  0  0  0  0  0  0  0
   20.1996  -30.8085   34.9373 H   0  0  0  0  0  0  0  0  0  0  0  0
   19.9018  -34.3073   36.2046 H   0  0  0  0  0  0  0  0  0  0  0  0
   18.9024  -33.4770   34.9642 H   0  0  0  0  0  0  0  0  0  0  0  0
   20.6869  -33.2721   34.9642 H   0  0  0  0  0  0  0  0  0  0  0  0
  1  2  2  0
  2  3  1  0
  3  4  2  0
  4  5  1  0
  5  6  1  0
  6  7  1  0
  7  8  1  0
  8  9  2  0
  9 10  1  0
 10 11  2  0
 11 12  1  0
 12 13  1  0
 12 14  2  0
 14 15  1  0
 15 16  2  0
 15 17  1  0
 17 18  1  0
  5 19  2  0
 19 20  1  0
 20 21  2  0
 21 22  1  0
 21  3  1  0
 17  6  2  0
 14  8  1  0
  1 23  1  0
  1 24  1  0
  2 25  1  0
  4 26  1  0
  9 27  1  0
 10 28  1  0
 11 29  1  0
 13 30  1  0
 18 31  1  0
 19 32  1  0
 20 33  1  0
 22 34  1  0
 22 35  1  0
 22 36  1  0
M  END
>  <meeko>  (2) 
{"is_sidechain": [false], "free_energy": -7.663, "intermolecular_energy": -9.023, "internal_energy": -0.388}

$$$$
cand_031_out
     RDKit          3D

 36 38  0  0  0  0  0  0  0  0999 V2000
   20.4600  -30.0100   34.2540 C   0  0  0  0  0  0  0  0  0  0  0  0
   20.4560  -31.1340   34.9820 C   0  0  0  0  0  0  0  0  0  0  0  0
   19.9120  -31.2130   36.3470 C   0  0  0  0  0  0  0  0  0  0  0  0
   19.8170  -30.0440   37.1230 C   0  0  0  0  0  0  0  0  0  0  0  0
   19.3380  -30.0730   38.4420 C   0  0  0  0  0  0  0  0  0  0  0  0
   19.2270  -28.8150   39.2110 C   0  0  0  0  0  0  0  0  0  0  0  0
   20.1180  -28.7550   40.2770 O   0  0  0  0  0  0  0  0  0  0  0  0
   20.1210  -27.6410   41.0780 C   0  0  0  0  0  0  0  0  0  0  0  0
   21.0390  -27.6160   42.1270 C   0  0  0  0  0  0  0  0  0  0  0  0
   21.0930  -26.5120   42.9800 C   0  0  0  0  0  0  0  0  0  0  0  0
   20.2290  -25.4330   42.7840 C   0  0  0  0  0  0  0  0  0  0  0  0
   19.3130  -25.4600   41.7360 C   0  0  0  0  0  0  0  0  0  0  0  0
   18.4960  -24.3710   41.6020 O   0  0  0  0  0  0  0  0  0  0  0  0
   19.2590  -26.5650   40.8820 C   0  0  0  0  0  0  0  0  0  0  0  0
   18.3120  -26.6330   39.7690 C   0  0  0  0  0  0  0  0  0  0  0  0
   17.5140  -25.7270   39.5360 O   0  0  0  0  0  0  0  0  0  0  0  0
   18.3410  -27.8460   38.9190 C   0  0  0  0  0  0  0  0  0  0  0  0
   17.4320  -27.9060   37.8780 O   0  0  0  0  0  0  0  0  0  0  0  0
   18.9440  -31.3020   38.9790 C   0  0  0  0  0  0  0  0  0  0  0  0
   19.0430  -32.4730   38.2250 C   0  0  0  0  0  0  0  0  0  0  0  0
   19.5250  -32.4460   36.9080 C   0  0  0  0  0  0  0  0  0  0  0  0
   19.6150  -33.7340   36.1350 C   0  0  0  0  0  0  0  0  0  0  0  0
   20.8816  -30.0143   33.2380 H   0  0  0  0  0  0  0  0  0  0  0  0
   20.0417  -29.0825   34.6720 H   0  0  0  0  0  0  0  0  0  0  0  0
   20.8814  -32.0454   34.5366 H   0  0  0  0  0  0  0  0  0  0  0  0
   20.1257  -29.0832   36.6854 H   0  0  0  0  0  0  0  0  0  0  0  0
   21.7203  -28.4655   42.2825 H   0  0  0  0  0  0  0  0  0  0  0  0
   21.8173  -26.4923   43.8076 H   0  0  0  0  0  0  0  0  0  0  0  0
   20.2719  -24.5634   43.4562 H   0  0  0  0  0  0  0  0  0  0  0  0
   18.1680  -23.9340   42.3630 H   0  0  0  0  0  0  0  0  0  0  0  0
   17.5000  -27.3070   37.1610 H   0  0  0  0  0  0  0  0  0  0  0  0
   18.5521  -31.3470   40.0058 H   0  0  0  0  0  0  0  0  0  0  0  0
   18.7383  -33.4314   38.6706 H   0  0  0  0  0  0  0  0  0  0  0  0
   19.6741  -34.5793   36.8365 H   0  0  0  0  0  0  0  0  0  0  0  0
   18.7224  -33.8447   35.5017 H   0  0  0  0  0  0  0  0  0  0  0  0
   20.5143  -33.7195   35.5017 H   0  0  0  0  0  0  0  0  0  0  0  0
  1  2  2  0
  2  3  1  0
  3  4  2  0
  4  5  1  0
  5  6  1  0
  6  7  1  0
  7  8  1  0
  8  9  2  0
  9 10  1  0
 10 11  2  0
 11 12  1  0
 12 13  1  0
 12 14  2  0
 14 15  1  0
 15 16  2  0
 15 17  1  0
 17 18  1  0
  5 19  2  0
 19 20  1  0
 20 21  2  0
 21 22  1  0
 21  3  1  0
 17  6  2  0
 14  8  1  0
  1 23  1  0
  1 24  1  0
  2 25  1  0
  4 26  1  0
  9 27  1  0
 10 28  1  0
 11 29  1  0
 13 30  1  0
 18 31  1  0
 19 32  1  0
 20 33  1  0
 22 34  1  0
 22 35  1  0
 22 36  1  0
M  END
>  <meeko>  (3) 
{"is_sidechain": [false], "free_energy": -7.378, "intermolecular_energy": -8.689, "internal_energy": -0.387}

$$$$
cand_031_out
     RDKit          3D

 36 38  0  0  0  0  0  0  0  0999 V2000
   18.3320  -24.7860   36.7820 C   0  0  0  0  0  0  0  0  0  0  0  0
   18.0170  -25.2420   38.0010 C   0  0  0  0  0  0  0  0  0  0  0  0
   18.7850  -26.2840   38.6990 C   0  0  0  0  0  0  0  0  0  0  0  0
   18.7530  -27.6060   38.2190 C   0  0  0  0  0  0  0  0  0  0  0  0
   19.4410  -28.6420   38.8700 C   0  0  0  0  0  0  0  0  0  0  0  0
   19.4030  -30.0120   38.3140 C   0  0  0  0  0  0  0  0  0  0  0  0
   19.0320  -30.9650   39.2550 O   0  0  0  0  0  0  0  0  0  0  0  0
   18.9590  -32.2810   38.8730 C   0  0  0  0  0  0  0  0  0  0  0  0
   18.5700  -33.2030   39.8450 C   0  0  0  0  0  0  0  0  0  0  0  0
   18.4770  -34.5580   39.5230 C   0  0  0  0  0  0  0  0  0  0  0  0
   18.7720  -34.9910   38.2290 C   0  0  0  0  0  0  0  0  0  0  0  0
   19.1600  -34.0690   37.2600 C   0  0  0  0  0  0  0  0  0  0  0  0
   19.4350  -34.5630   36.0140 O   0  0  0  0  0  0  0  0  0  0  0  0
   19.2530  -32.7130   37.5840 C   0  0  0  0  0  0  0  0  0  0  0  0
   19.6570  -31.7120   36.5950 C   0  0  0  0  0  0  0  0  0  0  0  0
   19.9400  -32.0150   35.4380 O   0  0  0  0  0  0  0  0  0  0  0  0
   19.7180  -30.3000   37.0380 C   0  0  0  0  0  0  0  0  0  0  0  0
   20.1140  -29.3630   36.1010 O   0  0  0  0  0  0  0  0  0  0  0  0
   20.1760  -28.3330   40.0190 C   0  0  0  0  0  0  0  0  0  0  0  0
   20.2090  -27.0270   40.5130 C   0  0  0  0  0  0  0  0  0  0  0  0
   19.5190  -25.9920   39.8650 C   0  0  0  0  0  0  0  0  0  0  0  0
   19.5830  -24.6010   40.4370 C   0  0  0  0  0  0  0  0  0  0  0  0
   17.7177  -24.0041   36.3116 H   0  0  0  0  0  0  0  0  0  0  0  0
   19.2051  -25.1933   36.2511 H   0  0  0  0  0  0  0  0  0  0  0  0
   17.1382  -24.8151   38.5065 H   0  0  0  0  0  0  0  0  0  0  0  0
   18.1747  -27.8334   37.3113 H   0  0  0  0  0  0  0  0  0  0  0  0
   18.3367  -32.8624   40.8646 H   0  0  0  0  0  0  0  0  0  0  0  0
   18.1710  -35.2852   40.2895 H   0  0  0  0  0  0  0  0  0  0  0  0
   18.6981  -36.0588   37.9752 H   0  0  0  0  0  0  0  0  0  0  0  0
   20.2470  -34.3540   35.5950 H   0  0  0  0  0  0  0  0  0  0  0  0
   21.0100  -29.0900   36.0610 H   0  0  0  0  0  0  0  0  0  0  0  0
   20.7335  -29.1262   40.5387 H   0  0  0  0  0  0  0  0  0  0  0  0
   20.7848  -26.8068   41.4240 H   0  0  0  0  0  0  0  0  0  0  0  0
   19.5805  -24.6558   41.5356 H   0  0  0  0  0  0  0  0  0  0  0  0
   20.5048  -24.1066   40.0967 H   0  0  0  0  0  0  0  0  0  0  0  0
   18.7104  -24.0241   40.0967 H   0  0  0  0  0  0  0  0  0  0  0  0
  1  2  2  0
  2  3  1  0
  3  4  2  0
  4  5  1  0
  5  6  1  0
  6  7  1  0
  7  8  1  0
  8  9  2  0
  9 10  1  0
 10 11  2  0
 11 12  1  0
 12 13  1  0
 12 14  2  0
 14 15  1  0
 15 16  2  0
 15 17  1  0
 17 18  1  0
  5 19  2  0
 19 20  1  0
 20 21  2  0
 21 22  1  0
 21  3  1  0
 17  6  2  0
 14  8  1  0
  1 23  1  0
  1 24  1  0
  2 25  1  0
  4 26  1  0
  9 27  1  0
 10 28  1  0
 11 29  1  0
 13 30  1  0
 18 31  1  0
 19 32  1  0
 20 33  1  0
 22 34  1  0
 22 35  1  0
 22 36  1  0
M  END
>  <meeko>  (4) 
{"is_sidechain": [false], "free_energy": -7.244, "intermolecular_energy": -8.691, "internal_energy": -0.227}

$$$$
cand_031_out
     RDKit          3D

 36 38  0  0  0  0  0  0  0  0999 V2000
   19.3440  -23.5930   37.9240 C   0  0  0  0  0  0  0  0  0  0  0  0
   19.4660  -24.8100   37.3790 C   0  0  0  0  0  0  0  0  0  0  0  0
   19.5040  -26.0510   38.1680 C   0  0  0  0  0  0  0  0  0  0  0  0
   20.2920  -26.1070   39.3320 C   0  0  0  0  0  0  0  0  0  0  0  0
   20.3890  -27.2780   40.1000 C   0  0  0  0  0  0  0  0  0  0  0  0
   21.2050  -27.2840   41.3320 C   0  0  0  0  0  0  0  0  0  0  0  0
   22.1910  -28.2640   41.3220 O   0  0  0  0  0  0  0  0  0  0  0  0
   23.0220  -28.3820   42.4070 C   0  0  0  0  0  0  0  0  0  0  0  0
   24.0050  -29.3700   42.3480 C   0  0  0  0  0  0  0  0  0  0  0  0
   24.8830  -29.5430   43.4200 C   0  0  0  0  0  0  0  0  0  0  0  0
   24.7770  -28.7300   44.5500 C   0  0  0  0  0  0  0  0  0  0  0  0
   23.7940  -27.7450   44.6060 C   0  0  0  0  0  0  0  0  0  0  0  0
   23.7470  -26.9850   45.7430 O   0  0  0  0  0  0  0  0  0  0  0  0
   22.9170  -27.5720   43.5330 C   0  0  0  0  0  0  0  0  0  0  0  0
   21.8710  -26.5480   43.5520 C   0  0  0  0  0  0  0  0  0  0  0  0
   21.7090  -25.7990   44.5130 O   0  0  0  0  0  0  0  0  0  0  0  0
   20.9960  -26.4410   42.3610 C   0  0  0  0  0  0  0  0  0  0  0  0
   20.0020  -25.4810   42.3940 O   0  0  0  0  0  0  0  0  0  0  0  0
   19.6720  -28.4050   39.6860 C   0  0  0  0  0  0  0  0  0  0  0  0
   18.8930  -28.3680   38.5270 C   0  0  0  0  0  0  0  0  0  0  0  0
   18.7990  -27.1990   37.7570 C   0  0  0  0  0  0  0  0  0  0  0  0
   17.9500  -27.2080   36.5150 C   0  0  0  0  0  0  0  0  0  0  0  0
   19.3217  -22.7016   37.2798 H   0  0  0  0  0  0  0  0  0  0  0  0
   19.2661  -23.4846   39.0159 H   0  0  0  0  0  0  0  0  0  0  0  0
   19.5418  -24.8857   36.2842 H   0  0  0  0  0  0  0  0  0  0  0  0
   20.8460  -25.2108   39.6482 H   0  0  0  0  0  0  0  0  0  0  0  0
   24.0884  -30.0118   41.4585 H   0  0  0  0  0  0  0  0  0  0  0  0
   25.6593  -30.3210   43.3740 H   0  0  0  0  0  0  0  0  0  0  0  0
   25.4685  -28.8671   45.3944 H   0  0  0  0  0  0  0  0  0  0  0  0
   23.1230  -27.1820   46.4140 H   0  0  0  0  0  0  0  0  0  0  0  0
   20.0010  -24.7860   41.7660 H   0  0  0  0  0  0  0  0  0  0  0  0
   19.7219  -29.3301   40.2790 H   0  0  0  0  0  0  0  0  0  0  0  0
   18.3451  -29.2688   38.2134 H   0  0  0  0  0  0  0  0  0  0  0  0
   16.8870  -27.2193   36.7976 H   0  0  0  0  0  0  0  0  0  0  0  0
   18.1616  -26.3076   35.9197 H   0  0  0  0  0  0  0  0  0  0  0  0
   18.1807  -28.1038   35.9197 H   0  0  0  0  0  0  0  0  0  0  0  0
  1  2  2  0
  2  3  1  0
  3  4  2  0
  4  5  1  0
  5  6  1  0
  6  7  1  0
  7  8  1  0
  8  9  2  0
  9 10  1  0
 10 11  2  0
 11 12  1  0
 12 13  1  0
 12 14  2  0
 14 15  1  0
 15 16  2  0
 15 17  1  0
 17 18  1  0
  5 19  2  0
 19 20  1  0
 20 21  2  0
 21 22  1  0
 21  3  1  0
 17  6  2  0
 14  8  1  0
  1 23  1  0
  1 24  1  0
  2 25  1  0
  4 26  1  0
  9 27  1  0
 10 28  1  0
 11 29  1  0
 13 30  1  0
 18 31  1  0
 19 32  1  0
 20 33  1  0
 22 34  1  0
 22 35  1  0
 22 36  1  0
M  END
>  <meeko>  (5) 
{"is_sidechain": [false], "free_energy": -7.165, "intermolecular_energy": -8.541, "internal_energy": -0.285}

$$$$
cand_031_out
     RDKit          3D

 36 38  0  0  0  0  0  0  0  0999 V2000
   22.3110  -27.6440   41.9590 C   0  0  0  0  0  0  0  0  0  0  0  0
   21.0320  -27.2520   41.9930 C   0  0  0  0  0  0  0  0  0  0  0  0
   20.1240  -27.3490   40.8400 C   0  0  0  0  0  0  0  0  0  0  0  0
   20.2520  -28.4300   39.9480 C   0  0  0  0  0  0  0  0  0  0  0  0
   19.4330  -28.5490   38.8140 C   0  0  0  0  0  0  0  0  0  0  0  0
   19.5830  -29.7170   37.9190 C   0  0  0  0  0  0  0  0  0  0  0  0
   19.8650  -29.3580   36.6070 O   0  0  0  0  0  0  0  0  0  0  0  0
   20.0270  -30.3450   35.6680 C   0  0  0  0  0  0  0  0  0  0  0  0
   20.3220  -29.9410   34.3660 C   0  0  0  0  0  0  0  0  0  0  0  0
   20.4980  -30.8960   33.3630 C   0  0  0  0  0  0  0  0  0  0  0  0
   20.3790  -32.2550   33.6610 C   0  0  0  0  0  0  0  0  0  0  0  0
   20.0830  -32.6560   34.9620 C   0  0  0  0  0  0  0  0  0  0  0  0
   19.9800  -34.0020   35.1830 O   0  0  0  0  0  0  0  0  0  0  0  0
   19.9080  -31.7000   35.9650 C   0  0  0  0  0  0  0  0  0  0  0  0
   19.5970  -32.0790   37.3440 C   0  0  0  0  0  0  0  0  0  0  0  0
   19.4690  -33.2540   37.6840 O   0  0  0  0  0  0  0  0  0  0  0  0
   19.4370  -30.9890   38.3340 C   0  0  0  0  0  0  0  0  0  0  0  0
   19.1290  -31.3570   39.6310 O   0  0  0  0  0  0  0  0  0  0  0  0
   18.4670  -27.5640   38.5850 C   0  0  0  0  0  0  0  0  0  0  0  0
   18.3350  -26.4800   39.4550 C   0  0  0  0  0  0  0  0  0  0  0  0
   19.1550  -26.3590   40.5860 C   0  0  0  0  0  0  0  0  0  0  0  0
   18.9770  -25.1710   41.4940 C   0  0  0  0  0  0  0  0  0  0  0  0
   22.9404  -27.5457   42.8558 H   0  0  0  0  0  0  0  0  0  0  0  0
   22.7330  -28.0646   41.0343 H   0  0  0  0  0  0  0  0  0  0  0  0
   20.6392  -26.8355   42.9323 H   0  0  0  0  0  0  0  0  0  0  0  0
   21.0123  -29.2004   40.1441 H   0  0  0  0  0  0  0  0  0  0  0  0
   20.4159  -28.8708   34.1297 H   0  0  0  0  0  0  0  0  0  0  0  0
   20.7308  -30.5774   32.3362 H   0  0  0  0  0  0  0  0  0  0  0  0
   20.5186  -33.0071   32.8705 H   0  0  0  0  0  0  0  0  0  0  0  0
   20.5340  -34.5980   34.7200 H   0  0  0  0  0  0  0  0  0  0  0  0
   19.4310  -30.8370   40.3500 H   0  0  0  0  0  0  0  0  0  0  0  0
   17.8045  -27.6441   37.7106 H   0  0  0  0  0  0  0  0  0  0  0  0
   17.5768  -25.7098   39.2502 H   0  0  0  0  0  0  0  0  0  0  0  0
   19.0263  -25.5002   42.5424 H   0  0  0  0  0  0  0  0  0  0  0  0
   19.7756  -24.4394   41.3014 H   0  0  0  0  0  0  0  0  0  0  0  0
   17.9991  -24.7056   41.3014 H   0  0  0  0  0  0  0  0  0  0  0  0
  1  2  2  0
  2  3  1  0
  3  4  2  0
  4  5  1  0
  5  6  1  0
  6  7  1  0
  7  8  1  0
  8  9  2  0
  9 10  1  0
 10 11  2  0
 11 12  1  0
 12 13  1  0
 12 14  2  0
 14 15  1  0
 15 16  2  0
 15 17  1  0
 17 18  1  0
  5 19  2  0
 19 20  1  0
 20 21  2  0
 21 22  1  0
 21  3  1  0
 17  6  2  0
 14  8  1  0
  1 23  1  0
  1 24  1  0
  2 25  1  0
  4 26  1  0
  9 27  1  0
 10 28  1  0
 11 29  1  0
 13 30  1  0
 18 31  1  0
 19 32  1  0
 20 33  1  0
 22 34  1  0
 22 35  1  0
 22 36  1  0
M  END
>  <meeko>  (6) 
{"is_sidechain": [false], "free_energy": -7.106, "intermolecular_energy": -8.462, "internal_energy": -0.294}

$$$$
cand_031_out
     RDKit          3D

 36 38  0  0  0  0  0  0  0  0999 V2000
   22.8730  -28.0010   42.1620 C   0  0  0  0  0  0  0  0  0  0  0  0
   21.7540  -27.3530   42.5110 C   0  0  0  0  0  0  0  0  0  0  0  0
   20.6980  -26.9880   41.5550 C   0  0  0  0  0  0  0  0  0  0  0  0
   20.6880  -27.5760   40.2770 C   0  0  0  0  0  0  0  0  0  0  0  0
   19.7220  -27.2350   39.3180 C   0  0  0  0  0  0  0  0  0  0  0  0
   19.7310  -27.9000   37.9970 C   0  0  0  0  0  0  0  0  0  0  0  0
   19.8390  -29.2830   38.0910 O   0  0  0  0  0  0  0  0  0  0  0  0
   19.8610  -30.0270   36.9390 C   0  0  0  0  0  0  0  0  0  0  0  0
   19.9570  -31.4120   37.0790 C   0  0  0  0  0  0  0  0  0  0  0  0
   19.9860  -32.2270   35.9460 C   0  0  0  0  0  0  0  0  0  0  0  0
   19.9190  -31.6570   34.6730 C   0  0  0  0  0  0  0  0  0  0  0  0
   19.8240  -30.2750   34.5350 C   0  0  0  0  0  0  0  0  0  0  0  0
   19.7630  -29.7850   33.2590 O   0  0  0  0  0  0  0  0  0  0  0  0
   19.7950  -29.4600   35.6700 C   0  0  0  0  0  0  0  0  0  0  0  0
   19.6950  -28.0030   35.5690 C   0  0  0  0  0  0  0  0  0  0  0  0
   19.6390  -27.4270   34.4840 O   0  0  0  0  0  0  0  0  0  0  0  0
   19.6640  -27.2310   36.8320 C   0  0  0  0  0  0  0  0  0  0  0  0
   19.5840  -25.8540   36.7260 O   0  0  0  0  0  0  0  0  0  0  0  0
   18.7490  -26.2910   39.6610 C   0  0  0  0  0  0  0  0  0  0  0  0
   18.7520  -25.6910   40.9210 C   0  0  0  0  0  0  0  0  0  0  0  0
   19.7190  -26.0290   41.8800 C   0  0  0  0  0  0  0  0  0  0  0  0
   19.6830  -25.3530   43.2240 C   0  0  0  0  0  0  0  0  0  0  0  0
   23.6270  -28.2463   42.9244 H   0  0  0  0  0  0  0  0  0  0  0  0
   23.0380  -28.2879   41.1130 H   0  0  0  0  0  0  0  0  0  0  0  0
   21.6178  -27.0796   43.5678 H   0  0  0  0  0  0  0  0  0  0  0  0
   21.4562  -28.3213   40.0233 H   0  0  0  0  0  0  0  0  0  0  0  0
   20.0098  -31.8614   38.0816 H   0  0  0  0  0  0  0  0  0  0  0  0
   20.0617  -33.3189   36.0561 H   0  0  0  0  0  0  0  0  0  0  0  0
   19.9413  -32.2993   33.7803 H   0  0  0  0  0  0  0  0  0  0  0  0
   18.9910  -29.9110   32.7440 H   0  0  0  0  0  0  0  0  0  0  0  0
   20.2900  -25.3730   36.3410 H   0  0  0  0  0  0  0  0  0  0  0  0
   17.9733  -26.0186   38.9302 H   0  0  0  0  0  0  0  0  0  0  0  0
   17.9848  -24.9418   41.1661 H   0  0  0  0  0  0  0  0  0  0  0  0
   19.7235  -26.1132   44.0180 H   0  0  0  0  0  0  0  0  0  0  0  0
   20.5465  -24.6781   43.3182 H   0  0  0  0  0  0  0  0  0  0  0  0
   18.7527  -24.7736   43.3182 H   0  0  0  0  0  0  0  0  0  0  0  0
  1  2  2  0
  2  3  1  0
  3  4  2  0
  4  5  1  0
  5  6  1  0
  6  7  1  0
  7  8  1  0
  8  9  2  0
  9 10  1  0
 10 11  2  0
 11 12  1  0
 12 13  1  0
 12 14  2  0
 14 15  1  0
 15 16  2  0
 15 17  1  0
 17 18  1  0
  5 19  2  0
 19 20  1  0
 20 21  2  0
 21 22  1  0
 21  3  1  0
 17  6  2  0
 14  8  1  0
  1 23  1  0
  1 24  1  0
  2 25  1  0
  4 26  1  0
  9 27  1  0
 10 28  1  0
 11 29  1  0
 13 30  1  0
 18 31  1  0
 19 32  1  0
 20 33  1  0
 22 34  1  0
 22 35  1  0
 22 36  1  0
M  END
>  <meeko>  (7) 
{"is_sidechain": [false], "free_energy": -7.066, "intermolecular_energy": -8.463, "internal_energy": -0.245}

$$$$
cand_031_out
     RDKit          3D

 36 38  0  0  0  0  0  0  0  0999 V2000
   24.5500  -30.8550   42.6850 C   0  0  0  0  0  0  0  0  0  0  0  0
   24.5300  -29.5670   42.3180 C   0  0  0  0  0  0  0  0  0  0  0  0
   23.4620  -28.6320   42.7030 C   0  0  0  0  0  0  0  0  0  0  0  0
   22.5820  -28.1430   41.7200 C   0  0  0  0  0  0  0  0  0  0  0  0
   21.5700  -27.2220   42.0310 C   0  0  0  0  0  0  0  0  0  0  0  0
   20.6490  -26.7570   40.9710 C   0  0  0  0  0  0  0  0  0  0  0  0
   20.5220  -25.3730   40.9360 O   0  0  0  0  0  0  0  0  0  0  0  0
   19.6950  -24.8060   40.0000 C   0  0  0  0  0  0  0  0  0  0  0  0
   19.6070  -23.4140   39.9920 C   0  0  0  0  0  0  0  0  0  0  0  0
   18.7830  -22.7730   39.0650 C   0  0  0  0  0  0  0  0  0  0  0  0
   18.0450  -23.5240   38.1480 C   0  0  0  0  0  0  0  0  0  0  0  0
   18.1340  -24.9130   38.1580 C   0  0  0  0  0  0  0  0  0  0  0  0
   17.3850  -25.5860   37.2320 O   0  0  0  0  0  0  0  0  0  0  0  0
   18.9600  -25.5540   39.0860 C   0  0  0  0  0  0  0  0  0  0  0  0
   19.0820  -27.0120   39.1300 C   0  0  0  0  0  0  0  0  0  0  0  0
   18.4600  -27.7420   38.3600 O   0  0  0  0  0  0  0  0  0  0  0  0
   19.9900  -27.5920   40.1460 C   0  0  0  0  0  0  0  0  0  0  0  0
   20.0870  -28.9710   40.1890 O   0  0  0  0  0  0  0  0  0  0  0  0
   21.4420  -26.7970   43.3560 C   0  0  0  0  0  0  0  0  0  0  0  0
   22.3140  -27.2640   44.3420 C   0  0  0  0  0  0  0  0  0  0  0  0
   23.3290  -28.1820   44.0310 C   0  0  0  0  0  0  0  0  0  0  0  0
   24.2460  -28.6560   45.1270 C   0  0  0  0  0  0  0  0  0  0  0  0
   25.3774  -31.5053   42.3649 H   0  0  0  0  0  0  0  0  0  0  0  0
   23.7390  -31.2625   43.3065 H   0  0  0  0  0  0  0  0  0  0  0  0
   25.3551  -29.1890   41.6965 H   0  0  0  0  0  0  0  0  0  0  0  0
   22.6900  -28.4913   40.6822 H   0  0  0  0  0  0  0  0  0  0  0  0
   20.1864  -22.8217   40.7155 H   0  0  0  0  0  0  0  0  0  0  0  0
   18.7151  -21.6751   39.0570 H   0  0  0  0  0  0  0  0  0  0  0  0
   17.3944  -23.0188   37.4189 H   0  0  0  0  0  0  0  0  0  0  0  0
   16.4520  -25.6210   37.3190 H   0  0  0  0  0  0  0  0  0  0  0  0
   20.9140  -29.3870   40.0410 H   0  0  0  0  0  0  0  0  0  0  0  0
   20.6460  -26.0871   43.6253 H   0  0  0  0  0  0  0  0  0  0  0  0
   22.2037  -26.9073   45.3767 H   0  0  0  0  0  0  0  0  0  0  0  0
   23.7987  -28.4248   46.1050 H   0  0  0  0  0  0  0  0  0  0  0  0
   24.3922  -29.7426   45.0384 H   0  0  0  0  0  0  0  0  0  0  0  0
   25.2171  -28.1469   45.0384 H   0  0  0  0  0  0  0  0  0  0  0  0
  1  2  2  0
  2  3  1  0
  3  4  2  0
  4  5  1  0
  5  6  1  0
  6  7  1  0
  7  8  1  0
  8  9  2  0
  9 10  1  0
 10 11  2  0
 11 12  1  0
 12 13  1  0
 12 14  2  0
 14 15  1  0
 15 16  2  0
 15 17  1  0
 17 18  1  0
  5 19  2  0
 19 20  1  0
 20 21  2  0
 21 22  1  0
 21  3  1  0
 17  6  2  0
 14  8  1  0
  1 23  1  0
  1 24  1  0
  2 25  1  0
  4 26  1  0
  9 27  1  0
 10 28  1  0
 11 29  1  0
 13 30  1  0
 18 31  1  0
 19 32  1  0
 20 33  1  0
 22 34  1  0
 22 35  1  0
 22 36  1  0
M  END
>  <meeko>  (8) 
{"is_sidechain": [false], "free_energy": -7.03, "intermolecular_energy": -8.703, "internal_energy": 0.036}

$$$$
cand_031_out
     RDKit          3D

 36 38  0  0  0  0  0  0  0  0999 V2000
   22.2230  -25.3550   45.6110 C   0  0  0  0  0  0  0  0  0  0  0  0
   22.6210  -26.6080   45.3550 C   0  0  0  0  0  0  0  0  0  0  0  0
   22.6610  -27.1850   44.0030 C   0  0  0  0  0  0  0  0  0  0  0  0
   21.7250  -26.7620   43.0420 C   0  0  0  0  0  0  0  0  0  0  0  0
   21.7000  -27.3080   41.7490 C   0  0  0  0  0  0  0  0  0  0  0  0
   20.7170  -26.8130   40.7610 C   0  0  0  0  0  0  0  0  0  0  0  0
   20.6010  -25.4280   40.7640 O   0  0  0  0  0  0  0  0  0  0  0  0
   19.7210  -24.8330   39.8970 C   0  0  0  0  0  0  0  0  0  0  0  0
   19.6470  -23.4400   39.9240 C   0  0  0  0  0  0  0  0  0  0  0  0
   18.7700  -22.7720   39.0660 C   0  0  0  0  0  0  0  0  0  0  0  0
   17.9680  -23.4970   38.1820 C   0  0  0  0  0  0  0  0  0  0  0  0
   18.0440  -24.8870   38.1570 C   0  0  0  0  0  0  0  0  0  0  0  0
   17.2300  -25.5330   37.2680 O   0  0  0  0  0  0  0  0  0  0  0  0
   18.9220  -25.5540   39.0150 C   0  0  0  0  0  0  0  0  0  0  0  0
   19.0330  -27.0140   39.0200 C   0  0  0  0  0  0  0  0  0  0  0  0
   18.3560  -27.7210   38.2770 O   0  0  0  0  0  0  0  0  0  0  0  0
   19.9980  -27.6240   39.9630 C   0  0  0  0  0  0  0  0  0  0  0  0
   20.0850  -29.0040   39.9700 O   0  0  0  0  0  0  0  0  0  0  0  0
   22.6410  -28.2900   41.4240 C   0  0  0  0  0  0  0  0  0  0  0  0
   23.5700  -28.7280   42.3700 C   0  0  0  0  0  0  0  0  0  0  0  0
   23.5930  -28.1850   43.6630 C   0  0  0  0  0  0  0  0  0  0  0  0
   24.6120  -28.6900   44.6500 C   0  0  0  0  0  0  0  0  0  0  0  0
   22.2154  -24.9808   46.6454 H   0  0  0  0  0  0  0  0  0  0  0  0
   21.9038  -24.7001   44.7869 H   0  0  0  0  0  0  0  0  0  0  0  0
   22.9343  -27.2384   46.2003 H   0  0  0  0  0  0  0  0  0  0  0  0
   20.9947  -25.9843   43.3102 H   0  0  0  0  0  0  0  0  0  0  0  0
   20.2785  -22.8684   40.6201 H   0  0  0  0  0  0  0  0  0  0  0  0
   18.7111  -21.6738   39.0867 H   0  0  0  0  0  0  0  0  0  0  0  0
   17.2774  -22.9708   37.5066 H   0  0  0  0  0  0  0  0  0  0  0  0
   17.0780  -25.1670   36.4190 H   0  0  0  0  0  0  0  0  0  0  0  0
   19.9360  -29.4780   40.7650 H   0  0  0  0  0  0  0  0  0  0  0  0
   22.6495  -28.7220   40.4124 H   0  0  0  0  0  0  0  0  0  0  0  0
   24.2940  -29.5099   42.0973 H   0  0  0  0  0  0  0  0  0  0  0  0
   24.2511  -28.5111   45.6736 H   0  0  0  0  0  0  0  0  0  0  0  0
   24.7658  -29.7686   44.4987 H   0  0  0  0  0  0  0  0  0  0  0  0
   25.5635  -28.1591   44.4987 H   0  0  0  0  0  0  0  0  0  0  0  0
  1  2  2  0
  2  3  1  0
  3  4  2  0
  4  5  1  0
  5  6  1  0
  6  7  1  0
  7  8  1  0
  8  9  2  0
  9 10  1  0
 10 11  2  0
 11 12  1  0
 12 13  1  0
 12 14  2  0
 14 15  1  0
 15 16  2  0
 15 17  1  0
 17 18  1  0
  5 19  2  0
 19 20  1  0
 20 21  2  0
 21 22  1  0
 21  3  1  0
 17  6  2  0
 14  8  1  0
  1 23  1  0
  1 24  1  0
  2 25  1  0
  4 26  1  0
  9 27  1  0
 10 28  1  0
 11 29  1  0
 13 30  1  0
 18 31  1  0
 19 32  1  0
 20 33  1  0
 22 34  1  0
 22 35  1  0
 22 36  1  0
M  END
>  <meeko>  (9) 
{"is_sidechain": [false], "free_energy": -6.824, "intermolecular_energy": -8.232, "internal_energy": -0.193}

$$$$
