cand_051_out
     RDKit          3D

 44 46  0  0  0  0  0  0  0  0999 V2000
   20.9810  -27.1560   41.9750 C   0  0  0  0  0  0  0  0  0  0  0  0
   20.0030  -27.4380   40.8680 C   0  0  0  0  0  0  0  0  0  0  0  0
   20.0660  -28.6830   40.2140 C   0  0  0  0  0  0  0  0  0  0  0  0
   19.1900  -29.0170   39.1690 C   0  0  0  0  0  0  0  0  0  0  0  0
   19.3100  -30.3270   38.4960 C   0  0  0  0  0  0  0  0  0  0  0  0
   18.9140  -31.3870   39.3040 O   0  0  0  0  0  0  0  0  0  0  0  0
   18.9760  -32.6630   38.8030 C   0  0  0  0  0  0  0  0  0  0  0  0
   18.5820  -33.6970   39.6530 C   0  0  0  0  0  0  0  0  0  0  0  0
   18.6180  -35.0190   39.2030 C   0  0  0  0  0  0  0  0  0  0  0  0
   19.0470  -35.3070   37.9060 C   0  0  0  0  0  0  0  0  0  0  0  0
   19.4380  -34.2720   37.0600 C   0  0  0  0  0  0  0  0  0  0  0  0
   19.8460  -34.6240   35.8020 O   0  0  0  0  0  0  0  0  0  0  0  0
   19.4030  -32.9490   37.5090 C   0  0  0  0  0  0  0  0  0  0  0  0
   19.8060  -31.8330   36.6530 C   0  0  0  0  0  0  0  0  0  0  0  0
   20.1870  -32.0050   35.4970 O   0  0  0  0  0  0  0  0  0  0  0  0
   19.7380  -30.4700   37.2280 C   0  0  0  0  0  0  0  0  0  0  0  0
   20.1080  -29.4220   36.4050 O   0  0  0  0  0  0  0  0  0  0  0  0
   18.2480  -28.0670   38.7670 C   0  0  0  0  0  0  0  0  0  0  0  0
   18.1730  -26.8260   39.4040 C   0  0  0  0  0  0  0  0  0  0  0  0
   19.0390  -26.4950   40.4590 C   0  0  0  0  0  0  0  0  0  0  0  0
   18.8960  -25.1310   41.1050 C   0  0  0  0  0  0  0  0  0  0  0  0
   19.8160  -24.0510   40.4990 C   0  0  0  0  0  0  0  0  0  0  0  0
   19.9900  -22.9010   41.4940 C   0  0  0  0  0  0  0  0  0  0  0  0
   19.2740  -23.5070   39.1750 C   0  0  0  0  0  0  0  0  0  0  0  0
   20.4859  -27.2988   42.9469 H   0  0  0  0  0  0  0  0  0  0  0  0
   21.8351  -27.8445   41.8939 H   0  0  0  0  0  0  0  0  0  0  0  0
   21.3374  -26.1185   41.8939 H   0  0  0  0  0  0  0  0  0  0  0  0
   20.8233  -29.4152   40.5308 H   0  0  0  0  0  0  0  0  0  0  0  0
   18.2438  -33.4717   40.6752 H   0  0  0  0  0  0  0  0  0  0  0  0
   18.3076  -35.8350   39.8721 H   0  0  0  0  0  0  0  0  0  0  0  0
   19.0761  -36.3485   37.5532 H   0  0  0  0  0  0  0  0  0  0  0  0
   20.6180  -34.2400   35.4350 H   0  0  0  0  0  0  0  0  0  0  0  0
   19.7300  -29.3400   35.5520 H   0  0  0  0  0  0  0  0  0  0  0  0
   17.5590  -28.2983   37.9413 H   0  0  0  0  0  0  0  0  0  0  0  0
   17.4214  -26.0942   39.0730 H   0  0  0  0  0  0  0  0  0  0  0  0
   17.8529  -24.8013   40.9900 H   0  0  0  0  0  0  0  0  0  0  0  0
   19.1900  -25.2452   42.1588 H   0  0  0  0  0  0  0  0  0  0  0  0
   20.7877  -24.5233   40.2925 H   0  0  0  0  0  0  0  0  0  0  0  0
   19.9308  -23.2921   42.5204 H   0  0  0  0  0  0  0  0  0  0  0  0
   20.9701  -22.4266   41.3383 H   0  0  0  0  0  0  0  0  0  0  0  0
   19.1941  -22.1579   41.3383 H   0  0  0  0  0  0  0  0  0  0  0  0
   18.5110  -22.7412   39.3782 H   0  0  0  0  0  0  0  0  0  0  0  0
   20.0970  -23.0605   38.5977 H   0  0  0  0  0  0  0  0  0  0  0  0
   18.8245  -24.3284   38.5977 H   0  0  0  0  0  0  0  0  0  0  0  0
  1  2  1  0
  2  3  2  0
  3  4  1  0
  4  5  1  0
  5  6  1  0
  6  7  1  0
  7  8  2  0
  8  9  1  0
  9 10  2  0
 10 11  1  0
 11 12  1  0
 11 13  2  0
 13 14  1  0
 14 15  2  0
 14 16  1  0
 16 17  1  0
  4 18  2  0
 18 19  1  0
 19 20  2  0
 20 21  1  0
 21 22  1  0
 22 23  1  0
 22 24  1  0
 20  2  1  0
 16  5  2  0
 13  7  1  0
  1 25  1  0
  1 26  1  0
  1 27  1  0
  3 28  1  0
  8 29  1  0
  9 30  1  0
 10 31  1  0
 12 32  1  0
 17 33  1  0
 18 34  1  0
 19 35  1  0
 21 36  1  0
 21 37  1  0
 22 38  1  0
 23 39  1  0
 23 40  1  0
 23 41  1  0
 24 42  1  0
 24 43  1  0
 24 44  1  0
M  END
>  <meeko>  (1) 
{"is_sidechain": [false], "free_energy": -7.902, "intermolecular_energy": -9.75, "internal_energy": -0.557}

$$$$
cand_051_out
     RDKit          3D

 44 46  0  0  0  0  0  0  0  0999 V2000
   19.5300  -24.6530   37.4650 C   0  0  0  0  0  0  0  0  0  0  0  0
   19.5720  -25.9670   38.1940 C   0  0  0  0  0  0  0  0  0  0  0  0
   20.3090  -26.0510   39.3910 C   0  0  0  0  0  0  0  0  0  0  0  0
   20.3980  -27.2450   40.1240 C   0  0  0  0  0  0  0  0  0  0  0  0
   21.2040  -27.2910   41.3630 C   0  0  0  0  0  0  0  0  0  0  0  0
   22.2040  -28.2560   41.3180 O   0  0  0  0  0  0  0  0  0  0  0  0
   23.0290  -28.4070   42.4050 C   0  0  0  0  0  0  0  0  0  0  0  0
   24.0100  -29.3960   42.3230 C   0  0  0  0  0  0  0  0  0  0  0  0
   24.8840  -29.6000   43.3930 C   0  0  0  0  0  0  0  0  0  0  0  0
   24.7770  -28.8170   44.5440 C   0  0  0  0  0  0  0  0  0  0  0  0
   23.7970  -27.8300   44.6220 C   0  0  0  0  0  0  0  0  0  0  0  0
   23.7490  -27.0980   45.7770 O   0  0  0  0  0  0  0  0  0  0  0  0
   22.9220  -27.6260   43.5520 C   0  0  0  0  0  0  0  0  0  0  0  0
   21.8800  -26.6010   43.5930 C   0  0  0  0  0  0  0  0  0  0  0  0
   21.7270  -25.8660   44.5670 O   0  0  0  0  0  0  0  0  0  0  0  0
   20.9990  -26.4700   42.4090 C   0  0  0  0  0  0  0  0  0  0  0  0
   20.0260  -25.4890   42.4530 O   0  0  0  0  0  0  0  0  0  0  0  0
   19.7460  -28.3760   39.6280 C   0  0  0  0  0  0  0  0  0  0  0  0
   19.0110  -28.3110   38.4420 C   0  0  0  0  0  0  0  0  0  0  0  0
   18.9090  -27.1140   37.7130 C   0  0  0  0  0  0  0  0  0  0  0  0
   18.0920  -27.1180   36.4360 C   0  0  0  0  0  0  0  0  0  0  0  0
   18.9390  -27.1960   35.1500 C   0  0  0  0  0  0  0  0  0  0  0  0
   18.1690  -26.5700   33.9840 C   0  0  0  0  0  0  0  0  0  0  0  0
   19.3240  -28.6350   34.7980 C   0  0  0  0  0  0  0  0  0  0  0  0
   19.5037  -23.8298   38.1942 H   0  0  0  0  0  0  0  0  0  0  0  0
   20.4255  -24.5551   36.8337 H   0  0  0  0  0  0  0  0  0  0  0  0
   18.6301  -24.6125   36.8337 H   0  0  0  0  0  0  0  0  0  0  0  0
   20.8296  -25.1559   39.7621 H   0  0  0  0  0  0  0  0  0  0  0  0
   24.0948  -30.0140   41.4170 H   0  0  0  0  0  0  0  0  0  0  0  0
   25.6581  -30.3789   43.3288 H   0  0  0  0  0  0  0  0  0  0  0  0
   25.4648  -28.9790   45.3871 H   0  0  0  0  0  0  0  0  0  0  0  0
   23.8600  -26.1680   45.7480 H   0  0  0  0  0  0  0  0  0  0  0  0
   20.2680  -24.5860   42.3840 H   0  0  0  0  0  0  0  0  0  0  0  0
   19.8119  -29.3272   40.1766 H   0  0  0  0  0  0  0  0  0  0  0  0
   18.5026  -29.2135   38.0718 H   0  0  0  0  0  0  0  0  0  0  0  0
   17.4178  -27.9869   36.4594 H   0  0  0  0  0  0  0  0  0  0  0  0
   17.5494  -26.1617   36.4023 H   0  0  0  0  0  0  0  0  0  0  0  0
   19.8690  -26.6377   35.3329 H   0  0  0  0  0  0  0  0  0  0  0  0
   17.3718  -25.9219   34.3769 H   0  0  0  0  0  0  0  0  0  0  0  0
   18.8576  -25.9723   33.3687 H   0  0  0  0  0  0  0  0  0  0  0  0
   17.7244  -27.3661   33.3687 H   0  0  0  0  0  0  0  0  0  0  0  0
   19.4779  -29.2101   35.7230 H   0  0  0  0  0  0  0  0  0  0  0  0
   18.5178  -29.0966   34.2090 H   0  0  0  0  0  0  0  0  0  0  0  0
   20.2530  -28.6324   34.2090 H   0  0  0  0  0  0  0  0  0  0  0  0
  1  2  1  0
  2  3  2  0
  3  4  1  0
  4  5  1  0
  5  6  1  0
  6  7  1  0
  7  8  2  0
  8  9  1  0
  9 10  2  0
 10 11  1  0
 11 12  1  0
 11 13  2  0
 13 14  1  0
 14 15  2  0
 14 16  1  0
 16 17  1  0
  4 18  2  0
 18 19  1  0
 19 20  2  0
 20 21  1  0
 21 22  1  0
 22 23  1  0
 22 24  1  0
 20  2  1  0
 16  5  2  0
 13  7  1  0
  1 25  1  0
  1 26  1  0
  1 27  1  0
  3 28  1  0
  8 29  1  0
  9 30  1  0
 10 31  1  0
 12 32  1  0
 17 33  1  0
 18 34  1  0
 19 35  1  0
 21 36  1  0
 21 37  1  0
 22 38  1  0
 23 39  1  0
 23 40  1  0
 23 41  1  0
 24 42  1  0
 24 43  1  0
 24 44  1  0
M  END
>  <meeko>  (2) 
{"is_sidechain": [false], "free_energy": -7.222, "intermolecular_energy": -9.021, "internal_energy": -0.447}

$$$$
cand_051_out
     RDKit          3D

 44 46  0  0  0  0  0  0  0  0999 V2000
   21.0260  -27.2000   41.9270 C   0  0  0  0  0  0  0  0  0  0  0  0
   20.0800  -27.3040   40.7630 C   0  0  0  0  0  0  0  0  0  0  0  0
   20.1910  -28.4090   39.8980 C   0  0  0  0  0  0  0  0  0  0  0  0
   19.3460  -28.5720   38.7890 C   0  0  0  0  0  0  0  0  0  0  0  0
   19.5180  -29.7370   37.8960 C   0  0  0  0  0  0  0  0  0  0  0  0
   19.8830  -29.3760   36.6040 O   0  0  0  0  0  0  0  0  0  0  0  0
   20.0760  -30.3620   35.6690 C   0  0  0  0  0  0  0  0  0  0  0  0
   20.4280  -29.9540   34.3810 C   0  0  0  0  0  0  0  0  0  0  0  0
   20.6410  -30.9080   33.3830 C   0  0  0  0  0  0  0  0  0  0  0  0
   20.5020  -32.2660   33.6710 C   0  0  0  0  0  0  0  0  0  0  0  0
   20.1510  -32.6700   34.9580 C   0  0  0  0  0  0  0  0  0  0  0  0
   20.0330  -34.0160   35.1710 O   0  0  0  0  0  0  0  0  0  0  0  0
   19.9370  -31.7160   35.9570 C   0  0  0  0  0  0  0  0  0  0  0  0
   19.5670  -32.0980   37.3190 C   0  0  0  0  0  0  0  0  0  0  0  0
   19.4340  -33.2740   37.6530 O   0  0  0  0  0  0  0  0  0  0  0  0
   19.3560  -31.0090   38.3020 C   0  0  0  0  0  0  0  0  0  0  0  0
   19.0200  -31.3820   39.5910 O   0  0  0  0  0  0  0  0  0  0  0  0
   18.3860  -27.5880   38.5400 C   0  0  0  0  0  0  0  0  0  0  0  0
   18.2620  -26.4840   39.3860 C   0  0  0  0  0  0  0  0  0  0  0  0
   19.0970  -26.3270   40.5060 C   0  0  0  0  0  0  0  0  0  0  0  0
   18.9020  -25.1040   41.3810 C   0  0  0  0  0  0  0  0  0  0  0  0
   19.7800  -23.9000   40.9810 C   0  0  0  0  0  0  0  0  0  0  0  0
   19.8310  -22.8920   42.1320 C   0  0  0  0  0  0  0  0  0  0  0  0
   19.2700  -23.2080   39.7150 C   0  0  0  0  0  0  0  0  0  0  0  0
   20.4586  -27.2624   42.8673 H   0  0  0  0  0  0  0  0  0  0  0  0
   21.7539  -28.0235   41.8826 H   0  0  0  0  0  0  0  0  0  0  0  0
   21.5576  -26.2380   41.8826 H   0  0  0  0  0  0  0  0  0  0  0  0
   20.9627  -29.1672   40.0970 H   0  0  0  0  0  0  0  0  0  0  0  0
   20.5374  -28.8836   34.1526 H   0  0  0  0  0  0  0  0  0  0  0  0
   20.9189  -30.5878   32.3680 H   0  0  0  0  0  0  0  0  0  0  0  0
   20.6691  -33.0163   32.8841 H   0  0  0  0  0  0  0  0  0  0  0  0
   19.3110  -34.4880   34.8050 H   0  0  0  0  0  0  0  0  0  0  0  0
   18.1650  -31.1930   39.9240 H   0  0  0  0  0  0  0  0  0  0  0  0
   17.7212  -27.6839   37.6689 H   0  0  0  0  0  0  0  0  0  0  0  0
   17.4969  -25.7232   39.1721 H   0  0  0  0  0  0  0  0  0  0  0  0
   17.8471  -24.7987   41.3187 H   0  0  0  0  0  0  0  0  0  0  0  0
   19.2003  -25.3909   42.4002 H   0  0  0  0  0  0  0  0  0  0  0  0
   20.7887  -24.2834   40.7676 H   0  0  0  0  0  0  0  0  0  0  0  0
   19.8038  -23.4293   43.0914 H   0  0  0  0  0  0  0  0  0  0  0  0
   20.7599  -22.3066   42.0658 H   0  0  0  0  0  0  0  0  0  0  0  0
   18.9659  -22.2158   42.0658 H   0  0  0  0  0  0  0  0  0  0  0  0
   18.6388  -22.3515   39.9942 H   0  0  0  0  0  0  0  0  0  0  0  0
   20.1253  -22.8547   39.1204 H   0  0  0  0  0  0  0  0  0  0  0  0
   18.6793  -23.9204   39.1204 H   0  0  0  0  0  0  0  0  0  0  0  0
  1  2  1  0
  2  3  2  0
  3  4  1  0
  4  5  1  0
  5  6  1  0
  6  7  1  0
  7  8  2  0
  8  9  1  0
  9 10  2  0
 10 11  1  0
 11 12  1  0
 11 13  2  0
 13 14  1  0
 14 15  2  0
 14 16  1  0
 16 17  1  0
  4 18  2  0
 18 19  1  0
 19 20  2  0
 20 21  1  0
 21 22  1  0
 22 23  1  0
 22 24  1  0
 20  2  1  0
 16  5  2  0
 13  7  1  0
  1 25  1  0
  1 26  1  0
  1 27  1  0
  3 28  1  0
  8 29  1  0
  9 30  1  0
 10 31  1  0
 12 32  1  0
 17 33  1  0
 18 34  1  0
 19 35  1  0
 21 36  1  0
 21 37  1  0
 22 38  1  0
 23 39  1  0
 23 40  1  0
 23 41  1  0
 24 42  1  0
 24 43  1  0
 24 44  1  0
M  END
>  <meeko>  (3) 
{"is_sidechain": [false], "free_energy": -7.176, "intermolecular_energy": -8.947, "internal_energy": -0.465}

$$$$
cand_051_out
     RDKit          3D

 44 46  0  0  0  0  0  0  0  0999 V2000
   19.5170  -25.5010   37.8570 C   0  0  0  0  0  0  0  0  0  0  0  0
   19.4610  -26.9640   38.1990 C   0  0  0  0  0  0  0  0  0  0  0  0
   19.6950  -27.9050   37.1780 C   0  0  0  0  0  0  0  0  0  0  0  0
   19.6550  -29.2870   37.4200 C   0  0  0  0  0  0  0  0  0  0  0  0
   19.8830  -30.2370   36.3100 C   0  0  0  0  0  0  0  0  0  0  0  0
   19.5350  -31.5430   36.6380 O   0  0  0  0  0  0  0  0  0  0  0  0
   19.6970  -32.5280   35.6980 C   0  0  0  0  0  0  0  0  0  0  0  0
   19.3480  -33.8260   36.0740 C   0  0  0  0  0  0  0  0  0  0  0  0
   19.4860  -34.8760   35.1630 C   0  0  0  0  0  0  0  0  0  0  0  0
   19.9710  -34.6290   33.8780 C   0  0  0  0  0  0  0  0  0  0  0  0
   20.3170  -33.3320   33.5050 C   0  0  0  0  0  0  0  0  0  0  0  0
   20.7850  -33.1600   32.2310 O   0  0  0  0  0  0  0  0  0  0  0  0
   20.1800  -32.2810   34.4160 C   0  0  0  0  0  0  0  0  0  0  0  0
   20.5330  -30.9060   34.0660 C   0  0  0  0  0  0  0  0  0  0  0  0
   20.9590  -30.6070   32.9510 O   0  0  0  0  0  0  0  0  0  0  0  0
   20.3570  -29.8670   35.1070 C   0  0  0  0  0  0  0  0  0  0  0  0
   20.6800  -28.5680   34.7600 O   0  0  0  0  0  0  0  0  0  0  0  0
   19.3550  -29.7240   38.7130 C   0  0  0  0  0  0  0  0  0  0  0  0
   19.1180  -28.8040   39.7370 C   0  0  0  0  0  0  0  0  0  0  0  0
   19.1720  -27.4200   39.5000 C   0  0  0  0  0  0  0  0  0  0  0  0
   18.9080  -26.4830   40.6630 C   0  0  0  0  0  0  0  0  0  0  0  0
   19.7500  -26.7880   41.9180 C   0  0  0  0  0  0  0  0  0  0  0  0
   19.6990  -25.5970   42.8780 C   0  0  0  0  0  0  0  0  0  0  0  0
   21.2070  -27.1090   41.5740 C   0  0  0  0  0  0  0  0  0  0  0  0
   19.5397  -24.9085   38.7835 H   0  0  0  0  0  0  0  0  0  0  0  0
   20.4236  -25.2964   37.2686 H   0  0  0  0  0  0  0  0  0  0  0  0
   18.6287  -25.2277   37.2686 H   0  0  0  0  0  0  0  0  0  0  0  0
   19.9155  -27.5468   36.1616 H   0  0  0  0  0  0  0  0  0  0  0  0
   18.9648  -34.0219   37.0863 H   0  0  0  0  0  0  0  0  0  0  0  0
   19.2119  -35.8993   35.4591 H   0  0  0  0  0  0  0  0  0  0  0  0
   20.0799  -35.4564   33.1613 H   0  0  0  0  0  0  0  0  0  0  0  0
   21.5380  -32.6250   32.0760 H   0  0  0  0  0  0  0  0  0  0  0  0
   20.3830  -27.8540   35.2890 H   0  0  0  0  0  0  0  0  0  0  0  0
   19.3050  -30.8020   38.9263 H   0  0  0  0  0  0  0  0  0  0  0  0
   18.8847  -29.1698   40.7478 H   0  0  0  0  0  0  0  0  0  0  0  0
   19.1317  -25.4563   40.3376 H   0  0  0  0  0  0  0  0  0  0  0  0
   17.8538  -26.6174   40.9468 H   0  0  0  0  0  0  0  0  0  0  0  0
   19.3173  -27.6790   42.3964 H   0  0  0  0  0  0  0  0  0  0  0  0
   19.7146  -25.9616   43.9157 H   0  0  0  0  0  0  0  0  0  0  0  0
   20.5702  -24.9483   42.7041 H   0  0  0  0  0  0  0  0  0  0  0  0
   18.7755  -25.0252   42.7041 H   0  0  0  0  0  0  0  0  0  0  0  0
   21.7835  -27.2360   42.5022 H   0  0  0  0  0  0  0  0  0  0  0  0
   21.2489  -28.0379   40.9863 H   0  0  0  0  0  0  0  0  0  0  0  0
   21.6354  -26.2837   40.9863 H   0  0  0  0  0  0  0  0  0  0  0  0
  1  2  1  0
  2  3  2  0
  3  4  1  0
  4  5  1  0
  5  6  1  0
  6  7  1  0
  7  8  2  0
  8  9  1  0
  9 10  2  0
 10 11  1  0
 11 12  1  0
 11 13  2  0
 13 14  1  0
 14 15  2  0
 14 16  1  0
 16 17  1  0
  4 18  2  0
 18 19  1  0
 19 20  2  0
 20 21  1  0
 21 22  1  0
 22 23  1  0
 22 24  1  0
 20  2  1  0
 16  5  2  0
 13  7  1  0
  1 25  1  0
  1 26  1  0
  1 27  1  0
  3 28  1  0
  8 29  1  0
  9 30  1  0
 10 31  1  0
 12 32  1  0
 17 33  1  0
 18 34  1  0
 19 35  1  0
 21 36  1  0
 21 37  1  0
 22 38  1  0
 23 39  1  0
 23 40  1  0
 23 41  1  0
 24 42  1  0
 24 43  1  0
 24 44  1  0
M  END
>  <meeko>  (4) 
{"is_sidechain": [false], "free_energy": -7.171, "intermolecular_energy": -9.535, "internal_energy": 0.13}

$$$$
cand_051_out
     RDKit          3D

 44 46  0  0  0  0  0  0  0  0999 V2000
   21.8450  -27.1660   43.4000 C   0  0  0  0  0  0  0  0  0  0  0  0
   20.7780  -27.0140   42.3510 C   0  0  0  0  0  0  0  0  0  0  0  0
   20.6950  -27.9790   41.3290 C   0  0  0  0  0  0  0  0  0  0  0  0
   19.7290  -27.9010   40.3130 C   0  0  0  0  0  0  0  0  0  0  0  0
   19.6950  -28.9250   39.2470 C   0  0  0  0  0  0  0  0  0  0  0  0
   19.4860  -30.2080   39.7390 O   0  0  0  0  0  0  0  0  0  0  0  0
   19.4330  -31.2570   38.8560 C   0  0  0  0  0  0  0  0  0  0  0  0
   19.2350  -32.5290   39.3940 C   0  0  0  0  0  0  0  0  0  0  0  0
   19.1690  -33.6400   38.5490 C   0  0  0  0  0  0  0  0  0  0  0  0
   19.3000  -33.4780   37.1690 C   0  0  0  0  0  0  0  0  0  0  0  0
   19.4970  -32.2070   36.6350 C   0  0  0  0  0  0  0  0  0  0  0  0
   19.6160  -32.1210   35.2750 O   0  0  0  0  0  0  0  0  0  0  0  0
   19.5640  -31.0960   37.4800 C   0  0  0  0  0  0  0  0  0  0  0  0
   19.7690  -29.7440   36.9600 C   0  0  0  0  0  0  0  0  0  0  0  0
   19.8860  -29.5200   35.7570 O   0  0  0  0  0  0  0  0  0  0  0  0
   19.8330  -28.6350   37.9410 C   0  0  0  0  0  0  0  0  0  0  0  0
   20.0140  -27.3600   37.4370 O   0  0  0  0  0  0  0  0  0  0  0  0
   18.8460  -26.8180   40.3210 C   0  0  0  0  0  0  0  0  0  0  0  0
   18.9170  -25.8500   41.3260 C   0  0  0  0  0  0  0  0  0  0  0  0
   19.8730  -25.9340   42.3520 C   0  0  0  0  0  0  0  0  0  0  0  0
   19.8870  -24.8490   43.4110 C   0  0  0  0  0  0  0  0  0  0  0  0
   19.0890  -23.5860   43.0250 C   0  0  0  0  0  0  0  0  0  0  0  0
   20.0510  -22.4860   42.5680 C   0  0  0  0  0  0  0  0  0  0  0  0
   18.2290  -23.0690   44.1800 C   0  0  0  0  0  0  0  0  0  0  0  0
   21.3890  -27.1010   44.3989 H   0  0  0  0  0  0  0  0  0  0  0  0
   22.3365  -28.1432   43.2842 H   0  0  0  0  0  0  0  0  0  0  0  0
   22.5899  -26.3649   43.2842 H   0  0  0  0  0  0  0  0  0  0  0  0
   21.4069  -28.8175   41.3265 H   0  0  0  0  0  0  0  0  0  0  0  0
   19.1310  -32.6571   40.4816 H   0  0  0  0  0  0  0  0  0  0  0  0
   19.0136  -34.6434   38.9720 H   0  0  0  0  0  0  0  0  0  0  0  0
   19.2477  -34.3528   36.5042 H   0  0  0  0  0  0  0  0  0  0  0  0
   19.8110  -32.8860   34.7720 H   0  0  0  0  0  0  0  0  0  0  0  0
   20.8630  -26.9650   37.4570 H   0  0  0  0  0  0  0  0  0  0  0  0
   18.0882  -26.7268   39.5289 H   0  0  0  0  0  0  0  0  0  0  0  0
   18.2112  -25.0064   41.3137 H   0  0  0  0  0  0  0  0  0  0  0  0
   19.4559  -25.2617   44.3350 H   0  0  0  0  0  0  0  0  0  0  0  0
   20.9349  -24.5383   43.5349 H   0  0  0  0  0  0  0  0  0  0  0  0
   18.4111  -23.8624   42.2040 H   0  0  0  0  0  0  0  0  0  0  0  0
   20.4852  -21.9896   43.4484 H   0  0  0  0  0  0  0  0  0  0  0  0
   20.8556  -22.9303   41.9636 H   0  0  0  0  0  0  0  0  0  0  0  0
   19.5034  -21.7478   41.9636 H   0  0  0  0  0  0  0  0  0  0  0  0
   18.6939  -23.3485   45.1370 H   0  0  0  0  0  0  0  0  0  0  0  0
   18.1502  -21.9737   44.1167 H   0  0  0  0  0  0  0  0  0  0  0  0
   17.2247  -23.5132   44.1167 H   0  0  0  0  0  0  0  0  0  0  0  0
  1  2  1  0
  2  3  2  0
  3  4  1  0
  4  5  1  0
  5  6  1  0
  6  7  1  0
  7  8  2  0
  8  9  1  0
  9 10  2  0
 10 11  1  0
 11 12  1  0
 11 13  2  0
 13 14  1  0
 14 15  2  0
 14 16  1  0
 16 17  1  0
  4 18  2  0
 18 19  1  0
 19 20  2  0
 20 21  1  0
 21 22  1  0
 22 23  1  0
 22 24  1  0
 20  2  1  0
 16  5  2  0
 13  7  1  0
  1 25  1  0
  1 26  1  0
  1 27  1  0
  3 28  1  0
  8 29  1  0
  9 30  1  0
 10 31  1  0
 12 32  1  0
 17 33  1  0
 18 34  1  0
 19 35  1  0
 21 36  1  0
 21 37  1  0
 22 38  1  0
 23 39  1  0
 23 40  1  0
 23 41  1  0
 24 42  1  0
 24 43  1  0
 24 44  1  0
M  END
>  <meeko>  (5) 
{"is_sidechain": [false], "free_energy": -7.03, "intermolecular_energy": -8.721, "internal_energy": -0.51}

$$$$
cand_051_out
     RDKit          3D

 44 46  0  0  0  0  0  0  0  0999 V2000
   19.9110  -25.3370   43.6400 C   0  0  0  0  0  0  0  0  0  0  0  0
   20.2320  -25.9230   42.2930 C   0  0  0  0  0  0  0  0  0  0  0  0
   19.5800  -25.4040   41.1590 C   0  0  0  0  0  0  0  0  0  0  0  0
   19.8250  -25.9030   39.8690 C   0  0  0  0  0  0  0  0  0  0  0  0
   19.0980  -25.3420   38.7110 C   0  0  0  0  0  0  0  0  0  0  0  0
   19.5140  -24.0560   38.3850 O   0  0  0  0  0  0  0  0  0  0  0  0
   18.9200  -23.4150   37.3270 C   0  0  0  0  0  0  0  0  0  0  0  0
   19.3590  -22.1210   37.0430 C   0  0  0  0  0  0  0  0  0  0  0  0
   18.7970  -21.4130   35.9780 C   0  0  0  0  0  0  0  0  0  0  0  0
   17.7990  -21.9990   35.1970 C   0  0  0  0  0  0  0  0  0  0  0  0
   17.3640  -23.2910   35.4820 C   0  0  0  0  0  0  0  0  0  0  0  0
   16.3840  -23.8040   34.6770 O   0  0  0  0  0  0  0  0  0  0  0  0
   17.9250  -23.9990   36.5480 C   0  0  0  0  0  0  0  0  0  0  0  0
   17.4970  -25.3570   36.8820 C   0  0  0  0  0  0  0  0  0  0  0  0
   16.6290  -25.9430   36.2370 O   0  0  0  0  0  0  0  0  0  0  0  0
   18.1500  -26.0170   38.0360 C   0  0  0  0  0  0  0  0  0  0  0  0
   17.7470  -27.3060   38.3340 O   0  0  0  0  0  0  0  0  0  0  0  0
   20.7290  -26.9580   39.7290 C   0  0  0  0  0  0  0  0  0  0  0  0
   21.3840  -27.4870   40.8440 C   0  0  0  0  0  0  0  0  0  0  0  0
   21.1510  -26.9800   42.1340 C   0  0  0  0  0  0  0  0  0  0  0  0
   21.9010  -27.6010   43.2960 C   0  0  0  0  0  0  0  0  0  0  0  0
   23.4350  -27.5870   43.1320 C   0  0  0  0  0  0  0  0  0  0  0  0
   23.9640  -29.0230   43.0790 C   0  0  0  0  0  0  0  0  0  0  0  0
   24.1300  -26.8250   44.2630 C   0  0  0  0  0  0  0  0  0  0  0  0
   20.2791  -26.0089   44.4293 H   0  0  0  0  0  0  0  0  0  0  0  0
   20.3973  -24.3552   43.7381 H   0  0  0  0  0  0  0  0  0  0  0  0
   18.8218  -25.2182   43.7381 H   0  0  0  0  0  0  0  0  0  0  0  0
   18.8578  -24.5841   41.2864 H   0  0  0  0  0  0  0  0  0  0  0  0
   20.1464  -21.6593   37.6569 H   0  0  0  0  0  0  0  0  0  0  0  0
   19.1412  -20.3924   35.7544 H   0  0  0  0  0  0  0  0  0  0  0  0
   17.3571  -21.4413   34.3581 H   0  0  0  0  0  0  0  0  0  0  0  0
   16.4460  -24.6860   34.3670 H   0  0  0  0  0  0  0  0  0  0  0  0
   18.3240  -27.8820   38.7960 H   0  0  0  0  0  0  0  0  0  0  0  0
   20.9274  -27.3766   38.7313 H   0  0  0  0  0  0  0  0  0  0  0  0
   22.0951  -28.3155   40.7098 H   0  0  0  0  0  0  0  0  0  0  0  0
   21.6457  -27.0442   44.2097 H   0  0  0  0  0  0  0  0  0  0  0  0
   21.5957  -28.6567   43.3441 H   0  0  0  0  0  0  0  0  0  0  0  0
   23.6613  -27.0654   42.1903 H   0  0  0  0  0  0  0  0  0  0  0  0
   24.1031  -29.4005   44.1028 H   0  0  0  0  0  0  0  0  0  0  0  0
   23.2417  -29.6605   42.5481 H   0  0  0  0  0  0  0  0  0  0  0  0
   24.9272  -29.0396   42.5481 H   0  0  0  0  0  0  0  0  0  0  0  0
   23.7801  -27.2087   45.2327 H   0  0  0  0  0  0  0  0  0  0  0  0
   25.2183  -26.9646   44.1845 H   0  0  0  0  0  0  0  0  0  0  0  0
   23.8911  -25.7541   44.1845 H   0  0  0  0  0  0  0  0  0  0  0  0
  1  2  1  0
  2  3  2  0
  3  4  1  0
  4  5  1  0
  5  6  1  0
  6  7  1  0
  7  8  2  0
  8  9  1  0
  9 10  2  0
 10 11  1  0
 11 12  1  0
 11 13  2  0
 13 14  1  0
 14 15  2  0
 14 16  1  0
 16 17  1  0
  4 18  2  0
 18 19  1  0
 19 20  2  0
 20 21  1  0
 21 22  1  0
 22 23  1  0
 22 24  1  0
 20  2  1  0
 16  5  2  0
 13  7  1  0
  1 25  1  0
  1 26  1  0
  1 27  1  0
  3 28  1  0
  8 29  1  0
  9 30  1  0
 10 31  1  0
 12 32  1  0
 17 33  1  0
 18 34  1  0
 19 35  1  0
 21 36  1  0
 21 37  1  0
 22 38  1  0
 23 39  1  0
 23 40  1  0
 23 41  1  0
 24 42  1  0
 24 43  1  0
 24 44  1  0
M  END
>  <meeko>  (6) 
{"is_sidechain": [false], "free_energy": -6.977, "intermolecular_energy": -8.544, "internal_energy": -0.621}

$$$$
cand_051_out
     RDKit          3D

 44 46  0  0  0  0  0  0  0  0999 V2000
   20.3380  -31.3570   35.3840 C   0  0  0  0  0  0  0  0  0  0  0  0
   19.8370  -30.9590   36.7450 C   0  0  0  0  0  0  0  0  0  0  0  0
   19.8550  -29.5960   37.0980 C   0  0  0  0  0  0  0  0  0  0  0  0
   19.4080  -29.1500   38.3520 C   0  0  0  0  0  0  0  0  0  0  0  0
   19.4690  -27.7110   38.6870 C   0  0  0  0  0  0  0  0  0  0  0  0
   18.6890  -26.9270   37.8440 O   0  0  0  0  0  0  0  0  0  0  0  0
   18.6540  -25.5700   38.0440 C   0  0  0  0  0  0  0  0  0  0  0  0
   17.8690  -24.8210   37.1660 C   0  0  0  0  0  0  0  0  0  0  0  0
   17.7890  -23.4340   37.3160 C   0  0  0  0  0  0  0  0  0  0  0  0
   18.4920  -22.7980   38.3400 C   0  0  0  0  0  0  0  0  0  0  0  0
   19.2740  -23.5490   39.2150 C   0  0  0  0  0  0  0  0  0  0  0  0
   19.9340  -22.8630   40.1970 O   0  0  0  0  0  0  0  0  0  0  0  0
   19.3550  -24.9360   39.0660 C   0  0  0  0  0  0  0  0  0  0  0  0
   20.1640  -25.7620   39.9620 C   0  0  0  0  0  0  0  0  0  0  0  0
   20.8050  -25.2760   40.8920 O   0  0  0  0  0  0  0  0  0  0  0  0
   20.1890  -27.2220   39.7130 C   0  0  0  0  0  0  0  0  0  0  0  0
   20.9470  -27.9940   40.5750 O   0  0  0  0  0  0  0  0  0  0  0  0
   18.9540  -30.1000   39.2690 C   0  0  0  0  0  0  0  0  0  0  0  0
   18.9310  -31.4560   38.9360 C   0  0  0  0  0  0  0  0  0  0  0  0
   19.3640  -31.9040   37.6760 C   0  0  0  0  0  0  0  0  0  0  0  0
   19.3060  -33.3910   37.3840 C   0  0  0  0  0  0  0  0  0  0  0  0
   19.5750  -34.2820   38.6150 C   0  0  0  0  0  0  0  0  0  0  0  0
   20.4530  -35.4700   38.2120 C   0  0  0  0  0  0  0  0  0  0  0  0
   18.2800  -34.7940   39.2520 C   0  0  0  0  0  0  0  0  0  0  0  0
   21.1950  -32.0378   35.4934 H   0  0  0  0  0  0  0  0  0  0  0  0
   19.5340  -31.8654   34.8316 H   0  0  0  0  0  0  0  0  0  0  0  0
   20.6514  -30.4589   34.8316 H   0  0  0  0  0  0  0  0  0  0  0  0
   20.2297  -28.8603   36.3711 H   0  0  0  0  0  0  0  0  0  0  0  0
   17.3148  -25.3212   36.3581 H   0  0  0  0  0  0  0  0  0  0  0  0
   17.1704  -22.8421   36.6253 H   0  0  0  0  0  0  0  0  0  0  0  0
   18.4289  -21.7060   38.4561 H   0  0  0  0  0  0  0  0  0  0  0  0
   20.4530  -23.3250   40.8240 H   0  0  0  0  0  0  0  0  0  0  0  0
   21.8390  -28.1900   40.3660 H   0  0  0  0  0  0  0  0  0  0  0  0
   18.6112  -29.7773   40.2631 H   0  0  0  0  0  0  0  0  0  0  0  0
   18.5674  -32.1869   39.6732 H   0  0  0  0  0  0  0  0  0  0  0  0
   18.3043  -33.6289   36.9968 H   0  0  0  0  0  0  0  0  0  0  0  0
   20.1025  -33.6043   36.6559 H   0  0  0  0  0  0  0  0  0  0  0  0
   20.0930  -33.6639   39.3631 H   0  0  0  0  0  0  0  0  0  0  0  0
   20.8255  -35.9740   39.1160 H   0  0  0  0  0  0  0  0  0  0  0  0
   19.8598  -36.1785   37.6152 H   0  0  0  0  0  0  0  0  0  0  0  0
   21.3044  -35.1109   37.6152 H   0  0  0  0  0  0  0  0  0  0  0  0
   18.3711  -34.7580   40.3476 H   0  0  0  0  0  0  0  0  0  0  0  0
   17.4391  -34.1607   38.9330 H   0  0  0  0  0  0  0  0  0  0  0  0
   18.0995  -35.8311   38.9330 H   0  0  0  0  0  0  0  0  0  0  0  0
  1  2  1  0
  2  3  2  0
  3  4  1  0
  4  5  1  0
  5  6  1  0
  6  7  1  0
  7  8  2  0
  8  9  1  0
  9 10  2  0
 10 11  1  0
 11 12  1  0
 11 13  2  0
 13 14  1  0
 14 15  2  0
 14 16  1  0
 16 17  1  0
  4 18  2  0
 18 19  1  0
 19 20  2  0
 20 21  1  0
 21 22  1  0
 22 23  1  0
 22 24  1  0
 20  2  1  0
 16  5  2  0
 13  7  1  0
  1 25  1  0
  1 26  1  0
  1 27  1  0
  3 28  1  0
  8 29  1  0
  9 30  1  0
 10 31  1  0
 12 32  1  0
 17 33  1  0
 18 34  1  0
 19 35  1  0
 21 36  1  0
 21 37  1  0
 22 38  1  0
 23 39  1  0
 23 40  1  0
 23 41  1  0
 24 42  1  0
 24 43  1  0
 24 44  1  0
M  END
>  <meeko>  (7) 
{"is_sidechain": [false], "free_energy": -6.907, "intermolecular_energy": -8.692, "internal_energy": -0.388}

$$$$
cand_051_out
     RDKit          3D

 44 46  0  0  0  0  0  0  0  0999 V2000
   17.6830  -22.6310   45.9750 C   0  0  0  0  0  0  0  0  0  0  0  0
   18.8510  -23.4690   45.5340 C   0  0  0  0  0  0  0  0  0  0  0  0
   18.8980  -23.9120   44.1990 C   0  0  0  0  0  0  0  0  0  0  0  0
   19.9540  -24.7010   43.7170 C   0  0  0  0  0  0  0  0  0  0  0  0
   19.9480  -25.1630   42.3120 C   0  0  0  0  0  0  0  0  0  0  0  0
   19.6420  -24.1480   41.4120 O   0  0  0  0  0  0  0  0  0  0  0  0
   19.6010  -24.4400   40.0720 C   0  0  0  0  0  0  0  0  0  0  0  0
   19.2760  -23.3950   39.2060 C   0  0  0  0  0  0  0  0  0  0  0  0
   19.2190  -23.6240   37.8290 C   0  0  0  0  0  0  0  0  0  0  0  0
   19.4880  -24.8950   37.3190 C   0  0  0  0  0  0  0  0  0  0  0  0
   19.8130  -25.9360   38.1860 C   0  0  0  0  0  0  0  0  0  0  0  0
   20.0660  -27.1550   37.6200 O   0  0  0  0  0  0  0  0  0  0  0  0
   19.8690  -25.7070   39.5640 C   0  0  0  0  0  0  0  0  0  0  0  0
   20.2060  -26.7720   40.5090 C   0  0  0  0  0  0  0  0  0  0  0  0
   20.4630  -27.9150   40.1360 O   0  0  0  0  0  0  0  0  0  0  0  0
   20.2310  -26.4270   41.9490 C   0  0  0  0  0  0  0  0  0  0  0  0
   20.5640  -27.4380   42.8320 O   0  0  0  0  0  0  0  0  0  0  0  0
   20.9690  -25.0640   44.6060 C   0  0  0  0  0  0  0  0  0  0  0  0
   20.9360  -24.6350   45.9350 C   0  0  0  0  0  0  0  0  0  0  0  0
   19.8880  -23.8330   46.4160 C   0  0  0  0  0  0  0  0  0  0  0  0
   19.9230  -23.4030   47.8700 C   0  0  0  0  0  0  0  0  0  0  0  0
   20.8090  -24.2920   48.7660 C   0  0  0  0  0  0  0  0  0  0  0  0
   19.9550  -25.3830   49.4180 C   0  0  0  0  0  0  0  0  0  0  0  0
   21.5290  -23.4860   49.8500 C   0  0  0  0  0  0  0  0  0  0  0  0
   17.6453  -22.6040   47.0740 H   0  0  0  0  0  0  0  0  0  0  0  0
   17.7982  -21.6082   45.5868 H   0  0  0  0  0  0  0  0  0  0  0  0
   16.7510  -23.0677   45.5868 H   0  0  0  0  0  0  0  0  0  0  0  0
   18.0842  -23.6320   43.5140 H   0  0  0  0  0  0  0  0  0  0  0  0
   19.0650  -22.3926   39.6070 H   0  0  0  0  0  0  0  0  0  0  0  0
   18.9617  -22.8013   37.1457 H   0  0  0  0  0  0  0  0  0  0  0  0
   19.4435  -25.0745   36.2347 H   0  0  0  0  0  0  0  0  0  0  0  0
   20.6870  -27.2280   36.9220 H   0  0  0  0  0  0  0  0  0  0  0  0
   20.0540  -27.5690   43.6080 H   0  0  0  0  0  0  0  0  0  0  0  0
   21.8010  -25.6929   44.2564 H   0  0  0  0  0  0  0  0  0  0  0  0
   21.7461  -24.9309   46.6178 H   0  0  0  0  0  0  0  0  0  0  0  0
   20.3068  -22.3732   47.9170 H   0  0  0  0  0  0  0  0  0  0  0  0
   18.8953  -23.4900   48.2524 H   0  0  0  0  0  0  0  0  0  0  0  0
   21.5780  -24.7457   48.1236 H   0  0  0  0  0  0  0  0  0  0  0  0
   20.0227  -25.2965   50.5125 H   0  0  0  0  0  0  0  0  0  0  0  0
   18.9072  -25.2645   49.1049 H   0  0  0  0  0  0  0  0  0  0  0  0
   20.3216  -26.3717   49.1049 H   0  0  0  0  0  0  0  0  0  0  0  0
   21.2122  -23.8407   50.8419 H   0  0  0  0  0  0  0  0  0  0  0  0
   22.6159  -23.6174   49.7435 H   0  0  0  0  0  0  0  0  0  0  0  0
   21.2763  -22.4207   49.7435 H   0  0  0  0  0  0  0  0  0  0  0  0
  1  2  1  0
  2  3  2  0
  3  4  1  0
  4  5  1  0
  5  6  1  0
  6  7  1  0
  7  8  2  0
  8  9  1  0
  9 10  2  0
 10 11  1  0
 11 12  1  0
 11 13  2  0
 13 14  1  0
 14 15  2  0
 14 16  1  0
 16 17  1  0
  4 18  2  0
 18 19  1  0
 19 20  2  0
 20 21  1  0
 21 22  1  0
 22 23  1  0
 22 24  1  0
 20  2  1  0
 16  5  2  0
 13  7  1  0
  1 25  1  0
  1 26  1  0
  1 27  1  0
  3 28  1  0
  8 29  1  0
  9 30  1  0
 10 31  1  0
 12 32  1  0
 17 33  1  0
 18 34  1  0
 19 35  1  0
 21 36  1  0
 21 37  1  0
 22 38  1  0
 23 39  1  0
 23 40  1  0
 23 41  1  0
 24 42  1  0
 24 43  1  0
 24 44  1  0
M  END
>  <meeko>  (8) 
{"is_sidechain": [false], "free_energy": -6.878, "intermolecular_energy": -8.68, "internal_energy": -0.364}

$$$$
cand_051_out
     RDKit          3D

 44 46  0  0  0  0  0  0  0  0999 V2000
   17.5190  -22.7290   46.0500 C   0  0  0  0  0  0  0  0  0  0  0  0
   18.6870  -23.4570   45.4450 C   0  0  0  0  0  0  0  0  0  0  0  0
   18.6640  -23.7390   44.0660 C   0  0  0  0  0  0  0  0  0  0  0  0
   19.7160  -24.4190   43.4310 C   0  0  0  0  0  0  0  0  0  0  0  0
   19.6360  -24.7140   41.9840 C   0  0  0  0  0  0  0  0  0  0  0  0
   19.5130  -26.0730   41.7170 O   0  0  0  0  0  0  0  0  0  0  0  0
   19.4290  -26.4880   40.4120 C   0  0  0  0  0  0  0  0  0  0  0  0
   19.3200  -27.8610   40.1890 C   0  0  0  0  0  0  0  0  0  0  0  0
   19.2290  -28.3490   38.8840 C   0  0  0  0  0  0  0  0  0  0  0  0
   19.2450  -27.4660   37.8030 C   0  0  0  0  0  0  0  0  0  0  0  0
   19.3530  -26.0960   38.0280 C   0  0  0  0  0  0  0  0  0  0  0  0
   19.3630  -25.2880   36.9250 O   0  0  0  0  0  0  0  0  0  0  0  0
   19.4460  -25.6070   39.3340 C   0  0  0  0  0  0  0  0  0  0  0  0
   19.5600  -24.1760   39.6150 C   0  0  0  0  0  0  0  0  0  0  0  0
   19.5740  -23.3350   38.7170 O   0  0  0  0  0  0  0  0  0  0  0  0
   19.6600  -23.7620   41.0340 C   0  0  0  0  0  0  0  0  0  0  0  0
   19.7540  -22.4060   41.2880 O   0  0  0  0  0  0  0  0  0  0  0  0
   20.7980  -24.8380   44.2090 C   0  0  0  0  0  0  0  0  0  0  0  0
   20.8350  -24.5690   45.5790 C   0  0  0  0  0  0  0  0  0  0  0  0
   19.7910  -23.8750   46.2140 C   0  0  0  0  0  0  0  0  0  0  0  0
   19.9040  -23.6160   47.7030 C   0  0  0  0  0  0  0  0  0  0  0  0
   20.8220  -24.6090   48.4450 C   0  0  0  0  0  0  0  0  0  0  0  0
   19.9960  -25.4470   49.4240 C   0  0  0  0  0  0  0  0  0  0  0  0
   21.9500  -23.9000   49.1990 C   0  0  0  0  0  0  0  0  0  0  0  0
   17.5883  -22.7722   47.1470 H   0  0  0  0  0  0  0  0  0  0  0  0
   17.5321  -21.6789   45.7228 H   0  0  0  0  0  0  0  0  0  0  0  0
   16.5820  -23.2033   45.7228 H   0  0  0  0  0  0  0  0  0  0  0  0
   17.7977  -23.4177   43.4691 H   0  0  0  0  0  0  0  0  0  0  0  0
   19.3058  -28.5579   41.0400 H   0  0  0  0  0  0  0  0  0  0  0  0
   19.1445  -29.4314   38.7074 H   0  0  0  0  0  0  0  0  0  0  0  0
   19.1724  -27.8516   36.7754 H   0  0  0  0  0  0  0  0  0  0  0  0
   18.6380  -24.7180   36.7540 H   0  0  0  0  0  0  0  0  0  0  0  0
   19.2170  -22.0150   41.9490 H   0  0  0  0  0  0  0  0  0  0  0  0
   21.6284  -25.3848   43.7383 H   0  0  0  0  0  0  0  0  0  0  0  0
   21.6976  -24.9067   46.1721 H   0  0  0  0  0  0  0  0  0  0  0  0
   20.3031  -22.6013   47.8482 H   0  0  0  0  0  0  0  0  0  0  0  0
   18.8955  -23.7391   48.1247 H   0  0  0  0  0  0  0  0  0  0  0  0
   21.2846  -25.2594   47.6880 H   0  0  0  0  0  0  0  0  0  0  0  0
   20.2638  -25.1753   50.4557 H   0  0  0  0  0  0  0  0  0  0  0  0
   18.9257  -25.2535   49.2599 H   0  0  0  0  0  0  0  0  0  0  0  0
   20.2050  -26.5144   49.2599 H   0  0  0  0  0  0  0  0  0  0  0  0
   21.7877  -24.0020   50.2822 H   0  0  0  0  0  0  0  0  0  0  0  0
   22.9144  -24.3547   48.9283 H   0  0  0  0  0  0  0  0  0  0  0  0
   21.9585  -22.8339   48.9283 H   0  0  0  0  0  0  0  0  0  0  0  0
  1  2  1  0
  2  3  2  0
  3  4  1  0
  4  5  1  0
  5  6  1  0
  6  7  1  0
  7  8  2  0
  8  9  1  0
  9 10  2  0
 10 11  1  0
 11 12  1  0
 11 13  2  0
 13 14  1  0
 14 15  2  0
 14 16  1  0
 16 17  1  0
  4 18  2  0
 18 19  1  0
 19 20  2  0
 20 21  1  0
 21 22  1  0
 22 23  1  0
 22 24  1  0
 20  2  1  0
 16  5  2  0
 13  7  1  0
  1 25  1  0
  1 26  1  0
  1 27  1  0
  3 28  1  0
  8 29  1  0
  9 30  1  0
 10 31  1  0
 12 32  1  0
 17 33  1  0
 18 34  1  0
 19 35  1  0
 21 36  1  0
 21 37  1  0
 22 38  1  0
 23 39  1  0
 23 40  1  0
 23 41  1  0
 24 42  1  0
 24 43  1  0
 24 44  1  0
M  END
>  <meeko>  (9) 
{"is_sidechain": [false], "free_energy": -6.858, "intermolecular_energy": -8.443, "internal_energy": -0.576}

$$$$
