cand_046_out
     RDKit          3D

 39 41  0  0  0  0  0  0  0  0999 V2000
   22.3520  -27.6370   41.9330 C   0  0  0  0  0  0  0  0  0  0  0  0
   21.0940  -27.1780   41.9340 C   0  0  0  0  0  0  0  0  0  0  0  0
   20.1470  -27.4190   40.8350 C   0  0  0  0  0  0  0  0  0  0  0  0
   20.1510  -28.6710   40.1930 C   0  0  0  0  0  0  0  0  0  0  0  0
   19.2500  -28.9760   39.1620 C   0  0  0  0  0  0  0  0  0  0  0  0
   19.3110  -30.2950   38.4970 C   0  0  0  0  0  0  0  0  0  0  0  0
   18.8710  -31.3310   39.3120 O   0  0  0  0  0  0  0  0  0  0  0  0
   18.8730  -32.6100   38.8170 C   0  0  0  0  0  0  0  0  0  0  0  0
   18.4370  -33.6210   39.6740 C   0  0  0  0  0  0  0  0  0  0  0  0
   18.4120  -34.9470   39.2320 C   0  0  0  0  0  0  0  0  0  0  0  0
   18.8220  -35.2590   37.9350 C   0  0  0  0  0  0  0  0  0  0  0  0
   19.2560  -34.2480   37.0810 C   0  0  0  0  0  0  0  0  0  0  0  0
   19.6440  -34.6240   35.8240 O   0  0  0  0  0  0  0  0  0  0  0  0
   19.2820  -32.9230   37.5250 C   0  0  0  0  0  0  0  0  0  0  0  0
   19.7310  -31.8300   36.6600 C   0  0  0  0  0  0  0  0  0  0  0  0
   20.1010  -32.0250   35.5040 O   0  0  0  0  0  0  0  0  0  0  0  0
   19.7270  -30.4620   37.2270 C   0  0  0  0  0  0  0  0  0  0  0  0
   20.1390  -29.4360   36.3980 O   0  0  0  0  0  0  0  0  0  0  0  0
   18.3350  -27.9940   38.7690 C   0  0  0  0  0  0  0  0  0  0  0  0
   18.3110  -26.7490   39.4020 C   0  0  0  0  0  0  0  0  0  0  0  0
   19.2110  -26.4440   40.4370 C   0  0  0  0  0  0  0  0  0  0  0  0
   19.1230  -25.0790   41.0830 C   0  0  0  0  0  0  0  0  0  0  0  0
   19.6460  -23.9810   40.1680 C   0  0  0  0  0  0  0  0  0  0  0  0
   23.0156  -27.4248   42.7843 H   0  0  0  0  0  0  0  0  0  0  0  0
   22.7218  -28.2262   41.0809 H   0  0  0  0  0  0  0  0  0  0  0  0
   20.7521  -26.5917   42.7997 H   0  0  0  0  0  0  0  0  0  0  0  0
   20.8806  -29.4315   40.5082 H   0  0  0  0  0  0  0  0  0  0  0  0
   18.1134  -33.3750   40.6961 H   0  0  0  0  0  0  0  0  0  0  0  0
   18.0689  -35.7450   39.9069 H   0  0  0  0  0  0  0  0  0  0  0  0
   18.8024  -36.3025   37.5875 H   0  0  0  0  0  0  0  0  0  0  0  0
   20.5540  -34.6960   35.6170 H   0  0  0  0  0  0  0  0  0  0  0  0
   21.0480  -29.2130   36.3460 H   0  0  0  0  0  0  0  0  0  0  0  0
   17.6273  -28.2041   37.9535 H   0  0  0  0  0  0  0  0  0  0  0  0
   17.5755  -25.9950   39.0850 H   0  0  0  0  0  0  0  0  0  0  0  0
   18.0711  -24.8680   41.3258 H   0  0  0  0  0  0  0  0  0  0  0  0
   19.7456  -25.0912   41.9898 H   0  0  0  0  0  0  0  0  0  0  0  0
   20.0401  -23.1536   40.7763 H   0  0  0  0  0  0  0  0  0  0  0  0
   20.4488  -24.3842   39.5332 H   0  0  0  0  0  0  0  0  0  0  0  0
   18.8271  -23.6117   39.5332 H   0  0  0  0  0  0  0  0  0  0  0  0
  1  2  2  0
  2  3  1  0
  3  4  2  0
  4  5  1  0
  5  6  1  0
  6  7  1  0
  7  8  1  0
  8  9  2  0
  9 10  1  0
 10 11  2  0
 11 12  1  0
 12 13  1  0
 12 14  2  0
 14 15  1  0
 15 16  2  0
 15 17  1  0
 17 18  1  0
  5 19  2  0
 19 20  1  0
 20 21  2  0
 21 22  1  0
 22 23  1  0
 21  3  1  0
 17  6  2  0
 14  8  1  0
  1 24  1  0
  1 25  1  0
  2 26  1  0
  4 27  1  0
  9 28  1  0
 10 29  1  0
 11 30  1  0
 13 31  1  0
 18 32  1  0
 19 33  1  0
 20 34  1  0
 22 35  1  0
 22 36  1  0
 23 37  1  0
 23 38  1  0
 23 39  1  0
M  END
>  <meeko>  (1) 
{"is_sidechain": [false], "free_energy": -7.956, "intermolecular_energy": -9.816, "internal_energy": -0.578}

$$$$
cand_046_out
     RDKit          3D

 39 41  0  0  0  0  0  0  0  0999 V2000
   18.6100  -34.0450   39.6830 C   0  0  0  0  0  0  0  0  0  0  0  0
   18.6090  -33.7870   38.3690 C   0  0  0  0  0  0  0  0  0  0  0  0
   19.0430  -32.5030   37.8000 C   0  0  0  0  0  0  0  0  0  0  0  0
   18.9660  -31.3440   38.5940 C   0  0  0  0  0  0  0  0  0  0  0  0
   19.3970  -30.0950   38.1220 C   0  0  0  0  0  0  0  0  0  0  0  0
   19.2680  -28.8990   38.9810 C   0  0  0  0  0  0  0  0  0  0  0  0
   20.1920  -28.8790   40.0190 O   0  0  0  0  0  0  0  0  0  0  0  0
   20.1860  -27.8220   40.8920 C   0  0  0  0  0  0  0  0  0  0  0  0
   21.1210  -27.8490   41.9270 C   0  0  0  0  0  0  0  0  0  0  0  0
   21.1690  -26.8020   42.8520 C   0  0  0  0  0  0  0  0  0  0  0  0
   20.2840  -25.7290   42.7380 C   0  0  0  0  0  0  0  0  0  0  0  0
   19.3510  -25.7030   41.7040 C   0  0  0  0  0  0  0  0  0  0  0  0
   18.5130  -24.6220   41.6530 O   0  0  0  0  0  0  0  0  0  0  0  0
   19.3030  -26.7520   40.7820 C   0  0  0  0  0  0  0  0  0  0  0  0
   18.3390  -26.7650   39.6800 C   0  0  0  0  0  0  0  0  0  0  0  0
   17.5310  -25.8530   39.5110 O   0  0  0  0  0  0  0  0  0  0  0  0
   18.3660  -27.9250   38.7600 C   0  0  0  0  0  0  0  0  0  0  0  0
   17.4610  -27.9200   37.7150 O   0  0  0  0  0  0  0  0  0  0  0  0
   19.9070  -30.0170   36.8220 C   0  0  0  0  0  0  0  0  0  0  0  0
   19.9990  -31.1600   36.0240 C   0  0  0  0  0  0  0  0  0  0  0  0
   19.5710  -32.4120   36.4970 C   0  0  0  0  0  0  0  0  0  0  0  0
   19.7080  -33.6080   35.5820 C   0  0  0  0  0  0  0  0  0  0  0  0
   19.9860  -33.1960   34.1430 C   0  0  0  0  0  0  0  0  0  0  0  0
   18.2737  -35.0255   40.0512 H   0  0  0  0  0  0  0  0  0  0  0  0
   18.9471  -33.2765   40.3941 H   0  0  0  0  0  0  0  0  0  0  0  0
   18.2666  -34.5746   37.6816 H   0  0  0  0  0  0  0  0  0  0  0  0
   18.5568  -31.4191   39.6123 H   0  0  0  0  0  0  0  0  0  0  0  0
   21.8201  -28.6937   42.0152 H   0  0  0  0  0  0  0  0  0  0  0  0
   21.9044  -26.8239   43.6698 H   0  0  0  0  0  0  0  0  0  0  0  0
   20.3232  -24.9040   43.4645 H   0  0  0  0  0  0  0  0  0  0  0  0
   17.7980  -24.5560   42.2540 H   0  0  0  0  0  0  0  0  0  0  0  0
   16.5430  -27.9900   37.8900 H   0  0  0  0  0  0  0  0  0  0  0  0
   20.2388  -29.0466   36.4242 H   0  0  0  0  0  0  0  0  0  0  0  0
   20.4135  -31.0785   35.0083 H   0  0  0  0  0  0  0  0  0  0  0  0
   20.5385  -34.2348   35.9387 H   0  0  0  0  0  0  0  0  0  0  0  0
   18.7568  -34.1602   35.5997 H   0  0  0  0  0  0  0  0  0  0  0  0
   20.6012  -32.2842   34.1350 H   0  0  0  0  0  0  0  0  0  0  0  0
   20.5233  -34.0054   33.6271 H   0  0  0  0  0  0  0  0  0  0  0  0
   19.0343  -33.0007   33.6271 H   0  0  0  0  0  0  0  0  0  0  0  0
  1  2  2  0
  2  3  1  0
  3  4  2  0
  4  5  1  0
  5  6  1  0
  6  7  1  0
  7  8  1  0
  8  9  2  0
  9 10  1  0
 10 11  2  0
 11 12  1  0
 12 13  1  0
 12 14  2  0
 14 15  1  0
 15 16  2  0
 15 17  1  0
 17 18  1  0
  5 19  2  0
 19 20  1  0
 20 21  2  0
 21 22  1  0
 22 23  1  0
 21  3  1  0
 17  6  2  0
 14  8  1  0
  1 24  1  0
  1 25  1  0
  2 26  1  0
  4 27  1  0
  9 28  1  0
 10 29  1  0
 11 30  1  0
 13 31  1  0
 18 32  1  0
 19 33  1  0
 20 34  1  0
 22 35  1  0
 22 36  1  0
 23 37  1  0
 23 38  1  0
 23 39  1  0
M  END
>  <meeko>  (2) 
{"is_sidechain": [false], "free_energy": -7.62, "intermolecular_energy": -9.419, "internal_energy": -0.56}

$$$$
cand_046_out
     RDKit          3D

 39 41  0  0  0  0  0  0  0  0999 V2000
   20.4130  -29.9640   34.2900 C   0  0  0  0  0  0  0  0  0  0  0  0
   20.4440  -31.1010   34.9950 C   0  0  0  0  0  0  0  0  0  0  0  0
   19.9310  -31.2120   36.3690 C   0  0  0  0  0  0  0  0  0  0  0  0
   19.8010  -30.0440   37.1440 C   0  0  0  0  0  0  0  0  0  0  0  0
   19.2850  -30.0780   38.4480 C   0  0  0  0  0  0  0  0  0  0  0  0
   19.1940  -28.8300   39.2370 C   0  0  0  0  0  0  0  0  0  0  0  0
   20.1310  -28.7700   40.2620 O   0  0  0  0  0  0  0  0  0  0  0  0
   20.1590  -27.6640   41.0700 C   0  0  0  0  0  0  0  0  0  0  0  0
   21.1070  -27.6520   42.0950 C   0  0  0  0  0  0  0  0  0  0  0  0
   21.1900  -26.5530   42.9540 C   0  0  0  0  0  0  0  0  0  0  0  0
   20.3280  -25.4680   42.7880 C   0  0  0  0  0  0  0  0  0  0  0  0
   19.3840  -25.4820   41.7640 C   0  0  0  0  0  0  0  0  0  0  0  0
   18.5700  -24.3870   41.6590 O   0  0  0  0  0  0  0  0  0  0  0  0
   19.3000  -26.5820   40.9060 C   0  0  0  0  0  0  0  0  0  0  0  0
   18.3220  -26.6370   39.8180 C   0  0  0  0  0  0  0  0  0  0  0  0
   17.5340  -25.7190   39.6040 O   0  0  0  0  0  0  0  0  0  0  0  0
   18.3110  -27.8500   38.9690 C   0  0  0  0  0  0  0  0  0  0  0  0
   17.3940  -27.8860   37.9350 O   0  0  0  0  0  0  0  0  0  0  0  0
   18.9030  -31.3140   38.9800 C   0  0  0  0  0  0  0  0  0  0  0  0
   19.0180  -32.4810   38.2210 C   0  0  0  0  0  0  0  0  0  0  0  0
   19.5300  -32.4480   36.9120 C   0  0  0  0  0  0  0  0  0  0  0  0
   19.6180  -33.7490   36.1460 C   0  0  0  0  0  0  0  0  0  0  0  0
   18.8420  -34.8660   36.8270 C   0  0  0  0  0  0  0  0  0  0  0  0
   20.8120  -29.9413   33.2652 H   0  0  0  0  0  0  0  0  0  0  0  0
   19.9885  -29.0521   34.7353 H   0  0  0  0  0  0  0  0  0  0  0  0
   20.8744  -31.9969   34.5236 H   0  0  0  0  0  0  0  0  0  0  0  0
   20.1121  -29.0797   36.7159 H   0  0  0  0  0  0  0  0  0  0  0  0
   21.7874  -28.5063   42.2261 H   0  0  0  0  0  0  0  0  0  0  0  0
   21.9360  -26.5430   43.7624 H   0  0  0  0  0  0  0  0  0  0  0  0
   20.3940  -24.6033   43.4647 H   0  0  0  0  0  0  0  0  0  0  0  0
   17.6930  -24.4220   41.9850 H   0  0  0  0  0  0  0  0  0  0  0  0
   17.6520  -28.2010   37.0910 H   0  0  0  0  0  0  0  0  0  0  0  0
   18.5084  -31.3675   40.0054 H   0  0  0  0  0  0  0  0  0  0  0  0
   18.7028  -33.4416   38.6546 H   0  0  0  0  0  0  0  0  0  0  0  0
   19.2073  -33.5954   35.1372 H   0  0  0  0  0  0  0  0  0  0  0  0
   20.6760  -34.0473   36.1043 H   0  0  0  0  0  0  0  0  0  0  0  0
   18.9199  -34.7539   37.9185 H   0  0  0  0  0  0  0  0  0  0  0  0
   17.7849  -34.8135   36.5275 H   0  0  0  0  0  0  0  0  0  0  0  0
   19.2601  -35.8384   36.5275 H   0  0  0  0  0  0  0  0  0  0  0  0
  1  2  2  0
  2  3  1  0
  3  4  2  0
  4  5  1  0
  5  6  1  0
  6  7  1  0
  7  8  1  0
  8  9  2  0
  9 10  1  0
 10 11  2  0
 11 12  1  0
 12 13  1  0
 12 14  2  0
 14 15  1  0
 15 16  2  0
 15 17  1  0
 17 18  1  0
  5 19  2  0
 19 20  1  0
 20 21  2  0
 21 22  1  0
 22 23  1  0
 21  3  1  0
 17  6  2  0
 14  8  1  0
  1 24  1  0
  1 25  1  0
  2 26  1  0
  4 27  1  0
  9 28  1  0
 10 29  1  0
 11 30  1  0
 13 31  1  0
 18 32  1  0
 19 33  1  0
 20 34  1  0
 22 35  1  0
 22 36  1  0
 23 37  1  0
 23 38  1  0
 23 39  1  0
M  END
>  <meeko>  (3) 
{"is_sidechain": [false], "free_energy": -7.467, "intermolecular_energy": -9.24, "internal_energy": -0.55}

$$$$
cand_046_out
     RDKit          3D

 39 41  0  0  0  0  0  0  0  0999 V2000
   18.5040  -24.9580   36.7080 C   0  0  0  0  0  0  0  0  0  0  0  0
   18.0390  -25.4070   37.8810 C   0  0  0  0  0  0  0  0  0  0  0  0
   18.7110  -26.4510   38.6690 C   0  0  0  0  0  0  0  0  0  0  0  0
   18.7610  -27.7630   38.1610 C   0  0  0  0  0  0  0  0  0  0  0  0
   19.4180  -28.7950   38.8480 C   0  0  0  0  0  0  0  0  0  0  0  0
   19.4180  -30.1650   38.2910 C   0  0  0  0  0  0  0  0  0  0  0  0
   18.9620  -31.1150   39.1960 O   0  0  0  0  0  0  0  0  0  0  0  0
   18.9080  -32.4290   38.8080 C   0  0  0  0  0  0  0  0  0  0  0  0
   18.4570  -33.3510   39.7530 C   0  0  0  0  0  0  0  0  0  0  0  0
   18.3760  -34.7060   39.4220 C   0  0  0  0  0  0  0  0  0  0  0  0
   18.7450  -35.1370   38.1460 C   0  0  0  0  0  0  0  0  0  0  0  0
   19.1950  -34.2150   37.2050 C   0  0  0  0  0  0  0  0  0  0  0  0
   19.5410  -34.7060   35.9750 O   0  0  0  0  0  0  0  0  0  0  0  0
   19.2770  -32.8600   37.5380 C   0  0  0  0  0  0  0  0  0  0  0  0
   19.7440  -31.8580   36.5780 C   0  0  0  0  0  0  0  0  0  0  0  0
   20.0810  -32.1590   35.4350 O   0  0  0  0  0  0  0  0  0  0  0  0
   19.7990  -30.4500   37.0310 C   0  0  0  0  0  0  0  0  0  0  0  0
   20.2280  -29.5090   36.1130 O   0  0  0  0  0  0  0  0  0  0  0  0
   20.0260  -28.4970   40.0700 C   0  0  0  0  0  0  0  0  0  0  0  0
   19.9940  -27.1980   40.5840 C   0  0  0  0  0  0  0  0  0  0  0  0
   19.3400  -26.1620   39.8960 C   0  0  0  0  0  0  0  0  0  0  0  0
   19.3520  -24.7780   40.5070 C   0  0  0  0  0  0  0  0  0  0  0  0
   19.5960  -24.8200   42.0080 C   0  0  0  0  0  0  0  0  0  0  0  0
   17.9572  -24.1743   36.1633 H   0  0  0  0  0  0  0  0  0  0  0  0
   19.4327  -25.3730   36.2893 H   0  0  0  0  0  0  0  0  0  0  0  0
   17.1079  -24.9732   38.2746 H   0  0  0  0  0  0  0  0  0  0  0  0
   18.2724  -27.9848   37.2007 H   0  0  0  0  0  0  0  0  0  0  0  0
   18.1654  -33.0114   40.7578 H   0  0  0  0  0  0  0  0  0  0  0  0
   18.0214  -35.4336   40.1669 H   0  0  0  0  0  0  0  0  0  0  0  0
   18.6802  -36.2036   37.8848 H   0  0  0  0  0  0  0  0  0  0  0  0
   18.9180  -35.1910   35.4730 H   0  0  0  0  0  0  0  0  0  0  0  0
   20.7000  -29.7810   35.3500 H   0  0  0  0  0  0  0  0  0  0  0  0
   20.5351  -29.2930   40.6333 H   0  0  0  0  0  0  0  0  0  0  0  0
   20.4888  -26.9830   41.5426 H   0  0  0  0  0  0  0  0  0  0  0  0
   20.1505  -24.1877   40.0337 H   0  0  0  0  0  0  0  0  0  0  0  0
   18.3656  -24.3223   40.3357 H   0  0  0  0  0  0  0  0  0  0  0  0
   18.6464  -24.6565   42.5386 H   0  0  0  0  0  0  0  0  0  0  0  0
   20.0067  -25.8020   42.2854 H   0  0  0  0  0  0  0  0  0  0  0  0
   20.3114  -24.0318   42.2854 H   0  0  0  0  0  0  0  0  0  0  0  0
  1  2  2  0
  2  3  1  0
  3  4  2  0
  4  5  1  0
  5  6  1  0
  6  7  1  0
  7  8  1  0
  8  9  2  0
  9 10  1  0
 10 11  2  0
 11 12  1  0
 12 13  1  0
 12 14  2  0
 14 15  1  0
 15 16  2  0
 15 17  1  0
 17 18  1  0
  5 19  2  0
 19 20  1  0
 20 21  2  0
 21 22  1  0
 22 23  1  0
 21  3  1  0
 17  6  2  0
 14  8  1  0
  1 24  1  0
  1 25  1  0
  2 26  1  0
  4 27  1  0
  9 28  1  0
 10 29  1  0
 11 30  1  0
 13 31  1  0
 18 32  1  0
 19 33  1  0
 20 34  1  0
 22 35  1  0
 22 36  1  0
 23 37  1  0
 23 38  1  0
 23 39  1  0
M  END
>  <meeko>  (4) 
{"is_sidechain": [false], "free_energy": -7.182, "intermolecular_energy": -9.068, "internal_energy": -0.371}

$$$$
cand_046_out
     RDKit          3D

 39 41  0  0  0  0  0  0  0  0999 V2000
   22.3490  -27.6920   42.0210 C   0  0  0  0  0  0  0  0  0  0  0  0
   21.0700  -27.3010   42.0630 C   0  0  0  0  0  0  0  0  0  0  0  0
   20.1810  -27.3250   40.8920 C   0  0  0  0  0  0  0  0  0  0  0  0
   20.2400  -28.4210   40.0120 C   0  0  0  0  0  0  0  0  0  0  0  0
   19.3940  -28.5200   38.8980 C   0  0  0  0  0  0  0  0  0  0  0  0
   19.5140  -29.6760   37.9830 C   0  0  0  0  0  0  0  0  0  0  0  0
   19.8710  -29.3070   36.6910 O   0  0  0  0  0  0  0  0  0  0  0  0
   20.0190  -30.2830   35.7400 C   0  0  0  0  0  0  0  0  0  0  0  0
   20.3650  -29.8670   34.4540 C   0  0  0  0  0  0  0  0  0  0  0  0
   20.5330  -30.8110   33.4370 C   0  0  0  0  0  0  0  0  0  0  0  0
   20.3580  -32.1690   33.7080 C   0  0  0  0  0  0  0  0  0  0  0  0
   20.0130  -32.5820   34.9930 C   0  0  0  0  0  0  0  0  0  0  0  0
   19.8560  -33.9280   35.1880 O   0  0  0  0  0  0  0  0  0  0  0  0
   19.8440  -31.6370   36.0080 C   0  0  0  0  0  0  0  0  0  0  0  0
   19.4820  -32.0280   37.3720 C   0  0  0  0  0  0  0  0  0  0  0  0
   19.3160  -33.2040   37.6890 O   0  0  0  0  0  0  0  0  0  0  0  0
   19.3200  -30.9500   38.3730 C   0  0  0  0  0  0  0  0  0  0  0  0
   18.9920  -31.3310   39.6610 O   0  0  0  0  0  0  0  0  0  0  0  0
   18.4790  -27.4890   38.6650 C   0  0  0  0  0  0  0  0  0  0  0  0
   18.4000  -26.3980   39.5340 C   0  0  0  0  0  0  0  0  0  0  0  0
   19.2440  -26.2990   40.6530 C   0  0  0  0  0  0  0  0  0  0  0  0
   19.0980  -25.0950   41.5560 C   0  0  0  0  0  0  0  0  0  0  0  0
   19.7350  -23.8510   40.9540 C   0  0  0  0  0  0  0  0  0  0  0  0
   22.9666  -27.6517   42.9304 H   0  0  0  0  0  0  0  0  0  0  0  0
   22.7828  -28.0537   41.0771 H   0  0  0  0  0  0  0  0  0  0  0  0
   20.6636  -26.9440   43.0208 H   0  0  0  0  0  0  0  0  0  0  0  0
   20.9694  -29.2219   40.2029 H   0  0  0  0  0  0  0  0  0  0  0  0
   20.5055  -28.7971   34.2407 H   0  0  0  0  0  0  0  0  0  0  0  0
   20.8033  -30.4835   32.4223 H   0  0  0  0  0  0  0  0  0  0  0  0
   20.4923  -32.9120   32.9081 H   0  0  0  0  0  0  0  0  0  0  0  0
   20.4410  -34.3890   35.7550 H   0  0  0  0  0  0  0  0  0  0  0  0
   18.1440  -31.1310   40.0070 H   0  0  0  0  0  0  0  0  0  0  0  0
   17.8151  -27.5373   37.7893 H   0  0  0  0  0  0  0  0  0  0  0  0
   17.6649  -25.6033   39.3390 H   0  0  0  0  0  0  0  0  0  0  0  0
   18.0276  -24.9019   41.7203 H   0  0  0  0  0  0  0  0  0  0  0  0
   19.6122  -25.3159   42.5030 H   0  0  0  0  0  0  0  0  0  0  0  0
   20.0755  -23.1861   41.7614 H   0  0  0  0  0  0  0  0  0  0  0  0
   20.5944  -24.1432   40.3327 H   0  0  0  0  0  0  0  0  0  0  0  0
   18.9956  -23.3245   40.3327 H   0  0  0  0  0  0  0  0  0  0  0  0
  1  2  2  0
  2  3  1  0
  3  4  2  0
  4  5  1  0
  5  6  1  0
  6  7  1  0
  7  8  1  0
  8  9  2  0
  9 10  1  0
 10 11  2  0
 11 12  1  0
 12 13  1  0
 12 14  2  0
 14 15  1  0
 15 16  2  0
 15 17  1  0
 17 18  1  0
  5 19  2  0
 19 20  1  0
 20 21  2  0
 21 22  1  0
 22 23  1  0
 21  3  1  0
 17  6  2  0
 14  8  1  0
  1 24  1  0
  1 25  1  0
  2 26  1  0
  4 27  1  0
  9 28  1  0
 10 29  1  0
 11 30  1  0
 13 31  1  0
 18 32  1  0
 19 33  1  0
 20 34  1  0
 22 35  1  0
 22 36  1  0
 23 37  1  0
 23 38  1  0
 23 39  1  0
M  END
>  <meeko>  (5) 
{"is_sidechain": [false], "free_energy": -7.135, "intermolecular_energy": -8.885, "internal_energy": -0.496}

$$$$
cand_046_out
     RDKit          3D

 39 41  0  0  0  0  0  0  0  0999 V2000
   19.3530  -23.5540   38.0660 C   0  0  0  0  0  0  0  0  0  0  0  0
   19.4720  -24.7390   37.4520 C   0  0  0  0  0  0  0  0  0  0  0  0
   19.5430  -26.0170   38.1750 C   0  0  0  0  0  0  0  0  0  0  0  0
   20.2820  -26.0840   39.3710 C   0  0  0  0  0  0  0  0  0  0  0  0
   20.3590  -27.2650   40.1250 C   0  0  0  0  0  0  0  0  0  0  0  0
   21.1720  -27.2970   41.3600 C   0  0  0  0  0  0  0  0  0  0  0  0
   22.1690  -28.2650   41.3240 O   0  0  0  0  0  0  0  0  0  0  0  0
   22.9990  -28.4020   42.4060 C   0  0  0  0  0  0  0  0  0  0  0  0
   23.9770  -29.3950   42.3330 C   0  0  0  0  0  0  0  0  0  0  0  0
   24.8580  -29.5860   43.4010 C   0  0  0  0  0  0  0  0  0  0  0  0
   24.7610  -28.7840   44.5390 C   0  0  0  0  0  0  0  0  0  0  0  0
   23.7850  -27.7940   44.6100 C   0  0  0  0  0  0  0  0  0  0  0  0
   23.7450  -27.0450   45.7550 O   0  0  0  0  0  0  0  0  0  0  0  0
   22.9030  -27.6040   43.5420 C   0  0  0  0  0  0  0  0  0  0  0  0
   21.8630  -26.5740   43.5750 C   0  0  0  0  0  0  0  0  0  0  0  0
   21.7190  -25.8260   44.5400 O   0  0  0  0  0  0  0  0  0  0  0  0
   20.9760  -26.4590   42.3950 C   0  0  0  0  0  0  0  0  0  0  0  0
   20.0070  -25.4740   42.4310 O   0  0  0  0  0  0  0  0  0  0  0  0
   19.6850  -28.3970   39.6580 C   0  0  0  0  0  0  0  0  0  0  0  0
   18.9400  -28.3450   38.4780 C   0  0  0  0  0  0  0  0  0  0  0  0
   18.8580  -27.1620   37.7220 C   0  0  0  0  0  0  0  0  0  0  0  0
   18.0260  -27.1750   36.4590 C   0  0  0  0  0  0  0  0  0  0  0  0
   18.8380  -27.6070   35.2470 C   0  0  0  0  0  0  0  0  0  0  0  0
   19.3046  -22.6293   37.4722 H   0  0  0  0  0  0  0  0  0  0  0  0
   19.3038  -23.5059   39.1638 H   0  0  0  0  0  0  0  0  0  0  0  0
   19.5189  -24.7564   36.3531 H   0  0  0  0  0  0  0  0  0  0  0  0
   20.8129  -25.1875   39.7238 H   0  0  0  0  0  0  0  0  0  0  0  0
   24.0543  -30.0267   41.4358 H   0  0  0  0  0  0  0  0  0  0  0  0
   25.6285  -30.3691   43.3446 H   0  0  0  0  0  0  0  0  0  0  0  0
   25.4551  -28.9340   45.3791 H   0  0  0  0  0  0  0  0  0  0  0  0
   23.3360  -26.2030   45.7490 H   0  0  0  0  0  0  0  0  0  0  0  0
   19.4370  -25.3520   41.6970 H   0  0  0  0  0  0  0  0  0  0  0  0
   19.7420  -29.3377   40.2253 H   0  0  0  0  0  0  0  0  0  0  0  0
   18.4084  -29.2445   38.1341 H   0  0  0  0  0  0  0  0  0  0  0  0
   17.1878  -27.8747   36.5929 H   0  0  0  0  0  0  0  0  0  0  0  0
   17.6647  -26.1517   36.2792 H   0  0  0  0  0  0  0  0  0  0  0  0
   19.7630  -28.0991   35.5819 H   0  0  0  0  0  0  0  0  0  0  0  0
   18.2472  -28.3100   34.6414 H   0  0  0  0  0  0  0  0  0  0  0  0
   19.0909  -26.7242   34.6414 H   0  0  0  0  0  0  0  0  0  0  0  0
  1  2  2  0
  2  3  1  0
  3  4  2  0
  4  5  1  0
  5  6  1  0
  6  7  1  0
  7  8  1  0
  8  9  2  0
  9 10  1  0
 10 11  2  0
 11 12  1  0
 12 13  1  0
 12 14  2  0
 14 15  1  0
 15 16  2  0
 15 17  1  0
 17 18  1  0
  5 19  2  0
 19 20  1  0
 20 21  2  0
 21 22  1  0
 22 23  1  0
 21  3  1  0
 17  6  2  0
 14  8  1  0
  1 24  1  0
  1 25  1  0
  2 26  1  0
  4 27  1  0
  9 28  1  0
 10 29  1  0
 11 30  1  0
 13 31  1  0
 18 32  1  0
 19 33  1  0
 20 34  1  0
 22 35  1  0
 22 36  1  0
 23 37  1  0
 23 38  1  0
 23 39  1  0
M  END
>  <meeko>  (6) 
{"is_sidechain": [false], "free_energy": -7.049, "intermolecular_energy": -8.844, "internal_energy": -0.431}

$$$$
cand_046_out
     RDKit          3D

 39 41  0  0  0  0  0  0  0  0999 V2000
   22.9270  -27.7270   42.6130 C   0  0  0  0  0  0  0  0  0  0  0  0
   21.6470  -27.4430   42.8870 C   0  0  0  0  0  0  0  0  0  0  0  0
   20.7070  -26.9130   41.8890 C   0  0  0  0  0  0  0  0  0  0  0  0
   20.6540  -27.5110   40.6160 C   0  0  0  0  0  0  0  0  0  0  0  0
   19.7550  -27.0750   39.6320 C   0  0  0  0  0  0  0  0  0  0  0  0
   19.7560  -27.7140   38.2990 C   0  0  0  0  0  0  0  0  0  0  0  0
   19.8410  -29.1000   38.3650 O   0  0  0  0  0  0  0  0  0  0  0  0
   19.8500  -29.8190   37.1980 C   0  0  0  0  0  0  0  0  0  0  0  0
   19.9500  -31.2070   37.3100 C   0  0  0  0  0  0  0  0  0  0  0  0
   19.9630  -32.0000   36.1600 C   0  0  0  0  0  0  0  0  0  0  0  0
   19.8730  -31.4060   34.9000 C   0  0  0  0  0  0  0  0  0  0  0  0
   19.7720  -30.0220   34.7900 C   0  0  0  0  0  0  0  0  0  0  0  0
   19.6890  -29.5060   33.5250 O   0  0  0  0  0  0  0  0  0  0  0  0
   19.7610  -29.2290   35.9410 C   0  0  0  0  0  0  0  0  0  0  0  0
   19.6570  -27.7700   35.8710 C   0  0  0  0  0  0  0  0  0  0  0  0
   19.5680  -27.1750   34.7990 O   0  0  0  0  0  0  0  0  0  0  0  0
   19.6600  -27.0210   37.1480 C   0  0  0  0  0  0  0  0  0  0  0  0
   19.5460  -25.6460   37.0710 O   0  0  0  0  0  0  0  0  0  0  0  0
   18.9010  -26.0110   39.9380 C   0  0  0  0  0  0  0  0  0  0  0  0
   18.9330  -25.4120   41.1990 C   0  0  0  0  0  0  0  0  0  0  0  0
   19.8320  -25.8500   42.1880 C   0  0  0  0  0  0  0  0  0  0  0  0
   19.8060  -25.1610   43.5340 C   0  0  0  0  0  0  0  0  0  0  0  0
   19.6900  -23.6500   43.3990 C   0  0  0  0  0  0  0  0  0  0  0  0
   23.5838  -28.1219   43.4021 H   0  0  0  0  0  0  0  0  0  0  0  0
   23.3213  -27.5653   41.5989 H   0  0  0  0  0  0  0  0  0  0  0  0
   21.2810  -27.6150   43.9100 H   0  0  0  0  0  0  0  0  0  0  0  0
   21.3362  -28.3429   40.3867 H   0  0  0  0  0  0  0  0  0  0  0  0
   20.0185  -31.6757   38.3028 H   0  0  0  0  0  0  0  0  0  0  0  0
   20.0442  -33.0935   36.2475 H   0  0  0  0  0  0  0  0  0  0  0  0
   19.8819  -32.0310   33.9948 H   0  0  0  0  0  0  0  0  0  0  0  0
   20.4420  -29.5060   32.9700 H   0  0  0  0  0  0  0  0  0  0  0  0
   20.0300  -25.1020   37.6620 H   0  0  0  0  0  0  0  0  0  0  0  0
   18.1968  -25.6421   39.1777 H   0  0  0  0  0  0  0  0  0  0  0  0
   18.2439  -24.5842   41.4225 H   0  0  0  0  0  0  0  0  0  0  0  0
   18.9441  -25.5335   44.1070 H   0  0  0  0  0  0  0  0  0  0  0  0
   20.7524  -25.3844   44.0482 H   0  0  0  0  0  0  0  0  0  0  0  0
   19.6550  -23.1941   44.3995 H   0  0  0  0  0  0  0  0  0  0  0  0
   20.5611  -23.2630   42.8500 H   0  0  0  0  0  0  0  0  0  0  0  0
   18.7701  -23.4005   42.8500 H   0  0  0  0  0  0  0  0  0  0  0  0
  1  2  2  0
  2  3  1  0
  3  4  2  0
  4  5  1  0
  5  6  1  0
  6  7  1  0
  7  8  1  0
  8  9  2  0
  9 10  1  0
 10 11  2  0
 11 12  1  0
 12 13  1  0
 12 14  2  0
 14 15  1  0
 15 16  2  0
 15 17  1  0
 17 18  1  0
  5 19  2  0
 19 20  1  0
 20 21  2  0
 21 22  1  0
 22 23  1  0
 21  3  1  0
 17  6  2  0
 14  8  1  0
  1 24  1  0
  1 25  1  0
  2 26  1  0
  4 27  1  0
  9 28  1  0
 10 29  1  0
 11 30  1  0
 13 31  1  0
 18 32  1  0
 19 33  1  0
 20 34  1  0
 22 35  1  0
 22 36  1  0
 23 37  1  0
 23 38  1  0
 23 39  1  0
M  END
>  <meeko>  (7) 
{"is_sidechain": [false], "free_energy": -6.919, "intermolecular_energy": -8.834, "internal_energy": -0.28}

$$$$
cand_046_out
     RDKit          3D

 39 41  0  0  0  0  0  0  0  0999 V2000
   22.1890  -25.3120   45.5810 C   0  0  0  0  0  0  0  0  0  0  0  0
   22.5710  -26.5750   45.3500 C   0  0  0  0  0  0  0  0  0  0  0  0
   22.5980  -27.1760   44.0080 C   0  0  0  0  0  0  0  0  0  0  0  0
   21.6810  -26.7260   43.0400 C   0  0  0  0  0  0  0  0  0  0  0  0
   21.6800  -27.2340   41.7330 C   0  0  0  0  0  0  0  0  0  0  0  0
   20.6780  -26.7530   40.7570 C   0  0  0  0  0  0  0  0  0  0  0  0
   20.5810  -25.3660   40.7230 O   0  0  0  0  0  0  0  0  0  0  0  0
   19.6890  -24.7850   39.8590 C   0  0  0  0  0  0  0  0  0  0  0  0
   19.6150  -23.3920   39.8680 C   0  0  0  0  0  0  0  0  0  0  0  0
   18.7270  -22.7360   39.0100 C   0  0  0  0  0  0  0  0  0  0  0  0
   17.9180  -23.4730   38.1450 C   0  0  0  0  0  0  0  0  0  0  0  0
   17.9940  -24.8640   38.1370 C   0  0  0  0  0  0  0  0  0  0  0  0
   17.1710  -25.5230   37.2650 O   0  0  0  0  0  0  0  0  0  0  0  0
   18.8800  -25.5190   38.9970 C   0  0  0  0  0  0  0  0  0  0  0  0
   18.9920  -26.9790   39.0210 C   0  0  0  0  0  0  0  0  0  0  0  0
   18.3170  -27.6950   38.2850 O   0  0  0  0  0  0  0  0  0  0  0  0
   19.9570  -27.5750   39.9720 C   0  0  0  0  0  0  0  0  0  0  0  0
   20.0660  -28.9540   39.9770 O   0  0  0  0  0  0  0  0  0  0  0  0
   22.6150  -28.2190   41.4020 C   0  0  0  0  0  0  0  0  0  0  0  0
   23.5390  -28.6700   42.3480 C   0  0  0  0  0  0  0  0  0  0  0  0
   23.5440  -28.1590   43.6570 C   0  0  0  0  0  0  0  0  0  0  0  0
   24.5780  -28.6880   44.6270 C   0  0  0  0  0  0  0  0  0  0  0  0
   25.2650  -29.9390   44.1010 C   0  0  0  0  0  0  0  0  0  0  0  0
   22.1892  -24.9163   46.6074 H   0  0  0  0  0  0  0  0  0  0  0  0
   21.8751  -24.6706   44.7443 H   0  0  0  0  0  0  0  0  0  0  0  0
   22.8796  -27.1929   46.2061 H   0  0  0  0  0  0  0  0  0  0  0  0
   20.9458  -25.9557   43.3158 H   0  0  0  0  0  0  0  0  0  0  0  0
   20.2541  -22.8107   40.5489 H   0  0  0  0  0  0  0  0  0  0  0  0
   18.6663  -21.6377   39.0171 H   0  0  0  0  0  0  0  0  0  0  0  0
   17.2204  -22.9561   37.4696 H   0  0  0  0  0  0  0  0  0  0  0  0
   17.4470  -25.6700   36.3830 H   0  0  0  0  0  0  0  0  0  0  0  0
   20.5670  -29.3810   40.6440 H   0  0  0  0  0  0  0  0  0  0  0  0
   22.6234  -28.6431   40.3871 H   0  0  0  0  0  0  0  0  0  0  0  0
   24.2742  -29.4372   42.0636 H   0  0  0  0  0  0  0  0  0  0  0  0
   25.3373  -27.9102   44.7959 H   0  0  0  0  0  0  0  0  0  0  0  0
   24.0630  -28.9510   45.5627 H   0  0  0  0  0  0  0  0  0  0  0  0
   25.6032  -30.5549   44.9473 H   0  0  0  0  0  0  0  0  0  0  0  0
   24.5570  -30.5157   43.4877 H   0  0  0  0  0  0  0  0  0  0  0  0
   26.1315  -29.6511   43.4877 H   0  0  0  0  0  0  0  0  0  0  0  0
  1  2  2  0
  2  3  1  0
  3  4  2  0
  4  5  1  0
  5  6  1  0
  6  7  1  0
  7  8  1  0
  8  9  2  0
  9 10  1  0
 10 11  2  0
 11 12  1  0
 12 13  1  0
 12 14  2  0
 14 15  1  0
 15 16  2  0
 15 17  1  0
 17 18  1  0
  5 19  2  0
 19 20  1  0
 20 21  2  0
 21 22  1  0
 22 23  1  0
 21  3  1  0
 17  6  2  0
 14  8  1  0
  1 24  1  0
  1 25  1  0
  2 26  1  0
  4 27  1  0
  9 28  1  0
 10 29  1  0
 11 30  1  0
 13 31  1  0
 18 32  1  0
 19 33  1  0
 20 34  1  0
 22 35  1  0
 22 36  1  0
 23 37  1  0
 23 38  1  0
 23 39  1  0
M  END
>  <meeko>  (8) 
{"is_sidechain": [false], "free_energy": -6.909, "intermolecular_energy": -8.778, "internal_energy": -0.324}

$$$$
cand_046_out
     RDKit          3D

 39 41  0  0  0  0  0  0  0  0999 V2000
   20.4300  -31.5600   34.6000 C   0  0  0  0  0  0  0  0  0  0  0  0
   19.9940  -32.2830   35.6400 C   0  0  0  0  0  0  0  0  0  0  0  0
   19.6590  -31.6950   36.9450 C   0  0  0  0  0  0  0  0  0  0  0  0
   19.6770  -30.2950   37.0890 C   0  0  0  0  0  0  0  0  0  0  0  0
   19.3330  -29.6720   38.2970 C   0  0  0  0  0  0  0  0  0  0  0  0
   19.3970  -28.1990   38.4100 C   0  0  0  0  0  0  0  0  0  0  0  0
   18.6270  -27.5510   37.4510 O   0  0  0  0  0  0  0  0  0  0  0  0
   18.5940  -26.1800   37.4430 C   0  0  0  0  0  0  0  0  0  0  0  0
   17.8200  -25.5710   36.4540 C   0  0  0  0  0  0  0  0  0  0  0  0
   17.7410  -24.1770   36.3900 C   0  0  0  0  0  0  0  0  0  0  0  0
   18.4350  -23.3950   37.3160 C   0  0  0  0  0  0  0  0  0  0  0  0
   19.2060  -24.0050   38.3010 C   0  0  0  0  0  0  0  0  0  0  0  0
   19.8600  -23.1790   39.1750 O   0  0  0  0  0  0  0  0  0  0  0  0
   19.2850  -25.3990   38.3630 C   0  0  0  0  0  0  0  0  0  0  0  0
   20.0850  -26.0810   39.3830 C   0  0  0  0  0  0  0  0  0  0  0  0
   20.7180  -25.4610   40.2350 O   0  0  0  0  0  0  0  0  0  0  0  0
   20.1070  -27.5610   39.3590 C   0  0  0  0  0  0  0  0  0  0  0  0
   20.8530  -28.1950   40.3350 O   0  0  0  0  0  0  0  0  0  0  0  0
   18.9720  -30.4780   39.3810 C   0  0  0  0  0  0  0  0  0  0  0  0
   18.9390  -31.8690   39.2530 C   0  0  0  0  0  0  0  0  0  0  0  0
   19.2800  -32.4950   38.0420 C   0  0  0  0  0  0  0  0  0  0  0  0
   19.2140  -34.0040   37.9730 C   0  0  0  0  0  0  0  0  0  0  0  0
   18.5140  -34.6000   39.1850 C   0  0  0  0  0  0  0  0  0  0  0  0
   20.6656  -32.0549   33.6463 H   0  0  0  0  0  0  0  0  0  0  0  0
   20.5525  -30.4714   34.6997 H   0  0  0  0  0  0  0  0  0  0  0  0
   19.8812  -33.3696   35.5112 H   0  0  0  0  0  0  0  0  0  0  0  0
   19.9689  -29.6726   36.2303 H   0  0  0  0  0  0  0  0  0  0  0  0
   17.2727  -26.1875   35.7257 H   0  0  0  0  0  0  0  0  0  0  0  0
   17.1322  -23.6958   35.6103 H   0  0  0  0  0  0  0  0  0  0  0  0
   18.3722  -22.2979   37.2668 H   0  0  0  0  0  0  0  0  0  0  0  0
   20.6950  -23.4270   39.5180 H   0  0  0  0  0  0  0  0  0  0  0  0
   21.4720  -27.7070   40.8420 H   0  0  0  0  0  0  0  0  0  0  0  0
   18.7116  -30.0129   40.3432 H   0  0  0  0  0  0  0  0  0  0  0  0
   18.6411  -32.4844   40.1147 H   0  0  0  0  0  0  0  0  0  0  0  0
   18.6629  -34.2943   37.0663 H   0  0  0  0  0  0  0  0  0  0  0  0
   20.2444  -34.3885   37.9527 H   0  0  0  0  0  0  0  0  0  0  0  0
   18.9744  -34.2080   40.1039 H   0  0  0  0  0  0  0  0  0  0  0  0
   17.4485  -34.3276   39.1638 H   0  0  0  0  0  0  0  0  0  0  0  0
   18.6130  -35.6953   39.1638 H   0  0  0  0  0  0  0  0  0  0  0  0
  1  2  2  0
  2  3  1  0
  3  4  2  0
  4  5  1  0
  5  6  1  0
  6  7  1  0
  7  8  1  0
  8  9  2  0
  9 10  1  0
 10 11  2  0
 11 12  1  0
 12 13  1  0
 12 14  2  0
 14 15  1  0
 15 16  2  0
 15 17  1  0
 17 18  1  0
  5 19  2  0
 19 20  1  0
 20 21  2  0
 21 22  1  0
 22 23  1  0
 21  3  1  0
 17  6  2  0
 14  8  1  0
  1 24  1  0
  1 25  1  0
  2 26  1  0
  4 27  1  0
  9 28  1  0
 10 29  1  0
 11 30  1  0
 13 31  1  0
 18 32  1  0
 19 33  1  0
 20 34  1  0
 22 35  1  0
 22 36  1  0
 23 37  1  0
 23 38  1  0
 23 39  1  0
M  END
>  <meeko>  (9) 
{"is_sidechain": [false], "free_energy": -6.792, "intermolecular_energy": -8.554, "internal_energy": -0.404}

$$$$
