cand_048_out
     RDKit          3D

 37 39  0  0  0  0  0  0  0  0999 V2000
   19.6760  -24.0210   40.4100 C   0  0  0  0  0  0  0  0  0  0  0  0
   19.0270  -25.0870   40.8960 C   0  0  0  0  0  0  0  0  0  0  0  0
   19.1120  -26.4370   40.3120 C   0  0  0  0  0  0  0  0  0  0  0  0
   18.2680  -26.7750   39.2410 C   0  0  0  0  0  0  0  0  0  0  0  0
   18.3450  -28.0310   38.6330 C   0  0  0  0  0  0  0  0  0  0  0  0
   19.2730  -28.9810   39.0700 C   0  0  0  0  0  0  0  0  0  0  0  0
   19.3170  -30.3140   38.4360 C   0  0  0  0  0  0  0  0  0  0  0  0
   18.8910  -31.3310   39.2830 O   0  0  0  0  0  0  0  0  0  0  0  0
   18.8830  -32.6210   38.8180 C   0  0  0  0  0  0  0  0  0  0  0  0
   18.4630  -33.6120   39.7070 C   0  0  0  0  0  0  0  0  0  0  0  0
   18.4290  -34.9460   39.2990 C   0  0  0  0  0  0  0  0  0  0  0  0
   18.8130  -35.2900   38.0010 C   0  0  0  0  0  0  0  0  0  0  0  0
   19.2320  -34.3000   37.1160 C   0  0  0  0  0  0  0  0  0  0  0  0
   19.5940  -34.7060   35.8610 O   0  0  0  0  0  0  0  0  0  0  0  0
   19.2670  -32.9640   37.5260 C   0  0  0  0  0  0  0  0  0  0  0  0
   19.7000  -31.8940   36.6270 C   0  0  0  0  0  0  0  0  0  0  0  0
   20.0460  -32.1150   35.4690 O   0  0  0  0  0  0  0  0  0  0  0  0
   19.7080  -30.5120   37.1630 C   0  0  0  0  0  0  0  0  0  0  0  0
   20.1050  -29.5060   36.3030 O   0  0  0  0  0  0  0  0  0  0  0  0
   20.1170  -28.6450   40.1390 C   0  0  0  0  0  0  0  0  0  0  0  0
   20.0640  -27.3790   40.7550 C   0  0  0  0  0  0  0  0  0  0  0  0
   20.9560  -27.0970   41.8940 C   0  0  0  0  0  0  0  0  0  0  0  0
   22.1770  -27.6310   42.0320 C   0  0  0  0  0  0  0  0  0  0  0  0
   19.5663  -23.0410   40.8974 H   0  0  0  0  0  0  0  0  0  0  0  0
   20.3187  -24.1255   39.5234 H   0  0  0  0  0  0  0  0  0  0  0  0
   18.3929  -24.9463   41.7838 H   0  0  0  0  0  0  0  0  0  0  0  0
   17.5356  -26.0401   38.8755 H   0  0  0  0  0  0  0  0  0  0  0  0
   17.6678  -28.2749   37.8012 H   0  0  0  0  0  0  0  0  0  0  0  0
   18.1589  -33.3413   40.7289 H   0  0  0  0  0  0  0  0  0  0  0  0
   18.0996  -35.7270   40.0000 H   0  0  0  0  0  0  0  0  0  0  0  0
   18.7845  -36.3412   37.6784 H   0  0  0  0  0  0  0  0  0  0  0  0
   19.9870  -34.0990   35.2660 H   0  0  0  0  0  0  0  0  0  0  0  0
   19.9470  -29.5860   35.3830 H   0  0  0  0  0  0  0  0  0  0  0  0
   20.8390  -29.3894   40.5059 H   0  0  0  0  0  0  0  0  0  0  0  0
   20.5991  -26.4093   42.6748 H   0  0  0  0  0  0  0  0  0  0  0  0
   22.7922  -27.3779   42.9081 H   0  0  0  0  0  0  0  0  0  0  0  0
   22.5643  -28.3225   41.2692 H   0  0  0  0  0  0  0  0  0  0  0  0
  1  2  2  0
  2  3  1  0
  3  4  2  0
  4  5  1  0
  5  6  2  0
  6  7  1  0
  7  8  1  0
  8  9  1  0
  9 10  2  0
 10 11  1  0
 11 12  2  0
 12 13  1  0
 13 14  1  0
 13 15  2  0
 15 16  1  0
 16 17  2  0
 16 18  1  0
 18 19  1  0
  6 20  1  0
 20 21  2  0
 21 22  1  0
 22 23  2  0
 21  3  1  0
 18  7  2  0
 15  9  1  0
  1 24  1  0
  1 25  1  0
  2 26  1  0
  4 27  1  0
  5 28  1  0
 10 29  1  0
 11 30  1  0
 12 31  1  0
 14 32  1  0
 19 33  1  0
 20 34  1  0
 22 35  1  0
 23 36  1  0
 23 37  1  0
M  END
>  <meeko>  (1) 
{"is_sidechain": [false], "free_energy": -7.992, "intermolecular_energy": -9.861, "internal_energy": -0.533}

$$$$
cand_048_out
     RDKit          3D

 37 39  0  0  0  0  0  0  0  0999 V2000
   19.7270  -33.4860   34.2670 C   0  0  0  0  0  0  0  0  0  0  0  0
   19.7600  -33.5730   35.6030 C   0  0  0  0  0  0  0  0  0  0  0  0
   19.6340  -32.4150   36.5060 C   0  0  0  0  0  0  0  0  0  0  0  0
   20.0640  -31.1530   36.0650 C   0  0  0  0  0  0  0  0  0  0  0  0
   19.9260  -30.0220   36.8750 C   0  0  0  0  0  0  0  0  0  0  0  0
   19.3440  -30.1190   38.1430 C   0  0  0  0  0  0  0  0  0  0  0  0
   19.2360  -28.9180   38.9970 C   0  0  0  0  0  0  0  0  0  0  0  0
   20.1630  -28.9050   40.0330 O   0  0  0  0  0  0  0  0  0  0  0  0
   20.1700  -27.8450   40.9030 C   0  0  0  0  0  0  0  0  0  0  0  0
   21.1070  -27.8820   41.9370 C   0  0  0  0  0  0  0  0  0  0  0  0
   21.1690  -26.8340   42.8570 C   0  0  0  0  0  0  0  0  0  0  0  0
   20.2980  -25.7490   42.7420 C   0  0  0  0  0  0  0  0  0  0  0  0
   19.3640  -25.7150   41.7100 C   0  0  0  0  0  0  0  0  0  0  0  0
   18.5430  -24.6240   41.6560 O   0  0  0  0  0  0  0  0  0  0  0  0
   19.3010  -26.7650   40.7890 C   0  0  0  0  0  0  0  0  0  0  0  0
   18.3360  -26.7680   39.6900 C   0  0  0  0  0  0  0  0  0  0  0  0
   17.5410  -25.8470   39.5180 O   0  0  0  0  0  0  0  0  0  0  0  0
   18.3460  -27.9330   38.7740 C   0  0  0  0  0  0  0  0  0  0  0  0
   17.4390  -27.9210   37.7300 O   0  0  0  0  0  0  0  0  0  0  0  0
   18.9130  -31.3790   38.5850 C   0  0  0  0  0  0  0  0  0  0  0  0
   19.0320  -32.5260   37.7770 C   0  0  0  0  0  0  0  0  0  0  0  0
   18.5890  -33.8280   38.3090 C   0  0  0  0  0  0  0  0  0  0  0  0
   18.5870  -34.1360   39.6130 C   0  0  0  0  0  0  0  0  0  0  0  0
   19.8274  -34.3939   33.6541 H   0  0  0  0  0  0  0  0  0  0  0  0
   19.5995  -32.5067   33.7826 H   0  0  0  0  0  0  0  0  0  0  0  0
   19.8889  -34.5683   36.0533 H   0  0  0  0  0  0  0  0  0  0  0  0
   20.5162  -31.0529   35.0672 H   0  0  0  0  0  0  0  0  0  0  0  0
   20.2788  -29.0457   36.5113 H   0  0  0  0  0  0  0  0  0  0  0  0
   21.7952  -28.7354   42.0267 H   0  0  0  0  0  0  0  0  0  0  0  0
   21.9052  -26.8631   43.6738 H   0  0  0  0  0  0  0  0  0  0  0  0
   20.3496  -24.9222   43.4657 H   0  0  0  0  0  0  0  0  0  0  0  0
   17.8250  -24.6050   41.0540 H   0  0  0  0  0  0  0  0  0  0  0  0
   16.6060  -27.5070   37.8390 H   0  0  0  0  0  0  0  0  0  0  0  0
   18.4711  -31.4731   39.5879 H   0  0  0  0  0  0  0  0  0  0  0  0
   18.2406  -34.5891   37.5953 H   0  0  0  0  0  0  0  0  0  0  0  0
   18.2432  -35.1273   39.9435 H   0  0  0  0  0  0  0  0  0  0  0  0
   18.9291  -33.3976   40.3531 H   0  0  0  0  0  0  0  0  0  0  0  0
  1  2  2  0
  2  3  1  0
  3  4  2  0
  4  5  1  0
  5  6  2  0
  6  7  1  0
  7  8  1  0
  8  9  1  0
  9 10  2  0
 10 11  1  0
 11 12  2  0
 12 13  1  0
 13 14  1  0
 13 15  2  0
 15 16  1  0
 16 17  2  0
 16 18  1  0
 18 19  1  0
  6 20  1  0
 20 21  2  0
 21 22  1  0
 22 23  2  0
 21  3  1  0
 18  7  2  0
 15  9  1  0
  1 24  1  0
  1 25  1  0
  2 26  1  0
  4 27  1  0
  5 28  1  0
 10 29  1  0
 11 30  1  0
 12 31  1  0
 14 32  1  0
 19 33  1  0
 20 34  1  0
 22 35  1  0
 23 36  1  0
 23 37  1  0
M  END
>  <meeko>  (2) 
{"is_sidechain": [false], "free_energy": -7.656, "intermolecular_energy": -9.403, "internal_energy": -0.577}

$$$$
cand_048_out
     RDKit          3D

 37 39  0  0  0  0  0  0  0  0999 V2000
   18.9380  -34.8560   36.4900 C   0  0  0  0  0  0  0  0  0  0  0  0
   19.5960  -33.7410   36.1500 C   0  0  0  0  0  0  0  0  0  0  0  0
   19.4920  -32.4680   36.8860 C   0  0  0  0  0  0  0  0  0  0  0  0
   19.0140  -32.4770   38.2070 C   0  0  0  0  0  0  0  0  0  0  0  0
   18.9390  -31.2980   38.9530 C   0  0  0  0  0  0  0  0  0  0  0  0
   19.3480  -30.0790   38.4050 C   0  0  0  0  0  0  0  0  0  0  0  0
   19.2300  -28.8380   39.1980 C   0  0  0  0  0  0  0  0  0  0  0  0
   20.1440  -28.7740   40.2430 O   0  0  0  0  0  0  0  0  0  0  0  0
   20.1410  -27.6730   41.0610 C   0  0  0  0  0  0  0  0  0  0  0  0
   21.0660  -27.6580   42.1060 C   0  0  0  0  0  0  0  0  0  0  0  0
   21.1170  -26.5670   42.9750 C   0  0  0  0  0  0  0  0  0  0  0  0
   20.2470  -25.4900   42.7980 C   0  0  0  0  0  0  0  0  0  0  0  0
   19.3250  -25.5070   41.7540 C   0  0  0  0  0  0  0  0  0  0  0  0
   18.5020  -24.4210   41.6390 O   0  0  0  0  0  0  0  0  0  0  0  0
   19.2730  -26.6010   40.8850 C   0  0  0  0  0  0  0  0  0  0  0  0
   18.3200  -26.6580   39.7760 C   0  0  0  0  0  0  0  0  0  0  0  0
   17.5260  -25.7480   39.5510 O   0  0  0  0  0  0  0  0  0  0  0  0
   18.3410  -27.8660   38.9180 C   0  0  0  0  0  0  0  0  0  0  0  0
   17.4470  -27.9060   37.8650 O   0  0  0  0  0  0  0  0  0  0  0  0
   19.8260  -30.0670   37.0860 C   0  0  0  0  0  0  0  0  0  0  0  0
   19.9230  -31.2480   36.3240 C   0  0  0  0  0  0  0  0  0  0  0  0
   20.4040  -31.1670   34.9330 C   0  0  0  0  0  0  0  0  0  0  0  0
   20.4080  -30.0370   34.2120 C   0  0  0  0  0  0  0  0  0  0  0  0
   19.0634  -35.7720   35.8940 H   0  0  0  0  0  0  0  0  0  0  0  0
   18.2719  -34.8563   37.3654 H   0  0  0  0  0  0  0  0  0  0  0  0
   20.2535  -33.7768   35.2689 H   0  0  0  0  0  0  0  0  0  0  0  0
   18.6940  -33.4265   38.6608 H   0  0  0  0  0  0  0  0  0  0  0  0
   18.5538  -31.3295   39.9829 H   0  0  0  0  0  0  0  0  0  0  0  0
   21.7540  -28.5050   42.2446 H   0  0  0  0  0  0  0  0  0  0  0  0
   21.8439  -26.5559   43.8005 H   0  0  0  0  0  0  0  0  0  0  0  0
   20.2894  -24.6293   43.4817 H   0  0  0  0  0  0  0  0  0  0  0  0
   18.1150  -24.2110   40.8120 H   0  0  0  0  0  0  0  0  0  0  0  0
   16.5380  -27.7370   38.0160 H   0  0  0  0  0  0  0  0  0  0  0  0
   20.1327  -29.1115   36.6355 H   0  0  0  0  0  0  0  0  0  0  0  0
   20.7809  -32.0858   34.4599 H   0  0  0  0  0  0  0  0  0  0  0  0
   20.7814  -30.0461   33.1774 H   0  0  0  0  0  0  0  0  0  0  0  0
   20.0379  -29.1006   34.6550 H   0  0  0  0  0  0  0  0  0  0  0  0
  1  2  2  0
  2  3  1  0
  3  4  2  0
  4  5  1  0
  5  6  2  0
  6  7  1  0
  7  8  1  0
  8  9  1  0
  9 10  2  0
 10 11  1  0
 11 12  2  0
 12 13  1  0
 13 14  1  0
 13 15  2  0
 15 16  1  0
 16 17  2  0
 16 18  1  0
 18 19  1  0
  6 20  1  0
 20 21  2  0
 21 22  1  0
 22 23  2  0
 21  3  1  0
 18  7  2  0
 15  9  1  0
  1 24  1  0
  1 25  1  0
  2 26  1  0
  4 27  1  0
  5 28  1  0
 10 29  1  0
 11 30  1  0
 12 31  1  0
 14 32  1  0
 19 33  1  0
 20 34  1  0
 22 35  1  0
 23 36  1  0
 23 37  1  0
M  END
>  <meeko>  (3) 
{"is_sidechain": [false], "free_energy": -7.564, "intermolecular_energy": -9.328, "internal_energy": -0.538}

$$$$
cand_048_out
     RDKit          3D

 37 39  0  0  0  0  0  0  0  0999 V2000
   19.4490  -24.4110   41.8320 C   0  0  0  0  0  0  0  0  0  0  0  0
   19.5700  -24.6410   40.5190 C   0  0  0  0  0  0  0  0  0  0  0  0
   19.5240  -25.9840   39.9130 C   0  0  0  0  0  0  0  0  0  0  0  0
   20.2380  -27.0330   40.5160 C   0  0  0  0  0  0  0  0  0  0  0  0
   20.1880  -28.3290   39.9950 C   0  0  0  0  0  0  0  0  0  0  0  0
   19.4160  -28.6160   38.8650 C   0  0  0  0  0  0  0  0  0  0  0  0
   19.4020  -29.9850   38.3110 C   0  0  0  0  0  0  0  0  0  0  0  0
   19.0050  -30.9410   39.2400 O   0  0  0  0  0  0  0  0  0  0  0  0
   18.9500  -32.2560   38.8560 C   0  0  0  0  0  0  0  0  0  0  0  0
   18.5620  -33.1840   39.8240 C   0  0  0  0  0  0  0  0  0  0  0  0
   18.4840  -34.5390   39.4990 C   0  0  0  0  0  0  0  0  0  0  0  0
   18.7910  -34.9670   38.2060 C   0  0  0  0  0  0  0  0  0  0  0  0
   19.1780  -34.0400   37.2410 C   0  0  0  0  0  0  0  0  0  0  0  0
   19.4640  -34.5280   35.9960 O   0  0  0  0  0  0  0  0  0  0  0  0
   19.2570  -32.6830   37.5680 C   0  0  0  0  0  0  0  0  0  0  0  0
   19.6590  -31.6770   36.5840 C   0  0  0  0  0  0  0  0  0  0  0  0
   19.9390  -31.9740   35.4250 O   0  0  0  0  0  0  0  0  0  0  0  0
   19.7200  -30.2660   37.0340 C   0  0  0  0  0  0  0  0  0  0  0  0
   20.0870  -29.3210   36.0950 O   0  0  0  0  0  0  0  0  0  0  0  0
   18.7030  -27.5690   38.2620 C   0  0  0  0  0  0  0  0  0  0  0  0
   18.7290  -26.2600   38.7800 C   0  0  0  0  0  0  0  0  0  0  0  0
   17.9830  -25.1970   38.0840 C   0  0  0  0  0  0  0  0  0  0  0  0
   18.3710  -24.6540   36.9220 C   0  0  0  0  0  0  0  0  0  0  0  0
   19.4928  -23.3813   42.2163 H   0  0  0  0  0  0  0  0  0  0  0  0
   19.3057  -25.2517   42.5267 H   0  0  0  0  0  0  0  0  0  0  0  0
   19.7121  -23.7771   39.8530 H   0  0  0  0  0  0  0  0  0  0  0  0
   20.8450  -26.8315   41.4109 H   0  0  0  0  0  0  0  0  0  0  0  0
   20.7625  -29.1323   40.4794 H   0  0  0  0  0  0  0  0  0  0  0  0
   18.3179  -32.8474   40.8424 H   0  0  0  0  0  0  0  0  0  0  0  0
   18.1803  -35.2705   40.2623 H   0  0  0  0  0  0  0  0  0  0  0  0
   18.7274  -36.0348   37.9497 H   0  0  0  0  0  0  0  0  0  0  0  0
   20.3530  -34.6900   35.7490 H   0  0  0  0  0  0  0  0  0  0  0  0
   19.8930  -28.4160   36.2400 H   0  0  0  0  0  0  0  0  0  0  0  0
   18.1078  -27.7762   37.3605 H   0  0  0  0  0  0  0  0  0  0  0  0
   17.0546  -24.8281   38.5445 H   0  0  0  0  0  0  0  0  0  0  0  0
   17.7660  -23.8625   36.4556 H   0  0  0  0  0  0  0  0  0  0  0  0
   19.2945  -24.9998   36.4345 H   0  0  0  0  0  0  0  0  0  0  0  0
  1  2  2  0
  2  3  1  0
  3  4  2  0
  4  5  1  0
  5  6  2  0
  6  7  1  0
  7  8  1  0
  8  9  1  0
  9 10  2  0
 10 11  1  0
 11 12  2  0
 12 13  1  0
 13 14  1  0
 13 15  2  0
 15 16  1  0
 16 17  2  0
 16 18  1  0
 18 19  1  0
  6 20  1  0
 20 21  2  0
 21 22  1  0
 22 23  2  0
 21  3  1  0
 18  7  2  0
 15  9  1  0
  1 24  1  0
  1 25  1  0
  2 26  1  0
  4 27  1  0
  5 28  1  0
 10 29  1  0
 11 30  1  0
 12 31  1  0
 14 32  1  0
 19 33  1  0
 20 34  1  0
 22 35  1  0
 23 36  1  0
 23 37  1  0
M  END
>  <meeko>  (4) 
{"is_sidechain": [false], "free_energy": -7.205, "intermolecular_energy": -8.996, "internal_energy": -0.427}

$$$$
cand_048_out
     RDKit          3D

 37 39  0  0  0  0  0  0  0  0999 V2000
   19.5280  -23.8340   41.2140 C   0  0  0  0  0  0  0  0  0  0  0  0
   19.0510  -25.0460   41.5230 C   0  0  0  0  0  0  0  0  0  0  0  0
   19.2040  -26.2330   40.6640 C   0  0  0  0  0  0  0  0  0  0  0  0
   18.4080  -26.3540   39.5130 C   0  0  0  0  0  0  0  0  0  0  0  0
   18.5520  -27.4450   38.6510 C   0  0  0  0  0  0  0  0  0  0  0  0
   19.5010  -28.4390   38.9080 C   0  0  0  0  0  0  0  0  0  0  0  0
   19.6140  -29.6000   38.0020 C   0  0  0  0  0  0  0  0  0  0  0  0
   19.9130  -29.2390   36.6930 O   0  0  0  0  0  0  0  0  0  0  0  0
   20.0450  -30.2230   35.7470 C   0  0  0  0  0  0  0  0  0  0  0  0
   20.3290  -29.8140   34.4430 C   0  0  0  0  0  0  0  0  0  0  0  0
   20.4780  -30.7650   33.4320 C   0  0  0  0  0  0  0  0  0  0  0  0
   20.3450  -32.1230   33.7240 C   0  0  0  0  0  0  0  0  0  0  0  0
   20.0610  -32.5290   35.0250 C   0  0  0  0  0  0  0  0  0  0  0  0
   19.9440  -33.8740   35.2410 O   0  0  0  0  0  0  0  0  0  0  0  0
   19.9110  -31.5770   36.0370 C   0  0  0  0  0  0  0  0  0  0  0  0
   19.6130  -31.9610   37.4180 C   0  0  0  0  0  0  0  0  0  0  0  0
   19.4880  -33.1360   37.7550 O   0  0  0  0  0  0  0  0  0  0  0  0
   19.4650  -30.8730   38.4140 C   0  0  0  0  0  0  0  0  0  0  0  0
   19.1970  -31.2460   39.7180 O   0  0  0  0  0  0  0  0  0  0  0  0
   20.2970  -28.3200   40.0570 C   0  0  0  0  0  0  0  0  0  0  0  0
   20.1770  -27.2210   40.9300 C   0  0  0  0  0  0  0  0  0  0  0  0
   21.0210  -27.1680   42.1370 C   0  0  0  0  0  0  0  0  0  0  0  0
   22.2910  -27.5910   42.1750 C   0  0  0  0  0  0  0  0  0  0  0  0
   19.3766  -22.9910   41.9042 H   0  0  0  0  0  0  0  0  0  0  0  0
   20.0714  -23.6811   40.2699 H   0  0  0  0  0  0  0  0  0  0  0  0
   18.5127  -25.1626   42.4752 H   0  0  0  0  0  0  0  0  0  0  0  0
   17.6607  -25.5792   39.2867 H   0  0  0  0  0  0  0  0  0  0  0  0
   17.9113  -27.5223   37.7602 H   0  0  0  0  0  0  0  0  0  0  0  0
   20.4353  -28.7437   34.2123 H   0  0  0  0  0  0  0  0  0  0  0  0
   20.7005  -30.4434   32.4039 H   0  0  0  0  0  0  0  0  0  0  0  0
   20.4644  -32.8718   32.9271 H   0  0  0  0  0  0  0  0  0  0  0  0
   19.2530  -34.3570   34.8320 H   0  0  0  0  0  0  0  0  0  0  0  0
   18.3320  -31.1500   40.0640 H   0  0  0  0  0  0  0  0  0  0  0  0
   21.0339  -29.1051   40.2820 H   0  0  0  0  0  0  0  0  0  0  0  0
   20.5829  -26.7578   43.0589 H   0  0  0  0  0  0  0  0  0  0  0  0
   22.8657  -27.5228   43.1105 H   0  0  0  0  0  0  0  0  0  0  0  0
   22.7595  -28.0067   41.2707 H   0  0  0  0  0  0  0  0  0  0  0  0
  1  2  2  0
  2  3  1  0
  3  4  2  0
  4  5  1  0
  5  6  2  0
  6  7  1  0
  7  8  1  0
  8  9  1  0
  9 10  2  0
 10 11  1  0
 11 12  2  0
 12 13  1  0
 13 14  1  0
 13 15  2  0
 15 16  1  0
 16 17  2  0
 16 18  1  0
 18 19  1  0
  6 20  1  0
 20 21  2  0
 21 22  1  0
 22 23  2  0
 21  3  1  0
 18  7  2  0
 15  9  1  0
  1 24  1  0
  1 25  1  0
  2 26  1  0
  4 27  1  0
  5 28  1  0
 10 29  1  0
 11 30  1  0
 12 31  1  0
 14 32  1  0
 19 33  1  0
 20 34  1  0
 22 35  1  0
 23 36  1  0
 23 37  1  0
M  END
>  <meeko>  (5) 
{"is_sidechain": [false], "free_energy": -7.094, "intermolecular_energy": -8.823, "internal_energy": -0.463}

$$$$
cand_048_out
     RDKit          3D

 37 39  0  0  0  0  0  0  0  0999 V2000
   18.4660  -27.6210   35.3440 C   0  0  0  0  0  0  0  0  0  0  0  0
   18.0050  -27.1980   36.5270 C   0  0  0  0  0  0  0  0  0  0  0  0
   18.8110  -27.1730   37.7610 C   0  0  0  0  0  0  0  0  0  0  0  0
   18.9200  -28.3420   38.5320 C   0  0  0  0  0  0  0  0  0  0  0  0
   19.7070  -28.3710   39.6870 C   0  0  0  0  0  0  0  0  0  0  0  0
   20.4140  -27.2370   40.0980 C   0  0  0  0  0  0  0  0  0  0  0  0
   21.2140  -27.2780   41.3400 C   0  0  0  0  0  0  0  0  0  0  0  0
   22.2060  -28.2520   41.3130 O   0  0  0  0  0  0  0  0  0  0  0  0
   23.0210  -28.3990   42.4060 C   0  0  0  0  0  0  0  0  0  0  0  0
   23.9920  -29.3990   42.3420 C   0  0  0  0  0  0  0  0  0  0  0  0
   24.8570  -29.6010   43.4190 C   0  0  0  0  0  0  0  0  0  0  0  0
   24.7520  -28.8020   44.5590 C   0  0  0  0  0  0  0  0  0  0  0  0
   23.7820  -27.8040   44.6210 C   0  0  0  0  0  0  0  0  0  0  0  0
   23.7350  -27.0580   45.7660 O   0  0  0  0  0  0  0  0  0  0  0  0
   22.9160  -27.6040   43.5420 C   0  0  0  0  0  0  0  0  0  0  0  0
   21.8840  -26.5670   43.5660 C   0  0  0  0  0  0  0  0  0  0  0  0
   21.7330  -25.8190   44.5300 O   0  0  0  0  0  0  0  0  0  0  0  0
   21.0120  -26.4420   42.3750 C   0  0  0  0  0  0  0  0  0  0  0  0
   20.0480  -25.4500   42.4010 O   0  0  0  0  0  0  0  0  0  0  0  0
   20.3060  -26.0680   39.3300 C   0  0  0  0  0  0  0  0  0  0  0  0
   19.5300  -26.0250   38.1550 C   0  0  0  0  0  0  0  0  0  0  0  0
   19.4320  -24.7580   37.4070 C   0  0  0  0  0  0  0  0  0  0  0  0
   19.3620  -23.5540   37.9890 C   0  0  0  0  0  0  0  0  0  0  0  0
   17.8082  -27.6124   34.4624 H   0  0  0  0  0  0  0  0  0  0  0  0
   19.5027  -27.9773   35.2532 H   0  0  0  0  0  0  0  0  0  0  0  0
   16.9635  -26.8484   36.5818 H   0  0  0  0  0  0  0  0  0  0  0  0
   18.3782  -29.2479   38.2225 H   0  0  0  0  0  0  0  0  0  0  0  0
   19.7707  -29.2960   40.2789 H   0  0  0  0  0  0  0  0  0  0  0  0
   24.0759  -30.0279   41.4434 H   0  0  0  0  0  0  0  0  0  0  0  0
   25.6217  -30.3901   43.3693 H   0  0  0  0  0  0  0  0  0  0  0  0
   25.4343  -28.9603   45.4072 H   0  0  0  0  0  0  0  0  0  0  0  0
   24.2720  -27.2890   46.4980 H   0  0  0  0  0  0  0  0  0  0  0  0
   19.9420  -24.9210   43.1660 H   0  0  0  0  0  0  0  0  0  0  0  0
   20.8405  -25.1625   39.6533 H   0  0  0  0  0  0  0  0  0  0  0  0
   19.4154  -24.8045   36.3081 H   0  0  0  0  0  0  0  0  0  0  0  0
   19.2904  -22.6473   37.3703 H   0  0  0  0  0  0  0  0  0  0  0  0
   19.3761  -23.4716   39.0858 H   0  0  0  0  0  0  0  0  0  0  0  0
  1  2  2  0
  2  3  1  0
  3  4  2  0
  4  5  1  0
  5  6  2  0
  6  7  1  0
  7  8  1  0
  8  9  1  0
  9 10  2  0
 10 11  1  0
 11 12  2  0
 12 13  1  0
 13 14  1  0
 13 15  2  0
 15 16  1  0
 16 17  2  0
 16 18  1  0
 18 19  1  0
  6 20  1  0
 20 21  2  0
 21 22  1  0
 22 23  2  0
 21  3  1  0
 18  7  2  0
 15  9  1  0
  1 24  1  0
  1 25  1  0
  2 26  1  0
  4 27  1  0
  5 28  1  0
 10 29  1  0
 11 30  1  0
 12 31  1  0
 14 32  1  0
 19 33  1  0
 20 34  1  0
 22 35  1  0
 23 36  1  0
 23 37  1  0
M  END
>  <meeko>  (6) 
{"is_sidechain": [false], "free_energy": -7.066, "intermolecular_energy": -8.812, "internal_energy": -0.44}

$$$$
cand_048_out
     RDKit          3D

 37 39  0  0  0  0  0  0  0  0999 V2000
   25.2840  -29.4360   44.2340 C   0  0  0  0  0  0  0  0  0  0  0  0
   24.4000  -28.4720   44.5190 C   0  0  0  0  0  0  0  0  0  0  0  0
   23.4090  -27.9560   43.5580 C   0  0  0  0  0  0  0  0  0  0  0  0
   23.3960  -28.4620   42.2470 C   0  0  0  0  0  0  0  0  0  0  0  0
   22.4480  -28.0280   41.3180 C   0  0  0  0  0  0  0  0  0  0  0  0
   21.4780  -27.0850   41.6730 C   0  0  0  0  0  0  0  0  0  0  0  0
   20.5050  -26.6150   40.6660 C   0  0  0  0  0  0  0  0  0  0  0  0
   20.4120  -25.2290   40.6080 O   0  0  0  0  0  0  0  0  0  0  0  0
   19.5410  -24.6590   39.7150 C   0  0  0  0  0  0  0  0  0  0  0  0
   19.4690  -23.2660   39.7020 C   0  0  0  0  0  0  0  0  0  0  0  0
   18.6040  -22.6210   38.8150 C   0  0  0  0  0  0  0  0  0  0  0  0
   17.8140  -23.3700   37.9410 C   0  0  0  0  0  0  0  0  0  0  0  0
   17.8870  -24.7600   37.9560 C   0  0  0  0  0  0  0  0  0  0  0  0
   17.0860  -25.4310   37.0730 O   0  0  0  0  0  0  0  0  0  0  0  0
   18.7530  -25.4050   38.8440 C   0  0  0  0  0  0  0  0  0  0  0  0
   18.8610  -26.8630   38.8920 C   0  0  0  0  0  0  0  0  0  0  0  0
   18.2040  -27.5900   38.1500 O   0  0  0  0  0  0  0  0  0  0  0  0
   19.8020  -27.4480   39.8760 C   0  0  0  0  0  0  0  0  0  0  0  0
   19.9080  -28.8260   39.9040 O   0  0  0  0  0  0  0  0  0  0  0  0
   21.4890  -26.5780   42.9810 C   0  0  0  0  0  0  0  0  0  0  0  0
   22.4290  -27.0140   43.9350 C   0  0  0  0  0  0  0  0  0  0  0  0
   22.4080  -26.4210   45.2850 C   0  0  0  0  0  0  0  0  0  0  0  0
   22.0530  -25.1540   45.5350 C   0  0  0  0  0  0  0  0  0  0  0  0
   25.9964  -29.7733   45.0013 H   0  0  0  0  0  0  0  0  0  0  0  0
   25.2980  -29.8909   43.2326 H   0  0  0  0  0  0  0  0  0  0  0  0
   24.4141  -28.0394   45.5303 H   0  0  0  0  0  0  0  0  0  0  0  0
   24.1439  -29.2112   41.9481 H   0  0  0  0  0  0  0  0  0  0  0  0
   22.4643  -28.4325   40.2952 H   0  0  0  0  0  0  0  0  0  0  0  0
   20.0928  -22.6760   40.3896 H   0  0  0  0  0  0  0  0  0  0  0  0
   18.5452  -21.5226   38.8051 H   0  0  0  0  0  0  0  0  0  0  0  0
   17.1343  -22.8621   37.2410 H   0  0  0  0  0  0  0  0  0  0  0  0
   16.4200  -26.0080   37.3900 H   0  0  0  0  0  0  0  0  0  0  0  0
   19.6510  -29.3000   40.6710 H   0  0  0  0  0  0  0  0  0  0  0  0
   20.7447  -25.8209   43.2688 H   0  0  0  0  0  0  0  0  0  0  0  0
   22.7005  -27.0552   46.1349 H   0  0  0  0  0  0  0  0  0  0  0  0
   22.0594  -24.7745   46.5675 H   0  0  0  0  0  0  0  0  0  0  0  0
   21.7550  -24.4929   44.7079 H   0  0  0  0  0  0  0  0  0  0  0  0
  1  2  2  0
  2  3  1  0
  3  4  2  0
  4  5  1  0
  5  6  2  0
  6  7  1  0
  7  8  1  0
  8  9  1  0
  9 10  2  0
 10 11  1  0
 11 12  2  0
 12 13  1  0
 13 14  1  0
 13 15  2  0
 15 16  1  0
 16 17  2  0
 16 18  1  0
 18 19  1  0
  6 20  1  0
 20 21  2  0
 21 22  1  0
 22 23  2  0
 21  3  1  0
 18  7  2  0
 15  9  1  0
  1 24  1  0
  1 25  1  0
  2 26  1  0
  4 27  1  0
  5 28  1  0
 10 29  1  0
 11 30  1  0
 12 31  1  0
 14 32  1  0
 19 33  1  0
 20 34  1  0
 22 35  1  0
 23 36  1  0
 23 37  1  0
M  END
>  <meeko>  (7) 
{"is_sidechain": [false], "free_energy": -7.005, "intermolecular_energy": -8.851, "internal_energy": -0.325}

$$$$
cand_048_out
     RDKit          3D

 37 39  0  0  0  0  0  0  0  0999 V2000
   19.2980  -24.1890   44.2090 C   0  0  0  0  0  0  0  0  0  0  0  0
   20.0710  -25.2210   43.8490 C   0  0  0  0  0  0  0  0  0  0  0  0
   20.0290  -25.8550   42.5190 C   0  0  0  0  0  0  0  0  0  0  0  0
   19.0890  -25.4070   41.5760 C   0  0  0  0  0  0  0  0  0  0  0  0
   19.0430  -25.9540   40.2910 C   0  0  0  0  0  0  0  0  0  0  0  0
   19.9410  -26.9550   39.9080 C   0  0  0  0  0  0  0  0  0  0  0  0
   19.8550  -27.5430   38.5550 C   0  0  0  0  0  0  0  0  0  0  0  0
   19.9640  -28.9280   38.5590 O   0  0  0  0  0  0  0  0  0  0  0  0
   19.9020  -29.6020   37.3660 C   0  0  0  0  0  0  0  0  0  0  0  0
   20.0330  -30.9910   37.4150 C   0  0  0  0  0  0  0  0  0  0  0  0
   19.9770  -31.7380   36.2370 C   0  0  0  0  0  0  0  0  0  0  0  0
   19.7890  -31.0980   35.0110 C   0  0  0  0  0  0  0  0  0  0  0  0
   19.6590  -29.7120   34.9640 C   0  0  0  0  0  0  0  0  0  0  0  0
   19.4770  -29.1500   33.7310 O   0  0  0  0  0  0  0  0  0  0  0  0
   19.7160  -28.9640   36.1440 C   0  0  0  0  0  0  0  0  0  0  0  0
   19.5840  -27.5070   36.1390 C   0  0  0  0  0  0  0  0  0  0  0  0
   19.4090  -26.8720   35.1020 O   0  0  0  0  0  0  0  0  0  0  0  0
   19.6670  -26.8080   37.4430 C   0  0  0  0  0  0  0  0  0  0  0  0
   19.5270  -25.4330   37.4300 O   0  0  0  0  0  0  0  0  0  0  0  0
   20.8800  -27.4030   40.8480 C   0  0  0  0  0  0  0  0  0  0  0  0
   20.9510  -26.8540   42.1430 C   0  0  0  0  0  0  0  0  0  0  0  0
   21.9410  -27.3880   43.0960 C   0  0  0  0  0  0  0  0  0  0  0  0
   23.1180  -27.9130   42.7300 C   0  0  0  0  0  0  0  0  0  0  0  0
   19.3828  -23.7648   45.2204 H   0  0  0  0  0  0  0  0  0  0  0  0
   18.5781  -23.7652   43.4934 H   0  0  0  0  0  0  0  0  0  0  0  0
   20.7797  -25.6196   44.5899 H   0  0  0  0  0  0  0  0  0  0  0  0
   18.3788  -24.6140   41.8532 H   0  0  0  0  0  0  0  0  0  0  0  0
   18.2920  -25.5931   39.5728 H   0  0  0  0  0  0  0  0  0  0  0  0
   20.1802  -31.4964   38.3809 H   0  0  0  0  0  0  0  0  0  0  0  0
   20.0812  -32.8324   36.2751 H   0  0  0  0  0  0  0  0  0  0  0  0
   19.7436  -31.6873   34.0833 H   0  0  0  0  0  0  0  0  0  0  0  0
   19.5760  -28.2250   33.6170 H   0  0  0  0  0  0  0  0  0  0  0  0
   19.1400  -25.0080   36.6900 H   0  0  0  0  0  0  0  0  0  0  0  0
   21.5794  -28.2041   40.5667 H   0  0  0  0  0  0  0  0  0  0  0  0
   21.6996  -27.3534   44.1686 H   0  0  0  0  0  0  0  0  0  0  0  0
   23.8116  -28.2942   43.4940 H   0  0  0  0  0  0  0  0  0  0  0  0
   23.3908  -27.9629   41.6655 H   0  0  0  0  0  0  0  0  0  0  0  0
  1  2  2  0
  2  3  1  0
  3  4  2  0
  4  5  1  0
  5  6  2  0
  6  7  1  0
  7  8  1  0
  8  9  1  0
  9 10  2  0
 10 11  1  0
 11 12  2  0
 12 13  1  0
 13 14  1  0
 13 15  2  0
 15 16  1  0
 16 17  2  0
 16 18  1  0
 18 19  1  0
  6 20  1  0
 20 21  2  0
 21 22  1  0
 22 23  2  0
 21  3  1  0
 18  7  2  0
 15  9  1  0
  1 24  1  0
  1 25  1  0
  2 26  1  0
  4 27  1  0
  5 28  1  0
 10 29  1  0
 11 30  1  0
 12 31  1  0
 14 32  1  0
 19 33  1  0
 20 34  1  0
 22 35  1  0
 23 36  1  0
 23 37  1  0
M  END
>  <meeko>  (8) 
{"is_sidechain": [false], "free_energy": -6.857, "intermolecular_energy": -8.739, "internal_energy": -0.255}

$$$$
cand_048_out
     RDKit          3D

 37 39  0  0  0  0  0  0  0  0999 V2000
   18.7580  -34.5570   38.6840 C   0  0  0  0  0  0  0  0  0  0  0  0
   19.2420  -33.7250   37.7550 C   0  0  0  0  0  0  0  0  0  0  0  0
   19.2820  -32.2590   37.9040 C   0  0  0  0  0  0  0  0  0  0  0  0
   18.8980  -31.6840   39.1270 C   0  0  0  0  0  0  0  0  0  0  0  0
   18.9590  -30.3020   39.3230 C   0  0  0  0  0  0  0  0  0  0  0  0
   19.4170  -29.4560   38.3080 C   0  0  0  0  0  0  0  0  0  0  0  0
   19.4440  -27.9940   38.5230 C   0  0  0  0  0  0  0  0  0  0  0  0
   18.6120  -27.3030   37.6510 O   0  0  0  0  0  0  0  0  0  0  0  0
   18.5430  -25.9360   37.7420 C   0  0  0  0  0  0  0  0  0  0  0  0
   17.7070  -25.2820   36.8360 C   0  0  0  0  0  0  0  0  0  0  0  0
   17.5900  -23.8910   36.8750 C   0  0  0  0  0  0  0  0  0  0  0  0
   18.3070  -23.1560   37.8210 C   0  0  0  0  0  0  0  0  0  0  0  0
   19.1400  -23.8110   38.7240 C   0  0  0  0  0  0  0  0  0  0  0  0
   19.8120  -23.0300   39.6230 O   0  0  0  0  0  0  0  0  0  0  0  0
   19.2580  -25.2030   38.6830 C   0  0  0  0  0  0  0  0  0  0  0  0
   20.1220  -25.9300   39.6140 C   0  0  0  0  0  0  0  0  0  0  0  0
   20.7790  -25.3550   40.4790 O   0  0  0  0  0  0  0  0  0  0  0  0
   20.1830  -27.4050   39.4820 C   0  0  0  0  0  0  0  0  0  0  0  0
   20.9910  -28.0840   40.3740 O   0  0  0  0  0  0  0  0  0  0  0  0
   19.8020  -30.0280   37.0860 C   0  0  0  0  0  0  0  0  0  0  0  0
   19.7600  -31.4200   36.8750 C   0  0  0  0  0  0  0  0  0  0  0  0
   20.1490  -31.9590   35.5590 C   0  0  0  0  0  0  0  0  0  0  0  0
   20.6920  -31.2180   34.5840 C   0  0  0  0  0  0  0  0  0  0  0  0
   18.7597  -35.6423   38.5049 H   0  0  0  0  0  0  0  0  0  0  0  0
   18.3583  -34.1558   39.6270 H   0  0  0  0  0  0  0  0  0  0  0  0
   19.6336  -34.1610   36.8241 H   0  0  0  0  0  0  0  0  0  0  0  0
   18.5440  -32.3317   39.9426 H   0  0  0  0  0  0  0  0  0  0  0  0
   18.6433  -29.8747   40.2862 H   0  0  0  0  0  0  0  0  0  0  0  0
   17.1408  -25.8615   36.0920 H   0  0  0  0  0  0  0  0  0  0  0  0
   16.9327  -23.3742   36.1602 H   0  0  0  0  0  0  0  0  0  0  0  0
   18.2138  -22.0604   37.8528 H   0  0  0  0  0  0  0  0  0  0  0  0
   20.4690  -22.4320   39.3260 H   0  0  0  0  0  0  0  0  0  0  0  0
   21.8820  -28.2690   40.1510 H   0  0  0  0  0  0  0  0  0  0  0  0
   20.1454  -29.3726   36.2720 H   0  0  0  0  0  0  0  0  0  0  0  0
   19.9841  -33.0295   35.3670 H   0  0  0  0  0  0  0  0  0  0  0  0
   20.9597  -31.6832   33.6239 H   0  0  0  0  0  0  0  0  0  0  0  0
   20.8701  -30.1443   34.7435 H   0  0  0  0  0  0  0  0  0  0  0  0
  1  2  2  0
  2  3  1  0
  3  4  2  0
  4  5  1  0
  5  6  2  0
  6  7  1  0
  7  8  1  0
  8  9  1  0
  9 10  2  0
 10 11  1  0
 11 12  2  0
 12 13  1  0
 13 14  1  0
 13 15  2  0
 15 16  1  0
 16 17  2  0
 16 18  1  0
 18 19  1  0
  6 20  1  0
 20 21  2  0
 21 22  1  0
 22 23  2  0
 21  3  1  0
 18  7  2  0
 15  9  1  0
  1 24  1  0
  1 25  1  0
  2 26  1  0
  4 27  1  0
  5 28  1  0
 10 29  1  0
 11 30  1  0
 12 31  1  0
 14 32  1  0
 19 33  1  0
 20 34  1  0
 22 35  1  0
 23 36  1  0
 23 37  1  0
M  END
>  <meeko>  (9) 
{"is_sidechain": [false], "free_energy": -6.803, "intermolecular_energy": -8.465, "internal_energy": -0.462}

$$$$
