cand_042_out
     RDKit          3D

 38 40  0  0  0  0  0  0  0  0999 V2000
   19.6410  -23.9770   40.0750 C   0  0  0  0  0  0  0  0  0  0  0  0
   19.0880  -25.0700   40.9760 C   0  0  0  0  0  0  0  0  0  0  0  0
   19.1840  -26.4360   40.3340 C   0  0  0  0  0  0  0  0  0  0  0  0
   18.2880  -26.7530   39.3000 C   0  0  0  0  0  0  0  0  0  0  0  0
   18.3200  -28.0010   38.6750 C   0  0  0  0  0  0  0  0  0  0  0  0
   19.2520  -28.9680   39.0610 C   0  0  0  0  0  0  0  0  0  0  0  0
   19.2940  -30.3060   38.4340 C   0  0  0  0  0  0  0  0  0  0  0  0
   18.9120  -31.3220   39.3020 O   0  0  0  0  0  0  0  0  0  0  0  0
   18.9060  -32.6150   38.8480 C   0  0  0  0  0  0  0  0  0  0  0  0
   18.5030  -33.6010   39.7490 C   0  0  0  0  0  0  0  0  0  0  0  0
   18.4740  -34.9400   39.3500 C   0  0  0  0  0  0  0  0  0  0  0  0
   18.8490  -35.2920   38.0520 C   0  0  0  0  0  0  0  0  0  0  0  0
   19.2510  -34.3060   37.1550 C   0  0  0  0  0  0  0  0  0  0  0  0
   19.6060  -34.7200   35.9000 O   0  0  0  0  0  0  0  0  0  0  0  0
   19.2790  -32.9660   37.5530 C   0  0  0  0  0  0  0  0  0  0  0  0
   19.6950  -31.9000   36.6430 C   0  0  0  0  0  0  0  0  0  0  0  0
   20.0460  -32.1310   35.4870 O   0  0  0  0  0  0  0  0  0  0  0  0
   19.6810  -30.5130   37.1610 C   0  0  0  0  0  0  0  0  0  0  0  0
   20.0880  -29.5140   36.2950 O   0  0  0  0  0  0  0  0  0  0  0  0
   20.1380  -28.6580   40.1050 C   0  0  0  0  0  0  0  0  0  0  0  0
   20.1140  -27.4070   40.7510 C   0  0  0  0  0  0  0  0  0  0  0  0
   21.1060  -27.1390   41.8500 C   0  0  0  0  0  0  0  0  0  0  0  0
   20.0518  -23.1651   40.6932 H   0  0  0  0  0  0  0  0  0  0  0  0
   20.4370  -24.3931   39.4400 H   0  0  0  0  0  0  0  0  0  0  0  0
   18.8342  -23.5821   39.4400 H   0  0  0  0  0  0  0  0  0  0  0  0
   19.6594  -25.0784   41.9159 H   0  0  0  0  0  0  0  0  0  0  0  0
   18.0249  -24.8543   41.1586 H   0  0  0  0  0  0  0  0  0  0  0  0
   17.5485  -26.0054   38.9771 H   0  0  0  0  0  0  0  0  0  0  0  0
   17.6042  -28.2254   37.8705 H   0  0  0  0  0  0  0  0  0  0  0  0
   18.2084  -33.3248   40.7722 H   0  0  0  0  0  0  0  0  0  0  0  0
   18.1553  -35.7177   40.0596 H   0  0  0  0  0  0  0  0  0  0  0  0
   18.8269  -36.3462   37.7387 H   0  0  0  0  0  0  0  0  0  0  0  0
   19.5000  -34.1440   35.1690 H   0  0  0  0  0  0  0  0  0  0  0  0
   19.9070  -28.6180   36.4950 H   0  0  0  0  0  0  0  0  0  0  0  0
   20.8707  -29.4127   40.4270 H   0  0  0  0  0  0  0  0  0  0  0  0
   20.6164  -27.2713   42.8261 H   0  0  0  0  0  0  0  0  0  0  0  0
   21.9477  -27.8420   41.7637 H   0  0  0  0  0  0  0  0  0  0  0  0
   21.4792  -26.1078   41.7637 H   0  0  0  0  0  0  0  0  0  0  0  0
  1  2  1  0
  2  3  1  0
  3  4  2  0
  4  5  1  0
  5  6  2  0
  6  7  1  0
  7  8  1  0
  8  9  1  0
  9 10  2  0
 10 11  1  0
 11 12  2  0
 12 13  1  0
 13 14  1  0
 13 15  2  0
 15 16  1  0
 16 17  2  0
 16 18  1  0
 18 19  1  0
  6 20  1  0
 20 21  2  0
 21 22  1  0
 21  3  1  0
 18  7  2  0
 15  9  1  0
  1 23  1  0
  1 24  1  0
  1 25  1  0
  2 26  1  0
  2 27  1  0
  4 28  1  0
  5 29  1  0
 10 30  1  0
 11 31  1  0
 12 32  1  0
 14 33  1  0
 19 34  1  0
 20 35  1  0
 22 36  1  0
 22 37  1  0
 22 38  1  0
M  END
>  <meeko>  (1) 
{"is_sidechain": [false], "free_energy": -7.818, "intermolecular_energy": -9.189, "internal_energy": -0.411}

$$$$
cand_042_out
     RDKit          3D

 38 40  0  0  0  0  0  0  0  0999 V2000
   19.7210  -33.5470   34.6900 C   0  0  0  0  0  0  0  0  0  0  0  0
   19.6650  -33.8140   36.1870 C   0  0  0  0  0  0  0  0  0  0  0  0
   19.5120  -32.5370   36.9840 C   0  0  0  0  0  0  0  0  0  0  0  0
   19.9360  -31.3320   36.4020 C   0  0  0  0  0  0  0  0  0  0  0  0
   19.8310  -30.1220   37.0920 C   0  0  0  0  0  0  0  0  0  0  0  0
   19.2930  -30.0810   38.3810 C   0  0  0  0  0  0  0  0  0  0  0  0
   19.1910  -28.8190   39.1440 C   0  0  0  0  0  0  0  0  0  0  0  0
   20.0690  -28.7660   40.2210 O   0  0  0  0  0  0  0  0  0  0  0  0
   20.0780  -27.6480   41.0140 C   0  0  0  0  0  0  0  0  0  0  0  0
   20.9850  -27.6320   42.0750 C   0  0  0  0  0  0  0  0  0  0  0  0
   21.0450  -26.5230   42.9230 C   0  0  0  0  0  0  0  0  0  0  0  0
   20.1990  -25.4320   42.7110 C   0  0  0  0  0  0  0  0  0  0  0  0
   19.2960  -25.4520   41.6510 C   0  0  0  0  0  0  0  0  0  0  0  0
   18.4970  -24.3510   41.5020 O   0  0  0  0  0  0  0  0  0  0  0  0
   19.2360  -26.5600   40.8020 C   0  0  0  0  0  0  0  0  0  0  0  0
   18.3020  -26.6210   39.6780 C   0  0  0  0  0  0  0  0  0  0  0  0
   17.5200  -25.7040   39.4310 O   0  0  0  0  0  0  0  0  0  0  0  0
   18.3230  -27.8380   38.8350 C   0  0  0  0  0  0  0  0  0  0  0  0
   17.4270  -27.8880   37.7830 O   0  0  0  0  0  0  0  0  0  0  0  0
   18.8830  -31.2890   38.9700 C   0  0  0  0  0  0  0  0  0  0  0  0
   18.9900  -32.5170   38.2920 C   0  0  0  0  0  0  0  0  0  0  0  0
   18.5130  -33.7680   38.9780 C   0  0  0  0  0  0  0  0  0  0  0  0
   19.9439  -32.4841   34.5152 H   0  0  0  0  0  0  0  0  0  0  0  0
   20.5088  -34.1663   34.2363 H   0  0  0  0  0  0  0  0  0  0  0  0
   18.7508  -33.7976   34.2363 H   0  0  0  0  0  0  0  0  0  0  0  0
   18.8080  -34.4701   36.3991 H   0  0  0  0  0  0  0  0  0  0  0  0
   20.6119  -34.2888   36.4836 H   0  0  0  0  0  0  0  0  0  0  0  0
   20.3578  -31.3407   35.3861 H   0  0  0  0  0  0  0  0  0  0  0  0
   20.1753  -29.1921   36.6159 H   0  0  0  0  0  0  0  0  0  0  0  0
   21.6513  -28.4909   42.2432 H   0  0  0  0  0  0  0  0  0  0  0  0
   21.7598  -26.5092   43.7590 H   0  0  0  0  0  0  0  0  0  0  0  0
   20.2459  -24.5596   43.3793 H   0  0  0  0  0  0  0  0  0  0  0  0
   18.5350  -23.8480   40.7130 H   0  0  0  0  0  0  0  0  0  0  0  0
   17.4190  -28.6280   37.2090 H   0  0  0  0  0  0  0  0  0  0  0  0
   18.4673  -31.2741   39.9883 H   0  0  0  0  0  0  0  0  0  0  0  0
   18.5652  -33.6310   40.0682 H   0  0  0  0  0  0  0  0  0  0  0  0
   17.4733  -33.9739   38.6837 H   0  0  0  0  0  0  0  0  0  0  0  0
   19.1517  -34.6138   38.6837 H   0  0  0  0  0  0  0  0  0  0  0  0
  1  2  1  0
  2  3  1  0
  3  4  2  0
  4  5  1  0
  5  6  2  0
  6  7  1  0
  7  8  1  0
  8  9  1  0
  9 10  2  0
 10 11  1  0
 11 12  2  0
 12 13  1  0
 13 14  1  0
 13 15  2  0
 15 16  1  0
 16 17  2  0
 16 18  1  0
 18 19  1  0
  6 20  1  0
 20 21  2  0
 21 22  1  0
 21  3  1  0
 18  7  2  0
 15  9  1  0
  1 23  1  0
  1 24  1  0
  1 25  1  0
  2 26  1  0
  2 27  1  0
  4 28  1  0
  5 29  1  0
 10 30  1  0
 11 31  1  0
 12 32  1  0
 14 33  1  0
 19 34  1  0
 20 35  1  0
 22 36  1  0
 22 37  1  0
 22 38  1  0
M  END
>  <meeko>  (2) 
{"is_sidechain": [false], "free_energy": -7.581, "intermolecular_energy": -8.921, "internal_energy": -0.402}

$$$$
cand_042_out
     RDKit          3D

 38 40  0  0  0  0  0  0  0  0999 V2000
   18.6450  -27.5600   35.3060 C   0  0  0  0  0  0  0  0  0  0  0  0
   17.8770  -27.1670   36.5590 C   0  0  0  0  0  0  0  0  0  0  0  0
   18.7600  -27.1620   37.7870 C   0  0  0  0  0  0  0  0  0  0  0  0
   18.8870  -28.3500   38.5240 C   0  0  0  0  0  0  0  0  0  0  0  0
   19.6790  -28.4060   39.6720 C   0  0  0  0  0  0  0  0  0  0  0  0
   20.3740  -27.2760   40.1140 C   0  0  0  0  0  0  0  0  0  0  0  0
   21.2010  -27.2990   41.3390 C   0  0  0  0  0  0  0  0  0  0  0  0
   22.1820  -28.2830   41.3110 O   0  0  0  0  0  0  0  0  0  0  0  0
   23.0210  -28.4150   42.3870 C   0  0  0  0  0  0  0  0  0  0  0  0
   24.0000  -29.4060   42.3100 C   0  0  0  0  0  0  0  0  0  0  0  0
   24.8870  -29.5940   43.3720 C   0  0  0  0  0  0  0  0  0  0  0  0
   24.7950  -28.7920   44.5120 C   0  0  0  0  0  0  0  0  0  0  0  0
   23.8170  -27.8030   44.5860 C   0  0  0  0  0  0  0  0  0  0  0  0
   23.7810  -27.0550   45.7300 O   0  0  0  0  0  0  0  0  0  0  0  0
   22.9300  -27.6150   43.5220 C   0  0  0  0  0  0  0  0  0  0  0  0
   21.8880  -26.5880   43.5600 C   0  0  0  0  0  0  0  0  0  0  0  0
   21.7390  -25.8480   44.5300 O   0  0  0  0  0  0  0  0  0  0  0  0
   21.0050  -26.4650   42.3780 C   0  0  0  0  0  0  0  0  0  0  0  0
   20.0160  -25.5000   42.4300 O   0  0  0  0  0  0  0  0  0  0  0  0
   20.2350  -26.0830   39.3870 C   0  0  0  0  0  0  0  0  0  0  0  0
   19.4340  -26.0080   38.2320 C   0  0  0  0  0  0  0  0  0  0  0  0
   19.3480  -24.7010   37.4930 C   0  0  0  0  0  0  0  0  0  0  0  0
   19.5905  -28.0438   35.5921 H   0  0  0  0  0  0  0  0  0  0  0  0
   18.0408  -28.2597   34.7099 H   0  0  0  0  0  0  0  0  0  0  0  0
   18.8590  -26.6606   34.7099 H   0  0  0  0  0  0  0  0  0  0  0  0
   17.4592  -26.1592   36.4180 H   0  0  0  0  0  0  0  0  0  0  0  0
   17.0808  -27.9096   36.7162 H   0  0  0  0  0  0  0  0  0  0  0  0
   18.3532  -29.2523   38.1911 H   0  0  0  0  0  0  0  0  0  0  0  0
   19.7572  -29.3481   40.2344 H   0  0  0  0  0  0  0  0  0  0  0  0
   24.0731  -30.0389   41.4133 H   0  0  0  0  0  0  0  0  0  0  0  0
   25.6594  -30.3748   43.3108 H   0  0  0  0  0  0  0  0  0  0  0  0
   25.4930  -28.9411   45.3490 H   0  0  0  0  0  0  0  0  0  0  0  0
   24.5660  -26.6610   46.0570 H   0  0  0  0  0  0  0  0  0  0  0  0
   19.7120  -25.0970   41.6420 H   0  0  0  0  0  0  0  0  0  0  0  0
   20.7664  -25.1827   39.7292 H   0  0  0  0  0  0  0  0  0  0  0  0
   19.2936  -23.8738   38.2161 H   0  0  0  0  0  0  0  0  0  0  0  0
   20.2400  -24.5776   36.8612 H   0  0  0  0  0  0  0  0  0  0  0  0
   18.4476  -24.6956   36.8612 H   0  0  0  0  0  0  0  0  0  0  0  0
  1  2  1  0
  2  3  1  0
  3  4  2  0
  4  5  1  0
  5  6  2  0
  6  7  1  0
  7  8  1  0
  8  9  1  0
  9 10  2  0
 10 11  1  0
 11 12  2  0
 12 13  1  0
 13 14  1  0
 13 15  2  0
 15 16  1  0
 16 17  2  0
 16 18  1  0
 18 19  1  0
  6 20  1  0
 20 21  2  0
 21 22  1  0
 21  3  1  0
 18  7  2  0
 15  9  1  0
  1 23  1  0
  1 24  1  0
  1 25  1  0
  2 26  1  0
  2 27  1  0
  4 28  1  0
  5 29  1  0
 10 30  1  0
 11 31  1  0
 12 32  1  0
 14 33  1  0
 19 34  1  0
 20 35  1  0
 22 36  1  0
 22 37  1  0
 22 38  1  0
M  END
>  <meeko>  (3) 
{"is_sidechain": [false], "free_energy": -7.027, "intermolecular_energy": -8.436, "internal_energy": -0.235}

$$$$
cand_042_out
     RDKit          3D

 38 40  0  0  0  0  0  0  0  0999 V2000
   19.6400  -34.9150   35.4890 C   0  0  0  0  0  0  0  0  0  0  0  0
   19.2560  -34.7140   36.9470 C   0  0  0  0  0  0  0  0  0  0  0  0
   19.2960  -33.2560   37.3480 C   0  0  0  0  0  0  0  0  0  0  0  0
   19.7260  -32.3150   36.4000 C   0  0  0  0  0  0  0  0  0  0  0  0
   19.7950  -30.9560   36.7130 C   0  0  0  0  0  0  0  0  0  0  0  0
   19.4300  -30.4970   37.9820 C   0  0  0  0  0  0  0  0  0  0  0  0
   19.5160  -29.0680   38.3490 C   0  0  0  0  0  0  0  0  0  0  0  0
   19.7210  -28.8700   39.7100 O   0  0  0  0  0  0  0  0  0  0  0  0
   19.8190  -27.5890   40.1870 C   0  0  0  0  0  0  0  0  0  0  0  0
   20.0390  -27.4380   41.5570 C   0  0  0  0  0  0  0  0  0  0  0  0
   20.1490  -26.1600   42.1080 C   0  0  0  0  0  0  0  0  0  0  0  0
   20.0370  -25.0320   41.2910 C   0  0  0  0  0  0  0  0  0  0  0  0
   19.8180  -25.1870   39.9250 C   0  0  0  0  0  0  0  0  0  0  0  0
   19.7170  -24.0410   39.1830 O   0  0  0  0  0  0  0  0  0  0  0  0
   19.7090  -26.4660   39.3720 C   0  0  0  0  0  0  0  0  0  0  0  0
   19.4790  -26.6720   37.9430 C   0  0  0  0  0  0  0  0  0  0  0  0
   19.3620  -25.7300   37.1600 O   0  0  0  0  0  0  0  0  0  0  0  0
   19.3870  -28.0680   37.4580 C   0  0  0  0  0  0  0  0  0  0  0  0
   19.1570  -28.2490   36.1060 O   0  0  0  0  0  0  0  0  0  0  0  0
   19.0150  -31.4400   38.9360 C   0  0  0  0  0  0  0  0  0  0  0  0
   18.9470  -32.8140   38.6390 C   0  0  0  0  0  0  0  0  0  0  0  0
   18.4750  -33.7640   39.7050 C   0  0  0  0  0  0  0  0  0  0  0  0
   20.6133  -35.4245   35.4331 H   0  0  0  0  0  0  0  0  0  0  0  0
   18.8757  -35.5287   34.9898 H   0  0  0  0  0  0  0  0  0  0  0  0
   19.7087  -33.9372   34.9898 H   0  0  0  0  0  0  0  0  0  0  0  0
   18.2365  -35.0970   37.1017 H   0  0  0  0  0  0  0  0  0  0  0  0
   19.9837  -35.2571   37.5679 H   0  0  0  0  0  0  0  0  0  0  0  0
   20.0135  -32.6536   35.3937 H   0  0  0  0  0  0  0  0  0  0  0  0
   20.1401  -30.2392   35.9533 H   0  0  0  0  0  0  0  0  0  0  0  0
   20.1256  -28.3250   42.2018 H   0  0  0  0  0  0  0  0  0  0  0  0
   20.3242  -26.0408   43.1874 H   0  0  0  0  0  0  0  0  0  0  0  0
   20.1216  -24.0251   41.7257 H   0  0  0  0  0  0  0  0  0  0  0  0
   20.4690  -23.7040   38.7370 H   0  0  0  0  0  0  0  0  0  0  0  0
   18.4280  -27.8300   35.6940 H   0  0  0  0  0  0  0  0  0  0  0  0
   18.7355  -31.0956   39.9426 H   0  0  0  0  0  0  0  0  0  0  0  0
   18.6870  -33.3373   40.6964 H   0  0  0  0  0  0  0  0  0  0  0  0
   17.3920  -33.9252   39.5991 H   0  0  0  0  0  0  0  0  0  0  0  0
   19.0007  -34.7244   39.5991 H   0  0  0  0  0  0  0  0  0  0  0  0
  1  2  1  0
  2  3  1  0
  3  4  2  0
  4  5  1  0
  5  6  2  0
  6  7  1  0
  7  8  1  0
  8  9  1  0
  9 10  2  0
 10 11  1  0
 11 12  2  0
 12 13  1  0
 13 14  1  0
 13 15  2  0
 15 16  1  0
 16 17  2  0
 16 18  1  0
 18 19  1  0
  6 20  1  0
 20 21  2  0
 21 22  1  0
 21  3  1  0
 18  7  2  0
 15  9  1  0
  1 23  1  0
  1 24  1  0
  1 25  1  0
  2 26  1  0
  2 27  1  0
  4 28  1  0
  5 29  1  0
 10 30  1  0
 11 31  1  0
 12 32  1  0
 14 33  1  0
 19 34  1  0
 20 35  1  0
 22 36  1  0
 22 37  1  0
 22 38  1  0
M  END
>  <meeko>  (4) 
{"is_sidechain": [false], "free_energy": -6.947, "intermolecular_energy": -8.598, "internal_energy": 0.022}

$$$$
cand_042_out
     RDKit          3D

 38 40  0  0  0  0  0  0  0  0999 V2000
   19.4560  -23.7140   40.9710 C   0  0  0  0  0  0  0  0  0  0  0  0
   19.0330  -25.0210   41.6240 C   0  0  0  0  0  0  0  0  0  0  0  0
   19.2310  -26.2050   40.7040 C   0  0  0  0  0  0  0  0  0  0  0  0
   18.4100  -26.3130   39.5690 C   0  0  0  0  0  0  0  0  0  0  0  0
   18.5380  -27.3880   38.6880 C   0  0  0  0  0  0  0  0  0  0  0  0
   19.4930  -28.3840   38.9100 C   0  0  0  0  0  0  0  0  0  0  0  0
   19.6340  -29.5460   38.0070 C   0  0  0  0  0  0  0  0  0  0  0  0
   19.8540  -29.1790   36.6850 O   0  0  0  0  0  0  0  0  0  0  0  0
   20.0030  -30.1600   35.7400 C   0  0  0  0  0  0  0  0  0  0  0  0
   20.2360  -29.7470   34.4270 C   0  0  0  0  0  0  0  0  0  0  0  0
   20.3960  -30.6960   33.4150 C   0  0  0  0  0  0  0  0  0  0  0  0
   20.3220  -32.0580   33.7150 C   0  0  0  0  0  0  0  0  0  0  0  0
   20.0900  -32.4680   35.0260 C   0  0  0  0  0  0  0  0  0  0  0  0
   20.0280  -33.8160   35.2490 O   0  0  0  0  0  0  0  0  0  0  0  0
   19.9310  -31.5180   36.0380 C   0  0  0  0  0  0  0  0  0  0  0  0
   19.6850  -31.9050   37.4270 C   0  0  0  0  0  0  0  0  0  0  0  0
   19.6000  -33.0840   37.7680 O   0  0  0  0  0  0  0  0  0  0  0  0
   19.5380  -30.8210   38.4250 C   0  0  0  0  0  0  0  0  0  0  0  0
   19.2940  -31.2000   39.7330 O   0  0  0  0  0  0  0  0  0  0  0  0
   20.3030  -28.2840   40.0530 C   0  0  0  0  0  0  0  0  0  0  0  0
   20.1820  -27.2120   40.9560 C   0  0  0  0  0  0  0  0  0  0  0  0
   21.0970  -27.1620   42.1490 C   0  0  0  0  0  0  0  0  0  0  0  0
   19.6951  -22.9753   41.7502 H   0  0  0  0  0  0  0  0  0  0  0  0
   20.3439  -23.8873   40.3453 H   0  0  0  0  0  0  0  0  0  0  0  0
   18.6349  -23.3342   40.3453 H   0  0  0  0  0  0  0  0  0  0  0  0
   19.6327  -25.1739   42.5334 H   0  0  0  0  0  0  0  0  0  0  0  0
   17.9611  -24.9507   41.8609 H   0  0  0  0  0  0  0  0  0  0  0  0
   17.6545  -25.5382   39.3716 H   0  0  0  0  0  0  0  0  0  0  0  0
   17.8798  -27.4520   37.8090 H   0  0  0  0  0  0  0  0  0  0  0  0
   20.2935  -28.6745   34.1896 H   0  0  0  0  0  0  0  0  0  0  0  0
   20.5805  -30.3704   32.3806 H   0  0  0  0  0  0  0  0  0  0  0  0
   20.4467  -32.8055   32.9177 H   0  0  0  0  0  0  0  0  0  0  0  0
   19.2510  -34.1970   35.6070 H   0  0  0  0  0  0  0  0  0  0  0  0
   20.0080  -31.3370   40.3230 H   0  0  0  0  0  0  0  0  0  0  0  0
   21.0525  -29.0653   40.2475 H   0  0  0  0  0  0  0  0  0  0  0  0
   20.4988  -27.1947   43.0715 H   0  0  0  0  0  0  0  0  0  0  0  0
   21.7797  -28.0242   42.1239 H   0  0  0  0  0  0  0  0  0  0  0  0
   21.6816  -26.2306   42.1239 H   0  0  0  0  0  0  0  0  0  0  0  0
  1  2  1  0
  2  3  1  0
  3  4  2  0
  4  5  1  0
  5  6  2  0
  6  7  1  0
  7  8  1  0
  8  9  1  0
  9 10  2  0
 10 11  1  0
 11 12  2  0
 12 13  1  0
 13 14  1  0
 13 15  2  0
 15 16  1  0
 16 17  2  0
 16 18  1  0
 18 19  1  0
  6 20  1  0
 20 21  2  0
 21 22  1  0
 21  3  1  0
 18  7  2  0
 15  9  1  0
  1 23  1  0
  1 24  1  0
  1 25  1  0
  2 26  1  0
  2 27  1  0
  4 28  1  0
  5 29  1  0
 10 30  1  0
 11 31  1  0
 12 32  1  0
 14 33  1  0
 19 34  1  0
 20 35  1  0
 22 36  1  0
 22 37  1  0
 22 38  1  0
M  END
>  <meeko>  (5) 
{"is_sidechain": [false], "free_energy": -6.887, "intermolecular_energy": -8.258, "internal_energy": -0.248}

$$$$
cand_042_out
     RDKit          3D

 38 40  0  0  0  0  0  0  0  0999 V2000
   25.2640  -30.0330   44.0670 C   0  0  0  0  0  0  0  0  0  0  0  0
   24.6320  -28.7450   44.5720 C   0  0  0  0  0  0  0  0  0  0  0  0
   23.5850  -28.2160   43.6170 C   0  0  0  0  0  0  0  0  0  0  0  0
   23.5610  -28.7200   42.3070 C   0  0  0  0  0  0  0  0  0  0  0  0
   22.6250  -28.2630   41.3760 C   0  0  0  0  0  0  0  0  0  0  0  0
   21.6820  -27.2950   41.7300 C   0  0  0  0  0  0  0  0  0  0  0  0
   20.6950  -26.7760   40.7590 C   0  0  0  0  0  0  0  0  0  0  0  0
   20.5890  -25.3900   40.7840 O   0  0  0  0  0  0  0  0  0  0  0  0
   19.7080  -24.7770   39.9320 C   0  0  0  0  0  0  0  0  0  0  0  0
   19.6450  -23.3830   39.9800 C   0  0  0  0  0  0  0  0  0  0  0  0
   18.7670  -22.6960   39.1390 C   0  0  0  0  0  0  0  0  0  0  0  0
   17.9520  -23.4010   38.2500 C   0  0  0  0  0  0  0  0  0  0  0  0
   18.0180  -24.7910   38.2040 C   0  0  0  0  0  0  0  0  0  0  0  0
   17.1920  -25.4180   37.3110 O   0  0  0  0  0  0  0  0  0  0  0  0
   18.8970  -25.4790   39.0450 C   0  0  0  0  0  0  0  0  0  0  0  0
   18.9960  -26.9380   39.0280 C   0  0  0  0  0  0  0  0  0  0  0  0
   18.3070  -27.6290   38.2790 O   0  0  0  0  0  0  0  0  0  0  0  0
   19.9650  -27.5690   39.9540 C   0  0  0  0  0  0  0  0  0  0  0  0
   20.0410  -28.9500   39.9370 O   0  0  0  0  0  0  0  0  0  0  0  0
   21.7150  -26.7790   43.0360 C   0  0  0  0  0  0  0  0  0  0  0  0
   22.6570  -27.2220   43.9830 C   0  0  0  0  0  0  0  0  0  0  0  0
   22.6210  -26.6370   45.3690 C   0  0  0  0  0  0  0  0  0  0  0  0
   25.5680  -30.6526   44.9235 H   0  0  0  0  0  0  0  0  0  0  0  0
   24.5342  -30.5846   43.4561 H   0  0  0  0  0  0  0  0  0  0  0  0
   26.1468  -29.7933   43.4561 H   0  0  0  0  0  0  0  0  0  0  0  0
   24.1588  -28.9395   45.5458 H   0  0  0  0  0  0  0  0  0  0  0  0
   25.4256  -27.9884   44.6597 H   0  0  0  0  0  0  0  0  0  0  0  0
   24.2909  -29.4870   42.0088 H   0  0  0  0  0  0  0  0  0  0  0  0
   22.6306  -28.6695   40.3539 H   0  0  0  0  0  0  0  0  0  0  0  0
   20.2862  -22.8266   40.6795 H   0  0  0  0  0  0  0  0  0  0  0  0
   18.7171  -21.5978   39.1766 H   0  0  0  0  0  0  0  0  0  0  0  0
   17.2601  -22.8595   37.5882 H   0  0  0  0  0  0  0  0  0  0  0  0
   16.3550  -25.0480   37.1080 H   0  0  0  0  0  0  0  0  0  0  0  0
   20.6170  -29.3810   39.3380 H   0  0  0  0  0  0  0  0  0  0  0  0
   20.9855  -26.0085   43.3261 H   0  0  0  0  0  0  0  0  0  0  0  0
   22.6709  -27.4479   46.1106 H   0  0  0  0  0  0  0  0  0  0  0  0
   23.4793  -25.9626   45.5047 H   0  0  0  0  0  0  0  0  0  0  0  0
   21.6864  -26.0729   45.5047 H   0  0  0  0  0  0  0  0  0  0  0  0
  1  2  1  0
  2  3  1  0
  3  4  2  0
  4  5  1  0
  5  6  2  0
  6  7  1  0
  7  8  1  0
  8  9  1  0
  9 10  2  0
 10 11  1  0
 11 12  2  0
 12 13  1  0
 13 14  1  0
 13 15  2  0
 15 16  1  0
 16 17  2  0
 16 18  1  0
 18 19  1  0
  6 20  1  0
 20 21  2  0
 21 22  1  0
 21  3  1  0
 18  7  2  0
 15  9  1  0
  1 23  1  0
  1 24  1  0
  1 25  1  0
  2 26  1  0
  2 27  1  0
  4 28  1  0
  5 29  1  0
 10 30  1  0
 11 31  1  0
 12 32  1  0
 14 33  1  0
 19 34  1  0
 20 35  1  0
 22 36  1  0
 22 37  1  0
 22 38  1  0
M  END
>  <meeko>  (6) 
{"is_sidechain": [false], "free_energy": -6.857, "intermolecular_energy": -8.289, "internal_energy": -0.182}

$$$$
cand_042_out
     RDKit          3D

 38 40  0  0  0  0  0  0  0  0999 V2000
   18.4910  -34.6070   39.2700 C   0  0  0  0  0  0  0  0  0  0  0  0
   19.1710  -34.0310   38.0370 C   0  0  0  0  0  0  0  0  0  0  0  0
   19.2600  -32.5220   38.0920 C   0  0  0  0  0  0  0  0  0  0  0  0
   18.9350  -31.8780   39.2960 C   0  0  0  0  0  0  0  0  0  0  0  0
   18.9880  -30.4860   39.4060 C   0  0  0  0  0  0  0  0  0  0  0  0
   19.3730  -29.6990   38.3180 C   0  0  0  0  0  0  0  0  0  0  0  0
   19.4140  -28.2240   38.3980 C   0  0  0  0  0  0  0  0  0  0  0  0
   18.6860  -27.6060   37.3880 O   0  0  0  0  0  0  0  0  0  0  0  0
   18.6400  -26.2370   37.3450 C   0  0  0  0  0  0  0  0  0  0  0  0
   17.8860  -25.6600   36.3230 C   0  0  0  0  0  0  0  0  0  0  0  0
   17.7980  -24.2700   36.2210 C   0  0  0  0  0  0  0  0  0  0  0  0
   18.4660  -23.4570   37.1390 C   0  0  0  0  0  0  0  0  0  0  0  0
   19.2180  -24.0360   38.1590 C   0  0  0  0  0  0  0  0  0  0  0  0
   19.8460  -23.1810   39.0230 O   0  0  0  0  0  0  0  0  0  0  0  0
   19.3040  -25.4270   38.2610 C   0  0  0  0  0  0  0  0  0  0  0  0
   20.0840  -26.0750   39.3160 C   0  0  0  0  0  0  0  0  0  0  0  0
   20.7040  -25.4270   40.1580 O   0  0  0  0  0  0  0  0  0  0  0  0
   20.1040  -27.5550   39.3410 C   0  0  0  0  0  0  0  0  0  0  0  0
   20.8550  -28.1560   40.3350 O   0  0  0  0  0  0  0  0  0  0  0  0
   19.6830  -30.3420   37.1080 C   0  0  0  0  0  0  0  0  0  0  0  0
   19.6270  -31.7430   36.9780 C   0  0  0  0  0  0  0  0  0  0  0  0
   19.9910  -32.3630   35.6570 C   0  0  0  0  0  0  0  0  0  0  0  0
   18.9685  -34.2025   40.1747 H   0  0  0  0  0  0  0  0  0  0  0  0
   17.4259  -34.3321   39.2634 H   0  0  0  0  0  0  0  0  0  0  0  0
   18.5869  -35.7028   39.2634 H   0  0  0  0  0  0  0  0  0  0  0  0
   20.1879  -34.4444   37.9665 H   0  0  0  0  0  0  0  0  0  0  0  0
   18.5687  -34.3041   37.1580 H   0  0  0  0  0  0  0  0  0  0  0  0
   18.6338  -32.4787   40.1669 H   0  0  0  0  0  0  0  0  0  0  0  0
   18.7238  -30.0049   40.3593 H   0  0  0  0  0  0  0  0  0  0  0  0
   17.3611  -26.2994   35.5980 H   0  0  0  0  0  0  0  0  0  0  0  0
   17.2017  -23.8150   35.4164 H   0  0  0  0  0  0  0  0  0  0  0  0
   18.3987  -22.3621   37.0570 H   0  0  0  0  0  0  0  0  0  0  0  0
   19.3430  -22.5870   39.5430 H   0  0  0  0  0  0  0  0  0  0  0  0
   21.7820  -28.2340   40.2400 H   0  0  0  0  0  0  0  0  0  0  0  0
   19.9773  -29.7350   36.2391 H   0  0  0  0  0  0  0  0  0  0  0  0
   20.5409  -33.2997   35.8307 H   0  0  0  0  0  0  0  0  0  0  0  0
   19.0746  -32.5761   35.0871 H   0  0  0  0  0  0  0  0  0  0  0  0
   20.6237  -31.6667   35.0871 H   0  0  0  0  0  0  0  0  0  0  0  0
  1  2  1  0
  2  3  1  0
  3  4  2  0
  4  5  1  0
  5  6  2  0
  6  7  1  0
  7  8  1  0
  8  9  1  0
  9 10  2  0
 10 11  1  0
 11 12  2  0
 12 13  1  0
 13 14  1  0
 13 15  2  0
 15 16  1  0
 16 17  2  0
 16 18  1  0
 18 19  1  0
  6 20  1  0
 20 21  2  0
 21 22  1  0
 21  3  1  0
 18  7  2  0
 15  9  1  0
  1 23  1  0
  1 24  1  0
  1 25  1  0
  2 26  1  0
  2 27  1  0
  4 28  1  0
  5 29  1  0
 10 30  1  0
 11 31  1  0
 12 32  1  0
 14 33  1  0
 19 34  1  0
 20 35  1  0
 22 36  1  0
 22 37  1  0
 22 38  1  0
M  END
>  <meeko>  (7) 
{"is_sidechain": [false], "free_energy": -6.757, "intermolecular_energy": -8.097, "internal_energy": -0.256}

$$$$
cand_042_out
     RDKit          3D

 38 40  0  0  0  0  0  0  0  0999 V2000
   20.3060  -24.9410   49.3120 C   0  0  0  0  0  0  0  0  0  0  0  0
   20.6440  -23.7810   48.3880 C   0  0  0  0  0  0  0  0  0  0  0  0
   20.5210  -24.1650   46.9300 C   0  0  0  0  0  0  0  0  0  0  0  0
   21.5730  -24.8820   46.3370 C   0  0  0  0  0  0  0  0  0  0  0  0
   21.5230  -25.2550   44.9930 C   0  0  0  0  0  0  0  0  0  0  0  0
   20.4180  -24.9290   44.2020 C   0  0  0  0  0  0  0  0  0  0  0  0
   20.3480  -25.2900   42.7710 C   0  0  0  0  0  0  0  0  0  0  0  0
   19.9270  -24.2370   41.9670 O   0  0  0  0  0  0  0  0  0  0  0  0
   19.8180  -24.4370   40.6150 C   0  0  0  0  0  0  0  0  0  0  0  0
   19.4050  -23.3490   39.8450 C   0  0  0  0  0  0  0  0  0  0  0  0
   19.2720  -23.4850   38.4610 C   0  0  0  0  0  0  0  0  0  0  0  0
   19.5510  -24.7080   37.8480 C   0  0  0  0  0  0  0  0  0  0  0  0
   19.9630  -25.7920   38.6190 C   0  0  0  0  0  0  0  0  0  0  0  0
   20.2190  -26.9600   37.9550 O   0  0  0  0  0  0  0  0  0  0  0  0
   20.0970  -25.6550   40.0040 C   0  0  0  0  0  0  0  0  0  0  0  0
   20.5260  -26.7690   40.8500 C   0  0  0  0  0  0  0  0  0  0  0  0
   20.7830  -27.8780   40.3850 O   0  0  0  0  0  0  0  0  0  0  0  0
   20.6440  -26.5180   42.3040 C   0  0  0  0  0  0  0  0  0  0  0  0
   21.0390  -27.5810   43.0960 O   0  0  0  0  0  0  0  0  0  0  0  0
   19.3720  -24.1980   44.7910 C   0  0  0  0  0  0  0  0  0  0  0  0
   19.4110  -23.8060   46.1420 C   0  0  0  0  0  0  0  0  0  0  0  0
   18.2460  -23.0410   46.7080 C   0  0  0  0  0  0  0  0  0  0  0  0
   20.4008  -24.6158   50.3585 H   0  0  0  0  0  0  0  0  0  0  0  0
   19.2741  -25.2718   49.1228 H   0  0  0  0  0  0  0  0  0  0  0  0
   20.9987  -25.7743   49.1228 H   0  0  0  0  0  0  0  0  0  0  0  0
   19.9552  -22.9489   48.5957 H   0  0  0  0  0  0  0  0  0  0  0  0
   21.6877  -23.4891   48.5761 H   0  0  0  0  0  0  0  0  0  0  0  0
   22.4507  -25.1540   46.9417 H   0  0  0  0  0  0  0  0  0  0  0  0
   22.3627  -25.8118   44.5515 H   0  0  0  0  0  0  0  0  0  0  0  0
   19.1844  -22.3853   40.3273 H   0  0  0  0  0  0  0  0  0  0  0  0
   18.9471  -22.6275   37.8535 H   0  0  0  0  0  0  0  0  0  0  0  0
   19.4456  -24.8151   36.7583 H   0  0  0  0  0  0  0  0  0  0  0  0
   20.2160  -26.9770   37.0180 H   0  0  0  0  0  0  0  0  0  0  0  0
   21.9140  -27.6220   43.4240 H   0  0  0  0  0  0  0  0  0  0  0  0
   18.4994  -23.9249   44.1795 H   0  0  0  0  0  0  0  0  0  0  0  0
   18.2882  -23.0687   47.8068 H   0  0  0  0  0  0  0  0  0  0  0  0
   18.2919  -21.9967   46.3655 H   0  0  0  0  0  0  0  0  0  0  0  0
   17.3060  -23.4982   46.3655 H   0  0  0  0  0  0  0  0  0  0  0  0
  1  2  1  0
  2  3  1  0
  3  4  2  0
  4  5  1  0
  5  6  2  0
  6  7  1  0
  7  8  1  0
  8  9  1  0
  9 10  2  0
 10 11  1  0
 11 12  2  0
 12 13  1  0
 13 14  1  0
 13 15  2  0
 15 16  1  0
 16 17  2  0
 16 18  1  0
 18 19  1  0
  6 20  1  0
 20 21  2  0
 21 22  1  0
 21  3  1  0
 18  7  2  0
 15  9  1  0
  1 23  1  0
  1 24  1  0
  1 25  1  0
  2 26  1  0
  2 27  1  0
  4 28  1  0
  5 29  1  0
 10 30  1  0
 11 31  1  0
 12 32  1  0
 14 33  1  0
 19 34  1  0
 20 35  1  0
 22 36  1  0
 22 37  1  0
 22 38  1  0
M  END
>  <meeko>  (8) 
{"is_sidechain": [false], "free_energy": -6.713, "intermolecular_energy": -8.098, "internal_energy": -0.204}

$$$$
cand_042_out
     RDKit          3D

 38 40  0  0  0  0  0  0  0  0999 V2000
   23.3870  -22.4600   49.8100 C   0  0  0  0  0  0  0  0  0  0  0  0
   22.0170  -23.1220   49.8070 C   0  0  0  0  0  0  0  0  0  0  0  0
   21.5290  -23.4070   48.4040 C   0  0  0  0  0  0  0  0  0  0  0  0
   22.0350  -22.6300   47.3500 C   0  0  0  0  0  0  0  0  0  0  0  0
   21.6150  -22.8390   46.0340 C   0  0  0  0  0  0  0  0  0  0  0  0
   20.6820  -23.8350   45.7330 C   0  0  0  0  0  0  0  0  0  0  0  0
   20.2020  -24.0620   44.3540 C   0  0  0  0  0  0  0  0  0  0  0  0
   20.4770  -25.3430   43.8890 O   0  0  0  0  0  0  0  0  0  0  0  0
   20.0850  -25.6880   42.6220 C   0  0  0  0  0  0  0  0  0  0  0  0
   20.3690  -26.9890   42.2030 C   0  0  0  0  0  0  0  0  0  0  0  0
   19.9970  -27.4050   40.9220 C   0  0  0  0  0  0  0  0  0  0  0  0
   19.3440  -26.5210   40.0610 C   0  0  0  0  0  0  0  0  0  0  0  0
   19.0610  -25.2240   40.4820 C   0  0  0  0  0  0  0  0  0  0  0  0
   18.4200  -24.4100   39.5880 O   0  0  0  0  0  0  0  0  0  0  0  0
   19.4320  -24.8080   41.7640 C   0  0  0  0  0  0  0  0  0  0  0  0
   19.1550  -23.4550   42.2460 C   0  0  0  0  0  0  0  0  0  0  0  0
   18.5900  -22.6170   41.5440 O   0  0  0  0  0  0  0  0  0  0  0  0
   19.5820  -23.1170   43.6230 C   0  0  0  0  0  0  0  0  0  0  0  0
   19.3260  -21.8310   44.0620 O   0  0  0  0  0  0  0  0  0  0  0  0
   20.1640  -24.6020   46.7890 C   0  0  0  0  0  0  0  0  0  0  0  0
   20.5700  -24.4000   48.1210 C   0  0  0  0  0  0  0  0  0  0  0  0
   19.9860  -25.2720   49.1980 C   0  0  0  0  0  0  0  0  0  0  0  0
   23.7153  -22.3014   50.8478 H   0  0  0  0  0  0  0  0  0  0  0  0
   24.1088  -23.1087   49.2922 H   0  0  0  0  0  0  0  0  0  0  0  0
   23.3273  -21.4913   49.2922 H   0  0  0  0  0  0  0  0  0  0  0  0
   22.0795  -24.0703   50.3609 H   0  0  0  0  0  0  0  0  0  0  0  0
   21.3044  -22.4309   50.2810 H   0  0  0  0  0  0  0  0  0  0  0  0
   22.7741  -21.8439   47.5637 H   0  0  0  0  0  0  0  0  0  0  0  0
   22.0229  -22.2132   45.2265 H   0  0  0  0  0  0  0  0  0  0  0  0
   20.8848  -27.6856   42.8803 H   0  0  0  0  0  0  0  0  0  0  0  0
   20.2189  -28.4304   40.5915 H   0  0  0  0  0  0  0  0  0  0  0  0
   19.0535  -26.8484   39.0518 H   0  0  0  0  0  0  0  0  0  0  0  0
   18.4270  -23.4820   39.7120 H   0  0  0  0  0  0  0  0  0  0  0  0
   19.1370  -21.6730   44.9650 H   0  0  0  0  0  0  0  0  0  0  0  0
   19.4204  -25.3822   46.5689 H   0  0  0  0  0  0  0  0  0  0  0  0
   20.2569  -24.8675   50.1844 H   0  0  0  0  0  0  0  0  0  0  0  0
   18.8907  -25.2934   49.0987 H   0  0  0  0  0  0  0  0  0  0  0  0
   20.3832  -26.2930   49.0987 H   0  0  0  0  0  0  0  0  0  0  0  0
  1  2  1  0
  2  3  1  0
  3  4  2  0
  4  5  1  0
  5  6  2  0
  6  7  1  0
  7  8  1  0
  8  9  1  0
  9 10  2  0
 10 11  1  0
 11 12  2  0
 12 13  1  0
 13 14  1  0
 13 15  2  0
 15 16  1  0
 16 17  2  0
 16 18  1  0
 18 19  1  0
  6 20  1  0
 20 21  2  0
 21 22  1  0
 21  3  1  0
 18  7  2  0
 15  9  1  0
  1 23  1  0
  1 24  1  0
  1 25  1  0
  2 26  1  0
  2 27  1  0
  4 28  1  0
  5 29  1  0
 10 30  1  0
 11 31  1  0
 12 32  1  0
 14 33  1  0
 19 34  1  0
 20 35  1  0
 22 36  1  0
 22 37  1  0
 22 38  1  0
M  END
>  <meeko>  (9) 
{"is_sidechain": [false], "free_energy": -6.668, "intermolecular_energy": -7.948, "internal_energy": -0.3}

$$$$
