native_SAG_out
     RDKit          3D

 39 40  0  0  0  0  0  0  0  0999 V2000
   54.8870  153.9110   23.3440 C   0  0  0  0  0  0  0  0  0  0  0  0
   54.0020  153.3700   24.4580 C   0  0  2  0  0  0  0  0  0  0  0  0
   53.7930  154.4590   25.4470 N   0  0  0  0  0  0  0  0  0  0  0  0
   52.8260  154.2240   26.2700 C   0  0  0  0  0  0  0  0  0  0  0  0
   52.4530  155.1860   27.3260 C   0  0  0  0  0  0  0  0  0  0  0  0
   51.5850  154.8190   28.3570 C   0  0  0  0  0  0  0  0  0  0  0  0
   51.2430  155.7460   29.3500 C   0  0  0  0  0  0  0  0  0  0  0  0
   51.7680  157.0390   29.3100 C   0  0  0  0  0  0  0  0  0  0  0  0
   51.5190  158.0370   30.2100 O   0  0  0  0  0  0  0  0  0  0  0  0
   51.1090  159.2990   29.6880 C   0  0  0  0  0  0  0  0  0  0  0  0
   49.8980  159.7490   30.4640 C   0  0  0  0  0  0  0  0  0  0  0  0
   48.9070  158.8270   30.8380 C   0  0  0  0  0  0  0  0  0  0  0  0
   47.7910  159.2390   31.5730 C   0  0  0  0  0  0  0  0  0  0  0  0
   47.6600  160.5760   31.9470 C   0  0  0  0  0  0  0  0  0  0  0  0
   48.6470  161.4860   31.5890 C   0  0  0  0  0  0  0  0  0  0  0  0
   48.5250  162.7690   31.9560 F   0  0  0  0  0  0  0  0  0  0  0  0
   49.7620  161.0880   30.8570 C   0  0  0  0  0  0  0  0  0  0  0  0
   52.6360  157.3970   28.2740 C   0  0  0  0  0  0  0  0  0  0  0  0
   52.9820  156.4760   27.2810 C   0  0  0  0  0  0  0  0  0  0  0  0
   54.6940  152.1930   25.1580 C   0  0  0  0  0  0  0  0  0  0  0  0
   55.9700  152.4430   25.5790 N   0  0  0  0  0  0  0  0  0  0  0  0
   54.1710  151.0940   25.3150 O   0  0  0  0  0  0  0  0  0  0  0  0
   55.7478  154.4372   23.7824 H   0  0  0  0  0  0  0  0  0  0  0  0
   55.2448  153.0771   22.7223 H   0  0  0  0  0  0  0  0  0  0  0  0
   54.3079  154.6097   22.7223 H   0  0  0  0  0  0  0  0  0  0  0  0
   53.0449  153.0252   24.0395 H   0  0  0  0  0  0  0  0  0  0  0  0
   52.2652  153.2818   26.1819 H   0  0  0  0  0  0  0  0  0  0  0  0
   51.1696  153.8010   28.3892 H   0  0  0  0  0  0  0  0  0  0  0  0
   50.5603  155.4549   30.1619 H   0  0  0  0  0  0  0  0  0  0  0  0
   51.9205  160.0326   29.8029 H   0  0  0  0  0  0  0  0  0  0  0  0
   50.8683  159.2116   28.6182 H   0  0  0  0  0  0  0  0  0  0  0  0
   49.0096  157.7703   30.5500 H   0  0  0  0  0  0  0  0  0  0  0  0
   47.0177  158.5096   31.8557 H   0  0  0  0  0  0  0  0  0  0  0  0
   46.7821  160.9076   32.5209 H   0  0  0  0  0  0  0  0  0  0  0  0
   50.5350  161.8226   30.5873 H   0  0  0  0  0  0  0  0  0  0  0  0
   53.0514  158.4150   28.2400 H   0  0  0  0  0  0  0  0  0  0  0  0
   53.6663  156.7663   26.4702 H   0  0  0  0  0  0  0  0  0  0  0  0
   56.3680  153.3330   25.4420 H   0  0  0  0  0  0  0  0  0  0  0  0
   56.4910  151.7330   26.0200 H   0  0  0  0  0  0  0  0  0  0  0  0
  1  2  1  0
  2  3  1  0
  3  4  2  0
  4  5  1  0
  5  6  2  0
  6  7  1  0
  7  8  2  0
  8  9  1  0
  9 10  1  0
 10 11  1  0
 11 12  2  0
 12 13  1  0
 13 14  2  0
 14 15  1  0
 15 16  1  0
 15 17  2  0
  8 18  1  0
 18 19  2  0
  2 20  1  0
 20 21  1  0
 20 22  2  0
 19  5  1  0
 17 11  1  0
  1 23  1  0
  1 24  1  0
  1 25  1  0
  2 26  1  6
  4 27  1  0
  6 28  1  0
  7 29  1  0
 10 30  1  0
 10 31  1  0
 12 32  1  0
 13 33  1  0
 14 34  1  0
 17 35  1  0
 18 36  1  0
 19 37  1  0
 21 38  1  0
 21 39  1  0
M  END
>  <meeko>  (1) 
{"is_sidechain": [false], "free_energy": -10.522, "intermolecular_energy": -14.213, "internal_energy": -0.652}

$$$$
native_SAG_out
     RDKit          3D

 39 40  0  0  0  0  0  0  0  0999 V2000
   47.4710  160.0250   31.7130 C   0  0  0  0  0  0  0  0  0  0  0  0
   48.6170  160.9870   31.4310 C   0  0  2  0  0  0  0  0  0  0  0  0
   49.6600  160.2480   30.6730 N   0  0  0  0  0  0  0  0  0  0  0  0
   49.5380  158.9650   30.7510 C   0  0  0  0  0  0  0  0  0  0  0  0
   50.4790  158.0520   30.0730 C   0  0  0  0  0  0  0  0  0  0  0  0
   51.6920  158.5210   29.5640 C   0  0  0  0  0  0  0  0  0  0  0  0
   52.5720  157.6400   28.9230 C   0  0  0  0  0  0  0  0  0  0  0  0
   52.2390  156.2910   28.7920 C   0  0  0  0  0  0  0  0  0  0  0  0
   53.0010  155.3270   28.1930 O   0  0  0  0  0  0  0  0  0  0  0  0
   52.3280  154.3890   27.3580 C   0  0  0  0  0  0  0  0  0  0  0  0
   53.1400  154.2250   26.0980 C   0  0  0  0  0  0  0  0  0  0  0  0
   53.8530  155.3090   25.5630 C   0  0  0  0  0  0  0  0  0  0  0  0
   54.6210  155.1560   24.4050 C   0  0  0  0  0  0  0  0  0  0  0  0
   54.6880  153.9140   23.7760 C   0  0  0  0  0  0  0  0  0  0  0  0
   53.9940  152.8360   24.3120 C   0  0  0  0  0  0  0  0  0  0  0  0
   54.0670  151.6410   23.7120 F   0  0  0  0  0  0  0  0  0  0  0  0
   53.2270  152.9770   25.4650 C   0  0  0  0  0  0  0  0  0  0  0  0
   51.0220  155.8310   29.3050 C   0  0  0  0  0  0  0  0  0  0  0  0
   50.1400  156.7050   29.9460 C   0  0  0  0  0  0  0  0  0  0  0  0
   49.2240  161.4870   32.7480 C   0  0  0  0  0  0  0  0  0  0  0  0
   50.5340  161.8710   32.6690 N   0  0  0  0  0  0  0  0  0  0  0  0
   48.6090  161.5240   33.8090 O   0  0  0  0  0  0  0  0  0  0  0  0
   47.3421  159.9168   32.8001 H   0  0  0  0  0  0  0  0  0  0  0  0
   46.5440  160.4195   31.2713 H   0  0  0  0  0  0  0  0  0  0  0  0
   47.6989  159.0437   31.2713 H   0  0  0  0  0  0  0  0  0  0  0  0
   48.2466  161.8496   30.8577 H   0  0  0  0  0  0  0  0  0  0  0  0
   48.7104  158.5409   31.3386 H   0  0  0  0  0  0  0  0  0  0  0  0
   51.9566  159.5838   29.6667 H   0  0  0  0  0  0  0  0  0  0  0  0
   53.5266  158.0117   28.5224 H   0  0  0  0  0  0  0  0  0  0  0  0
   52.2417  153.4223   27.8756 H   0  0  0  0  0  0  0  0  0  0  0  0
   51.3158  154.7465   27.1180 H   0  0  0  0  0  0  0  0  0  0  0  0
   53.8070  156.2892   26.0601 H   0  0  0  0  0  0  0  0  0  0  0  0
   55.1712  156.0139   23.9911 H   0  0  0  0  0  0  0  0  0  0  0  0
   55.2862  153.7880   22.8615 H   0  0  0  0  0  0  0  0  0  0  0  0
   52.6900  152.1107   25.8788 H   0  0  0  0  0  0  0  0  0  0  0  0
   50.7559  154.7686   29.2027 H   0  0  0  0  0  0  0  0  0  0  0  0
   49.1856  156.3335   30.3474 H   0  0  0  0  0  0  0  0  0  0  0  0
   51.0060  161.8330   31.8060 H   0  0  0  0  0  0  0  0  0  0  0  0
   51.0040  162.1870   33.4750 H   0  0  0  0  0  0  0  0  0  0  0  0
  1  2  1  0
  2  3  1  0
  3  4  2  0
  4  5  1  0
  5  6  2  0
  6  7  1  0
  7  8  2  0
  8  9  1  0
  9 10  1  0
 10 11  1  0
 11 12  2  0
 12 13  1  0
 13 14  2  0
 14 15  1  0
 15 16  1  0
 15 17  2  0
  8 18  1  0
 18 19  2  0
  2 20  1  0
 20 21  1  0
 20 22  2  0
 19  5  1  0
 17 11  1  0
  1 23  1  0
  1 24  1  0
  1 25  1  0
  2 26  1  6
  4 27  1  0
  6 28  1  0
  7 29  1  0
 10 30  1  0
 10 31  1  0
 12 32  1  0
 13 33  1  0
 14 34  1  0
 17 35  1  0
 18 36  1  0
 19 37  1  0
 21 38  1  0
 21 39  1  0
M  END
>  <meeko>  (2) 
{"is_sidechain": [false], "free_energy": -10.435, "intermolecular_energy": -14.063, "internal_energy": -0.684}

$$$$
native_SAG_out
     RDKit          3D

 39 40  0  0  0  0  0  0  0  0999 V2000
   54.4480  153.7070   23.3720 C   0  0  0  0  0  0  0  0  0  0  0  0
   53.6380  153.2430   24.5740 C   0  0  2  0  0  0  0  0  0  0  0  0
   53.4810  154.3980   25.4950 N   0  0  0  0  0  0  0  0  0  0  0  0
   52.6480  154.1770   26.4570 C   0  0  0  0  0  0  0  0  0  0  0  0
   52.3470  155.2020   27.4750 C   0  0  0  0  0  0  0  0  0  0  0  0
   51.5430  154.9040   28.5780 C   0  0  0  0  0  0  0  0  0  0  0  0
   51.2680  155.8900   29.5340 C   0  0  0  0  0  0  0  0  0  0  0  0
   51.7980  157.1730   29.3870 C   0  0  0  0  0  0  0  0  0  0  0  0
   51.6110  158.2240   30.2400 O   0  0  0  0  0  0  0  0  0  0  0  0
   51.0060  159.3990   29.7060 C   0  0  0  0  0  0  0  0  0  0  0  0
   50.0240  159.9180   30.7250 C   0  0  0  0  0  0  0  0  0  0  0  0
   50.4580  160.7270   31.7870 C   0  0  0  0  0  0  0  0  0  0  0  0
   49.5460  161.2250   32.7230 C   0  0  0  0  0  0  0  0  0  0  0  0
   48.1910  160.9230   32.6020 C   0  0  0  0  0  0  0  0  0  0  0  0
   47.7580  160.1330   31.5430 C   0  0  0  0  0  0  0  0  0  0  0  0
   46.4540  159.8510   31.4220 F   0  0  0  0  0  0  0  0  0  0  0  0
   48.6560  159.6330   30.6050 C   0  0  0  0  0  0  0  0  0  0  0  0
   52.6020  157.4620   28.2800 C   0  0  0  0  0  0  0  0  0  0  0  0
   52.8800  156.4820   27.3230 C   0  0  0  0  0  0  0  0  0  0  0  0
   54.3810  152.1210   25.3110 C   0  0  0  0  0  0  0  0  0  0  0  0
   55.7100  152.3580   25.5290 N   0  0  0  0  0  0  0  0  0  0  0  0
   53.8520  151.0720   25.6620 O   0  0  0  0  0  0  0  0  0  0  0  0
   55.3539  154.2259   23.7185 H   0  0  0  0  0  0  0  0  0  0  0  0
   54.7342  152.8359   22.7643 H   0  0  0  0  0  0  0  0  0  0  0  0
   53.8413  154.3946   22.7643 H   0  0  0  0  0  0  0  0  0  0  0  0
   52.6599  152.8660   24.2405 H   0  0  0  0  0  0  0  0  0  0  0  0
   52.1495  153.1984   26.5191 H   0  0  0  0  0  0  0  0  0  0  0  0
   51.1252  153.8933   28.6958 H   0  0  0  0  0  0  0  0  0  0  0  0
   50.6340  155.6532   30.4012 H   0  0  0  0  0  0  0  0  0  0  0  0
   51.7761  160.1591   29.5081 H   0  0  0  0  0  0  0  0  0  0  0  0
   50.4924  159.1699   28.7606 H   0  0  0  0  0  0  0  0  0  0  0  0
   51.5261  160.9717   31.8839 H   0  0  0  0  0  0  0  0  0  0  0  0
   49.8979  161.8544   33.5537 H   0  0  0  0  0  0  0  0  0  0  0  0
   47.4697  161.3066   33.3385 H   0  0  0  0  0  0  0  0  0  0  0  0
   48.2934  159.0150   29.7704 H   0  0  0  0  0  0  0  0  0  0  0  0
   53.0205  158.4723   28.1610 H   0  0  0  0  0  0  0  0  0  0  0  0
   53.5146  156.7185   26.4562 H   0  0  0  0  0  0  0  0  0  0  0  0
   56.1130  153.2080   25.2390 H   0  0  0  0  0  0  0  0  0  0  0  0
   56.2640  151.6790   25.9790 H   0  0  0  0  0  0  0  0  0  0  0  0
  1  2  1  0
  2  3  1  0
  3  4  2  0
  4  5  1  0
  5  6  2  0
  6  7  1  0
  7  8  2  0
  8  9  1  0
  9 10  1  0
 10 11  1  0
 11 12  2  0
 12 13  1  0
 13 14  2  0
 14 15  1  0
 15 16  1  0
 15 17  2  0
  8 18  1  0
 18 19  2  0
  2 20  1  0
 20 21  1  0
 20 22  2  0
 19  5  1  0
 17 11  1  0
  1 23  1  0
  1 24  1  0
  1 25  1  0
  2 26  1  6
  4 27  1  0
  6 28  1  0
  7 29  1  0
 10 30  1  0
 10 31  1  0
 12 32  1  0
 13 33  1  0
 14 34  1  0
 17 35  1  0
 18 36  1  0
 19 37  1  0
 21 38  1  0
 21 39  1  0
M  END
>  <meeko>  (3) 
{"is_sidechain": [false], "free_energy": -10.413, "intermolecular_energy": -14.144, "internal_energy": -0.574}

$$$$
native_SAG_out
     RDKit          3D

 39 40  0  0  0  0  0  0  0  0999 V2000
   47.6790  160.3230   31.3220 C   0  0  0  0  0  0  0  0  0  0  0  0
   48.9720  161.1190   31.2100 C   0  0  2  0  0  0  0  0  0  0  0  0
   49.9680  160.2790   30.4960 N   0  0  0  0  0  0  0  0  0  0  0  0
   49.7420  159.0120   30.6050 C   0  0  0  0  0  0  0  0  0  0  0  0
   50.6210  158.0090   29.9740 C   0  0  0  0  0  0  0  0  0  0  0  0
   51.8350  158.3830   29.3900 C   0  0  0  0  0  0  0  0  0  0  0  0
   52.6550  157.4170   28.7950 C   0  0  0  0  0  0  0  0  0  0  0  0
   52.2630  156.0770   28.7840 C   0  0  0  0  0  0  0  0  0  0  0  0
   52.9640  155.0370   28.2410 O   0  0  0  0  0  0  0  0  0  0  0  0
   52.2970  154.2390   27.2660 C   0  0  0  0  0  0  0  0  0  0  0  0
   53.1910  154.1440   26.0560 C   0  0  0  0  0  0  0  0  0  0  0  0
   53.3550  152.9210   25.3840 C   0  0  0  0  0  0  0  0  0  0  0  0
   54.1700  152.8340   24.2510 C   0  0  0  0  0  0  0  0  0  0  0  0
   54.8210  153.9700   23.7750 C   0  0  0  0  0  0  0  0  0  0  0  0
   54.6480  155.1840   24.4290 C   0  0  0  0  0  0  0  0  0  0  0  0
   55.2670  156.2770   23.9650 F   0  0  0  0  0  0  0  0  0  0  0  0
   53.8400  155.2830   25.5580 C   0  0  0  0  0  0  0  0  0  0  0  0
   51.0470  155.7120   29.3700 C   0  0  0  0  0  0  0  0  0  0  0  0
   50.2240  156.6710   29.9660 C   0  0  0  0  0  0  0  0  0  0  0  0
   49.5130  161.4480   32.6070 C   0  0  0  0  0  0  0  0  0  0  0  0
   50.7840  161.9520   32.6270 N   0  0  0  0  0  0  0  0  0  0  0  0
   48.8840  161.2560   33.6420 O   0  0  0  0  0  0  0  0  0  0  0  0
   47.4326  160.1713   32.3833 H   0  0  0  0  0  0  0  0  0  0  0  0
   46.8643  160.8761   30.8318 H   0  0  0  0  0  0  0  0  0  0  0  0
   47.8060  159.3465   30.8318 H   0  0  0  0  0  0  0  0  0  0  0  0
   48.7852  162.0581   30.6685 H   0  0  0  0  0  0  0  0  0  0  0  0
   48.8708  158.6716   31.1838 H   0  0  0  0  0  0  0  0  0  0  0  0
   52.1463  159.4380   29.3981 H   0  0  0  0  0  0  0  0  0  0  0  0
   53.6093  157.7140   28.3356 H   0  0  0  0  0  0  0  0  0  0  0  0
   52.1081  153.2339   27.6712 H   0  0  0  0  0  0  0  0  0  0  0  0
   51.3317  154.6916   26.9951 H   0  0  0  0  0  0  0  0  0  0  0  0
   52.8373  152.0232   25.7527 H   0  0  0  0  0  0  0  0  0  0  0  0
   54.2969  151.8701   23.7364 H   0  0  0  0  0  0  0  0  0  0  0  0
   55.4677  153.9065   22.8874 H   0  0  0  0  0  0  0  0  0  0  0  0
   53.7107  156.2537   26.0591 H   0  0  0  0  0  0  0  0  0  0  0  0
   50.7346  154.6573   29.3617 H   0  0  0  0  0  0  0  0  0  0  0  0
   49.2699  156.3736   30.4257 H   0  0  0  0  0  0  0  0  0  0  0  0
   51.2690  162.0980   31.7830 H   0  0  0  0  0  0  0  0  0  0  0  0
   51.2130  162.1720   33.4860 H   0  0  0  0  0  0  0  0  0  0  0  0
  1  2  1  0
  2  3  1  0
  3  4  2  0
  4  5  1  0
  5  6  2  0
  6  7  1  0
  7  8  2  0
  8  9  1  0
  9 10  1  0
 10 11  1  0
 11 12  2  0
 12 13  1  0
 13 14  2  0
 14 15  1  0
 15 16  1  0
 15 17  2  0
  8 18  1  0
 18 19  2  0
  2 20  1  0
 20 21  1  0
 20 22  2  0
 19  5  1  0
 17 11  1  0
  1 23  1  0
  1 24  1  0
  1 25  1  0
  2 26  1  6
  4 27  1  0
  6 28  1  0
  7 29  1  0
 10 30  1  0
 10 31  1  0
 12 32  1  0
 13 33  1  0
 14 34  1  0
 17 35  1  0
 18 36  1  0
 19 37  1  0
 21 38  1  0
 21 39  1  0
M  END
>  <meeko>  (4) 
{"is_sidechain": [false], "free_energy": -10.266, "intermolecular_energy": -13.794, "internal_energy": -0.725}

$$$$
native_SAG_out
     RDKit          3D

 39 40  0  0  0  0  0  0  0  0999 V2000
   48.5680  161.3750   30.5330 C   0  0  0  0  0  0  0  0  0  0  0  0
   49.6370  161.2920   31.6130 C   0  0  2  0  0  0  0  0  0  0  0  0
   50.4960  160.1160   31.3190 N   0  0  0  0  0  0  0  0  0  0  0  0
   50.0700  159.4050   30.3280 C   0  0  0  0  0  0  0  0  0  0  0  0
   50.7800  158.1910   29.8810 C   0  0  0  0  0  0  0  0  0  0  0  0
   50.1850  156.9310   29.9880 C   0  0  0  0  0  0  0  0  0  0  0  0
   50.8740  155.7900   29.5590 C   0  0  0  0  0  0  0  0  0  0  0  0
   52.1580  155.9090   29.0240 C   0  0  0  0  0  0  0  0  0  0  0  0
   52.9390  154.8840   28.5690 O   0  0  0  0  0  0  0  0  0  0  0  0
   52.2920  153.8480   27.8330 C   0  0  0  0  0  0  0  0  0  0  0  0
   52.8980  153.8140   26.4520 C   0  0  0  0  0  0  0  0  0  0  0  0
   53.1480  155.0060   25.7530 C   0  0  0  0  0  0  0  0  0  0  0  0
   53.7260  154.9780   24.4800 C   0  0  0  0  0  0  0  0  0  0  0  0
   54.0660  153.7580   23.8990 C   0  0  0  0  0  0  0  0  0  0  0  0
   53.8330  152.5790   24.5950 C   0  0  0  0  0  0  0  0  0  0  0  0
   54.1690  151.4070   24.0390 F   0  0  0  0  0  0  0  0  0  0  0  0
   53.2580  152.5940   25.8630 C   0  0  0  0  0  0  0  0  0  0  0  0
   52.7450  157.1730   28.9210 C   0  0  0  0  0  0  0  0  0  0  0  0
   52.0630  158.3160   29.3460 C   0  0  0  0  0  0  0  0  0  0  0  0
   48.9850  161.0960   32.9880 C   0  0  0  0  0  0  0  0  0  0  0  0
   49.4640  160.0360   33.7060 N   0  0  0  0  0  0  0  0  0  0  0  0
   48.0830  161.8060   33.4190 O   0  0  0  0  0  0  0  0  0  0  0  0
   47.5767  161.4520   31.0035 H   0  0  0  0  0  0  0  0  0  0  0  0
   48.7468  162.2620   29.9075 H   0  0  0  0  0  0  0  0  0  0  0  0
   48.6078  160.4711   29.9075 H   0  0  0  0  0  0  0  0  0  0  0  0
   50.2267  162.2205   31.6252 H   0  0  0  0  0  0  0  0  0  0  0  0
   49.1535  159.7128   29.8034 H   0  0  0  0  0  0  0  0  0  0  0  0
   49.1737  156.8354   30.4100 H   0  0  0  0  0  0  0  0  0  0  0  0
   50.4033  154.7994   29.6436 H   0  0  0  0  0  0  0  0  0  0  0  0
   52.4473  152.8808   28.3334 H   0  0  0  0  0  0  0  0  0  0  0  0
   51.2103  154.0383   27.7727 H   0  0  0  0  0  0  0  0  0  0  0  0
   52.8866  155.9712   26.2113 H   0  0  0  0  0  0  0  0  0  0  0  0
   53.9119  155.9172   23.9384 H   0  0  0  0  0  0  0  0  0  0  0  0
   54.5160  153.7289   22.8957 H   0  0  0  0  0  0  0  0  0  0  0  0
   53.0866  151.6503   26.4015 H   0  0  0  0  0  0  0  0  0  0  0  0
   53.7567  157.2693   28.5000 H   0  0  0  0  0  0  0  0  0  0  0  0
   52.5335  159.3065   29.2596 H   0  0  0  0  0  0  0  0  0  0  0  0
   50.1900  159.4800   33.3390 H   0  0  0  0  0  0  0  0  0  0  0  0
   49.0850  159.8300   34.5920 H   0  0  0  0  0  0  0  0  0  0  0  0
  1  2  1  0
  2  3  1  0
  3  4  2  0
  4  5  1  0
  5  6  2  0
  6  7  1  0
  7  8  2  0
  8  9  1  0
  9 10  1  0
 10 11  1  0
 11 12  2  0
 12 13  1  0
 13 14  2  0
 14 15  1  0
 15 16  1  0
 15 17  2  0
  8 18  1  0
 18 19  2  0
  2 20  1  0
 20 21  1  0
 20 22  2  0
 19  5  1  0
 17 11  1  0
  1 23  1  0
  1 24  1  0
  1 25  1  0
  2 26  1  1
  4 27  1  0
  6 28  1  0
  7 29  1  0
 10 30  1  0
 10 31  1  0
 12 32  1  0
 13 33  1  0
 14 34  1  0
 17 35  1  0
 18 36  1  0
 19 37  1  0
 21 38  1  0
 21 39  1  0
M  END
>  <meeko>  (5) 
{"is_sidechain": [false], "free_energy": -9.436, "intermolecular_energy": -12.771, "internal_energy": -0.628}

$$$$
native_SAG_out
     RDKit          3D

 39 40  0  0  0  0  0  0  0  0999 V2000
   53.5070  152.0690   24.8040 C   0  0  0  0  0  0  0  0  0  0  0  0
   54.6180  153.0280   25.2060 C   0  0  2  0  0  0  0  0  0  0  0  0
   54.1560  153.7940   26.3920 N   0  0  0  0  0  0  0  0  0  0  0  0
   52.9440  154.2280   26.2820 C   0  0  0  0  0  0  0  0  0  0  0  0
   52.3020  155.0170   27.3510 C   0  0  0  0  0  0  0  0  0  0  0  0
   52.8150  156.2580   27.7350 C   0  0  0  0  0  0  0  0  0  0  0  0
   52.1910  156.9920   28.7510 C   0  0  0  0  0  0  0  0  0  0  0  0
   51.0540  156.4850   29.3830 C   0  0  0  0  0  0  0  0  0  0  0  0
   50.3510  157.0940   30.3840 O   0  0  0  0  0  0  0  0  0  0  0  0
   49.1450  157.7620   30.0210 C   0  0  0  0  0  0  0  0  0  0  0  0
   49.0270  159.0000   30.8740 C   0  0  0  0  0  0  0  0  0  0  0  0
   47.8020  159.3440   31.4670 C   0  0  0  0  0  0  0  0  0  0  0  0
   47.6950  160.4820   32.2720 C   0  0  0  0  0  0  0  0  0  0  0  0
   48.8140  161.2810   32.4980 C   0  0  0  0  0  0  0  0  0  0  0  0
   50.0310  160.9340   31.9240 C   0  0  0  0  0  0  0  0  0  0  0  0
   51.1080  161.6970   32.1490 F   0  0  0  0  0  0  0  0  0  0  0  0
   50.1500  159.8040   31.1200 C   0  0  0  0  0  0  0  0  0  0  0  0
   50.5480  155.2420   28.9920 C   0  0  0  0  0  0  0  0  0  0  0  0
   51.1650  154.5050   27.9780 C   0  0  0  0  0  0  0  0  0  0  0  0
   54.9070  154.0110   24.0650 C   0  0  0  0  0  0  0  0  0  0  0  0
   54.8880  153.4610   22.8130 N   0  0  0  0  0  0  0  0  0  0  0  0
   55.1650  155.1970   24.2380 O   0  0  0  0  0  0  0  0  0  0  0  0
   53.0319  151.6589   25.7074 H   0  0  0  0  0  0  0  0  0  0  0  0
   52.7561  152.6073   24.2070 H   0  0  0  0  0  0  0  0  0  0  0  0
   53.9299  151.2475   24.2070 H   0  0  0  0  0  0  0  0  0  0  0  0
   55.5341  152.4624   25.4315 H   0  0  0  0  0  0  0  0  0  0  0  0
   52.3757  154.0034   25.3673 H   0  0  0  0  0  0  0  0  0  0  0  0
   53.7107  156.6594   27.2384 H   0  0  0  0  0  0  0  0  0  0  0  0
   52.5970  157.9691   29.0516 H   0  0  0  0  0  0  0  0  0  0  0  0
   49.1783  158.0423   28.9578 H   0  0  0  0  0  0  0  0  0  0  0  0
   48.2788  157.1029   30.1798 H   0  0  0  0  0  0  0  0  0  0  0  0
   46.9178  158.7121   31.2967 H   0  0  0  0  0  0  0  0  0  0  0  0
   46.7287  160.7463   32.7264 H   0  0  0  0  0  0  0  0  0  0  0  0
   48.7345  162.1803   33.1265 H   0  0  0  0  0  0  0  0  0  0  0  0
   51.1228  159.5419   30.6784 H   0  0  0  0  0  0  0  0  0  0  0  0
   49.6530  154.8392   29.4888 H   0  0  0  0  0  0  0  0  0  0  0  0
   50.7578  153.5287   27.6761 H   0  0  0  0  0  0  0  0  0  0  0  0
   54.6780  152.5060   22.6990 H   0  0  0  0  0  0  0  0  0  0  0  0
   55.0830  154.0200   22.0260 H   0  0  0  0  0  0  0  0  0  0  0  0
  1  2  1  0
  2  3  1  0
  3  4  2  0
  4  5  1  0
  5  6  2  0
  6  7  1  0
  7  8  2  0
  8  9  1  0
  9 10  1  0
 10 11  1  0
 11 12  2  0
 12 13  1  0
 13 14  2  0
 14 15  1  0
 15 16  1  0
 15 17  2  0
  8 18  1  0
 18 19  2  0
  2 20  1  0
 20 21  1  0
 20 22  2  0
 19  5  1  0
 17 11  1  0
  1 23  1  0
  1 24  1  0
  1 25  1  0
  2 26  1  1
  4 27  1  0
  6 28  1  0
  7 29  1  0
 10 30  1  0
 10 31  1  0
 12 32  1  0
 13 33  1  0
 14 34  1  0
 17 35  1  0
 18 36  1  0
 19 37  1  0
 21 38  1  0
 21 39  1  0
M  END
>  <meeko>  (6) 
{"is_sidechain": [false], "free_energy": -8.988, "intermolecular_energy": -12.295, "internal_energy": -0.497}

$$$$
