9IV_ttbk2_out
     RDKit          3D

 37 40  0  0  0  0  0  0  0  0999 V2000
   52.1420  161.4150   31.5310 Cl  0  0  0  0  0  0  0  0  0  0  0  0
   50.4910  161.1390   31.9490 C   0  0  0  0  0  0  0  0  0  0  0  0
   50.0380  161.5630   33.2010 C   0  0  0  0  0  0  0  0  0  0  0  0
   48.7070  161.3560   33.5690 C   0  0  0  0  0  0  0  0  0  0  0  0
   47.8260  160.7320   32.6860 C   0  0  0  0  0  0  0  0  0  0  0  0
   48.2740  160.3070   31.4340 C   0  0  0  0  0  0  0  0  0  0  0  0
   49.6140  160.4940   31.0710 C   0  0  0  0  0  0  0  0  0  0  0  0
   50.0640  160.1170   29.8240 O   0  0  0  0  0  0  0  0  0  0  0  0
   50.5540  158.8380   29.6960 C   0  0  0  0  0  0  0  0  0  0  0  0
   49.8000  157.7010   29.9900 C   0  0  0  0  0  0  0  0  0  0  0  0
   50.3790  156.4360   29.8650 C   0  0  0  0  0  0  0  0  0  0  0  0
   51.7100  156.2870   29.4490 C   0  0  0  0  0  0  0  0  0  0  0  0
   52.2430  154.9830   29.3720 N   0  0  0  0  0  0  0  0  0  0  0  0
   52.2700  154.1240   28.2630 C   0  0  0  0  0  0  0  0  0  0  0  0
   51.8780  152.8420   28.4760 N   0  0  0  0  0  0  0  0  0  0  0  0
   51.8780  151.9840   27.4360 C   0  0  0  0  0  0  0  0  0  0  0  0
   52.2130  152.2280   26.1590 N   0  0  0  0  0  0  0  0  0  0  0  0
   52.5630  153.5110   25.9850 C   0  0  0  0  0  0  0  0  0  0  0  0
   52.9280  154.0590   24.7870 N   0  0  0  0  0  0  0  0  0  0  0  0
   53.1980  155.3940   24.9510 C   0  0  0  0  0  0  0  0  0  0  0  0
   53.0030  155.6990   26.2820 C   0  0  0  0  0  0  0  0  0  0  0  0
   52.6130  154.5030   26.9520 C   0  0  0  0  0  0  0  0  0  0  0  0
   52.4630  157.4400   29.2010 C   0  0  0  0  0  0  0  0  0  0  0  0
   51.8910  158.7090   29.3240 C   0  0  0  0  0  0  0  0  0  0  0  0
   50.7300  162.0599   33.8968 H   0  0  0  0  0  0  0  0  0  0  0  0
   48.3528  161.6856   34.5569 H   0  0  0  0  0  0  0  0  0  0  0  0
   46.7768  160.5745   32.9765 H   0  0  0  0  0  0  0  0  0  0  0  0
   47.5757  159.8259   30.7334 H   0  0  0  0  0  0  0  0  0  0  0  0
   48.7549  157.8005   30.3185 H   0  0  0  0  0  0  0  0  0  0  0  0
   49.7813  155.5421   30.0966 H   0  0  0  0  0  0  0  0  0  0  0  0
   52.6460  154.6330   30.1990 H   0  0  0  0  0  0  0  0  0  0  0  0
   51.5640  150.9543   27.6623 H   0  0  0  0  0  0  0  0  0  0  0  0
   52.9880  153.5710   23.9340 H   0  0  0  0  0  0  0  0  0  0  0  0
   53.5130  156.0945   24.1635 H   0  0  0  0  0  0  0  0  0  0  0  0
   53.1266  156.6895   26.7443 H   0  0  0  0  0  0  0  0  0  0  0  0
   53.5184  157.3463   28.9055 H   0  0  0  0  0  0  0  0  0  0  0  0
   52.4960  159.6063   29.1272 H   0  0  0  0  0  0  0  0  0  0  0  0
  1  2  1  0
  2  3  2  0
  3  4  1  0
  4  5  2  0
  5  6  1  0
  6  7  2  0
  7  8  1  0
  8  9  1  0
  9 10  2  0
 10 11  1  0
 11 12  2  0
 12 13  1  0
 13 14  1  0
 14 15  2  0
 15 16  1  0
 16 17  2  0
 17 18  1  0
 18 19  1  0
 19 20  1  0
 20 21  2  0
 21 22  1  0
 12 23  1  0
 23 24  2  0
  7  2  1  0
 24  9  1  0
 22 14  1  0
 22 18  2  0
  3 25  1  0
  4 26  1  0
  5 27  1  0
  6 28  1  0
 10 29  1  0
 11 30  1  0
 13 31  1  0
 16 32  1  0
 19 33  1  0
 20 34  1  0
 21 35  1  0
 23 36  1  0
 24 37  1  0
M  END
>  <meeko>  (1) 
{"is_sidechain": [false], "free_energy": -10.688, "intermolecular_energy": -13.188, "internal_energy": -0.613}

$$$$
9IV_ttbk2_out
     RDKit          3D

 37 40  0  0  0  0  0  0  0  0999 V2000
   52.1910  161.3650   30.7890 Cl  0  0  0  0  0  0  0  0  0  0  0  0
   50.7180  160.4730   30.6880 C   0  0  0  0  0  0  0  0  0  0  0  0
   49.5140  161.1440   30.9150 C   0  0  0  0  0  0  0  0  0  0  0  0
   48.3030  160.4520   30.8400 C   0  0  0  0  0  0  0  0  0  0  0  0
   48.2930  159.0920   30.5320 C   0  0  0  0  0  0  0  0  0  0  0  0
   49.4950  158.4180   30.3040 C   0  0  0  0  0  0  0  0  0  0  0  0
   50.7110  159.1050   30.4000 C   0  0  0  0  0  0  0  0  0  0  0  0
   51.9030  158.4650   30.1390 O   0  0  0  0  0  0  0  0  0  0  0  0
   51.8510  157.3490   29.3350 C   0  0  0  0  0  0  0  0  0  0  0  0
   51.1390  156.1980   29.6750 C   0  0  0  0  0  0  0  0  0  0  0  0
   51.1610  155.0930   28.8200 C   0  0  0  0  0  0  0  0  0  0  0  0
   51.8900  155.1200   27.6220 C   0  0  0  0  0  0  0  0  0  0  0  0
   51.8940  153.9610   26.8180 N   0  0  0  0  0  0  0  0  0  0  0  0
   52.7760  153.6350   25.7760 C   0  0  0  0  0  0  0  0  0  0  0  0
   53.3180  154.6730   25.0900 N   0  0  0  0  0  0  0  0  0  0  0  0
   54.1780  154.4060   24.0870 C   0  0  0  0  0  0  0  0  0  0  0  0
   54.6070  153.2090   23.6570 N   0  0  0  0  0  0  0  0  0  0  0  0
   54.0740  152.2140   24.3810 C   0  0  0  0  0  0  0  0  0  0  0  0
   54.3440  150.8860   24.1920 N   0  0  0  0  0  0  0  0  0  0  0  0
   53.6570  150.1380   25.1140 C   0  0  0  0  0  0  0  0  0  0  0  0
   52.9320  151.0070   25.9010 C   0  0  0  0  0  0  0  0  0  0  0  0
   53.1790  152.3310   25.4330 C   0  0  0  0  0  0  0  0  0  0  0  0
   52.6340  156.2660   27.3200 C   0  0  0  0  0  0  0  0  0  0  0  0
   52.6160  157.3750   28.1710 C   0  0  0  0  0  0  0  0  0  0  0  0
   49.5196  162.2179   31.1530 H   0  0  0  0  0  0  0  0  0  0  0  0
   47.3560  160.9805   31.0241 H   0  0  0  0  0  0  0  0  0  0  0  0
   47.3381  158.5497   30.4686 H   0  0  0  0  0  0  0  0  0  0  0  0
   49.4861  157.3480   30.0491 H   0  0  0  0  0  0  0  0  0  0  0  0
   50.5632  156.1608   30.6115 H   0  0  0  0  0  0  0  0  0  0  0  0
   50.5978  154.1877   29.0907 H   0  0  0  0  0  0  0  0  0  0  0  0
   51.1920  153.2990   27.0120 H   0  0  0  0  0  0  0  0  0  0  0  0
   54.5792  155.2800   23.5531 H   0  0  0  0  0  0  0  0  0  0  0  0
   54.9420  150.5230   23.5000 H   0  0  0  0  0  0  0  0  0  0  0  0
   53.6804  149.0423   25.2083 H   0  0  0  0  0  0  0  0  0  0  0  0
   52.2788  150.7284   26.7411 H   0  0  0  0  0  0  0  0  0  0  0  0
   53.2400  156.2946   26.4024 H   0  0  0  0  0  0  0  0  0  0  0  0
   53.2064  158.2689   27.9213 H   0  0  0  0  0  0  0  0  0  0  0  0
  1  2  1  0
  2  3  2  0
  3  4  1  0
  4  5  2  0
  5  6  1  0
  6  7  2  0
  7  8  1  0
  8  9  1  0
  9 10  2  0
 10 11  1  0
 11 12  2  0
 12 13  1  0
 13 14  1  0
 14 15  2  0
 15 16  1  0
 16 17  2  0
 17 18  1  0
 18 19  1  0
 19 20  1  0
 20 21  2  0
 21 22  1  0
 12 23  1  0
 23 24  2  0
  7  2  1  0
 24  9  1  0
 22 14  1  0
 22 18  2  0
  3 25  1  0
  4 26  1  0
  5 27  1  0
  6 28  1  0
 10 29  1  0
 11 30  1  0
 13 31  1  0
 16 32  1  0
 19 33  1  0
 20 34  1  0
 21 35  1  0
 23 36  1  0
 24 37  1  0
M  END
>  <meeko>  (2) 
{"is_sidechain": [false], "free_energy": -10.048, "intermolecular_energy": -13.648, "internal_energy": 0.638}

$$$$
9IV_ttbk2_out
     RDKit          3D

 37 40  0  0  0  0  0  0  0  0999 V2000
   52.3290  161.2700   30.6710 Cl  0  0  0  0  0  0  0  0  0  0  0  0
   50.8320  160.4150   30.6420 C   0  0  0  0  0  0  0  0  0  0  0  0
   49.6590  161.1100   30.9490 C   0  0  0  0  0  0  0  0  0  0  0  0
   48.4300  160.4470   30.9340 C   0  0  0  0  0  0  0  0  0  0  0  0
   48.3700  159.0920   30.6070 C   0  0  0  0  0  0  0  0  0  0  0  0
   49.5390  158.3950   30.2990 C   0  0  0  0  0  0  0  0  0  0  0  0
   50.7750  159.0520   30.3340 C   0  0  0  0  0  0  0  0  0  0  0  0
   51.9340  158.3890   29.9950 O   0  0  0  0  0  0  0  0  0  0  0  0
   51.8030  157.2470   29.2390 C   0  0  0  0  0  0  0  0  0  0  0  0
   50.9800  156.1810   29.6040 C   0  0  0  0  0  0  0  0  0  0  0  0
   50.9240  155.0410   28.7980 C   0  0  0  0  0  0  0  0  0  0  0  0
   51.6850  154.9470   27.6240 C   0  0  0  0  0  0  0  0  0  0  0  0
   51.6070  153.7570   26.8710 N   0  0  0  0  0  0  0  0  0  0  0  0
   52.6360  153.1060   26.1740 C   0  0  0  0  0  0  0  0  0  0  0  0
   52.6710  151.7520   26.2650 N   0  0  0  0  0  0  0  0  0  0  0  0
   53.6360  151.0840   25.6030 C   0  0  0  0  0  0  0  0  0  0  0  0
   54.6050  151.5850   24.8200 N   0  0  0  0  0  0  0  0  0  0  0  0
   54.5150  152.9200   24.7310 C   0  0  0  0  0  0  0  0  0  0  0  0
   55.3500  153.7050   23.9840 N   0  0  0  0  0  0  0  0  0  0  0  0
   54.9690  155.0190   24.0910 C   0  0  0  0  0  0  0  0  0  0  0  0
   53.8730  155.0700   24.9270 C   0  0  0  0  0  0  0  0  0  0  0  0
   53.5850  153.7400   25.3520 C   0  0  0  0  0  0  0  0  0  0  0  0
   52.5390  156.0080   27.2970 C   0  0  0  0  0  0  0  0  0  0  0  0
   52.5990  157.1510   28.0990 C   0  0  0  0  0  0  0  0  0  0  0  0
   49.7038  162.1795   31.2025 H   0  0  0  0  0  0  0  0  0  0  0  0
   47.5079  160.9939   31.1804 H   0  0  0  0  0  0  0  0  0  0  0  0
   47.4004  158.5727   30.5920 H   0  0  0  0  0  0  0  0  0  0  0  0
   49.4895  157.3299   30.0288 H   0  0  0  0  0  0  0  0  0  0  0  0
   50.3776  156.2379   30.5227 H   0  0  0  0  0  0  0  0  0  0  0  0
   50.2725  154.2039   29.0891 H   0  0  0  0  0  0  0  0  0  0  0  0
   50.7200  153.3320   26.8290 H   0  0  0  0  0  0  0  0  0  0  0  0
   53.6291  149.9901   25.7186 H   0  0  0  0  0  0  0  0  0  0  0  0
   56.1080  153.3780   23.4490 H   0  0  0  0  0  0  0  0  0  0  0  0
   55.4507  155.8768   23.5989 H   0  0  0  0  0  0  0  0  0  0  0  0
   53.3195  155.9760   25.2147 H   0  0  0  0  0  0  0  0  0  0  0  0
   53.1699  155.9408   26.3984 H   0  0  0  0  0  0  0  0  0  0  0  0
   53.2753  157.9758   27.8302 H   0  0  0  0  0  0  0  0  0  0  0  0
  1  2  1  0
  2  3  2  0
  3  4  1  0
  4  5  2  0
  5  6  1  0
  6  7  2  0
  7  8  1  0
  8  9  1  0
  9 10  2  0
 10 11  1  0
 11 12  2  0
 12 13  1  0
 13 14  1  0
 14 15  2  0
 15 16  1  0
 16 17  2  0
 17 18  1  0
 18 19  1  0
 19 20  1  0
 20 21  2  0
 21 22  1  0
 12 23  1  0
 23 24  2  0
  7  2  1  0
 24  9  1  0
 22 14  1  0
 22 18  2  0
  3 25  1  0
  4 26  1  0
  5 27  1  0
  6 28  1  0
 10 29  1  0
 11 30  1  0
 13 31  1  0
 16 32  1  0
 19 33  1  0
 20 34  1  0
 21 35  1  0
 23 36  1  0
 24 37  1  0
M  END
>  <meeko>  (3) 
{"is_sidechain": [false], "free_energy": -9.994, "intermolecular_energy": -14.083, "internal_energy": 1.139}

$$$$
9IV_ttbk2_out
     RDKit          3D

 37 40  0  0  0  0  0  0  0  0999 V2000
   49.0110  161.1480   29.1960 Cl  0  0  0  0  0  0  0  0  0  0  0  0
   49.1850  160.9140   30.8970 C   0  0  0  0  0  0  0  0  0  0  0  0
   49.5650  162.0020   31.6860 C   0  0  0  0  0  0  0  0  0  0  0  0
   49.7140  161.8460   33.0660 C   0  0  0  0  0  0  0  0  0  0  0  0
   49.4780  160.6060   33.6590 C   0  0  0  0  0  0  0  0  0  0  0  0
   49.0980  159.5160   32.8740 C   0  0  0  0  0  0  0  0  0  0  0  0
   48.9690  159.6650   31.4870 C   0  0  0  0  0  0  0  0  0  0  0  0
   48.5560  158.6100   30.7020 O   0  0  0  0  0  0  0  0  0  0  0  0
   49.5380  157.8190   30.1510 C   0  0  0  0  0  0  0  0  0  0  0  0
   49.3430  156.4740   29.8330 C   0  0  0  0  0  0  0  0  0  0  0  0
   50.4000  155.7280   29.3050 C   0  0  0  0  0  0  0  0  0  0  0  0
   51.6580  156.3080   29.0900 C   0  0  0  0  0  0  0  0  0  0  0  0
   52.6910  155.4920   28.5820 N   0  0  0  0  0  0  0  0  0  0  0  0
   53.0420  155.2750   27.2400 C   0  0  0  0  0  0  0  0  0  0  0  0
   53.3920  156.3700   26.5180 N   0  0  0  0  0  0  0  0  0  0  0  0
   53.7460  156.2070   25.2280 C   0  0  0  0  0  0  0  0  0  0  0  0
   53.8180  155.0660   24.5240 N   0  0  0  0  0  0  0  0  0  0  0  0
   53.4950  154.0070   25.2820 C   0  0  0  0  0  0  0  0  0  0  0  0
   53.5020  152.7110   24.8460 N   0  0  0  0  0  0  0  0  0  0  0  0
   53.1480  151.8750   25.8740 C   0  0  0  0  0  0  0  0  0  0  0  0
   52.9070  152.6560   26.9840 C   0  0  0  0  0  0  0  0  0  0  0  0
   53.1100  154.0180   26.6140 C   0  0  0  0  0  0  0  0  0  0  0  0
   51.8480  157.6460   29.4570 C   0  0  0  0  0  0  0  0  0  0  0  0
   50.7950  158.3980   29.9860 C   0  0  0  0  0  0  0  0  0  0  0  0
   49.7470  162.9819   31.2205 H   0  0  0  0  0  0  0  0  0  0  0  0
   50.0179  162.7023   33.6859 H   0  0  0  0  0  0  0  0  0  0  0  0
   49.5914  160.4867   34.7466 H   0  0  0  0  0  0  0  0  0  0  0  0
   48.9001  158.5413   33.3439 H   0  0  0  0  0  0  0  0  0  0  0  0
   48.3623  156.0037   29.9972 H   0  0  0  0  0  0  0  0  0  0  0  0
   50.2424  154.6687   29.0540 H   0  0  0  0  0  0  0  0  0  0  0  0
   53.2320  155.0150   29.2520 H   0  0  0  0  0  0  0  0  0  0  0  0
   54.0094  157.1252   24.6826 H   0  0  0  0  0  0  0  0  0  0  0  0
   53.7270  152.4210   23.9330 H   0  0  0  0  0  0  0  0  0  0  0  0
   53.0704  150.7790   25.8221 H   0  0  0  0  0  0  0  0  0  0  0  0
   52.6106  152.2928   27.9791 H   0  0  0  0  0  0  0  0  0  0  0  0
   52.8367  158.1104   29.3276 H   0  0  0  0  0  0  0  0  0  0  0  0
   50.9586  159.4474   30.2722 H   0  0  0  0  0  0  0  0  0  0  0  0
  1  2  1  0
  2  3  2  0
  3  4  1  0
  4  5  2  0
  5  6  1  0
  6  7  2  0
  7  8  1  0
  8  9  1  0
  9 10  2  0
 10 11  1  0
 11 12  2  0
 12 13  1  0
 13 14  1  0
 14 15  2  0
 15 16  1  0
 16 17  2  0
 17 18  1  0
 18 19  1  0
 19 20  1  0
 20 21  2  0
 21 22  1  0
 12 23  1  0
 23 24  2  0
  7  2  1  0
 24  9  1  0
 22 14  1  0
 22 18  2  0
  3 25  1  0
  4 26  1  0
  5 27  1  0
  6 28  1  0
 10 29  1  0
 11 30  1  0
 13 31  1  0
 16 32  1  0
 19 33  1  0
 20 34  1  0
 21 35  1  0
 23 36  1  0
 24 37  1  0
M  END
>  <meeko>  (4) 
{"is_sidechain": [false], "free_energy": -9.482, "intermolecular_energy": -11.967, "internal_energy": -0.344}

$$$$
9IV_ttbk2_out
     RDKit          3D

 37 40  0  0  0  0  0  0  0  0999 V2000
   54.7870  154.0140   23.4320 Cl  0  0  0  0  0  0  0  0  0  0  0  0
   54.0160  152.8290   24.4200 C   0  0  0  0  0  0  0  0  0  0  0  0
   54.5560  151.5410   24.4660 C   0  0  0  0  0  0  0  0  0  0  0  0
   53.9560  150.5590   25.2570 C   0  0  0  0  0  0  0  0  0  0  0  0
   52.8210  150.8640   26.0080 C   0  0  0  0  0  0  0  0  0  0  0  0
   52.2780  152.1500   25.9660 C   0  0  0  0  0  0  0  0  0  0  0  0
   52.8650  153.1300   25.1570 C   0  0  0  0  0  0  0  0  0  0  0  0
   52.3670  154.4140   25.1340 O   0  0  0  0  0  0  0  0  0  0  0  0
   52.3270  155.0910   26.3310 C   0  0  0  0  0  0  0  0  0  0  0  0
   51.5720  154.6640   27.4230 C   0  0  0  0  0  0  0  0  0  0  0  0
   51.5580  155.4240   28.5950 C   0  0  0  0  0  0  0  0  0  0  0  0
   52.2910  156.6140   28.6940 C   0  0  0  0  0  0  0  0  0  0  0  0
   52.2110  157.3500   29.8950 N   0  0  0  0  0  0  0  0  0  0  0  0
   51.6030  158.5970   30.1060 C   0  0  0  0  0  0  0  0  0  0  0  0
   52.4200  159.6820   30.1020 N   0  0  0  0  0  0  0  0  0  0  0  0
   51.8760  160.9010   30.2900 C   0  0  0  0  0  0  0  0  0  0  0  0
   50.5840  161.2140   30.4780 N   0  0  0  0  0  0  0  0  0  0  0  0
   49.8090  160.1200   30.4440 C   0  0  0  0  0  0  0  0  0  0  0  0
   48.4490  160.1300   30.5790 N   0  0  0  0  0  0  0  0  0  0  0  0
   47.9630  158.8510   30.4710 C   0  0  0  0  0  0  0  0  0  0  0  0
   49.0390  158.0120   30.2660 C   0  0  0  0  0  0  0  0  0  0  0  0
   50.2210  158.8090   30.2620 C   0  0  0  0  0  0  0  0  0  0  0  0
   53.0080  157.0510   27.5730 C   0  0  0  0  0  0  0  0  0  0  0  0
   53.0260  156.2950   26.3970 C   0  0  0  0  0  0  0  0  0  0  0  0
   55.4544  151.3005   23.8787 H   0  0  0  0  0  0  0  0  0  0  0  0
   54.3789  149.5440   25.2878 H   0  0  0  0  0  0  0  0  0  0  0  0
   52.3528  150.0904   26.6344 H   0  0  0  0  0  0  0  0  0  0  0  0
   51.3899  152.3926   26.5681 H   0  0  0  0  0  0  0  0  0  0  0  0
   50.9899  153.7326   27.3617 H   0  0  0  0  0  0  0  0  0  0  0  0
   50.9618  155.0827   29.4541 H   0  0  0  0  0  0  0  0  0  0  0  0
   52.6350  156.9380   30.6820 H   0  0  0  0  0  0  0  0  0  0  0  0
   52.5798  161.7464   30.2893 H   0  0  0  0  0  0  0  0  0  0  0  0
   47.9000  160.9320   30.7310 H   0  0  0  0  0  0  0  0  0  0  0  0
   46.9071  158.5495   30.5361 H   0  0  0  0  0  0  0  0  0  0  0  0
   48.9930  156.9214   30.1298 H   0  0  0  0  0  0  0  0  0  0  0  0
   53.5631  157.9996   27.6183 H   0  0  0  0  0  0  0  0  0  0  0  0
   53.5921  156.6506   25.5235 H   0  0  0  0  0  0  0  0  0  0  0  0
  1  2  1  0
  2  3  2  0
  3  4  1  0
  4  5  2  0
  5  6  1  0
  6  7  2  0
  7  8  1  0
  8  9  1  0
  9 10  2  0
 10 11  1  0
 11 12  2  0
 12 13  1  0
 13 14  1  0
 14 15  2  0
 15 16  1  0
 16 17  2  0
 17 18  1  0
 18 19  1  0
 19 20  1  0
 20 21  2  0
 21 22  1  0
 12 23  1  0
 23 24  2  0
  7  2  1  0
 24  9  1  0
 22 14  1  0
 22 18  2  0
  3 25  1  0
  4 26  1  0
  5 27  1  0
  6 28  1  0
 10 29  1  0
 11 30  1  0
 13 31  1  0
 16 32  1  0
 19 33  1  0
 20 34  1  0
 21 35  1  0
 23 36  1  0
 24 37  1  0
M  END
>  <meeko>  (5) 
{"is_sidechain": [false], "free_energy": -9.348, "intermolecular_energy": -11.724, "internal_energy": -0.423}

$$$$
9IV_ttbk2_out
     RDKit          3D

 37 40  0  0  0  0  0  0  0  0999 V2000
   53.0660  151.2020   25.8280 Cl  0  0  0  0  0  0  0  0  0  0  0  0
   53.6360  152.7420   25.2980 C   0  0  0  0  0  0  0  0  0  0  0  0
   54.4260  152.8020   24.1470 C   0  0  0  0  0  0  0  0  0  0  0  0
   54.9020  154.0330   23.6910 C   0  0  0  0  0  0  0  0  0  0  0  0
   54.5860  155.2040   24.3790 C   0  0  0  0  0  0  0  0  0  0  0  0
   53.7960  155.1480   25.5280 C   0  0  0  0  0  0  0  0  0  0  0  0
   53.3350  153.9130   26.0010 C   0  0  0  0  0  0  0  0  0  0  0  0
   52.5220  153.8430   27.1110 O   0  0  0  0  0  0  0  0  0  0  0  0
   52.2830  155.0180   27.7860 C   0  0  0  0  0  0  0  0  0  0  0  0
   52.8570  156.2370   27.4210 C   0  0  0  0  0  0  0  0  0  0  0  0
   52.5900  157.3810   28.1770 C   0  0  0  0  0  0  0  0  0  0  0  0
   51.7550  157.3270   29.3020 C   0  0  0  0  0  0  0  0  0  0  0  0
   51.5500  158.5120   30.0390 N   0  0  0  0  0  0  0  0  0  0  0  0
   50.3320  159.0740   30.4530 C   0  0  0  0  0  0  0  0  0  0  0  0
   49.2030  158.4130   30.0910 N   0  0  0  0  0  0  0  0  0  0  0  0
   48.0110  158.9120   30.4760 C   0  0  0  0  0  0  0  0  0  0  0  0
   47.7680  160.0100   31.2090 N   0  0  0  0  0  0  0  0  0  0  0  0
   48.9090  160.6140   31.5720 C   0  0  0  0  0  0  0  0  0  0  0  0
   48.9790  161.7400   32.3440 N   0  0  0  0  0  0  0  0  0  0  0  0
   50.2910  162.0810   32.5490 C   0  0  0  0  0  0  0  0  0  0  0  0
   51.0720  161.1540   31.8910 C   0  0  0  0  0  0  0  0  0  0  0  0
   50.2010  160.2230   31.2530 C   0  0  0  0  0  0  0  0  0  0  0  0
   51.2240  156.0870   29.6790 C   0  0  0  0  0  0  0  0  0  0  0  0
   51.4870  154.9380   28.9270 C   0  0  0  0  0  0  0  0  0  0  0  0
   54.6728  151.8799   23.6004 H   0  0  0  0  0  0  0  0  0  0  0  0
   55.5275  154.0791   22.7873 H   0  0  0  0  0  0  0  0  0  0  0  0
   54.9597  156.1727   24.0157 H   0  0  0  0  0  0  0  0  0  0  0  0
   53.5354  156.0737   26.0621 H   0  0  0  0  0  0  0  0  0  0  0  0
   53.5163  156.2965   26.5425 H   0  0  0  0  0  0  0  0  0  0  0  0
   53.0424  158.3401   27.8848 H   0  0  0  0  0  0  0  0  0  0  0  0
   52.3620  159.0060   30.2940 H   0  0  0  0  0  0  0  0  0  0  0  0
   47.1255  158.3479   30.1479 H   0  0  0  0  0  0  0  0  0  0  0  0
   48.2040  162.2330   32.6990 H   0  0  0  0  0  0  0  0  0  0  0  0
   50.6551  162.9391   33.1330 H   0  0  0  0  0  0  0  0  0  0  0  0
   52.1715  161.1362   31.8634 H   0  0  0  0  0  0  0  0  0  0  0  0
   50.5928  156.0163   30.5771 H   0  0  0  0  0  0  0  0  0  0  0  0
   51.0653  153.9703   29.2362 H   0  0  0  0  0  0  0  0  0  0  0  0
  1  2  1  0
  2  3  2  0
  3  4  1  0
  4  5  2  0
  5  6  1  0
  6  7  2  0
  7  8  1  0
  8  9  1  0
  9 10  2  0
 10 11  1  0
 11 12  2  0
 12 13  1  0
 13 14  1  0
 14 15  2  0
 15 16  1  0
 16 17  2  0
 17 18  1  0
 18 19  1  0
 19 20  1  0
 20 21  2  0
 21 22  1  0
 12 23  1  0
 23 24  2  0
  7  2  1  0
 24  9  1  0
 22 14  1  0
 22 18  2  0
  3 25  1  0
  4 26  1  0
  5 27  1  0
  6 28  1  0
 10 29  1  0
 11 30  1  0
 13 31  1  0
 16 32  1  0
 19 33  1  0
 20 34  1  0
 21 35  1  0
 23 36  1  0
 24 37  1  0
M  END
>  <meeko>  (6) 
{"is_sidechain": [false], "free_energy": -9.24, "intermolecular_energy": -13.236, "internal_energy": 1.223}

$$$$
9IV_ttbk2_out
     RDKit          3D

 37 40  0  0  0  0  0  0  0  0999 V2000
   54.8290  153.5930   23.2200 Cl  0  0  0  0  0  0  0  0  0  0  0  0
   54.0130  152.5490   24.3240 C   0  0  0  0  0  0  0  0  0  0  0  0
   54.4500  151.2260   24.4400 C   0  0  0  0  0  0  0  0  0  0  0  0
   53.8120  150.3550   25.3260 C   0  0  0  0  0  0  0  0  0  0  0  0
   52.7430  150.8040   26.1010 C   0  0  0  0  0  0  0  0  0  0  0  0
   52.3040  152.1250   25.9880 C   0  0  0  0  0  0  0  0  0  0  0  0
   52.9280  152.9950   25.0850 C   0  0  0  0  0  0  0  0  0  0  0  0
   52.5330  154.3110   24.9900 O   0  0  0  0  0  0  0  0  0  0  0  0
   52.4380  155.0220   26.1640 C   0  0  0  0  0  0  0  0  0  0  0  0
   51.6780  154.5950   27.2540 C   0  0  0  0  0  0  0  0  0  0  0  0
   51.6060  155.3890   28.4010 C   0  0  0  0  0  0  0  0  0  0  0  0
   52.2840  156.6140   28.4770 C   0  0  0  0  0  0  0  0  0  0  0  0
   52.1450  157.3810   29.6520 N   0  0  0  0  0  0  0  0  0  0  0  0
   51.0510  158.1660   30.0490 C   0  0  0  0  0  0  0  0  0  0  0  0
   49.8360  157.5590   30.0530 N   0  0  0  0  0  0  0  0  0  0  0  0
   48.7590  158.2730   30.4360 C   0  0  0  0  0  0  0  0  0  0  0  0
   48.7120  159.5510   30.8450 N   0  0  0  0  0  0  0  0  0  0  0  0
   49.9340  160.1020   30.8560 C   0  0  0  0  0  0  0  0  0  0  0  0
   50.2030  161.3840   31.2510 N   0  0  0  0  0  0  0  0  0  0  0  0
   51.5510  161.6220   31.1670 C   0  0  0  0  0  0  0  0  0  0  0  0
   52.1510  160.4690   30.7050 C   0  0  0  0  0  0  0  0  0  0  0  0
   51.1280  159.4990   30.4900 C   0  0  0  0  0  0  0  0  0  0  0  0
   53.0040  157.0470   27.3580 C   0  0  0  0  0  0  0  0  0  0  0  0
   53.0810  156.2580   26.2070 C   0  0  0  0  0  0  0  0  0  0  0  0
   55.2963  150.8711   23.8335 H   0  0  0  0  0  0  0  0  0  0  0  0
   54.1533  149.3129   25.4127 H   0  0  0  0  0  0  0  0  0  0  0  0
   52.2454  150.1174   26.8016 H   0  0  0  0  0  0  0  0  0  0  0  0
   51.4685  152.4820   26.6080 H   0  0  0  0  0  0  0  0  0  0  0  0
   51.1382  153.6376   27.2100 H   0  0  0  0  0  0  0  0  0  0  0  0
   51.0076  155.0477   29.2586 H   0  0  0  0  0  0  0  0  0  0  0  0
   52.9110  157.3650   30.2710 H   0  0  0  0  0  0  0  0  0  0  0  0
   47.7964  157.7413   30.4103 H   0  0  0  0  0  0  0  0  0  0  0  0
   49.5310  162.0380   31.5510 H   0  0  0  0  0  0  0  0  0  0  0  0
   52.0615  162.5624   31.4220 H   0  0  0  0  0  0  0  0  0  0  0  0
   53.2277  160.3236   30.5329 H   0  0  0  0  0  0  0  0  0  0  0  0
   53.5157  158.0204   27.3846 H   0  0  0  0  0  0  0  0  0  0  0  0
   53.6494  156.6126   25.3345 H   0  0  0  0  0  0  0  0  0  0  0  0
  1  2  1  0
  2  3  2  0
  3  4  1  0
  4  5  2  0
  5  6  1  0
  6  7  2  0
  7  8  1  0
  8  9  1  0
  9 10  2  0
 10 11  1  0
 11 12  2  0
 12 13  1  0
 13 14  1  0
 14 15  2  0
 15 16  1  0
 16 17  2  0
 17 18  1  0
 18 19  1  0
 19 20  1  0
 20 21  2  0
 21 22  1  0
 12 23  1  0
 23 24  2  0
  7  2  1  0
 24  9  1  0
 22 14  1  0
 22 18  2  0
  3 25  1  0
  4 26  1  0
  5 27  1  0
  6 28  1  0
 10 29  1  0
 11 30  1  0
 13 31  1  0
 16 32  1  0
 19 33  1  0
 20 34  1  0
 21 35  1  0
 23 36  1  0
 24 37  1  0
M  END
>  <meeko>  (7) 
{"is_sidechain": [false], "free_energy": -9.136, "intermolecular_energy": -12.011, "internal_energy": 0.126}

$$$$
9IV_ttbk2_out
     RDKit          3D

 37 40  0  0  0  0  0  0  0  0999 V2000
   52.2210  152.0300   26.8790 Cl  0  0  0  0  0  0  0  0  0  0  0  0
   52.7540  153.5490   26.2570 C   0  0  0  0  0  0  0  0  0  0  0  0
   53.0240  153.6540   24.8900 C   0  0  0  0  0  0  0  0  0  0  0  0
   53.4550  154.8690   24.3550 C   0  0  0  0  0  0  0  0  0  0  0  0
   53.6120  155.9810   25.1810 C   0  0  0  0  0  0  0  0  0  0  0  0
   53.3420  155.8810   26.5480 C   0  0  0  0  0  0  0  0  0  0  0  0
   52.9300  154.6580   27.0910 C   0  0  0  0  0  0  0  0  0  0  0  0
   52.6220  154.5510   28.4300 O   0  0  0  0  0  0  0  0  0  0  0  0
   51.7670  155.4940   28.9520 C   0  0  0  0  0  0  0  0  0  0  0  0
   50.4120  155.2500   29.1810 C   0  0  0  0  0  0  0  0  0  0  0  0
   49.6010  156.2700   29.6850 C   0  0  0  0  0  0  0  0  0  0  0  0
   50.1260  157.5400   29.9650 C   0  0  0  0  0  0  0  0  0  0  0  0
   49.2470  158.5340   30.4440 N   0  0  0  0  0  0  0  0  0  0  0  0
   49.5340  159.5910   31.3220 C   0  0  0  0  0  0  0  0  0  0  0  0
   48.6900  159.7560   32.3730 N   0  0  0  0  0  0  0  0  0  0  0  0
   48.9330  160.7530   33.2470 C   0  0  0  0  0  0  0  0  0  0  0  0
   49.9420  161.6390   33.2360 N   0  0  0  0  0  0  0  0  0  0  0  0
   50.7680  161.4220   32.2020 C   0  0  0  0  0  0  0  0  0  0  0  0
   51.8970  162.1490   31.9470 N   0  0  0  0  0  0  0  0  0  0  0  0
   52.5260  161.6530   30.8330 C   0  0  0  0  0  0  0  0  0  0  0  0
   51.7780  160.5900   30.3700 C   0  0  0  0  0  0  0  0  0  0  0  0
   50.6480  160.4440   31.2260 C   0  0  0  0  0  0  0  0  0  0  0  0
   51.4770  157.7790   29.6880 C   0  0  0  0  0  0  0  0  0  0  0  0
   52.2940  156.7630   29.1830 C   0  0  0  0  0  0  0  0  0  0  0  0
   52.8969  152.7791   24.2355 H   0  0  0  0  0  0  0  0  0  0  0  0
   53.6712  154.9493   23.2795 H   0  0  0  0  0  0  0  0  0  0  0  0
   53.9488  156.9380   24.7560 H   0  0  0  0  0  0  0  0  0  0  0  0
   53.4530  156.7621   27.1971 H   0  0  0  0  0  0  0  0  0  0  0  0
   49.9847  154.2595   28.9657 H   0  0  0  0  0  0  0  0  0  0  0  0
   48.5337  156.0738   29.8651 H   0  0  0  0  0  0  0  0  0  0  0  0
   48.3180  158.4790   30.1240 H   0  0  0  0  0  0  0  0  0  0  0  0
   48.2141  160.8535   34.0735 H   0  0  0  0  0  0  0  0  0  0  0  0
   52.2120  162.9140   32.4800 H   0  0  0  0  0  0  0  0  0  0  0  0
   53.4578  162.0338   30.3894 H   0  0  0  0  0  0  0  0  0  0  0  0
   52.0124  159.9658   29.4951 H   0  0  0  0  0  0  0  0  0  0  0  0
   51.9008  158.7777   29.8697 H   0  0  0  0  0  0  0  0  0  0  0  0
   53.3536  156.9656   28.9679 H   0  0  0  0  0  0  0  0  0  0  0  0
  1  2  1  0
  2  3  2  0
  3  4  1  0
  4  5  2  0
  5  6  1  0
  6  7  2  0
  7  8  1  0
  8  9  1  0
  9 10  2  0
 10 11  1  0
 11 12  2  0
 12 13  1  0
 13 14  1  0
 14 15  2  0
 15 16  1  0
 16 17  2  0
 17 18  1  0
 18 19  1  0
 19 20  1  0
 20 21  2  0
 21 22  1  0
 12 23  1  0
 23 24  2  0
  7  2  1  0
 24  9  1  0
 22 14  1  0
 22 18  2  0
  3 25  1  0
  4 26  1  0
  5 27  1  0
  6 28  1  0
 10 29  1  0
 11 30  1  0
 13 31  1  0
 16 32  1  0
 19 33  1  0
 20 34  1  0
 21 35  1  0
 23 36  1  0
 24 37  1  0
M  END
>  <meeko>  (8) 
{"is_sidechain": [false], "free_energy": -8.869, "intermolecular_energy": -12.193, "internal_energy": 0.637}

$$$$
9IV_ttbk2_out
     RDKit          3D

 37 40  0  0  0  0  0  0  0  0999 V2000
   53.5550  151.8100   25.9240 Cl  0  0  0  0  0  0  0  0  0  0  0  0
   53.7370  153.4920   25.5900 C   0  0  0  0  0  0  0  0  0  0  0  0
   54.3930  153.8740   24.4170 C   0  0  0  0  0  0  0  0  0  0  0  0
   54.5560  155.2280   24.1160 C   0  0  0  0  0  0  0  0  0  0  0  0
   54.0590  156.2020   24.9830 C   0  0  0  0  0  0  0  0  0  0  0  0
   53.4030  155.8240   26.1570 C   0  0  0  0  0  0  0  0  0  0  0  0
   53.2580  154.4680   26.4710 C   0  0  0  0  0  0  0  0  0  0  0  0
   52.5780  154.0770   27.6040 O   0  0  0  0  0  0  0  0  0  0  0  0
   51.9330  155.0610   28.3170 C   0  0  0  0  0  0  0  0  0  0  0  0
   50.6040  154.9550   28.7290 C   0  0  0  0  0  0  0  0  0  0  0  0
   50.0080  156.0120   29.4230 C   0  0  0  0  0  0  0  0  0  0  0  0
   50.7240  157.1820   29.7120 C   0  0  0  0  0  0  0  0  0  0  0  0
   50.0550  158.2230   30.3890 N   0  0  0  0  0  0  0  0  0  0  0  0
   50.5910  159.4310   30.8620 C   0  0  0  0  0  0  0  0  0  0  0  0
   51.6940  159.8990   30.2240 N   0  0  0  0  0  0  0  0  0  0  0  0
   52.2360  161.0620   30.6400 C   0  0  0  0  0  0  0  0  0  0  0  0
   51.8170  161.8660   31.6300 N   0  0  0  0  0  0  0  0  0  0  0  0
   50.7090  161.3840   32.2120 C   0  0  0  0  0  0  0  0  0  0  0  0
   50.0390  162.0000   33.2320 N   0  0  0  0  0  0  0  0  0  0  0  0
   48.9380  161.2580   33.5780 C   0  0  0  0  0  0  0  0  0  0  0  0
   48.9100  160.1470   32.7610 C   0  0  0  0  0  0  0  0  0  0  0  0
   50.0420  160.2090   31.8980 C   0  0  0  0  0  0  0  0  0  0  0  0
   52.0420  157.2880   29.2520 C   0  0  0  0  0  0  0  0  0  0  0  0
   52.6440  156.2350   28.5570 C   0  0  0  0  0  0  0  0  0  0  0  0
   54.7814  153.1077   23.7300 H   0  0  0  0  0  0  0  0  0  0  0  0
   55.0768  155.5270   23.1944 H   0  0  0  0  0  0  0  0  0  0  0  0
   54.1838  157.2680   24.7419 H   0  0  0  0  0  0  0  0  0  0  0  0
   53.0007  156.5918   26.8342 H   0  0  0  0  0  0  0  0  0  0  0  0
   50.0281  154.0441   28.5087 H   0  0  0  0  0  0  0  0  0  0  0  0
   48.9606  155.9243   29.7475 H   0  0  0  0  0  0  0  0  0  0  0  0
   49.0930  158.0850   30.5490 H   0  0  0  0  0  0  0  0  0  0  0  0
   53.1350  161.3935   30.0997 H   0  0  0  0  0  0  0  0  0  0  0  0
   50.3060  162.8470   33.6560 H   0  0  0  0  0  0  0  0  0  0  0  0
   48.2095  161.5045   34.3645 H   0  0  0  0  0  0  0  0  0  0  0  0
   48.1484  159.3534   32.7735 H   0  0  0  0  0  0  0  0  0  0  0  0
   52.6106  158.2107   29.4397 H   0  0  0  0  0  0  0  0  0  0  0  0
   53.6796  156.3333   28.1994 H   0  0  0  0  0  0  0  0  0  0  0  0
  1  2  1  0
  2  3  2  0
  3  4  1  0
  4  5  2  0
  5  6  1  0
  6  7  2  0
  7  8  1  0
  8  9  1  0
  9 10  2  0
 10 11  1  0
 11 12  2  0
 12 13  1  0
 13 14  1  0
 14 15  2  0
 15 16  1  0
 16 17  2  0
 17 18  1  0
 18 19  1  0
 19 20  1  0
 20 21  2  0
 21 22  1  0
 12 23  1  0
 23 24  2  0
  7  2  1  0
 24  9  1  0
 22 14  1  0
 22 18  2  0
  3 25  1  0
  4 26  1  0
  5 27  1  0
  6 28  1  0
 10 29  1  0
 11 30  1  0
 13 31  1  0
 16 32  1  0
 19 33  1  0
 20 34  1  0
 21 35  1  0
 23 36  1  0
 24 37  1  0
M  END
>  <meeko>  (9) 
{"is_sidechain": [false], "free_energy": -8.491, "intermolecular_energy": -12.208, "internal_energy": 1.119}

$$$$
