clorgyline_out
     RDKit          3D

 33 33  0  0  0  0  0  0  0  0999 V2000
   47.1650  159.7900   31.4790 C   0  0  0  0  0  0  0  0  0  0  0  0
   48.1870  160.0400   30.8990 C   0  0  0  0  0  0  0  0  0  0  0  0
   49.4390  160.3510   30.1890 C   0  0  0  0  0  0  0  0  0  0  0  0
   50.6680  160.0420   30.9410 N   0  0  2  0  0  0  0  0  0  0  0  0
   51.1380  161.2030   31.6970 C   0  0  0  0  0  0  0  0  0  0  0  0
   51.7120  159.4730   30.0720 C   0  0  0  0  0  0  0  0  0  0  0  0
   51.4160  158.0180   29.6780 C   0  0  0  0  0  0  0  0  0  0  0  0
   52.5570  157.4090   28.8640 C   0  0  0  0  0  0  0  0  0  0  0  0
   52.2340  156.0530   28.5650 O   0  0  0  0  0  0  0  0  0  0  0  0
   52.6780  155.5310   27.3790 C   0  0  0  0  0  0  0  0  0  0  0  0
   53.1680  156.2910   26.3130 C   0  0  0  0  0  0  0  0  0  0  0  0
   53.5950  155.6650   25.1360 C   0  0  0  0  0  0  0  0  0  0  0  0
   53.5300  154.2780   25.0200 C   0  0  0  0  0  0  0  0  0  0  0  0
   54.0570  153.5180   23.5700 Cl  0  0  0  0  0  0  0  0  0  0  0  0
   53.0440  153.5060   26.0690 C   0  0  0  0  0  0  0  0  0  0  0  0
   52.6170  154.1320   27.2420 C   0  0  0  0  0  0  0  0  0  0  0  0
   52.0210  153.1300   28.5220 Cl  0  0  0  0  0  0  0  0  0  0  0  0
   46.2293  159.5611   32.0100 H   0  0  0  0  0  0  0  0  0  0  0  0
   49.4552  159.7720   29.2538 H   0  0  0  0  0  0  0  0  0  0  0  0
   49.4408  161.4388   30.0255 H   0  0  0  0  0  0  0  0  0  0  0  0
   50.4390  159.3190   31.6250 H   0  0  0  0  0  0  0  0  0  0  0  0
   51.0547  160.9972   32.7744 H   0  0  0  0  0  0  0  0  0  0  0  0
   52.1889  161.4053   31.4425 H   0  0  0  0  0  0  0  0  0  0  0  0
   50.5238  162.0794   31.4425 H   0  0  0  0  0  0  0  0  0  0  0  0
   51.7799  160.0800   29.1572 H   0  0  0  0  0  0  0  0  0  0  0  0
   52.6581  159.4831   30.6331 H   0  0  0  0  0  0  0  0  0  0  0  0
   51.2734  157.4232   30.5922 H   0  0  0  0  0  0  0  0  0  0  0  0
   50.5087  158.0092   29.0561 H   0  0  0  0  0  0  0  0  0  0  0  0
   52.6863  157.9733   27.9287 H   0  0  0  0  0  0  0  0  0  0  0  0
   53.4927  157.4523   29.4407 H   0  0  0  0  0  0  0  0  0  0  0  0
   53.2183  157.3864   26.3995 H   0  0  0  0  0  0  0  0  0  0  0  0
   53.9822  156.2686   24.3019 H   0  0  0  0  0  0  0  0  0  0  0  0
   52.9962  152.4110   25.9758 H   0  0  0  0  0  0  0  0  0  0  0  0
  1  2  3  0
  2  3  1  0
  3  4  1  0
  4  5  1  0
  4  6  1  0
  6  7  1  0
  7  8  1  0
  8  9  1  0
  9 10  1  0
 10 11  2  0
 11 12  1  0
 12 13  2  0
 13 14  1  0
 13 15  1  0
 15 16  2  0
 16 17  1  0
 16 10  1  0
  1 18  1  0
  3 19  1  0
  3 20  1  0
  4 21  1  1
  5 22  1  0
  5 23  1  0
  5 24  1  0
  6 25  1  0
  6 26  1  0
  7 27  1  0
  7 28  1  0
  8 29  1  0
  8 30  1  0
 11 31  1  0
 12 32  1  0
 15 33  1  0
M  CHG  1   4   1
M  END
>  <meeko>  (1) 
{"is_sidechain": [false], "free_energy": -7.923, "intermolecular_energy": -10.702, "internal_energy": -0.345}

$$$$
clorgyline_out
     RDKit          3D

 33 33  0  0  0  0  0  0  0  0999 V2000
   48.7000  161.4860   33.7450 C   0  0  0  0  0  0  0  0  0  0  0  0
   49.0980  160.7430   32.8890 C   0  0  0  0  0  0  0  0  0  0  0  0
   49.5830  159.8310   31.8390 C   0  0  0  0  0  0  0  0  0  0  0  0
   50.2710  160.4940   30.7160 N   0  0  2  0  0  0  0  0  0  0  0  0
   49.3630  160.7170   29.5900 C   0  0  0  0  0  0  0  0  0  0  0  0
   51.4930  159.7730   30.3230 C   0  0  0  0  0  0  0  0  0  0  0  0
   51.1940  158.3630   29.7910 C   0  0  0  0  0  0  0  0  0  0  0  0
   52.3990  157.7650   29.0650 C   0  0  0  0  0  0  0  0  0  0  0  0
   52.1710  156.3710   28.8700 O   0  0  0  0  0  0  0  0  0  0  0  0
   52.5880  155.8090   27.6930 C   0  0  0  0  0  0  0  0  0  0  0  0
   53.0210  156.5330   26.5780 C   0  0  0  0  0  0  0  0  0  0  0  0
   53.4240  155.8660   25.4150 C   0  0  0  0  0  0  0  0  0  0  0  0
   53.3910  154.4750   25.3610 C   0  0  0  0  0  0  0  0  0  0  0  0
   53.8870  153.6650   23.9270 Cl  0  0  0  0  0  0  0  0  0  0  0  0
   52.9610  153.7370   26.4590 C   0  0  0  0  0  0  0  0  0  0  0  0
   52.5590  154.4040   27.6180 C   0  0  0  0  0  0  0  0  0  0  0  0
   52.0340  153.4450   28.9600 Cl  0  0  0  0  0  0  0  0  0  0  0  0
   48.3356  162.1663   34.5288 H   0  0  0  0  0  0  0  0  0  0  0  0
   50.2854  159.1208   32.2998 H   0  0  0  0  0  0  0  0  0  0  0  0
   48.6923  159.3451   31.4141 H   0  0  0  0  0  0  0  0  0  0  0  0
   50.5720  161.4150   31.0380 H   0  0  0  0  0  0  0  0  0  0  0  0
   48.3607  160.9632   29.9704 H   0  0  0  0  0  0  0  0  0  0  0  0
   49.7372  161.5499   28.9766 H   0  0  0  0  0  0  0  0  0  0  0  0
   49.3087  159.8055   28.9766 H   0  0  0  0  0  0  0  0  0  0  0  0
   52.0043  160.3467   29.5360 H   0  0  0  0  0  0  0  0  0  0  0  0
   52.1235  159.6676   31.2182 H   0  0  0  0  0  0  0  0  0  0  0  0
   50.9283  157.7118   30.6368 H   0  0  0  0  0  0  0  0  0  0  0  0
   50.3633  158.4363   29.0736 H   0  0  0  0  0  0  0  0  0  0  0  0
   52.5262  158.2589   28.0904 H   0  0  0  0  0  0  0  0  0  0  0  0
   53.3093  157.9152   29.6640 H   0  0  0  0  0  0  0  0  0  0  0  0
   53.0451  157.6321   26.6148 H   0  0  0  0  0  0  0  0  0  0  0  0
   53.7672  156.4415   24.5427 H   0  0  0  0  0  0  0  0  0  0  0  0
   52.9379  152.6381   26.4146 H   0  0  0  0  0  0  0  0  0  0  0  0
  1  2  3  0
  2  3  1  0
  3  4  1  0
  4  5  1  0
  4  6  1  0
  6  7  1  0
  7  8  1  0
  8  9  1  0
  9 10  1  0
 10 11  2  0
 11 12  1  0
 12 13  2  0
 13 14  1  0
 13 15  1  0
 15 16  2  0
 16 17  1  0
 16 10  1  0
  1 18  1  0
  3 19  1  0
  3 20  1  0
  4 21  1  1
  5 22  1  0
  5 23  1  0
  5 24  1  0
  6 25  1  0
  6 26  1  0
  7 27  1  0
  7 28  1  0
  8 29  1  0
  8 30  1  0
 11 31  1  0
 12 32  1  0
 15 33  1  0
M  CHG  1   4   1
M  END
>  <meeko>  (2) 
{"is_sidechain": [false], "free_energy": -7.889, "intermolecular_energy": -10.67, "internal_energy": -0.33}

$$$$
clorgyline_out
     RDKit          3D

 33 33  0  0  0  0  0  0  0  0999 V2000
   54.9670  154.3660   24.1320 C   0  0  0  0  0  0  0  0  0  0  0  0
   54.2170  154.8740   24.9190 C   0  0  0  0  0  0  0  0  0  0  0  0
   53.2930  155.4970   25.8820 C   0  0  0  0  0  0  0  0  0  0  0  0
   53.0940  154.7350   27.1280 N   0  0  2  0  0  0  0  0  0  0  0  0
   52.4480  153.4480   26.8700 C   0  0  0  0  0  0  0  0  0  0  0  0
   52.3850  155.5280   28.1470 C   0  0  0  0  0  0  0  0  0  0  0  0
   52.6570  157.0340   28.0080 C   0  0  0  0  0  0  0  0  0  0  0  0
   52.3940  157.7790   29.3160 C   0  0  0  0  0  0  0  0  0  0  0  0
   51.3950  158.7700   29.0870 O   0  0  0  0  0  0  0  0  0  0  0  0
   50.8940  159.4430   30.1690 C   0  0  0  0  0  0  0  0  0  0  0  0
   51.4930  160.5660   30.7510 C   0  0  0  0  0  0  0  0  0  0  0  0
   50.9050  161.1840   31.8610 C   0  0  0  0  0  0  0  0  0  0  0  0
   49.7210  160.6800   32.3950 C   0  0  0  0  0  0  0  0  0  0  0  0
   49.0080  161.4460   33.7610 Cl  0  0  0  0  0  0  0  0  0  0  0  0
   49.1130  159.5630   31.8320 C   0  0  0  0  0  0  0  0  0  0  0  0
   49.7010  158.9480   30.7250 C   0  0  0  0  0  0  0  0  0  0  0  0
   48.9070  157.5620   30.0560 Cl  0  0  0  0  0  0  0  0  0  0  0  0
   55.6545  153.9003   23.4106 H   0  0  0  0  0  0  0  0  0  0  0  0
   53.6909  156.4878   26.1465 H   0  0  0  0  0  0  0  0  0  0  0  0
   52.3122  155.5420   25.3860 H   0  0  0  0  0  0  0  0  0  0  0  0
   54.0160  154.5290   27.5150 H   0  0  0  0  0  0  0  0  0  0  0  0
   52.2040  152.9620   27.8262 H   0  0  0  0  0  0  0  0  0  0  0  0
   51.5244  153.6101   26.2949 H   0  0  0  0  0  0  0  0  0  0  0  0
   53.1298  152.8043   26.2949 H   0  0  0  0  0  0  0  0  0  0  0  0
   51.3041  155.3527   28.0425 H   0  0  0  0  0  0  0  0  0  0  0  0
   52.7502  155.2100   29.1347 H   0  0  0  0  0  0  0  0  0  0  0  0
   53.7081  157.1812   27.7191 H   0  0  0  0  0  0  0  0  0  0  0  0
   51.9776  157.4359   27.2419 H   0  0  0  0  0  0  0  0  0  0  0  0
   52.0436  157.0706   30.0810 H   0  0  0  0  0  0  0  0  0  0  0  0
   53.3207  158.2564   29.6672 H   0  0  0  0  0  0  0  0  0  0  0  0
   52.4298  160.9647   30.3345 H   0  0  0  0  0  0  0  0  0  0  0  0
   51.3783  162.0686   32.3121 H   0  0  0  0  0  0  0  0  0  0  0  0
   48.1776  159.1678   32.2549 H   0  0  0  0  0  0  0  0  0  0  0  0
  1  2  3  0
  2  3  1  0
  3  4  1  0
  4  5  1  0
  4  6  1  0
  6  7  1  0
  7  8  1  0
  8  9  1  0
  9 10  1  0
 10 11  2  0
 11 12  1  0
 12 13  2  0
 13 14  1  0
 13 15  1  0
 15 16  2  0
 16 17  1  0
 16 10  1  0
  1 18  1  0
  3 19  1  0
  3 20  1  0
  4 21  1  1
  5 22  1  0
  5 23  1  0
  5 24  1  0
  6 25  1  0
  6 26  1  0
  7 27  1  0
  7 28  1  0
  8 29  1  0
  8 30  1  0
 11 31  1  0
 12 32  1  0
 15 33  1  0
M  CHG  1   4   1
M  END
>  <meeko>  (3) 
{"is_sidechain": [false], "free_energy": -7.854, "intermolecular_energy": -10.574, "internal_energy": -0.379}

$$$$
clorgyline_out
     RDKit          3D

 33 33  0  0  0  0  0  0  0  0999 V2000
   54.2390  153.1750   23.4140 C   0  0  0  0  0  0  0  0  0  0  0  0
   53.9850  153.9010   24.3370 C   0  0  0  0  0  0  0  0  0  0  0  0
   53.6700  154.7910   25.4670 C   0  0  0  0  0  0  0  0  0  0  0  0
   53.3820  154.0990   26.7370 N   0  0  2  0  0  0  0  0  0  0  0  0
   52.6470  152.8540   26.5110 C   0  0  0  0  0  0  0  0  0  0  0  0
   52.7080  154.9860   27.7020 C   0  0  0  0  0  0  0  0  0  0  0  0
   52.6490  156.4410   27.2150 C   0  0  0  0  0  0  0  0  0  0  0  0
   52.9910  157.4260   28.3320 C   0  0  0  0  0  0  0  0  0  0  0  0
   52.1420  157.1660   29.4480 O   0  0  0  0  0  0  0  0  0  0  0  0
   51.2570  158.1410   29.8260 C   0  0  0  0  0  0  0  0  0  0  0  0
   51.6040  159.4730   30.0760 C   0  0  0  0  0  0  0  0  0  0  0  0
   50.6270  160.3970   30.4630 C   0  0  0  0  0  0  0  0  0  0  0  0
   49.3010  159.9930   30.6040 C   0  0  0  0  0  0  0  0  0  0  0  0
   48.1080  161.1360   31.0810 Cl  0  0  0  0  0  0  0  0  0  0  0  0
   48.9370  158.6730   30.3620 C   0  0  0  0  0  0  0  0  0  0  0  0
   49.9140  157.7520   29.9770 C   0  0  0  0  0  0  0  0  0  0  0  0
   49.4140  156.1200   29.6830 Cl  0  0  0  0  0  0  0  0  0  0  0  0
   54.4715  152.5103   22.5689 H   0  0  0  0  0  0  0  0  0  0  0  0
   54.5301  155.4576   25.6278 H   0  0  0  0  0  0  0  0  0  0  0  0
   52.7505  155.3282   25.1914 H   0  0  0  0  0  0  0  0  0  0  0  0
   54.2750  153.8420   27.1580 H   0  0  0  0  0  0  0  0  0  0  0  0
   52.3814  152.4041   27.4790 H   0  0  0  0  0  0  0  0  0  0  0  0
   51.7301  153.0676   25.9420 H   0  0  0  0  0  0  0  0  0  0  0  0
   53.2770  152.1544   25.9420 H   0  0  0  0  0  0  0  0  0  0  0  0
   51.6812  154.6235   27.8580 H   0  0  0  0  0  0  0  0  0  0  0  0
   53.2875  154.9677   28.6368 H   0  0  0  0  0  0  0  0  0  0  0  0
   53.3680  156.5710   26.3928 H   0  0  0  0  0  0  0  0  0  0  0  0
   51.6226  156.6481   26.8780 H   0  0  0  0  0  0  0  0  0  0  0  0
   54.0423  157.2979   28.6292 H   0  0  0  0  0  0  0  0  0  0  0  0
   52.8416  158.4575   27.9803 H   0  0  0  0  0  0  0  0  0  0  0  0
   52.6501  159.7956   29.9678 H   0  0  0  0  0  0  0  0  0  0  0  0
   50.9061  161.4433   30.6561 H   0  0  0  0  0  0  0  0  0  0  0  0
   47.8892  158.3570   30.4727 H   0  0  0  0  0  0  0  0  0  0  0  0
  1  2  3  0
  2  3  1  0
  3  4  1  0
  4  5  1  0
  4  6  1  0
  6  7  1  0
  7  8  1  0
  8  9  1  0
  9 10  1  0
 10 11  2  0
 11 12  1  0
 12 13  2  0
 13 14  1  0
 13 15  1  0
 15 16  2  0
 16 17  1  0
 16 10  1  0
  1 18  1  0
  3 19  1  0
  3 20  1  0
  4 21  1  1
  5 22  1  0
  5 23  1  0
  5 24  1  0
  6 25  1  0
  6 26  1  0
  7 27  1  0
  7 28  1  0
  8 29  1  0
  8 30  1  0
 11 31  1  0
 12 32  1  0
 15 33  1  0
M  CHG  1   4   1
M  END
>  <meeko>  (4) 
{"is_sidechain": [false], "free_energy": -7.679, "intermolecular_energy": -10.286, "internal_energy": -0.431}

$$$$
clorgyline_out
     RDKit          3D

 33 33  0  0  0  0  0  0  0  0999 V2000
   47.2860  159.7520   31.6160 C   0  0  0  0  0  0  0  0  0  0  0  0
   48.2510  159.8670   30.9100 C   0  0  0  0  0  0  0  0  0  0  0  0
   49.4350  160.0120   30.0460 C   0  0  0  0  0  0  0  0  0  0  0  0
   50.6440  159.3230   30.5340 N   0  0  2  0  0  0  0  0  0  0  0  0
   51.8110  160.2050   30.5000 C   0  0  0  0  0  0  0  0  0  0  0  0
   50.8730  158.0530   29.8250 C   0  0  0  0  0  0  0  0  0  0  0  0
   52.2630  157.9900   29.1740 C   0  0  0  0  0  0  0  0  0  0  0  0
   52.5730  156.5940   28.6360 C   0  0  0  0  0  0  0  0  0  0  0  0
   52.7530  156.6760   27.2240 O   0  0  0  0  0  0  0  0  0  0  0  0
   52.9860  155.5160   26.5350 C   0  0  0  0  0  0  0  0  0  0  0  0
   52.4590  154.2680   26.8830 C   0  0  0  0  0  0  0  0  0  0  0  0
   52.7600  153.1360   26.1170 C   0  0  0  0  0  0  0  0  0  0  0  0
   53.5900  153.2460   25.0040 C   0  0  0  0  0  0  0  0  0  0  0  0
   53.9540  151.8480   24.0700 Cl  0  0  0  0  0  0  0  0  0  0  0  0
   54.1250  154.4780   24.6440 C   0  0  0  0  0  0  0  0  0  0  0  0
   53.8250  155.6070   25.4090 C   0  0  0  0  0  0  0  0  0  0  0  0
   54.5120  157.1190   24.9210 Cl  0  0  0  0  0  0  0  0  0  0  0  0
   46.4023  159.6467   32.2625 H   0  0  0  0  0  0  0  0  0  0  0  0
   49.1867  159.6064   29.0541 H   0  0  0  0  0  0  0  0  0  0  0  0
   49.6759  161.0851   30.0278 H   0  0  0  0  0  0  0  0  0  0  0  0
   50.4870  159.0810   31.5140 H   0  0  0  0  0  0  0  0  0  0  0  0
   52.1227  160.4406   31.5283 H   0  0  0  0  0  0  0  0  0  0  0  0
   52.6354  159.7022   29.9731 H   0  0  0  0  0  0  0  0  0  0  0  0
   51.5523  161.1353   29.9731 H   0  0  0  0  0  0  0  0  0  0  0  0
   50.7814  157.2253   30.5437 H   0  0  0  0  0  0  0  0  0  0  0  0
   50.1230  157.9752   29.0241 H   0  0  0  0  0  0  0  0  0  0  0  0
   52.2998  158.7088   28.3421 H   0  0  0  0  0  0  0  0  0  0  0  0
   53.0121  158.2357   29.9411 H   0  0  0  0  0  0  0  0  0  0  0  0
   53.4924  156.2128   29.1045 H   0  0  0  0  0  0  0  0  0  0  0  0
   51.7428  155.9108   28.8682 H   0  0  0  0  0  0  0  0  0  0  0  0
   51.8050  154.1758   27.7627 H   0  0  0  0  0  0  0  0  0  0  0  0
   52.3403  152.1578   26.3945 H   0  0  0  0  0  0  0  0  0  0  0  0
   54.7792  154.5625   23.7637 H   0  0  0  0  0  0  0  0  0  0  0  0
  1  2  3  0
  2  3  1  0
  3  4  1  0
  4  5  1  0
  4  6  1  0
  6  7  1  0
  7  8  1  0
  8  9  1  0
  9 10  1  0
 10 11  2  0
 11 12  1  0
 12 13  2  0
 13 14  1  0
 13 15  1  0
 15 16  2  0
 16 17  1  0
 16 10  1  0
  1 18  1  0
  3 19  1  0
  3 20  1  0
  4 21  1  1
  5 22  1  0
  5 23  1  0
  5 24  1  0
  6 25  1  0
  6 26  1  0
  7 27  1  0
  7 28  1  0
  8 29  1  0
  8 30  1  0
 11 31  1  0
 12 32  1  0
 15 33  1  0
M  CHG  1   4   1
M  END
>  <meeko>  (5) 
{"is_sidechain": [false], "free_energy": -7.496, "intermolecular_energy": -10.17, "internal_energy": -0.3}

$$$$
clorgyline_out
     RDKit          3D

 33 33  0  0  0  0  0  0  0  0999 V2000
   53.9950  156.3610   25.1370 C   0  0  0  0  0  0  0  0  0  0  0  0
   53.2470  155.6740   25.7770 C   0  0  0  0  0  0  0  0  0  0  0  0
   52.3310  154.8280   26.5610 C   0  0  0  0  0  0  0  0  0  0  0  0
   52.6620  154.7230   27.9940 N   0  0  2  0  0  0  0  0  0  0  0  0
   52.1630  153.4720   28.5670 C   0  0  0  0  0  0  0  0  0  0  0  0
   52.2140  155.9070   28.7460 C   0  0  0  0  0  0  0  0  0  0  0  0
   51.1640  155.5600   29.8120 C   0  0  0  0  0  0  0  0  0  0  0  0
   49.9570  156.4950   29.7420 C   0  0  0  0  0  0  0  0  0  0  0  0
   50.4220  157.8430   29.7130 O   0  0  0  0  0  0  0  0  0  0  0  0
   49.8500  158.7410   30.5740 C   0  0  0  0  0  0  0  0  0  0  0  0
   48.5530  158.6320   31.0870 C   0  0  0  0  0  0  0  0  0  0  0  0
   48.0550  159.6060   31.9590 C   0  0  0  0  0  0  0  0  0  0  0  0
   48.8490  160.6930   32.3190 C   0  0  0  0  0  0  0  0  0  0  0  0
   48.2270  161.8860   33.3920 Cl  0  0  0  0  0  0  0  0  0  0  0  0
   50.1390  160.8200   31.8180 C   0  0  0  0  0  0  0  0  0  0  0  0
   50.6350  159.8470   30.9470 C   0  0  0  0  0  0  0  0  0  0  0  0
   52.2480  160.0440   30.3500 Cl  0  0  0  0  0  0  0  0  0  0  0  0
   54.6804  156.9905   24.5505 H   0  0  0  0  0  0  0  0  0  0  0  0
   51.3179  155.2476   26.4734 H   0  0  0  0  0  0  0  0  0  0  0  0
   52.4166  153.8122   26.1477 H   0  0  0  0  0  0  0  0  0  0  0  0
   53.6790  154.6990   28.0750 H   0  0  0  0  0  0  0  0  0  0  0  0
   52.1884  153.5357   29.6649 H   0  0  0  0  0  0  0  0  0  0  0  0
   51.1286  153.3028   28.2334 H   0  0  0  0  0  0  0  0  0  0  0  0
   52.7970  152.6373   28.2334 H   0  0  0  0  0  0  0  0  0  0  0  0
   53.0846  156.3608   29.2421 H   0  0  0  0  0  0  0  0  0  0  0  0
   51.7497  156.6026   28.0315 H   0  0  0  0  0  0  0  0  0  0  0  0
   50.8236  154.5260   29.6538 H   0  0  0  0  0  0  0  0  0  0  0  0
   51.6296  155.6746   30.8020 H   0  0  0  0  0  0  0  0  0  0  0  0
   49.3779  156.2838   28.8309 H   0  0  0  0  0  0  0  0  0  0  0  0
   49.3125  156.3403   30.6199 H   0  0  0  0  0  0  0  0  0  0  0  0
   47.9220  157.7767   30.8035 H   0  0  0  0  0  0  0  0  0  0  0  0
   47.0353  159.5136   32.3610 H   0  0  0  0  0  0  0  0  0  0  0  0
   50.7637  161.6788   32.1047 H   0  0  0  0  0  0  0  0  0  0  0  0
  1  2  3  0
  2  3  1  0
  3  4  1  0
  4  5  1  0
  4  6  1  0
  6  7  1  0
  7  8  1  0
  8  9  1  0
  9 10  1  0
 10 11  2  0
 11 12  1  0
 12 13  2  0
 13 14  1  0
 13 15  1  0
 15 16  2  0
 16 17  1  0
 16 10  1  0
  1 18  1  0
  3 19  1  0
  3 20  1  0
  4 21  1  6
  5 22  1  0
  5 23  1  0
  5 24  1  0
  6 25  1  0
  6 26  1  0
  7 27  1  0
  7 28  1  0
  8 29  1  0
  8 30  1  0
 11 31  1  0
 12 32  1  0
 15 33  1  0
M  CHG  1   4   1
M  END
>  <meeko>  (6) 
{"is_sidechain": [false], "free_energy": -7.39, "intermolecular_energy": -9.9, "internal_energy": -0.426}

$$$$
clorgyline_out
     RDKit          3D

 33 33  0  0  0  0  0  0  0  0999 V2000
   49.2800  160.7650   33.3520 C   0  0  0  0  0  0  0  0  0  0  0  0
   50.1020  160.7880   32.4770 C   0  0  0  0  0  0  0  0  0  0  0  0
   51.1120  160.8140   31.4050 C   0  0  0  0  0  0  0  0  0  0  0  0
   50.6810  160.1970   30.1370 N   0  0  2  0  0  0  0  0  0  0  0  0
   49.2460  160.3770   29.9160 C   0  0  0  0  0  0  0  0  0  0  0  0
   51.0950  158.7860   30.0470 C   0  0  0  0  0  0  0  0  0  0  0  0
   49.9610  157.8210   30.4220 C   0  0  0  0  0  0  0  0  0  0  0  0
   50.1020  156.4780   29.7050 C   0  0  0  0  0  0  0  0  0  0  0  0
   51.4830  156.1300   29.6500 O   0  0  0  0  0  0  0  0  0  0  0  0
   51.8690  155.1620   28.7620 C   0  0  0  0  0  0  0  0  0  0  0  0
   51.5960  153.7980   28.9070 C   0  0  0  0  0  0  0  0  0  0  0  0
   52.0380  152.8820   27.9460 C   0  0  0  0  0  0  0  0  0  0  0  0
   52.7570  153.3250   26.8380 C   0  0  0  0  0  0  0  0  0  0  0  0
   53.2960  152.1920   25.6620 Cl  0  0  0  0  0  0  0  0  0  0  0  0
   53.0400  154.6770   26.6770 C   0  0  0  0  0  0  0  0  0  0  0  0
   52.5990  155.5900   27.6380 C   0  0  0  0  0  0  0  0  0  0  0  0
   52.9730  157.2620   27.3940 Cl  0  0  0  0  0  0  0  0  0  0  0  0
   48.5270  160.7439   34.1536 H   0  0  0  0  0  0  0  0  0  0  0  0
   51.3716  161.8639   31.2043 H   0  0  0  0  0  0  0  0  0  0  0  0
   51.9637  160.2189   31.7662 H   0  0  0  0  0  0  0  0  0  0  0  0
   51.1590  160.6850   29.3780 H   0  0  0  0  0  0  0  0  0  0  0  0
   48.7309  160.4416   30.8858 H   0  0  0  0  0  0  0  0  0  0  0  0
   49.0759  161.3035   29.3480 H   0  0  0  0  0  0  0  0  0  0  0  0
   48.8523  159.5212   29.3480 H   0  0  0  0  0  0  0  0  0  0  0  0
   51.4119  158.5754   29.0149 H   0  0  0  0  0  0  0  0  0  0  0  0
   51.9185  158.6308   30.7596 H   0  0  0  0  0  0  0  0  0  0  0  0
   49.9834  157.6494   31.5083 H   0  0  0  0  0  0  0  0  0  0  0  0
   49.0077  158.2757   30.1147 H   0  0  0  0  0  0  0  0  0  0  0  0
   49.5474  155.7044   30.2564 H   0  0  0  0  0  0  0  0  0  0  0  0
   49.6945  156.5535   28.6861 H   0  0  0  0  0  0  0  0  0  0  0  0
   51.0307  153.4433   29.7814 H   0  0  0  0  0  0  0  0  0  0  0  0
   51.8175  151.8110   28.0655 H   0  0  0  0  0  0  0  0  0  0  0  0
   53.6063  155.0246   25.8004 H   0  0  0  0  0  0  0  0  0  0  0  0
  1  2  3  0
  2  3  1  0
  3  4  1  0
  4  5  1  0
  4  6  1  0
  6  7  1  0
  7  8  1  0
  8  9  1  0
  9 10  1  0
 10 11  2  0
 11 12  1  0
 12 13  2  0
 13 14  1  0
 13 15  1  0
 15 16  2  0
 16 17  1  0
 16 10  1  0
  1 18  1  0
  3 19  1  0
  3 20  1  0
  4 21  1  6
  5 22  1  0
  5 23  1  0
  5 24  1  0
  6 25  1  0
  6 26  1  0
  7 27  1  0
  7 28  1  0
  8 29  1  0
  8 30  1  0
 11 31  1  0
 12 32  1  0
 15 33  1  0
M  CHG  1   4   1
M  END
>  <meeko>  (7) 
{"is_sidechain": [false], "free_energy": -7.005, "intermolecular_energy": -9.379, "internal_energy": -0.427}

$$$$
clorgyline_out
     RDKit          3D

 33 33  0  0  0  0  0  0  0  0999 V2000
   53.9730  152.4070   24.2810 C   0  0  0  0  0  0  0  0  0  0  0  0
   53.5000  152.8760   25.2800 C   0  0  0  0  0  0  0  0  0  0  0  0
   52.9230  153.4530   26.5070 C   0  0  0  0  0  0  0  0  0  0  0  0
   52.2670  154.7610   26.3240 N   0  0  2  0  0  0  0  0  0  0  0  0
   53.0880  155.6620   25.5160 C   0  0  0  0  0  0  0  0  0  0  0  0
   51.8720  155.3580   27.6120 C   0  0  0  0  0  0  0  0  0  0  0  0
   52.7400  156.5700   27.9840 C   0  0  0  0  0  0  0  0  0  0  0  0
   52.4770  157.0350   29.4160 C   0  0  0  0  0  0  0  0  0  0  0  0
   52.0300  158.3890   29.3840 O   0  0  0  0  0  0  0  0  0  0  0  0
   50.7970  158.6730   29.9060 C   0  0  0  0  0  0  0  0  0  0  0  0
   49.7060  157.7980   29.8840 C   0  0  0  0  0  0  0  0  0  0  0  0
   48.4810  158.1830   30.4410 C   0  0  0  0  0  0  0  0  0  0  0  0
   48.3410  159.4430   31.0180 C   0  0  0  0  0  0  0  0  0  0  0  0
   46.8310  159.9060   31.6980 Cl  0  0  0  0  0  0  0  0  0  0  0  0
   49.4130  160.3270   31.0470 C   0  0  0  0  0  0  0  0  0  0  0  0
   50.6350  159.9430   30.4910 C   0  0  0  0  0  0  0  0  0  0  0  0
   51.9430  161.0750   30.5530 Cl  0  0  0  0  0  0  0  0  0  0  0  0
   54.4063  151.9773   23.3658 H   0  0  0  0  0  0  0  0  0  0  0  0
   52.1761  152.7471   26.8991 H   0  0  0  0  0  0  0  0  0  0  0  0
   53.7637  153.6210   27.1962 H   0  0  0  0  0  0  0  0  0  0  0  0
   51.4030  154.6030   25.8040 H   0  0  0  0  0  0  0  0  0  0  0  0
   53.6798  156.3114   26.1778 H   0  0  0  0  0  0  0  0  0  0  0  0
   53.7648  155.0712   24.8812 H   0  0  0  0  0  0  0  0  0  0  0  0
   52.4370  156.2811   24.8812 H   0  0  0  0  0  0  0  0  0  0  0  0
   50.8228  155.6816   27.5449 H   0  0  0  0  0  0  0  0  0  0  0  0
   52.0080  154.5947   28.3923 H   0  0  0  0  0  0  0  0  0  0  0  0
   53.8000  156.2922   27.8883 H   0  0  0  0  0  0  0  0  0  0  0  0
   52.4861  157.3958   27.3031 H   0  0  0  0  0  0  0  0  0  0  0  0
   51.7039  156.4010   29.8746 H   0  0  0  0  0  0  0  0  0  0  0  0
   53.4003  156.9598   30.0092 H   0  0  0  0  0  0  0  0  0  0  0  0
   49.8112  156.8030   29.4270 H   0  0  0  0  0  0  0  0  0  0  0  0
   47.6274  157.4894   30.4230 H   0  0  0  0  0  0  0  0  0  0  0  0
   49.2998  161.3210   31.5042 H   0  0  0  0  0  0  0  0  0  0  0  0
  1  2  3  0
  2  3  1  0
  3  4  1  0
  4  5  1  0
  4  6  1  0
  6  7  1  0
  7  8  1  0
  8  9  1  0
  9 10  1  0
 10 11  2  0
 11 12  1  0
 12 13  2  0
 13 14  1  0
 13 15  1  0
 15 16  2  0
 16 17  1  0
 16 10  1  0
  1 18  1  0
  3 19  1  0
  3 20  1  0
  4 21  1  6
  5 22  1  0
  5 23  1  0
  5 24  1  0
  6 25  1  0
  6 26  1  0
  7 27  1  0
  7 28  1  0
  8 29  1  0
  8 30  1  0
 11 31  1  0
 12 32  1  0
 15 33  1  0
M  CHG  1   4   1
M  END
>  <meeko>  (8) 
{"is_sidechain": [false], "free_energy": -6.925, "intermolecular_energy": -9.332, "internal_energy": -0.366}

$$$$
clorgyline_out
     RDKit          3D

 33 33  0  0  0  0  0  0  0  0999 V2000
   50.4140  161.3570   32.2220 C   0  0  0  0  0  0  0  0  0  0  0  0
   50.9840  160.6670   31.4220 C   0  0  0  0  0  0  0  0  0  0  0  0
   51.6850  159.8190   30.4430 C   0  0  0  0  0  0  0  0  0  0  0  0
   50.8290  158.8370   29.7530 N   0  0  2  0  0  0  0  0  0  0  0  0
   49.5900  158.5950   30.4930 C   0  0  0  0  0  0  0  0  0  0  0  0
   51.5590  157.5930   29.4510 C   0  0  0  0  0  0  0  0  0  0  0  0
   50.7880  156.3410   29.8960 C   0  0  0  0  0  0  0  0  0  0  0  0
   51.1310  155.1290   29.0310 C   0  0  0  0  0  0  0  0  0  0  0  0
   52.4290  155.3160   28.4720 O   0  0  0  0  0  0  0  0  0  0  0  0
   52.7710  154.5740   27.3730 C   0  0  0  0  0  0  0  0  0  0  0  0
   52.6530  153.1830   27.2880 C   0  0  0  0  0  0  0  0  0  0  0  0
   53.0350  152.5120   26.1210 C   0  0  0  0  0  0  0  0  0  0  0  0
   53.5370  153.2280   25.0360 C   0  0  0  0  0  0  0  0  0  0  0  0
   54.0040  152.3930   23.6060 Cl  0  0  0  0  0  0  0  0  0  0  0  0
   53.6640  154.6100   25.1030 C   0  0  0  0  0  0  0  0  0  0  0  0
   53.2840  155.2790   26.2690 C   0  0  0  0  0  0  0  0  0  0  0  0
   53.4560  157.0010   26.3050 Cl  0  0  0  0  0  0  0  0  0  0  0  0
   49.8917  161.9893   32.9551 H   0  0  0  0  0  0  0  0  0  0  0  0
   52.1358  160.4742   29.6831 H   0  0  0  0  0  0  0  0  0  0  0  0
   52.4277  159.2389   31.0104 H   0  0  0  0  0  0  0  0  0  0  0  0
   50.5610  159.2380   28.8530 H   0  0  0  0  0  0  0  0  0  0  0  0
   49.7943  158.6349   31.5731 H   0  0  0  0  0  0  0  0  0  0  0  0
   48.8500  159.3656   30.2311 H   0  0  0  0  0  0  0  0  0  0  0  0
   49.1943  157.6026   30.2311 H   0  0  0  0  0  0  0  0  0  0  0  0
   51.7281  157.5369   28.3655 H   0  0  0  0  0  0  0  0  0  0  0  0
   52.5088  157.6176   30.0053 H   0  0  0  0  0  0  0  0  0  0  0  0
   51.0452  156.1169   30.9418 H   0  0  0  0  0  0  0  0  0  0  0  0
   49.7123  156.5448   29.7896 H   0  0  0  0  0  0  0  0  0  0  0  0
   51.1223  154.2192   29.6493 H   0  0  0  0  0  0  0  0  0  0  0  0
   50.3891  155.0226   28.2258 H   0  0  0  0  0  0  0  0  0  0  0  0
   52.2581  152.6138   28.1425 H   0  0  0  0  0  0  0  0  0  0  0  0
   52.9389  151.4179   26.0600 H   0  0  0  0  0  0  0  0  0  0  0  0
   54.0605  155.1727   24.2450 H   0  0  0  0  0  0  0  0  0  0  0  0
  1  2  3  0
  2  3  1  0
  3  4  1  0
  4  5  1  0
  4  6  1  0
  6  7  1  0
  7  8  1  0
  8  9  1  0
  9 10  1  0
 10 11  2  0
 11 12  1  0
 12 13  2  0
 13 14  1  0
 13 15  1  0
 15 16  2  0
 16 17  1  0
 16 10  1  0
  1 18  1  0
  3 19  1  0
  3 20  1  0
  4 21  1  6
  5 22  1  0
  5 23  1  0
  5 24  1  0
  6 25  1  0
  6 26  1  0
  7 27  1  0
  7 28  1  0
  8 29  1  0
  8 30  1  0
 11 31  1  0
 12 32  1  0
 15 33  1  0
M  CHG  1   4   1
M  END
>  <meeko>  (9) 
{"is_sidechain": [false], "free_energy": -6.861, "intermolecular_energy": -9.339, "internal_energy": -0.272}

$$$$
