clorgyline_out
     RDKit          3D

 33 33  0  0  0  0  0  0  0  0999 V2000
   54.1240  153.0050   23.8900 C   0  0  0  0  0  0  0  0  0  0  0  0
   53.5850  153.9180   24.4550 C   0  0  0  0  0  0  0  0  0  0  0  0
   52.9210  155.0350   25.1480 C   0  0  0  0  0  0  0  0  0  0  0  0
   53.2720  155.1740   26.5730 N   0  0  2  0  0  0  0  0  0  0  0  0
   52.6600  154.1180   27.3790 C   0  0  0  0  0  0  0  0  0  0  0  0
   52.9680  156.5220   27.0820 C   0  0  0  0  0  0  0  0  0  0  0  0
   52.2960  156.4870   28.4630 C   0  0  0  0  0  0  0  0  0  0  0  0
   52.5650  157.7660   29.2550 C   0  0  0  0  0  0  0  0  0  0  0  0
   51.4870  158.6740   29.0400 O   0  0  0  0  0  0  0  0  0  0  0  0
   50.9960  159.3590   30.1200 C   0  0  0  0  0  0  0  0  0  0  0  0
   51.6140  160.4700   30.7010 C   0  0  0  0  0  0  0  0  0  0  0  0
   51.0350  161.1010   31.8080 C   0  0  0  0  0  0  0  0  0  0  0  0
   49.8400  160.6220   32.3400 C   0  0  0  0  0  0  0  0  0  0  0  0
   49.1380  161.4050   33.7010 Cl  0  0  0  0  0  0  0  0  0  0  0  0
   49.2120  159.5170   31.7760 C   0  0  0  0  0  0  0  0  0  0  0  0
   49.7910  158.8880   30.6720 C   0  0  0  0  0  0  0  0  0  0  0  0
   48.9720  157.5170   30.0030 Cl  0  0  0  0  0  0  0  0  0  0  0  0
   54.6175  152.1691   23.3727 H   0  0  0  0  0  0  0  0  0  0  0  0
   53.1964  155.9683   24.6350 H   0  0  0  0  0  0  0  0  0  0  0  0
   51.8421  154.8234   25.1138 H   0  0  0  0  0  0  0  0  0  0  0  0
   54.2830  155.0580   26.6540 H   0  0  0  0  0  0  0  0  0  0  0  0
   52.7931  154.3477   28.4465 H   0  0  0  0  0  0  0  0  0  0  0  0
   51.5862  154.0564   27.1483 H   0  0  0  0  0  0  0  0  0  0  0  0
   53.1404  153.1557   27.1483 H   0  0  0  0  0  0  0  0  0  0  0  0
   53.9065  157.0905   27.1598 H   0  0  0  0  0  0  0  0  0  0  0  0
   52.2673  156.9965   26.3792 H   0  0  0  0  0  0  0  0  0  0  0  0
   51.2103  156.3728   28.3283 H   0  0  0  0  0  0  0  0  0  0  0  0
   52.7145  155.6402   29.0267 H   0  0  0  0  0  0  0  0  0  0  0  0
   52.6405  157.5286   30.3264 H   0  0  0  0  0  0  0  0  0  0  0  0
   53.5094  158.2209   28.9215 H   0  0  0  0  0  0  0  0  0  0  0  0
   52.5594  160.8500   30.2864 H   0  0  0  0  0  0  0  0  0  0  0  0
   51.5245  161.9769   32.2588 H   0  0  0  0  0  0  0  0  0  0  0  0
   48.2672  159.1416   32.1959 H   0  0  0  0  0  0  0  0  0  0  0  0
  1  2  3  0
  2  3  1  0
  3  4  1  0
  4  5  1  0
  4  6  1  0
  6  7  1  0
  7  8  1  0
  8  9  1  0
  9 10  1  0
 10 11  2  0
 11 12  1  0
 12 13  2  0
 13 14  1  0
 13 15  1  0
 15 16  2  0
 16 17  1  0
 16 10  1  0
  1 18  1  0
  3 19  1  0
  3 20  1  0
  4 21  1  6
  5 22  1  0
  5 23  1  0
  5 24  1  0
  6 25  1  0
  6 26  1  0
  7 27  1  0
  7 28  1  0
  8 29  1  0
  8 30  1  0
 11 31  1  0
 12 32  1  0
 15 33  1  0
M  CHG  1   4   1
M  END
>  <meeko>  (1) 
{"is_sidechain": [false], "free_energy": -7.571, "intermolecular_energy": -10.226, "internal_energy": -0.394}

$$$$
clorgyline_out
     RDKit          3D

 33 33  0  0  0  0  0  0  0  0999 V2000
   54.0920  149.1510   24.7150 C   0  0  0  0  0  0  0  0  0  0  0  0
   54.1030  150.3450   24.5790 C   0  0  0  0  0  0  0  0  0  0  0  0
   54.1130  151.8080   24.4100 C   0  0  0  0  0  0  0  0  0  0  0  0
   53.9270  152.5740   25.6560 N   0  0  2  0  0  0  0  0  0  0  0  0
   52.6390  152.2730   26.2810 C   0  0  0  0  0  0  0  0  0  0  0  0
   54.1300  154.0180   25.4450 C   0  0  0  0  0  0  0  0  0  0  0  0
   52.8420  154.8260   25.6620 C   0  0  0  0  0  0  0  0  0  0  0  0
   53.1200  156.1550   26.3620 C   0  0  0  0  0  0  0  0  0  0  0  0
   53.1580  155.9340   27.7700 O   0  0  0  0  0  0  0  0  0  0  0  0
   52.3350  156.6860   28.5640 C   0  0  0  0  0  0  0  0  0  0  0  0
   52.5760  158.0180   28.9170 C   0  0  0  0  0  0  0  0  0  0  0  0
   51.6750  158.7040   29.7400 C   0  0  0  0  0  0  0  0  0  0  0  0
   50.5340  158.0610   30.2160 C   0  0  0  0  0  0  0  0  0  0  0  0
   49.4340  158.9130   31.2270 Cl  0  0  0  0  0  0  0  0  0  0  0  0
   50.2800  156.7370   29.8780 C   0  0  0  0  0  0  0  0  0  0  0  0
   51.1790  156.0530   29.0570 C   0  0  0  0  0  0  0  0  0  0  0  0
   50.8200  154.4070   28.6600 Cl  0  0  0  0  0  0  0  0  0  0  0  0
   54.0819  148.0581   24.8395 H   0  0  0  0  0  0  0  0  0  0  0  0
   55.0803  152.0956   23.9723 H   0  0  0  0  0  0  0  0  0  0  0  0
   53.2560  152.0518   23.7649 H   0  0  0  0  0  0  0  0  0  0  0  0
   54.6500  152.2760   26.3130 H   0  0  0  0  0  0  0  0  0  0  0  0
   52.7476  152.2984   27.3753 H   0  0  0  0  0  0  0  0  0  0  0  0
   51.8961  153.0217   25.9688 H   0  0  0  0  0  0  0  0  0  0  0  0
   52.3048  151.2726   25.9688 H   0  0  0  0  0  0  0  0  0  0  0  0
   54.8944  154.3746   26.1511 H   0  0  0  0  0  0  0  0  0  0  0  0
   54.4470  154.1642   24.4019 H   0  0  0  0  0  0  0  0  0  0  0  0
   52.3789  155.0278   24.6849 H   0  0  0  0  0  0  0  0  0  0  0  0
   52.1703  154.2352   26.3021 H   0  0  0  0  0  0  0  0  0  0  0  0
   54.0874  156.5553   26.0244 H   0  0  0  0  0  0  0  0  0  0  0  0
   52.3278  156.8783   26.1186 H   0  0  0  0  0  0  0  0  0  0  0  0
   53.4772  158.5284   28.5464 H   0  0  0  0  0  0  0  0  0  0  0  0
   51.8680  159.7524   30.0114 H   0  0  0  0  0  0  0  0  0  0  0  0
   49.3781  156.2320   30.2542 H   0  0  0  0  0  0  0  0  0  0  0  0
  1  2  3  0
  2  3  1  0
  3  4  1  0
  4  5  1  0
  4  6  1  0
  6  7  1  0
  7  8  1  0
  8  9  1  0
  9 10  1  0
 10 11  2  0
 11 12  1  0
 12 13  2  0
 13 14  1  0
 13 15  1  0
 15 16  2  0
 16 17  1  0
 16 10  1  0
  1 18  1  0
  3 19  1  0
  3 20  1  0
  4 21  1  1
  5 22  1  0
  5 23  1  0
  5 24  1  0
  6 25  1  0
  6 26  1  0
  7 27  1  0
  7 28  1  0
  8 29  1  0
  8 30  1  0
 11 31  1  0
 12 32  1  0
 15 33  1  0
M  CHG  1   4   1
M  END
>  <meeko>  (2) 
{"is_sidechain": [false], "free_energy": -7.559, "intermolecular_energy": -10.093, "internal_energy": -0.512}

$$$$
clorgyline_out
     RDKit          3D

 33 33  0  0  0  0  0  0  0  0999 V2000
   54.1040  153.3030   23.5200 C   0  0  0  0  0  0  0  0  0  0  0  0
   53.7650  153.5640   24.6430 C   0  0  0  0  0  0  0  0  0  0  0  0
   53.3550  153.8850   26.0200 C   0  0  0  0  0  0  0  0  0  0  0  0
   52.7200  155.2050   26.1830 N   0  0  2  0  0  0  0  0  0  0  0  0
   53.4420  156.2400   25.4420 C   0  0  0  0  0  0  0  0  0  0  0  0
   52.5360  155.5510   27.6030 C   0  0  0  0  0  0  0  0  0  0  0  0
   52.6860  157.0580   27.8610 C   0  0  0  0  0  0  0  0  0  0  0  0
   52.2830  157.4300   29.2870 C   0  0  0  0  0  0  0  0  0  0  0  0
   52.0870  158.8410   29.3560 O   0  0  0  0  0  0  0  0  0  0  0  0
   51.1260  159.3180   30.2070 C   0  0  0  0  0  0  0  0  0  0  0  0
   49.9130  158.6750   30.4730 C   0  0  0  0  0  0  0  0  0  0  0  0
   48.9900  159.2450   31.3580 C   0  0  0  0  0  0  0  0  0  0  0  0
   49.2750  160.4600   31.9760 C   0  0  0  0  0  0  0  0  0  0  0  0
   48.1340  161.1530   33.0610 Cl  0  0  0  0  0  0  0  0  0  0  0  0
   50.4750  161.1160   31.7230 C   0  0  0  0  0  0  0  0  0  0  0  0
   51.3950  160.5460   30.8390 C   0  0  0  0  0  0  0  0  0  0  0  0
   52.8760  161.3950   30.5560 Cl  0  0  0  0  0  0  0  0  0  0  0  0
   54.4143  153.0641   22.4921 H   0  0  0  0  0  0  0  0  0  0  0  0
   52.6401  153.1178   26.3520 H   0  0  0  0  0  0  0  0  0  0  0  0
   54.2763  153.9078   26.6205 H   0  0  0  0  0  0  0  0  0  0  0  0
   51.7850  155.1510   25.7770 H   0  0  0  0  0  0  0  0  0  0  0  0
   53.9233  156.9300   26.1507 H   0  0  0  0  0  0  0  0  0  0  0  0
   54.2093  155.7701   24.8092 H   0  0  0  0  0  0  0  0  0  0  0  0
   52.7361  156.7978   24.8092 H   0  0  0  0  0  0  0  0  0  0  0  0
   51.5292  155.2372   27.9158 H   0  0  0  0  0  0  0  0  0  0  0  0
   53.3161  155.0320   28.1792 H   0  0  0  0  0  0  0  0  0  0  0  0
   53.7360  157.3443   27.7011 H   0  0  0  0  0  0  0  0  0  0  0  0
   52.0215  157.5927   27.1663 H   0  0  0  0  0  0  0  0  0  0  0  0
   51.3492  156.9135   29.5539 H   0  0  0  0  0  0  0  0  0  0  0  0
   53.0735  157.1277   29.9897 H   0  0  0  0  0  0  0  0  0  0  0  0
   49.6829  157.7167   29.9845 H   0  0  0  0  0  0  0  0  0  0  0  0
   48.0389  158.7327   31.5654 H   0  0  0  0  0  0  0  0  0  0  0  0
   50.6978  162.0747   32.2142 H   0  0  0  0  0  0  0  0  0  0  0  0
  1  2  3  0
  2  3  1  0
  3  4  1  0
  4  5  1  0
  4  6  1  0
  6  7  1  0
  7  8  1  0
  8  9  1  0
  9 10  1  0
 10 11  2  0
 11 12  1  0
 12 13  2  0
 13 14  1  0
 13 15  1  0
 15 16  2  0
 16 17  1  0
 16 10  1  0
  1 18  1  0
  3 19  1  0
  3 20  1  0
  4 21  1  6
  5 22  1  0
  5 23  1  0
  5 24  1  0
  6 25  1  0
  6 26  1  0
  7 27  1  0
  7 28  1  0
  8 29  1  0
  8 30  1  0
 11 31  1  0
 12 32  1  0
 15 33  1  0
M  CHG  1   4   1
M  END
>  <meeko>  (3) 
{"is_sidechain": [false], "free_energy": -7.549, "intermolecular_energy": -10.331, "internal_energy": -0.26}

$$$$
clorgyline_out
     RDKit          3D

 33 33  0  0  0  0  0  0  0  0999 V2000
   47.1990  159.7830   31.5240 C   0  0  0  0  0  0  0  0  0  0  0  0
   48.2140  160.0850   30.9570 C   0  0  0  0  0  0  0  0  0  0  0  0
   49.4570  160.4600   30.2620 C   0  0  0  0  0  0  0  0  0  0  0  0
   50.6960  160.0760   30.9640 N   0  0  2  0  0  0  0  0  0  0  0  0
   51.2300  161.1880   31.7510 C   0  0  0  0  0  0  0  0  0  0  0  0
   51.6930  159.5070   30.0410 C   0  0  0  0  0  0  0  0  0  0  0  0
   51.3970  158.0400   29.6940 C   0  0  0  0  0  0  0  0  0  0  0  0
   52.5070  157.4260   28.8420 C   0  0  0  0  0  0  0  0  0  0  0  0
   52.1690  156.0710   28.5540 O   0  0  0  0  0  0  0  0  0  0  0  0
   52.6080  155.5330   27.3740 C   0  0  0  0  0  0  0  0  0  0  0  0
   53.0810  156.2800   26.2910 C   0  0  0  0  0  0  0  0  0  0  0  0
   53.5050  155.6380   25.1210 C   0  0  0  0  0  0  0  0  0  0  0  0
   53.4530  154.2490   25.0300 C   0  0  0  0  0  0  0  0  0  0  0  0
   53.9750  153.4690   23.5880 Cl  0  0  0  0  0  0  0  0  0  0  0  0
   52.9830  153.4890   26.0950 C   0  0  0  0  0  0  0  0  0  0  0  0
   52.5600  154.1320   27.2610 C   0  0  0  0  0  0  0  0  0  0  0  0
   51.9850  153.1460   28.5630 Cl  0  0  0  0  0  0  0  0  0  0  0  0
   46.2695  159.5064   32.0432 H   0  0  0  0  0  0  0  0  0  0  0  0
   49.4577  159.9740   29.2752 H   0  0  0  0  0  0  0  0  0  0  0  0
   49.4609  161.5585   30.2037 H   0  0  0  0  0  0  0  0  0  0  0  0
   50.4600  159.3340   31.6240 H   0  0  0  0  0  0  0  0  0  0  0  0
   51.1223  160.9638   32.8225 H   0  0  0  0  0  0  0  0  0  0  0  0
   52.2942  161.3293   31.5111 H   0  0  0  0  0  0  0  0  0  0  0  0
   50.6749  162.1069   31.5111 H   0  0  0  0  0  0  0  0  0  0  0  0
   51.6926  160.0970   29.1126 H   0  0  0  0  0  0  0  0  0  0  0  0
   52.6726  159.5434   30.5402 H   0  0  0  0  0  0  0  0  0  0  0  0
   51.3041  157.4647   30.6270 H   0  0  0  0  0  0  0  0  0  0  0  0
   50.4620  158.0063   29.1155 H   0  0  0  0  0  0  0  0  0  0  0  0
   52.6069  157.9898   27.9027 H   0  0  0  0  0  0  0  0  0  0  0  0
   53.4616  157.4653   29.3871 H   0  0  0  0  0  0  0  0  0  0  0  0
   53.1203  157.3772   26.3583 H   0  0  0  0  0  0  0  0  0  0  0  0
   53.8793  156.2308   24.2734 H   0  0  0  0  0  0  0  0  0  0  0  0
   52.9445  152.3922   26.0204 H   0  0  0  0  0  0  0  0  0  0  0  0
  1  2  3  0
  2  3  1  0
  3  4  1  0
  4  5  1  0
  4  6  1  0
  6  7  1  0
  7  8  1  0
  8  9  1  0
  9 10  1  0
 10 11  2  0
 11 12  1  0
 12 13  2  0
 13 14  1  0
 13 15  1  0
 15 16  2  0
 16 17  1  0
 16 10  1  0
  1 18  1  0
  3 19  1  0
  3 20  1  0
  4 21  1  1
  5 22  1  0
  5 23  1  0
  5 24  1  0
  6 25  1  0
  6 26  1  0
  7 27  1  0
  7 28  1  0
  8 29  1  0
  8 30  1  0
 11 31  1  0
 12 32  1  0
 15 33  1  0
M  CHG  1   4   1
M  END
>  <meeko>  (4) 
{"is_sidechain": [false], "free_energy": -7.545, "intermolecular_energy": -10.243, "internal_energy": -0.342}

$$$$
clorgyline_out
     RDKit          3D

 33 33  0  0  0  0  0  0  0  0999 V2000
   48.8100  158.5830   30.4800 C   0  0  0  0  0  0  0  0  0  0  0  0
   49.5200  157.6560   30.1980 C   0  0  0  0  0  0  0  0  0  0  0  0
   50.3890  156.5200   29.8470 C   0  0  0  0  0  0  0  0  0  0  0  0
   51.7880  156.8810   29.5510 N   0  0  2  0  0  0  0  0  0  0  0  0
   51.9330  158.3210   29.3340 C   0  0  0  0  0  0  0  0  0  0  0  0
   52.3350  156.0830   28.4400 C   0  0  0  0  0  0  0  0  0  0  0  0
   52.9220  156.9610   27.3250 C   0  0  0  0  0  0  0  0  0  0  0  0
   53.3850  156.1250   26.1330 C   0  0  0  0  0  0  0  0  0  0  0  0
   52.4510  155.0690   25.9210 O   0  0  0  0  0  0  0  0  0  0  0  0
   52.9350  153.8470   25.5370 C   0  0  0  0  0  0  0  0  0  0  0  0
   53.7110  153.6260   24.3940 C   0  0  0  0  0  0  0  0  0  0  0  0
   54.1560  152.3360   24.0820 C   0  0  0  0  0  0  0  0  0  0  0  0
   53.8240  151.2640   24.9070 C   0  0  0  0  0  0  0  0  0  0  0  0
   54.3750  149.6820   24.5140 Cl  0  0  0  0  0  0  0  0  0  0  0  0
   53.0510  151.4640   26.0460 C   0  0  0  0  0  0  0  0  0  0  0  0
   52.6070  152.7510   26.3560 C   0  0  0  0  0  0  0  0  0  0  0  0
   51.6500  152.9530   27.7840 Cl  0  0  0  0  0  0  0  0  0  0  0  0
   48.1598  159.4319   30.7382 H   0  0  0  0  0  0  0  0  0  0  0  0
   50.3886  155.8150   30.6914 H   0  0  0  0  0  0  0  0  0  0  0  0
   49.9777  156.0891   28.9223 H   0  0  0  0  0  0  0  0  0  0  0  0
   52.3480  156.6500   30.3730 H   0  0  0  0  0  0  0  0  0  0  0  0
   51.9847  158.8348   30.3053 H   0  0  0  0  0  0  0  0  0  0  0  0
   52.8553  158.5153   28.7668 H   0  0  0  0  0  0  0  0  0  0  0  0
   51.0680  158.6953   28.7668 H   0  0  0  0  0  0  0  0  0  0  0  0
   53.1292  155.4300   28.8311 H   0  0  0  0  0  0  0  0  0  0  0  0
   51.5098  155.4978   28.0080 H   0  0  0  0  0  0  0  0  0  0  0  0
   52.1517  157.6693   26.9861 H   0  0  0  0  0  0  0  0  0  0  0  0
   53.7951  157.4930   27.7309 H   0  0  0  0  0  0  0  0  0  0  0  0
   53.4367  156.7584   25.2352 H   0  0  0  0  0  0  0  0  0  0  0  0
   54.3821  155.7067   26.3351 H   0  0  0  0  0  0  0  0  0  0  0  0
   53.9725  154.4693   23.7379 H   0  0  0  0  0  0  0  0  0  0  0  0
   54.7688  152.1686   23.1840 H   0  0  0  0  0  0  0  0  0  0  0  0
   52.7918  150.6158   26.6967 H   0  0  0  0  0  0  0  0  0  0  0  0
  1  2  3  0
  2  3  1  0
  3  4  1  0
  4  5  1  0
  4  6  1  0
  6  7  1  0
  7  8  1  0
  8  9  1  0
  9 10  1  0
 10 11  2  0
 11 12  1  0
 12 13  2  0
 13 14  1  0
 13 15  1  0
 15 16  2  0
 16 17  1  0
 16 10  1  0
  1 18  1  0
  3 19  1  0
  3 20  1  0
  4 21  1  1
  5 22  1  0
  5 23  1  0
  5 24  1  0
  6 25  1  0
  6 26  1  0
  7 27  1  0
  7 28  1  0
  8 29  1  0
  8 30  1  0
 11 31  1  0
 12 32  1  0
 15 33  1  0
M  CHG  1   4   1
M  END
>  <meeko>  (5) 
{"is_sidechain": [false], "free_energy": -7.496, "intermolecular_energy": -10.377, "internal_energy": -0.143}

$$$$
clorgyline_out
     RDKit          3D

 33 33  0  0  0  0  0  0  0  0999 V2000
   53.3690  162.1800   30.8020 C   0  0  0  0  0  0  0  0  0  0  0  0
   52.4060  161.5080   31.0530 C   0  0  0  0  0  0  0  0  0  0  0  0
   51.2220  160.6880   31.3610 C   0  0  0  0  0  0  0  0  0  0  0  0
   50.6930  159.9150   30.2230 N   0  0  2  0  0  0  0  0  0  0  0  0
   49.4150  159.2840   30.5530 C   0  0  0  0  0  0  0  0  0  0  0  0
   51.6830  158.9530   29.7080 C   0  0  0  0  0  0  0  0  0  0  0  0
   51.1470  157.5130   29.7000 C   0  0  0  0  0  0  0  0  0  0  0  0
   52.2200  156.5140   29.2680 C   0  0  0  0  0  0  0  0  0  0  0  0
   51.6680  155.6470   28.2800 O   0  0  0  0  0  0  0  0  0  0  0  0
   52.4360  155.3420   27.1880 C   0  0  0  0  0  0  0  0  0  0  0  0
   53.0460  156.2890   26.3590 C   0  0  0  0  0  0  0  0  0  0  0  0
   53.8100  155.8780   25.2610 C   0  0  0  0  0  0  0  0  0  0  0  0
   53.9650  154.5210   24.9860 C   0  0  0  0  0  0  0  0  0  0  0  0
   54.9060  154.0270   23.6330 Cl  0  0  0  0  0  0  0  0  0  0  0  0
   53.3650  153.5650   25.7970 C   0  0  0  0  0  0  0  0  0  0  0  0
   52.6020  153.9760   26.8930 C   0  0  0  0  0  0  0  0  0  0  0  0
   51.8750  152.7510   27.8760 Cl  0  0  0  0  0  0  0  0  0  0  0  0
   54.2512  162.7956   30.5721 H   0  0  0  0  0  0  0  0  0  0  0  0
   51.4935  159.9807   32.1585 H   0  0  0  0  0  0  0  0  0  0  0  0
   50.4274  161.3894   31.6553 H   0  0  0  0  0  0  0  0  0  0  0  0
   50.5090  160.5720   29.4630 H   0  0  0  0  0  0  0  0  0  0  0  0
   49.3045  159.2294   31.6461 H   0  0  0  0  0  0  0  0  0  0  0  0
   48.5922  159.8794   30.1305 H   0  0  0  0  0  0  0  0  0  0  0  0
   49.3874  158.2687   30.1305 H   0  0  0  0  0  0  0  0  0  0  0  0
   51.9502  159.2368   28.6794 H   0  0  0  0  0  0  0  0  0  0  0  0
   52.5587  158.9826   30.3731 H   0  0  0  0  0  0  0  0  0  0  0  0
   50.8055  157.2539   30.7130 H   0  0  0  0  0  0  0  0  0  0  0  0
   50.3177  157.4593   28.9793 H   0  0  0  0  0  0  0  0  0  0  0  0
   53.0805  157.0545   28.8467 H   0  0  0  0  0  0  0  0  0  0  0  0
   52.5557  155.9269   30.1356 H   0  0  0  0  0  0  0  0  0  0  0  0
   52.9247  157.3615   26.5710 H   0  0  0  0  0  0  0  0  0  0  0  0
   54.2890  156.6276   24.6139 H   0  0  0  0  0  0  0  0  0  0  0  0
   53.4897  152.4943   25.5780 H   0  0  0  0  0  0  0  0  0  0  0  0
  1  2  3  0
  2  3  1  0
  3  4  1  0
  4  5  1  0
  4  6  1  0
  6  7  1  0
  7  8  1  0
  8  9  1  0
  9 10  1  0
 10 11  2  0
 11 12  1  0
 12 13  2  0
 13 14  1  0
 13 15  1  0
 15 16  2  0
 16 17  1  0
 16 10  1  0
  1 18  1  0
  3 19  1  0
  3 20  1  0
  4 21  1  6
  5 22  1  0
  5 23  1  0
  5 24  1  0
  6 25  1  0
  6 26  1  0
  7 27  1  0
  7 28  1  0
  8 29  1  0
  8 30  1  0
 11 31  1  0
 12 32  1  0
 15 33  1  0
M  CHG  1   4   1
M  END
>  <meeko>  (6) 
{"is_sidechain": [false], "free_energy": -7.275, "intermolecular_energy": -9.84, "internal_energy": -0.381}

$$$$
clorgyline_out
     RDKit          3D

 33 33  0  0  0  0  0  0  0  0999 V2000
   54.1640  151.2840   24.3860 C   0  0  0  0  0  0  0  0  0  0  0  0
   53.8930  152.4300   24.6210 C   0  0  0  0  0  0  0  0  0  0  0  0
   53.5570  153.8350   24.9070 C   0  0  0  0  0  0  0  0  0  0  0  0
   53.3520  154.1420   26.3340 N   0  0  2  0  0  0  0  0  0  0  0  0
   52.4020  153.2140   26.9490 C   0  0  0  0  0  0  0  0  0  0  0  0
   52.9780  155.5520   26.5410 C   0  0  0  0  0  0  0  0  0  0  0  0
   52.6550  155.8610   28.0100 C   0  0  0  0  0  0  0  0  0  0  0  0
   52.6100  157.3650   28.2750 C   0  0  0  0  0  0  0  0  0  0  0  0
   52.3190  157.5800   29.6540 O   0  0  0  0  0  0  0  0  0  0  0  0
   51.3140  158.4550   29.9720 C   0  0  0  0  0  0  0  0  0  0  0  0
   51.4950  159.8250   30.1900 C   0  0  0  0  0  0  0  0  0  0  0  0
   50.4040  160.6380   30.5160 C   0  0  0  0  0  0  0  0  0  0  0  0
   49.1300  160.0860   30.6290 C   0  0  0  0  0  0  0  0  0  0  0  0
   47.7960  161.0950   31.0310 Cl  0  0  0  0  0  0  0  0  0  0  0  0
   48.9310  158.7260   30.4190 C   0  0  0  0  0  0  0  0  0  0  0  0
   50.0210  157.9150   30.0940 C   0  0  0  0  0  0  0  0  0  0  0  0
   49.7250  156.2290   29.8390 Cl  0  0  0  0  0  0  0  0  0  0  0  0
   54.4122  150.2342   24.1707 H   0  0  0  0  0  0  0  0  0  0  0  0
   54.3779  154.4659   24.5355 H   0  0  0  0  0  0  0  0  0  0  0  0
   52.5978  154.0328   24.4062 H   0  0  0  0  0  0  0  0  0  0  0  0
   54.2440  154.0090   26.8110 H   0  0  0  0  0  0  0  0  0  0  0  0
   52.4757  153.2860   28.0442 H   0  0  0  0  0  0  0  0  0  0  0  0
   51.3805  153.4717   26.6325 H   0  0  0  0  0  0  0  0  0  0  0  0
   52.6357  152.1868   26.6325 H   0  0  0  0  0  0  0  0  0  0  0  0
   53.8149  156.1903   26.2213 H   0  0  0  0  0  0  0  0  0  0  0  0
   52.0721  155.7497   25.9491 H   0  0  0  0  0  0  0  0  0  0  0  0
   51.6758  155.4258   28.2587 H   0  0  0  0  0  0  0  0  0  0  0  0
   53.4498  155.4267   28.6343 H   0  0  0  0  0  0  0  0  0  0  0  0
   53.5838  157.8132   28.0284 H   0  0  0  0  0  0  0  0  0  0  0  0
   51.8326  157.8312   27.6519 H   0  0  0  0  0  0  0  0  0  0  0  0
   52.4996  160.2650   30.1047 H   0  0  0  0  0  0  0  0  0  0  0  0
   50.5525  161.7150   30.6834 H   0  0  0  0  0  0  0  0  0  0  0  0
   47.9240  158.2924   30.5080 H   0  0  0  0  0  0  0  0  0  0  0  0
  1  2  3  0
  2  3  1  0
  3  4  1  0
  4  5  1  0
  4  6  1  0
  6  7  1  0
  7  8  1  0
  8  9  1  0
  9 10  1  0
 10 11  2  0
 11 12  1  0
 12 13  2  0
 13 14  1  0
 13 15  1  0
 15 16  2  0
 16 17  1  0
 16 10  1  0
  1 18  1  0
  3 19  1  0
  3 20  1  0
  4 21  1  1
  5 22  1  0
  5 23  1  0
  5 24  1  0
  6 25  1  0
  6 26  1  0
  7 27  1  0
  7 28  1  0
  8 29  1  0
  8 30  1  0
 11 31  1  0
 12 32  1  0
 15 33  1  0
M  CHG  1   4   1
M  END
>  <meeko>  (7) 
{"is_sidechain": [false], "free_energy": -7.238, "intermolecular_energy": -9.901, "internal_energy": -0.269}

$$$$
clorgyline_out
     RDKit          3D

 33 33  0  0  0  0  0  0  0  0999 V2000
   53.4130  162.3950   30.7370 C   0  0  0  0  0  0  0  0  0  0  0  0
   52.5220  161.6150   30.9390 C   0  0  0  0  0  0  0  0  0  0  0  0
   51.4270  160.6630   31.1890 C   0  0  0  0  0  0  0  0  0  0  0  0
   50.8290  160.0770   29.9750 N   0  0  2  0  0  0  0  0  0  0  0  0
   49.4480  160.5260   29.7900 C   0  0  0  0  0  0  0  0  0  0  0  0
   50.9540  158.6090   29.9580 C   0  0  0  0  0  0  0  0  0  0  0  0
   52.2730  158.1430   29.3250 C   0  0  0  0  0  0  0  0  0  0  0  0
   52.2040  156.6810   28.8860 C   0  0  0  0  0  0  0  0  0  0  0  0
   52.8350  156.5530   27.6130 O   0  0  0  0  0  0  0  0  0  0  0  0
   52.9830  155.2970   27.0900 C   0  0  0  0  0  0  0  0  0  0  0  0
   52.5810  154.1200   27.7300 C   0  0  0  0  0  0  0  0  0  0  0  0
   52.7800  152.8780   27.1140 C   0  0  0  0  0  0  0  0  0  0  0  0
   53.3840  152.8090   25.8610 C   0  0  0  0  0  0  0  0  0  0  0  0
   53.6260  151.2780   25.1150 Cl  0  0  0  0  0  0  0  0  0  0  0  0
   53.7940  153.9680   25.2120 C   0  0  0  0  0  0  0  0  0  0  0  0
   53.5950  155.2060   25.8270 C   0  0  0  0  0  0  0  0  0  0  0  0
   54.1180  156.6220   24.9790 Cl  0  0  0  0  0  0  0  0  0  0  0  0
   54.2289  163.1092   30.5520 H   0  0  0  0  0  0  0  0  0  0  0  0
   51.8210  159.8426   31.8069 H   0  0  0  0  0  0  0  0  0  0  0  0
   50.6273  161.2333   31.6843 H   0  0  0  0  0  0  0  0  0  0  0  0
   51.3600  160.4200   29.1730 H   0  0  0  0  0  0  0  0  0  0  0  0
   48.9775  160.6790   30.7724 H   0  0  0  0  0  0  0  0  0  0  0  0
   49.4421  161.4723   29.2293 H   0  0  0  0  0  0  0  0  0  0  0  0
   48.8867  159.7641   29.2293 H   0  0  0  0  0  0  0  0  0  0  0  0
   50.9079  158.2382   30.9926 H   0  0  0  0  0  0  0  0  0  0  0  0
   50.1294  158.2084   29.3501 H   0  0  0  0  0  0  0  0  0  0  0  0
   52.4875  158.7692   28.4465 H   0  0  0  0  0  0  0  0  0  0  0  0
   53.0676  158.2371   30.0799 H   0  0  0  0  0  0  0  0  0  0  0  0
   52.7237  156.0492   29.6214 H   0  0  0  0  0  0  0  0  0  0  0  0
   51.1539  156.3608   28.8165 H   0  0  0  0  0  0  0  0  0  0  0  0
   52.1066  154.1700   28.7212 H   0  0  0  0  0  0  0  0  0  0  0  0
   52.4588  151.9559   27.6205 H   0  0  0  0  0  0  0  0  0  0  0  0
   54.2711  153.9105   24.2225 H   0  0  0  0  0  0  0  0  0  0  0  0
  1  2  3  0
  2  3  1  0
  3  4  1  0
  4  5  1  0
  4  6  1  0
  6  7  1  0
  7  8  1  0
  8  9  1  0
  9 10  1  0
 10 11  2  0
 11 12  1  0
 12 13  2  0
 13 14  1  0
 13 15  1  0
 15 16  2  0
 16 17  1  0
 16 10  1  0
  1 18  1  0
  3 19  1  0
  3 20  1  0
  4 21  1  6
  5 22  1  0
  5 23  1  0
  5 24  1  0
  6 25  1  0
  6 26  1  0
  7 27  1  0
  7 28  1  0
  8 29  1  0
  8 30  1  0
 11 31  1  0
 12 32  1  0
 15 33  1  0
M  CHG  1   4   1
M  END
>  <meeko>  (8) 
{"is_sidechain": [false], "free_energy": -7.231, "intermolecular_energy": -9.809, "internal_energy": -0.352}

$$$$
clorgyline_out
     RDKit          3D

 33 33  0  0  0  0  0  0  0  0999 V2000
   47.3500  159.7980   31.8260 C   0  0  0  0  0  0  0  0  0  0  0  0
   48.0810  159.2410   31.0530 C   0  0  0  0  0  0  0  0  0  0  0  0
   48.9770  158.5610   30.1020 C   0  0  0  0  0  0  0  0  0  0  0  0
   50.4090  158.6240   30.4500 N   0  0  2  0  0  0  0  0  0  0  0  0
   50.9220  159.9920   30.3550 C   0  0  0  0  0  0  0  0  0  0  0  0
   51.2050  157.6660   29.6640 C   0  0  0  0  0  0  0  0  0  0  0  0
   50.6080  156.2510   29.6900 C   0  0  0  0  0  0  0  0  0  0  0  0
   51.5840  155.2160   29.1320 C   0  0  0  0  0  0  0  0  0  0  0  0
   51.5160  155.2420   27.7080 O   0  0  0  0  0  0  0  0  0  0  0  0
   52.0960  154.2130   27.0150 C   0  0  0  0  0  0  0  0  0  0  0  0
   51.8790  152.8570   27.2810 C   0  0  0  0  0  0  0  0  0  0  0  0
   52.5230  151.8760   26.5190 C   0  0  0  0  0  0  0  0  0  0  0  0
   53.3870  152.2460   25.4910 C   0  0  0  0  0  0  0  0  0  0  0  0
   54.1740  151.0320   24.5600 Cl  0  0  0  0  0  0  0  0  0  0  0  0
   53.6170  153.5890   25.2130 C   0  0  0  0  0  0  0  0  0  0  0  0
   52.9740  154.5670   25.9750 C   0  0  0  0  0  0  0  0  0  0  0  0
   53.2880  156.2260   25.5910 Cl  0  0  0  0  0  0  0  0  0  0  0  0
   46.6804  160.3082   32.5341 H   0  0  0  0  0  0  0  0  0  0  0  0
   48.6831  157.5022   30.0517 H   0  0  0  0  0  0  0  0  0  0  0  0
   48.8676  159.0871   29.1422 H   0  0  0  0  0  0  0  0  0  0  0  0
   50.5020  158.3420   31.4270 H   0  0  0  0  0  0  0  0  0  0  0  0
   51.0741  160.3976   31.3661 H   0  0  0  0  0  0  0  0  0  0  0  0
   51.8796  159.9877   29.8138 H   0  0  0  0  0  0  0  0  0  0  0  0
   50.1977  160.6185   29.8138 H   0  0  0  0  0  0  0  0  0  0  0  0
   51.2469  158.0130   28.6210 H   0  0  0  0  0  0  0  0  0  0  0  0
   52.2085  157.6157   30.1117 H   0  0  0  0  0  0  0  0  0  0  0  0
   50.3632  155.9863   30.7292 H   0  0  0  0  0  0  0  0  0  0  0  0
   49.7065  156.2473   29.0597 H   0  0  0  0  0  0  0  0  0  0  0  0
   52.6063  155.4583   29.4579 H   0  0  0  0  0  0  0  0  0  0  0  0
   51.3183  154.2144   29.5009 H   0  0  0  0  0  0  0  0  0  0  0  0
   51.1989  152.5605   28.0931 H   0  0  0  0  0  0  0  0  0  0  0  0
   52.3468  150.8113   26.7320 H   0  0  0  0  0  0  0  0  0  0  0  0
   54.2993  153.8785   24.4002 H   0  0  0  0  0  0  0  0  0  0  0  0
  1  2  3  0
  2  3  1  0
  3  4  1  0
  4  5  1  0
  4  6  1  0
  6  7  1  0
  7  8  1  0
  8  9  1  0
  9 10  1  0
 10 11  2  0
 11 12  1  0
 12 13  2  0
 13 14  1  0
 13 15  1  0
 15 16  2  0
 16 17  1  0
 16 10  1  0
  1 18  1  0
  3 19  1  0
  3 20  1  0
  4 21  1  1
  5 22  1  0
  5 23  1  0
  5 24  1  0
  6 25  1  0
  6 26  1  0
  7 27  1  0
  7 28  1  0
  8 29  1  0
  8 30  1  0
 11 31  1  0
 12 32  1  0
 15 33  1  0
M  CHG  1   4   1
M  END
>  <meeko>  (9) 
{"is_sidechain": [false], "free_energy": -7.081, "intermolecular_energy": -9.6, "internal_energy": -0.359}

$$$$
