harmine_out
     RDKit          3D

 28 30  0  0  0  0  0  0  0  0999 V2000
   52.5380  153.5310   27.4020 C   0  0  0  0  0  0  0  0  0  0  0  0
   51.4390  154.0100   28.1650 O   0  0  0  0  0  0  0  0  0  0  0  0
   51.5160  155.2990   28.6230 C   0  0  0  0  0  0  0  0  0  0  0  0
   52.6200  156.1420   28.5050 C   0  0  0  0  0  0  0  0  0  0  0  0
   52.5860  157.4480   29.0150 C   0  0  0  0  0  0  0  0  0  0  0  0
   51.4210  157.9190   29.6550 C   0  0  0  0  0  0  0  0  0  0  0  0
   50.3310  157.0580   29.7590 C   0  0  0  0  0  0  0  0  0  0  0  0
   50.3500  155.7520   29.2560 C   0  0  0  0  0  0  0  0  0  0  0  0
   49.3360  157.7440   30.4130 N   0  0  0  0  0  0  0  0  0  0  0  0
   49.7420  159.0180   30.7360 C   0  0  0  0  0  0  0  0  0  0  0  0
   49.0630  160.0480   31.3960 C   0  0  0  0  0  0  0  0  0  0  0  0
   47.6620  159.9410   31.9090 C   0  0  0  0  0  0  0  0  0  0  0  0
   49.7220  161.2240   31.5820 N   0  0  0  0  0  0  0  0  0  0  0  0
   50.9880  161.3620   31.1330 C   0  0  0  0  0  0  0  0  0  0  0  0
   51.7060  160.3770   30.4750 C   0  0  0  0  0  0  0  0  0  0  0  0
   51.0500  159.1560   30.2700 C   0  0  0  0  0  0  0  0  0  0  0  0
   53.3320  153.1849   28.0801 H   0  0  0  0  0  0  0  0  0  0  0  0
   52.2075  152.6953   26.7677 H   0  0  0  0  0  0  0  0  0  0  0  0
   52.9252  154.3420   26.7677 H   0  0  0  0  0  0  0  0  0  0  0  0
   53.5298  155.7780   28.0053 H   0  0  0  0  0  0  0  0  0  0  0  0
   53.4646  158.1024   28.9162 H   0  0  0  0  0  0  0  0  0  0  0  0
   49.4717  155.0972   29.3549 H   0  0  0  0  0  0  0  0  0  0  0  0
   48.4490  157.3720   30.6230 H   0  0  0  0  0  0  0  0  0  0  0  0
   47.6732  159.9419   33.0089 H   0  0  0  0  0  0  0  0  0  0  0  0
   47.0728  160.7968   31.5477 H   0  0  0  0  0  0  0  0  0  0  0  0
   47.2096  159.0057   31.5477 H   0  0  0  0  0  0  0  0  0  0  0  0
   51.4860  162.3281   31.3023 H   0  0  0  0  0  0  0  0  0  0  0  0
   52.7374  160.5446   30.1313 H   0  0  0  0  0  0  0  0  0  0  0  0
  1  2  1  0
  2  3  1  0
  3  4  2  0
  4  5  1  0
  5  6  2  0
  6  7  1  0
  7  8  2  0
  7  9  1  0
  9 10  1  0
 10 11  2  0
 11 12  1  0
 11 13  1  0
 13 14  2  0
 14 15  1  0
 15 16  2  0
  8  3  1  0
 16 10  1  0
 16  6  1  0
  1 17  1  0
  1 18  1  0
  1 19  1  0
  4 20  1  0
  5 21  1  0
  8 22  1  0
  9 23  1  0
 12 24  1  0
 12 25  1  0
 12 26  1  0
 14 27  1  0
 15 28  1  0
M  END
>  <meeko>  (1) 
{"is_sidechain": [false], "free_energy": -8.206, "intermolecular_energy": -8.686, "internal_energy": -0.042}

$$$$
harmine_out
     RDKit          3D

 28 30  0  0  0  0  0  0  0  0999 V2000
   49.9850  159.3350   30.4180 C   0  0  0  0  0  0  0  0  0  0  0  0
   51.3160  158.8420   30.3330 O   0  0  0  0  0  0  0  0  0  0  0  0
   51.5010  157.6710   29.6480 C   0  0  0  0  0  0  0  0  0  0  0  0
   50.9100  156.4460   29.9510 C   0  0  0  0  0  0  0  0  0  0  0  0
   51.1740  155.3070   29.1760 C   0  0  0  0  0  0  0  0  0  0  0  0
   52.0490  155.3990   28.0740 C   0  0  0  0  0  0  0  0  0  0  0  0
   52.6260  156.6340   27.7910 C   0  0  0  0  0  0  0  0  0  0  0  0
   52.3720  157.7800   28.5550 C   0  0  0  0  0  0  0  0  0  0  0  0
   53.4250  156.4630   26.6860 N   0  0  0  0  0  0  0  0  0  0  0  0
   53.3850  155.1610   26.2440 C   0  0  0  0  0  0  0  0  0  0  0  0
   54.0350  154.5470   25.1670 C   0  0  0  0  0  0  0  0  0  0  0  0
   54.9620  155.2530   24.2280 C   0  0  0  0  0  0  0  0  0  0  0  0
   53.8070  153.2220   24.9610 N   0  0  0  0  0  0  0  0  0  0  0  0
   52.9760  152.5480   25.7850 C   0  0  0  0  0  0  0  0  0  0  0  0
   52.3100  153.1050   26.8640 C   0  0  0  0  0  0  0  0  0  0  0  0
   52.5270  154.4690   27.0980 C   0  0  0  0  0  0  0  0  0  0  0  0
   49.6999  159.4406   31.4752 H   0  0  0  0  0  0  0  0  0  0  0  0
   49.9247  160.3151   29.9223 H   0  0  0  0  0  0  0  0  0  0  0  0
   49.3007  158.6307   29.9223 H   0  0  0  0  0  0  0  0  0  0  0  0
   50.2269  156.3711   30.8099 H   0  0  0  0  0  0  0  0  0  0  0  0
   50.7006  154.3463   29.4268 H   0  0  0  0  0  0  0  0  0  0  0  0
   52.8440  158.7413   28.3038 H   0  0  0  0  0  0  0  0  0  0  0  0
   53.9560  157.1780   26.2670 H   0  0  0  0  0  0  0  0  0  0  0  0
   55.7068  155.8203   24.8055 H   0  0  0  0  0  0  0  0  0  0  0  0
   55.4745  154.5143   23.5942 H   0  0  0  0  0  0  0  0  0  0  0  0
   54.3861  155.9434   23.5942 H   0  0  0  0  0  0  0  0  0  0  0  0
   52.8164  151.4783   25.5845 H   0  0  0  0  0  0  0  0  0  0  0  0
   51.6448  152.5071   27.5043 H   0  0  0  0  0  0  0  0  0  0  0  0
  1  2  1  0
  2  3  1  0
  3  4  2  0
  4  5  1  0
  5  6  2  0
  6  7  1  0
  7  8  2  0
  7  9  1  0
  9 10  1  0
 10 11  2  0
 11 12  1  0
 11 13  1  0
 13 14  2  0
 14 15  1  0
 15 16  2  0
  8  3  1  0
 16 10  1  0
 16  6  1  0
  1 17  1  0
  1 18  1  0
  1 19  1  0
  4 20  1  0
  5 21  1  0
  8 22  1  0
  9 23  1  0
 12 24  1  0
 12 25  1  0
 12 26  1  0
 14 27  1  0
 15 28  1  0
M  END
>  <meeko>  (2) 
{"is_sidechain": [false], "free_energy": -8.152, "intermolecular_energy": -8.635, "internal_energy": -0.036}

$$$$
harmine_out
     RDKit          3D

 28 30  0  0  0  0  0  0  0  0999 V2000
   53.0440  155.3020   26.5050 C   0  0  0  0  0  0  0  0  0  0  0  0
   53.0320  155.1670   27.9200 O   0  0  0  0  0  0  0  0  0  0  0  0
   52.0970  155.8980   28.6050 C   0  0  0  0  0  0  0  0  0  0  0  0
   50.8160  155.4680   28.9460 C   0  0  0  0  0  0  0  0  0  0  0  0
   49.9400  156.3060   29.6530 C   0  0  0  0  0  0  0  0  0  0  0  0
   50.3580  157.6000   30.0230 C   0  0  0  0  0  0  0  0  0  0  0  0
   51.6420  158.0060   29.6710 C   0  0  0  0  0  0  0  0  0  0  0  0
   52.5280  157.1810   28.9670 C   0  0  0  0  0  0  0  0  0  0  0  0
   51.8050  159.2870   30.1420 N   0  0  0  0  0  0  0  0  0  0  0  0
   50.6710  159.7250   30.7860 C   0  0  0  0  0  0  0  0  0  0  0  0
   50.3950  160.9480   31.4090 C   0  0  0  0  0  0  0  0  0  0  0  0
   51.3610  162.0880   31.4940 C   0  0  0  0  0  0  0  0  0  0  0  0
   49.1690  161.1080   31.9740 N   0  0  0  0  0  0  0  0  0  0  0  0
   48.2680  160.1030   31.9200 C   0  0  0  0  0  0  0  0  0  0  0  0
   48.4880  158.8760   31.3170 C   0  0  0  0  0  0  0  0  0  0  0  0
   49.7440  158.6840   30.7270 C   0  0  0  0  0  0  0  0  0  0  0  0
   53.1385  156.3651   26.2389 H   0  0  0  0  0  0  0  0  0  0  0  0
   53.8960  154.7432   26.0906 H   0  0  0  0  0  0  0  0  0  0  0  0
   52.1068  154.9022   26.0906 H   0  0  0  0  0  0  0  0  0  0  0  0
   50.4873  154.4588   28.6573 H   0  0  0  0  0  0  0  0  0  0  0  0
   48.9317  155.9544   29.9172 H   0  0  0  0  0  0  0  0  0  0  0  0
   53.5371  157.5316   28.7048 H   0  0  0  0  0  0  0  0  0  0  0  0
   52.6250  159.8200   30.0310 H   0  0  0  0  0  0  0  0  0  0  0  0
   51.5596  162.3223   32.5502 H   0  0  0  0  0  0  0  0  0  0  0  0
   52.3019  161.8091   30.9971 H   0  0  0  0  0  0  0  0  0  0  0  0
   50.9315  162.9704   30.9971 H   0  0  0  0  0  0  0  0  0  0  0  0
   47.2876  160.2717   32.3895 H   0  0  0  0  0  0  0  0  0  0  0  0
   47.7162  158.0924   31.3020 H   0  0  0  0  0  0  0  0  0  0  0  0
  1  2  1  0
  2  3  1  0
  3  4  2  0
  4  5  1  0
  5  6  2  0
  6  7  1  0
  7  8  2  0
  7  9  1  0
  9 10  1  0
 10 11  2  0
 11 12  1  0
 11 13  1  0
 13 14  2  0
 14 15  1  0
 15 16  2  0
  8  3  1  0
 16 10  1  0
 16  6  1  0
  1 17  1  0
  1 18  1  0
  1 19  1  0
  4 20  1  0
  5 21  1  0
  8 22  1  0
  9 23  1  0
 12 24  1  0
 12 25  1  0
 12 26  1  0
 14 27  1  0
 15 28  1  0
M  END
>  <meeko>  (3) 
{"is_sidechain": [false], "free_energy": -8.07, "intermolecular_energy": -8.544, "internal_energy": -0.04}

$$$$
harmine_out
     RDKit          3D

 28 30  0  0  0  0  0  0  0  0999 V2000
   49.3520  156.9320   30.0600 C   0  0  0  0  0  0  0  0  0  0  0  0
   50.4730  156.0610   30.1360 O   0  0  0  0  0  0  0  0  0  0  0  0
   51.3240  156.0490   29.0620 C   0  0  0  0  0  0  0  0  0  0  0  0
   52.0400  157.1430   28.5770 C   0  0  0  0  0  0  0  0  0  0  0  0
   52.8850  157.0130   27.4650 C   0  0  0  0  0  0  0  0  0  0  0  0
   53.0150  155.7620   26.8280 C   0  0  0  0  0  0  0  0  0  0  0  0
   52.2910  154.6850   27.3330 C   0  0  0  0  0  0  0  0  0  0  0  0
   51.4430  154.7980   28.4410 C   0  0  0  0  0  0  0  0  0  0  0  0
   52.5870  153.5960   26.5490 N   0  0  0  0  0  0  0  0  0  0  0  0
   53.4780  153.9290   25.5550 C   0  0  0  0  0  0  0  0  0  0  0  0
   54.0460  153.1450   24.5450 C   0  0  0  0  0  0  0  0  0  0  0  0
   53.7650  151.6880   24.3480 C   0  0  0  0  0  0  0  0  0  0  0  0
   54.9110  153.7480   23.6850 N   0  0  0  0  0  0  0  0  0  0  0  0
   55.1920  155.0620   23.8280 C   0  0  0  0  0  0  0  0  0  0  0  0
   54.6590  155.8820   24.8080 C   0  0  0  0  0  0  0  0  0  0  0  0
   53.7650  155.2850   25.7070 C   0  0  0  0  0  0  0  0  0  0  0  0
   49.0191  157.1907   31.0760 H   0  0  0  0  0  0  0  0  0  0  0  0
   49.6358  157.8489   29.5226 H   0  0  0  0  0  0  0  0  0  0  0  0
   48.5337  156.4304   29.5226 H   0  0  0  0  0  0  0  0  0  0  0  0
   51.9409  158.1200   29.0726 H   0  0  0  0  0  0  0  0  0  0  0  0
   53.4440  157.8836   27.0914 H   0  0  0  0  0  0  0  0  0  0  0  0
   50.8843  153.9273   28.8148 H   0  0  0  0  0  0  0  0  0  0  0  0
   52.2110  152.6960   26.6820 H   0  0  0  0  0  0  0  0  0  0  0  0
   53.6703  151.1971   25.3278 H   0  0  0  0  0  0  0  0  0  0  0  0
   52.8272  151.5682   23.7857 H   0  0  0  0  0  0  0  0  0  0  0  0
   54.5910  151.2280   23.7857 H   0  0  0  0  0  0  0  0  0  0  0  0
   55.8959  155.5133   23.1133 H   0  0  0  0  0  0  0  0  0  0  0  0
   54.9237  156.9474   24.8774 H   0  0  0  0  0  0  0  0  0  0  0  0
  1  2  1  0
  2  3  1  0
  3  4  2  0
  4  5  1  0
  5  6  2  0
  6  7  1  0
  7  8  2  0
  7  9  1  0
  9 10  1  0
 10 11  2  0
 11 12  1  0
 11 13  1  0
 13 14  2  0
 14 15  1  0
 15 16  2  0
  8  3  1  0
 16 10  1  0
 16  6  1  0
  1 17  1  0
  1 18  1  0
  1 19  1  0
  4 20  1  0
  5 21  1  0
  8 22  1  0
  9 23  1  0
 12 24  1  0
 12 25  1  0
 12 26  1  0
 14 27  1  0
 15 28  1  0
M  END
>  <meeko>  (4) 
{"is_sidechain": [false], "free_energy": -7.622, "intermolecular_energy": -8.074, "internal_energy": -0.036}

$$$$
harmine_out
     RDKit          3D

 28 30  0  0  0  0  0  0  0  0999 V2000
   54.1080  151.5890   23.9730 C   0  0  0  0  0  0  0  0  0  0  0  0
   54.2120  152.9280   23.5070 O   0  0  0  0  0  0  0  0  0  0  0  0
   53.9320  153.9230   24.4060 C   0  0  0  0  0  0  0  0  0  0  0  0
   54.3190  155.2570   24.2930 C   0  0  0  0  0  0  0  0  0  0  0  0
   53.9740  156.1930   25.2800 C   0  0  0  0  0  0  0  0  0  0  0  0
   53.2270  155.7810   26.4020 C   0  0  0  0  0  0  0  0  0  0  0  0
   52.8510  154.4430   26.4920 C   0  0  0  0  0  0  0  0  0  0  0  0
   53.1870  153.4980   25.5150 C   0  0  0  0  0  0  0  0  0  0  0  0
   52.1410  154.2990   27.6590 N   0  0  0  0  0  0  0  0  0  0  0  0
   52.0430  155.4970   28.3290 C   0  0  0  0  0  0  0  0  0  0  0  0
   51.4180  155.8120   29.5420 C   0  0  0  0  0  0  0  0  0  0  0  0
   50.6860  154.8230   30.3940 C   0  0  0  0  0  0  0  0  0  0  0  0
   51.4810  157.1000   29.9710 N   0  0  0  0  0  0  0  0  0  0  0  0
   52.1320  158.0240   29.2310 C   0  0  0  0  0  0  0  0  0  0  0  0
   52.7660  157.7680   28.0270 C   0  0  0  0  0  0  0  0  0  0  0  0
   52.7160  156.4470   27.5610 C   0  0  0  0  0  0  0  0  0  0  0  0
   54.1075  151.5826   25.0730 H   0  0  0  0  0  0  0  0  0  0  0  0
   53.1726  151.1437   23.6033 H   0  0  0  0  0  0  0  0  0  0  0  0
   54.9635  151.0046   23.6033 H   0  0  0  0  0  0  0  0  0  0  0  0
   54.9026  155.5806   23.4185 H   0  0  0  0  0  0  0  0  0  0  0  0
   54.2851  157.2432   25.1785 H   0  0  0  0  0  0  0  0  0  0  0  0
   52.8742  152.4482   25.6151 H   0  0  0  0  0  0  0  0  0  0  0  0
   51.7550  153.4510   27.9750 H   0  0  0  0  0  0  0  0  0  0  0  0
   50.8579  155.0553   31.4554 H   0  0  0  0  0  0  0  0  0  0  0  0
   49.6091  154.8777   30.1764 H   0  0  0  0  0  0  0  0  0  0  0  0
   51.0530  153.8091   30.1764 H   0  0  0  0  0  0  0  0  0  0  0  0
   52.1605  159.0552   29.6130 H   0  0  0  0  0  0  0  0  0  0  0  0
   53.2823  158.5604   27.4652 H   0  0  0  0  0  0  0  0  0  0  0  0
  1  2  1  0
  2  3  1  0
  3  4  2  0
  4  5  1  0
  5  6  2  0
  6  7  1  0
  7  8  2  0
  7  9  1  0
  9 10  1  0
 10 11  2  0
 11 12  1  0
 11 13  1  0
 13 14  2  0
 14 15  1  0
 15 16  2  0
  8  3  1  0
 16 10  1  0
 16  6  1  0
  1 17  1  0
  1 18  1  0
  1 19  1  0
  4 20  1  0
  5 21  1  0
  8 22  1  0
  9 23  1  0
 12 24  1  0
 12 25  1  0
 12 26  1  0
 14 27  1  0
 15 28  1  0
M  END
>  <meeko>  (5) 
{"is_sidechain": [false], "free_energy": -7.305, "intermolecular_energy": -7.714, "internal_energy": -0.06}

$$$$
harmine_out
     RDKit          3D

 28 30  0  0  0  0  0  0  0  0999 V2000
   54.5230  153.2780   22.8960 C   0  0  0  0  0  0  0  0  0  0  0  0
   54.7880  154.3220   23.8240 O   0  0  0  0  0  0  0  0  0  0  0  0
   53.9210  154.4510   24.8770 C   0  0  0  0  0  0  0  0  0  0  0  0
   53.0320  153.4760   25.3260 C   0  0  0  0  0  0  0  0  0  0  0  0
   52.1880  153.7200   26.4190 C   0  0  0  0  0  0  0  0  0  0  0  0
   52.2360  154.9670   27.0750 C   0  0  0  0  0  0  0  0  0  0  0  0
   53.1330  155.9240   26.6080 C   0  0  0  0  0  0  0  0  0  0  0  0
   53.9820  155.6960   25.5190 C   0  0  0  0  0  0  0  0  0  0  0  0
   52.9900  157.0350   27.4040 N   0  0  0  0  0  0  0  0  0  0  0  0
   52.0320  156.8310   28.3700 C   0  0  0  0  0  0  0  0  0  0  0  0
   51.5650  157.6800   29.3810 C   0  0  0  0  0  0  0  0  0  0  0  0
   52.0650  159.0710   29.6110 C   0  0  0  0  0  0  0  0  0  0  0  0
   50.5940  157.2060   30.2080 N   0  0  0  0  0  0  0  0  0  0  0  0
   50.1160  155.9550   30.0340 C   0  0  0  0  0  0  0  0  0  0  0  0
   50.5410  155.0760   29.0530 C   0  0  0  0  0  0  0  0  0  0  0  0
   51.5410  155.5380   28.1870 C   0  0  0  0  0  0  0  0  0  0  0  0
   54.2881  152.3526   23.4424 H   0  0  0  0  0  0  0  0  0  0  0  0
   53.6674  153.5578   22.2638 H   0  0  0  0  0  0  0  0  0  0  0  0
   55.4085  153.1158   22.2638 H   0  0  0  0  0  0  0  0  0  0  0  0
   52.9919  152.5021   24.8162 H   0  0  0  0  0  0  0  0  0  0  0  0
   51.4912  152.9415   26.7632 H   0  0  0  0  0  0  0  0  0  0  0  0
   54.6796  156.4740   25.1754 H   0  0  0  0  0  0  0  0  0  0  0  0
   53.5040  157.8670   27.2970 H   0  0  0  0  0  0  0  0  0  0  0  0
   52.1336  159.2619   30.6921 H   0  0  0  0  0  0  0  0  0  0  0  0
   53.0597  159.1832   29.1550 H   0  0  0  0  0  0  0  0  0  0  0  0
   51.3693  159.7908   29.1550 H   0  0  0  0  0  0  0  0  0  0  0  0
   49.3311  155.6091   30.7227 H   0  0  0  0  0  0  0  0  0  0  0  0
   50.1154  154.0661   28.9580 H   0  0  0  0  0  0  0  0  0  0  0  0
  1  2  1  0
  2  3  1  0
  3  4  2  0
  4  5  1  0
  5  6  2  0
  6  7  1  0
  7  8  2  0
  7  9  1  0
  9 10  1  0
 10 11  2  0
 11 12  1  0
 11 13  1  0
 13 14  2  0
 14 15  1  0
 15 16  2  0
  8  3  1  0
 16 10  1  0
 16  6  1  0
  1 17  1  0
  1 18  1  0
  1 19  1  0
  4 20  1  0
  5 21  1  0
  8 22  1  0
  9 23  1  0
 12 24  1  0
 12 25  1  0
 12 26  1  0
 14 27  1  0
 15 28  1  0
M  END
>  <meeko>  (6) 
{"is_sidechain": [false], "free_energy": -6.389, "intermolecular_energy": -6.763, "internal_energy": -0.041}

$$$$
harmine_out
     RDKit          3D

 28 30  0  0  0  0  0  0  0  0999 V2000
   48.3120  161.5560   33.5910 C   0  0  0  0  0  0  0  0  0  0  0  0
   47.9350  160.7640   32.4730 O   0  0  0  0  0  0  0  0  0  0  0  0
   48.9470  160.2500   31.7070 C   0  0  0  0  0  0  0  0  0  0  0  0
   50.0630  160.9510   31.2520 C   0  0  0  0  0  0  0  0  0  0  0  0
   51.0410  160.3190   30.4700 C   0  0  0  0  0  0  0  0  0  0  0  0
   50.8970  158.9570   30.1380 C   0  0  0  0  0  0  0  0  0  0  0  0
   49.7740  158.2780   30.6040 C   0  0  0  0  0  0  0  0  0  0  0  0
   48.7900  158.8940   31.3860 C   0  0  0  0  0  0  0  0  0  0  0  0
   49.8670  156.9840   30.1510 N   0  0  0  0  0  0  0  0  0  0  0  0
   51.0100  156.8000   29.4080 C   0  0  0  0  0  0  0  0  0  0  0  0
   51.5010  155.6600   28.7620 C   0  0  0  0  0  0  0  0  0  0  0  0
   50.8170  154.3290   28.7650 C   0  0  0  0  0  0  0  0  0  0  0  0
   52.6780  155.7700   28.0890 N   0  0  0  0  0  0  0  0  0  0  0  0
   53.3280  156.9530   28.0620 C   0  0  0  0  0  0  0  0  0  0  0  0
   52.8880  158.1110   28.6820 C   0  0  0  0  0  0  0  0  0  0  0  0
   51.6780  158.0250   29.3830 C   0  0  0  0  0  0  0  0  0  0  0  0
   48.0586  161.0236   34.5196 H   0  0  0  0  0  0  0  0  0  0  0  0
   49.3956  161.7427   33.5594 H   0  0  0  0  0  0  0  0  0  0  0  0
   47.7737  162.5147   33.5594 H   0  0  0  0  0  0  0  0  0  0  0  0
   50.1781  162.0142   31.5098 H   0  0  0  0  0  0  0  0  0  0  0  0
   51.9165  160.8840   30.1174 H   0  0  0  0  0  0  0  0  0  0  0  0
   47.9154  158.3285   31.7399 H   0  0  0  0  0  0  0  0  0  0  0  0
   49.2020  156.2810   30.3340 H   0  0  0  0  0  0  0  0  0  0  0  0
   50.6504  154.0047   29.8028 H   0  0  0  0  0  0  0  0  0  0  0  0
   49.8501  154.4125   28.2472 H   0  0  0  0  0  0  0  0  0  0  0  0
   51.4478  153.5914   28.2472 H   0  0  0  0  0  0  0  0  0  0  0  0
   54.2765  157.0008   27.5070 H   0  0  0  0  0  0  0  0  0  0  0  0
   53.4591  159.0495   28.6268 H   0  0  0  0  0  0  0  0  0  0  0  0
  1  2  1  0
  2  3  1  0
  3  4  2  0
  4  5  1  0
  5  6  2  0
  6  7  1  0
  7  8  2  0
  7  9  1  0
  9 10  1  0
 10 11  2  0
 11 12  1  0
 11 13  1  0
 13 14  2  0
 14 15  1  0
 15 16  2  0
  8  3  1  0
 16 10  1  0
 16  6  1  0
  1 17  1  0
  1 18  1  0
  1 19  1  0
  4 20  1  0
  5 21  1  0
  8 22  1  0
  9 23  1  0
 12 24  1  0
 12 25  1  0
 12 26  1  0
 14 27  1  0
 15 28  1  0
M  END
>  <meeko>  (7) 
{"is_sidechain": [false], "free_energy": -6.353, "intermolecular_energy": -6.729, "internal_energy": -0.038}

$$$$
harmine_out
     RDKit          3D

 28 30  0  0  0  0  0  0  0  0999 V2000
   48.5360  162.1710   33.6470 C   0  0  0  0  0  0  0  0  0  0  0  0
   48.9240  162.0880   32.2820 O   0  0  0  0  0  0  0  0  0  0  0  0
   49.0850  160.8320   31.7570 C   0  0  0  0  0  0  0  0  0  0  0  0
   48.2050  159.7630   31.9170 C   0  0  0  0  0  0  0  0  0  0  0  0
   48.4740  158.5170   31.3310 C   0  0  0  0  0  0  0  0  0  0  0  0
   49.6480  158.3400   30.5720 C   0  0  0  0  0  0  0  0  0  0  0  0
   50.5110  159.4230   30.4270 C   0  0  0  0  0  0  0  0  0  0  0  0
   50.2570  160.6730   31.0040 C   0  0  0  0  0  0  0  0  0  0  0  0
   51.5650  159.0000   29.6540 N   0  0  0  0  0  0  0  0  0  0  0  0
   51.4150  157.6810   29.2930 C   0  0  0  0  0  0  0  0  0  0  0  0
   52.2370  156.8510   28.5200 C   0  0  0  0  0  0  0  0  0  0  0  0
   53.5270  157.2850   27.8990 C   0  0  0  0  0  0  0  0  0  0  0  0
   51.8340  155.5670   28.3220 N   0  0  0  0  0  0  0  0  0  0  0  0
   50.6750  155.1360   28.8660 C   0  0  0  0  0  0  0  0  0  0  0  0
   49.8270  155.9120   29.6370 C   0  0  0  0  0  0  0  0  0  0  0  0
   50.2180  157.2400   29.8560 C   0  0  0  0  0  0  0  0  0  0  0  0
   49.4098  161.9841   34.2886 H   0  0  0  0  0  0  0  0  0  0  0  0
   48.1369  163.1749   33.8544 H   0  0  0  0  0  0  0  0  0  0  0  0
   47.7611  161.4183   33.8544 H   0  0  0  0  0  0  0  0  0  0  0  0
   47.2884  159.8979   32.5100 H   0  0  0  0  0  0  0  0  0  0  0  0
   47.7711  157.6813   31.4635 H   0  0  0  0  0  0  0  0  0  0  0  0
   50.9591  161.5092   30.8700 H   0  0  0  0  0  0  0  0  0  0  0  0
   52.3270  159.5660   29.3940 H   0  0  0  0  0  0  0  0  0  0  0  0
   54.2512  157.5286   28.6903 H   0  0  0  0  0  0  0  0  0  0  0  0
   53.9256  156.4715   27.2750 H   0  0  0  0  0  0  0  0  0  0  0  0
   53.3528  158.1740   27.2750 H   0  0  0  0  0  0  0  0  0  0  0  0
   50.3837  154.0912   28.6827 H   0  0  0  0  0  0  0  0  0  0  0  0
   48.8941  155.5072   30.0563 H   0  0  0  0  0  0  0  0  0  0  0  0
  1  2  1  0
  2  3  1  0
  3  4  2  0
  4  5  1  0
  5  6  2  0
  6  7  1  0
  7  8  2  0
  7  9  1  0
  9 10  1  0
 10 11  2  0
 11 12  1  0
 11 13  1  0
 13 14  2  0
 14 15  1  0
 15 16  2  0
  8  3  1  0
 16 10  1  0
 16  6  1  0
  1 17  1  0
  1 18  1  0
  1 19  1  0
  4 20  1  0
  5 21  1  0
  8 22  1  0
  9 23  1  0
 12 24  1  0
 12 25  1  0
 12 26  1  0
 14 27  1  0
 15 28  1  0
M  END
>  <meeko>  (8) 
{"is_sidechain": [false], "free_energy": -6.34, "intermolecular_energy": -6.715, "internal_energy": -0.038}

$$$$
