lazabemide_out
     RDKit          3D

 24 24  0  0  0  0  0  0  0  0999 V2000
   54.7650  153.3270   23.3000 N   0  0  0  0  0  0  0  0  0  0  0  0
   54.0650  152.2800   24.0550 C   0  0  0  0  0  0  0  0  0  0  0  0
   54.5840  152.1700   25.4970 C   0  0  0  0  0  0  0  0  0  0  0  0
   54.1290  153.2640   26.3330 N   0  0  0  0  0  0  0  0  0  0  0  0
   52.9500  153.2210   27.0430 C   0  0  0  0  0  0  0  0  0  0  0  0
   52.2180  152.2390   27.0980 O   0  0  0  0  0  0  0  0  0  0  0  0
   52.6060  154.4980   27.7470 C   0  0  0  0  0  0  0  0  0  0  0  0
   51.8120  154.4670   28.8890 C   0  0  0  0  0  0  0  0  0  0  0  0
   51.5070  155.6750   29.5160 C   0  0  0  0  0  0  0  0  0  0  0  0
   52.0020  156.8610   28.9830 C   0  0  0  0  0  0  0  0  0  0  0  0
   51.6490  158.3670   29.7260 Cl  0  0  0  0  0  0  0  0  0  0  0  0
   52.7850  156.7980   27.8380 C   0  0  0  0  0  0  0  0  0  0  0  0
   53.1020  155.6450   27.1990 N   0  0  0  0  0  0  0  0  0  0  0  0
   54.5040  154.2420   23.6670 H   0  0  0  0  0  0  0  0  0  0  0  0
   54.5060  153.2670   22.3160 H   0  0  0  0  0  0  0  0  0  0  0  0
   55.7730  153.1980   23.3950 H   0  0  0  0  0  0  0  0  0  0  0  0
   52.9912  152.5174   24.0806 H   0  0  0  0  0  0  0  0  0  0  0  0
   54.2464  151.3182   23.5529 H   0  0  0  0  0  0  0  0  0  0  0  0
   54.2280  151.2233   25.9294 H   0  0  0  0  0  0  0  0  0  0  0  0
   55.6827  152.2090   25.4620 H   0  0  0  0  0  0  0  0  0  0  0  0
   54.6880  154.0720   26.3960 H   0  0  0  0  0  0  0  0  0  0  0  0
   51.4343  153.5138   29.2874 H   0  0  0  0  0  0  0  0  0  0  0  0
   50.8824  155.6898   30.4213 H   0  0  0  0  0  0  0  0  0  0  0  0
   53.1716  157.7410   27.4242 H   0  0  0  0  0  0  0  0  0  0  0  0
  1  2  1  0
  2  3  1  0
  3  4  1  0
  4  5  1  0
  5  6  2  0
  5  7  1  0
  7  8  2  0
  8  9  1  0
  9 10  2  0
 10 11  1  0
 10 12  1  0
 12 13  2  0
 13  7  1  0
  1 14  1  0
  1 15  1  0
  1 16  1  0
  2 17  1  0
  2 18  1  0
  3 19  1  0
  3 20  1  0
  4 21  1  0
  8 22  1  0
  9 23  1  0
 12 24  1  0
M  CHG  1   1   1
M  END
>  <meeko>  (1) 
{"is_sidechain": [false], "free_energy": -6.609, "intermolecular_energy": -7.962, "internal_energy": -0.186}

$$$$
lazabemide_out
     RDKit          3D

 24 24  0  0  0  0  0  0  0  0999 V2000
   54.4060  148.5030   24.4960 N   0  0  0  0  0  0  0  0  0  0  0  0
   53.6770  149.6210   25.1080 C   0  0  0  0  0  0  0  0  0  0  0  0
   54.1300  150.9760   24.5440 C   0  0  0  0  0  0  0  0  0  0  0  0
   53.7160  152.0880   25.3780 N   0  0  0  0  0  0  0  0  0  0  0  0
   53.5180  153.3580   24.8850 C   0  0  0  0  0  0  0  0  0  0  0  0
   53.5960  153.6540   23.6980 O   0  0  0  0  0  0  0  0  0  0  0  0
   53.2100  154.3860   25.9310 C   0  0  0  0  0  0  0  0  0  0  0  0
   53.3470  155.7390   25.6340 C   0  0  0  0  0  0  0  0  0  0  0  0
   53.0560  156.6670   26.6340 C   0  0  0  0  0  0  0  0  0  0  0  0
   52.6430  156.2150   27.8820 C   0  0  0  0  0  0  0  0  0  0  0  0
   52.2750  157.3270   29.1360 Cl  0  0  0  0  0  0  0  0  0  0  0  0
   52.5350  154.8460   28.0910 C   0  0  0  0  0  0  0  0  0  0  0  0
   52.8100  153.9130   27.1460 N   0  0  0  0  0  0  0  0  0  0  0  0
   55.3870  148.5490   24.7670 H   0  0  0  0  0  0  0  0  0  0  0  0
   54.3290  148.5630   23.4810 H   0  0  0  0  0  0  0  0  0  0  0  0
   54.0050  147.6210   24.8160 H   0  0  0  0  0  0  0  0  0  0  0  0
   52.6021  149.4951   24.9112 H   0  0  0  0  0  0  0  0  0  0  0  0
   53.8854  149.6139   26.1881 H   0  0  0  0  0  0  0  0  0  0  0  0
   55.2275  150.9790   24.4705 H   0  0  0  0  0  0  0  0  0  0  0  0
   53.6597  151.1030   23.5577 H   0  0  0  0  0  0  0  0  0  0  0  0
   53.5690  151.9270   26.3380 H   0  0  0  0  0  0  0  0  0  0  0  0
   53.6760  156.0677   24.6372 H   0  0  0  0  0  0  0  0  0  0  0  0
   53.1523  157.7449   26.4371 H   0  0  0  0  0  0  0  0  0  0  0  0
   52.2070  154.4981   29.0816 H   0  0  0  0  0  0  0  0  0  0  0  0
  1  2  1  0
  2  3  1  0
  3  4  1  0
  4  5  1  0
  5  6  2  0
  5  7  1  0
  7  8  2  0
  8  9  1  0
  9 10  2  0
 10 11  1  0
 10 12  1  0
 12 13  2  0
 13  7  1  0
  1 14  1  0
  1 15  1  0
  1 16  1  0
  2 17  1  0
  2 18  1  0
  3 19  1  0
  3 20  1  0
  4 21  1  0
  8 22  1  0
  9 23  1  0
 12 24  1  0
M  CHG  1   1   1
M  END
>  <meeko>  (2) 
{"is_sidechain": [false], "free_energy": -6.558, "intermolecular_energy": -7.945, "internal_energy": -0.14}

$$$$
lazabemide_out
     RDKit          3D

 24 24  0  0  0  0  0  0  0  0999 V2000
   54.7660  153.2630   23.2870 N   0  0  0  0  0  0  0  0  0  0  0  0
   54.0500  152.2170   24.0270 C   0  0  0  0  0  0  0  0  0  0  0  0
   54.5240  152.1230   25.4860 C   0  0  0  0  0  0  0  0  0  0  0  0
   54.0980  153.2590   26.2800 N   0  0  0  0  0  0  0  0  0  0  0  0
   52.9480  153.2520   27.0360 C   0  0  0  0  0  0  0  0  0  0  0  0
   52.2220  152.2740   27.1730 O   0  0  0  0  0  0  0  0  0  0  0  0
   52.6270  154.5640   27.6850 C   0  0  0  0  0  0  0  0  0  0  0  0
   53.0420  155.7510   27.0900 C   0  0  0  0  0  0  0  0  0  0  0  0
   52.7300  156.9540   27.7240 C   0  0  0  0  0  0  0  0  0  0  0  0
   52.0200  156.9270   28.9200 C   0  0  0  0  0  0  0  0  0  0  0  0
   51.6170  158.3850   29.7290 Cl  0  0  0  0  0  0  0  0  0  0  0  0
   51.6480  155.6960   29.4440 C   0  0  0  0  0  0  0  0  0  0  0  0
   51.9340  154.5070   28.8590 N   0  0  0  0  0  0  0  0  0  0  0  0
   54.1390  153.6850   22.6030 H   0  0  0  0  0  0  0  0  0  0  0  0
   55.5670  152.8510   22.8070 H   0  0  0  0  0  0  0  0  0  0  0  0
   55.0910  153.9780   23.9370 H   0  0  0  0  0  0  0  0  0  0  0  0
   52.9742  152.4463   24.0163 H   0  0  0  0  0  0  0  0  0  0  0  0
   54.2538  151.2526   23.5387 H   0  0  0  0  0  0  0  0  0  0  0  0
   54.1127  151.2057   25.9326 H   0  0  0  0  0  0  0  0  0  0  0  0
   55.6239  152.1109   25.4811 H   0  0  0  0  0  0  0  0  0  0  0  0
   54.6560  154.0700   26.2780 H   0  0  0  0  0  0  0  0  0  0  0  0
   53.6021  155.7414   26.1433 H   0  0  0  0  0  0  0  0  0  0  0  0
   53.0417  157.9125   27.2834 H   0  0  0  0  0  0  0  0  0  0  0  0
   51.0877  155.6850   30.3905 H   0  0  0  0  0  0  0  0  0  0  0  0
  1  2  1  0
  2  3  1  0
  3  4  1  0
  4  5  1  0
  5  6  2  0
  5  7  1  0
  7  8  2  0
  8  9  1  0
  9 10  2  0
 10 11  1  0
 10 12  1  0
 12 13  2  0
 13  7  1  0
  1 14  1  0
  1 15  1  0
  1 16  1  0
  2 17  1  0
  2 18  1  0
  3 19  1  0
  3 20  1  0
  4 21  1  0
  8 22  1  0
  9 23  1  0
 12 24  1  0
M  CHG  1   1   1
M  END
>  <meeko>  (3) 
{"is_sidechain": [false], "free_energy": -6.55, "intermolecular_energy": -7.891, "internal_energy": -0.185}

$$$$
lazabemide_out
     RDKit          3D

 24 24  0  0  0  0  0  0  0  0999 V2000
   51.8930  155.4270   29.6720 N   0  0  0  0  0  0  0  0  0  0  0  0
   52.0690  156.8380   29.3050 C   0  0  0  0  0  0  0  0  0  0  0  0
   52.6440  156.9940   27.8900 C   0  0  0  0  0  0  0  0  0  0  0  0
   53.0140  155.7220   27.3000 N   0  0  0  0  0  0  0  0  0  0  0  0
   53.1760  155.5450   25.9450 C   0  0  0  0  0  0  0  0  0  0  0  0
   53.1000  156.4500   25.1210 O   0  0  0  0  0  0  0  0  0  0  0  0
   53.4410  154.1290   25.5330 C   0  0  0  0  0  0  0  0  0  0  0  0
   53.9420  153.8590   24.2630 C   0  0  0  0  0  0  0  0  0  0  0  0
   54.1710  152.5280   23.9130 C   0  0  0  0  0  0  0  0  0  0  0  0
   53.8940  151.5250   24.8340 C   0  0  0  0  0  0  0  0  0  0  0  0
   54.1640  149.8770   24.4390 Cl  0  0  0  0  0  0  0  0  0  0  0  0
   53.3930  151.8860   26.0790 C   0  0  0  0  0  0  0  0  0  0  0  0
   53.1550  153.1660   26.4560 N   0  0  0  0  0  0  0  0  0  0  0  0
   51.1430  155.3450   30.3570 H   0  0  0  0  0  0  0  0  0  0  0  0
   52.7610  155.0690   30.0700 H   0  0  0  0  0  0  0  0  0  0  0  0
   51.6540  154.8870   28.8400 H   0  0  0  0  0  0  0  0  0  0  0  0
   51.0920  157.3415   29.3494 H   0  0  0  0  0  0  0  0  0  0  0  0
   52.7798  157.2884   30.0134 H   0  0  0  0  0  0  0  0  0  0  0  0
   51.8866  157.4724   27.2517 H   0  0  0  0  0  0  0  0  0  0  0  0
   53.5545  157.6068   27.9638 H   0  0  0  0  0  0  0  0  0  0  0  0
   53.1560  154.9510   27.8960 H   0  0  0  0  0  0  0  0  0  0  0  0
   54.1519  154.6734   23.5540 H   0  0  0  0  0  0  0  0  0  0  0  0
   54.5667  152.2752   22.9183 H   0  0  0  0  0  0  0  0  0  0  0  0
   53.1767  151.0853   26.8015 H   0  0  0  0  0  0  0  0  0  0  0  0
  1  2  1  0
  2  3  1  0
  3  4  1  0
  4  5  1  0
  5  6  2  0
  5  7  1  0
  7  8  2  0
  8  9  1  0
  9 10  2  0
 10 11  1  0
 10 12  1  0
 12 13  2  0
 13  7  1  0
  1 14  1  0
  1 15  1  0
  1 16  1  0
  2 17  1  0
  2 18  1  0
  3 19  1  0
  3 20  1  0
  4 21  1  0
  8 22  1  0
  9 23  1  0
 12 24  1  0
M  CHG  1   1   1
M  END
>  <meeko>  (4) 
{"is_sidechain": [false], "free_energy": -6.478, "intermolecular_energy": -7.806, "internal_energy": -0.183}

$$$$
lazabemide_out
     RDKit          3D

 24 24  0  0  0  0  0  0  0  0999 V2000
   56.0230  153.2560   25.1730 N   0  0  0  0  0  0  0  0  0  0  0  0
   54.6030  153.0490   24.8600 C   0  0  0  0  0  0  0  0  0  0  0  0
   53.7840  152.7180   26.1160 C   0  0  0  0  0  0  0  0  0  0  0  0
   53.3990  153.9050   26.8540 N   0  0  0  0  0  0  0  0  0  0  0  0
   52.6340  153.8590   27.9980 C   0  0  0  0  0  0  0  0  0  0  0  0
   52.2720  152.8210   28.5400 O   0  0  0  0  0  0  0  0  0  0  0  0
   52.2490  155.2020   28.5390 C   0  0  0  0  0  0  0  0  0  0  0  0
   51.1490  155.3200   29.3830 C   0  0  0  0  0  0  0  0  0  0  0  0
   50.8170  156.5860   29.8630 C   0  0  0  0  0  0  0  0  0  0  0  0
   51.5880  157.6800   29.4860 C   0  0  0  0  0  0  0  0  0  0  0  0
   51.2120  159.2540   30.0570 Cl  0  0  0  0  0  0  0  0  0  0  0  0
   52.6680  157.4710   28.6380 C   0  0  0  0  0  0  0  0  0  0  0  0
   53.0220  156.2570   28.1490 N   0  0  0  0  0  0  0  0  0  0  0  0
   56.4110  152.4010   25.5700 H   0  0  0  0  0  0  0  0  0  0  0  0
   56.1140  154.0170   25.8450 H   0  0  0  0  0  0  0  0  0  0  0  0
   56.5270  153.4940   24.3190 H   0  0  0  0  0  0  0  0  0  0  0  0
   54.2015  153.9663   24.4047 H   0  0  0  0  0  0  0  0  0  0  0  0
   54.5263  152.1975   24.1679 H   0  0  0  0  0  0  0  0  0  0  0  0
   52.8737  152.1801   25.8125 H   0  0  0  0  0  0  0  0  0  0  0  0
   54.4148  152.1034   26.7751 H   0  0  0  0  0  0  0  0  0  0  0  0
   53.7000  154.7820   26.5230 H   0  0  0  0  0  0  0  0  0  0  0  0
   50.5565  154.4369   29.6643 H   0  0  0  0  0  0  0  0  0  0  0  0
   49.9544  156.7181   30.5327 H   0  0  0  0  0  0  0  0  0  0  0  0
   53.2722  158.3425   28.3457 H   0  0  0  0  0  0  0  0  0  0  0  0
  1  2  1  0
  2  3  1  0
  3  4  1  0
  4  5  1  0
  5  6  2  0
  5  7  1  0
  7  8  2  0
  8  9  1  0
  9 10  2  0
 10 11  1  0
 10 12  1  0
 12 13  2  0
 13  7  1  0
  1 14  1  0
  1 15  1  0
  1 16  1  0
  2 17  1  0
  2 18  1  0
  3 19  1  0
  3 20  1  0
  4 21  1  0
  8 22  1  0
  9 23  1  0
 12 24  1  0
M  CHG  1   1   1
M  END
>  <meeko>  (5) 
{"is_sidechain": [false], "free_energy": -6.388, "intermolecular_energy": -7.736, "internal_energy": -0.145}

$$$$
lazabemide_out
     RDKit          3D

 24 24  0  0  0  0  0  0  0  0999 V2000
   53.7130  153.2190   28.5580 N   0  0  0  0  0  0  0  0  0  0  0  0
   52.4560  153.9780   28.5520 C   0  0  0  0  0  0  0  0  0  0  0  0
   52.6410  155.3870   27.9690 C   0  0  0  0  0  0  0  0  0  0  0  0
   51.7940  156.3690   28.6170 N   0  0  0  0  0  0  0  0  0  0  0  0
   52.2720  157.5680   29.0970 C   0  0  0  0  0  0  0  0  0  0  0  0
   53.4280  157.9510   28.9570 O   0  0  0  0  0  0  0  0  0  0  0  0
   51.2590  158.3850   29.8380 C   0  0  0  0  0  0  0  0  0  0  0  0
   51.5790  159.6730   30.2560 C   0  0  0  0  0  0  0  0  0  0  0  0
   50.6120  160.4030   30.9470 C   0  0  0  0  0  0  0  0  0  0  0  0
   49.3710  159.8260   31.1950 C   0  0  0  0  0  0  0  0  0  0  0  0
   48.1570  160.6930   32.0410 Cl  0  0  0  0  0  0  0  0  0  0  0  0
   49.1390  158.5340   30.7420 C   0  0  0  0  0  0  0  0  0  0  0  0
   50.0520  157.7920   30.0690 N   0  0  0  0  0  0  0  0  0  0  0  0
   54.4830  153.8350   28.2990 H   0  0  0  0  0  0  0  0  0  0  0  0
   53.6500  152.4520   27.8880 H   0  0  0  0  0  0  0  0  0  0  0  0
   53.8780  152.8430   29.4910 H   0  0  0  0  0  0  0  0  0  0  0  0
   51.7161  153.4361   27.9446 H   0  0  0  0  0  0  0  0  0  0  0  0
   52.1151  154.0815   29.5927 H   0  0  0  0  0  0  0  0  0  0  0  0
   53.6915  155.6871   28.0971 H   0  0  0  0  0  0  0  0  0  0  0  0
   52.3589  155.3499   26.9064 H   0  0  0  0  0  0  0  0  0  0  0  0
   50.8350  156.1700   28.7190 H   0  0  0  0  0  0  0  0  0  0  0  0
   52.5690  160.1044   30.0469 H   0  0  0  0  0  0  0  0  0  0  0  0
   50.8287  161.4247   31.2923 H   0  0  0  0  0  0  0  0  0  0  0  0
   48.1546  158.0855   30.9414 H   0  0  0  0  0  0  0  0  0  0  0  0
  1  2  1  0
  2  3  1  0
  3  4  1  0
  4  5  1  0
  5  6  2  0
  5  7  1  0
  7  8  2  0
  8  9  1  0
  9 10  2  0
 10 11  1  0
 10 12  1  0
 12 13  2  0
 13  7  1  0
  1 14  1  0
  1 15  1  0
  1 16  1  0
  2 17  1  0
  2 18  1  0
  3 19  1  0
  3 20  1  0
  4 21  1  0
  8 22  1  0
  9 23  1  0
 12 24  1  0
M  CHG  1   1   1
M  END
>  <meeko>  (6) 
{"is_sidechain": [false], "free_energy": -6.33, "intermolecular_energy": -7.662, "internal_energy": -0.149}

$$$$
lazabemide_out
     RDKit          3D

 24 24  0  0  0  0  0  0  0  0999 V2000
   51.6410  155.3690   29.6980 N   0  0  0  0  0  0  0  0  0  0  0  0
   51.8920  156.7650   29.3190 C   0  0  0  0  0  0  0  0  0  0  0  0
   52.6370  156.8680   27.9800 C   0  0  0  0  0  0  0  0  0  0  0  0
   52.9770  155.5680   27.4350 N   0  0  0  0  0  0  0  0  0  0  0  0
   53.1370  155.3420   26.0870 C   0  0  0  0  0  0  0  0  0  0  0  0
   53.0840  156.2190   25.2320 O   0  0  0  0  0  0  0  0  0  0  0  0
   53.3670  153.9060   25.7240 C   0  0  0  0  0  0  0  0  0  0  0  0
   52.6550  152.9040   26.3740 C   0  0  0  0  0  0  0  0  0  0  0  0
   52.8990  151.5790   26.0140 C   0  0  0  0  0  0  0  0  0  0  0  0
   53.8380  151.3050   25.0260 C   0  0  0  0  0  0  0  0  0  0  0  0
   54.1650  149.6870   24.5550 Cl  0  0  0  0  0  0  0  0  0  0  0  0
   54.5040  152.3680   24.4300 C   0  0  0  0  0  0  0  0  0  0  0  0
   54.2970  153.6680   24.7530 N   0  0  0  0  0  0  0  0  0  0  0  0
   50.8690  155.0000   29.1430 H   0  0  0  0  0  0  0  0  0  0  0  0
   51.4000  155.3240   30.6880 H   0  0  0  0  0  0  0  0  0  0  0  0
   52.4790  154.8140   29.5270 H   0  0  0  0  0  0  0  0  0  0  0  0
   50.9287  157.2888   29.2316 H   0  0  0  0  0  0  0  0  0  0  0  0
   52.5218  157.2221   30.0964 H   0  0  0  0  0  0  0  0  0  0  0  0
   51.9962  157.3967   27.2590 H   0  0  0  0  0  0  0  0  0  0  0  0
   53.5759  157.4123   28.1597 H   0  0  0  0  0  0  0  0  0  0  0  0
   53.1000  154.8140   28.0570 H   0  0  0  0  0  0  0  0  0  0  0  0
   51.9179  153.1503   27.1525 H   0  0  0  0  0  0  0  0  0  0  0  0
   52.3546  150.7597   26.5063 H   0  0  0  0  0  0  0  0  0  0  0  0
   55.2442  152.1412   23.6486 H   0  0  0  0  0  0  0  0  0  0  0  0
  1  2  1  0
  2  3  1  0
  3  4  1  0
  4  5  1  0
  5  6  2  0
  5  7  1  0
  7  8  2  0
  8  9  1  0
  9 10  2  0
 10 11  1  0
 10 12  1  0
 12 13  2  0
 13  7  1  0
  1 14  1  0
  1 15  1  0
  1 16  1  0
  2 17  1  0
  2 18  1  0
  3 19  1  0
  3 20  1  0
  4 21  1  0
  8 22  1  0
  9 23  1  0
 12 24  1  0
M  CHG  1   1   1
M  END
>  <meeko>  (7) 
{"is_sidechain": [false], "free_energy": -6.221, "intermolecular_energy": -7.509, "internal_energy": -0.171}

$$$$
lazabemide_out
     RDKit          3D

 24 24  0  0  0  0  0  0  0  0999 V2000
   54.4960  161.9100   31.9730 N   0  0  0  0  0  0  0  0  0  0  0  0
   53.6090  162.2080   30.8410 C   0  0  0  0  0  0  0  0  0  0  0  0
   52.2480  161.5090   30.9830 C   0  0  0  0  0  0  0  0  0  0  0  0
   52.2620  160.1600   30.4520 N   0  0  0  0  0  0  0  0  0  0  0  0
   51.1150  159.4790   30.1130 C   0  0  0  0  0  0  0  0  0  0  0  0
   49.9900  159.9650   30.1540 O   0  0  0  0  0  0  0  0  0  0  0  0
   51.3400  158.0570   29.6980 C   0  0  0  0  0  0  0  0  0  0  0  0
   52.4840  157.7160   28.9830 C   0  0  0  0  0  0  0  0  0  0  0  0
   52.6580  156.3840   28.6090 C   0  0  0  0  0  0  0  0  0  0  0  0
   51.6910  155.4480   28.9590 C   0  0  0  0  0  0  0  0  0  0  0  0
   51.8710  153.7990   28.5170 Cl  0  0  0  0  0  0  0  0  0  0  0  0
   50.5790  155.8770   29.6710 C   0  0  0  0  0  0  0  0  0  0  0  0
   50.3730  157.1610   30.0520 N   0  0  0  0  0  0  0  0  0  0  0  0
   54.7680  160.9280   31.9430 H   0  0  0  0  0  0  0  0  0  0  0  0
   54.0080  162.1030   32.8470 H   0  0  0  0  0  0  0  0  0  0  0  0
   55.3300  162.4950   31.9130 H   0  0  0  0  0  0  0  0  0  0  0  0
   53.4476  163.2950   30.7917 H   0  0  0  0  0  0  0  0  0  0  0  0
   54.0895  161.8376   29.9234 H   0  0  0  0  0  0  0  0  0  0  0  0
   51.9823  161.4662   32.0496 H   0  0  0  0  0  0  0  0  0  0  0  0
   51.5113  162.0886   30.4074 H   0  0  0  0  0  0  0  0  0  0  0  0
   53.1300  159.7120   30.3280 H   0  0  0  0  0  0  0  0  0  0  0  0
   53.2323  158.4780   28.7195 H   0  0  0  0  0  0  0  0  0  0  0  0
   53.5502  156.0771   28.0435 H   0  0  0  0  0  0  0  0  0  0  0  0
   49.8191  155.1293   29.9423 H   0  0  0  0  0  0  0  0  0  0  0  0
  1  2  1  0
  2  3  1  0
  3  4  1  0
  4  5  1  0
  5  6  2  0
  5  7  1  0
  7  8  2  0
  8  9  1  0
  9 10  2  0
 10 11  1  0
 10 12  1  0
 12 13  2  0
 13  7  1  0
  1 14  1  0
  1 15  1  0
  1 16  1  0
  2 17  1  0
  2 18  1  0
  3 19  1  0
  3 20  1  0
  4 21  1  0
  8 22  1  0
  9 23  1  0
 12 24  1  0
M  CHG  1   1   1
M  END
>  <meeko>  (8) 
{"is_sidechain": [false], "free_energy": -6.08, "intermolecular_energy": -7.371, "internal_energy": -0.138}

$$$$
lazabemide_out
     RDKit          3D

 24 24  0  0  0  0  0  0  0  0999 V2000
   49.4240  160.7520   29.6810 N   0  0  0  0  0  0  0  0  0  0  0  0
   49.8730  159.6080   30.4840 C   0  0  0  0  0  0  0  0  0  0  0  0
   51.3300  159.2300   30.1770 C   0  0  0  0  0  0  0  0  0  0  0  0
   51.4450  157.9180   29.5710 N   0  0  0  0  0  0  0  0  0  0  0  0
   52.5880  157.4840   28.9390 C   0  0  0  0  0  0  0  0  0  0  0  0
   53.6320  158.1250   28.8930 O   0  0  0  0  0  0  0  0  0  0  0  0
   52.4590  156.1470   28.2770 C   0  0  0  0  0  0  0  0  0  0  0  0
   52.8650  155.9850   26.9560 C   0  0  0  0  0  0  0  0  0  0  0  0
   52.7260  154.7270   26.3700 C   0  0  0  0  0  0  0  0  0  0  0  0
   52.1900  153.6840   27.1180 C   0  0  0  0  0  0  0  0  0  0  0  0
   52.0040  152.1220   26.4330 Cl  0  0  0  0  0  0  0  0  0  0  0  0
   51.8090  153.9360   28.4300 C   0  0  0  0  0  0  0  0  0  0  0  0
   51.9270  155.1440   29.0340 N   0  0  0  0  0  0  0  0  0  0  0  0
   48.6170  160.4790   29.1210 H   0  0  0  0  0  0  0  0  0  0  0  0
   50.1800  161.0530   29.0670 H   0  0  0  0  0  0  0  0  0  0  0  0
   49.1640  161.5200   30.3000 H   0  0  0  0  0  0  0  0  0  0  0  0
   49.7897  159.8669   31.5498 H   0  0  0  0  0  0  0  0  0  0  0  0
   49.2371  158.7457   30.2348 H   0  0  0  0  0  0  0  0  0  0  0  0
   51.7505  159.9760   29.4866 H   0  0  0  0  0  0  0  0  0  0  0  0
   51.8787  159.2083   31.1302 H   0  0  0  0  0  0  0  0  0  0  0  0
   50.6710  157.3100   29.6150 H   0  0  0  0  0  0  0  0  0  0  0  0
   53.2851  156.8281   26.3880 H   0  0  0  0  0  0  0  0  0  0  0  0
   53.0368  154.5615   25.3279 H   0  0  0  0  0  0  0  0  0  0  0  0
   51.3861  153.1053   29.0140 H   0  0  0  0  0  0  0  0  0  0  0  0
  1  2  1  0
  2  3  1  0
  3  4  1  0
  4  5  1  0
  5  6  2  0
  5  7  1  0
  7  8  2  0
  8  9  1  0
  9 10  2  0
 10 11  1  0
 10 12  1  0
 12 13  2  0
 13  7  1  0
  1 14  1  0
  1 15  1  0
  1 16  1  0
  2 17  1  0
  2 18  1  0
  3 19  1  0
  3 20  1  0
  4 21  1  0
  8 22  1  0
  9 23  1  0
 12 24  1  0
M  CHG  1   1   1
M  END
>  <meeko>  (9) 
{"is_sidechain": [false], "free_energy": -5.877, "intermolecular_energy": -7.139, "internal_energy": -0.127}

$$$$
