quercetin_out
     RDKit          3D

 32 34  0  0  0  0  0  0  0  0999 V2000
   52.5120  160.7090   30.4690 O   0  0  0  0  0  0  0  0  0  0  0  0
   51.7720  159.7430   30.2970 C   0  0  0  0  0  0  0  0  0  0  0  0
   52.2850  158.5080   29.6620 C   0  0  0  0  0  0  0  0  0  0  0  0
   53.6120  158.5070   29.2700 O   0  0  0  0  0  0  0  0  0  0  0  0
   51.4400  157.4740   29.4890 C   0  0  0  0  0  0  0  0  0  0  0  0
   51.8340  156.1980   28.8500 C   0  0  0  0  0  0  0  0  0  0  0  0
   51.4900  154.9790   29.4640 C   0  0  0  0  0  0  0  0  0  0  0  0
   51.8670  153.7570   28.8990 C   0  0  0  0  0  0  0  0  0  0  0  0
   52.5950  153.7540   27.7200 C   0  0  0  0  0  0  0  0  0  0  0  0
   52.9630  152.5630   27.1670 O   0  0  0  0  0  0  0  0  0  0  0  0
   52.9500  154.9490   27.1020 C   0  0  0  0  0  0  0  0  0  0  0  0
   53.6680  154.8740   25.9400 O   0  0  0  0  0  0  0  0  0  0  0  0
   52.5810  156.1700   27.6600 C   0  0  0  0  0  0  0  0  0  0  0  0
   50.1020  157.4990   29.8660 O   0  0  0  0  0  0  0  0  0  0  0  0
   49.6000  158.6260   30.4630 C   0  0  0  0  0  0  0  0  0  0  0  0
   48.2550  158.6030   30.8350 C   0  0  0  0  0  0  0  0  0  0  0  0
   47.6920  159.7210   31.4440 C   0  0  0  0  0  0  0  0  0  0  0  0
   46.3760  159.6570   31.7910 O   0  0  0  0  0  0  0  0  0  0  0  0
   48.4490  160.8640   31.6880 C   0  0  0  0  0  0  0  0  0  0  0  0
   49.7920  160.8800   31.3150 C   0  0  0  0  0  0  0  0  0  0  0  0
   50.4890  162.0290   31.5780 O   0  0  0  0  0  0  0  0  0  0  0  0
   50.3660  159.7630   30.7030 C   0  0  0  0  0  0  0  0  0  0  0  0
   54.1380  159.2720   29.3960 H   0  0  0  0  0  0  0  0  0  0  0  0
   50.9160  154.9880   30.4023 H   0  0  0  0  0  0  0  0  0  0  0  0
   51.5892  152.8098   29.3843 H   0  0  0  0  0  0  0  0  0  0  0  0
   52.3150  151.9970   26.7960 H   0  0  0  0  0  0  0  0  0  0  0  0
   54.5550  155.1780   25.9170 H   0  0  0  0  0  0  0  0  0  0  0  0
   52.8735  157.1107   27.1705 H   0  0  0  0  0  0  0  0  0  0  0  0
   47.6440  157.7075   30.6482 H   0  0  0  0  0  0  0  0  0  0  0  0
   46.1230  159.2490   32.5960 H   0  0  0  0  0  0  0  0  0  0  0  0
   47.9934  161.7423   32.1686 H   0  0  0  0  0  0  0  0  0  0  0  0
   51.4070  162.0720   31.3940 H   0  0  0  0  0  0  0  0  0  0  0  0
  1  2  2  0
  2  3  1  0
  3  4  1  0
  3  5  2  0
  5  6  1  0
  6  7  2  0
  7  8  1  0
  8  9  2  0
  9 10  1  0
  9 11  1  0
 11 12  1  0
 11 13  2  0
  5 14  1  0
 14 15  1  0
 15 16  2  0
 16 17  1  0
 17 18  1  0
 17 19  2  0
 19 20  1  0
 20 21  1  0
 20 22  2  0
 22  2  1  0
 13  6  1  0
 22 15  1  0
  4 23  1  0
  7 24  1  0
  8 25  1  0
 10 26  1  0
 12 27  1  0
 13 28  1  0
 16 29  1  0
 18 30  1  0
 19 31  1  0
 21 32  1  0
M  END
>  <meeko>  (1) 
{"is_sidechain": [false], "free_energy": -9.404, "intermolecular_energy": -11.328, "internal_energy": -0.027}

$$$$
quercetin_out
     RDKit          3D

 32 34  0  0  0  0  0  0  0  0999 V2000
   52.2470  152.8790   28.7970 O   0  0  0  0  0  0  0  0  0  0  0  0
   52.3470  154.0500   28.4340 C   0  0  0  0  0  0  0  0  0  0  0  0
   51.7870  155.1430   29.2600 C   0  0  0  0  0  0  0  0  0  0  0  0
   51.1460  154.7800   30.4320 O   0  0  0  0  0  0  0  0  0  0  0  0
   51.9150  156.4100   28.8240 C   0  0  0  0  0  0  0  0  0  0  0  0
   51.3790  157.5810   29.5540 C   0  0  0  0  0  0  0  0  0  0  0  0
   50.0600  157.5490   30.0450 C   0  0  0  0  0  0  0  0  0  0  0  0
   49.5160  158.6470   30.7180 C   0  0  0  0  0  0  0  0  0  0  0  0
   50.2910  159.7810   30.8970 C   0  0  0  0  0  0  0  0  0  0  0  0
   49.7620  160.8530   31.5550 O   0  0  0  0  0  0  0  0  0  0  0  0
   51.5950  159.8330   30.4140 C   0  0  0  0  0  0  0  0  0  0  0  0
   52.3040  160.9840   30.6250 O   0  0  0  0  0  0  0  0  0  0  0  0
   52.1420  158.7460   29.7390 C   0  0  0  0  0  0  0  0  0  0  0  0
   52.5400  156.7570   27.6310 O   0  0  0  0  0  0  0  0  0  0  0  0
   53.0760  155.7670   26.8480 C   0  0  0  0  0  0  0  0  0  0  0  0
   53.7040  156.1610   25.6670 C   0  0  0  0  0  0  0  0  0  0  0  0
   54.2640  155.1980   24.8320 C   0  0  0  0  0  0  0  0  0  0  0  0
   54.8660  155.6250   23.6870 O   0  0  0  0  0  0  0  0  0  0  0  0
   54.2070  153.8450   25.1580 C   0  0  0  0  0  0  0  0  0  0  0  0
   53.5800  153.4570   26.3400 C   0  0  0  0  0  0  0  0  0  0  0  0
   53.5540  152.1160   26.6120 O   0  0  0  0  0  0  0  0  0  0  0  0
   53.0150  154.4180   27.1840 C   0  0  0  0  0  0  0  0  0  0  0  0
   51.5460  154.9620   31.2590 H   0  0  0  0  0  0  0  0  0  0  0  0
   49.4484  156.6468   29.8969 H   0  0  0  0  0  0  0  0  0  0  0  0
   48.4853  158.6108   31.1006 H   0  0  0  0  0  0  0  0  0  0  0  0
   49.7140  161.6870   31.1310 H   0  0  0  0  0  0  0  0  0  0  0  0
   52.9690  161.0100   31.2850 H   0  0  0  0  0  0  0  0  0  0  0  0
   53.1699  158.7988   29.3510 H   0  0  0  0  0  0  0  0  0  0  0  0
   53.7566  157.2260   25.3968 H   0  0  0  0  0  0  0  0  0  0  0  0
   55.7820  155.4750   23.5570 H   0  0  0  0  0  0  0  0  0  0  0  0
   54.6516  153.0922   24.4904 H   0  0  0  0  0  0  0  0  0  0  0  0
   53.6150  151.4950   25.9120 H   0  0  0  0  0  0  0  0  0  0  0  0
  1  2  2  0
  2  3  1  0
  3  4  1  0
  3  5  2  0
  5  6  1  0
  6  7  2  0
  7  8  1  0
  8  9  2  0
  9 10  1  0
  9 11  1  0
 11 12  1  0
 11 13  2  0
  5 14  1  0
 14 15  1  0
 15 16  2  0
 16 17  1  0
 17 18  1  0
 17 19  2  0
 19 20  1  0
 20 21  1  0
 20 22  2  0
 22  2  1  0
 13  6  1  0
 22 15  1  0
  4 23  1  0
  7 24  1  0
  8 25  1  0
 10 26  1  0
 12 27  1  0
 13 28  1  0
 16 29  1  0
 18 30  1  0
 19 31  1  0
 21 32  1  0
M  END
>  <meeko>  (2) 
{"is_sidechain": [false], "free_energy": -9.068, "intermolecular_energy": -10.944, "internal_energy": -0.007}

$$$$
quercetin_out
     RDKit          3D

 32 34  0  0  0  0  0  0  0  0999 V2000
   51.8850  151.5540   27.9420 O   0  0  0  0  0  0  0  0  0  0  0  0
   52.2230  152.6770   27.5740 C   0  0  0  0  0  0  0  0  0  0  0  0
   51.8640  153.8690   28.3750 C   0  0  0  0  0  0  0  0  0  0  0  0
   51.1300  153.6550   29.5280 O   0  0  0  0  0  0  0  0  0  0  0  0
   52.2510  155.0810   27.9350 C   0  0  0  0  0  0  0  0  0  0  0  0
   51.9340  156.3440   28.6400 C   0  0  0  0  0  0  0  0  0  0  0  0
   52.8850  157.3820   28.6670 C   0  0  0  0  0  0  0  0  0  0  0  0
   52.6260  158.5770   29.3440 C   0  0  0  0  0  0  0  0  0  0  0  0
   51.4150  158.7330   29.9990 C   0  0  0  0  0  0  0  0  0  0  0  0
   51.1600  159.9000   30.6590 O   0  0  0  0  0  0  0  0  0  0  0  0
   50.4650  157.7170   29.9880 C   0  0  0  0  0  0  0  0  0  0  0  0
   49.2910  157.9370   30.6560 O   0  0  0  0  0  0  0  0  0  0  0  0
   50.7170  156.5220   29.3200 C   0  0  0  0  0  0  0  0  0  0  0  0
   52.9670  155.2840   26.7600 O   0  0  0  0  0  0  0  0  0  0  0  0
   53.3210  154.1980   26.0010 C   0  0  0  0  0  0  0  0  0  0  0  0
   54.0490  154.4470   24.8370 C   0  0  0  0  0  0  0  0  0  0  0  0
   54.4330  153.3820   24.0280 C   0  0  0  0  0  0  0  0  0  0  0  0
   55.1410  153.6680   22.8990 O   0  0  0  0  0  0  0  0  0  0  0  0
   54.1030  152.0700   24.3600 C   0  0  0  0  0  0  0  0  0  0  0  0
   53.3780  151.8290   25.5250 C   0  0  0  0  0  0  0  0  0  0  0  0
   53.0800  150.5220   25.8040 O   0  0  0  0  0  0  0  0  0  0  0  0
   52.9870  152.8920   26.3440 C   0  0  0  0  0  0  0  0  0  0  0  0
   50.9460  152.7800   29.8100 H   0  0  0  0  0  0  0  0  0  0  0  0
   53.8458  157.2505   28.1477 H   0  0  0  0  0  0  0  0  0  0  0  0
   53.3740  159.3834   29.3567 H   0  0  0  0  0  0  0  0  0  0  0  0
   50.3110  160.2920   30.6090 H   0  0  0  0  0  0  0  0  0  0  0  0
   49.2450  158.6040   31.3130 H   0  0  0  0  0  0  0  0  0  0  0  0
   49.9653  155.7189   29.3244 H   0  0  0  0  0  0  0  0  0  0  0  0
   54.3173  155.4774   24.5610 H   0  0  0  0  0  0  0  0  0  0  0  0
   55.9530  153.2310   22.7330 H   0  0  0  0  0  0  0  0  0  0  0  0
   54.4104  151.2363   23.7117 H   0  0  0  0  0  0  0  0  0  0  0  0
   52.3000  150.1340   25.4580 H   0  0  0  0  0  0  0  0  0  0  0  0
  1  2  2  0
  2  3  1  0
  3  4  1  0
  3  5  2  0
  5  6  1  0
  6  7  2  0
  7  8  1  0
  8  9  2  0
  9 10  1  0
  9 11  1  0
 11 12  1  0
 11 13  2  0
  5 14  1  0
 14 15  1  0
 15 16  2  0
 16 17  1  0
 17 18  1  0
 17 19  2  0
 19 20  1  0
 20 21  1  0
 20 22  2  0
 22  2  1  0
 13  6  1  0
 22 15  1  0
  4 23  1  0
  7 24  1  0
  8 25  1  0
 10 26  1  0
 12 27  1  0
 13 28  1  0
 16 29  1  0
 18 30  1  0
 19 31  1  0
 21 32  1  0
M  END
>  <meeko>  (3) 
{"is_sidechain": [false], "free_energy": -8.666, "intermolecular_energy": -10.559, "internal_energy": 0.093}

$$$$
quercetin_out
     RDKit          3D

 32 34  0  0  0  0  0  0  0  0999 V2000
   48.0230  158.5650   30.8200 O   0  0  0  0  0  0  0  0  0  0  0  0
   49.2130  158.4920   30.5190 C   0  0  0  0  0  0  0  0  0  0  0  0
   49.7440  157.2870   29.8420 C   0  0  0  0  0  0  0  0  0  0  0  0
   48.8490  156.2650   29.5840 O   0  0  0  0  0  0  0  0  0  0  0  0
   51.0540  157.2480   29.5330 C   0  0  0  0  0  0  0  0  0  0  0  0
   51.7000  156.0910   28.8740 C   0  0  0  0  0  0  0  0  0  0  0  0
   51.5930  154.8120   29.4530 C   0  0  0  0  0  0  0  0  0  0  0  0
   52.2110  153.7030   28.8680 C   0  0  0  0  0  0  0  0  0  0  0  0
   52.9420  153.8730   27.7040 C   0  0  0  0  0  0  0  0  0  0  0  0
   53.5450  152.7910   27.1320 O   0  0  0  0  0  0  0  0  0  0  0  0
   53.0650  155.1300   27.1200 C   0  0  0  0  0  0  0  0  0  0  0  0
   53.8010  155.2270   25.9710 O   0  0  0  0  0  0  0  0  0  0  0  0
   52.4560  156.2400   27.6980 C   0  0  0  0  0  0  0  0  0  0  0  0
   51.9470  158.2740   29.8210 O   0  0  0  0  0  0  0  0  0  0  0  0
   51.4830  159.4060   30.4410 C   0  0  0  0  0  0  0  0  0  0  0  0
   52.4120  160.4140   30.7000 C   0  0  0  0  0  0  0  0  0  0  0  0
   51.9960  161.5840   31.3290 C   0  0  0  0  0  0  0  0  0  0  0  0
   52.9350  162.5430   31.5640 O   0  0  0  0  0  0  0  0  0  0  0  0
   50.6670  161.7650   31.7050 C   0  0  0  0  0  0  0  0  0  0  0  0
   49.7450  160.7550   31.4420 C   0  0  0  0  0  0  0  0  0  0  0  0
   48.4530  160.9850   31.8320 O   0  0  0  0  0  0  0  0  0  0  0  0
   50.1530  159.5760   30.8110 C   0  0  0  0  0  0  0  0  0  0  0  0
   47.9400  156.3770   29.7830 H   0  0  0  0  0  0  0  0  0  0  0  0
   51.0144  154.6835   30.3797 H   0  0  0  0  0  0  0  0  0  0  0  0
   52.1179  152.7075   29.3265 H   0  0  0  0  0  0  0  0  0  0  0  0
   54.4540  152.8250   26.9070 H   0  0  0  0  0  0  0  0  0  0  0  0
   53.4180  155.5940   25.1990 H   0  0  0  0  0  0  0  0  0  0  0  0
   52.5660  157.2320   27.2356 H   0  0  0  0  0  0  0  0  0  0  0  0
   53.4651  160.2852   30.4094 H   0  0  0  0  0  0  0  0  0  0  0  0
   53.3430  162.6020   32.4060 H   0  0  0  0  0  0  0  0  0  0  0  0
   50.3501  162.6932   32.2030 H   0  0  0  0  0  0  0  0  0  0  0  0
   48.2190  160.9230   32.7380 H   0  0  0  0  0  0  0  0  0  0  0  0
  1  2  2  0
  2  3  1  0
  3  4  1  0
  3  5  2  0
  5  6  1  0
  6  7  2  0
  7  8  1  0
  8  9  2  0
  9 10  1  0
  9 11  1  0
 11 12  1  0
 11 13  2  0
  5 14  1  0
 14 15  1  0
 15 16  2  0
 16 17  1  0
 17 18  1  0
 17 19  2  0
 19 20  1  0
 20 21  1  0
 20 22  2  0
 22  2  1  0
 13  6  1  0
 22 15  1  0
  4 23  1  0
  7 24  1  0
  8 25  1  0
 10 26  1  0
 12 27  1  0
 13 28  1  0
 16 29  1  0
 18 30  1  0
 19 31  1  0
 21 32  1  0
M  END
>  <meeko>  (4) 
{"is_sidechain": [false], "free_energy": -8.653, "intermolecular_energy": -10.342, "internal_energy": -0.109}

$$$$
quercetin_out
     RDKit          3D

 32 34  0  0  0  0  0  0  0  0999 V2000
   54.7360  155.0390   24.4880 O   0  0  0  0  0  0  0  0  0  0  0  0
   53.9560  154.7040   25.3770 C   0  0  0  0  0  0  0  0  0  0  0  0
   53.3970  155.7120   26.3050 C   0  0  0  0  0  0  0  0  0  0  0  0
   53.8040  157.0230   26.1290 O   0  0  0  0  0  0  0  0  0  0  0  0
   52.5490  155.3010   27.2670 C   0  0  0  0  0  0  0  0  0  0  0  0
   51.9440  156.2140   28.2630 C   0  0  0  0  0  0  0  0  0  0  0  0
   50.7280  155.8620   28.8790 C   0  0  0  0  0  0  0  0  0  0  0  0
   50.1180  156.7130   29.8060 C   0  0  0  0  0  0  0  0  0  0  0  0
   50.7230  157.9200   30.1150 C   0  0  0  0  0  0  0  0  0  0  0  0
   50.1300  158.7500   31.0200 O   0  0  0  0  0  0  0  0  0  0  0  0
   51.9220  158.2870   29.5130 C   0  0  0  0  0  0  0  0  0  0  0  0
   52.4650  159.4930   29.8640 O   0  0  0  0  0  0  0  0  0  0  0  0
   52.5330  157.4480   28.5860 C   0  0  0  0  0  0  0  0  0  0  0  0
   52.1690  153.9760   27.4480 O   0  0  0  0  0  0  0  0  0  0  0  0
   52.6630  153.0200   26.5970 C   0  0  0  0  0  0  0  0  0  0  0  0
   52.2460  151.7060   26.8080 C   0  0  0  0  0  0  0  0  0  0  0  0
   52.7180  150.6950   25.9760 C   0  0  0  0  0  0  0  0  0  0  0  0
   52.2870  149.4250   26.2160 O   0  0  0  0  0  0  0  0  0  0  0  0
   53.6020  150.9740   24.9360 C   0  0  0  0  0  0  0  0  0  0  0  0
   54.0140  152.2890   24.7300 C   0  0  0  0  0  0  0  0  0  0  0  0
   54.8820  152.5060   23.6950 O   0  0  0  0  0  0  0  0  0  0  0  0
   53.5450  153.3110   25.5610 C   0  0  0  0  0  0  0  0  0  0  0  0
   54.5650  157.3410   26.5740 H   0  0  0  0  0  0  0  0  0  0  0  0
   50.2507  154.9034   28.6274 H   0  0  0  0  0  0  0  0  0  0  0  0
   49.1693  156.4273   30.2839 H   0  0  0  0  0  0  0  0  0  0  0  0
   50.1270  158.5270   31.9300 H   0  0  0  0  0  0  0  0  0  0  0  0
   53.3730  159.6620   29.7040 H   0  0  0  0  0  0  0  0  0  0  0  0
   53.4758  157.7505   28.1068 H   0  0  0  0  0  0  0  0  0  0  0  0
   51.5492  151.4704   27.6259 H   0  0  0  0  0  0  0  0  0  0  0  0
   52.9030  148.7190   26.2440 H   0  0  0  0  0  0  0  0  0  0  0  0
   53.9700  150.1666   24.2859 H   0  0  0  0  0  0  0  0  0  0  0  0
   55.7990  152.6000   23.8640 H   0  0  0  0  0  0  0  0  0  0  0  0
  1  2  2  0
  2  3  1  0
  3  4  1  0
  3  5  2  0
  5  6  1  0
  6  7  2  0
  7  8  1  0
  8  9  2  0
  9 10  1  0
  9 11  1  0
 11 12  1  0
 11 13  2  0
  5 14  1  0
 14 15  1  0
 15 16  2  0
 16 17  1  0
 17 18  1  0
 17 19  2  0
 19 20  1  0
 20 21  1  0
 20 22  2  0
 22  2  1  0
 13  6  1  0
 22 15  1  0
  4 23  1  0
  7 24  1  0
  8 25  1  0
 10 26  1  0
 12 27  1  0
 13 28  1  0
 16 29  1  0
 18 30  1  0
 19 31  1  0
 21 32  1  0
M  END
>  <meeko>  (5) 
{"is_sidechain": [false], "free_energy": -8.543, "intermolecular_energy": -10.534, "internal_energy": 0.216}

$$$$
quercetin_out
     RDKit          3D

 32 34  0  0  0  0  0  0  0  0999 V2000
   54.7320  154.8620   24.6360 O   0  0  0  0  0  0  0  0  0  0  0  0
   53.9190  154.6230   25.5260 C   0  0  0  0  0  0  0  0  0  0  0  0
   53.4050  155.7130   26.3860 C   0  0  0  0  0  0  0  0  0  0  0  0
   53.8900  156.9860   26.1450 O   0  0  0  0  0  0  0  0  0  0  0  0
   52.5190  155.4070   27.3520 C   0  0  0  0  0  0  0  0  0  0  0  0
   51.9510  156.4080   28.2830 C   0  0  0  0  0  0  0  0  0  0  0  0
   52.6770  157.5810   28.5700 C   0  0  0  0  0  0  0  0  0  0  0  0
   52.1800  158.5350   29.4630 C   0  0  0  0  0  0  0  0  0  0  0  0
   50.9570  158.3140   30.0750 C   0  0  0  0  0  0  0  0  0  0  0  0
   50.4700  159.2440   30.9450 O   0  0  0  0  0  0  0  0  0  0  0  0
   50.2280  157.1590   29.8090 C   0  0  0  0  0  0  0  0  0  0  0  0
   49.0280  157.0050   30.4480 O   0  0  0  0  0  0  0  0  0  0  0  0
   50.7180  156.2020   28.9250 C   0  0  0  0  0  0  0  0  0  0  0  0
   52.0590  154.1180   27.5990 O   0  0  0  0  0  0  0  0  0  0  0  0
   52.5110  153.0890   26.8140 C   0  0  0  0  0  0  0  0  0  0  0  0
   52.0150  151.8150   27.0890 C   0  0  0  0  0  0  0  0  0  0  0  0
   52.4410  150.7320   26.3250 C   0  0  0  0  0  0  0  0  0  0  0  0
   51.9320  149.5050   26.6270 O   0  0  0  0  0  0  0  0  0  0  0  0
   53.3560  150.9000   25.2880 C   0  0  0  0  0  0  0  0  0  0  0  0
   53.8470  152.1760   25.0180 C   0  0  0  0  0  0  0  0  0  0  0  0
   54.7440  152.2840   23.9890 O   0  0  0  0  0  0  0  0  0  0  0  0
   53.4250  153.2690   25.7800 C   0  0  0  0  0  0  0  0  0  0  0  0
   53.2980  157.7110   26.0910 H   0  0  0  0  0  0  0  0  0  0  0  0
   53.6495  157.7486   28.0841 H   0  0  0  0  0  0  0  0  0  0  0  0
   52.7528  159.4494   29.6769 H   0  0  0  0  0  0  0  0  0  0  0  0
   50.5870  159.1310   31.8680 H   0  0  0  0  0  0  0  0  0  0  0  0
   48.3980  157.6980   30.4350 H   0  0  0  0  0  0  0  0  0  0  0  0
   50.1411  155.2861   28.7293 H   0  0  0  0  0  0  0  0  0  0  0  0
   51.2917  151.6668   27.9044 H   0  0  0  0  0  0  0  0  0  0  0  0
   52.1350  149.1040   27.4500 H   0  0  0  0  0  0  0  0  0  0  0  0
   53.6863  150.0374   24.6906 H   0  0  0  0  0  0  0  0  0  0  0  0
   54.6000  151.8150   23.1900 H   0  0  0  0  0  0  0  0  0  0  0  0
  1  2  2  0
  2  3  1  0
  3  4  1  0
  3  5  2  0
  5  6  1  0
  6  7  2  0
  7  8  1  0
  8  9  2  0
  9 10  1  0
  9 11  1  0
 11 12  1  0
 11 13  2  0
  5 14  1  0
 14 15  1  0
 15 16  2  0
 16 17  1  0
 17 18  1  0
 17 19  2  0
 19 20  1  0
 20 21  1  0
 20 22  2  0
 22  2  1  0
 13  6  1  0
 22 15  1  0
  4 23  1  0
  7 24  1  0
  8 25  1  0
 10 26  1  0
 12 27  1  0
 13 28  1  0
 16 29  1  0
 18 30  1  0
 19 31  1  0
 21 32  1  0
M  END
>  <meeko>  (6) 
{"is_sidechain": [false], "free_energy": -7.551, "intermolecular_energy": -9.368, "internal_energy": 0.245}

$$$$
quercetin_out
     RDKit          3D

 32 34  0  0  0  0  0  0  0  0999 V2000
   54.3810  155.4780   25.2580 O   0  0  0  0  0  0  0  0  0  0  0  0
   53.5460  155.1380   26.0940 C   0  0  0  0  0  0  0  0  0  0  0  0
   52.9210  156.1440   26.9830 C   0  0  0  0  0  0  0  0  0  0  0  0
   53.3300  157.4560   26.8330 O   0  0  0  0  0  0  0  0  0  0  0  0
   52.0140  155.7270   27.8870 C   0  0  0  0  0  0  0  0  0  0  0  0
   51.3390  156.6360   28.8400 C   0  0  0  0  0  0  0  0  0  0  0  0
   50.0390  156.3320   29.2890 C   0  0  0  0  0  0  0  0  0  0  0  0
   49.3640  157.1810   30.1700 C   0  0  0  0  0  0  0  0  0  0  0  0
   49.9880  158.3400   30.6010 C   0  0  0  0  0  0  0  0  0  0  0  0
   49.3320  159.1700   31.4620 O   0  0  0  0  0  0  0  0  0  0  0  0
   51.2700  158.6620   30.1650 C   0  0  0  0  0  0  0  0  0  0  0  0
   51.8260  159.8220   30.6290 O   0  0  0  0  0  0  0  0  0  0  0  0
   51.9460  157.8230   29.2830 C   0  0  0  0  0  0  0  0  0  0  0  0
   51.6310  154.4000   28.0430 O   0  0  0  0  0  0  0  0  0  0  0  0
   52.1870  153.4470   27.2280 C   0  0  0  0  0  0  0  0  0  0  0  0
   51.7660  152.1300   27.4120 C   0  0  0  0  0  0  0  0  0  0  0  0
   52.2980  151.1220   26.6140 C   0  0  0  0  0  0  0  0  0  0  0  0
   51.8610  149.8490   26.8260 O   0  0  0  0  0  0  0  0  0  0  0  0
   53.2470  151.4060   25.6340 C   0  0  0  0  0  0  0  0  0  0  0  0
   53.6620  152.7230   25.4550 C   0  0  0  0  0  0  0  0  0  0  0  0
   54.5960  152.9460   24.4780 O   0  0  0  0  0  0  0  0  0  0  0  0
   53.1340  153.7430   26.2520 C   0  0  0  0  0  0  0  0  0  0  0  0
   53.7840  157.7200   26.0570 H   0  0  0  0  0  0  0  0  0  0  0  0
   49.5474  155.4117   28.9406 H   0  0  0  0  0  0  0  0  0  0  0  0
   48.3502  156.9321   30.5167 H   0  0  0  0  0  0  0  0  0  0  0  0
   48.3990  159.1250   31.5390 H   0  0  0  0  0  0  0  0  0  0  0  0
   52.4500  159.7950   31.3280 H   0  0  0  0  0  0  0  0  0  0  0  0
   52.9544  158.0894   28.9334 H   0  0  0  0  0  0  0  0  0  0  0  0
   51.0186  151.8900   28.1826 H   0  0  0  0  0  0  0  0  0  0  0  0
   50.9650  149.6280   26.6590 H   0  0  0  0  0  0  0  0  0  0  0  0
   53.6626  150.6008   25.0103 H   0  0  0  0  0  0  0  0  0  0  0  0
   55.3220  153.5150   24.6450 H   0  0  0  0  0  0  0  0  0  0  0  0
  1  2  2  0
  2  3  1  0
  3  4  1  0
  3  5  2  0
  5  6  1  0
  6  7  2  0
  7  8  1  0
  8  9  2  0
  9 10  1  0
  9 11  1  0
 11 12  1  0
 11 13  2  0
  5 14  1  0
 14 15  1  0
 15 16  2  0
 16 17  1  0
 17 18  1  0
 17 19  2  0
 19 20  1  0
 20 21  1  0
 20 22  2  0
 22  2  1  0
 13  6  1  0
 22 15  1  0
  4 23  1  0
  7 24  1  0
  8 25  1  0
 10 26  1  0
 12 27  1  0
 13 28  1  0
 16 29  1  0
 18 30  1  0
 19 31  1  0
 21 32  1  0
M  END
>  <meeko>  (7) 
{"is_sidechain": [false], "free_energy": -7.454, "intermolecular_energy": -9.174, "internal_energy": 0.169}

$$$$
