rasagiline_out
     RDKit          3D

 27 28  0  0  0  0  0  0  0  0999 V2000
   52.2610  157.8670   29.3080 C   0  0  0  0  0  0  0  0  0  0  0  0
   52.0370  156.6990   29.1370 C   0  0  0  0  0  0  0  0  0  0  0  0
   51.7650  155.2710   28.9280 C   0  0  0  0  0  0  0  0  0  0  0  0
   51.7120  154.9930   27.5000 N   0  0  0  0  0  0  0  0  0  0  0  0
   53.0040  155.1770   26.8490 C   0  0  2  0  0  0  0  0  0  0  0  0
   53.0500  156.3590   25.8540 C   0  0  0  0  0  0  0  0  0  0  0  0
   54.1240  156.0060   24.8150 C   0  0  0  0  0  0  0  0  0  0  0  0
   54.0040  154.5150   24.7780 C   0  0  0  0  0  0  0  0  0  0  0  0
   54.4740  153.6470   23.8060 C   0  0  0  0  0  0  0  0  0  0  0  0
   54.2820  152.2770   23.9940 C   0  0  0  0  0  0  0  0  0  0  0  0
   53.6400  151.7940   25.1460 C   0  0  0  0  0  0  0  0  0  0  0  0
   53.1820  152.6770   26.1260 C   0  0  0  0  0  0  0  0  0  0  0  0
   53.3610  154.0380   25.9280 C   0  0  0  0  0  0  0  0  0  0  0  0
   52.4661  158.9363   29.4646 H   0  0  0  0  0  0  0  0  0  0  0  0
   52.5655  154.6736   29.3888 H   0  0  0  0  0  0  0  0  0  0  0  0
   50.8014  155.0090   29.3894 H   0  0  0  0  0  0  0  0  0  0  0  0
   51.0360  155.6240   27.0680 H   0  0  0  0  0  0  0  0  0  0  0  0
   51.4400  154.0170   27.3820 H   0  0  0  0  0  0  0  0  0  0  0  0
   53.6687  155.3025   27.7164 H   0  0  0  0  0  0  0  0  0  0  0  0
   52.0727  156.4831   25.3645 H   0  0  0  0  0  0  0  0  0  0  0  0
   53.2844  157.3039   26.3661 H   0  0  0  0  0  0  0  0  0  0  0  0
   53.9014  156.4539   23.8353 H   0  0  0  0  0  0  0  0  0  0  0  0
   55.1311  156.3746   25.0598 H   0  0  0  0  0  0  0  0  0  0  0  0
   54.9852  154.0273   22.9093 H   0  0  0  0  0  0  0  0  0  0  0  0
   54.6374  151.5682   23.2316 H   0  0  0  0  0  0  0  0  0  0  0  0
   53.4968  150.7113   25.2773 H   0  0  0  0  0  0  0  0  0  0  0  0
   52.6899  152.3013   27.0353 H   0  0  0  0  0  0  0  0  0  0  0  0
  1  2  3  0
  2  3  1  0
  3  4  1  0
  4  5  1  0
  5  6  1  0
  6  7  1  0
  7  8  1  0
  8  9  2  0
  9 10  1  0
 10 11  2  0
 11 12  1  0
 12 13  2  0
 13  5  1  0
 13  8  1  0
  1 14  1  0
  3 15  1  0
  3 16  1  0
  4 17  1  0
  4 18  1  0
  5 19  1  1
  6 20  1  0
  6 21  1  0
  7 22  1  0
  7 23  1  0
  9 24  1  0
 10 25  1  0
 11 26  1  0
 12 27  1  0
M  CHG  1   4   1
M  END
>  <meeko>  (1) 
{"is_sidechain": [false], "free_energy": -7.96, "intermolecular_energy": -8.89, "internal_energy": -0.224}

$$$$
rasagiline_out
     RDKit          3D

 27 28  0  0  0  0  0  0  0  0999 V2000
   51.8870  158.7950   29.6710 C   0  0  0  0  0  0  0  0  0  0  0  0
   51.4790  157.6650   29.6460 C   0  0  0  0  0  0  0  0  0  0  0  0
   50.9800  156.2840   29.6180 C   0  0  0  0  0  0  0  0  0  0  0  0
   52.0460  155.3940   29.1780 N   0  0  0  0  0  0  0  0  0  0  0  0
   51.7000  154.6720   27.9590 C   0  0  2  0  0  0  0  0  0  0  0  0
   51.9220  153.1450   28.0430 C   0  0  0  0  0  0  0  0  0  0  0  0
   52.1910  152.6700   26.6070 C   0  0  0  0  0  0  0  0  0  0  0  0
   52.8730  153.8720   26.0330 C   0  0  0  0  0  0  0  0  0  0  0  0
   53.6430  153.9460   24.8840 C   0  0  0  0  0  0  0  0  0  0  0  0
   54.1570  155.1900   24.5110 C   0  0  0  0  0  0  0  0  0  0  0  0
   53.8890  156.3350   25.2780 C   0  0  0  0  0  0  0  0  0  0  0  0
   53.1000  156.2520   26.4270 C   0  0  0  0  0  0  0  0  0  0  0  0
   52.6040  155.0120   26.8020 C   0  0  0  0  0  0  0  0  0  0  0  0
   52.2605  159.8294   29.6939 H   0  0  0  0  0  0  0  0  0  0  0  0
   50.6507  155.9921   30.6261 H   0  0  0  0  0  0  0  0  0  0  0  0
   50.1313  156.2137   28.9217 H   0  0  0  0  0  0  0  0  0  0  0  0
   52.2330  154.7170   29.9170 H   0  0  0  0  0  0  0  0  0  0  0  0
   52.8670  155.9660   28.9780 H   0  0  0  0  0  0  0  0  0  0  0  0
   50.6464  154.9594   27.8274 H   0  0  0  0  0  0  0  0  0  0  0  0
   52.7852  152.9202   28.6867 H   0  0  0  0  0  0  0  0  0  0  0  0
   51.0477  152.6366   28.4756 H   0  0  0  0  0  0  0  0  0  0  0  0
   52.8463  151.7867   26.5896 H   0  0  0  0  0  0  0  0  0  0  0  0
   51.2922  152.3527   26.0580 H   0  0  0  0  0  0  0  0  0  0  0  0
   53.8445  153.0484   24.2809 H   0  0  0  0  0  0  0  0  0  0  0  0
   54.7782  155.2735   23.6070 H   0  0  0  0  0  0  0  0  0  0  0  0
   54.3043  157.3062   24.9710 H   0  0  0  0  0  0  0  0  0  0  0  0
   52.8767  157.1500   27.0217 H   0  0  0  0  0  0  0  0  0  0  0  0
  1  2  3  0
  2  3  1  0
  3  4  1  0
  4  5  1  0
  5  6  1  0
  6  7  1  0
  7  8  1  0
  8  9  2  0
  9 10  1  0
 10 11  2  0
 11 12  1  0
 12 13  2  0
 13  5  1  0
 13  8  1  0
  1 14  1  0
  3 15  1  0
  3 16  1  0
  4 17  1  0
  4 18  1  0
  5 19  1  6
  6 20  1  0
  6 21  1  0
  7 22  1  0
  7 23  1  0
  9 24  1  0
 10 25  1  0
 11 26  1  0
 12 27  1  0
M  CHG  1   4   1
M  END
>  <meeko>  (2) 
{"is_sidechain": [false], "free_energy": -7.822, "intermolecular_energy": -8.625, "internal_energy": -0.336}

$$$$
rasagiline_out
     RDKit          3D

 27 28  0  0  0  0  0  0  0  0999 V2000
   51.4500  155.7140   29.2180 C   0  0  0  0  0  0  0  0  0  0  0  0
   51.5520  154.5960   28.7890 C   0  0  0  0  0  0  0  0  0  0  0  0
   51.6770  153.2300   28.2660 C   0  0  0  0  0  0  0  0  0  0  0  0
   53.0240  153.0320   27.7490 N   0  0  0  0  0  0  0  0  0  0  0  0
   53.0570  152.9660   26.2930 C   0  0  2  0  0  0  0  0  0  0  0  0
   54.0130  151.8900   25.7280 C   0  0  0  0  0  0  0  0  0  0  0  0
   54.4500  152.3880   24.3430 C   0  0  0  0  0  0  0  0  0  0  0  0
   54.4290  153.8690   24.5530 C   0  0  0  0  0  0  0  0  0  0  0  0
   55.0340  154.8470   23.7800 C   0  0  0  0  0  0  0  0  0  0  0  0
   54.8510  156.1840   24.1430 C   0  0  0  0  0  0  0  0  0  0  0  0
   54.0640  156.5230   25.2550 C   0  0  0  0  0  0  0  0  0  0  0  0
   53.4480  155.5300   26.0190 C   0  0  0  0  0  0  0  0  0  0  0  0
   53.6450  154.2030   25.6650 C   0  0  0  0  0  0  0  0  0  0  0  0
   51.3566  156.7373   29.6107 H   0  0  0  0  0  0  0  0  0  0  0  0
   51.4840  152.5086   29.0737 H   0  0  0  0  0  0  0  0  0  0  0  0
   50.9468  153.0775   27.4576 H   0  0  0  0  0  0  0  0  0  0  0  0
   53.3940  152.1580   28.1240 H   0  0  0  0  0  0  0  0  0  0  0  0
   53.5890  153.8310   28.0370 H   0  0  0  0  0  0  0  0  0  0  0  0
   51.9976  152.7829   26.0603 H   0  0  0  0  0  0  0  0  0  0  0  0
   54.8877  151.7746   26.3849 H   0  0  0  0  0  0  0  0  0  0  0  0
   53.5186  150.9095   25.6632 H   0  0  0  0  0  0  0  0  0  0  0  0
   55.4578  152.0308   24.0847 H   0  0  0  0  0  0  0  0  0  0  0  0
   53.8165  152.0383   23.5145 H   0  0  0  0  0  0  0  0  0  0  0  0
   55.6422  154.5781   22.9038 H   0  0  0  0  0  0  0  0  0  0  0  0
   55.3285  156.9790   23.5514 H   0  0  0  0  0  0  0  0  0  0  0  0
   53.9315  157.5806   25.5268 H   0  0  0  0  0  0  0  0  0  0  0  0
   52.8202  155.7939   26.8828 H   0  0  0  0  0  0  0  0  0  0  0  0
  1  2  3  0
  2  3  1  0
  3  4  1  0
  4  5  1  0
  5  6  1  0
  6  7  1  0
  7  8  1  0
  8  9  2  0
  9 10  1  0
 10 11  2  0
 11 12  1  0
 12 13  2  0
 13  5  1  0
 13  8  1  0
  1 14  1  0
  3 15  1  0
  3 16  1  0
  4 17  1  0
  4 18  1  0
  5 19  1  6
  6 20  1  0
  6 21  1  0
  7 22  1  0
  7 23  1  0
  9 24  1  0
 10 25  1  0
 11 26  1  0
 12 27  1  0
M  CHG  1   4   1
M  END
>  <meeko>  (3) 
{"is_sidechain": [false], "free_energy": -7.7, "intermolecular_energy": -8.513, "internal_energy": -0.311}

$$$$
rasagiline_out
     RDKit          3D

 27 28  0  0  0  0  0  0  0  0999 V2000
   55.6310  151.9620   25.5620 C   0  0  0  0  0  0  0  0  0  0  0  0
   55.2780  152.9230   24.9340 C   0  0  0  0  0  0  0  0  0  0  0  0
   54.8460  154.0990   24.1680 C   0  0  0  0  0  0  0  0  0  0  0  0
   53.4000  154.0610   23.9980 N   0  0  0  0  0  0  0  0  0  0  0  0
   52.7090  154.9770   24.8980 C   0  0  2  0  0  0  0  0  0  0  0  0
   53.5360  156.2220   25.2920 C   0  0  0  0  0  0  0  0  0  0  0  0
   53.0210  156.6620   26.6710 C   0  0  0  0  0  0  0  0  0  0  0  0
   52.6300  155.3440   27.2620 C   0  0  0  0  0  0  0  0  0  0  0  0
   52.4030  155.0420   28.5940 C   0  0  0  0  0  0  0  0  0  0  0  0
   52.0060  153.7430   28.9200 C   0  0  0  0  0  0  0  0  0  0  0  0
   51.8320  152.7740   27.9190 C   0  0  0  0  0  0  0  0  0  0  0  0
   52.0500  153.0930   26.5770 C   0  0  0  0  0  0  0  0  0  0  0  0
   52.4590  154.3790   26.2590 C   0  0  0  0  0  0  0  0  0  0  0  0
   55.9543  151.0819   26.1372 H   0  0  0  0  0  0  0  0  0  0  0  0
   55.1279  155.0138   24.7099 H   0  0  0  0  0  0  0  0  0  0  0  0
   55.3323  154.0938   23.1813 H   0  0  0  0  0  0  0  0  0  0  0  0
   53.0740  153.1130   24.1820 H   0  0  0  0  0  0  0  0  0  0  0  0
   53.1910  154.3490   23.0410 H   0  0  0  0  0  0  0  0  0  0  0  0
   51.8045  155.2124   24.3180 H   0  0  0  0  0  0  0  0  0  0  0  0
   54.6047  155.9675   25.3478 H   0  0  0  0  0  0  0  0  0  0  0  0
   53.4275  157.0260   24.5491 H   0  0  0  0  0  0  0  0  0  0  0  0
   53.8108  157.1509   27.2603 H   0  0  0  0  0  0  0  0  0  0  0  0
   52.2089  157.4032   26.6371 H   0  0  0  0  0  0  0  0  0  0  0  0
   52.5320  155.8054   29.3754 H   0  0  0  0  0  0  0  0  0  0  0  0
   51.8278  153.4764   29.9722 H   0  0  0  0  0  0  0  0  0  0  0  0
   51.5214  151.7552   28.1941 H   0  0  0  0  0  0  0  0  0  0  0  0
   51.9004  152.3401   25.7891 H   0  0  0  0  0  0  0  0  0  0  0  0
  1  2  3  0
  2  3  1  0
  3  4  1  0
  4  5  1  0
  5  6  1  0
  6  7  1  0
  7  8  1  0
  8  9  2  0
  9 10  1  0
 10 11  2  0
 11 12  1  0
 12 13  2  0
 13  5  1  0
 13  8  1  0
  1 14  1  0
  3 15  1  0
  3 16  1  0
  4 17  1  0
  4 18  1  0
  5 19  1  6
  6 20  1  0
  6 21  1  0
  7 22  1  0
  7 23  1  0
  9 24  1  0
 10 25  1  0
 11 26  1  0
 12 27  1  0
M  CHG  1   4   1
M  END
>  <meeko>  (4) 
{"is_sidechain": [false], "free_energy": -7.516, "intermolecular_energy": -8.102, "internal_energy": -0.517}

$$$$
rasagiline_out
     RDKit          3D

 27 28  0  0  0  0  0  0  0  0999 V2000
   54.1400  152.0390   24.0780 C   0  0  0  0  0  0  0  0  0  0  0  0
   54.1990  153.2200   24.2890 C   0  0  0  0  0  0  0  0  0  0  0  0
   54.2720  154.6640   24.5480 C   0  0  0  0  0  0  0  0  0  0  0  0
   53.0860  155.0840   25.2800 N   0  0  0  0  0  0  0  0  0  0  0  0
   53.0720  154.5860   26.6500 C   0  0  2  0  0  0  0  0  0  0  0  0
   52.0380  153.4660   26.9070 C   0  0  0  0  0  0  0  0  0  0  0  0
   51.6680  153.5550   28.3950 C   0  0  0  0  0  0  0  0  0  0  0  0
   51.8100  155.0250   28.6360 C   0  0  0  0  0  0  0  0  0  0  0  0
   51.3040  155.7680   29.6890 C   0  0  0  0  0  0  0  0  0  0  0  0
   51.5930  157.1330   29.7350 C   0  0  0  0  0  0  0  0  0  0  0  0
   52.3870  157.7310   28.7440 C   0  0  0  0  0  0  0  0  0  0  0  0
   52.9040  156.9710   27.6930 C   0  0  0  0  0  0  0  0  0  0  0  0
   52.6020  155.6180   27.6430 C   0  0  0  0  0  0  0  0  0  0  0  0
   54.0860  150.9575   23.8848 H   0  0  0  0  0  0  0  0  0  0  0  0
   55.1692  154.8850   25.1449 H   0  0  0  0  0  0  0  0  0  0  0  0
   54.3257  155.2066   23.5926 H   0  0  0  0  0  0  0  0  0  0  0  0
   52.2600  154.7320   24.7960 H   0  0  0  0  0  0  0  0  0  0  0  0
   53.0890  156.1040   25.3200 H   0  0  0  0  0  0  0  0  0  0  0  0
   54.1158  154.2616   26.7733 H   0  0  0  0  0  0  0  0  0  0  0  0
   51.1457  153.6207   26.2826 H   0  0  0  0  0  0  0  0  0  0  0  0
   52.4486  152.4770   26.6553 H   0  0  0  0  0  0  0  0  0  0  0  0
   50.6383  153.2133   28.5765 H   0  0  0  0  0  0  0  0  0  0  0  0
   52.2837  152.9254   29.0542 H   0  0  0  0  0  0  0  0  0  0  0  0
   50.6899  155.2948   30.4694 H   0  0  0  0  0  0  0  0  0  0  0  0
   51.1943  157.7463   30.5565 H   0  0  0  0  0  0  0  0  0  0  0  0
   52.6039  158.8082   28.7958 H   0  0  0  0  0  0  0  0  0  0  0  0
   53.5367  157.4348   26.9219 H   0  0  0  0  0  0  0  0  0  0  0  0
  1  2  3  0
  2  3  1  0
  3  4  1  0
  4  5  1  0
  5  6  1  0
  6  7  1  0
  7  8  1  0
  8  9  2  0
  9 10  1  0
 10 11  2  0
 11 12  1  0
 12 13  2  0
 13  5  1  0
 13  8  1  0
  1 14  1  0
  3 15  1  0
  3 16  1  0
  4 17  1  0
  4 18  1  0
  5 19  1  1
  6 20  1  0
  6 21  1  0
  7 22  1  0
  7 23  1  0
  9 24  1  0
 10 25  1  0
 11 26  1  0
 12 27  1  0
M  CHG  1   4   1
M  END
>  <meeko>  (5) 
{"is_sidechain": [false], "free_energy": -7.507, "intermolecular_energy": -8.428, "internal_energy": -0.181}

$$$$
rasagiline_out
     RDKit          3D

 27 28  0  0  0  0  0  0  0  0999 V2000
   52.3710  155.0510   27.9250 C   0  0  0  0  0  0  0  0  0  0  0  0
   52.4400  156.1700   28.3570 C   0  0  0  0  0  0  0  0  0  0  0  0
   52.5260  157.5370   28.8880 C   0  0  0  0  0  0  0  0  0  0  0  0
   51.3700  157.8010   29.7330 N   0  0  0  0  0  0  0  0  0  0  0  0
   51.0390  159.2200   29.7950 C   0  0  2  0  0  0  0  0  0  0  0  0
   52.0970  160.0850   30.5170 C   0  0  0  0  0  0  0  0  0  0  0  0
   51.3440  161.2940   31.0930 C   0  0  0  0  0  0  0  0  0  0  0  0
   50.0080  160.6850   31.3820 C   0  0  0  0  0  0  0  0  0  0  0  0
   49.0080  161.1770   32.2040 C   0  0  0  0  0  0  0  0  0  0  0  0
   47.8150  160.4560   32.2990 C   0  0  0  0  0  0  0  0  0  0  0  0
   47.6340  159.2710   31.5690 C   0  0  0  0  0  0  0  0  0  0  0  0
   48.6430  158.7910   30.7330 C   0  0  0  0  0  0  0  0  0  0  0  0
   49.8320  159.5010   30.6530 C   0  0  0  0  0  0  0  0  0  0  0  0
   52.3078  154.0265   27.5295 H   0  0  0  0  0  0  0  0  0  0  0  0
   53.4462  157.6431   29.4813 H   0  0  0  0  0  0  0  0  0  0  0  0
   52.5435  158.2546   28.0545 H   0  0  0  0  0  0  0  0  0  0  0  0
   51.5720  157.4700   30.6760 H   0  0  0  0  0  0  0  0  0  0  0  0
   50.5700  157.3130   29.3290 H   0  0  0  0  0  0  0  0  0  0  0  0
   50.9202  159.4634   28.7289 H   0  0  0  0  0  0  0  0  0  0  0  0
   52.5711  159.5104   31.3264 H   0  0  0  0  0  0  0  0  0  0  0  0
   52.8937  160.4011   29.8275 H   0  0  0  0  0  0  0  0  0  0  0  0
   51.8235  161.6700   32.0088 H   0  0  0  0  0  0  0  0  0  0  0  0
   51.3099  162.1678   30.4256 H   0  0  0  0  0  0  0  0  0  0  0  0
   49.1492  162.1111   32.7675 H   0  0  0  0  0  0  0  0  0  0  0  0
   47.0091  160.8209   32.9528 H   0  0  0  0  0  0  0  0  0  0  0  0
   46.6885  158.7157   31.6566 H   0  0  0  0  0  0  0  0  0  0  0  0
   48.4986  157.8694   30.1500 H   0  0  0  0  0  0  0  0  0  0  0  0
  1  2  3  0
  2  3  1  0
  3  4  1  0
  4  5  1  0
  5  6  1  0
  6  7  1  0
  7  8  1  0
  8  9  2  0
  9 10  1  0
 10 11  2  0
 11 12  1  0
 12 13  2  0
 13  5  1  0
 13  8  1  0
  1 14  1  0
  3 15  1  0
  3 16  1  0
  4 17  1  0
  4 18  1  0
  5 19  1  6
  6 20  1  0
  6 21  1  0
  7 22  1  0
  7 23  1  0
  9 24  1  0
 10 25  1  0
 11 26  1  0
 12 27  1  0
M  CHG  1   4   1
M  END
>  <meeko>  (6) 
{"is_sidechain": [false], "free_energy": -7.494, "intermolecular_energy": -8.45, "internal_energy": -0.144}

$$$$
rasagiline_out
     RDKit          3D

 27 28  0  0  0  0  0  0  0  0999 V2000
   48.5060  161.5100   33.1700 C   0  0  0  0  0  0  0  0  0  0  0  0
   47.9960  160.6710   32.4780 C   0  0  0  0  0  0  0  0  0  0  0  0
   47.3740  159.6440   31.6330 C   0  0  0  0  0  0  0  0  0  0  0  0
   48.2150  159.4020   30.4690 N   0  0  0  0  0  0  0  0  0  0  0  0
   49.6310  159.3360   30.8090 C   0  0  2  0  0  0  0  0  0  0  0  0
   50.4690  160.5140   30.2620 C   0  0  0  0  0  0  0  0  0  0  0  0
   51.8990  159.9800   30.0870 C   0  0  0  0  0  0  0  0  0  0  0  0
   51.6280  158.5470   29.7520 C   0  0  0  0  0  0  0  0  0  0  0  0
   52.4880  157.6310   29.1700 C   0  0  0  0  0  0  0  0  0  0  0  0
   52.0340  156.3240   28.9810 C   0  0  0  0  0  0  0  0  0  0  0  0
   50.7430  155.9490   29.3830 C   0  0  0  0  0  0  0  0  0  0  0  0
   49.8880  156.8760   29.9820 C   0  0  0  0  0  0  0  0  0  0  0  0
   50.3370  158.1770   30.1540 C   0  0  0  0  0  0  0  0  0  0  0  0
   48.9730  162.2783   33.8037 H   0  0  0  0  0  0  0  0  0  0  0  0
   47.2653  158.7123   32.2075 H   0  0  0  0  0  0  0  0  0  0  0  0
   46.3823  159.9888   31.3049 H   0  0  0  0  0  0  0  0  0  0  0  0
   48.0740  160.1590   29.8000 H   0  0  0  0  0  0  0  0  0  0  0  0
   47.9480  158.5000   30.0740 H   0  0  0  0  0  0  0  0  0  0  0  0
   49.5888  159.2949   31.9074 H   0  0  0  0  0  0  0  0  0  0  0  0
   50.0671  160.8509   29.2951 H   0  0  0  0  0  0  0  0  0  0  0  0
   50.4442  161.3747   30.9466 H   0  0  0  0  0  0  0  0  0  0  0  0
   52.4251  160.4938   29.2690 H   0  0  0  0  0  0  0  0  0  0  0  0
   52.5487  160.1266   30.9624 H   0  0  0  0  0  0  0  0  0  0  0  0
   53.5029  157.9253   28.8644 H   0  0  0  0  0  0  0  0  0  0  0  0
   52.6954  155.5806   28.5120 H   0  0  0  0  0  0  0  0  0  0  0  0
   50.4015  154.9154   29.2248 H   0  0  0  0  0  0  0  0  0  0  0  0
   48.8804  156.5811   30.3103 H   0  0  0  0  0  0  0  0  0  0  0  0
  1  2  3  0
  2  3  1  0
  3  4  1  0
  4  5  1  0
  5  6  1  0
  6  7  1  0
  7  8  1  0
  8  9  2  0
  9 10  1  0
 10 11  2  0
 11 12  1  0
 12 13  2  0
 13  5  1  0
 13  8  1  0
  1 14  1  0
  3 15  1  0
  3 16  1  0
  4 17  1  0
  4 18  1  0
  5 19  1  1
  6 20  1  0
  6 21  1  0
  7 22  1  0
  7 23  1  0
  9 24  1  0
 10 25  1  0
 11 26  1  0
 12 27  1  0
M  CHG  1   4   1
M  END
>  <meeko>  (7) 
{"is_sidechain": [false], "free_energy": -7.455, "intermolecular_energy": -8.524, "internal_energy": -0.026}

$$$$
rasagiline_out
     RDKit          3D

 27 28  0  0  0  0  0  0  0  0999 V2000
   54.1580  152.7550   23.3180 C   0  0  0  0  0  0  0  0  0  0  0  0
   53.9210  152.3580   24.4260 C   0  0  0  0  0  0  0  0  0  0  0  0
   53.6300  151.8720   25.7810 C   0  0  0  0  0  0  0  0  0  0  0  0
   53.8380  152.9520   26.7360 N   0  0  0  0  0  0  0  0  0  0  0  0
   53.0850  154.1520   26.3920 C   0  0  2  0  0  0  0  0  0  0  0  0
   53.9340  155.2680   25.7420 C   0  0  0  0  0  0  0  0  0  0  0  0
   53.2350  156.5930   26.0810 C   0  0  0  0  0  0  0  0  0  0  0  0
   52.6450  156.2690   27.4180 C   0  0  0  0  0  0  0  0  0  0  0  0
   52.1760  157.1510   28.3770 C   0  0  0  0  0  0  0  0  0  0  0  0
   51.6260  156.6230   29.5480 C   0  0  0  0  0  0  0  0  0  0  0  0
   51.5410  155.2350   29.7370 C   0  0  0  0  0  0  0  0  0  0  0  0
   52.0040  154.3540   28.7570 C   0  0  0  0  0  0  0  0  0  0  0  0
   52.5640  154.8820   27.6030 C   0  0  0  0  0  0  0  0  0  0  0  0
   54.3751  153.1187   22.3028 H   0  0  0  0  0  0  0  0  0  0  0  0
   52.5851  151.5322   25.8328 H   0  0  0  0  0  0  0  0  0  0  0  0
   54.2992  151.0331   26.0227 H   0  0  0  0  0  0  0  0  0  0  0  0
   54.8310  153.1840   26.7570 H   0  0  0  0  0  0  0  0  0  0  0  0
   53.5100  152.6290   27.6470 H   0  0  0  0  0  0  0  0  0  0  0  0
   52.3115  153.7402   25.7271 H   0  0  0  0  0  0  0  0  0  0  0  0
   54.9541  155.2592   26.1534 H   0  0  0  0  0  0  0  0  0  0  0  0
   54.0165  155.1259   24.6543 H   0  0  0  0  0  0  0  0  0  0  0  0
   53.9531  157.4236   26.1466 H   0  0  0  0  0  0  0  0  0  0  0  0
   52.5030  156.9253   25.3302 H   0  0  0  0  0  0  0  0  0  0  0  0
   52.2348  158.2383   28.2211 H   0  0  0  0  0  0  0  0  0  0  0  0
   51.2558  157.3024   30.3299 H   0  0  0  0  0  0  0  0  0  0  0  0
   51.1057  154.8372   30.6656 H   0  0  0  0  0  0  0  0  0  0  0  0
   51.9263  153.2657   28.8972 H   0  0  0  0  0  0  0  0  0  0  0  0
  1  2  3  0
  2  3  1  0
  3  4  1  0
  4  5  1  0
  5  6  1  0
  6  7  1  0
  7  8  1  0
  8  9  2  0
  9 10  1  0
 10 11  2  0
 11 12  1  0
 12 13  2  0
 13  5  1  0
 13  8  1  0
  1 14  1  0
  3 15  1  0
  3 16  1  0
  4 17  1  0
  4 18  1  0
  5 19  1  6
  6 20  1  0
  6 21  1  0
  7 22  1  0
  7 23  1  0
  9 24  1  0
 10 25  1  0
 11 26  1  0
 12 27  1  0
M  CHG  1   4   1
M  END
>  <meeko>  (8) 
{"is_sidechain": [false], "free_energy": -7.28, "intermolecular_energy": -8.461, "internal_energy": 0.106}

$$$$
rasagiline_out
     RDKit          3D

 27 28  0  0  0  0  0  0  0  0999 V2000
   54.5070  156.5320   24.7130 C   0  0  0  0  0  0  0  0  0  0  0  0
   53.7480  156.2690   25.6060 C   0  0  0  0  0  0  0  0  0  0  0  0
   52.8190  155.9500   26.6980 C   0  0  0  0  0  0  0  0  0  0  0  0
   53.0340  156.8740   27.8030 N   0  0  0  0  0  0  0  0  0  0  0  0
   52.2440  156.5300   28.9790 C   0  0  2  0  0  0  0  0  0  0  0  0
   51.0820  155.5500   28.6960 C   0  0  0  0  0  0  0  0  0  0  0  0
   50.0120  155.8340   29.7600 C   0  0  0  0  0  0  0  0  0  0  0  0
   50.2120  157.3010   29.9800 C   0  0  0  0  0  0  0  0  0  0  0  0
   49.3420  158.1980   30.5770 C   0  0  0  0  0  0  0  0  0  0  0  0
   49.7530  159.5270   30.7130 C   0  0  0  0  0  0  0  0  0  0  0  0
   51.0190  159.9350   30.2650 C   0  0  0  0  0  0  0  0  0  0  0  0
   51.8940  159.0190   29.6770 C   0  0  0  0  0  0  0  0  0  0  0  0
   51.4770  157.7040   29.5300 C   0  0  0  0  0  0  0  0  0  0  0  0
   55.2021  156.7729   23.8952 H   0  0  0  0  0  0  0  0  0  0  0  0
   51.7838  156.0434   26.3379 H   0  0  0  0  0  0  0  0  0  0  0  0
   52.9960  154.9200   27.0412 H   0  0  0  0  0  0  0  0  0  0  0  0
   52.7770  157.8130   27.4990 H   0  0  0  0  0  0  0  0  0  0  0  0
   54.0190  156.8230   28.0640 H   0  0  0  0  0  0  0  0  0  0  0  0
   53.0150  156.1209   29.6484 H   0  0  0  0  0  0  0  0  0  0  0  0
   50.6739  155.7233   27.6893 H   0  0  0  0  0  0  0  0  0  0  0  0
   51.4208  154.5043   28.7380 H   0  0  0  0  0  0  0  0  0  0  0  0
   49.0012  155.6157   29.3850 H   0  0  0  0  0  0  0  0  0  0  0  0
   50.1027  155.2221   30.6696 H   0  0  0  0  0  0  0  0  0  0  0  0
   48.3538  157.8732   30.9347 H   0  0  0  0  0  0  0  0  0  0  0  0
   49.0771  160.2609   31.1761 H   0  0  0  0  0  0  0  0  0  0  0  0
   51.3247  160.9856   30.3780 H   0  0  0  0  0  0  0  0  0  0  0  0
   52.8921  159.3333   29.3378 H   0  0  0  0  0  0  0  0  0  0  0  0
  1  2  3  0
  2  3  1  0
  3  4  1  0
  4  5  1  0
  5  6  1  0
  6  7  1  0
  7  8  1  0
  8  9  2  0
  9 10  1  0
 10 11  2  0
 11 12  1  0
 12 13  2  0
 13  5  1  0
 13  8  1  0
  1 14  1  0
  3 15  1  0
  3 16  1  0
  4 17  1  0
  4 18  1  0
  5 19  1  1
  6 20  1  0
  6 21  1  0
  7 22  1  0
  7 23  1  0
  9 24  1  0
 10 25  1  0
 11 26  1  0
 12 27  1  0
M  CHG  1   4   1
M  END
>  <meeko>  (9) 
{"is_sidechain": [false], "free_energy": -7.222, "intermolecular_energy": -8.096, "internal_energy": -0.195}

$$$$
