SAG_pdb_out
     RDKit          3D

 39 40  0  0  0  0  0  0  0  0999 V2000
   54.1810  153.5980   23.3320 C   0  0  0  0  0  0  0  0  0  0  0  0
   53.8040  152.9280   24.6460 C   0  0  2  0  0  0  0  0  0  0  0  0
   53.7440  153.9780   25.6950 N   0  0  0  0  0  0  0  0  0  0  0  0
   52.5700  154.1140   26.2170 C   0  0  0  0  0  0  0  0  0  0  0  0
   52.3000  155.1080   27.2730 C   0  0  0  0  0  0  0  0  0  0  0  0
   51.4660  154.8020   28.3520 C   0  0  0  0  0  0  0  0  0  0  0  0
   51.2210  155.7600   29.3440 C   0  0  0  0  0  0  0  0  0  0  0  0
   51.8110  157.0230   29.2570 C   0  0  0  0  0  0  0  0  0  0  0  0
   51.6580  158.0450   30.1510 O   0  0  0  0  0  0  0  0  0  0  0  0
   51.2150  159.3000   29.6380 C   0  0  0  0  0  0  0  0  0  0  0  0
   49.9900  159.7100   30.4140 C   0  0  0  0  0  0  0  0  0  0  0  0
   49.0330  158.7560   30.7950 C   0  0  0  0  0  0  0  0  0  0  0  0
   47.9040  159.1310   31.5300 C   0  0  0  0  0  0  0  0  0  0  0  0
   47.7270  160.4640   31.8980 C   0  0  0  0  0  0  0  0  0  0  0  0
   48.6800  161.4070   31.5350 C   0  0  0  0  0  0  0  0  0  0  0  0
   48.5140  162.6860   31.8970 F   0  0  0  0  0  0  0  0  0  0  0  0
   49.8070  161.0450   30.8030 C   0  0  0  0  0  0  0  0  0  0  0  0
   52.6430  157.3200   28.1740 C   0  0  0  0  0  0  0  0  0  0  0  0
   52.8920  156.3690   27.1810 C   0  0  0  0  0  0  0  0  0  0  0  0
   54.8700  151.8970   25.0380 C   0  0  0  0  0  0  0  0  0  0  0  0
   56.0020  152.4230   25.5950 N   0  0  0  0  0  0  0  0  0  0  0  0
   54.7500  150.6910   24.8520 O   0  0  0  0  0  0  0  0  0  0  0  0
   54.7108  154.5395   23.5393 H   0  0  0  0  0  0  0  0  0  0  0  0
   54.8351  152.9289   22.7537 H   0  0  0  0  0  0  0  0  0  0  0  0
   53.2696  153.8097   22.7537 H   0  0  0  0  0  0  0  0  0  0  0  0
   52.8351  152.4180   24.5401 H   0  0  0  0  0  0  0  0  0  0  0  0
   51.7498  153.4713   25.8645 H   0  0  0  0  0  0  0  0  0  0  0  0
   51.0014  153.8074   28.4222 H   0  0  0  0  0  0  0  0  0  0  0  0
   50.5636  155.5176   30.1920 H   0  0  0  0  0  0  0  0  0  0  0  0
   52.0058  160.0546   29.7615 H   0  0  0  0  0  0  0  0  0  0  0  0
   50.9799  159.2151   28.5668 H   0  0  0  0  0  0  0  0  0  0  0  0
   49.1728  157.7022   30.5123 H   0  0  0  0  0  0  0  0  0  0  0  0
   47.1573  158.3760   31.8171 H   0  0  0  0  0  0  0  0  0  0  0  0
   46.8388  160.7669   32.4719 H   0  0  0  0  0  0  0  0  0  0  0  0
   50.5536  161.8053   30.5298 H   0  0  0  0  0  0  0  0  0  0  0  0
   53.1075  158.3146   28.1025 H   0  0  0  0  0  0  0  0  0  0  0  0
   53.5495  156.6121   26.3333 H   0  0  0  0  0  0  0  0  0  0  0  0
   56.0750  153.3950   25.7360 H   0  0  0  0  0  0  0  0  0  0  0  0
   56.7430  151.8300   25.8580 H   0  0  0  0  0  0  0  0  0  0  0  0
  1  2  1  0
  2  3  1  0
  3  4  2  0
  4  5  1  0
  5  6  2  0
  6  7  1  0
  7  8  2  0
  8  9  1  0
  9 10  1  0
 10 11  1  0
 11 12  2  0
 12 13  1  0
 13 14  2  0
 14 15  1  0
 15 16  1  0
 15 17  2  0
  8 18  1  0
 18 19  2  0
  2 20  1  0
 20 21  1  0
 20 22  2  0
 19  5  1  0
 17 11  1  0
  1 23  1  0
  1 24  1  0
  1 25  1  0
  2 26  1  6
  4 27  1  0
  6 28  1  0
  7 29  1  0
 10 30  1  0
 10 31  1  0
 12 32  1  0
 13 33  1  0
 14 34  1  0
 17 35  1  0
 18 36  1  0
 19 37  1  0
 21 38  1  0
 21 39  1  0
M  END
>  <meeko>  (1) 
{"is_sidechain": [false], "free_energy": -10.141, "intermolecular_energy": -13.698, "internal_energy": -0.619}

$$$$
SAG_pdb_out
     RDKit          3D

 39 40  0  0  0  0  0  0  0  0999 V2000
   47.4270  160.0080   31.7050 C   0  0  0  0  0  0  0  0  0  0  0  0
   48.5640  160.9840   31.4340 C   0  0  2  0  0  0  0  0  0  0  0  0
   49.6240  160.2570   30.6880 N   0  0  0  0  0  0  0  0  0  0  0  0
   49.4930  158.9730   30.7320 C   0  0  0  0  0  0  0  0  0  0  0  0
   50.4480  158.0720   30.0590 C   0  0  0  0  0  0  0  0  0  0  0  0
   51.6690  158.5500   29.5770 C   0  0  0  0  0  0  0  0  0  0  0  0
   52.5620  157.6790   28.9400 C   0  0  0  0  0  0  0  0  0  0  0  0
   52.2350  156.3300   28.7870 C   0  0  0  0  0  0  0  0  0  0  0  0
   53.0090  155.3760   28.1900 O   0  0  0  0  0  0  0  0  0  0  0  0
   52.3370  154.3450   27.4720 C   0  0  0  0  0  0  0  0  0  0  0  0
   53.0890  154.1090   26.1870 C   0  0  0  0  0  0  0  0  0  0  0  0
   53.7840  155.1580   25.5640 C   0  0  0  0  0  0  0  0  0  0  0  0
   54.4970  154.9390   24.3820 C   0  0  0  0  0  0  0  0  0  0  0  0
   54.5270  153.6660   23.8150 C   0  0  0  0  0  0  0  0  0  0  0  0
   53.8510  152.6230   24.4380 C   0  0  0  0  0  0  0  0  0  0  0  0
   53.8880  151.3980   23.8970 F   0  0  0  0  0  0  0  0  0  0  0  0
   53.1380  152.8300   25.6150 C   0  0  0  0  0  0  0  0  0  0  0  0
   51.0100  155.8610   29.2730 C   0  0  0  0  0  0  0  0  0  0  0  0
   50.1150  156.7250   29.9090 C   0  0  0  0  0  0  0  0  0  0  0  0
   49.1500  161.4940   32.7560 C   0  0  0  0  0  0  0  0  0  0  0  0
   50.4560  161.8940   32.6900 N   0  0  0  0  0  0  0  0  0  0  0  0
   48.5240  161.5240   33.8100 O   0  0  0  0  0  0  0  0  0  0  0  0
   47.2933  159.8932   32.7908 H   0  0  0  0  0  0  0  0  0  0  0  0
   46.4982  160.3944   31.2600 H   0  0  0  0  0  0  0  0  0  0  0  0
   47.6682  159.0314   31.2600 H   0  0  0  0  0  0  0  0  0  0  0  0
   48.1891  161.8412   30.8555 H   0  0  0  0  0  0  0  0  0  0  0  0
   48.6471  158.5397   31.2858 H   0  0  0  0  0  0  0  0  0  0  0  0
   51.9295  159.6119   29.6979 H   0  0  0  0  0  0  0  0  0  0  0  0
   53.5221  158.0580   28.5598 H   0  0  0  0  0  0  0  0  0  0  0  0
   52.3210  153.4222   28.0705 H   0  0  0  0  0  0  0  0  0  0  0  0
   51.2989  154.6402   27.2596 H   0  0  0  0  0  0  0  0  0  0  0  0
   53.7671  156.1629   26.0110 H   0  0  0  0  0  0  0  0  0  0  0  0
   55.0335  155.7697   23.9001 H   0  0  0  0  0  0  0  0  0  0  0  0
   55.0813  153.4880   22.8817 H   0  0  0  0  0  0  0  0  0  0  0  0
   52.6135  151.9912   26.0959 H   0  0  0  0  0  0  0  0  0  0  0  0
   50.7483  154.7993   29.1530 H   0  0  0  0  0  0  0  0  0  0  0  0
   49.1547  156.3463   30.2888 H   0  0  0  0  0  0  0  0  0  0  0  0
   50.9380  161.8610   31.8320 H   0  0  0  0  0  0  0  0  0  0  0  0
   50.9130  162.2170   33.5000 H   0  0  0  0  0  0  0  0  0  0  0  0
  1  2  1  0
  2  3  1  0
  3  4  2  0
  4  5  1  0
  5  6  2  0
  6  7  1  0
  7  8  2  0
  8  9  1  0
  9 10  1  0
 10 11  1  0
 11 12  2  0
 12 13  1  0
 13 14  2  0
 14 15  1  0
 15 16  1  0
 15 17  2  0
  8 18  1  0
 18 19  2  0
  2 20  1  0
 20 21  1  0
 20 22  2  0
 19  5  1  0
 17 11  1  0
  1 23  1  0
  1 24  1  0
  1 25  1  0
  2 26  1  6
  4 27  1  0
  6 28  1  0
  7 29  1  0
 10 30  1  0
 10 31  1  0
 12 32  1  0
 13 33  1  0
 14 34  1  0
 17 35  1  0
 18 36  1  0
 19 37  1  0
 21 38  1  0
 21 39  1  0
M  END
>  <meeko>  (2) 
{"is_sidechain": [false], "free_energy": -10.024, "intermolecular_energy": -13.476, "internal_energy": -0.683}

$$$$
SAG_pdb_out
     RDKit          3D

 39 40  0  0  0  0  0  0  0  0999 V2000
   54.1870  153.6560   23.3180 C   0  0  0  0  0  0  0  0  0  0  0  0
   53.7930  153.0170   24.6420 C   0  0  2  0  0  0  0  0  0  0  0  0
   53.7120  154.0920   25.6650 N   0  0  0  0  0  0  0  0  0  0  0  0
   52.5720  154.1380   26.2700 C   0  0  0  0  0  0  0  0  0  0  0  0
   52.2890  155.1400   27.3160 C   0  0  0  0  0  0  0  0  0  0  0  0
   51.4340  154.8430   28.3810 C   0  0  0  0  0  0  0  0  0  0  0  0
   51.1770  155.8070   29.3650 C   0  0  0  0  0  0  0  0  0  0  0  0
   51.7740  157.0660   29.2830 C   0  0  0  0  0  0  0  0  0  0  0  0
   51.6110  158.0940   30.1690 O   0  0  0  0  0  0  0  0  0  0  0  0
   51.0130  159.2910   29.6770 C   0  0  0  0  0  0  0  0  0  0  0  0
   50.1000  159.8260   30.7500 C   0  0  0  0  0  0  0  0  0  0  0  0
   50.5910  160.6940   31.7380 C   0  0  0  0  0  0  0  0  0  0  0  0
   49.7420  161.2070   32.7240 C   0  0  0  0  0  0  0  0  0  0  0  0
   48.3920  160.8610   32.7250 C   0  0  0  0  0  0  0  0  0  0  0  0
   47.9010  160.0130   31.7400 C   0  0  0  0  0  0  0  0  0  0  0  0
   46.6010  159.6890   31.7370 F   0  0  0  0  0  0  0  0  0  0  0  0
   48.7370  159.4970   30.7540 C   0  0  0  0  0  0  0  0  0  0  0  0
   52.6280  157.3540   28.2130 C   0  0  0  0  0  0  0  0  0  0  0  0
   52.8890  156.3970   27.2290 C   0  0  0  0  0  0  0  0  0  0  0  0
   54.8570  152.0010   25.0760 C   0  0  0  0  0  0  0  0  0  0  0  0
   56.0070  152.5490   25.5730 N   0  0  0  0  0  0  0  0  0  0  0  0
   54.7210  150.7870   24.9690 O   0  0  0  0  0  0  0  0  0  0  0  0
   54.7554  154.5779   23.5106 H   0  0  0  0  0  0  0  0  0  0  0  0
   54.8097  152.9546   22.7433 H   0  0  0  0  0  0  0  0  0  0  0  0
   53.2807  153.8974   22.7433 H   0  0  0  0  0  0  0  0  0  0  0  0
   52.8280  152.5004   24.5330 H   0  0  0  0  0  0  0  0  0  0  0  0
   51.7918  153.4116   25.9987 H   0  0  0  0  0  0  0  0  0  0  0  0
   50.9623  153.8514   28.4468 H   0  0  0  0  0  0  0  0  0  0  0  0
   50.5042  155.5713   30.2027 H   0  0  0  0  0  0  0  0  0  0  0  0
   51.7932  160.0314   29.4464 H   0  0  0  0  0  0  0  0  0  0  0  0
   50.4455  159.0864   28.7572 H   0  0  0  0  0  0  0  0  0  0  0  0
   51.6549  160.9737   31.7367 H   0  0  0  0  0  0  0  0  0  0  0  0
   50.1388  161.8819   33.4967 H   0  0  0  0  0  0  0  0  0  0  0  0
   47.7196  161.2566   33.5005 H   0  0  0  0  0  0  0  0  0  0  0  0
   48.3289  158.8318   29.9788 H   0  0  0  0  0  0  0  0  0  0  0  0
   53.0995  158.3455   28.1456 H   0  0  0  0  0  0  0  0  0  0  0  0
   53.5625  156.6326   26.3918 H   0  0  0  0  0  0  0  0  0  0  0  0
   56.0930  153.5270   25.6500 H   0  0  0  0  0  0  0  0  0  0  0  0
   56.7480  151.9650   25.8570 H   0  0  0  0  0  0  0  0  0  0  0  0
  1  2  1  0
  2  3  1  0
  3  4  2  0
  4  5  1  0
  5  6  2  0
  6  7  1  0
  7  8  2  0
  8  9  1  0
  9 10  1  0
 10 11  1  0
 11 12  2  0
 12 13  1  0
 13 14  2  0
 14 15  1  0
 15 16  1  0
 15 17  2  0
  8 18  1  0
 18 19  2  0
  2 20  1  0
 20 21  1  0
 20 22  2  0
 19  5  1  0
 17 11  1  0
  1 23  1  0
  1 24  1  0
  1 25  1  0
  2 26  1  6
  4 27  1  0
  6 28  1  0
  7 29  1  0
 10 30  1  0
 10 31  1  0
 12 32  1  0
 13 33  1  0
 14 34  1  0
 17 35  1  0
 18 36  1  0
 19 37  1  0
 21 38  1  0
 21 39  1  0
M  END
>  <meeko>  (3) 
{"is_sidechain": [false], "free_energy": -9.983, "intermolecular_energy": -13.541, "internal_energy": -0.562}

$$$$
SAG_pdb_out
     RDKit          3D

 39 40  0  0  0  0  0  0  0  0999 V2000
   47.4190  160.0700   31.6500 C   0  0  0  0  0  0  0  0  0  0  0  0
   48.5870  161.0110   31.3920 C   0  0  2  0  0  0  0  0  0  0  0  0
   49.6350  160.2520   30.6620 N   0  0  0  0  0  0  0  0  0  0  0  0
   49.4740  158.9720   30.7190 C   0  0  0  0  0  0  0  0  0  0  0  0
   50.4130  158.0410   30.0630 C   0  0  0  0  0  0  0  0  0  0  0  0
   51.6440  158.4880   29.5760 C   0  0  0  0  0  0  0  0  0  0  0  0
   52.5220  157.5890   28.9550 C   0  0  0  0  0  0  0  0  0  0  0  0
   52.1680  156.2450   28.8240 C   0  0  0  0  0  0  0  0  0  0  0  0
   52.9260  155.2660   28.2440 O   0  0  0  0  0  0  0  0  0  0  0  0
   52.2860  154.4270   27.2860 C   0  0  0  0  0  0  0  0  0  0  0  0
   53.1940  154.3160   26.0880 C   0  0  0  0  0  0  0  0  0  0  0  0
   53.3680  153.0840   25.4360 C   0  0  0  0  0  0  0  0  0  0  0  0
   54.1950  152.9820   24.3140 C   0  0  0  0  0  0  0  0  0  0  0  0
   54.8510  154.1130   23.8290 C   0  0  0  0  0  0  0  0  0  0  0  0
   54.6680  155.3350   24.4640 C   0  0  0  0  0  0  0  0  0  0  0  0
   55.2910  156.4230   23.9920 F   0  0  0  0  0  0  0  0  0  0  0  0
   53.8470  155.4490   25.5820 C   0  0  0  0  0  0  0  0  0  0  0  0
   50.9350  155.8070   29.3150 C   0  0  0  0  0  0  0  0  0  0  0  0
   50.0540  156.6980   29.9350 C   0  0  0  0  0  0  0  0  0  0  0  0
   49.1710  161.5070   32.7210 C   0  0  0  0  0  0  0  0  0  0  0  0
   50.4820  161.8910   32.6670 N   0  0  0  0  0  0  0  0  0  0  0  0
   48.5380  161.5390   33.7710 O   0  0  0  0  0  0  0  0  0  0  0  0
   47.2745  159.9536   32.7342 H   0  0  0  0  0  0  0  0  0  0  0  0
   46.5057  160.4876   31.2011 H   0  0  0  0  0  0  0  0  0  0  0  0
   47.6326  159.0887   31.2011 H   0  0  0  0  0  0  0  0  0  0  0  0
   48.2445  161.8771   30.8068 H   0  0  0  0  0  0  0  0  0  0  0  0
   48.6142  158.5646   31.2711 H   0  0  0  0  0  0  0  0  0  0  0  0
   51.9244  159.5466   29.6801 H   0  0  0  0  0  0  0  0  0  0  0  0
   53.4902  157.9426   28.5708 H   0  0  0  0  0  0  0  0  0  0  0  0
   52.1136  153.4302   27.7180 H   0  0  0  0  0  0  0  0  0  0  0  0
   51.3146  154.8517   26.9927 H   0  0  0  0  0  0  0  0  0  0  0  0
   52.8481  152.1906   25.8123 H   0  0  0  0  0  0  0  0  0  0  0  0
   54.3282  152.0112   23.8143 H   0  0  0  0  0  0  0  0  0  0  0  0
   55.5084  154.0381   22.9502 H   0  0  0  0  0  0  0  0  0  0  0  0
   53.7106  156.4264   26.0679 H   0  0  0  0  0  0  0  0  0  0  0  0
   50.6543  154.7484   29.2124 H   0  0  0  0  0  0  0  0  0  0  0  0
   49.0859  156.3438   30.3188 H   0  0  0  0  0  0  0  0  0  0  0  0
   50.9690  161.8570   31.8120 H   0  0  0  0  0  0  0  0  0  0  0  0
   50.9370  162.2040   33.4810 H   0  0  0  0  0  0  0  0  0  0  0  0
  1  2  1  0
  2  3  1  0
  3  4  2  0
  4  5  1  0
  5  6  2  0
  6  7  1  0
  7  8  2  0
  8  9  1  0
  9 10  1  0
 10 11  1  0
 11 12  2  0
 12 13  1  0
 13 14  2  0
 14 15  1  0
 15 16  1  0
 15 17  2  0
  8 18  1  0
 18 19  2  0
  2 20  1  0
 20 21  1  0
 20 22  2  0
 19  5  1  0
 17 11  1  0
  1 23  1  0
  1 24  1  0
  1 25  1  0
  2 26  1  6
  4 27  1  0
  6 28  1  0
  7 29  1  0
 10 30  1  0
 10 31  1  0
 12 32  1  0
 13 33  1  0
 14 34  1  0
 17 35  1  0
 18 36  1  0
 19 37  1  0
 21 38  1  0
 21 39  1  0
M  END
>  <meeko>  (4) 
{"is_sidechain": [false], "free_energy": -9.953, "intermolecular_energy": -13.361, "internal_energy": -0.703}

$$$$
SAG_pdb_out
     RDKit          3D

 39 40  0  0  0  0  0  0  0  0999 V2000
   54.9210  151.8760   24.9370 C   0  0  0  0  0  0  0  0  0  0  0  0
   53.4360  151.7270   25.2360 C   0  0  2  0  0  0  0  0  0  0  0  0
   53.1120  152.5970   26.3950 N   0  0  0  0  0  0  0  0  0  0  0  0
   52.8270  153.8110   26.0610 C   0  0  0  0  0  0  0  0  0  0  0  0
   52.4830  154.8340   27.0690 C   0  0  0  0  0  0  0  0  0  0  0  0
   52.9900  156.1320   26.9750 C   0  0  0  0  0  0  0  0  0  0  0  0
   52.6530  157.0890   27.9410 C   0  0  0  0  0  0  0  0  0  0  0  0
   51.8090  156.7470   28.9990 C   0  0  0  0  0  0  0  0  0  0  0  0
   51.4010  157.5770   30.0050 O   0  0  0  0  0  0  0  0  0  0  0  0
   51.3040  158.9680   29.7040 C   0  0  0  0  0  0  0  0  0  0  0  0
   50.1100  159.5190   30.4410 C   0  0  0  0  0  0  0  0  0  0  0  0
   49.0560  158.6740   30.8240 C   0  0  0  0  0  0  0  0  0  0  0  0
   47.9550  159.1790   31.5230 C   0  0  0  0  0  0  0  0  0  0  0  0
   47.9030  160.5330   31.8510 C   0  0  0  0  0  0  0  0  0  0  0  0
   48.9520  161.3670   31.4860 C   0  0  0  0  0  0  0  0  0  0  0  0
   48.9050  162.6660   31.8100 F   0  0  0  0  0  0  0  0  0  0  0  0
   50.0530  160.8750   30.7900 C   0  0  0  0  0  0  0  0  0  0  0  0
   51.3060  155.4450   29.0840 C   0  0  0  0  0  0  0  0  0  0  0  0
   51.6390  154.4860   28.1240 C   0  0  0  0  0  0  0  0  0  0  0  0
   53.1140  150.2730   25.6030 C   0  0  0  0  0  0  0  0  0  0  0  0
   52.1240  150.1200   26.5330 N   0  0  0  0  0  0  0  0  0  0  0  0
   53.7040  149.3060   25.1310 O   0  0  0  0  0  0  0  0  0  0  0  0
   55.4814  151.9322   25.8819 H   0  0  0  0  0  0  0  0  0  0  0  0
   55.2670  151.0081   24.3565 H   0  0  0  0  0  0  0  0  0  0  0  0
   55.0877  152.7954   24.3565 H   0  0  0  0  0  0  0  0  0  0  0  0
   52.8476  152.0110   24.3511 H   0  0  0  0  0  0  0  0  0  0  0  0
   52.8408  154.0909   24.9973 H   0  0  0  0  0  0  0  0  0  0  0  0
   53.6547  156.4032   26.1415 H   0  0  0  0  0  0  0  0  0  0  0  0
   53.0537  158.1106   27.8658 H   0  0  0  0  0  0  0  0  0  0  0  0
   52.2173  159.4860   30.0319 H   0  0  0  0  0  0  0  0  0  0  0  0
   51.1886  159.1186   28.6205 H   0  0  0  0  0  0  0  0  0  0  0  0
   49.0967  157.6041   30.5717 H   0  0  0  0  0  0  0  0  0  0  0  0
   47.1320  158.5094   31.8133 H   0  0  0  0  0  0  0  0  0  0  0  0
   47.0371  160.9381   32.3952 H   0  0  0  0  0  0  0  0  0  0  0  0
   50.8769  161.5497   30.5145 H   0  0  0  0  0  0  0  0  0  0  0  0
   50.6404  155.1727   29.9164 H   0  0  0  0  0  0  0  0  0  0  0  0
   51.2387  153.4642   28.1995 H   0  0  0  0  0  0  0  0  0  0  0  0
   51.6640  150.9110   26.8970 H   0  0  0  0  0  0  0  0  0  0  0  0
   51.8690  149.2190   26.8380 H   0  0  0  0  0  0  0  0  0  0  0  0
  1  2  1  0
  2  3  1  0
  3  4  2  0
  4  5  1  0
  5  6  2  0
  6  7  1  0
  7  8  2  0
  8  9  1  0
  9 10  1  0
 10 11  1  0
 11 12  2  0
 12 13  1  0
 13 14  2  0
 14 15  1  0
 15 16  1  0
 15 17  2  0
  8 18  1  0
 18 19  2  0
  2 20  1  0
 20 21  1  0
 20 22  2  0
 19  5  1  0
 17 11  1  0
  1 23  1  0
  1 24  1  0
  1 25  1  0
  2 26  1  6
  4 27  1  0
  6 28  1  0
  7 29  1  0
 10 30  1  0
 10 31  1  0
 12 32  1  0
 13 33  1  0
 14 34  1  0
 17 35  1  0
 18 36  1  0
 19 37  1  0
 21 38  1  0
 21 39  1  0
M  END
>  <meeko>  (5) 
{"is_sidechain": [false], "free_energy": -9.798, "intermolecular_energy": -13.267, "internal_energy": -0.588}

$$$$
SAG_pdb_out
     RDKit          3D

 39 40  0  0  0  0  0  0  0  0999 V2000
   53.1010  151.2530   25.5960 C   0  0  0  0  0  0  0  0  0  0  0  0
   54.3290  152.0950   25.9110 C   0  0  2  0  0  0  0  0  0  0  0  0
   53.9590  153.0690   26.9700 N   0  0  0  0  0  0  0  0  0  0  0  0
   52.9940  153.8570   26.6280 C   0  0  0  0  0  0  0  0  0  0  0  0
   52.4820  154.8990   27.5380 C   0  0  0  0  0  0  0  0  0  0  0  0
   52.9130  156.2240   27.4260 C   0  0  0  0  0  0  0  0  0  0  0  0
   52.4160  157.2000   28.2990 C   0  0  0  0  0  0  0  0  0  0  0  0
   51.4890  156.8510   29.2830 C   0  0  0  0  0  0  0  0  0  0  0  0
   50.9260  157.6980   30.1950 O   0  0  0  0  0  0  0  0  0  0  0  0
   51.0740  159.0970   29.9650 C   0  0  0  0  0  0  0  0  0  0  0  0
   50.1470  159.8220   30.9080 C   0  0  0  0  0  0  0  0  0  0  0  0
   50.6070  160.9160   31.6590 C   0  0  0  0  0  0  0  0  0  0  0  0
   49.7450  161.6020   32.5210 C   0  0  0  0  0  0  0  0  0  0  0  0
   48.4140  161.2030   32.6340 C   0  0  0  0  0  0  0  0  0  0  0  0
   47.9540  160.1300   31.8800 C   0  0  0  0  0  0  0  0  0  0  0  0
   46.6730  159.7540   31.9820 F   0  0  0  0  0  0  0  0  0  0  0  0
   48.8030  159.4400   31.0190 C   0  0  0  0  0  0  0  0  0  0  0  0
   51.0640  155.5230   29.3870 C   0  0  0  0  0  0  0  0  0  0  0  0
   51.5550  154.5450   28.5190 C   0  0  0  0  0  0  0  0  0  0  0  0
   54.7740  152.8680   24.6630 C   0  0  0  0  0  0  0  0  0  0  0  0
   55.9030  153.6220   24.8240 N   0  0  0  0  0  0  0  0  0  0  0  0
   54.1650  152.8480   23.5980 O   0  0  0  0  0  0  0  0  0  0  0  0
   52.6281  150.9288   26.5347 H   0  0  0  0  0  0  0  0  0  0  0  0
   52.3858  151.8516   25.0128 H   0  0  0  0  0  0  0  0  0  0  0  0
   53.4016  150.3701   25.0128 H   0  0  0  0  0  0  0  0  0  0  0  0
   55.1516  151.4438   26.2415 H   0  0  0  0  0  0  0  0  0  0  0  0
   52.5419  153.7479   25.6312 H   0  0  0  0  0  0  0  0  0  0  0  0
   53.6434  156.5005   26.6513 H   0  0  0  0  0  0  0  0  0  0  0  0
   52.7562  158.2422   28.2093 H   0  0  0  0  0  0  0  0  0  0  0  0
   52.1140  159.3994   30.1571 H   0  0  0  0  0  0  0  0  0  0  0  0
   50.8276  159.3421   28.9213 H   0  0  0  0  0  0  0  0  0  0  0  0
   51.6554  161.2365   31.5685 H   0  0  0  0  0  0  0  0  0  0  0  0
   50.1166  162.4545   33.1085 H   0  0  0  0  0  0  0  0  0  0  0  0
   47.7326  161.7338   33.3152 H   0  0  0  0  0  0  0  0  0  0  0  0
   48.4196  158.5962   30.4266 H   0  0  0  0  0  0  0  0  0  0  0  0
   50.3342  155.2451   30.1617 H   0  0  0  0  0  0  0  0  0  0  0  0
   51.2133  153.5032   28.6081 H   0  0  0  0  0  0  0  0  0  0  0  0
   56.3750  153.6220   25.6880 H   0  0  0  0  0  0  0  0  0  0  0  0
   56.2450  154.1640   24.0760 H   0  0  0  0  0  0  0  0  0  0  0  0
  1  2  1  0
  2  3  1  0
  3  4  2  0
  4  5  1  0
  5  6  2  0
  6  7  1  0
  7  8  2  0
  8  9  1  0
  9 10  1  0
 10 11  1  0
 11 12  2  0
 12 13  1  0
 13 14  2  0
 14 15  1  0
 15 16  1  0
 15 17  2  0
  8 18  1  0
 18 19  2  0
  2 20  1  0
 20 21  1  0
 20 22  2  0
 19  5  1  0
 17 11  1  0
  1 23  1  0
  1 24  1  0
  1 25  1  0
  2 26  1  1
  4 27  1  0
  6 28  1  0
  7 29  1  0
 10 30  1  0
 10 31  1  0
 12 32  1  0
 13 33  1  0
 14 34  1  0
 17 35  1  0
 18 36  1  0
 19 37  1  0
 21 38  1  0
 21 39  1  0
M  END
>  <meeko>  (6) 
{"is_sidechain": [false], "free_energy": -9.613, "intermolecular_energy": -13.106, "internal_energy": -0.498}

$$$$
SAG_pdb_out
     RDKit          3D

 39 40  0  0  0  0  0  0  0  0999 V2000
   51.1860  160.8370   31.9760 C   0  0  0  0  0  0  0  0  0  0  0  0
   51.8130  161.1970   30.6360 C   0  0  2  0  0  0  0  0  0  0  0  0
   52.0260  159.9380   29.8760 N   0  0  0  0  0  0  0  0  0  0  0  0
   51.2180  158.9900   30.2170 C   0  0  0  0  0  0  0  0  0  0  0  0
   51.2720  157.6580   29.5850 C   0  0  0  0  0  0  0  0  0  0  0  0
   50.2700  156.7130   29.8150 C   0  0  0  0  0  0  0  0  0  0  0  0
   50.3390  155.4530   29.2060 C   0  0  0  0  0  0  0  0  0  0  0  0
   51.4100  155.1400   28.3670 C   0  0  0  0  0  0  0  0  0  0  0  0
   51.6000  153.9560   27.7110 O   0  0  0  0  0  0  0  0  0  0  0  0
   52.8810  153.3420   27.8330 C   0  0  0  0  0  0  0  0  0  0  0  0
   53.4080  153.0930   26.4420 C   0  0  0  0  0  0  0  0  0  0  0  0
   53.3810  151.8030   25.8890 C   0  0  0  0  0  0  0  0  0  0  0  0
   53.8530  151.5720   24.5930 C   0  0  0  0  0  0  0  0  0  0  0  0
   54.3500  152.6320   23.8370 C   0  0  0  0  0  0  0  0  0  0  0  0
   54.3630  153.9120   24.3770 C   0  0  0  0  0  0  0  0  0  0  0  0
   54.8320  154.9320   23.6460 F   0  0  0  0  0  0  0  0  0  0  0  0
   53.8960  154.1530   25.6660 C   0  0  0  0  0  0  0  0  0  0  0  0
   52.4080  156.0930   28.1420 C   0  0  0  0  0  0  0  0  0  0  0  0
   52.3450  157.3520   28.7460 C   0  0  0  0  0  0  0  0  0  0  0  0
   53.1690  161.8800   30.8530 C   0  0  0  0  0  0  0  0  0  0  0  0
   53.7640  161.6100   32.0540 N   0  0  0  0  0  0  0  0  0  0  0  0
   53.6870  162.6360   30.0380 O   0  0  0  0  0  0  0  0  0  0  0  0
   51.8265  161.2048   32.7911 H   0  0  0  0  0  0  0  0  0  0  0  0
   50.1920  161.3020   32.0525 H   0  0  0  0  0  0  0  0  0  0  0  0
   51.0865  159.7442   32.0525 H   0  0  0  0  0  0  0  0  0  0  0  0
   51.1511  161.8834   30.0876 H   0  0  0  0  0  0  0  0  0  0  0  0
   50.4692  159.1809   30.9999 H   0  0  0  0  0  0  0  0  0  0  0  0
   49.4251  156.9582   30.4754 H   0  0  0  0  0  0  0  0  0  0  0  0
   49.5488  154.7100   29.3891 H   0  0  0  0  0  0  0  0  0  0  0  0
   53.5650  154.0088   28.3784 H   0  0  0  0  0  0  0  0  0  0  0  0
   52.8020  152.3960   28.3887 H   0  0  0  0  0  0  0  0  0  0  0  0
   52.9845  150.9651   26.4812 H   0  0  0  0  0  0  0  0  0  0  0  0
   53.8320  150.5562   24.1714 H   0  0  0  0  0  0  0  0  0  0  0  0
   54.7294  152.4564   22.8196 H   0  0  0  0  0  0  0  0  0  0  0  0
   53.9100  155.1741   26.0749 H   0  0  0  0  0  0  0  0  0  0  0  0
   53.2531  155.8490   27.4815 H   0  0  0  0  0  0  0  0  0  0  0  0
   53.1344  158.0956   28.5617 H   0  0  0  0  0  0  0  0  0  0  0  0
   53.3290  160.9990   32.6920 H   0  0  0  0  0  0  0  0  0  0  0  0
   54.6280  162.0240   32.2800 H   0  0  0  0  0  0  0  0  0  0  0  0
  1  2  1  0
  2  3  1  0
  3  4  2  0
  4  5  1  0
  5  6  2  0
  6  7  1  0
  7  8  2  0
  8  9  1  0
  9 10  1  0
 10 11  1  0
 11 12  2  0
 12 13  1  0
 13 14  2  0
 14 15  1  0
 15 16  1  0
 15 17  2  0
  8 18  1  0
 18 19  2  0
  2 20  1  0
 20 21  1  0
 20 22  2  0
 19  5  1  0
 17 11  1  0
  1 23  1  0
  1 24  1  0
  1 25  1  0
  2 26  1  6
  4 27  1  0
  6 28  1  0
  7 29  1  0
 10 30  1  0
 10 31  1  0
 12 32  1  0
 13 33  1  0
 14 34  1  0
 17 35  1  0
 18 36  1  0
 19 37  1  0
 21 38  1  0
 21 39  1  0
M  END
>  <meeko>  (7) 
{"is_sidechain": [false], "free_energy": -9.392, "intermolecular_energy": -12.717, "internal_energy": -0.588}

$$$$
SAG_pdb_out
     RDKit          3D

 39 40  0  0  0  0  0  0  0  0999 V2000
   49.4650  160.5280   32.9280 C   0  0  0  0  0  0  0  0  0  0  0  0
   48.3680  159.7060   32.2660 C   0  0  2  0  0  0  0  0  0  0  0  0
   49.0100  158.5690   31.5570 N   0  0  0  0  0  0  0  0  0  0  0  0
   49.9910  158.9270   30.7970 C   0  0  0  0  0  0  0  0  0  0  0  0
   50.7550  157.9460   30.0020 C   0  0  0  0  0  0  0  0  0  0  0  0
   50.3210  156.6240   29.8830 C   0  0  0  0  0  0  0  0  0  0  0  0
   51.0610  155.7070   29.1250 C   0  0  0  0  0  0  0  0  0  0  0  0
   52.2330  156.1140   28.4850 C   0  0  0  0  0  0  0  0  0  0  0  0
   53.0460  155.3280   27.7180 O   0  0  0  0  0  0  0  0  0  0  0  0
   53.1350  155.6410   26.3300 C   0  0  0  0  0  0  0  0  0  0  0  0
   53.4430  154.3660   25.5870 C   0  0  0  0  0  0  0  0  0  0  0  0
   54.1400  154.4000   24.3690 C   0  0  0  0  0  0  0  0  0  0  0  0
   54.4420  153.2170   23.6870 C   0  0  0  0  0  0  0  0  0  0  0  0
   54.0560  151.9890   24.2210 C   0  0  0  0  0  0  0  0  0  0  0  0
   53.3790  151.9530   25.4340 C   0  0  0  0  0  0  0  0  0  0  0  0
   53.0170  150.7720   25.9510 F   0  0  0  0  0  0  0  0  0  0  0  0
   53.0730  153.1230   26.1220 C   0  0  0  0  0  0  0  0  0  0  0  0
   52.6590  157.4400   28.6100 C   0  0  0  0  0  0  0  0  0  0  0  0
   51.9260  158.3590   29.3650 C   0  0  0  0  0  0  0  0  0  0  0  0
   47.6100  160.5620   31.2430 C   0  0  0  0  0  0  0  0  0  0  0  0
   46.3820  160.0790   30.8860 N   0  0  0  0  0  0  0  0  0  0  0  0
   48.0630  161.5890   30.7490 O   0  0  0  0  0  0  0  0  0  0  0  0
   49.3683  160.4555   34.0213 H   0  0  0  0  0  0  0  0  0  0  0  0
   50.4483  160.1425   32.6205 H   0  0  0  0  0  0  0  0  0  0  0  0
   49.3711  161.5800   32.6205 H   0  0  0  0  0  0  0  0  0  0  0  0
   47.6600  159.3484   33.0282 H   0  0  0  0  0  0  0  0  0  0  0  0
   50.2642  159.9910   30.7408 H   0  0  0  0  0  0  0  0  0  0  0  0
   49.3967  156.3021   30.3851 H   0  0  0  0  0  0  0  0  0  0  0  0
   50.7183  154.6657   29.0341 H   0  0  0  0  0  0  0  0  0  0  0  0
   52.1793  156.0570   25.9785 H   0  0  0  0  0  0  0  0  0  0  0  0
   53.9242  156.3870   26.1550 H   0  0  0  0  0  0  0  0  0  0  0  0
   54.4517  155.3667   23.9468 H   0  0  0  0  0  0  0  0  0  0  0  0
   54.9835  153.2557   22.7303 H   0  0  0  0  0  0  0  0  0  0  0  0
   54.2855  151.0554   23.6864 H   0  0  0  0  0  0  0  0  0  0  0  0
   52.5418  153.0735   27.0839 H   0  0  0  0  0  0  0  0  0  0  0  0
   53.5826  157.7635   28.1077 H   0  0  0  0  0  0  0  0  0  0  0  0
   52.2692  159.4001   29.4566 H   0  0  0  0  0  0  0  0  0  0  0  0
   46.0400  159.2520   31.2970 H   0  0  0  0  0  0  0  0  0  0  0  0
   45.8390  160.5600   30.2200 H   0  0  0  0  0  0  0  0  0  0  0  0
  1  2  1  0
  2  3  1  0
  3  4  2  0
  4  5  1  0
  5  6  2  0
  6  7  1  0
  7  8  2  0
  8  9  1  0
  9 10  1  0
 10 11  1  0
 11 12  2  0
 12 13  1  0
 13 14  2  0
 14 15  1  0
 15 16  1  0
 15 17  2  0
  8 18  1  0
 18 19  2  0
  2 20  1  0
 20 21  1  0
 20 22  2  0
 19  5  1  0
 17 11  1  0
  1 23  1  0
  1 24  1  0
  1 25  1  0
  2 26  1  1
  4 27  1  0
  6 28  1  0
  7 29  1  0
 10 30  1  0
 10 31  1  0
 12 32  1  0
 13 33  1  0
 14 34  1  0
 17 35  1  0
 18 36  1  0
 19 37  1  0
 21 38  1  0
 21 39  1  0
M  END
>  <meeko>  (8) 
{"is_sidechain": [false], "free_energy": -9.126, "intermolecular_energy": -12.379, "internal_energy": -0.567}

$$$$
SAG_pdb_out
     RDKit          3D

 39 40  0  0  0  0  0  0  0  0999 V2000
   51.4280  161.3770   31.0040 C   0  0  0  0  0  0  0  0  0  0  0  0
   50.2690  160.5370   31.5230 C   0  0  2  0  0  0  0  0  0  0  0  0
   50.2170  159.2850   30.7260 N   0  0  0  0  0  0  0  0  0  0  0  0
   51.3800  158.8740   30.3400 C   0  0  0  0  0  0  0  0  0  0  0  0
   51.5420  157.6500   29.5310 C   0  0  0  0  0  0  0  0  0  0  0  0
   52.4980  157.5840   28.5150 C   0  0  0  0  0  0  0  0  0  0  0  0
   52.6370  156.4140   27.7570 C   0  0  0  0  0  0  0  0  0  0  0  0
   51.8200  155.3110   28.0170 C   0  0  0  0  0  0  0  0  0  0  0  0
   51.8500  154.1150   27.3580 O   0  0  0  0  0  0  0  0  0  0  0  0
   52.9890  153.2830   27.5650 C   0  0  0  0  0  0  0  0  0  0  0  0
   53.4600  152.7980   26.2180 C   0  0  0  0  0  0  0  0  0  0  0  0
   53.3590  151.4410   25.8720 C   0  0  0  0  0  0  0  0  0  0  0  0
   53.7780  150.9920   24.6160 C   0  0  0  0  0  0  0  0  0  0  0  0
   54.2950  151.8980   23.6920 C   0  0  0  0  0  0  0  0  0  0  0  0
   54.3830  153.2430   24.0270 C   0  0  0  0  0  0  0  0  0  0  0  0
   54.8710  154.1140   23.1340 F   0  0  0  0  0  0  0  0  0  0  0  0
   53.9690  153.7020   25.2740 C   0  0  0  0  0  0  0  0  0  0  0  0
   50.8670  155.3880   29.0360 C   0  0  0  0  0  0  0  0  0  0  0  0
   50.7230  156.5520   29.7960 C   0  0  0  0  0  0  0  0  0  0  0  0
   48.9470  161.2930   31.3440 C   0  0  0  0  0  0  0  0  0  0  0  0
   48.7210  162.2830   32.2600 N   0  0  0  0  0  0  0  0  0  0  0  0
   48.1270  161.0300   30.4710 O   0  0  0  0  0  0  0  0  0  0  0  0
   51.9933  161.7867   31.8540 H   0  0  0  0  0  0  0  0  0  0  0  0
   52.0911  160.7483   30.3915 H   0  0  0  0  0  0  0  0  0  0  0  0
   51.0369  162.2028   30.3915 H   0  0  0  0  0  0  0  0  0  0  0  0
   50.4151  160.3203   32.5915 H   0  0  0  0  0  0  0  0  0  0  0  0
   52.2727  159.4516   30.6218 H   0  0  0  0  0  0  0  0  0  0  0  0
   53.1425  158.4515   28.3097 H   0  0  0  0  0  0  0  0  0  0  0  0
   53.3899  156.3638   26.9566 H   0  0  0  0  0  0  0  0  0  0  0  0
   53.7880  153.8586   28.0552 H   0  0  0  0  0  0  0  0  0  0  0  0
   52.7284  152.4304   28.2093 H   0  0  0  0  0  0  0  0  0  0  0  0
   52.9460  150.7238   26.5966 H   0  0  0  0  0  0  0  0  0  0  0  0
   53.6997  149.9256   24.3577 H   0  0  0  0  0  0  0  0  0  0  0  0
   54.6311  151.5503   22.7040 H   0  0  0  0  0  0  0  0  0  0  0  0
   54.0409  154.7720   25.5189 H   0  0  0  0  0  0  0  0  0  0  0  0
   50.2219  154.5214   29.2427 H   0  0  0  0  0  0  0  0  0  0  0  0
   49.9702  156.6021   30.5965 H   0  0  0  0  0  0  0  0  0  0  0  0
   49.3940  162.4760   32.9510 H   0  0  0  0  0  0  0  0  0  0  0  0
   47.8850  162.8030   32.2260 H   0  0  0  0  0  0  0  0  0  0  0  0
  1  2  1  0
  2  3  1  0
  3  4  2  0
  4  5  1  0
  5  6  2  0
  6  7  1  0
  7  8  2  0
  8  9  1  0
  9 10  1  0
 10 11  1  0
 11 12  2  0
 12 13  1  0
 13 14  2  0
 14 15  1  0
 15 16  1  0
 15 17  2  0
  8 18  1  0
 18 19  2  0
  2 20  1  0
 20 21  1  0
 20 22  2  0
 19  5  1  0
 17 11  1  0
  1 23  1  0
  1 24  1  0
  1 25  1  0
  2 26  1  1
  4 27  1  0
  6 28  1  0
  7 29  1  0
 10 30  1  0
 10 31  1  0
 12 32  1  0
 13 33  1  0
 14 34  1  0
 17 35  1  0
 18 36  1  0
 19 37  1  0
 21 38  1  0
 21 39  1  0
M  END
>  <meeko>  (9) 
{"is_sidechain": [false], "free_energy": -8.768, "intermolecular_energy": -11.811, "internal_energy": -0.651}

$$$$
