selegiline_out
     RDKit          3D

 32 32  0  0  0  0  0  0  0  0999 V2000
   54.1730  153.0230   23.2970 C   0  0  0  0  0  0  0  0  0  0  0  0
   54.0410  153.2330   24.4730 C   0  0  0  0  0  0  0  0  0  0  0  0
   53.8850  153.4910   25.9150 C   0  0  0  0  0  0  0  0  0  0  0  0
   52.4940  153.8300   26.2590 N   0  0  1  0  0  0  0  0  0  0  0  0
   51.9260  152.8480   27.1860 C   0  0  0  0  0  0  0  0  0  0  0  0
   52.3690  155.2370   26.7200 C   0  0  2  0  0  0  0  0  0  0  0  0
   53.2080  156.2420   25.9140 C   0  0  0  0  0  0  0  0  0  0  0  0
   52.6740  155.3390   28.2400 C   0  0  0  0  0  0  0  0  0  0  0  0
   51.9130  156.4420   28.9430 C   0  0  0  0  0  0  0  0  0  0  0  0
   52.4550  157.7300   29.0470 C   0  0  0  0  0  0  0  0  0  0  0  0
   51.7460  158.7460   29.6890 C   0  0  0  0  0  0  0  0  0  0  0  0
   50.4890  158.4860   30.2320 C   0  0  0  0  0  0  0  0  0  0  0  0
   49.9420  157.2080   30.1360 C   0  0  0  0  0  0  0  0  0  0  0  0
   50.6490  156.1900   29.4960 C   0  0  0  0  0  0  0  0  0  0  0  0
   54.2938  152.8308   22.2207 H   0  0  0  0  0  0  0  0  0  0  0  0
   54.1810  152.5902   26.4726 H   0  0  0  0  0  0  0  0  0  0  0  0
   54.5230  154.3464   26.1819 H   0  0  0  0  0  0  0  0  0  0  0  0
   51.9310  153.7750   25.4110 H   0  0  0  0  0  0  0  0  0  0  0  0
   52.1124  153.1703   28.2211 H   0  0  0  0  0  0  0  0  0  0  0  0
   50.8421  152.7679   27.0165 H   0  0  0  0  0  0  0  0  0  0  0  0
   52.3970  151.8685   27.0165 H   0  0  0  0  0  0  0  0  0  0  0  0
   51.3231  155.5251   26.5379 H   0  0  0  0  0  0  0  0  0  0  0  0
   53.7565  156.8991   26.6049 H   0  0  0  0  0  0  0  0  0  0  0  0
   53.9234  155.6974   25.2802 H   0  0  0  0  0  0  0  0  0  0  0  0
   52.5444  156.8486   25.2802 H   0  0  0  0  0  0  0  0  0  0  0  0
   52.4105  154.3808   28.7116 H   0  0  0  0  0  0  0  0  0  0  0  0
   53.7438  155.5759   28.3369 H   0  0  0  0  0  0  0  0  0  0  0  0
   53.4462  157.9416   28.6196 H   0  0  0  0  0  0  0  0  0  0  0  0
   52.1799  159.7538   29.7667 H   0  0  0  0  0  0  0  0  0  0  0  0
   49.9297  159.2883   30.7355 H   0  0  0  0  0  0  0  0  0  0  0  0
   48.9507  157.0015   30.5658 H   0  0  0  0  0  0  0  0  0  0  0  0
   50.2123  155.1829   29.4246 H   0  0  0  0  0  0  0  0  0  0  0  0
  1  2  3  0
  2  3  1  0
  3  4  1  0
  4  5  1  0
  4  6  1  0
  6  7  1  0
  6  8  1  0
  8  9  1  0
  9 10  2  0
 10 11  1  0
 11 12  2  0
 12 13  1  0
 13 14  2  0
 14  9  1  0
  1 15  1  0
  3 16  1  0
  3 17  1  0
  4 18  1  6
  5 19  1  0
  5 20  1  0
  5 21  1  0
  6 22  1  1
  7 23  1  0
  7 24  1  0
  7 25  1  0
  8 26  1  0
  8 27  1  0
 10 28  1  0
 11 29  1  0
 12 30  1  0
 13 31  1  0
 14 32  1  0
M  CHG  1   4   1
M  END
>  <meeko>  (1) 
{"is_sidechain": [false], "free_energy": -7.402, "intermolecular_energy": -9.133, "internal_energy": -0.283}

$$$$
selegiline_out
     RDKit          3D

 32 32  0  0  0  0  0  0  0  0999 V2000
   54.8690  156.9870   24.3400 C   0  0  0  0  0  0  0  0  0  0  0  0
   55.0420  155.7980   24.3290 C   0  0  0  0  0  0  0  0  0  0  0  0
   55.2620  154.3410   24.3190 C   0  0  0  0  0  0  0  0  0  0  0  0
   54.0060  153.6010   24.5250 N   0  0  1  0  0  0  0  0  0  0  0  0
   54.1260  152.2180   24.0580 C   0  0  0  0  0  0  0  0  0  0  0  0
   53.5170  153.7250   25.9230 C   0  0  2  0  0  0  0  0  0  0  0  0
   53.2840  152.3800   26.6310 C   0  0  0  0  0  0  0  0  0  0  0  0
   52.2470  154.6170   25.9760 C   0  0  0  0  0  0  0  0  0  0  0  0
   52.1350  155.4460   27.2380 C   0  0  0  0  0  0  0  0  0  0  0  0
   52.7960  156.6760   27.3460 C   0  0  0  0  0  0  0  0  0  0  0  0
   52.6830  157.4400   28.5090 C   0  0  0  0  0  0  0  0  0  0  0  0
   51.9080  156.9820   29.5730 C   0  0  0  0  0  0  0  0  0  0  0  0
   51.2500  155.7580   29.4770 C   0  0  0  0  0  0  0  0  0  0  0  0
   51.3610  154.9930   28.3160 C   0  0  0  0  0  0  0  0  0  0  0  0
   54.7106  158.0755   24.3501 H   0  0  0  0  0  0  0  0  0  0  0  0
   55.6916  154.0517   23.3486 H   0  0  0  0  0  0  0  0  0  0  0  0
   55.9471  154.0912   25.1425 H   0  0  0  0  0  0  0  0  0  0  0  0
   53.2820  154.0300   23.9500 H   0  0  0  0  0  0  0  0  0  0  0  0
   54.1846  151.5423   24.9241 H   0  0  0  0  0  0  0  0  0  0  0  0
   53.2470  151.9589   23.4496 H   0  0  0  0  0  0  0  0  0  0  0  0
   55.0365  152.1141   23.4496 H   0  0  0  0  0  0  0  0  0  0  0  0
   54.3270  154.2103   26.4873 H   0  0  0  0  0  0  0  0  0  0  0  0
   53.3099  152.5298   27.7204 H   0  0  0  0  0  0  0  0  0  0  0  0
   52.3027  151.9773   26.3395 H   0  0  0  0  0  0  0  0  0  0  0  0
   54.0727  151.6707   26.3395 H   0  0  0  0  0  0  0  0  0  0  0  0
   52.2661  155.2993   25.1134 H   0  0  0  0  0  0  0  0  0  0  0  0
   51.3795  153.9408   25.9587 H   0  0  0  0  0  0  0  0  0  0  0  0
   53.4083  157.0425   26.5089 H   0  0  0  0  0  0  0  0  0  0  0  0
   53.2062  158.4046   28.5857 H   0  0  0  0  0  0  0  0  0  0  0  0
   51.8161  157.5864   30.4875 H   0  0  0  0  0  0  0  0  0  0  0  0
   50.6418  155.3941   30.3182 H   0  0  0  0  0  0  0  0  0  0  0  0
   50.8379  154.0279   28.2455 H   0  0  0  0  0  0  0  0  0  0  0  0
  1  2  3  0
  2  3  1  0
  3  4  1  0
  4  5  1  0
  4  6  1  0
  6  7  1  0
  6  8  1  0
  8  9  1  0
  9 10  2  0
 10 11  1  0
 11 12  2  0
 12 13  1  0
 13 14  2  0
 14  9  1  0
  1 15  1  0
  3 16  1  0
  3 17  1  0
  4 18  1  6
  5 19  1  0
  5 20  1  0
  5 21  1  0
  6 22  1  1
  7 23  1  0
  7 24  1  0
  7 25  1  0
  8 26  1  0
  8 27  1  0
 10 28  1  0
 11 29  1  0
 12 30  1  0
 13 31  1  0
 14 32  1  0
M  CHG  1   4   1
M  END
>  <meeko>  (2) 
{"is_sidechain": [false], "free_energy": -7.377, "intermolecular_energy": -8.78, "internal_energy": -0.604}

$$$$
selegiline_out
     RDKit          3D

 32 32  0  0  0  0  0  0  0  0999 V2000
   49.2150  156.3190   29.6990 C   0  0  0  0  0  0  0  0  0  0  0  0
   50.4140  156.3820   29.6620 C   0  0  0  0  0  0  0  0  0  0  0  0
   51.8850  156.4650   29.6220 C   0  0  0  0  0  0  0  0  0  0  0  0
   52.4790  155.2710   28.9970 N   0  0  1  0  0  0  0  0  0  0  0  0
   51.5940  154.1120   29.1270 C   0  0  0  0  0  0  0  0  0  0  0  0
   52.9190  155.5410   27.6030 C   0  0  2  0  0  0  0  0  0  0  0  0
   52.9440  157.0310   27.2260 C   0  0  0  0  0  0  0  0  0  0  0  0
   52.0660  154.7190   26.5980 C   0  0  0  0  0  0  0  0  0  0  0  0
   52.8800  153.7930   25.7200 C   0  0  0  0  0  0  0  0  0  0  0  0
   53.2310  152.5120   26.1650 C   0  0  0  0  0  0  0  0  0  0  0  0
   53.9750  151.6580   25.3490 C   0  0  0  0  0  0  0  0  0  0  0  0
   54.3750  152.0770   24.0810 C   0  0  0  0  0  0  0  0  0  0  0  0
   54.0350  153.3510   23.6310 C   0  0  0  0  0  0  0  0  0  0  0  0
   53.2910  154.2060   24.4450 C   0  0  0  0  0  0  0  0  0  0  0  0
   48.1170  156.2613   29.7329 H   0  0  0  0  0  0  0  0  0  0  0  0
   52.1767  157.3535   29.0428 H   0  0  0  0  0  0  0  0  0  0  0  0
   52.2539  156.5314   30.6562 H   0  0  0  0  0  0  0  0  0  0  0  0
   53.3310  155.0330   29.5050 H   0  0  0  0  0  0  0  0  0  0  0  0
   51.4282  153.8949   30.1926 H   0  0  0  0  0  0  0  0  0  0  0  0
   50.6306  154.3302   28.6431 H   0  0  0  0  0  0  0  0  0  0  0  0
   52.0582  153.2401   28.6431 H   0  0  0  0  0  0  0  0  0  0  0  0
   53.9676  155.2139   27.5453 H   0  0  0  0  0  0  0  0  0  0  0  0
   52.9542  157.6407   28.1415 H   0  0  0  0  0  0  0  0  0  0  0  0
   53.8458  157.2442   26.6334 H   0  0  0  0  0  0  0  0  0  0  0  0
   52.0498  157.2743   26.6334 H   0  0  0  0  0  0  0  0  0  0  0  0
   51.3467  154.1128   27.1683 H   0  0  0  0  0  0  0  0  0  0  0  0
   51.5725  155.4412   25.9310 H   0  0  0  0  0  0  0  0  0  0  0  0
   52.9181  152.1765   27.1648 H   0  0  0  0  0  0  0  0  0  0  0  0
   54.2458  150.6537   25.7068 H   0  0  0  0  0  0  0  0  0  0  0  0
   54.9582  151.4027   23.4367 H   0  0  0  0  0  0  0  0  0  0  0  0
   54.3537  153.6835   22.6321 H   0  0  0  0  0  0  0  0  0  0  0  0
   53.0253  155.2105   24.0839 H   0  0  0  0  0  0  0  0  0  0  0  0
  1  2  3  0
  2  3  1  0
  3  4  1  0
  4  5  1  0
  4  6  1  0
  6  7  1  0
  6  8  1  0
  8  9  1  0
  9 10  2  0
 10 11  1  0
 11 12  2  0
 12 13  1  0
 13 14  2  0
 14  9  1  0
  1 15  1  0
  3 16  1  0
  3 17  1  0
  4 18  1  1
  5 19  1  0
  5 20  1  0
  5 21  1  0
  6 22  1  1
  7 23  1  0
  7 24  1  0
  7 25  1  0
  8 26  1  0
  8 27  1  0
 10 28  1  0
 11 29  1  0
 12 30  1  0
 13 31  1  0
 14 32  1  0
M  CHG  1   4   1
M  END
>  <meeko>  (3) 
{"is_sidechain": [false], "free_energy": -6.934, "intermolecular_energy": -8.588, "internal_energy": -0.25}

$$$$
selegiline_out
     RDKit          3D

 32 32  0  0  0  0  0  0  0  0999 V2000
   51.9280  154.1550   28.8730 C   0  0  0  0  0  0  0  0  0  0  0  0
   51.4000  155.1700   29.2390 C   0  0  0  0  0  0  0  0  0  0  0  0
   50.7480  156.4110   29.6920 C   0  0  0  0  0  0  0  0  0  0  0  0
   51.6790  157.5520   29.6770 N   0  0  1  0  0  0  0  0  0  0  0  0
   52.6010  157.4640   28.5420 C   0  0  0  0  0  0  0  0  0  0  0  0
   50.9620  158.8500   29.7720 C   0  0  2  0  0  0  0  0  0  0  0  0
   51.7930  159.9860   30.3910 C   0  0  0  0  0  0  0  0  0  0  0  0
   49.6110  158.6690   30.5160 C   0  0  0  0  0  0  0  0  0  0  0  0
   49.2260  159.8520   31.3790 C   0  0  0  0  0  0  0  0  0  0  0  0
   49.4070  159.8120   32.7680 C   0  0  0  0  0  0  0  0  0  0  0  0
   49.0590  160.9080   33.5580 C   0  0  0  0  0  0  0  0  0  0  0  0
   48.5280  162.0540   32.9690 C   0  0  0  0  0  0  0  0  0  0  0  0
   48.3400  162.1020   31.5890 C   0  0  0  0  0  0  0  0  0  0  0  0
   48.6870  161.0080   30.7970 C   0  0  0  0  0  0  0  0  0  0  0  0
   52.4115  153.2255   28.5378 H   0  0  0  0  0  0  0  0  0  0  0  0
   49.9015  156.6328   29.0255 H   0  0  0  0  0  0  0  0  0  0  0  0
   50.4061  156.2609   30.7267 H   0  0  0  0  0  0  0  0  0  0  0  0
   52.2590  157.5040   30.5140 H   0  0  0  0  0  0  0  0  0  0  0  0
   53.6316  157.3656   28.9136 H   0  0  0  0  0  0  0  0  0  0  0  0
   52.3465  156.5861   27.9301 H   0  0  0  0  0  0  0  0  0  0  0  0
   52.5172  158.3742   27.9301 H   0  0  0  0  0  0  0  0  0  0  0  0
   50.7683  159.1681   28.7369 H   0  0  0  0  0  0  0  0  0  0  0  0
   51.7447  159.9199   31.4879 H   0  0  0  0  0  0  0  0  0  0  0  0
   52.8393  159.8951   30.0639 H   0  0  0  0  0  0  0  0  0  0  0  0
   51.3895  160.9557   30.0639 H   0  0  0  0  0  0  0  0  0  0  0  0
   48.8205  158.5142   29.7669 H   0  0  0  0  0  0  0  0  0  0  0  0
   49.7283  157.8063   31.1884 H   0  0  0  0  0  0  0  0  0  0  0  0
   49.8263  158.9105   33.2386 H   0  0  0  0  0  0  0  0  0  0  0  0
   49.2040  160.8675   34.6476 H   0  0  0  0  0  0  0  0  0  0  0  0
   48.2577  162.9191   33.5923 H   0  0  0  0  0  0  0  0  0  0  0  0
   47.9171  163.0045   31.1236 H   0  0  0  0  0  0  0  0  0  0  0  0
   48.5368  161.0523   29.7082 H   0  0  0  0  0  0  0  0  0  0  0  0
  1  2  3  0
  2  3  1  0
  3  4  1  0
  4  5  1  0
  4  6  1  0
  6  7  1  0
  6  8  1  0
  8  9  1  0
  9 10  2  0
 10 11  1  0
 11 12  2  0
 12 13  1  0
 13 14  2  0
 14  9  1  0
  1 15  1  0
  3 16  1  0
  3 17  1  0
  4 18  1  1
  5 19  1  0
  5 20  1  0
  5 21  1  0
  6 22  1  6
  7 23  1  0
  7 24  1  0
  7 25  1  0
  8 26  1  0
  8 27  1  0
 10 28  1  0
 11 29  1  0
 12 30  1  0
 13 31  1  0
 14 32  1  0
M  CHG  1   4   1
M  END
>  <meeko>  (4) 
{"is_sidechain": [false], "free_energy": -6.912, "intermolecular_energy": -8.85, "internal_energy": 0.039}

$$$$
selegiline_out
     RDKit          3D

 32 32  0  0  0  0  0  0  0  0999 V2000
   53.1970  156.2540   26.1310 C   0  0  0  0  0  0  0  0  0  0  0  0
   52.9320  156.6930   27.2180 C   0  0  0  0  0  0  0  0  0  0  0  0
   52.6120  157.2360   28.5500 C   0  0  0  0  0  0  0  0  0  0  0  0
   51.3630  156.6680   29.0820 N   0  0  1  0  0  0  0  0  0  0  0  0
   51.5750  155.3110   29.5910 C   0  0  0  0  0  0  0  0  0  0  0  0
   50.7140  157.5830   30.0570 C   0  0  2  0  0  0  0  0  0  0  0  0
   49.1860  157.4330   30.1440 C   0  0  0  0  0  0  0  0  0  0  0  0
   51.1200  159.0560   29.7720 C   0  0  0  0  0  0  0  0  0  0  0  0
   50.3490  160.0700   30.5890 C   0  0  0  0  0  0  0  0  0  0  0  0
   49.1350  160.5920   30.1210 C   0  0  0  0  0  0  0  0  0  0  0  0
   48.4240  161.5210   30.8820 C   0  0  0  0  0  0  0  0  0  0  0  0
   48.9190  161.9380   32.1160 C   0  0  0  0  0  0  0  0  0  0  0  0
   50.1260  161.4280   32.5890 C   0  0  0  0  0  0  0  0  0  0  0  0
   50.8390  160.4990   31.8300 C   0  0  0  0  0  0  0  0  0  0  0  0
   53.4395  155.8522   25.1361 H   0  0  0  0  0  0  0  0  0  0  0  0
   53.4348  156.9970   29.2398 H   0  0  0  0  0  0  0  0  0  0  0  0
   52.4816  158.3241   28.4552 H   0  0  0  0  0  0  0  0  0  0  0  0
   50.6970  156.5800   28.3150 H   0  0  0  0  0  0  0  0  0  0  0  0
   51.5724  155.3274   30.6909 H   0  0  0  0  0  0  0  0  0  0  0  0
   50.7685  154.6546   29.2322 H   0  0  0  0  0  0  0  0  0  0  0  0
   52.5433  154.9319   29.2322 H   0  0  0  0  0  0  0  0  0  0  0  0
   51.0884  157.2861   31.0478 H   0  0  0  0  0  0  0  0  0  0  0  0
   48.8801  157.4030   31.2002 H   0  0  0  0  0  0  0  0  0  0  0  0
   48.7047  158.2882   29.6470 H   0  0  0  0  0  0  0  0  0  0  0  0
   48.8802  156.5005   29.6470 H   0  0  0  0  0  0  0  0  0  0  0  0
   52.1906  159.1707   29.9973 H   0  0  0  0  0  0  0  0  0  0  0  0
   50.8892  159.2536   28.7148 H   0  0  0  0  0  0  0  0  0  0  0  0
   48.7401  160.2671   29.1471 H   0  0  0  0  0  0  0  0  0  0  0  0
   47.4718  161.9245   30.5073 H   0  0  0  0  0  0  0  0  0  0  0  0
   48.3573  162.6691   32.7160 H   0  0  0  0  0  0  0  0  0  0  0  0
   50.5177  161.7581   33.5624 H   0  0  0  0  0  0  0  0  0  0  0  0
   51.7920  160.1007   32.2083 H   0  0  0  0  0  0  0  0  0  0  0  0
  1  2  3  0
  2  3  1  0
  3  4  1  0
  4  5  1  0
  4  6  1  0
  6  7  1  0
  6  8  1  0
  8  9  1  0
  9 10  2  0
 10 11  1  0
 11 12  2  0
 12 13  1  0
 13 14  2  0
 14  9  1  0
  1 15  1  0
  3 16  1  0
  3 17  1  0
  4 18  1  6
  5 19  1  0
  5 20  1  0
  5 21  1  0
  6 22  1  1
  7 23  1  0
  7 24  1  0
  7 25  1  0
  8 26  1  0
  8 27  1  0
 10 28  1  0
 11 29  1  0
 12 30  1  0
 13 31  1  0
 14 32  1  0
M  CHG  1   4   1
M  END
>  <meeko>  (5) 
{"is_sidechain": [false], "free_energy": -6.902, "intermolecular_energy": -8.667, "internal_energy": -0.132}

$$$$
selegiline_out
     RDKit          3D

 32 32  0  0  0  0  0  0  0  0999 V2000
   53.3490  156.1320   25.2210 C   0  0  0  0  0  0  0  0  0  0  0  0
   53.0730  156.2670   26.3820 C   0  0  0  0  0  0  0  0  0  0  0  0
   52.7380  156.4400   27.8060 C   0  0  0  0  0  0  0  0  0  0  0  0
   51.5370  155.6720   28.1790 N   0  0  1  0  0  0  0  0  0  0  0  0
   51.6640  154.2690   27.7790 C   0  0  0  0  0  0  0  0  0  0  0  0
   51.1840  155.8620   29.6100 C   0  0  2  0  0  0  0  0  0  0  0  0
   51.2280  154.5730   30.4470 C   0  0  0  0  0  0  0  0  0  0  0  0
   49.8080  156.5720   29.7390 C   0  0  0  0  0  0  0  0  0  0  0  0
   49.9080  158.0300   30.1330 C   0  0  0  0  0  0  0  0  0  0  0  0
   51.1380  158.6990   30.0920 C   0  0  0  0  0  0  0  0  0  0  0  0
   51.2240  160.0450   30.4480 C   0  0  0  0  0  0  0  0  0  0  0  0
   50.0810  160.7360   30.8480 C   0  0  0  0  0  0  0  0  0  0  0  0
   48.8530  160.0790   30.8960 C   0  0  0  0  0  0  0  0  0  0  0  0
   48.7650  158.7330   30.5400 C   0  0  0  0  0  0  0  0  0  0  0  0
   53.6018  156.0084   24.1576 H   0  0  0  0  0  0  0  0  0  0  0  0
   53.5857  156.0953   28.4164 H   0  0  0  0  0  0  0  0  0  0  0  0
   52.5330  157.5060   27.9837 H   0  0  0  0  0  0  0  0  0  0  0  0
   50.7440  156.0430   27.6560 H   0  0  0  0  0  0  0  0  0  0  0  0
   51.7213  153.6356   28.6765 H   0  0  0  0  0  0  0  0  0  0  0  0
   50.7885  153.9778   27.1800 H   0  0  0  0  0  0  0  0  0  0  0  0
   52.5775  154.1397   27.1800 H   0  0  0  0  0  0  0  0  0  0  0  0
   51.9679  156.5064   30.0346 H   0  0  0  0  0  0  0  0  0  0  0  0
   51.2192  154.8298   31.5166 H   0  0  0  0  0  0  0  0  0  0  0  0
   50.3505  153.9528   30.2116 H   0  0  0  0  0  0  0  0  0  0  0  0
   52.1457  154.0141   30.2116 H   0  0  0  0  0  0  0  0  0  0  0  0
   49.2930  156.5093   28.7690 H   0  0  0  0  0  0  0  0  0  0  0  0
   49.2571  156.0600   30.5417 H   0  0  0  0  0  0  0  0  0  0  0  0
   52.0429  158.1589   29.7767 H   0  0  0  0  0  0  0  0  0  0  0  0
   52.1945  160.5617   30.4131 H   0  0  0  0  0  0  0  0  0  0  0  0
   50.1485  161.7983   31.1253 H   0  0  0  0  0  0  0  0  0  0  0  0
   47.9515  160.6226   31.2151 H   0  0  0  0  0  0  0  0  0  0  0  0
   47.7928  158.2199   30.5788 H   0  0  0  0  0  0  0  0  0  0  0  0
  1  2  3  0
  2  3  1  0
  3  4  1  0
  4  5  1  0
  4  6  1  0
  6  7  1  0
  6  8  1  0
  8  9  1  0
  9 10  2  0
 10 11  1  0
 11 12  2  0
 12 13  1  0
 13 14  2  0
 14  9  1  0
  1 15  1  0
  3 16  1  0
  3 17  1  0
  4 18  1  6
  5 19  1  0
  5 20  1  0
  5 21  1  0
  6 22  1  1
  7 23  1  0
  7 24  1  0
  7 25  1  0
  8 26  1  0
  8 27  1  0
 10 28  1  0
 11 29  1  0
 12 30  1  0
 13 31  1  0
 14 32  1  0
M  CHG  1   4   1
M  END
>  <meeko>  (6) 
{"is_sidechain": [false], "free_energy": -6.894, "intermolecular_energy": -8.461, "internal_energy": -0.328}

$$$$
selegiline_out
     RDKit          3D

 32 32  0  0  0  0  0  0  0  0999 V2000
   51.1780  160.9330   31.3260 C   0  0  0  0  0  0  0  0  0  0  0  0
   51.3390  160.0000   30.5870 C   0  0  0  0  0  0  0  0  0  0  0  0
   51.5440  158.8590   29.6780 C   0  0  0  0  0  0  0  0  0  0  0  0
   50.7830  157.6760   30.1120 N   0  0  1  0  0  0  0  0  0  0  0  0
   49.3420  157.9410   30.1000 C   0  0  0  0  0  0  0  0  0  0  0  0
   51.1780  156.4590   29.3550 C   0  0  2  0  0  0  0  0  0  0  0  0
   51.1700  155.1670   30.1900 C   0  0  0  0  0  0  0  0  0  0  0  0
   52.5520  156.6740   28.6630 C   0  0  0  0  0  0  0  0  0  0  0  0
   52.6900  155.9460   27.3430 C   0  0  0  0  0  0  0  0  0  0  0  0
   52.1720  154.6530   27.1820 C   0  0  0  0  0  0  0  0  0  0  0  0
   52.2950  153.9890   25.9610 C   0  0  0  0  0  0  0  0  0  0  0  0
   52.9360  154.6090   24.8900 C   0  0  0  0  0  0  0  0  0  0  0  0
   53.4570  155.8920   25.0400 C   0  0  0  0  0  0  0  0  0  0  0  0
   53.3360  156.5580   26.2600 C   0  0  0  0  0  0  0  0  0  0  0  0
   51.0305  161.7875   32.0028 H   0  0  0  0  0  0  0  0  0  0  0  0
   51.2151  159.1440   28.6678 H   0  0  0  0  0  0  0  0  0  0  0  0
   52.6134  158.6015   29.6853 H   0  0  0  0  0  0  0  0  0  0  0  0
   51.0240  157.4770   31.0830 H   0  0  0  0  0  0  0  0  0  0  0  0
   48.9730  158.0088   31.1341 H   0  0  0  0  0  0  0  0  0  0  0  0
   49.1480  158.8899   29.5785 H   0  0  0  0  0  0  0  0  0  0  0  0
   48.8231  157.1232   29.5785 H   0  0  0  0  0  0  0  0  0  0  0  0
   50.4028  156.3110   28.5888 H   0  0  0  0  0  0  0  0  0  0  0  0
   51.1716  155.4220   31.2600 H   0  0  0  0  0  0  0  0  0  0  0  0
   50.2682  154.5832   29.9535 H   0  0  0  0  0  0  0  0  0  0  0  0
   52.0645  154.5720   29.9535 H   0  0  0  0  0  0  0  0  0  0  0  0
   52.6843  157.7507   28.4811 H   0  0  0  0  0  0  0  0  0  0  0  0
   53.3186  156.2645   29.3372 H   0  0  0  0  0  0  0  0  0  0  0  0
   51.6652  154.1588   28.0240 H   0  0  0  0  0  0  0  0  0  0  0  0
   51.8855  152.9748   25.8436 H   0  0  0  0  0  0  0  0  0  0  0  0
   53.0304  154.0856   23.9271 H   0  0  0  0  0  0  0  0  0  0  0  0
   53.9646  156.3809   24.1954 H   0  0  0  0  0  0  0  0  0  0  0  0
   53.7505  157.5706   26.3728 H   0  0  0  0  0  0  0  0  0  0  0  0
  1  2  3  0
  2  3  1  0
  3  4  1  0
  4  5  1  0
  4  6  1  0
  6  7  1  0
  6  8  1  0
  8  9  1  0
  9 10  2  0
 10 11  1  0
 11 12  2  0
 12 13  1  0
 13 14  2  0
 14  9  1  0
  1 15  1  0
  3 16  1  0
  3 17  1  0
  4 18  1  1
  5 19  1  0
  5 20  1  0
  5 21  1  0
  6 22  1  6
  7 23  1  0
  7 24  1  0
  7 25  1  0
  8 26  1  0
  8 27  1  0
 10 28  1  0
 11 29  1  0
 12 30  1  0
 13 31  1  0
 14 32  1  0
M  CHG  1   4   1
M  END
>  <meeko>  (7) 
{"is_sidechain": [false], "free_energy": -6.878, "intermolecular_energy": -8.669, "internal_energy": -0.101}

$$$$
selegiline_out
     RDKit          3D

 32 32  0  0  0  0  0  0  0  0999 V2000
   49.8060  158.3510   30.4360 C   0  0  0  0  0  0  0  0  0  0  0  0
   50.8330  157.9590   29.9510 C   0  0  0  0  0  0  0  0  0  0  0  0
   52.0960  157.4840   29.3600 C   0  0  0  0  0  0  0  0  0  0  0  0
   52.0690  156.0330   29.1140 N   0  0  1  0  0  0  0  0  0  0  0  0
   50.7060  155.5050   29.2210 C   0  0  0  0  0  0  0  0  0  0  0  0
   52.7550  155.6760   27.8440 C   0  0  2  0  0  0  0  0  0  0  0  0
   53.1120  156.8830   26.9600 C   0  0  0  0  0  0  0  0  0  0  0  0
   51.9240  154.6260   27.0560 C   0  0  0  0  0  0  0  0  0  0  0  0
   52.7280  153.8580   26.0300 C   0  0  0  0  0  0  0  0  0  0  0  0
   53.0210  154.4240   24.7810 C   0  0  0  0  0  0  0  0  0  0  0  0
   53.7700  153.7160   23.8410 C   0  0  0  0  0  0  0  0  0  0  0  0
   54.2340  152.4350   24.1390 C   0  0  0  0  0  0  0  0  0  0  0  0
   53.9460  151.8620   25.3750 C   0  0  0  0  0  0  0  0  0  0  0  0
   53.1970  152.5680   26.3170 C   0  0  0  0  0  0  0  0  0  0  0  0
   48.8658  158.7099   30.8800 H   0  0  0  0  0  0  0  0  0  0  0  0
   52.2610  158.0046   28.4052 H   0  0  0  0  0  0  0  0  0  0  0  0
   52.9088  157.6968   30.0700 H   0  0  0  0  0  0  0  0  0  0  0  0
   52.6070  155.5720   29.8470 H   0  0  0  0  0  0  0  0  0  0  0  0
   50.4356  155.4003   30.2821 H   0  0  0  0  0  0  0  0  0  0  0  0
   50.0053  156.1967   28.7306 H   0  0  0  0  0  0  0  0  0  0  0  0
   50.6541  154.5217   28.7306 H   0  0  0  0  0  0  0  0  0  0  0  0
   53.7207  155.2349   28.1319 H   0  0  0  0  0  0  0  0  0  0  0  0
   53.3662  157.7423   27.5980 H   0  0  0  0  0  0  0  0  0  0  0  0
   53.9738  156.6302   26.3249 H   0  0  0  0  0  0  0  0  0  0  0  0
   52.2513  157.1397   26.3249 H   0  0  0  0  0  0  0  0  0  0  0  0
   51.5015  153.9079   27.7742 H   0  0  0  0  0  0  0  0  0  0  0  0
   51.1469  155.1781   26.5070 H   0  0  0  0  0  0  0  0  0  0  0  0
   52.6575  155.4340   24.5406 H   0  0  0  0  0  0  0  0  0  0  0  0
   53.9949  154.1684   22.8639 H   0  0  0  0  0  0  0  0  0  0  0  0
   54.8268  151.8779   23.3985 H   0  0  0  0  0  0  0  0  0  0  0  0
   54.3097  150.8507   25.6092 H   0  0  0  0  0  0  0  0  0  0  0  0
   52.9729  152.1095   27.2915 H   0  0  0  0  0  0  0  0  0  0  0  0
  1  2  3  0
  2  3  1  0
  3  4  1  0
  4  5  1  0
  4  6  1  0
  6  7  1  0
  6  8  1  0
  8  9  1  0
  9 10  2  0
 10 11  1  0
 11 12  2  0
 12 13  1  0
 13 14  2  0
 14  9  1  0
  1 15  1  0
  3 16  1  0
  3 17  1  0
  4 18  1  1
  5 19  1  0
  5 20  1  0
  5 21  1  0
  6 22  1  1
  7 23  1  0
  7 24  1  0
  7 25  1  0
  8 26  1  0
  8 27  1  0
 10 28  1  0
 11 29  1  0
 12 30  1  0
 13 31  1  0
 14 32  1  0
M  CHG  1   4   1
M  END
>  <meeko>  (8) 
{"is_sidechain": [false], "free_energy": -6.867, "intermolecular_energy": -8.864, "internal_energy": 0.109}

$$$$
selegiline_out
     RDKit          3D

 32 32  0  0  0  0  0  0  0  0999 V2000
   49.4390  161.4040   33.4730 C   0  0  0  0  0  0  0  0  0  0  0  0
   49.2450  161.2860   32.2940 C   0  0  0  0  0  0  0  0  0  0  0  0
   49.0010  161.1470   30.8470 C   0  0  0  0  0  0  0  0  0  0  0  0
   50.2150  160.7220   30.1310 N   0  0  1  0  0  0  0  0  0  0  0  0
   51.4230  161.1180   30.8580 C   0  0  0  0  0  0  0  0  0  0  0  0
   50.1700  159.2780   29.7790 C   0  0  2  0  0  0  0  0  0  0  0  0
   49.0220  158.5020   30.4470 C   0  0  0  0  0  0  0  0  0  0  0  0
   51.5430  158.6080   30.0630 C   0  0  0  0  0  0  0  0  0  0  0  0
   51.7900  157.3560   29.2500 C   0  0  0  0  0  0  0  0  0  0  0  0
   52.6080  157.3920   28.1120 C   0  0  0  0  0  0  0  0  0  0  0  0
   52.8400  156.2330   27.3710 C   0  0  0  0  0  0  0  0  0  0  0  0
   52.2570  155.0270   27.7590 C   0  0  0  0  0  0  0  0  0  0  0  0
   51.4400  154.9810   28.8860 C   0  0  0  0  0  0  0  0  0  0  0  0
   51.2060  156.1390   29.6290 C   0  0  0  0  0  0  0  0  0  0  0  0
   49.6167  161.5121   34.5531 H   0  0  0  0  0  0  0  0  0  0  0  0
   48.2121  160.3970   30.6885 H   0  0  0  0  0  0  0  0  0  0  0  0
   48.6954  162.1279   30.4539 H   0  0  0  0  0  0  0  0  0  0  0  0
   50.2500  161.2130   29.2380 H   0  0  0  0  0  0  0  0  0  0  0  0
   51.2362  161.0568   31.9403 H   0  0  0  0  0  0  0  0  0  0  0  0
   52.2498  160.4439   30.5899 H   0  0  0  0  0  0  0  0  0  0  0  0
   51.6903  162.1508   30.5899 H   0  0  0  0  0  0  0  0  0  0  0  0
   49.9583  159.2332   28.7005 H   0  0  0  0  0  0  0  0  0  0  0  0
   49.1215  158.5692   31.5404 H   0  0  0  0  0  0  0  0  0  0  0  0
   48.0588  158.9350   30.1391 H   0  0  0  0  0  0  0  0  0  0  0  0
   49.0648  157.4468   30.1391 H   0  0  0  0  0  0  0  0  0  0  0  0
   52.3373  159.3334   29.8331 H   0  0  0  0  0  0  0  0  0  0  0  0
   51.5410  158.3082   31.1214 H   0  0  0  0  0  0  0  0  0  0  0  0
   53.0701  158.3406   27.8012 H   0  0  0  0  0  0  0  0  0  0  0  0
   53.4835  156.2704   26.4797 H   0  0  0  0  0  0  0  0  0  0  0  0
   52.4422  154.1131   27.1756 H   0  0  0  0  0  0  0  0  0  0  0  0
   50.9783  154.0303   29.1910 H   0  0  0  0  0  0  0  0  0  0  0  0
   50.5592  156.0966   30.5177 H   0  0  0  0  0  0  0  0  0  0  0  0
  1  2  3  0
  2  3  1  0
  3  4  1  0
  4  5  1  0
  4  6  1  0
  6  7  1  0
  6  8  1  0
  8  9  1  0
  9 10  2  0
 10 11  1  0
 11 12  2  0
 12 13  1  0
 13 14  2  0
 14  9  1  0
  1 15  1  0
  3 16  1  0
  3 17  1  0
  4 18  1  6
  5 19  1  0
  5 20  1  0
  5 21  1  0
  6 22  1  6
  7 23  1  0
  7 24  1  0
  7 25  1  0
  8 26  1  0
  8 27  1  0
 10 28  1  0
 11 29  1  0
 12 30  1  0
 13 31  1  0
 14 32  1  0
M  CHG  1   4   1
M  END
>  <meeko>  (9) 
{"is_sidechain": [false], "free_energy": -6.817, "intermolecular_energy": -8.807, "internal_energy": 0.113}

$$$$
