selegiline_out
     RDKit          3D

 32 32  0  0  0  0  0  0  0  0999 V2000
   54.2290  149.1950   24.7140 C   0  0  0  0  0  0  0  0  0  0  0  0
   54.1140  150.3690   24.4860 C   0  0  0  0  0  0  0  0  0  0  0  0
   53.9680  151.8070   24.2020 C   0  0  0  0  0  0  0  0  0  0  0  0
   54.4690  152.6340   25.3130 N   0  0  1  0  0  0  0  0  0  0  0  0
   55.2550  153.7650   24.8170 C   0  0  0  0  0  0  0  0  0  0  0  0
   53.3780  153.0210   26.2460 C   0  0  2  0  0  0  0  0  0  0  0  0
   52.2390  151.9920   26.3470 C   0  0  0  0  0  0  0  0  0  0  0  0
   52.8330  154.4310   25.8870 C   0  0  0  0  0  0  0  0  0  0  0  0
   52.4940  155.2790   27.0940 C   0  0  0  0  0  0  0  0  0  0  0  0
   52.9250  156.6110   27.1750 C   0  0  0  0  0  0  0  0  0  0  0  0
   52.6030  157.3910   28.2860 C   0  0  0  0  0  0  0  0  0  0  0  0
   51.8480  156.8500   29.3260 C   0  0  0  0  0  0  0  0  0  0  0  0
   51.4180  155.5270   29.2560 C   0  0  0  0  0  0  0  0  0  0  0  0
   51.7390  154.7440   28.1470 C   0  0  0  0  0  0  0  0  0  0  0  0
   54.3343  148.1201   24.9227 H   0  0  0  0  0  0  0  0  0  0  0  0
   54.5359  152.0503   23.2919 H   0  0  0  0  0  0  0  0  0  0  0  0
   52.8979  152.0237   24.0679 H   0  0  0  0  0  0  0  0  0  0  0  0
   55.1090  152.0690   25.8710 H   0  0  0  0  0  0  0  0  0  0  0  0
   55.6524  154.3368   25.6685 H   0  0  0  0  0  0  0  0  0  0  0  0
   56.0891  153.3915   24.2049 H   0  0  0  0  0  0  0  0  0  0  0  0
   54.6141  154.4166   24.2049 H   0  0  0  0  0  0  0  0  0  0  0  0
   53.8299  153.0484   27.2485 H   0  0  0  0  0  0  0  0  0  0  0  0
   52.0180  151.7924   27.4059 H   0  0  0  0  0  0  0  0  0  0  0  0
   51.3402  152.3904   25.8536 H   0  0  0  0  0  0  0  0  0  0  0  0
   52.5443  151.0575   25.8536 H   0  0  0  0  0  0  0  0  0  0  0  0
   53.5965  154.9580   25.2959 H   0  0  0  0  0  0  0  0  0  0  0  0
   51.8979  154.2808   25.3275 H   0  0  0  0  0  0  0  0  0  0  0  0
   53.5206  157.0435   26.3576 H   0  0  0  0  0  0  0  0  0  0  0  0
   52.9454  158.4349   28.3416 H   0  0  0  0  0  0  0  0  0  0  0  0
   51.5924  157.4669   30.2001 H   0  0  0  0  0  0  0  0  0  0  0  0
   50.8241  155.0987   30.0769 H   0  0  0  0  0  0  0  0  0  0  0  0
   51.3973  153.6995   28.0985 H   0  0  0  0  0  0  0  0  0  0  0  0
  1  2  3  0
  2  3  1  0
  3  4  1  0
  4  5  1  0
  4  6  1  0
  6  7  1  0
  6  8  1  0
  8  9  1  0
  9 10  2  0
 10 11  1  0
 11 12  2  0
 12 13  1  0
 13 14  2  0
 14  9  1  0
  1 15  1  0
  3 16  1  0
  3 17  1  0
  4 18  1  1
  5 19  1  0
  5 20  1  0
  5 21  1  0
  6 22  1  1
  7 23  1  0
  7 24  1  0
  7 25  1  0
  8 26  1  0
  8 27  1  0
 10 28  1  0
 11 29  1  0
 12 30  1  0
 13 31  1  0
 14 32  1  0
M  CHG  1   4   1
M  END
>  <meeko>  (1) 
{"is_sidechain": [false], "free_energy": -7.776, "intermolecular_energy": -9.594, "internal_energy": 0.168}

$$$$
selegiline_out
     RDKit          3D

 32 32  0  0  0  0  0  0  0  0999 V2000
   54.0540  150.6090   24.6280 C   0  0  0  0  0  0  0  0  0  0  0  0
   53.9710  151.7020   25.1190 C   0  0  0  0  0  0  0  0  0  0  0  0
   53.8760  153.0450   25.7170 C   0  0  0  0  0  0  0  0  0  0  0  0
   52.4900  153.3780   26.0860 N   0  0  1  0  0  0  0  0  0  0  0  0
   51.9490  152.4060   27.0400 C   0  0  0  0  0  0  0  0  0  0  0  0
   52.3620  154.7910   26.5270 C   0  0  2  0  0  0  0  0  0  0  0  0
   53.1440  155.7950   25.6630 C   0  0  0  0  0  0  0  0  0  0  0  0
   52.7380  154.9260   28.0280 C   0  0  0  0  0  0  0  0  0  0  0  0
   52.0020  156.0390   28.7440 C   0  0  0  0  0  0  0  0  0  0  0  0
   52.5560  157.3240   28.8270 C   0  0  0  0  0  0  0  0  0  0  0  0
   51.8700  158.3480   29.4800 C   0  0  0  0  0  0  0  0  0  0  0  0
   50.6260  158.1000   30.0570 C   0  0  0  0  0  0  0  0  0  0  0  0
   50.0680  156.8250   29.9820 C   0  0  0  0  0  0  0  0  0  0  0  0
   50.7520  155.7990   29.3300 C   0  0  0  0  0  0  0  0  0  0  0  0
   54.1300  149.6080   24.1783 H   0  0  0  0  0  0  0  0  0  0  0  0
   54.5036  153.0788   26.6198 H   0  0  0  0  0  0  0  0  0  0  0  0
   54.2189  153.7780   24.9720 H   0  0  0  0  0  0  0  0  0  0  0  0
   51.9090  153.3040   25.2510 H   0  0  0  0  0  0  0  0  0  0  0  0
   52.1420  152.7527   28.0659 H   0  0  0  0  0  0  0  0  0  0  0  0
   50.8647  152.3046   26.8851 H   0  0  0  0  0  0  0  0  0  0  0  0
   52.4342  151.4311   26.8851 H   0  0  0  0  0  0  0  0  0  0  0  0
   51.3038  155.0584   26.3906 H   0  0  0  0  0  0  0  0  0  0  0  0
   53.6884  156.4939   26.3151 H   0  0  0  0  0  0  0  0  0  0  0  0
   53.8600  155.2526   25.0280 H   0  0  0  0  0  0  0  0  0  0  0  0
   52.4429  156.3564   25.0280 H   0  0  0  0  0  0  0  0  0  0  0  0
   52.5045  153.9760   28.5310 H   0  0  0  0  0  0  0  0  0  0  0  0
   53.8094  155.1716   28.0694 H   0  0  0  0  0  0  0  0  0  0  0  0
   53.5379  157.5261   28.3743 H   0  0  0  0  0  0  0  0  0  0  0  0
   52.3119  159.3536   29.5396 H   0  0  0  0  0  0  0  0  0  0  0  0
   50.0856  158.9088   30.5706 H   0  0  0  0  0  0  0  0  0  0  0  0
   49.0865  156.6275   30.4378 H   0  0  0  0  0  0  0  0  0  0  0  0
   50.3070  154.7945   29.2755 H   0  0  0  0  0  0  0  0  0  0  0  0
  1  2  3  0
  2  3  1  0
  3  4  1  0
  4  5  1  0
  4  6  1  0
  6  7  1  0
  6  8  1  0
  8  9  1  0
  9 10  2  0
 10 11  1  0
 11 12  2  0
 12 13  1  0
 13 14  2  0
 14  9  1  0
  1 15  1  0
  3 16  1  0
  3 17  1  0
  4 18  1  6
  5 19  1  0
  5 20  1  0
  5 21  1  0
  6 22  1  1
  7 23  1  0
  7 24  1  0
  7 25  1  0
  8 26  1  0
  8 27  1  0
 10 28  1  0
 11 29  1  0
 12 30  1  0
 13 31  1  0
 14 32  1  0
M  CHG  1   4   1
M  END
>  <meeko>  (2) 
{"is_sidechain": [false], "free_energy": -7.733, "intermolecular_energy": -9.024, "internal_energy": -0.35}

$$$$
selegiline_out
     RDKit          3D

 32 32  0  0  0  0  0  0  0  0999 V2000
   54.9330  156.5100   24.2930 C   0  0  0  0  0  0  0  0  0  0  0  0
   55.0530  155.3310   24.4870 C   0  0  0  0  0  0  0  0  0  0  0  0
   55.2070  153.8860   24.7290 C   0  0  0  0  0  0  0  0  0  0  0  0
   53.9220  153.1760   24.6140 N   0  0  1  0  0  0  0  0  0  0  0  0
   54.1070  151.8400   24.0420 C   0  0  0  0  0  0  0  0  0  0  0  0
   53.1720  153.1830   25.8980 C   0  0  2  0  0  0  0  0  0  0  0  0
   52.5920  151.8170   26.2980 C   0  0  0  0  0  0  0  0  0  0  0  0
   52.0710  154.2790   25.8750 C   0  0  0  0  0  0  0  0  0  0  0  0
   52.0530  155.1520   27.1110 C   0  0  0  0  0  0  0  0  0  0  0  0
   52.7150  156.3880   27.1220 C   0  0  0  0  0  0  0  0  0  0  0  0
   52.6890  157.1930   28.2610 C   0  0  0  0  0  0  0  0  0  0  0  0
   52.0020  156.7740   29.3980 C   0  0  0  0  0  0  0  0  0  0  0  0
   51.3430  155.5460   29.3990 C   0  0  0  0  0  0  0  0  0  0  0  0
   51.3680  154.7380   28.2610 C   0  0  0  0  0  0  0  0  0  0  0  0
   54.8231  157.5900   24.1153 H   0  0  0  0  0  0  0  0  0  0  0  0
   55.9099  153.4735   23.9903 H   0  0  0  0  0  0  0  0  0  0  0  0
   55.5857  153.7475   25.7524 H   0  0  0  0  0  0  0  0  0  0  0  0
   53.3320  153.6840   23.9560 H   0  0  0  0  0  0  0  0  0  0  0  0
   54.2088  151.1045   24.8536 H   0  0  0  0  0  0  0  0  0  0  0  0
   53.2359  151.5830   23.4215 H   0  0  0  0  0  0  0  0  0  0  0  0
   55.0152  151.8294   23.4215 H   0  0  0  0  0  0  0  0  0  0  0  0
   53.9080  153.4209   26.6801 H   0  0  0  0  0  0  0  0  0  0  0  0
   52.5591  151.7396   27.3948 H   0  0  0  0  0  0  0  0  0  0  0  0
   51.5742  151.7179   25.8927 H   0  0  0  0  0  0  0  0  0  0  0  0
   53.2276  151.0159   25.8927 H   0  0  0  0  0  0  0  0  0  0  0  0
   52.2398  154.9220   24.9986 H   0  0  0  0  0  0  0  0  0  0  0  0
   51.1022  153.7595   25.8353 H   0  0  0  0  0  0  0  0  0  0  0  0
   53.2583  156.7250   26.2269 H   0  0  0  0  0  0  0  0  0  0  0  0
   53.2121  158.1606   28.2613 H   0  0  0  0  0  0  0  0  0  0  0  0
   51.9797  157.4116   30.2941 H   0  0  0  0  0  0  0  0  0  0  0  0
   50.8026  155.2131   30.2974 H   0  0  0  0  0  0  0  0  0  0  0  0
   50.8463  153.7696   28.2671 H   0  0  0  0  0  0  0  0  0  0  0  0
  1  2  3  0
  2  3  1  0
  3  4  1  0
  4  5  1  0
  4  6  1  0
  6  7  1  0
  6  8  1  0
  8  9  1  0
  9 10  2  0
 10 11  1  0
 11 12  2  0
 12 13  1  0
 13 14  2  0
 14  9  1  0
  1 15  1  0
  3 16  1  0
  3 17  1  0
  4 18  1  6
  5 19  1  0
  5 20  1  0
  5 21  1  0
  6 22  1  1
  7 23  1  0
  7 24  1  0
  7 25  1  0
  8 26  1  0
  8 27  1  0
 10 28  1  0
 11 29  1  0
 12 30  1  0
 13 31  1  0
 14 32  1  0
M  CHG  1   4   1
M  END
>  <meeko>  (3) 
{"is_sidechain": [false], "free_energy": -7.637, "intermolecular_energy": -8.665, "internal_energy": -0.59}

$$$$
selegiline_out
     RDKit          3D

 32 32  0  0  0  0  0  0  0  0999 V2000
   54.2060  149.7280   24.5150 C   0  0  0  0  0  0  0  0  0  0  0  0
   53.8560  150.6920   25.1410 C   0  0  0  0  0  0  0  0  0  0  0  0
   53.4230  151.8690   25.9130 C   0  0  0  0  0  0  0  0  0  0  0  0
   54.3660  152.9900   25.7690 N   0  0  1  0  0  0  0  0  0  0  0  0
   55.7380  152.5060   25.5930 C   0  0  0  0  0  0  0  0  0  0  0  0
   53.9260  153.9500   24.7220 C   0  0  2  0  0  0  0  0  0  0  0  0
   54.9210  155.0910   24.4540 C   0  0  0  0  0  0  0  0  0  0  0  0
   52.5110  154.5000   25.0530 C   0  0  0  0  0  0  0  0  0  0  0  0
   52.4210  155.1780   26.4030 C   0  0  0  0  0  0  0  0  0  0  0  0
   52.9960  156.4390   26.6090 C   0  0  0  0  0  0  0  0  0  0  0  0
   52.9020  157.0640   27.8540 C   0  0  0  0  0  0  0  0  0  0  0  0
   52.2340  156.4350   28.9030 C   0  0  0  0  0  0  0  0  0  0  0  0
   51.6610  155.1800   28.7090 C   0  0  0  0  0  0  0  0  0  0  0  0
   51.7540  154.5530   27.4660 C   0  0  0  0  0  0  0  0  0  0  0  0
   54.5264  148.8455   23.9419 H   0  0  0  0  0  0  0  0  0  0  0  0
   52.4332  152.1870   25.5535 H   0  0  0  0  0  0  0  0  0  0  0  0
   53.3839  151.5874   26.9756 H   0  0  0  0  0  0  0  0  0  0  0  0
   54.3670  153.5240   26.6380 H   0  0  0  0  0  0  0  0  0  0  0  0
   56.1987  152.3435   26.5786 H   0  0  0  0  0  0  0  0  0  0  0  0
   55.7238  151.5586   25.0342 H   0  0  0  0  0  0  0  0  0  0  0  0
   56.3213  153.2526   25.0342 H   0  0  0  0  0  0  0  0  0  0  0  0
   53.8850  153.3799   23.7822 H   0  0  0  0  0  0  0  0  0  0  0  0
   55.2771  155.4994   25.4113 H   0  0  0  0  0  0  0  0  0  0  0  0
   55.7758  154.7047   23.8795 H   0  0  0  0  0  0  0  0  0  0  0  0
   54.4220  155.8853   23.8795 H   0  0  0  0  0  0  0  0  0  0  0  0
   52.2326  155.2301   24.2787 H   0  0  0  0  0  0  0  0  0  0  0  0
   51.8297  153.6368   25.0813 H   0  0  0  0  0  0  0  0  0  0  0  0
   53.5248  156.9398   25.7846 H   0  0  0  0  0  0  0  0  0  0  0  0
   53.3558  158.0542   28.0071 H   0  0  0  0  0  0  0  0  0  0  0  0
   52.1592  156.9289   29.8831 H   0  0  0  0  0  0  0  0  0  0  0  0
   51.1345  154.6827   29.5370 H   0  0  0  0  0  0  0  0  0  0  0  0
   51.3009  153.5615   27.3191 H   0  0  0  0  0  0  0  0  0  0  0  0
  1  2  3  0
  2  3  1  0
  3  4  1  0
  4  5  1  0
  4  6  1  0
  6  7  1  0
  6  8  1  0
  8  9  1  0
  9 10  2  0
 10 11  1  0
 11 12  2  0
 12 13  1  0
 13 14  2  0
 14  9  1  0
  1 15  1  0
  3 16  1  0
  3 17  1  0
  4 18  1  1
  5 19  1  0
  5 20  1  0
  5 21  1  0
  6 22  1  6
  7 23  1  0
  7 24  1  0
  7 25  1  0
  8 26  1  0
  8 27  1  0
 10 28  1  0
 11 29  1  0
 12 30  1  0
 13 31  1  0
 14 32  1  0
M  CHG  1   4   1
M  END
>  <meeko>  (4) 
{"is_sidechain": [false], "free_energy": -7.591, "intermolecular_energy": -9.345, "internal_energy": 0.146}

$$$$
selegiline_out
     RDKit          3D

 32 32  0  0  0  0  0  0  0  0999 V2000
   49.3510  156.3190   29.7260 C   0  0  0  0  0  0  0  0  0  0  0  0
   50.5440  156.3500   29.5930 C   0  0  0  0  0  0  0  0  0  0  0  0
   52.0080  156.3930   29.4340 C   0  0  0  0  0  0  0  0  0  0  0  0
   52.5330  155.1300   28.8890 N   0  0  1  0  0  0  0  0  0  0  0  0
   51.6180  154.0190   29.1580 C   0  0  0  0  0  0  0  0  0  0  0  0
   52.9160  155.2640   27.4590 C   0  0  2  0  0  0  0  0  0  0  0  0
   52.9480  156.7140   26.9480 C   0  0  0  0  0  0  0  0  0  0  0  0
   52.0060  154.3730   26.5690 C   0  0  0  0  0  0  0  0  0  0  0  0
   52.7650  153.3560   25.7460 C   0  0  0  0  0  0  0  0  0  0  0  0
   53.4280  153.7390   24.5720 C   0  0  0  0  0  0  0  0  0  0  0  0
   54.1350  152.7990   23.8200 C   0  0  0  0  0  0  0  0  0  0  0  0
   54.1850  151.4690   24.2330 C   0  0  0  0  0  0  0  0  0  0  0  0
   53.5270  151.0770   25.3970 C   0  0  0  0  0  0  0  0  0  0  0  0
   52.8200  152.0150   26.1510 C   0  0  0  0  0  0  0  0  0  0  0  0
   48.2581  156.2906   29.8478 H   0  0  0  0  0  0  0  0  0  0  0  0
   52.2684  157.2129   28.7484 H   0  0  0  0  0  0  0  0  0  0  0  0
   52.4565  156.5517   30.4258 H   0  0  0  0  0  0  0  0  0  0  0  0
   53.4000  154.9050   29.3780 H   0  0  0  0  0  0  0  0  0  0  0  0
   51.5100  153.8879   30.2448 H   0  0  0  0  0  0  0  0  0  0  0  0
   50.6350  154.2382   28.7156 H   0  0  0  0  0  0  0  0  0  0  0  0
   52.0216  153.0963   28.7156 H   0  0  0  0  0  0  0  0  0  0  0  0
   53.9554  154.9110   27.3871 H   0  0  0  0  0  0  0  0  0  0  0  0
   52.9632  157.4043   27.8043 H   0  0  0  0  0  0  0  0  0  0  0  0
   53.8498  156.8677   26.3371 H   0  0  0  0  0  0  0  0  0  0  0  0
   52.0539  156.9073   26.3371 H   0  0  0  0  0  0  0  0  0  0  0  0
   51.3020  153.8356   27.2213 H   0  0  0  0  0  0  0  0  0  0  0  0
   51.4961  155.0424   25.8606 H   0  0  0  0  0  0  0  0  0  0  0  0
   53.3910  154.7873   24.2409 H   0  0  0  0  0  0  0  0  0  0  0  0
   54.6532  153.1085   22.9004 H   0  0  0  0  0  0  0  0  0  0  0  0
   54.7434  150.7293   23.6406 H   0  0  0  0  0  0  0  0  0  0  0  0
   53.5648  150.0268   25.7222 H   0  0  0  0  0  0  0  0  0  0  0  0
   52.3025  151.6999   27.0691 H   0  0  0  0  0  0  0  0  0  0  0  0
  1  2  3  0
  2  3  1  0
  3  4  1  0
  4  5  1  0
  4  6  1  0
  6  7  1  0
  6  8  1  0
  8  9  1  0
  9 10  2  0
 10 11  1  0
 11 12  2  0
 12 13  1  0
 13 14  2  0
 14  9  1  0
  1 15  1  0
  3 16  1  0
  3 17  1  0
  4 18  1  1
  5 19  1  0
  5 20  1  0
  5 21  1  0
  6 22  1  1
  7 23  1  0
  7 24  1  0
  7 25  1  0
  8 26  1  0
  8 27  1  0
 10 28  1  0
 11 29  1  0
 12 30  1  0
 13 31  1  0
 14 32  1  0
M  CHG  1   4   1
M  END
>  <meeko>  (5) 
{"is_sidechain": [false], "free_energy": -7.554, "intermolecular_energy": -8.911, "internal_energy": -0.242}

$$$$
selegiline_out
     RDKit          3D

 32 32  0  0  0  0  0  0  0  0999 V2000
   49.5630  156.6350   29.8660 C   0  0  0  0  0  0  0  0  0  0  0  0
   50.7300  156.6140   29.5830 C   0  0  0  0  0  0  0  0  0  0  0  0
   52.1630  156.5940   29.2420 C   0  0  0  0  0  0  0  0  0  0  0  0
   52.5760  155.2850   28.7080 N   0  0  1  0  0  0  0  0  0  0  0  0
   51.5620  154.2630   28.9750 C   0  0  0  0  0  0  0  0  0  0  0  0
   52.9800  155.3750   27.2800 C   0  0  2  0  0  0  0  0  0  0  0  0
   53.0370  156.8100   26.7300 C   0  0  0  0  0  0  0  0  0  0  0  0
   52.0720  154.4700   26.4030 C   0  0  0  0  0  0  0  0  0  0  0  0
   52.8290  153.4090   25.6340 C   0  0  0  0  0  0  0  0  0  0  0  0
   52.8930  152.0920   26.1090 C   0  0  0  0  0  0  0  0  0  0  0  0
   53.5860  151.1150   25.3920 C   0  0  0  0  0  0  0  0  0  0  0  0
   54.2200  151.4440   24.1950 C   0  0  0  0  0  0  0  0  0  0  0  0
   54.1650  152.7510   23.7160 C   0  0  0  0  0  0  0  0  0  0  0  0
   53.4740  153.7300   24.4310 C   0  0  0  0  0  0  0  0  0  0  0  0
   48.4941  156.6542   30.1252 H   0  0  0  0  0  0  0  0  0  0  0  0
   52.3603  157.3667   28.4844 H   0  0  0  0  0  0  0  0  0  0  0  0
   52.7374  156.7874   30.1600 H   0  0  0  0  0  0  0  0  0  0  0  0
   53.4150  154.9850   29.2050 H   0  0  0  0  0  0  0  0  0  0  0  0
   51.4413  154.1413   30.0616 H   0  0  0  0  0  0  0  0  0  0  0  0
   50.6039  154.5725   28.5320 H   0  0  0  0  0  0  0  0  0  0  0  0
   51.8791  153.3074   28.5320 H   0  0  0  0  0  0  0  0  0  0  0  0
   54.0160  155.0083   27.2317 H   0  0  0  0  0  0  0  0  0  0  0  0
   53.0653  157.5228   27.5674 H   0  0  0  0  0  0  0  0  0  0  0  0
   53.9407  156.9312   26.1146 H   0  0  0  0  0  0  0  0  0  0  0  0
   52.1458  157.0025   26.1146 H   0  0  0  0  0  0  0  0  0  0  0  0
   51.3436  153.9702   27.0584 H   0  0  0  0  0  0  0  0  0  0  0  0
   51.5905  155.1226   25.6599 H   0  0  0  0  0  0  0  0  0  0  0  0
   52.3941  151.8265   27.0527 H   0  0  0  0  0  0  0  0  0  0  0  0
   53.6318  150.0838   25.7723 H   0  0  0  0  0  0  0  0  0  0  0  0
   54.7631  150.6726   23.6293 H   0  0  0  0  0  0  0  0  0  0  0  0
   54.6671  153.0117   22.7726 H   0  0  0  0  0  0  0  0  0  0  0  0
   53.4350  154.7606   24.0483 H   0  0  0  0  0  0  0  0  0  0  0  0
  1  2  3  0
  2  3  1  0
  3  4  1  0
  4  5  1  0
  4  6  1  0
  6  7  1  0
  6  8  1  0
  8  9  1  0
  9 10  2  0
 10 11  1  0
 11 12  2  0
 12 13  1  0
 13 14  2  0
 14  9  1  0
  1 15  1  0
  3 16  1  0
  3 17  1  0
  4 18  1  1
  5 19  1  0
  5 20  1  0
  5 21  1  0
  6 22  1  1
  7 23  1  0
  7 24  1  0
  7 25  1  0
  8 26  1  0
  8 27  1  0
 10 28  1  0
 11 29  1  0
 12 30  1  0
 13 31  1  0
 14 32  1  0
M  CHG  1   4   1
M  END
>  <meeko>  (6) 
{"is_sidechain": [false], "free_energy": -7.488, "intermolecular_energy": -8.882, "internal_energy": -0.189}

$$$$
selegiline_out
     RDKit          3D

 32 32  0  0  0  0  0  0  0  0999 V2000
   46.9670  159.6800   31.6140 C   0  0  0  0  0  0  0  0  0  0  0  0
   47.8140  160.5050   31.4010 C   0  0  0  0  0  0  0  0  0  0  0  0
   48.8480  161.5210   31.1370 C   0  0  0  0  0  0  0  0  0  0  0  0
   50.0050  161.3640   32.0340 N   0  0  1  0  0  0  0  0  0  0  0  0
   49.6040  160.7790   33.3150 C   0  0  0  0  0  0  0  0  0  0  0  0
   51.1240  160.6470   31.3680 C   0  0  2  0  0  0  0  0  0  0  0  0
   52.4200  161.4670   31.2540 C   0  0  0  0  0  0  0  0  0  0  0  0
   50.6740  160.1090   29.9820 C   0  0  0  0  0  0  0  0  0  0  0  0
   50.8910  158.6210   29.8060 C   0  0  0  0  0  0  0  0  0  0  0  0
   49.8690  157.7100   30.1020 C   0  0  0  0  0  0  0  0  0  0  0  0
   50.0710  156.3400   29.9300 C   0  0  0  0  0  0  0  0  0  0  0  0
   51.2950  155.8670   29.4600 C   0  0  0  0  0  0  0  0  0  0  0  0
   52.3190  156.7650   29.1650 C   0  0  0  0  0  0  0  0  0  0  0  0
   52.1200  158.1350   29.3370 C   0  0  0  0  0  0  0  0  0  0  0  0
   46.1915  158.9246   31.8090 H   0  0  0  0  0  0  0  0  0  0  0  0
   49.1879  161.4219   30.0955 H   0  0  0  0  0  0  0  0  0  0  0  0
   48.4079  162.5134   31.3144 H   0  0  0  0  0  0  0  0  0  0  0  0
   50.3720  162.2900   32.2500 H   0  0  0  0  0  0  0  0  0  0  0  0
   50.0166  161.3809   34.1381 H   0  0  0  0  0  0  0  0  0  0  0  0
   48.5063  160.7661   33.3846 H   0  0  0  0  0  0  0  0  0  0  0  0
   49.9879  159.7505   33.3846 H   0  0  0  0  0  0  0  0  0  0  0  0
   51.3766  159.8006   32.0236 H   0  0  0  0  0  0  0  0  0  0  0  0
   52.7940  161.7036   32.2611 H   0  0  0  0  0  0  0  0  0  0  0  0
   53.1767  160.8830   30.7097 H   0  0  0  0  0  0  0  0  0  0  0  0
   52.2163  162.4009   30.7097 H   0  0  0  0  0  0  0  0  0  0  0  0
   49.6015  160.3203   29.8592 H   0  0  0  0  0  0  0  0  0  0  0  0
   51.2913  160.6152   29.2253 H   0  0  0  0  0  0  0  0  0  0  0  0
   48.9005  158.0771   30.4726 H   0  0  0  0  0  0  0  0  0  0  0  0
   49.2628  155.6320   30.1658 H   0  0  0  0  0  0  0  0  0  0  0  0
   51.4524  154.7871   29.3222 H   0  0  0  0  0  0  0  0  0  0  0  0
   53.2861  156.3928   28.7958 H   0  0  0  0  0  0  0  0  0  0  0  0
   52.9325  158.8387   29.1032 H   0  0  0  0  0  0  0  0  0  0  0  0
  1  2  3  0
  2  3  1  0
  3  4  1  0
  4  5  1  0
  4  6  1  0
  6  7  1  0
  6  8  1  0
  8  9  1  0
  9 10  2  0
 10 11  1  0
 11 12  2  0
 12 13  1  0
 13 14  2  0
 14  9  1  0
  1 15  1  0
  3 16  1  0
  3 17  1  0
  4 18  1  1
  5 19  1  0
  5 20  1  0
  5 21  1  0
  6 22  1  1
  7 23  1  0
  7 24  1  0
  7 25  1  0
  8 26  1  0
  8 27  1  0
 10 28  1  0
 11 29  1  0
 12 30  1  0
 13 31  1  0
 14 32  1  0
M  CHG  1   4   1
M  END
>  <meeko>  (7) 
{"is_sidechain": [false], "free_energy": -7.407, "intermolecular_energy": -8.712, "internal_energy": -0.258}

$$$$
selegiline_out
     RDKit          3D

 32 32  0  0  0  0  0  0  0  0999 V2000
   52.6230  161.4420   30.8990 C   0  0  0  0  0  0  0  0  0  0  0  0
   51.6290  161.5090   31.5710 C   0  0  0  0  0  0  0  0  0  0  0  0
   50.4110  161.5990   32.3950 C   0  0  0  0  0  0  0  0  0  0  0  0
   49.5160  160.4520   32.1680 N   0  0  1  0  0  0  0  0  0  0  0  0
   48.1520  160.7520   32.6090 C   0  0  0  0  0  0  0  0  0  0  0  0
   49.6020  159.9540   30.7700 C   0  0  2  0  0  0  0  0  0  0  0  0
   48.7390  160.7380   29.7670 C   0  0  0  0  0  0  0  0  0  0  0  0
   49.2890  158.4340   30.7160 C   0  0  0  0  0  0  0  0  0  0  0  0
   50.3520  157.6160   30.0140 C   0  0  0  0  0  0  0  0  0  0  0  0
   50.1410  156.2590   29.7340 C   0  0  0  0  0  0  0  0  0  0  0  0
   51.1210  155.5120   29.0790 C   0  0  0  0  0  0  0  0  0  0  0  0
   52.3190  156.1130   28.6970 C   0  0  0  0  0  0  0  0  0  0  0  0
   52.5400  157.4600   28.9730 C   0  0  0  0  0  0  0  0  0  0  0  0
   51.5620  158.2100   29.6280 C   0  0  0  0  0  0  0  0  0  0  0  0
   53.5329  161.3807   30.2839 H   0  0  0  0  0  0  0  0  0  0  0  0
   50.6991  161.6222   33.4563 H   0  0  0  0  0  0  0  0  0  0  0  0
   49.8726  162.5160   32.1135 H   0  0  0  0  0  0  0  0  0  0  0  0
   49.8350  159.6760   32.7480 H   0  0  0  0  0  0  0  0  0  0  0  0
   48.1155  160.7600   33.7084 H   0  0  0  0  0  0  0  0  0  0  0  0
   47.8509  161.7378   32.2249 H   0  0  0  0  0  0  0  0  0  0  0  0
   47.4651  159.9835   32.2249 H   0  0  0  0  0  0  0  0  0  0  0  0
   50.6404  160.1237   30.4492 H   0  0  0  0  0  0  0  0  0  0  0  0
   48.0327  161.3797   30.3141 H   0  0  0  0  0  0  0  0  0  0  0  0
   49.3875  161.3623   29.1348 H   0  0  0  0  0  0  0  0  0  0  0  0
   48.1796  160.0328   29.1348 H   0  0  0  0  0  0  0  0  0  0  0  0
   49.1906  158.0633   31.7470 H   0  0  0  0  0  0  0  0  0  0  0  0
   48.3611  158.3183   30.1367 H   0  0  0  0  0  0  0  0  0  0  0  0
   49.1969  155.7798   30.0324 H   0  0  0  0  0  0  0  0  0  0  0  0
   50.9477  154.4472   28.8639 H   0  0  0  0  0  0  0  0  0  0  0  0
   53.0894  155.5239   28.1779 H   0  0  0  0  0  0  0  0  0  0  0  0
   53.4868  157.9336   28.6743 H   0  0  0  0  0  0  0  0  0  0  0  0
   51.7416  159.2738   29.8427 H   0  0  0  0  0  0  0  0  0  0  0  0
  1  2  3  0
  2  3  1  0
  3  4  1  0
  4  5  1  0
  4  6  1  0
  6  7  1  0
  6  8  1  0
  8  9  1  0
  9 10  2  0
 10 11  1  0
 11 12  2  0
 12 13  1  0
 13 14  2  0
 14  9  1  0
  1 15  1  0
  3 16  1  0
  3 17  1  0
  4 18  1  1
  5 19  1  0
  5 20  1  0
  5 21  1  0
  6 22  1  6
  7 23  1  0
  7 24  1  0
  7 25  1  0
  8 26  1  0
  8 27  1  0
 10 28  1  0
 11 29  1  0
 12 30  1  0
 13 31  1  0
 14 32  1  0
M  CHG  1   4   1
M  END
>  <meeko>  (8) 
{"is_sidechain": [false], "free_energy": -7.355, "intermolecular_energy": -8.395, "internal_energy": -0.512}

$$$$
selegiline_out
     RDKit          3D

 32 32  0  0  0  0  0  0  0  0999 V2000
   53.3410  156.1890   25.2080 C   0  0  0  0  0  0  0  0  0  0  0  0
   53.0560  156.3260   26.3670 C   0  0  0  0  0  0  0  0  0  0  0  0
   52.7100  156.5000   27.7880 C   0  0  0  0  0  0  0  0  0  0  0  0
   51.5410  155.6880   28.1660 N   0  0  1  0  0  0  0  0  0  0  0  0
   51.7230  154.2880   27.7760 C   0  0  0  0  0  0  0  0  0  0  0  0
   51.1810  155.8740   29.5960 C   0  0  2  0  0  0  0  0  0  0  0  0
   51.2350  154.5840   30.4330 C   0  0  0  0  0  0  0  0  0  0  0  0
   49.7970  156.5690   29.7210 C   0  0  0  0  0  0  0  0  0  0  0  0
   49.8780  158.0170   30.1530 C   0  0  0  0  0  0  0  0  0  0  0  0
   51.0940  158.7130   30.0960 C   0  0  0  0  0  0  0  0  0  0  0  0
   51.1620  160.0500   30.4880 C   0  0  0  0  0  0  0  0  0  0  0  0
   50.0170  160.7050   30.9410 C   0  0  0  0  0  0  0  0  0  0  0  0
   48.8050  160.0210   31.0050 C   0  0  0  0  0  0  0  0  0  0  0  0
   48.7340  158.6840   30.6140 C   0  0  0  0  0  0  0  0  0  0  0  0
   53.6020  156.0635   24.1468 H   0  0  0  0  0  0  0  0  0  0  0  0
   53.5693  156.1967   28.4041 H   0  0  0  0  0  0  0  0  0  0  0  0
   52.4610  157.5586   27.9538 H   0  0  0  0  0  0  0  0  0  0  0  0
   50.7340  156.0240   27.6410 H   0  0  0  0  0  0  0  0  0  0  0  0
   51.8042  153.6637   28.6780 H   0  0  0  0  0  0  0  0  0  0  0  0
   50.8601  153.9587   27.1785 H   0  0  0  0  0  0  0  0  0  0  0  0
   52.6414  154.1902   27.1785 H   0  0  0  0  0  0  0  0  0  0  0  0
   51.9567  156.5267   30.0230 H   0  0  0  0  0  0  0  0  0  0  0  0
   51.2243  154.8403   31.5027 H   0  0  0  0  0  0  0  0  0  0  0  0
   50.3623  153.9572   30.1973 H   0  0  0  0  0  0  0  0  0  0  0  0
   52.1570  154.0323   30.1973 H   0  0  0  0  0  0  0  0  0  0  0  0
   49.2978  156.5266   28.7417 H   0  0  0  0  0  0  0  0  0  0  0  0
   49.2381  156.0323   30.5018 H   0  0  0  0  0  0  0  0  0  0  0  0
   52.0003  158.2013   29.7398 H   0  0  0  0  0  0  0  0  0  0  0  0
   52.1200  160.5885   30.4398 H   0  0  0  0  0  0  0  0  0  0  0  0
   50.0708  161.7601   31.2473 H   0  0  0  0  0  0  0  0  0  0  0  0
   47.9022  160.5364   31.3646 H   0  0  0  0  0  0  0  0  0  0  0  0
   47.7742  158.1493   30.6676 H   0  0  0  0  0  0  0  0  0  0  0  0
  1  2  3  0
  2  3  1  0
  3  4  1  0
  4  5  1  0
  4  6  1  0
  6  7  1  0
  6  8  1  0
  8  9  1  0
  9 10  2  0
 10 11  1  0
 11 12  2  0
 12 13  1  0
 13 14  2  0
 14  9  1  0
  1 15  1  0
  3 16  1  0
  3 17  1  0
  4 18  1  6
  5 19  1  0
  5 20  1  0
  5 21  1  0
  6 22  1  1
  7 23  1  0
  7 24  1  0
  7 25  1  0
  8 26  1  0
  8 27  1  0
 10 28  1  0
 11 29  1  0
 12 30  1  0
 13 31  1  0
 14 32  1  0
M  CHG  1   4   1
M  END
>  <meeko>  (9) 
{"is_sidechain": [false], "free_energy": -7.058, "intermolecular_energy": -8.219, "internal_energy": -0.322}

$$$$
