kaempferol_out
     RDKit          3D

 31 33  0  0  0  0  0  0  0  0999 V2000
   52.4830  160.6970   30.4790 O   0  0  0  0  0  0  0  0  0  0  0  0
   51.7480  159.7320   30.2810 C   0  0  0  0  0  0  0  0  0  0  0  0
   52.2750  158.5030   29.6440 C   0  0  0  0  0  0  0  0  0  0  0  0
   53.6150  158.4960   29.3030 O   0  0  0  0  0  0  0  0  0  0  0  0
   51.4360  157.4690   29.4490 C   0  0  0  0  0  0  0  0  0  0  0  0
   51.8520  156.1890   28.8360 C   0  0  0  0  0  0  0  0  0  0  0  0
   52.5170  156.1430   27.6010 C   0  0  0  0  0  0  0  0  0  0  0  0
   52.8810  154.9200   27.0270 C   0  0  0  0  0  0  0  0  0  0  0  0
   52.5720  153.7360   27.6860 C   0  0  0  0  0  0  0  0  0  0  0  0
   52.9090  152.5230   27.1640 O   0  0  0  0  0  0  0  0  0  0  0  0
   51.9060  153.7550   28.9030 C   0  0  0  0  0  0  0  0  0  0  0  0
   51.5430  154.9780   29.4760 C   0  0  0  0  0  0  0  0  0  0  0  0
   50.0950  157.4790   29.8200 O   0  0  0  0  0  0  0  0  0  0  0  0
   49.5770  158.6050   30.4060 C   0  0  0  0  0  0  0  0  0  0  0  0
   48.2260  158.5770   30.7530 C   0  0  0  0  0  0  0  0  0  0  0  0
   47.6480  159.6920   31.3520 C   0  0  0  0  0  0  0  0  0  0  0  0
   46.3260  159.6230   31.6750 O   0  0  0  0  0  0  0  0  0  0  0  0
   48.3970  160.8390   31.6110 C   0  0  0  0  0  0  0  0  0  0  0  0
   49.7450  160.8610   31.2620 C   0  0  0  0  0  0  0  0  0  0  0  0
   50.4320  162.0120   31.5390 O   0  0  0  0  0  0  0  0  0  0  0  0
   50.3350  159.7450   30.6600 C   0  0  0  0  0  0  0  0  0  0  0  0
   53.9860  159.2260   28.8460 H   0  0  0  0  0  0  0  0  0  0  0  0
   52.7552  157.0807   27.0775 H   0  0  0  0  0  0  0  0  0  0  0  0
   53.4077  154.8958   26.0616 H   0  0  0  0  0  0  0  0  0  0  0  0
   52.7380  151.7400   27.6500 H   0  0  0  0  0  0  0  0  0  0  0  0
   51.6645  152.8119   29.4151 H   0  0  0  0  0  0  0  0  0  0  0  0
   51.0099  154.9914   30.4381 H   0  0  0  0  0  0  0  0  0  0  0  0
   47.6218  157.6795   30.5544 H   0  0  0  0  0  0  0  0  0  0  0  0
   45.8470  160.4070   31.8570 H   0  0  0  0  0  0  0  0  0  0  0  0
   47.9295  161.7148   32.0846 H   0  0  0  0  0  0  0  0  0  0  0  0
   51.0710  162.3330   30.9340 H   0  0  0  0  0  0  0  0  0  0  0  0
  1  2  2  0
  2  3  1  0
  3  4  1  0
  3  5  2  0
  5  6  1  0
  6  7  2  0
  7  8  1  0
  8  9  2  0
  9 10  1  0
  9 11  1  0
 11 12  2  0
  5 13  1  0
 13 14  1  0
 14 15  2  0
 15 16  1  0
 16 17  1  0
 16 18  2  0
 18 19  1  0
 19 20  1  0
 19 21  2  0
 21  2  1  0
 12  6  1  0
 21 14  1  0
  4 22  1  0
  7 23  1  0
  8 24  1  0
 10 25  1  0
 11 26  1  0
 12 27  1  0
 15 28  1  0
 17 29  1  0
 18 30  1  0
 20 31  1  0
M  END
>  <meeko>  (1) 
{"is_sidechain": [false], "free_energy": -9.235, "intermolecular_energy": -10.855, "internal_energy": -0.078}

$$$$
kaempferol_out
     RDKit          3D

 31 33  0  0  0  0  0  0  0  0999 V2000
   52.2650  152.8820   28.8160 O   0  0  0  0  0  0  0  0  0  0  0  0
   52.3260  154.0520   28.4430 C   0  0  0  0  0  0  0  0  0  0  0  0
   51.7190  155.1320   29.2530 C   0  0  0  0  0  0  0  0  0  0  0  0
   51.1030  154.7620   30.4350 O   0  0  0  0  0  0  0  0  0  0  0  0
   51.8120  156.3990   28.8080 C   0  0  0  0  0  0  0  0  0  0  0  0
   51.2570  157.5590   29.5380 C   0  0  0  0  0  0  0  0  0  0  0  0
   49.9530  157.5500   30.0600 C   0  0  0  0  0  0  0  0  0  0  0  0
   49.4390  158.6670   30.7270 C   0  0  0  0  0  0  0  0  0  0  0  0
   50.2270  159.8030   30.8670 C   0  0  0  0  0  0  0  0  0  0  0  0
   49.7670  160.9130   31.5090 O   0  0  0  0  0  0  0  0  0  0  0  0
   51.5150  159.8410   30.3510 C   0  0  0  0  0  0  0  0  0  0  0  0
   52.0280  158.7240   29.6850 C   0  0  0  0  0  0  0  0  0  0  0  0
   52.4560  156.7610   27.6300 O   0  0  0  0  0  0  0  0  0  0  0  0
   53.0230  155.7820   26.8550 C   0  0  0  0  0  0  0  0  0  0  0  0
   53.6490  156.1860   25.6770 C   0  0  0  0  0  0  0  0  0  0  0  0
   54.2420  155.2340   24.8530 C   0  0  0  0  0  0  0  0  0  0  0  0
   54.8440  155.6720   23.7110 O   0  0  0  0  0  0  0  0  0  0  0  0
   54.2190  153.8810   25.1850 C   0  0  0  0  0  0  0  0  0  0  0  0
   53.5910  153.4830   26.3620 C   0  0  0  0  0  0  0  0  0  0  0  0
   53.5990  152.1420   26.6400 O   0  0  0  0  0  0  0  0  0  0  0  0
   52.9940  154.4330   27.1980 C   0  0  0  0  0  0  0  0  0  0  0  0
   50.1750  154.6400   30.4600 H   0  0  0  0  0  0  0  0  0  0  0  0
   49.3277  156.6527   29.9427 H   0  0  0  0  0  0  0  0  0  0  0  0
   48.4187  158.6463   31.1376 H   0  0  0  0  0  0  0  0  0  0  0  0
   48.9250  161.2650   31.2930 H   0  0  0  0  0  0  0  0  0  0  0  0
   52.1295  160.7462   30.4656 H   0  0  0  0  0  0  0  0  0  0  0  0
   53.0468  158.7577   29.2715 H   0  0  0  0  0  0  0  0  0  0  0  0
   53.6742  157.2504   25.4004 H   0  0  0  0  0  0  0  0  0  0  0  0
   55.5150  155.1560   23.3080 H   0  0  0  0  0  0  0  0  0  0  0  0
   54.6907  153.1373   24.5259 H   0  0  0  0  0  0  0  0  0  0  0  0
   54.3120  151.6080   26.3530 H   0  0  0  0  0  0  0  0  0  0  0  0
  1  2  2  0
  2  3  1  0
  3  4  1  0
  3  5  2  0
  5  6  1  0
  6  7  2  0
  7  8  1  0
  8  9  2  0
  9 10  1  0
  9 11  1  0
 11 12  2  0
  5 13  1  0
 13 14  1  0
 14 15  2  0
 15 16  1  0
 16 17  1  0
 16 18  2  0
 18 19  1  0
 19 20  1  0
 19 21  2  0
 21  2  1  0
 12  6  1  0
 21 14  1  0
  4 22  1  0
  7 23  1  0
  8 24  1  0
 10 25  1  0
 11 26  1  0
 12 27  1  0
 15 28  1  0
 17 29  1  0
 18 30  1  0
 20 31  1  0
M  END
>  <meeko>  (2) 
{"is_sidechain": [false], "free_energy": -8.974, "intermolecular_energy": -10.606, "internal_energy": -0.019}

$$$$
kaempferol_out
     RDKit          3D

 31 33  0  0  0  0  0  0  0  0999 V2000
   51.8940  151.4640   27.8800 O   0  0  0  0  0  0  0  0  0  0  0  0
   52.2100  152.5960   27.5210 C   0  0  0  0  0  0  0  0  0  0  0  0
   51.8180  153.7770   28.3230 C   0  0  0  0  0  0  0  0  0  0  0  0
   51.1050  153.5410   29.4840 O   0  0  0  0  0  0  0  0  0  0  0  0
   52.1880  154.9980   27.8930 C   0  0  0  0  0  0  0  0  0  0  0  0
   51.8660  156.2460   28.6180 C   0  0  0  0  0  0  0  0  0  0  0  0
   52.7270  157.3550   28.5990 C   0  0  0  0  0  0  0  0  0  0  0  0
   52.4160  158.5180   29.3110 C   0  0  0  0  0  0  0  0  0  0  0  0
   51.2420  158.5720   30.0530 C   0  0  0  0  0  0  0  0  0  0  0  0
   50.8990  159.6850   30.7600 O   0  0  0  0  0  0  0  0  0  0  0  0
   50.3790  157.4860   30.0960 C   0  0  0  0  0  0  0  0  0  0  0  0
   50.6910  156.3250   29.3830 C   0  0  0  0  0  0  0  0  0  0  0  0
   52.9280  155.2210   26.7370 O   0  0  0  0  0  0  0  0  0  0  0  0
   53.3000  154.1470   25.9690 C   0  0  0  0  0  0  0  0  0  0  0  0
   54.0320  154.4160   24.8130 C   0  0  0  0  0  0  0  0  0  0  0  0
   54.4360  153.3630   23.9970 C   0  0  0  0  0  0  0  0  0  0  0  0
   55.1500  153.6690   22.8770 O   0  0  0  0  0  0  0  0  0  0  0  0
   54.1210  152.0440   24.3160 C   0  0  0  0  0  0  0  0  0  0  0  0
   53.3890  151.7820   25.4710 C   0  0  0  0  0  0  0  0  0  0  0  0
   53.1080  150.4690   25.7370 O   0  0  0  0  0  0  0  0  0  0  0  0
   52.9790  152.8330   26.2980 C   0  0  0  0  0  0  0  0  0  0  0  0
   51.3190  152.8050   30.0230 H   0  0  0  0  0  0  0  0  0  0  0  0
   53.6588  157.3085   28.0162 H   0  0  0  0  0  0  0  0  0  0  0  0
   53.0951  159.3829   29.2839 H   0  0  0  0  0  0  0  0  0  0  0  0
   50.3760  159.6060   31.5350 H   0  0  0  0  0  0  0  0  0  0  0  0
   49.4537  157.5387   30.6885 H   0  0  0  0  0  0  0  0  0  0  0  0
   50.0083  155.4633   29.4215 H   0  0  0  0  0  0  0  0  0  0  0  0
   54.2882  155.4524   24.5479 H   0  0  0  0  0  0  0  0  0  0  0  0
   55.5880  152.9910   22.4010 H   0  0  0  0  0  0  0  0  0  0  0  0
   54.4464  151.2202   23.6638 H   0  0  0  0  0  0  0  0  0  0  0  0
   52.4920  150.0050   25.2050 H   0  0  0  0  0  0  0  0  0  0  0  0
  1  2  2  0
  2  3  1  0
  3  4  1  0
  3  5  2  0
  5  6  1  0
  6  7  2  0
  7  8  1  0
  8  9  2  0
  9 10  1  0
  9 11  1  0
 11 12  2  0
  5 13  1  0
 13 14  1  0
 14 15  2  0
 15 16  1  0
 16 17  1  0
 16 18  2  0
 18 19  1  0
 19 20  1  0
 19 21  2  0
 21  2  1  0
 12  6  1  0
 21 14  1  0
  4 22  1  0
  7 23  1  0
  8 24  1  0
 10 25  1  0
 11 26  1  0
 12 27  1  0
 15 28  1  0
 17 29  1  0
 18 30  1  0
 20 31  1  0
M  END
>  <meeko>  (3) 
{"is_sidechain": [false], "free_energy": -8.82, "intermolecular_energy": -10.673, "internal_energy": 0.228}

$$$$
kaempferol_out
     RDKit          3D

 31 33  0  0  0  0  0  0  0  0999 V2000
   47.9360  158.5880   30.7170 O   0  0  0  0  0  0  0  0  0  0  0  0
   49.1350  158.4850   30.4630 C   0  0  0  0  0  0  0  0  0  0  0  0
   49.6670  157.2550   29.8330 C   0  0  0  0  0  0  0  0  0  0  0  0
   48.7590  156.2550   29.5400 O   0  0  0  0  0  0  0  0  0  0  0  0
   50.9850  157.1860   29.5700 C   0  0  0  0  0  0  0  0  0  0  0  0
   51.6260  156.0170   28.9310 C   0  0  0  0  0  0  0  0  0  0  0  0
   51.5660  154.7360   29.5040 C   0  0  0  0  0  0  0  0  0  0  0  0
   52.1990  153.6480   28.8960 C   0  0  0  0  0  0  0  0  0  0  0  0
   52.9040  153.8390   27.7130 C   0  0  0  0  0  0  0  0  0  0  0  0
   53.5350  152.8070   27.0870 O   0  0  0  0  0  0  0  0  0  0  0  0
   52.9870  155.0970   27.1330 C   0  0  0  0  0  0  0  0  0  0  0  0
   52.3530  156.1840   27.7410 C   0  0  0  0  0  0  0  0  0  0  0  0
   51.8850  158.2110   29.8460 O   0  0  0  0  0  0  0  0  0  0  0  0
   51.4230  159.3600   30.4360 C   0  0  0  0  0  0  0  0  0  0  0  0
   52.3590  160.3570   30.7060 C   0  0  0  0  0  0  0  0  0  0  0  0
   51.9450  161.5440   31.3020 C   0  0  0  0  0  0  0  0  0  0  0  0
   52.8920  162.4920   31.5490 O   0  0  0  0  0  0  0  0  0  0  0  0
   50.6090  161.7530   31.6350 C   0  0  0  0  0  0  0  0  0  0  0  0
   49.6780  160.7540   31.3640 C   0  0  0  0  0  0  0  0  0  0  0  0
   48.3790  161.0120   31.7110 O   0  0  0  0  0  0  0  0  0  0  0  0
   50.0840  159.5570   30.7640 C   0  0  0  0  0  0  0  0  0  0  0  0
   47.9110  156.4750   29.2060 H   0  0  0  0  0  0  0  0  0  0  0  0
   51.0136  154.5870   30.4435 H   0  0  0  0  0  0  0  0  0  0  0  0
   52.1398  152.6479   29.3503 H   0  0  0  0  0  0  0  0  0  0  0  0
   54.3400  152.9570   26.6290 H   0  0  0  0  0  0  0  0  0  0  0  0
   53.5496  155.2380   26.1983 H   0  0  0  0  0  0  0  0  0  0  0  0
   52.4242  157.1813   27.2825 H   0  0  0  0  0  0  0  0  0  0  0  0
   53.4180  160.2062   30.4495 H   0  0  0  0  0  0  0  0  0  0  0  0
   53.4710  162.3970   32.2790 H   0  0  0  0  0  0  0  0  0  0  0  0
   50.2933  162.6955   32.1062 H   0  0  0  0  0  0  0  0  0  0  0  0
   48.0790  161.8970   31.7800 H   0  0  0  0  0  0  0  0  0  0  0  0
  1  2  2  0
  2  3  1  0
  3  4  1  0
  3  5  2  0
  5  6  1  0
  6  7  2  0
  7  8  1  0
  8  9  2  0
  9 10  1  0
  9 11  1  0
 11 12  2  0
  5 13  1  0
 13 14  1  0
 14 15  2  0
 15 16  1  0
 16 17  1  0
 16 18  2  0
 18 19  1  0
 19 20  1  0
 19 21  2  0
 21  2  1  0
 12  6  1  0
 21 14  1  0
  4 22  1  0
  7 23  1  0
  8 24  1  0
 10 25  1  0
 11 26  1  0
 12 27  1  0
 15 28  1  0
 17 29  1  0
 18 30  1  0
 20 31  1  0
M  END
>  <meeko>  (4) 
{"is_sidechain": [false], "free_energy": -8.461, "intermolecular_energy": -9.876, "internal_energy": -0.146}

$$$$
kaempferol_out
     RDKit          3D

 31 33  0  0  0  0  0  0  0  0999 V2000
   54.7150  155.0340   24.5030 O   0  0  0  0  0  0  0  0  0  0  0  0
   53.9490  154.7160   25.4110 C   0  0  0  0  0  0  0  0  0  0  0  0
   53.4230  155.7380   26.3440 C   0  0  0  0  0  0  0  0  0  0  0  0
   53.8210  157.0460   26.1350 O   0  0  0  0  0  0  0  0  0  0  0  0
   52.5850  155.3460   27.3220 C   0  0  0  0  0  0  0  0  0  0  0  0
   51.9860  156.2780   28.3020 C   0  0  0  0  0  0  0  0  0  0  0  0
   50.8240  155.9520   29.0180 C   0  0  0  0  0  0  0  0  0  0  0  0
   50.2610  156.8570   29.9230 C   0  0  0  0  0  0  0  0  0  0  0  0
   50.8560  158.0990   30.1080 C   0  0  0  0  0  0  0  0  0  0  0  0
   50.3420  159.0110   30.9800 O   0  0  0  0  0  0  0  0  0  0  0  0
   52.0000  158.4490   29.4050 C   0  0  0  0  0  0  0  0  0  0  0  0
   52.5620  157.5430   28.5010 C   0  0  0  0  0  0  0  0  0  0  0  0
   52.1710  154.0310   27.5050 O   0  0  0  0  0  0  0  0  0  0  0  0
   52.6470  153.0600   26.6610 C   0  0  0  0  0  0  0  0  0  0  0  0
   52.2160  151.7540   26.8880 C   0  0  0  0  0  0  0  0  0  0  0  0
   52.6660  150.7300   26.0600 C   0  0  0  0  0  0  0  0  0  0  0  0
   52.2200  149.4670   26.3150 O   0  0  0  0  0  0  0  0  0  0  0  0
   53.5420  150.9880   25.0080 C   0  0  0  0  0  0  0  0  0  0  0  0
   53.9700  152.2950   24.7870 C   0  0  0  0  0  0  0  0  0  0  0  0
   54.8300  152.4920   23.7400 O   0  0  0  0  0  0  0  0  0  0  0  0
   53.5220  153.3310   25.6130 C   0  0  0  0  0  0  0  0  0  0  0  0
   54.5550  157.3920   26.6030 H   0  0  0  0  0  0  0  0  0  0  0  0
   50.3497  154.9713   28.8652 H   0  0  0  0  0  0  0  0  0  0  0  0
   49.3540  156.5878   30.4842 H   0  0  0  0  0  0  0  0  0  0  0  0
   49.4140  159.0670   31.1070 H   0  0  0  0  0  0  0  0  0  0  0  0
   52.4626  159.4351   29.5584 H   0  0  0  0  0  0  0  0  0  0  0  0
   53.4652  157.8240   27.9395 H   0  0  0  0  0  0  0  0  0  0  0  0
   51.5253  151.5344   27.7155 H   0  0  0  0  0  0  0  0  0  0  0  0
   51.3760  149.1990   26.0110 H   0  0  0  0  0  0  0  0  0  0  0  0
   53.8911  150.1703   24.3603 H   0  0  0  0  0  0  0  0  0  0  0  0
   54.5350  152.9330   22.9680 H   0  0  0  0  0  0  0  0  0  0  0  0
  1  2  2  0
  2  3  1  0
  3  4  1  0
  3  5  2  0
  5  6  1  0
  6  7  2  0
  7  8  1  0
  8  9  2  0
  9 10  1  0
  9 11  1  0
 11 12  2  0
  5 13  1  0
 13 14  1  0
 14 15  2  0
 15 16  1  0
 16 17  1  0
 16 18  2  0
 18 19  1  0
 19 20  1  0
 19 21  2  0
 21  2  1  0
 12  6  1  0
 21 14  1  0
  4 22  1  0
  7 23  1  0
  8 24  1  0
 10 25  1  0
 11 26  1  0
 12 27  1  0
 15 28  1  0
 17 29  1  0
 18 30  1  0
 20 31  1  0
M  END
>  <meeko>  (5) 
{"is_sidechain": [false], "free_energy": -8.357, "intermolecular_energy": -10.246, "internal_energy": 0.346}

$$$$
kaempferol_out
     RDKit          3D

 31 33  0  0  0  0  0  0  0  0999 V2000
   54.2460  155.2620   25.1650 O   0  0  0  0  0  0  0  0  0  0  0  0
   53.4640  155.0160   26.0800 C   0  0  0  0  0  0  0  0  0  0  0  0
   52.9630  156.1010   26.9550 C   0  0  0  0  0  0  0  0  0  0  0  0
   53.4050  157.3830   26.6830 O   0  0  0  0  0  0  0  0  0  0  0  0
   52.1050  155.7860   27.9430 C   0  0  0  0  0  0  0  0  0  0  0  0
   51.5300  156.7850   28.8690 C   0  0  0  0  0  0  0  0  0  0  0  0
   50.2990  156.5760   29.5100 C   0  0  0  0  0  0  0  0  0  0  0  0
   49.7610  157.5440   30.3640 C   0  0  0  0  0  0  0  0  0  0  0  0
   50.4510  158.7320   30.5720 C   0  0  0  0  0  0  0  0  0  0  0  0
   49.9640  159.7020   31.3960 O   0  0  0  0  0  0  0  0  0  0  0  0
   51.6650  158.9670   29.9420 C   0  0  0  0  0  0  0  0  0  0  0  0
   52.2020  157.9980   29.0900 C   0  0  0  0  0  0  0  0  0  0  0  0
   51.6480  154.4960   28.1890 O   0  0  0  0  0  0  0  0  0  0  0  0
   52.0990  153.4680   27.4000 C   0  0  0  0  0  0  0  0  0  0  0  0
   51.6240  152.1900   27.6880 C   0  0  0  0  0  0  0  0  0  0  0  0
   52.0480  151.1110   26.9180 C   0  0  0  0  0  0  0  0  0  0  0  0
   51.5590  149.8780   27.2330 O   0  0  0  0  0  0  0  0  0  0  0  0
   52.9400  151.2870   25.8630 C   0  0  0  0  0  0  0  0  0  0  0  0
   53.4110  152.5660   25.5800 C   0  0  0  0  0  0  0  0  0  0  0  0
   54.2850  152.6820   24.5330 O   0  0  0  0  0  0  0  0  0  0  0  0
   52.9910  153.6570   26.3480 C   0  0  0  0  0  0  0  0  0  0  0  0
   54.2370  157.5130   26.2720 H   0  0  0  0  0  0  0  0  0  0  0  0
   49.7501  155.6383   29.3384 H   0  0  0  0  0  0  0  0  0  0  0  0
   48.7991  157.3663   30.8671 H   0  0  0  0  0  0  0  0  0  0  0  0
   49.0390  159.8390   31.4650 H   0  0  0  0  0  0  0  0  0  0  0  0
   52.2022  159.9117   30.1125 H   0  0  0  0  0  0  0  0  0  0  0  0
   53.1617  158.1876   28.5870 H   0  0  0  0  0  0  0  0  0  0  0  0
   50.9190  152.0351   28.5180 H   0  0  0  0  0  0  0  0  0  0  0  0
   50.9910  149.4330   26.6350 H   0  0  0  0  0  0  0  0  0  0  0  0
   53.2680  150.4266   25.2612 H   0  0  0  0  0  0  0  0  0  0  0  0
   54.5430  153.5300   24.2290 H   0  0  0  0  0  0  0  0  0  0  0  0
  1  2  2  0
  2  3  1  0
  3  4  1  0
  3  5  2  0
  5  6  1  0
  6  7  2  0
  7  8  1  0
  8  9  2  0
  9 10  1  0
  9 11  1  0
 11 12  2  0
  5 13  1  0
 13 14  1  0
 14 15  2  0
 15 16  1  0
 16 17  1  0
 16 18  2  0
 18 19  1  0
 19 20  1  0
 19 21  2  0
 21  2  1  0
 12  6  1  0
 21 14  1  0
  4 22  1  0
  7 23  1  0
  8 24  1  0
 10 25  1  0
 11 26  1  0
 12 27  1  0
 15 28  1  0
 17 29  1  0
 18 30  1  0
 20 31  1  0
M  END
>  <meeko>  (6) 
{"is_sidechain": [false], "free_energy": -7.321, "intermolecular_energy": -8.983, "internal_energy": 0.3}

$$$$
kaempferol_out
     RDKit          3D

 31 33  0  0  0  0  0  0  0  0999 V2000
   48.6690  157.0980   30.5160 O   0  0  0  0  0  0  0  0  0  0  0  0
   49.7860  157.3440   30.0670 C   0  0  0  0  0  0  0  0  0  0  0  0
   50.4570  156.3930   29.1520 C   0  0  0  0  0  0  0  0  0  0  0  0
   49.7660  155.2410   28.8260 O   0  0  0  0  0  0  0  0  0  0  0  0
   51.6790  156.7060   28.6830 C   0  0  0  0  0  0  0  0  0  0  0  0
   52.4380  155.8410   27.7530 C   0  0  0  0  0  0  0  0  0  0  0  0
   52.7080  154.4950   28.0500 C   0  0  0  0  0  0  0  0  0  0  0  0
   53.4470  153.7010   27.1680 C   0  0  0  0  0  0  0  0  0  0  0  0
   53.9280  154.2550   25.9870 C   0  0  0  0  0  0  0  0  0  0  0  0
   54.6530  153.5170   25.0990 O   0  0  0  0  0  0  0  0  0  0  0  0
   53.6830  155.5850   25.6760 C   0  0  0  0  0  0  0  0  0  0  0  0
   52.9430  156.3770   26.5580 C   0  0  0  0  0  0  0  0  0  0  0  0
   52.3520  157.8810   28.9980 O   0  0  0  0  0  0  0  0  0  0  0  0
   51.7600  158.7790   29.8480 C   0  0  0  0  0  0  0  0  0  0  0  0
   52.4740  159.9390   30.1460 C   0  0  0  0  0  0  0  0  0  0  0  0
   51.9190  160.8850   31.0030 C   0  0  0  0  0  0  0  0  0  0  0  0
   52.6500  162.0040   31.2680 O   0  0  0  0  0  0  0  0  0  0  0  0
   50.6610  160.6920   31.5690 C   0  0  0  0  0  0  0  0  0  0  0  0
   49.9520  159.5320   31.2680 C   0  0  0  0  0  0  0  0  0  0  0  0
   48.7210  159.3940   31.8510 O   0  0  0  0  0  0  0  0  0  0  0  0
   50.5010  158.5750   30.4070 C   0  0  0  0  0  0  0  0  0  0  0  0
   49.6850  154.5500   29.4540 H   0  0  0  0  0  0  0  0  0  0  0  0
   52.3333  154.0601   28.9883 H   0  0  0  0  0  0  0  0  0  0  0  0
   53.6464  152.6459   27.4066 H   0  0  0  0  0  0  0  0  0  0  0  0
   54.5010  152.5950   25.0210 H   0  0  0  0  0  0  0  0  0  0  0  0
   54.0695  156.0138   24.7396 H   0  0  0  0  0  0  0  0  0  0  0  0
   52.7541  157.4326   26.3130 H   0  0  0  0  0  0  0  0  0  0  0  0
   53.4688  160.1053   29.7070 H   0  0  0  0  0  0  0  0  0  0  0  0
   52.2180  162.7960   31.5220 H   0  0  0  0  0  0  0  0  0  0  0  0
   50.2330  161.4466   32.2453 H   0  0  0  0  0  0  0  0  0  0  0  0
   48.0350  158.9470   31.3960 H   0  0  0  0  0  0  0  0  0  0  0  0
  1  2  2  0
  2  3  1  0
  3  4  1  0
  3  5  2  0
  5  6  1  0
  6  7  2  0
  7  8  1  0
  8  9  2  0
  9 10  1  0
  9 11  1  0
 11 12  2  0
  5 13  1  0
 13 14  1  0
 14 15  2  0
 15 16  1  0
 16 17  1  0
 16 18  2  0
 18 19  1  0
 19 20  1  0
 19 21  2  0
 21  2  1  0
 12  6  1  0
 21 14  1  0
  4 22  1  0
  7 23  1  0
  8 24  1  0
 10 25  1  0
 11 26  1  0
 12 27  1  0
 15 28  1  0
 17 29  1  0
 18 30  1  0
 20 31  1  0
M  END
>  <meeko>  (7) 
{"is_sidechain": [false], "free_energy": -6.461, "intermolecular_energy": -7.57, "internal_energy": -0.102}

$$$$
kaempferol_out
     RDKit          3D

 31 33  0  0  0  0  0  0  0  0999 V2000
   53.7790  156.6500   25.8280 O   0  0  0  0  0  0  0  0  0  0  0  0
   53.3710  155.6140   26.3480 C   0  0  0  0  0  0  0  0  0  0  0  0
   53.6200  154.3020   25.7080 C   0  0  0  0  0  0  0  0  0  0  0  0
   54.3350  154.3040   24.5250 O   0  0  0  0  0  0  0  0  0  0  0  0
   53.1570  153.1930   26.3140 C   0  0  0  0  0  0  0  0  0  0  0  0
   53.3580  151.8290   25.7780 C   0  0  0  0  0  0  0  0  0  0  0  0
   52.5230  150.7610   26.1420 C   0  0  0  0  0  0  0  0  0  0  0  0
   52.7440  149.4750   25.6410 C   0  0  0  0  0  0  0  0  0  0  0  0
   53.8090  149.2500   24.7770 C   0  0  0  0  0  0  0  0  0  0  0  0
   54.0610  148.0130   24.2650 O   0  0  0  0  0  0  0  0  0  0  0  0
   54.6550  150.2870   24.4100 C   0  0  0  0  0  0  0  0  0  0  0  0
   54.4320  151.5730   24.9110 C   0  0  0  0  0  0  0  0  0  0  0  0
   52.4620  153.2010   27.5190 O   0  0  0  0  0  0  0  0  0  0  0  0
   52.2100  154.4020   28.1320 C   0  0  0  0  0  0  0  0  0  0  0  0
   51.5010  154.3670   29.3320 C   0  0  0  0  0  0  0  0  0  0  0  0
   51.2180  155.5560   29.9980 C   0  0  0  0  0  0  0  0  0  0  0  0
   50.5230  155.4770   31.1670 O   0  0  0  0  0  0  0  0  0  0  0  0
   51.6320  156.7830   29.4840 C   0  0  0  0  0  0  0  0  0  0  0  0
   52.3400  156.8120   28.2850 C   0  0  0  0  0  0  0  0  0  0  0  0
   52.7220  158.0440   27.8270 O   0  0  0  0  0  0  0  0  0  0  0  0
   52.6290  155.6220   27.6090 C   0  0  0  0  0  0  0  0  0  0  0  0
   54.7570  155.0890   24.2340 H   0  0  0  0  0  0  0  0  0  0  0  0
   51.6837  150.9385   26.8306 H   0  0  0  0  0  0  0  0  0  0  0  0
   52.0796  148.6468   25.9286 H   0  0  0  0  0  0  0  0  0  0  0  0
   54.0250  147.8720   23.3390 H   0  0  0  0  0  0  0  0  0  0  0  0
   55.4972  150.0980   23.7281 H   0  0  0  0  0  0  0  0  0  0  0  0
   55.1056  152.3934   24.6226 H   0  0  0  0  0  0  0  0  0  0  0  0
   51.1673  153.4057   29.7498 H   0  0  0  0  0  0  0  0  0  0  0  0
   50.9360  155.7160   31.9740 H   0  0  0  0  0  0  0  0  0  0  0  0
   51.4026  157.7168   30.0183 H   0  0  0  0  0  0  0  0  0  0  0  0
   52.1170  158.5740   27.3470 H   0  0  0  0  0  0  0  0  0  0  0  0
  1  2  2  0
  2  3  1  0
  3  4  1  0
  3  5  2  0
  5  6  1  0
  6  7  2  0
  7  8  1  0
  8  9  2  0
  9 10  1  0
  9 11  1  0
 11 12  2  0
  5 13  1  0
 13 14  1  0
 14 15  2  0
 15 16  1  0
 16 17  1  0
 16 18  2  0
 18 19  1  0
 19 20  1  0
 19 21  2  0
 21  2  1  0
 12  6  1  0
 21 14  1  0
  4 22  1  0
  7 23  1  0
  8 24  1  0
 10 25  1  0
 11 26  1  0
 12 27  1  0
 15 28  1  0
 17 29  1  0
 18 30  1  0
 20 31  1  0
M  END
>  <meeko>  (8) 
{"is_sidechain": [false], "free_energy": -6.395, "intermolecular_energy": -7.895, "internal_energy": 0.3}

$$$$
