cand_043_out
     RDKit          3D

 44 46  0  0  0  0  0  0  0  0999 V2000
   51.8360  160.6630   30.6980 C   0  0  0  0  0  0  0  0  0  0  0  0
   51.0340  159.4190   30.4140 C   0  0  0  0  0  0  0  0  0  0  0  0
   51.7150  158.4160   29.6810 C   0  0  0  0  0  0  0  0  0  0  0  0
   51.1200  157.1980   29.3360 C   0  0  0  0  0  0  0  0  0  0  0  0
   51.8680  156.2020   28.5400 C   0  0  0  0  0  0  0  0  0  0  0  0
   52.4030  156.7370   27.3720 O   0  0  0  0  0  0  0  0  0  0  0  0
   53.1220  155.9200   26.5380 C   0  0  0  0  0  0  0  0  0  0  0  0
   53.6270  156.4930   25.3710 C   0  0  0  0  0  0  0  0  0  0  0  0
   54.3700  155.7170   24.4780 C   0  0  0  0  0  0  0  0  0  0  0  0
   54.6070  154.3690   24.7520 C   0  0  0  0  0  0  0  0  0  0  0  0
   54.1020  153.7990   25.9180 C   0  0  0  0  0  0  0  0  0  0  0  0
   54.3710  152.4740   26.1250 O   0  0  0  0  0  0  0  0  0  0  0  0
   53.3570  154.5760   26.8100 C   0  0  0  0  0  0  0  0  0  0  0  0
   52.8080  154.0160   28.0460 C   0  0  0  0  0  0  0  0  0  0  0  0
   52.9800  152.8400   28.3600 O   0  0  0  0  0  0  0  0  0  0  0  0
   52.0270  154.9210   28.9210 C   0  0  0  0  0  0  0  0  0  0  0  0
   51.5240  154.3840   30.0910 O   0  0  0  0  0  0  0  0  0  0  0  0
   49.8030  156.9930   29.7290 C   0  0  0  0  0  0  0  0  0  0  0  0
   49.1180  157.9650   30.4680 C   0  0  0  0  0  0  0  0  0  0  0  0
   49.7040  159.1930   30.8540 C   0  0  0  0  0  0  0  0  0  0  0  0
   48.8600  160.2020   31.6810 C   0  0  0  0  0  0  0  0  0  0  0  0
   48.8390  161.6190   31.0650 C   0  0  0  0  0  0  0  0  0  0  0  0
   49.3900  160.4060   33.1290 C   0  0  0  0  0  0  0  0  0  0  0  0
   47.4200  159.6650   31.8160 C   0  0  0  0  0  0  0  0  0  0  0  0
   51.9252  160.8014   31.7856 H   0  0  0  0  0  0  0  0  0  0  0  0
   52.8389  160.5611   30.2578 H   0  0  0  0  0  0  0  0  0  0  0  0
   51.3292  161.5344   30.2578 H   0  0  0  0  0  0  0  0  0  0  0  0
   52.7537  158.6026   29.3706 H   0  0  0  0  0  0  0  0  0  0  0  0
   53.4404  157.5551   25.1539 H   0  0  0  0  0  0  0  0  0  0  0  0
   54.7688  156.1689   23.5578 H   0  0  0  0  0  0  0  0  0  0  0  0
   55.1915  153.7581   24.0483 H   0  0  0  0  0  0  0  0  0  0  0  0
   54.1950  151.8490   25.4490 H   0  0  0  0  0  0  0  0  0  0  0  0
   52.0760  153.8690   30.6450 H   0  0  0  0  0  0  0  0  0  0  0  0
   49.2932  156.0571   29.4566 H   0  0  0  0  0  0  0  0  0  0  0  0
   48.0770  157.7646   30.7617 H   0  0  0  0  0  0  0  0  0  0  0  0
   48.8279  162.3686   31.8700 H   0  0  0  0  0  0  0  0  0  0  0  0
   49.7351  161.7619   30.4433 H   0  0  0  0  0  0  0  0  0  0  0  0
   47.9390  161.7352   30.4433 H   0  0  0  0  0  0  0  0  0  0  0  0
   48.6139  160.1073   33.8490 H   0  0  0  0  0  0  0  0  0  0  0  0
   50.2881  159.7893   33.2810 H   0  0  0  0  0  0  0  0  0  0  0  0
   49.6428  161.4657   33.2810 H   0  0  0  0  0  0  0  0  0  0  0  0
   47.1628  159.5691   32.8812 H   0  0  0  0  0  0  0  0  0  0  0  0
   46.7214  160.3630   31.3315 H   0  0  0  0  0  0  0  0  0  0  0  0
   47.3491  158.6800   31.3315 H   0  0  0  0  0  0  0  0  0  0  0  0
  1  2  1  0
  2  3  2  0
  3  4  1  0
  4  5  1  0
  5  6  1  0
  6  7  1  0
  7  8  2  0
  8  9  1  0
  9 10  2  0
 10 11  1  0
 11 12  1  0
 11 13  2  0
 13 14  1  0
 14 15  2  0
 14 16  1  0
 16 17  1  0
  4 18  2  0
 18 19  1  0
 19 20  2  0
 20 21  1  0
 21 22  1  0
 21 23  1  0
 21 24  1  0
 20  2  1  0
 16  5  2  0
 13  7  1  0
  1 25  1  0
  1 26  1  0
  1 27  1  0
  3 28  1  0
  8 29  1  0
  9 30  1  0
 10 31  1  0
 12 32  1  0
 17 33  1  0
 18 34  1  0
 19 35  1  0
 22 36  1  0
 22 37  1  0
 22 38  1  0
 23 39  1  0
 23 40  1  0
 23 41  1  0
 24 42  1  0
 24 43  1  0
 24 44  1  0
M  END
>  <meeko>  (1) 
{"is_sidechain": [false], "free_energy": -11.618, "intermolecular_energy": -13.656, "internal_energy": -0.07}

$$$$
cand_043_out
     RDKit          3D

 44 46  0  0  0  0  0  0  0  0999 V2000
   48.1830  158.3510   30.9520 C   0  0  0  0  0  0  0  0  0  0  0  0
   49.6240  158.5230   30.5470 C   0  0  0  0  0  0  0  0  0  0  0  0
   50.1680  157.4590   29.7850 C   0  0  0  0  0  0  0  0  0  0  0  0
   51.4880  157.4610   29.3240 C   0  0  0  0  0  0  0  0  0  0  0  0
   52.0120  156.3060   28.5620 C   0  0  0  0  0  0  0  0  0  0  0  0
   52.5550  156.6700   27.3350 O   0  0  0  0  0  0  0  0  0  0  0  0
   53.0760  155.6940   26.5250 C   0  0  0  0  0  0  0  0  0  0  0  0
   53.5970  156.1020   25.2970 C   0  0  0  0  0  0  0  0  0  0  0  0
   54.1450  155.1590   24.4250 C   0  0  0  0  0  0  0  0  0  0  0  0
   54.1730  153.8090   24.7800 C   0  0  0  0  0  0  0  0  0  0  0  0
   53.6530  153.4050   26.0070 C   0  0  0  0  0  0  0  0  0  0  0  0
   53.7110  152.0680   26.2930 O   0  0  0  0  0  0  0  0  0  0  0  0
   53.1030  154.3490   26.8790 C   0  0  0  0  0  0  0  0  0  0  0  0
   52.5450  153.9660   28.1770 C   0  0  0  0  0  0  0  0  0  0  0  0
   52.5390  152.7990   28.5640 O   0  0  0  0  0  0  0  0  0  0  0  0
   51.9800  155.0410   29.0240 C   0  0  0  0  0  0  0  0  0  0  0  0
   51.4670  154.6700   30.2530 O   0  0  0  0  0  0  0  0  0  0  0  0
   52.2820  158.5530   29.6490 C   0  0  0  0  0  0  0  0  0  0  0  0
   51.7590  159.6220   30.3870 C   0  0  0  0  0  0  0  0  0  0  0  0
   50.4200  159.6600   30.8430 C   0  0  0  0  0  0  0  0  0  0  0  0
   49.9350  160.8970   31.6480 C   0  0  0  0  0  0  0  0  0  0  0  0
   51.0440  161.9530   31.8590 C   0  0  0  0  0  0  0  0  0  0  0  0
   49.4450  160.5440   33.0820 C   0  0  0  0  0  0  0  0  0  0  0  0
   48.7330  161.5340   30.9210 C   0  0  0  0  0  0  0  0  0  0  0  0
   48.1091  158.3422   32.0495 H   0  0  0  0  0  0  0  0  0  0  0  0
   47.5875  159.1844   30.5511 H   0  0  0  0  0  0  0  0  0  0  0  0
   47.8004  157.4008   30.5511 H   0  0  0  0  0  0  0  0  0  0  0  0
   49.5265  156.5977   29.5469 H   0  0  0  0  0  0  0  0  0  0  0  0
   53.5762  157.1653   25.0159 H   0  0  0  0  0  0  0  0  0  0  0  0
   54.5555  155.4804   23.4564 H   0  0  0  0  0  0  0  0  0  0  0  0
   54.6046  153.0667   24.0925 H   0  0  0  0  0  0  0  0  0  0  0  0
   54.5320  151.6700   26.5080 H   0  0  0  0  0  0  0  0  0  0  0  0
   51.9830  154.1500   30.8370 H   0  0  0  0  0  0  0  0  0  0  0  0
   53.3324  158.5785   29.3234 H   0  0  0  0  0  0  0  0  0  0  0  0
   52.4186  160.4701   30.6228 H   0  0  0  0  0  0  0  0  0  0  0  0
   51.2045  162.1059   32.9364 H   0  0  0  0  0  0  0  0  0  0  0  0
   51.9777  161.6019   31.3954 H   0  0  0  0  0  0  0  0  0  0  0  0
   50.7390  162.9027   31.3954 H   0  0  0  0  0  0  0  0  0  0  0  0
   50.1050  161.0195   33.8224 H   0  0  0  0  0  0  0  0  0  0  0  0
   48.4168  160.9102   33.2187 H   0  0  0  0  0  0  0  0  0  0  0  0
   49.4668  159.4527   33.2187 H   0  0  0  0  0  0  0  0  0  0  0  0
   48.0154  161.9143   31.6628 H   0  0  0  0  0  0  0  0  0  0  0  0
   49.0838  162.3646   30.2908 H   0  0  0  0  0  0  0  0  0  0  0  0
   48.2427  160.7774   30.2908 H   0  0  0  0  0  0  0  0  0  0  0  0
  1  2  1  0
  2  3  2  0
  3  4  1  0
  4  5  1  0
  5  6  1  0
  6  7  1  0
  7  8  2  0
  8  9  1  0
  9 10  2  0
 10 11  1  0
 11 12  1  0
 11 13  2  0
 13 14  1  0
 14 15  2  0
 14 16  1  0
 16 17  1  0
  4 18  2  0
 18 19  1  0
 19 20  2  0
 20 21  1  0
 21 22  1  0
 21 23  1  0
 21 24  1  0
 20  2  1  0
 16  5  2  0
 13  7  1  0
  1 25  1  0
  1 26  1  0
  1 27  1  0
  3 28  1  0
  8 29  1  0
  9 30  1  0
 10 31  1  0
 12 32  1  0
 17 33  1  0
 18 34  1  0
 19 35  1  0
 22 36  1  0
 22 37  1  0
 22 38  1  0
 23 39  1  0
 23 40  1  0
 23 41  1  0
 24 42  1  0
 24 43  1  0
 24 44  1  0
M  END
>  <meeko>  (2) 
{"is_sidechain": [false], "free_energy": -10.834, "intermolecular_energy": -12.82, "internal_energy": 0.016}

$$$$
cand_043_out
     RDKit          3D

 44 46  0  0  0  0  0  0  0  0999 V2000
   53.6780  156.3450   25.7610 C   0  0  0  0  0  0  0  0  0  0  0  0
   52.8610  155.9730   26.9720 C   0  0  0  0  0  0  0  0  0  0  0  0
   52.4180  157.0650   27.7600 C   0  0  0  0  0  0  0  0  0  0  0  0
   51.6460  156.8980   28.9130 C   0  0  0  0  0  0  0  0  0  0  0  0
   51.2420  158.0730   29.7160 C   0  0  0  0  0  0  0  0  0  0  0  0
   49.9170  158.0140   30.1310 O   0  0  0  0  0  0  0  0  0  0  0  0
   49.4110  159.0430   30.8840 C   0  0  0  0  0  0  0  0  0  0  0  0
   48.0730  158.9490   31.2660 C   0  0  0  0  0  0  0  0  0  0  0  0
   47.4960  159.9620   32.0360 C   0  0  0  0  0  0  0  0  0  0  0  0
   48.2560  161.0670   32.4220 C   0  0  0  0  0  0  0  0  0  0  0  0
   49.5920  161.1580   32.0390 C   0  0  0  0  0  0  0  0  0  0  0  0
   50.2790  162.2670   32.4520 O   0  0  0  0  0  0  0  0  0  0  0  0
   50.1690  160.1450   31.2680 C   0  0  0  0  0  0  0  0  0  0  0  0
   51.5680  160.2010   30.8440 C   0  0  0  0  0  0  0  0  0  0  0  0
   52.3040  161.1370   31.1510 O   0  0  0  0  0  0  0  0  0  0  0  0
   52.0820  159.0800   30.0230 C   0  0  0  0  0  0  0  0  0  0  0  0
   53.4080  159.1380   29.6390 O   0  0  0  0  0  0  0  0  0  0  0  0
   51.3230  155.6010   29.2890 C   0  0  0  0  0  0  0  0  0  0  0  0
   51.7360  154.5090   28.5150 C   0  0  0  0  0  0  0  0  0  0  0  0
   52.4940  154.6500   27.3290 C   0  0  0  0  0  0  0  0  0  0  0  0
   52.8960  153.3750   26.5380 C   0  0  0  0  0  0  0  0  0  0  0  0
   54.3260  152.8870   26.8650 C   0  0  0  0  0  0  0  0  0  0  0  0
   52.8890  153.5790   24.9960 C   0  0  0  0  0  0  0  0  0  0  0  0
   51.8780  152.2540   26.8340 C   0  0  0  0  0  0  0  0  0  0  0  0
   54.6350  156.7807   26.0840 H   0  0  0  0  0  0  0  0  0  0  0  0
   53.8698  155.4455   25.1576 H   0  0  0  0  0  0  0  0  0  0  0  0
   53.1254  157.0803   25.1576 H   0  0  0  0  0  0  0  0  0  0  0  0
   52.6928  158.0845   27.4516 H   0  0  0  0  0  0  0  0  0  0  0  0
   47.4730  158.0788   30.9616 H   0  0  0  0  0  0  0  0  0  0  0  0
   46.4410  159.8885   32.3385 H   0  0  0  0  0  0  0  0  0  0  0  0
   47.8008  161.8645   33.0276 H   0  0  0  0  0  0  0  0  0  0  0  0
   51.1010  162.1720   32.8910 H   0  0  0  0  0  0  0  0  0  0  0  0
   53.7340  159.8950   29.1940 H   0  0  0  0  0  0  0  0  0  0  0  0
   50.7369  155.4293   30.2039 H   0  0  0  0  0  0  0  0  0  0  0  0
   51.4585  153.4967   28.8441 H   0  0  0  0  0  0  0  0  0  0  0  0
   54.4576  152.8421   27.9562 H   0  0  0  0  0  0  0  0  0  0  0  0
   54.4789  151.8858   26.4357 H   0  0  0  0  0  0  0  0  0  0  0  0
   55.0590  153.5858   26.4357 H   0  0  0  0  0  0  0  0  0  0  0  0
   52.8521  154.6546   24.7686 H   0  0  0  0  0  0  0  0  0  0  0  0
   53.8026  153.1441   24.5645 H   0  0  0  0  0  0  0  0  0  0  0  0
   52.0074  153.0825   24.5645 H   0  0  0  0  0  0  0  0  0  0  0  0
   51.7698  152.1349   27.9222 H   0  0  0  0  0  0  0  0  0  0  0  0
   50.9043  152.5178   26.3954 H   0  0  0  0  0  0  0  0  0  0  0  0
   52.2341  151.3101   26.3954 H   0  0  0  0  0  0  0  0  0  0  0  0
  1  2  1  0
  2  3  2  0
  3  4  1  0
  4  5  1  0
  5  6  1  0
  6  7  1  0
  7  8  2  0
  8  9  1  0
  9 10  2  0
 10 11  1  0
 11 12  1  0
 11 13  2  0
 13 14  1  0
 14 15  2  0
 14 16  1  0
 16 17  1  0
  4 18  2  0
 18 19  1  0
 19 20  2  0
 20 21  1  0
 21 22  1  0
 21 23  1  0
 21 24  1  0
 20  2  1  0
 16  5  2  0
 13  7  1  0
  1 25  1  0
  1 26  1  0
  1 27  1  0
  3 28  1  0
  8 29  1  0
  9 30  1  0
 10 31  1  0
 12 32  1  0
 17 33  1  0
 18 34  1  0
 19 35  1  0
 22 36  1  0
 22 37  1  0
 22 38  1  0
 23 39  1  0
 23 40  1  0
 23 41  1  0
 24 42  1  0
 24 43  1  0
 24 44  1  0
M  END
>  <meeko>  (3) 
{"is_sidechain": [false], "free_energy": -9.978, "intermolecular_energy": -12.035, "internal_energy": 0.237}

$$$$
cand_043_out
     RDKit          3D

 44 46  0  0  0  0  0  0  0  0999 V2000
   53.8320  156.1970   25.4930 C   0  0  0  0  0  0  0  0  0  0  0  0
   53.0130  155.6620   26.6390 C   0  0  0  0  0  0  0  0  0  0  0  0
   52.4160  156.6460   27.4650 C   0  0  0  0  0  0  0  0  0  0  0  0
   51.6200  156.3230   28.5690 C   0  0  0  0  0  0  0  0  0  0  0  0
   51.0520  157.3930   29.4170 C   0  0  0  0  0  0  0  0  0  0  0  0
   51.9480  158.4310   29.6480 O   0  0  0  0  0  0  0  0  0  0  0  0
   51.5490  159.4910   30.4210 C   0  0  0  0  0  0  0  0  0  0  0  0
   52.4850  160.5030   30.6400 C   0  0  0  0  0  0  0  0  0  0  0  0
   52.1420  161.6120   31.4170 C   0  0  0  0  0  0  0  0  0  0  0  0
   50.8670  161.7090   31.9750 C   0  0  0  0  0  0  0  0  0  0  0  0
   49.9340  160.6970   31.7560 C   0  0  0  0  0  0  0  0  0  0  0  0
   48.7040  160.8560   32.3320 O   0  0  0  0  0  0  0  0  0  0  0  0
   50.2780  159.5870   30.9790 C   0  0  0  0  0  0  0  0  0  0  0  0
   49.3290  158.5020   30.7240 C   0  0  0  0  0  0  0  0  0  0  0  0
   48.1850  158.5190   31.1740 O   0  0  0  0  0  0  0  0  0  0  0  0
   49.7930  157.3670   29.8940 C   0  0  0  0  0  0  0  0  0  0  0  0
   48.8850  156.3540   29.6490 O   0  0  0  0  0  0  0  0  0  0  0  0
   51.4320  154.9760   28.8530 C   0  0  0  0  0  0  0  0  0  0  0  0
   51.9990  153.9880   28.0400 C   0  0  0  0  0  0  0  0  0  0  0  0
   52.7850  154.2860   26.9010 C   0  0  0  0  0  0  0  0  0  0  0  0
   53.3630  153.1150   26.0590 C   0  0  0  0  0  0  0  0  0  0  0  0
   54.8210  152.7650   26.4320 C   0  0  0  0  0  0  0  0  0  0  0  0
   53.4040  153.4170   24.5340 C   0  0  0  0  0  0  0  0  0  0  0  0
   52.4630  151.8740   26.2340 C   0  0  0  0  0  0  0  0  0  0  0  0
   54.6917  156.7586   25.8875 H   0  0  0  0  0  0  0  0  0  0  0  0
   54.1923  155.3596   24.8775 H   0  0  0  0  0  0  0  0  0  0  0  0
   53.2099  156.8634   24.8775 H   0  0  0  0  0  0  0  0  0  0  0  0
   52.5852  157.7069   27.2287 H   0  0  0  0  0  0  0  0  0  0  0  0
   53.4910  160.4274   30.2015 H   0  0  0  0  0  0  0  0  0  0  0  0
   52.8787  162.4105   31.5893 H   0  0  0  0  0  0  0  0  0  0  0  0
   50.5985  162.5828   32.5868 H   0  0  0  0  0  0  0  0  0  0  0  0
   48.0500  160.1920   32.2300 H   0  0  0  0  0  0  0  0  0  0  0  0
   48.0750  156.5460   29.2180 H   0  0  0  0  0  0  0  0  0  0  0  0
   50.8309  154.6829   29.7264 H   0  0  0  0  0  0  0  0  0  0  0  0
   51.8262  152.9327   28.2976 H   0  0  0  0  0  0  0  0  0  0  0  0
   54.9235  152.7404   27.5269 H   0  0  0  0  0  0  0  0  0  0  0  0
   55.0791  151.7794   26.0173 H   0  0  0  0  0  0  0  0  0  0  0  0
   55.4984  153.5261   26.0173 H   0  0  0  0  0  0  0  0  0  0  0  0
   53.5505  154.4959   24.3777 H   0  0  0  0  0  0  0  0  0  0  0  0
   54.2352  152.8635   24.0728 H   0  0  0  0  0  0  0  0  0  0  0  0
   52.4553  153.1052   24.0728 H   0  0  0  0  0  0  0  0  0  0  0  0
   52.3182  151.6743   27.3060 H   0  0  0  0  0  0  0  0  0  0  0  0
   51.4875  152.0588   25.7604 H   0  0  0  0  0  0  0  0  0  0  0  0
   52.9417  151.0042   25.7604 H   0  0  0  0  0  0  0  0  0  0  0  0
  1  2  1  0
  2  3  2  0
  3  4  1  0
  4  5  1  0
  5  6  1  0
  6  7  1  0
  7  8  2  0
  8  9  1  0
  9 10  2  0
 10 11  1  0
 11 12  1  0
 11 13  2  0
 13 14  1  0
 14 15  2  0
 14 16  1  0
 16 17  1  0
  4 18  2  0
 18 19  1  0
 19 20  2  0
 20 21  1  0
 21 22  1  0
 21 23  1  0
 21 24  1  0
 20  2  1  0
 16  5  2  0
 13  7  1  0
  1 25  1  0
  1 26  1  0
  1 27  1  0
  3 28  1  0
  8 29  1  0
  9 30  1  0
 10 31  1  0
 12 32  1  0
 17 33  1  0
 18 34  1  0
 19 35  1  0
 22 36  1  0
 22 37  1  0
 22 38  1  0
 23 39  1  0
 23 40  1  0
 23 41  1  0
 24 42  1  0
 24 43  1  0
 24 44  1  0
M  END
>  <meeko>  (4) 
{"is_sidechain": [false], "free_energy": -8.941, "intermolecular_energy": -10.779, "internal_energy": 0.199}

$$$$
