cand_003_out
     RDKit          3D

 35 37  0  0  0  0  0  0  0  0999 V2000
   52.0270  161.0080   30.7060 C   0  0  0  0  0  0  0  0  0  0  0  0
   51.2330  159.7470   30.4940 C   0  0  0  0  0  0  0  0  0  0  0  0
   51.8150  158.6850   29.7760 C   0  0  0  0  0  0  0  0  0  0  0  0
   51.1270  157.4810   29.5580 C   0  0  0  0  0  0  0  0  0  0  0  0
   51.7650  156.4010   28.7760 C   0  0  0  0  0  0  0  0  0  0  0  0
   52.3240  156.8520   27.5860 O   0  0  0  0  0  0  0  0  0  0  0  0
   52.9500  155.9500   26.7640 C   0  0  0  0  0  0  0  0  0  0  0  0
   53.4840  156.4420   25.5720 C   0  0  0  0  0  0  0  0  0  0  0  0
   54.1360  155.5780   24.6910 C   0  0  0  0  0  0  0  0  0  0  0  0
   54.2550  154.2210   25.0000 C   0  0  0  0  0  0  0  0  0  0  0  0
   53.7220  153.7320   26.1910 C   0  0  0  0  0  0  0  0  0  0  0  0
   53.8740  152.3940   26.4320 O   0  0  0  0  0  0  0  0  0  0  0  0
   53.0680  154.5980   27.0710 C   0  0  0  0  0  0  0  0  0  0  0  0
   52.4940  154.1250   28.3310 C   0  0  0  0  0  0  0  0  0  0  0  0
   52.5630  152.9470   28.6780 O   0  0  0  0  0  0  0  0  0  0  0  0
   51.8150  155.1220   29.1920 C   0  0  0  0  0  0  0  0  0  0  0  0
   51.2880  154.6680   30.3870 O   0  0  0  0  0  0  0  0  0  0  0  0
   49.8270  157.3570   30.0590 C   0  0  0  0  0  0  0  0  0  0  0  0
   49.2370  158.4010   30.7750 C   0  0  0  0  0  0  0  0  0  0  0  0
   49.9260  159.6030   31.0060 C   0  0  0  0  0  0  0  0  0  0  0  0
   49.2530  160.7110   31.7880 C   0  0  0  0  0  0  0  0  0  0  0  0
   48.9860  161.8090   31.0270 F   0  0  0  0  0  0  0  0  0  0  0  0
   49.9950  161.1660   32.8390 F   0  0  0  0  0  0  0  0  0  0  0  0
   48.0600  160.3270   32.3250 F   0  0  0  0  0  0  0  0  0  0  0  0
   52.1426  161.1916   31.7844 H   0  0  0  0  0  0  0  0  0  0  0  0
   53.0194  160.8984   30.2443 H   0  0  0  0  0  0  0  0  0  0  0  0
   51.4993  161.8555   30.2443 H   0  0  0  0  0  0  0  0  0  0  0  0
   52.8332  158.8015   29.3763 H   0  0  0  0  0  0  0  0  0  0  0  0
   53.3910  157.5103   25.3270 H   0  0  0  0  0  0  0  0  0  0  0  0
   54.5569  155.9663   23.7518 H   0  0  0  0  0  0  0  0  0  0  0  0
   54.7681  153.5401   24.3049 H   0  0  0  0  0  0  0  0  0  0  0  0
   53.2150  151.7900   26.1520 H   0  0  0  0  0  0  0  0  0  0  0  0
   51.6110  153.8770   30.7710 H   0  0  0  0  0  0  0  0  0  0  0  0
   49.2637  156.4279   29.8874 H   0  0  0  0  0  0  0  0  0  0  0  0
   48.2155  158.2799   31.1646 H   0  0  0  0  0  0  0  0  0  0  0  0
  1  2  1  0
  2  3  2  0
  3  4  1  0
  4  5  1  0
  5  6  1  0
  6  7  1  0
  7  8  2  0
  8  9  1  0
  9 10  2  0
 10 11  1  0
 11 12  1  0
 11 13  2  0
 13 14  1  0
 14 15  2  0
 14 16  1  0
 16 17  1  0
  4 18  2  0
 18 19  1  0
 19 20  2  0
 20 21  1  0
 21 22  1  0
 21 23  1  0
 21 24  1  0
 20  2  1  0
 16  5  2  0
 13  7  1  0
  1 25  1  0
  1 26  1  0
  1 27  1  0
  3 28  1  0
  8 29  1  0
  9 30  1  0
 10 31  1  0
 12 32  1  0
 17 33  1  0
 18 34  1  0
 19 35  1  0
M  END
>  <meeko>  (1) 
{"is_sidechain": [false], "free_energy": -11.416, "intermolecular_energy": -13.418, "internal_energy": -0.164}

$$$$
cand_003_out
     RDKit          3D

 35 37  0  0  0  0  0  0  0  0999 V2000
   48.1880  158.8010   31.3260 C   0  0  0  0  0  0  0  0  0  0  0  0
   49.5980  158.8490   30.8000 C   0  0  0  0  0  0  0  0  0  0  0  0
   50.0890  157.7560   30.0610 C   0  0  0  0  0  0  0  0  0  0  0  0
   51.3910  157.7500   29.5360 C   0  0  0  0  0  0  0  0  0  0  0  0
   51.8760  156.5710   28.7870 C   0  0  0  0  0  0  0  0  0  0  0  0
   52.4740  156.9070   27.5780 O   0  0  0  0  0  0  0  0  0  0  0  0
   52.9700  155.9050   26.7840 C   0  0  0  0  0  0  0  0  0  0  0  0
   53.5500  156.2840   25.5720 C   0  0  0  0  0  0  0  0  0  0  0  0
   54.0750  155.3140   24.7170 C   0  0  0  0  0  0  0  0  0  0  0  0
   54.0230  153.9650   25.0720 C   0  0  0  0  0  0  0  0  0  0  0  0
   53.4450  153.5880   26.2830 C   0  0  0  0  0  0  0  0  0  0  0  0
   53.4280  152.2510   26.5690 O   0  0  0  0  0  0  0  0  0  0  0  0
   52.9180  154.5600   27.1370 C   0  0  0  0  0  0  0  0  0  0  0  0
   52.3020  154.2070   28.4170 C   0  0  0  0  0  0  0  0  0  0  0  0
   52.2240  153.0430   28.8040 O   0  0  0  0  0  0  0  0  0  0  0  0
   51.7660  155.3110   29.2480 C   0  0  0  0  0  0  0  0  0  0  0  0
   51.1990  154.9690   30.4610 O   0  0  0  0  0  0  0  0  0  0  0  0
   52.2110  158.8580   29.7750 C   0  0  0  0  0  0  0  0  0  0  0  0
   51.7360  159.9510   30.5050 C   0  0  0  0  0  0  0  0  0  0  0  0
   50.4300  159.9670   31.0230 C   0  0  0  0  0  0  0  0  0  0  0  0
   49.9520  161.1700   31.8070 C   0  0  0  0  0  0  0  0  0  0  0  0
   50.9350  162.0900   32.0160 F   0  0  0  0  0  0  0  0  0  0  0  0
   49.4740  160.8580   33.0460 F   0  0  0  0  0  0  0  0  0  0  0  0
   48.9400  161.8360   31.1820 F   0  0  0  0  0  0  0  0  0  0  0  0
   48.2067  158.8016   32.4258 H   0  0  0  0  0  0  0  0  0  0  0  0
   47.6330  159.6808   30.9682 H   0  0  0  0  0  0  0  0  0  0  0  0
   47.6941  157.8855   30.9682 H   0  0  0  0  0  0  0  0  0  0  0  0
   49.4373  156.8863   29.8910 H   0  0  0  0  0  0  0  0  0  0  0  0
   53.5932  157.3467   25.2911 H   0  0  0  0  0  0  0  0  0  0  0  0
   54.5307  155.6130   23.7615 H   0  0  0  0  0  0  0  0  0  0  0  0
   54.4373  153.2012   24.3975 H   0  0  0  0  0  0  0  0  0  0  0  0
   54.1680  151.7160   26.3570 H   0  0  0  0  0  0  0  0  0  0  0  0
   51.1090  155.6140   31.1340 H   0  0  0  0  0  0  0  0  0  0  0  0
   53.2394  158.8690   29.3847 H   0  0  0  0  0  0  0  0  0  0  0  0
   52.3962  160.8139   30.6771 H   0  0  0  0  0  0  0  0  0  0  0  0
  1  2  1  0
  2  3  2  0
  3  4  1  0
  4  5  1  0
  5  6  1  0
  6  7  1  0
  7  8  2  0
  8  9  1  0
  9 10  2  0
 10 11  1  0
 11 12  1  0
 11 13  2  0
 13 14  1  0
 14 15  2  0
 14 16  1  0
 16 17  1  0
  4 18  2  0
 18 19  1  0
 19 20  2  0
 20 21  1  0
 21 22  1  0
 21 23  1  0
 21 24  1  0
 20  2  1  0
 16  5  2  0
 13  7  1  0
  1 25  1  0
  1 26  1  0
  1 27  1  0
  3 28  1  0
  8 29  1  0
  9 30  1  0
 10 31  1  0
 12 32  1  0
 17 33  1  0
 18 34  1  0
 19 35  1  0
M  END
>  <meeko>  (2) 
{"is_sidechain": [false], "free_energy": -11.269, "intermolecular_energy": -13.297, "internal_energy": -0.112}

$$$$
cand_003_out
     RDKit          3D

 35 37  0  0  0  0  0  0  0  0999 V2000
   53.7100  155.4260   25.3920 C   0  0  0  0  0  0  0  0  0  0  0  0
   52.9610  155.2470   26.6850 C   0  0  0  0  0  0  0  0  0  0  0  0
   52.5610  156.3870   27.4080 C   0  0  0  0  0  0  0  0  0  0  0  0
   51.8490  156.2820   28.6130 C   0  0  0  0  0  0  0  0  0  0  0  0
   51.4720  157.5040   29.3540 C   0  0  0  0  0  0  0  0  0  0  0  0
   50.1470  157.4950   29.7750 O   0  0  0  0  0  0  0  0  0  0  0  0
   49.6670  158.5710   30.4750 C   0  0  0  0  0  0  0  0  0  0  0  0
   48.3280  158.5270   30.8660 C   0  0  0  0  0  0  0  0  0  0  0  0
   47.7760  159.5890   31.5850 C   0  0  0  0  0  0  0  0  0  0  0  0
   48.5620  160.6960   31.9120 C   0  0  0  0  0  0  0  0  0  0  0  0
   49.8980  160.7380   31.5220 C   0  0  0  0  0  0  0  0  0  0  0  0
   50.6100  161.8500   31.8770 O   0  0  0  0  0  0  0  0  0  0  0  0
   50.4490  159.6740   30.8020 C   0  0  0  0  0  0  0  0  0  0  0  0
   51.8480  159.6790   30.3730 C   0  0  0  0  0  0  0  0  0  0  0  0
   52.6060  160.6130   30.6290 O   0  0  0  0  0  0  0  0  0  0  0  0
   52.3340  158.5060   29.6080 C   0  0  0  0  0  0  0  0  0  0  0  0
   53.6610  158.5140   29.2190 O   0  0  0  0  0  0  0  0  0  0  0  0
   51.5520  155.0050   29.1010 C   0  0  0  0  0  0  0  0  0  0  0  0
   51.9390  153.8640   28.3940 C   0  0  0  0  0  0  0  0  0  0  0  0
   52.6410  153.9650   27.1810 C   0  0  0  0  0  0  0  0  0  0  0  0
   53.0430  152.7050   26.4430 C   0  0  0  0  0  0  0  0  0  0  0  0
   54.3510  152.3750   26.6330 F   0  0  0  0  0  0  0  0  0  0  0  0
   52.8780  152.7890   25.0920 F   0  0  0  0  0  0  0  0  0  0  0  0
   52.3200  151.6160   26.8310 F   0  0  0  0  0  0  0  0  0  0  0  0
   54.7591  155.6767   25.6077 H   0  0  0  0  0  0  0  0  0  0  0  0
   53.6679  154.4925   24.8116 H   0  0  0  0  0  0  0  0  0  0  0  0
   53.2504  156.2396   24.8116 H   0  0  0  0  0  0  0  0  0  0  0  0
   52.8127  157.3846   27.0189 H   0  0  0  0  0  0  0  0  0  0  0  0
   47.7078  157.6560   30.6078 H   0  0  0  0  0  0  0  0  0  0  0  0
   46.7209  159.5537   31.8942 H   0  0  0  0  0  0  0  0  0  0  0  0
   48.1264  161.5334   32.4768 H   0  0  0  0  0  0  0  0  0  0  0  0
   51.3840  162.0820   31.4020 H   0  0  0  0  0  0  0  0  0  0  0  0
   54.1550  157.7180   29.2250 H   0  0  0  0  0  0  0  0  0  0  0  0
   51.0082  154.8983   30.0512 H   0  0  0  0  0  0  0  0  0  0  0  0
   51.6900  152.8698   28.7936 H   0  0  0  0  0  0  0  0  0  0  0  0
  1  2  1  0
  2  3  2  0
  3  4  1  0
  4  5  1  0
  5  6  1  0
  6  7  1  0
  7  8  2  0
  8  9  1  0
  9 10  2  0
 10 11  1  0
 11 12  1  0
 11 13  2  0
 13 14  1  0
 14 15  2  0
 14 16  1  0
 16 17  1  0
  4 18  2  0
 18 19  1  0
 19 20  2  0
 20 21  1  0
 21 22  1  0
 21 23  1  0
 21 24  1  0
 20  2  1  0
 16  5  2  0
 13  7  1  0
  1 25  1  0
  1 26  1  0
  1 27  1  0
  3 28  1  0
  8 29  1  0
  9 30  1  0
 10 31  1  0
 12 32  1  0
 17 33  1  0
 18 34  1  0
 19 35  1  0
M  END
>  <meeko>  (3) 
{"is_sidechain": [false], "free_energy": -10.638, "intermolecular_energy": -12.686, "internal_energy": 0.019}

$$$$
cand_003_out
     RDKit          3D

 35 37  0  0  0  0  0  0  0  0999 V2000
   53.7860  155.8150   25.4410 C   0  0  0  0  0  0  0  0  0  0  0  0
   52.9790  155.4370   26.6540 C   0  0  0  0  0  0  0  0  0  0  0  0
   52.4020  156.4560   27.4370 C   0  0  0  0  0  0  0  0  0  0  0  0
   51.6310  156.1630   28.5720 C   0  0  0  0  0  0  0  0  0  0  0  0
   51.0650  157.2640   29.3800 C   0  0  0  0  0  0  0  0  0  0  0  0
   51.9720  158.2930   29.6030 O   0  0  0  0  0  0  0  0  0  0  0  0
   51.5750  159.3790   30.3410 C   0  0  0  0  0  0  0  0  0  0  0  0
   52.5210  160.3820   30.5530 C   0  0  0  0  0  0  0  0  0  0  0  0
   52.1810  161.5160   31.2940 C   0  0  0  0  0  0  0  0  0  0  0  0
   50.8950  161.6470   31.8220 C   0  0  0  0  0  0  0  0  0  0  0  0
   49.9520  160.6450   31.6080 C   0  0  0  0  0  0  0  0  0  0  0  0
   48.7120  160.8380   32.1530 O   0  0  0  0  0  0  0  0  0  0  0  0
   50.2930  159.5100   30.8680 C   0  0  0  0  0  0  0  0  0  0  0  0
   49.3330  158.4340   30.6210 C   0  0  0  0  0  0  0  0  0  0  0  0
   48.1800  158.4790   31.0450 O   0  0  0  0  0  0  0  0  0  0  0  0
   49.7960  157.2700   29.8300 C   0  0  0  0  0  0  0  0  0  0  0  0
   48.8770  156.2650   29.5900 O   0  0  0  0  0  0  0  0  0  0  0  0
   51.4540  154.8220   28.9290 C   0  0  0  0  0  0  0  0  0  0  0  0
   52.0180  153.8000   28.1610 C   0  0  0  0  0  0  0  0  0  0  0  0
   52.7810  154.0880   27.0170 C   0  0  0  0  0  0  0  0  0  0  0  0
   53.3750  152.9530   26.2100 C   0  0  0  0  0  0  0  0  0  0  0  0
   54.7130  152.8010   26.4150 F   0  0  0  0  0  0  0  0  0  0  0  0
   53.2260  153.1060   24.8630 F   0  0  0  0  0  0  0  0  0  0  0  0
   52.8110  151.7470   26.5050 F   0  0  0  0  0  0  0  0  0  0  0  0
   54.7395  156.2616   25.7595 H   0  0  0  0  0  0  0  0  0  0  0  0
   53.9851  154.9165   24.8385 H   0  0  0  0  0  0  0  0  0  0  0  0
   53.2232  156.5432   24.8385 H   0  0  0  0  0  0  0  0  0  0  0  0
   52.5597  157.5066   27.1517 H   0  0  0  0  0  0  0  0  0  0  0  0
   53.5341  160.2799   30.1368 H   0  0  0  0  0  0  0  0  0  0  0  0
   52.9270  162.3067   31.4618 H   0  0  0  0  0  0  0  0  0  0  0  0
   50.6274  162.5400   32.4059 H   0  0  0  0  0  0  0  0  0  0  0  0
   47.9460  160.5770   31.6790 H   0  0  0  0  0  0  0  0  0  0  0  0
   48.6110  155.6980   30.2860 H   0  0  0  0  0  0  0  0  0  0  0  0
   50.8650  154.5697   29.8231 H   0  0  0  0  0  0  0  0  0  0  0  0
   51.8620  152.7522   28.4571 H   0  0  0  0  0  0  0  0  0  0  0  0
  1  2  1  0
  2  3  2  0
  3  4  1  0
  4  5  1  0
  5  6  1  0
  6  7  1  0
  7  8  2  0
  8  9  1  0
  9 10  2  0
 10 11  1  0
 11 12  1  0
 11 13  2  0
 13 14  1  0
 14 15  2  0
 14 16  1  0
 16 17  1  0
  4 18  2  0
 18 19  1  0
 19 20  2  0
 20 21  1  0
 21 22  1  0
 21 23  1  0
 21 24  1  0
 20  2  1  0
 16  5  2  0
 13  7  1  0
  1 25  1  0
  1 26  1  0
  1 27  1  0
  3 28  1  0
  8 29  1  0
  9 30  1  0
 10 31  1  0
 12 32  1  0
 17 33  1  0
 18 34  1  0
 19 35  1  0
M  END
>  <meeko>  (4) 
{"is_sidechain": [false], "free_energy": -9.399, "intermolecular_energy": -11.16, "internal_energy": -0.051}

$$$$
cand_003_out
     RDKit          3D

 35 37  0  0  0  0  0  0  0  0999 V2000
   51.8900  152.8250   28.3180 C   0  0  0  0  0  0  0  0  0  0  0  0
   52.1610  154.2740   28.0120 C   0  0  0  0  0  0  0  0  0  0  0  0
   51.5900  155.2650   28.8330 C   0  0  0  0  0  0  0  0  0  0  0  0
   51.8180  156.6310   28.6040 C   0  0  0  0  0  0  0  0  0  0  0  0
   51.1770  157.6400   29.4730 C   0  0  0  0  0  0  0  0  0  0  0  0
   51.9940  158.7370   29.7220 O   0  0  0  0  0  0  0  0  0  0  0  0
   51.5200  159.7500   30.5160 C   0  0  0  0  0  0  0  0  0  0  0  0
   52.3770  160.8260   30.7500 C   0  0  0  0  0  0  0  0  0  0  0  0
   51.9570  161.8910   31.5490 C   0  0  0  0  0  0  0  0  0  0  0  0
   50.6790  161.8820   32.1120 C   0  0  0  0  0  0  0  0  0  0  0  0
   49.8240  160.8080   31.8750 C   0  0  0  0  0  0  0  0  0  0  0  0
   48.5870  160.8640   32.4560 O   0  0  0  0  0  0  0  0  0  0  0  0
   50.2470  159.7410   31.0770 C   0  0  0  0  0  0  0  0  0  0  0  0
   49.3810  158.5940   30.8040 C   0  0  0  0  0  0  0  0  0  0  0  0
   48.2400  158.5150   31.2570 O   0  0  0  0  0  0  0  0  0  0  0  0
   49.9260  157.5110   29.9520 C   0  0  0  0  0  0  0  0  0  0  0  0
   49.0950  156.4380   29.6880 O   0  0  0  0  0  0  0  0  0  0  0  0
   52.6230  156.9990   27.5200 C   0  0  0  0  0  0  0  0  0  0  0  0
   53.1990  156.0270   26.6980 C   0  0  0  0  0  0  0  0  0  0  0  0
   52.9830  154.6580   26.9310 C   0  0  0  0  0  0  0  0  0  0  0  0
   53.6260  153.6350   26.0190 C   0  0  0  0  0  0  0  0  0  0  0  0
   52.7280  153.0150   25.2030 F   0  0  0  0  0  0  0  0  0  0  0  0
   54.2640  152.6330   26.6890 F   0  0  0  0  0  0  0  0  0  0  0  0
   54.5660  154.1810   25.1970 F   0  0  0  0  0  0  0  0  0  0  0  0
   51.8628  152.6793   29.4080 H   0  0  0  0  0  0  0  0  0  0  0  0
   50.9218  152.5336   27.8848 H   0  0  0  0  0  0  0  0  0  0  0  0
   52.6875  152.2034   27.8848 H   0  0  0  0  0  0  0  0  0  0  0  0
   50.9497  154.9615   29.6743 H   0  0  0  0  0  0  0  0  0  0  0  0
   53.3830  160.8351   30.3052 H   0  0  0  0  0  0  0  0  0  0  0  0
   52.6335  162.7382   31.7353 H   0  0  0  0  0  0  0  0  0  0  0  0
   50.3481  162.7213   32.7414 H   0  0  0  0  0  0  0  0  0  0  0  0
   47.8590  160.4330   32.0510 H   0  0  0  0  0  0  0  0  0  0  0  0
   49.4370  155.5660   29.7060 H   0  0  0  0  0  0  0  0  0  0  0  0
   52.8041  158.0641   27.3130 H   0  0  0  0  0  0  0  0  0  0  0  0
   53.8322  156.3385   25.8542 H   0  0  0  0  0  0  0  0  0  0  0  0
  1  2  1  0
  2  3  2  0
  3  4  1  0
  4  5  1  0
  5  6  1  0
  6  7  1  0
  7  8  2  0
  8  9  1  0
  9 10  2  0
 10 11  1  0
 11 12  1  0
 11 13  2  0
 13 14  1  0
 14 15  2  0
 14 16  1  0
 16 17  1  0
  4 18  2  0
 18 19  1  0
 19 20  2  0
 20 21  1  0
 21 22  1  0
 21 23  1  0
 21 24  1  0
 20  2  1  0
 16  5  2  0
 13  7  1  0
  1 25  1  0
  1 26  1  0
  1 27  1  0
  3 28  1  0
  8 29  1  0
  9 30  1  0
 10 31  1  0
 12 32  1  0
 17 33  1  0
 18 34  1  0
 19 35  1  0
M  END
>  <meeko>  (5) 
{"is_sidechain": [false], "free_energy": -9.186, "intermolecular_energy": -11.026, "internal_energy": 0.066}

$$$$
cand_003_out
     RDKit          3D

 35 37  0  0  0  0  0  0  0  0999 V2000
   51.9120  159.8270   30.1540 C   0  0  0  0  0  0  0  0  0  0  0  0
   51.2620  158.5070   29.8370 C   0  0  0  0  0  0  0  0  0  0  0  0
   51.9260  157.6040   28.9870 C   0  0  0  0  0  0  0  0  0  0  0  0
   51.3740  156.3540   28.6660 C   0  0  0  0  0  0  0  0  0  0  0  0
   52.0930  155.4460   27.7480 C   0  0  0  0  0  0  0  0  0  0  0  0
   51.6890  154.1210   27.8700 O   0  0  0  0  0  0  0  0  0  0  0  0
   52.2780  153.1730   27.0730 C   0  0  0  0  0  0  0  0  0  0  0  0
   51.8530  151.8540   27.2390 C   0  0  0  0  0  0  0  0  0  0  0  0
   52.4090  150.8390   26.4580 C   0  0  0  0  0  0  0  0  0  0  0  0
   53.3910  151.1420   25.5120 C   0  0  0  0  0  0  0  0  0  0  0  0
   53.8120  152.4590   25.3470 C   0  0  0  0  0  0  0  0  0  0  0  0
   54.7750  152.6860   24.4030 O   0  0  0  0  0  0  0  0  0  0  0  0
   53.2560  153.4740   26.1310 C   0  0  0  0  0  0  0  0  0  0  0  0
   53.6710  154.8700   25.9900 C   0  0  0  0  0  0  0  0  0  0  0  0
   54.5230  155.2180   25.1750 O   0  0  0  0  0  0  0  0  0  0  0  0
   53.0240  155.8700   26.8730 C   0  0  0  0  0  0  0  0  0  0  0  0
   53.4130  157.1880   26.7230 O   0  0  0  0  0  0  0  0  0  0  0  0
   50.1260  156.0210   29.2010 C   0  0  0  0  0  0  0  0  0  0  0  0
   49.4540  156.9060   30.0490 C   0  0  0  0  0  0  0  0  0  0  0  0
   50.0090  158.1530   30.3820 C   0  0  0  0  0  0  0  0  0  0  0  0
   49.2520  159.0840   31.3060 C   0  0  0  0  0  0  0  0  0  0  0  0
   48.7380  160.1680   30.6590 F   0  0  0  0  0  0  0  0  0  0  0  0
   50.0160  159.5890   32.3170 F   0  0  0  0  0  0  0  0  0  0  0  0
   48.1960  158.4750   31.9160 F   0  0  0  0  0  0  0  0  0  0  0  0
   51.9739  159.9526   31.2451 H   0  0  0  0  0  0  0  0  0  0  0  0
   52.9243  159.8498   29.7243 H   0  0  0  0  0  0  0  0  0  0  0  0
   51.3128  160.6433   29.7243 H   0  0  0  0  0  0  0  0  0  0  0  0
   52.9017  157.8843   28.5635 H   0  0  0  0  0  0  0  0  0  0  0  0
   51.0806  151.6143   27.9846 H   0  0  0  0  0  0  0  0  0  0  0  0
   52.0733  149.7995   26.5878 H   0  0  0  0  0  0  0  0  0  0  0  0
   53.8309  150.3418   24.8986 H   0  0  0  0  0  0  0  0  0  0  0  0
   54.7230  153.4440   23.8530 H   0  0  0  0  0  0  0  0  0  0  0  0
   53.9000  157.6120   27.4010 H   0  0  0  0  0  0  0  0  0  0  0  0
   49.6681  155.0523   28.9520 H   0  0  0  0  0  0  0  0  0  0  0  0
   48.4750  156.6216   30.4622 H   0  0  0  0  0  0  0  0  0  0  0  0
  1  2  1  0
  2  3  2  0
  3  4  1  0
  4  5  1  0
  5  6  1  0
  6  7  1  0
  7  8  2  0
  8  9  1  0
  9 10  2  0
 10 11  1  0
 11 12  1  0
 11 13  2  0
 13 14  1  0
 14 15  2  0
 14 16  1  0
 16 17  1  0
  4 18  2  0
 18 19  1  0
 19 20  2  0
 20 21  1  0
 21 22  1  0
 21 23  1  0
 21 24  1  0
 20  2  1  0
 16  5  2  0
 13  7  1  0
  1 25  1  0
  1 26  1  0
  1 27  1  0
  3 28  1  0
  8 29  1  0
  9 30  1  0
 10 31  1  0
 12 32  1  0
 17 33  1  0
 18 34  1  0
 19 35  1  0
M  END
>  <meeko>  (6) 
{"is_sidechain": [false], "free_energy": -8.818, "intermolecular_energy": -10.773, "internal_energy": 0.245}

$$$$
