cand_014_out
     RDKit          3D

 35 37  0  0  0  0  0  0  0  0999 V2000
   50.0830  161.2030   31.5960 C   0  0  0  0  0  0  0  0  0  0  0  0
   50.5220  159.9550   30.8780 C   0  0  0  0  0  0  0  0  0  0  0  0
   51.8210  159.8920   30.3550 C   0  0  0  0  0  0  0  0  0  0  0  0
   52.2650  158.7570   29.6720 C   0  0  0  0  0  0  0  0  0  0  0  0
   51.4240  157.6540   29.4950 C   0  0  0  0  0  0  0  0  0  0  0  0
   51.9070  156.4700   28.7550 C   0  0  0  0  0  0  0  0  0  0  0  0
   52.5100  156.7960   27.5460 O   0  0  0  0  0  0  0  0  0  0  0  0
   53.0000  155.7860   26.7580 C   0  0  0  0  0  0  0  0  0  0  0  0
   53.5830  156.1550   25.5450 C   0  0  0  0  0  0  0  0  0  0  0  0
   54.1040  155.1760   24.6960 C   0  0  0  0  0  0  0  0  0  0  0  0
   54.0430  153.8290   25.0600 C   0  0  0  0  0  0  0  0  0  0  0  0
   53.4610  153.4640   26.2710 C   0  0  0  0  0  0  0  0  0  0  0  0
   53.4360  152.1280   26.5650 O   0  0  0  0  0  0  0  0  0  0  0  0
   52.9400  154.4430   27.1200 C   0  0  0  0  0  0  0  0  0  0  0  0
   52.3200  154.1010   28.4000 C   0  0  0  0  0  0  0  0  0  0  0  0
   52.2360  152.9400   28.7960 O   0  0  0  0  0  0  0  0  0  0  0  0
   51.7890  155.2130   29.2230 C   0  0  0  0  0  0  0  0  0  0  0  0
   51.2180  154.8830   30.4380 O   0  0  0  0  0  0  0  0  0  0  0  0
   50.1170  157.7250   29.9990 C   0  0  0  0  0  0  0  0  0  0  0  0
   49.6490  158.8640   30.6840 C   0  0  0  0  0  0  0  0  0  0  0  0
   48.2370  158.8640   31.2240 C   0  0  0  0  0  0  0  0  0  0  0  0
   47.4520  159.8450   30.6930 F   0  0  0  0  0  0  0  0  0  0  0  0
   48.1780  159.0480   32.5730 F   0  0  0  0  0  0  0  0  0  0  0  0
   50.1402  161.0403   32.6824 H   0  0  0  0  0  0  0  0  0  0  0  0
   50.7412  162.0384   31.3152 H   0  0  0  0  0  0  0  0  0  0  0  0
   49.0467  161.4423   31.3152 H   0  0  0  0  0  0  0  0  0  0  0  0
   52.5000  160.7478   30.4841 H   0  0  0  0  0  0  0  0  0  0  0  0
   53.2881  158.7308   29.2688 H   0  0  0  0  0  0  0  0  0  0  0  0
   53.6322  157.2157   25.2578 H   0  0  0  0  0  0  0  0  0  0  0  0
   54.5630  155.4662   23.7394 H   0  0  0  0  0  0  0  0  0  0  0  0
   54.4539  153.0582   24.3914 H   0  0  0  0  0  0  0  0  0  0  0  0
   52.6620  151.7430   26.9290 H   0  0  0  0  0  0  0  0  0  0  0  0
   50.4230  155.2980   30.7110 H   0  0  0  0  0  0  0  0  0  0  0  0
   49.4401  156.8698   29.8559 H   0  0  0  0  0  0  0  0  0  0  0  0
   47.8691  157.8670   30.9399 H   0  0  0  0  0  0  0  0  0  0  0  0
  1  2  1  0
  2  3  2  0
  3  4  1  0
  4  5  2  0
  5  6  1  0
  6  7  1  0
  7  8  1  0
  8  9  2  0
  9 10  1  0
 10 11  2  0
 11 12  1  0
 12 13  1  0
 12 14  2  0
 14 15  1  0
 15 16  2  0
 15 17  1  0
 17 18  1  0
  5 19  1  0
 19 20  2  0
 20 21  1  0
 21 22  1  0
 21 23  1  0
 20  2  1  0
 17  6  2  0
 14  8  1  0
  1 24  1  0
  1 25  1  0
  1 26  1  0
  3 27  1  0
  4 28  1  0
  9 29  1  0
 10 30  1  0
 11 31  1  0
 13 32  1  0
 18 33  1  0
 19 34  1  0
 21 35  1  0
M  END
>  <meeko>  (1) 
{"is_sidechain": [false], "free_energy": -10.887, "intermolecular_energy": -12.796, "internal_energy": -0.124}

$$$$
cand_014_out
     RDKit          3D

 35 37  0  0  0  0  0  0  0  0999 V2000
   49.0710  160.7110   31.8060 C   0  0  0  0  0  0  0  0  0  0  0  0
   49.7720  159.6320   31.0260 C   0  0  0  0  0  0  0  0  0  0  0  0
   49.0920  158.4350   30.7580 C   0  0  0  0  0  0  0  0  0  0  0  0
   49.7100  157.4040   30.0470 C   0  0  0  0  0  0  0  0  0  0  0  0
   51.0220  157.5410   29.5820 C   0  0  0  0  0  0  0  0  0  0  0  0
   51.6630  156.4310   28.8470 C   0  0  0  0  0  0  0  0  0  0  0  0
   52.2220  156.8320   27.6400 O   0  0  0  0  0  0  0  0  0  0  0  0
   52.8470  155.8950   26.8570 C   0  0  0  0  0  0  0  0  0  0  0  0
   53.3790  156.3350   25.6450 C   0  0  0  0  0  0  0  0  0  0  0  0
   54.0310  155.4330   24.8020 C   0  0  0  0  0  0  0  0  0  0  0  0
   54.1510  154.0910   25.1690 C   0  0  0  0  0  0  0  0  0  0  0  0
   53.6190  153.6540   26.3790 C   0  0  0  0  0  0  0  0  0  0  0  0
   53.7730  152.3280   26.6790 O   0  0  0  0  0  0  0  0  0  0  0  0
   52.9670  154.5570   27.2230 C   0  0  0  0  0  0  0  0  0  0  0  0
   52.3930  154.1390   28.5030 C   0  0  0  0  0  0  0  0  0  0  0  0
   52.4650  152.9780   28.9020 O   0  0  0  0  0  0  0  0  0  0  0  0
   51.7140  155.1710   29.3200 C   0  0  0  0  0  0  0  0  0  0  0  0
   51.1880  154.7700   30.5330 O   0  0  0  0  0  0  0  0  0  0  0  0
   51.7090  158.7290   29.8690 C   0  0  0  0  0  0  0  0  0  0  0  0
   51.1060  159.7770   30.5910 C   0  0  0  0  0  0  0  0  0  0  0  0
   51.8950  161.0420   30.8430 C   0  0  0  0  0  0  0  0  0  0  0  0
   53.0530  161.1120   30.1250 F   0  0  0  0  0  0  0  0  0  0  0  0
   52.2700  161.1920   32.1440 F   0  0  0  0  0  0  0  0  0  0  0  0
   49.1931  160.5231   32.8829 H   0  0  0  0  0  0  0  0  0  0  0  0
   49.5069  161.6887   31.5526 H   0  0  0  0  0  0  0  0  0  0  0  0
   48.0006  160.7100   31.5526 H   0  0  0  0  0  0  0  0  0  0  0  0
   48.0586  158.3066   31.1124 H   0  0  0  0  0  0  0  0  0  0  0  0
   49.1583  156.4729   29.8503 H   0  0  0  0  0  0  0  0  0  0  0  0
   53.2850  157.3915   25.3537 H   0  0  0  0  0  0  0  0  0  0  0  0
   54.4511  155.7803   23.8465 H   0  0  0  0  0  0  0  0  0  0  0  0
   54.6645  153.3811   24.5038 H   0  0  0  0  0  0  0  0  0  0  0  0
   53.8970  151.7040   25.9900 H   0  0  0  0  0  0  0  0  0  0  0  0
   51.7220  154.7790   31.3030 H   0  0  0  0  0  0  0  0  0  0  0  0
   52.7460  158.8455   29.5211 H   0  0  0  0  0  0  0  0  0  0  0  0
   51.1917  161.8305   30.5369 H   0  0  0  0  0  0  0  0  0  0  0  0
  1  2  1  0
  2  3  2  0
  3  4  1  0
  4  5  2  0
  5  6  1  0
  6  7  1  0
  7  8  1  0
  8  9  2  0
  9 10  1  0
 10 11  2  0
 11 12  1  0
 12 13  1  0
 12 14  2  0
 14 15  1  0
 15 16  2  0
 15 17  1  0
 17 18  1  0
  5 19  1  0
 19 20  2  0
 20 21  1  0
 21 22  1  0
 21 23  1  0
 20  2  1  0
 17  6  2  0
 14  8  1  0
  1 24  1  0
  1 25  1  0
  1 26  1  0
  3 27  1  0
  4 28  1  0
  9 29  1  0
 10 30  1  0
 11 31  1  0
 13 32  1  0
 18 33  1  0
 19 34  1  0
 21 35  1  0
M  END
>  <meeko>  (2) 
{"is_sidechain": [false], "free_energy": -10.591, "intermolecular_energy": -12.301, "internal_energy": -0.272}

$$$$
cand_014_out
     RDKit          3D

 35 37  0  0  0  0  0  0  0  0999 V2000
   52.9420  152.5090   26.7160 C   0  0  0  0  0  0  0  0  0  0  0  0
   52.5920  153.8130   27.3820 C   0  0  0  0  0  0  0  0  0  0  0  0
   51.9090  153.7890   28.6060 C   0  0  0  0  0  0  0  0  0  0  0  0
   51.5550  154.9760   29.2530 C   0  0  0  0  0  0  0  0  0  0  0  0
   51.8750  156.2180   28.6940 C   0  0  0  0  0  0  0  0  0  0  0  0
   51.4760  157.4610   29.3850 C   0  0  0  0  0  0  0  0  0  0  0  0
   50.1510  157.4460   29.8050 O   0  0  0  0  0  0  0  0  0  0  0  0
   49.6520  158.5440   30.4580 C   0  0  0  0  0  0  0  0  0  0  0  0
   48.3130  158.4960   30.8470 C   0  0  0  0  0  0  0  0  0  0  0  0
   47.7440  159.5790   31.5190 C   0  0  0  0  0  0  0  0  0  0  0  0
   48.5120  160.7110   31.8030 C   0  0  0  0  0  0  0  0  0  0  0  0
   49.8470  160.7560   31.4130 C   0  0  0  0  0  0  0  0  0  0  0  0
   50.5420  161.8930   31.7240 O   0  0  0  0  0  0  0  0  0  0  0  0
   50.4180  159.6730   30.7410 C   0  0  0  0  0  0  0  0  0  0  0  0
   51.8170  159.6800   30.3150 C   0  0  0  0  0  0  0  0  0  0  0  0
   52.5610  160.6340   30.5340 O   0  0  0  0  0  0  0  0  0  0  0  0
   52.3230  158.4850   29.6000 C   0  0  0  0  0  0  0  0  0  0  0  0
   53.6500  158.4950   29.2130 O   0  0  0  0  0  0  0  0  0  0  0  0
   52.5380  156.2410   27.4590 C   0  0  0  0  0  0  0  0  0  0  0  0
   52.8970  155.0550   26.7890 C   0  0  0  0  0  0  0  0  0  0  0  0
   53.6350  155.1530   25.4720 C   0  0  0  0  0  0  0  0  0  0  0  0
   54.0410  156.4190   25.1690 F   0  0  0  0  0  0  0  0  0  0  0  0
   52.8870  154.7510   24.4070 F   0  0  0  0  0  0  0  0  0  0  0  0
   53.1462  151.7483   27.4839 H   0  0  0  0  0  0  0  0  0  0  0  0
   52.1003  152.1801   26.0887 H   0  0  0  0  0  0  0  0  0  0  0  0
   53.8352  152.6458   26.0887 H   0  0  0  0  0  0  0  0  0  0  0  0
   51.6483  152.8231   29.0632 H   0  0  0  0  0  0  0  0  0  0  0  0
   51.0188  154.9334   30.2125 H   0  0  0  0  0  0  0  0  0  0  0  0
   47.7065  157.6057   30.6244 H   0  0  0  0  0  0  0  0  0  0  0  0
   46.6883  159.5411   31.8257 H   0  0  0  0  0  0  0  0  0  0  0  0
   48.0629  161.5638   32.3331 H   0  0  0  0  0  0  0  0  0  0  0  0
   51.3820  161.8310   32.1360 H   0  0  0  0  0  0  0  0  0  0  0  0
   54.3250  158.3510   29.8470 H   0  0  0  0  0  0  0  0  0  0  0  0
   52.7843  157.2104   27.0012 H   0  0  0  0  0  0  0  0  0  0  0  0
   54.4981  154.4892   25.6279 H   0  0  0  0  0  0  0  0  0  0  0  0
  1  2  1  0
  2  3  2  0
  3  4  1  0
  4  5  2  0
  5  6  1  0
  6  7  1  0
  7  8  1  0
  8  9  2  0
  9 10  1  0
 10 11  2  0
 11 12  1  0
 12 13  1  0
 12 14  2  0
 14 15  1  0
 15 16  2  0
 15 17  1  0
 17 18  1  0
  5 19  1  0
 19 20  2  0
 20 21  1  0
 21 22  1  0
 21 23  1  0
 20  2  1  0
 17  6  2  0
 14  8  1  0
  1 24  1  0
  1 25  1  0
  1 26  1  0
  3 27  1  0
  4 28  1  0
  9 29  1  0
 10 30  1  0
 11 31  1  0
 13 32  1  0
 18 33  1  0
 19 34  1  0
 21 35  1  0
M  END
>  <meeko>  (3) 
{"is_sidechain": [false], "free_energy": -10.576, "intermolecular_energy": -12.296, "internal_energy": -0.26}

$$$$
cand_014_out
     RDKit          3D

 35 37  0  0  0  0  0  0  0  0999 V2000
   53.4090  152.7180   26.7350 C   0  0  0  0  0  0  0  0  0  0  0  0
   52.8330  153.9230   27.4280 C   0  0  0  0  0  0  0  0  0  0  0  0
   52.1090  153.7430   28.6160 C   0  0  0  0  0  0  0  0  0  0  0  0
   51.5470  154.8320   29.2860 C   0  0  0  0  0  0  0  0  0  0  0  0
   51.6950  156.1310   28.7890 C   0  0  0  0  0  0  0  0  0  0  0  0
   51.0780  157.2680   29.5030 C   0  0  0  0  0  0  0  0  0  0  0  0
   51.9710  158.3040   29.7460 O   0  0  0  0  0  0  0  0  0  0  0  0
   51.5250  159.4210   30.4070 C   0  0  0  0  0  0  0  0  0  0  0  0
   52.4580  160.4300   30.6470 C   0  0  0  0  0  0  0  0  0  0  0  0
   52.0690  161.5950   31.3110 C   0  0  0  0  0  0  0  0  0  0  0  0
   50.7470  161.7510   31.7360 C   0  0  0  0  0  0  0  0  0  0  0  0
   49.8190  160.7420   31.4950 C   0  0  0  0  0  0  0  0  0  0  0  0
   48.5420  160.9600   31.9360 O   0  0  0  0  0  0  0  0  0  0  0  0
   50.2080  159.5770   30.8300 C   0  0  0  0  0  0  0  0  0  0  0  0
   49.2630  158.4930   30.5580 C   0  0  0  0  0  0  0  0  0  0  0  0
   48.0820  158.5580   30.8910 O   0  0  0  0  0  0  0  0  0  0  0  0
   49.7790  157.2950   29.8540 C   0  0  0  0  0  0  0  0  0  0  0  0
   48.8770  156.2820   29.5890 O   0  0  0  0  0  0  0  0  0  0  0  0
   52.4000  156.3090   27.5900 C   0  0  0  0  0  0  0  0  0  0  0  0
   52.9670  155.2220   26.8960 C   0  0  0  0  0  0  0  0  0  0  0  0
   53.7370  155.4880   25.6220 C   0  0  0  0  0  0  0  0  0  0  0  0
   54.1270  156.7870   25.4840 F   0  0  0  0  0  0  0  0  0  0  0  0
   53.0260  155.2040   24.4950 F   0  0  0  0  0  0  0  0  0  0  0  0
   53.7554  151.9934   27.4867 H   0  0  0  0  0  0  0  0  0  0  0  0
   52.6360  152.2525   26.1059 H   0  0  0  0  0  0  0  0  0  0  0  0
   54.2567  153.0272   26.1059 H   0  0  0  0  0  0  0  0  0  0  0  0
   51.9821  152.7300   29.0256 H   0  0  0  0  0  0  0  0  0  0  0  0
   50.9817  154.6662   30.2149 H   0  0  0  0  0  0  0  0  0  0  0  0
   53.4991  160.3079   30.3135 H   0  0  0  0  0  0  0  0  0  0  0  0
   52.8042  162.3911   31.4998 H   0  0  0  0  0  0  0  0  0  0  0  0
   50.4406  162.6686   32.2595 H   0  0  0  0  0  0  0  0  0  0  0  0
   48.2010  161.8330   31.9700 H   0  0  0  0  0  0  0  0  0  0  0  0
   48.9940  155.7340   28.8380 H   0  0  0  0  0  0  0  0  0  0  0  0
   52.5133  157.3237   27.1807 H   0  0  0  0  0  0  0  0  0  0  0  0
   54.6078  154.8235   25.7224 H   0  0  0  0  0  0  0  0  0  0  0  0
  1  2  1  0
  2  3  2  0
  3  4  1  0
  4  5  2  0
  5  6  1  0
  6  7  1  0
  7  8  1  0
  8  9  2  0
  9 10  1  0
 10 11  2  0
 11 12  1  0
 12 13  1  0
 12 14  2  0
 14 15  1  0
 15 16  2  0
 15 17  1  0
 17 18  1  0
  5 19  1  0
 19 20  2  0
 20 21  1  0
 21 22  1  0
 21 23  1  0
 20  2  1  0
 17  6  2  0
 14  8  1  0
  1 24  1  0
  1 25  1  0
  1 26  1  0
  3 27  1  0
  4 28  1  0
  9 29  1  0
 10 30  1  0
 11 31  1  0
 13 32  1  0
 18 33  1  0
 19 34  1  0
 21 35  1  0
M  END
>  <meeko>  (4) 
{"is_sidechain": [false], "free_energy": -9.471, "intermolecular_energy": -10.968, "internal_energy": -0.288}

$$$$
cand_014_out
     RDKit          3D

 35 37  0  0  0  0  0  0  0  0999 V2000
   53.4360  154.1130   26.1700 C   0  0  0  0  0  0  0  0  0  0  0  0
   52.8850  155.1630   27.0970 C   0  0  0  0  0  0  0  0  0  0  0  0
   52.9960  156.5140   26.7360 C   0  0  0  0  0  0  0  0  0  0  0  0
   52.5090  157.5210   27.5730 C   0  0  0  0  0  0  0  0  0  0  0  0
   51.8970  157.2060   28.7910 C   0  0  0  0  0  0  0  0  0  0  0  0
   51.4040  158.2870   29.6690 C   0  0  0  0  0  0  0  0  0  0  0  0
   50.0700  158.1320   30.0240 O   0  0  0  0  0  0  0  0  0  0  0  0
   49.4880  159.0710   30.8360 C   0  0  0  0  0  0  0  0  0  0  0  0
   48.1420  158.8880   31.1540 C   0  0  0  0  0  0  0  0  0  0  0  0
   47.4890  159.8050   31.9790 C   0  0  0  0  0  0  0  0  0  0  0  0
   48.1810  160.9070   32.4860 C   0  0  0  0  0  0  0  0  0  0  0  0
   49.5240  161.0880   32.1670 C   0  0  0  0  0  0  0  0  0  0  0  0
   50.1420  162.1870   32.6990 O   0  0  0  0  0  0  0  0  0  0  0  0
   50.1770  160.1700   31.3420 C   0  0  0  0  0  0  0  0  0  0  0  0
   51.5870  160.3240   30.9820 C   0  0  0  0  0  0  0  0  0  0  0  0
   52.2680  161.2610   31.3950 O   0  0  0  0  0  0  0  0  0  0  0  0
   52.1840  159.2990   30.0930 C   0  0  0  0  0  0  0  0  0  0  0  0
   53.5200  159.4450   29.7700 O   0  0  0  0  0  0  0  0  0  0  0  0
   51.8070  155.8570   29.1610 C   0  0  0  0  0  0  0  0  0  0  0  0
   52.2990  154.8270   28.3350 C   0  0  0  0  0  0  0  0  0  0  0  0
   52.1460  153.3910   28.7830 C   0  0  0  0  0  0  0  0  0  0  0  0
   51.4260  152.6250   27.9150 F   0  0  0  0  0  0  0  0  0  0  0  0
   51.5100  153.2680   29.9820 F   0  0  0  0  0  0  0  0  0  0  0  0
   53.8670  153.2916   26.7612 H   0  0  0  0  0  0  0  0  0  0  0  0
   52.6265  153.7227   25.5356 H   0  0  0  0  0  0  0  0  0  0  0  0
   54.2171  154.5574   25.5356 H   0  0  0  0  0  0  0  0  0  0  0  0
   53.4724  156.7839   25.7820 H   0  0  0  0  0  0  0  0  0  0  0  0
   52.6079  158.5740   27.2708 H   0  0  0  0  0  0  0  0  0  0  0  0
   47.5954  158.0210   30.7545 H   0  0  0  0  0  0  0  0  0  0  0  0
   46.4280  159.6595   32.2302 H   0  0  0  0  0  0  0  0  0  0  0  0
   47.6663  161.6301   33.1357 H   0  0  0  0  0  0  0  0  0  0  0  0
   49.9900  163.0350   32.3280 H   0  0  0  0  0  0  0  0  0  0  0  0
   54.0830  158.6960   29.7540 H   0  0  0  0  0  0  0  0  0  0  0  0
   51.3398  155.5955   30.1219 H   0  0  0  0  0  0  0  0  0  0  0  0
   53.1880  153.0440   28.8450 H   0  0  0  0  0  0  0  0  0  0  0  0
  1  2  1  0
  2  3  2  0
  3  4  1  0
  4  5  2  0
  5  6  1  0
  6  7  1  0
  7  8  1  0
  8  9  2  0
  9 10  1  0
 10 11  2  0
 11 12  1  0
 12 13  1  0
 12 14  2  0
 14 15  1  0
 15 16  2  0
 15 17  1  0
 17 18  1  0
  5 19  1  0
 19 20  2  0
 20 21  1  0
 21 22  1  0
 21 23  1  0
 20  2  1  0
 17  6  2  0
 14  8  1  0
  1 24  1  0
  1 25  1  0
  1 26  1  0
  3 27  1  0
  4 28  1  0
  9 29  1  0
 10 30  1  0
 11 31  1  0
 13 32  1  0
 18 33  1  0
 19 34  1  0
 21 35  1  0
M  END
>  <meeko>  (5) 
{"is_sidechain": [false], "free_energy": -8.888, "intermolecular_energy": -10.368, "internal_energy": -0.202}

$$$$
cand_014_out
     RDKit          3D

 35 37  0  0  0  0  0  0  0  0999 V2000
   49.2130  158.3720   31.2030 C   0  0  0  0  0  0  0  0  0  0  0  0
   50.0240  157.5910   30.2050 C   0  0  0  0  0  0  0  0  0  0  0  0
   49.6090  156.2970   29.8550 C   0  0  0  0  0  0  0  0  0  0  0  0
   50.3390  155.5330   28.9410 C   0  0  0  0  0  0  0  0  0  0  0  0
   51.5000  156.0410   28.3500 C   0  0  0  0  0  0  0  0  0  0  0  0
   52.2670  155.2100   27.3990 C   0  0  0  0  0  0  0  0  0  0  0  0
   51.9400  153.8620   27.4720 O   0  0  0  0  0  0  0  0  0  0  0  0
   52.5840  152.9790   26.6420 C   0  0  0  0  0  0  0  0  0  0  0  0
   52.2400  151.6320   26.7600 C   0  0  0  0  0  0  0  0  0  0  0  0
   52.8550  150.6820   25.9430 C   0  0  0  0  0  0  0  0  0  0  0  0
   53.8150  151.0780   25.0080 C   0  0  0  0  0  0  0  0  0  0  0  0
   54.1570  152.4220   24.8930 C   0  0  0  0  0  0  0  0  0  0  0  0
   55.1020  152.7400   23.9570 O   0  0  0  0  0  0  0  0  0  0  0  0
   53.5410  153.3730   25.7110 C   0  0  0  0  0  0  0  0  0  0  0  0
   53.8720  154.7960   25.6210 C   0  0  0  0  0  0  0  0  0  0  0  0
   54.6990  155.2240   24.8190 O   0  0  0  0  0  0  0  0  0  0  0  0
   53.1680  155.7220   26.5400 C   0  0  0  0  0  0  0  0  0  0  0  0
   53.4770  157.0650   26.4390 O   0  0  0  0  0  0  0  0  0  0  0  0
   51.9270  157.3260   28.7160 C   0  0  0  0  0  0  0  0  0  0  0  0
   51.2090  158.1090   29.6420 C   0  0  0  0  0  0  0  0  0  0  0  0
   51.7100  159.4960   29.9720 C   0  0  0  0  0  0  0  0  0  0  0  0
   51.8910  159.7050   31.3080 F   0  0  0  0  0  0  0  0  0  0  0  0
   50.8640  160.4840   29.5660 F   0  0  0  0  0  0  0  0  0  0  0  0
   49.5109  158.0851   32.2223 H   0  0  0  0  0  0  0  0  0  0  0  0
   49.3906  159.4479   31.0582 H   0  0  0  0  0  0  0  0  0  0  0  0
   48.1446  158.1540   31.0582 H   0  0  0  0  0  0  0  0  0  0  0  0
   48.6971  155.8787   30.3061 H   0  0  0  0  0  0  0  0  0  0  0  0
   49.9964  154.5200   28.6833 H   0  0  0  0  0  0  0  0  0  0  0  0
   51.4849  151.3190   27.4961 H   0  0  0  0  0  0  0  0  0  0  0  0
   52.5836  149.6200   26.0353 H   0  0  0  0  0  0  0  0  0  0  0  0
   54.2993  150.3290   24.3643 H   0  0  0  0  0  0  0  0  0  0  0  0
   55.3530  152.1090   23.3110 H   0  0  0  0  0  0  0  0  0  0  0  0
   54.3340  157.3680   26.6690 H   0  0  0  0  0  0  0  0  0  0  0  0
   52.8459  157.7330   28.2688 H   0  0  0  0  0  0  0  0  0  0  0  0
   52.6670  159.5422   29.4316 H   0  0  0  0  0  0  0  0  0  0  0  0
  1  2  1  0
  2  3  2  0
  3  4  1  0
  4  5  2  0
  5  6  1  0
  6  7  1  0
  7  8  1  0
  8  9  2  0
  9 10  1  0
 10 11  2  0
 11 12  1  0
 12 13  1  0
 12 14  2  0
 14 15  1  0
 15 16  2  0
 15 17  1  0
 17 18  1  0
  5 19  1  0
 19 20  2  0
 20 21  1  0
 21 22  1  0
 21 23  1  0
 20  2  1  0
 17  6  2  0
 14  8  1  0
  1 24  1  0
  1 25  1  0
  1 26  1  0
  3 27  1  0
  4 28  1  0
  9 29  1  0
 10 30  1  0
 11 31  1  0
 13 32  1  0
 18 33  1  0
 19 34  1  0
 21 35  1  0
M  END
>  <meeko>  (6) 
{"is_sidechain": [false], "free_energy": -8.519, "intermolecular_energy": -10.362, "internal_energy": 0.225}

$$$$
cand_014_out
     RDKit          3D

 35 37  0  0  0  0  0  0  0  0999 V2000
   53.9090  153.9810   25.5700 C   0  0  0  0  0  0  0  0  0  0  0  0
   53.1940  154.8760   26.5450 C   0  0  0  0  0  0  0  0  0  0  0  0
   53.3390  156.2660   26.4250 C   0  0  0  0  0  0  0  0  0  0  0  0
   52.7020  157.1330   27.3160 C   0  0  0  0  0  0  0  0  0  0  0  0
   51.9010  156.6350   28.3500 C   0  0  0  0  0  0  0  0  0  0  0  0
   51.2510  157.5680   29.2920 C   0  0  0  0  0  0  0  0  0  0  0  0
   52.0200  158.6940   29.5580 O   0  0  0  0  0  0  0  0  0  0  0  0
   51.5310  159.6400   30.4230 C   0  0  0  0  0  0  0  0  0  0  0  0
   52.3430  160.7460   30.6770 C   0  0  0  0  0  0  0  0  0  0  0  0
   51.9040  161.7480   31.5450 C   0  0  0  0  0  0  0  0  0  0  0  0
   50.6540  161.6450   32.1590 C   0  0  0  0  0  0  0  0  0  0  0  0
   49.8460  160.5400   31.9040 C   0  0  0  0  0  0  0  0  0  0  0  0
   48.6340  160.5020   32.5370 O   0  0  0  0  0  0  0  0  0  0  0  0
   50.2850  159.5380   31.0360 C   0  0  0  0  0  0  0  0  0  0  0  0
   49.4670  158.3600   30.7410 C   0  0  0  0  0  0  0  0  0  0  0  0
   48.3530  158.2000   31.2340 O   0  0  0  0  0  0  0  0  0  0  0  0
   50.0290  157.3500   29.8130 C   0  0  0  0  0  0  0  0  0  0  0  0
   49.2440  156.2490   29.5300 O   0  0  0  0  0  0  0  0  0  0  0  0
   51.7750  155.2450   28.4830 C   0  0  0  0  0  0  0  0  0  0  0  0
   52.4150  154.3550   27.5990 C   0  0  0  0  0  0  0  0  0  0  0  0
   52.2150  152.8670   27.7840 C   0  0  0  0  0  0  0  0  0  0  0  0
   51.5290  152.2810   26.7620 F   0  0  0  0  0  0  0  0  0  0  0  0
   51.5160  152.5560   28.9110 F   0  0  0  0  0  0  0  0  0  0  0  0
   54.5028  153.2377   26.1221 H   0  0  0  0  0  0  0  0  0  0  0  0
   53.1718  153.4648   24.9375 H   0  0  0  0  0  0  0  0  0  0  0  0
   54.5752  154.5860   24.9375 H   0  0  0  0  0  0  0  0  0  0  0  0
   53.9627  156.6789   25.6184 H   0  0  0  0  0  0  0  0  0  0  0  0
   52.8314  158.2196   27.2037 H   0  0  0  0  0  0  0  0  0  0  0  0
   53.3278  160.8285   30.1940 H   0  0  0  0  0  0  0  0  0  0  0  0
   52.5440  162.6199   31.7454 H   0  0  0  0  0  0  0  0  0  0  0  0
   50.3086  162.4348   32.8423 H   0  0  0  0  0  0  0  0  0  0  0  0
   48.5620  160.1160   33.3890 H   0  0  0  0  0  0  0  0  0  0  0  0
   49.3140  155.4750   30.0540 H   0  0  0  0  0  0  0  0  0  0  0  0
   51.1599  154.8388   29.2995 H   0  0  0  0  0  0  0  0  0  0  0  0
   53.2461  152.4874   27.8360 H   0  0  0  0  0  0  0  0  0  0  0  0
  1  2  1  0
  2  3  2  0
  3  4  1  0
  4  5  2  0
  5  6  1  0
  6  7  1  0
  7  8  1  0
  8  9  2  0
  9 10  1  0
 10 11  2  0
 11 12  1  0
 12 13  1  0
 12 14  2  0
 14 15  1  0
 15 16  2  0
 15 17  1  0
 17 18  1  0
  5 19  1  0
 19 20  2  0
 20 21  1  0
 21 22  1  0
 21 23  1  0
 20  2  1  0
 17  6  2  0
 14  8  1  0
  1 24  1  0
  1 25  1  0
  1 26  1  0
  3 27  1  0
  4 28  1  0
  9 29  1  0
 10 30  1  0
 11 31  1  0
 13 32  1  0
 18 33  1  0
 19 34  1  0
 21 35  1  0
M  END
>  <meeko>  (7) 
{"is_sidechain": [false], "free_energy": -8.499, "intermolecular_energy": -10.027, "internal_energy": -0.087}

$$$$
cand_014_out
     RDKit          3D

 35 37  0  0  0  0  0  0  0  0999 V2000
   50.9240  159.4460   30.8440 C   0  0  0  0  0  0  0  0  0  0  0  0
   51.3710  158.3570   29.9070 C   0  0  0  0  0  0  0  0  0  0  0  0
   52.6470  158.4380   29.3290 C   0  0  0  0  0  0  0  0  0  0  0  0
   53.0970  157.4550   28.4450 C   0  0  0  0  0  0  0  0  0  0  0  0
   52.2860  156.3640   28.1150 C   0  0  0  0  0  0  0  0  0  0  0  0
   52.7740  155.3440   27.1640 C   0  0  0  0  0  0  0  0  0  0  0  0
   52.3340  154.0630   27.4700 O   0  0  0  0  0  0  0  0  0  0  0  0
   52.7190  153.0210   26.6650 C   0  0  0  0  0  0  0  0  0  0  0  0
   52.2700  151.7480   27.0170 C   0  0  0  0  0  0  0  0  0  0  0  0
   52.6230  150.6440   26.2390 C   0  0  0  0  0  0  0  0  0  0  0  0
   53.4260  150.8120   25.1090 C   0  0  0  0  0  0  0  0  0  0  0  0
   53.8730  152.0830   24.7590 C   0  0  0  0  0  0  0  0  0  0  0  0
   54.6540  152.1770   23.6400 O   0  0  0  0  0  0  0  0  0  0  0  0
   53.5200  153.1880   25.5380 C   0  0  0  0  0  0  0  0  0  0  0  0
   53.9690  154.5400   25.2060 C   0  0  0  0  0  0  0  0  0  0  0  0
   54.6700  154.7720   24.2230 O   0  0  0  0  0  0  0  0  0  0  0  0
   53.5460  155.6420   26.1020 C   0  0  0  0  0  0  0  0  0  0  0  0
   53.9640  156.9180   25.7730 O   0  0  0  0  0  0  0  0  0  0  0  0
   51.0020  156.2950   28.6740 C   0  0  0  0  0  0  0  0  0  0  0  0
   50.5280  157.2800   29.5620 C   0  0  0  0  0  0  0  0  0  0  0  0
   49.1430  157.1310   30.1500 C   0  0  0  0  0  0  0  0  0  0  0  0
   48.4380  156.0890   29.6230 F   0  0  0  0  0  0  0  0  0  0  0  0
   48.3570  158.2280   29.9610 F   0  0  0  0  0  0  0  0  0  0  0  0
   51.0603  159.1139   31.8838 H   0  0  0  0  0  0  0  0  0  0  0  0
   51.5233  160.3512   30.6666 H   0  0  0  0  0  0  0  0  0  0  0  0
   49.8616  159.6691   30.6666 H   0  0  0  0  0  0  0  0  0  0  0  0
   53.3015  159.2870   29.5754 H   0  0  0  0  0  0  0  0  0  0  0  0
   54.1008  157.5396   28.0031 H   0  0  0  0  0  0  0  0  0  0  0  0
   51.6380  151.6142   27.9073 H   0  0  0  0  0  0  0  0  0  0  0  0
   52.2682  149.6404   26.5164 H   0  0  0  0  0  0  0  0  0  0  0  0
   53.7048  149.9417   24.4967 H   0  0  0  0  0  0  0  0  0  0  0  0
   55.5550  152.4260   23.7170 H   0  0  0  0  0  0  0  0  0  0  0  0
   54.8250  157.2050   26.0050 H   0  0  0  0  0  0  0  0  0  0  0  0
   50.3482  155.4500   28.4123 H   0  0  0  0  0  0  0  0  0  0  0  0
   49.3506  156.9678   31.2178 H   0  0  0  0  0  0  0  0  0  0  0  0
  1  2  1  0
  2  3  2  0
  3  4  1  0
  4  5  2  0
  5  6  1  0
  6  7  1  0
  7  8  1  0
  8  9  2  0
  9 10  1  0
 10 11  2  0
 11 12  1  0
 12 13  1  0
 12 14  2  0
 14 15  1  0
 15 16  2  0
 15 17  1  0
 17 18  1  0
  5 19  1  0
 19 20  2  0
 20 21  1  0
 21 22  1  0
 21 23  1  0
 20  2  1  0
 17  6  2  0
 14  8  1  0
  1 24  1  0
  1 25  1  0
  1 26  1  0
  3 27  1  0
  4 28  1  0
  9 29  1  0
 10 30  1  0
 11 31  1  0
 13 32  1  0
 18 33  1  0
 19 34  1  0
 21 35  1  0
M  END
>  <meeko>  (8) 
{"is_sidechain": [false], "free_energy": -7.932, "intermolecular_energy": -9.537, "internal_energy": 0.089}

$$$$
