cand_006_out
     RDKit          3D

 47 50  0  0  0  0  0  0  0  0999 V2000
   52.2700  152.4180   27.2830 C   0  0  0  0  0  0  0  0  0  0  0  0
   52.0320  153.7770   27.8840 C   0  0  0  0  0  0  0  0  0  0  0  0
   51.3570  153.8870   29.1070 C   0  0  0  0  0  0  0  0  0  0  0  0
   51.1280  155.1370   29.6840 C   0  0  0  0  0  0  0  0  0  0  0  0
   51.5730  156.3050   29.0560 C   0  0  0  0  0  0  0  0  0  0  0  0
   51.2990  157.6220   29.6710 C   0  0  0  0  0  0  0  0  0  0  0  0
   50.0050  157.7270   30.1680 O   0  0  0  0  0  0  0  0  0  0  0  0
   49.6170  158.8970   30.7680 C   0  0  0  0  0  0  0  0  0  0  0  0
   48.3040  158.9630   31.2390 C   0  0  0  0  0  0  0  0  0  0  0  0
   47.8450  160.1260   31.8600 C   0  0  0  0  0  0  0  0  0  0  0  0
   48.6970  161.2220   32.0110 C   0  0  0  0  0  0  0  0  0  0  0  0
   50.0060  161.1540   31.5400 C   0  0  0  0  0  0  0  0  0  0  0  0
   50.7860  162.2630   31.7210 O   0  0  0  0  0  0  0  0  0  0  0  0
   50.4650  159.9900   30.9170 C   0  0  0  0  0  0  0  0  0  0  0  0
   51.8320  159.8760   30.4080 C   0  0  0  0  0  0  0  0  0  0  0  0
   52.6430  160.7950   30.5100 O   0  0  0  0  0  0  0  0  0  0  0  0
   52.2170  158.6020   29.7570 C   0  0  0  0  0  0  0  0  0  0  0  0
   53.5160  158.5020   29.2920 O   0  0  0  0  0  0  0  0  0  0  0  0
   52.2380  156.1910   27.8260 C   0  0  0  0  0  0  0  0  0  0  0  0
   52.4810  154.9400   27.2300 C   0  0  0  0  0  0  0  0  0  0  0  0
   53.1620  154.8150   25.9970 N   0  0  0  0  0  0  0  0  0  0  0  0
   54.0330  153.6280   25.9610 C   0  0  0  0  0  0  0  0  0  0  0  0
   54.5490  153.4320   24.5350 C   0  0  0  0  0  0  0  0  0  0  0  0
   55.2540  154.6880   24.0250 C   0  0  0  0  0  0  0  0  0  0  0  0
   54.3550  155.9160   24.1700 C   0  0  0  0  0  0  0  0  0  0  0  0
   53.8430  156.0590   25.6040 C   0  0  0  0  0  0  0  0  0  0  0  0
   52.3994  151.6789   28.0874 H   0  0  0  0  0  0  0  0  0  0  0  0
   51.4076  152.1359   26.6612 H   0  0  0  0  0  0  0  0  0  0  0  0
   53.1769  152.4458   26.6612 H   0  0  0  0  0  0  0  0  0  0  0  0
   51.0040  152.9789   29.6175 H   0  0  0  0  0  0  0  0  0  0  0  0
   50.5922  155.2044   30.6423 H   0  0  0  0  0  0  0  0  0  0  0  0
   47.6324  158.0999   31.1209 H   0  0  0  0  0  0  0  0  0  0  0  0
   46.8108  160.1791   32.2309 H   0  0  0  0  0  0  0  0  0  0  0  0
   48.3349  162.1377   32.5012 H   0  0  0  0  0  0  0  0  0  0  0  0
   51.1950  162.4170   32.5490 H   0  0  0  0  0  0  0  0  0  0  0  0
   54.2200  158.3640   29.8950 H   0  0  0  0  0  0  0  0  0  0  0  0
   52.5782  157.1034   27.3143 H   0  0  0  0  0  0  0  0  0  0  0  0
   54.8829  153.7734   26.6440 H   0  0  0  0  0  0  0  0  0  0  0  0
   53.4646  152.7404   26.2758 H   0  0  0  0  0  0  0  0  0  0  0  0
   55.2590  152.5919   24.5226 H   0  0  0  0  0  0  0  0  0  0  0  0
   53.6905  153.2239   23.8795 H   0  0  0  0  0  0  0  0  0  0  0  0
   56.1746  154.8452   24.6061 H   0  0  0  0  0  0  0  0  0  0  0  0
   55.4906  154.5498   22.9597 H   0  0  0  0  0  0  0  0  0  0  0  0
   54.9295  156.8151   23.9026 H   0  0  0  0  0  0  0  0  0  0  0  0
   53.4900  155.7959   23.5011 H   0  0  0  0  0  0  0  0  0  0  0  0
   54.6898  156.2453   26.2809 H   0  0  0  0  0  0  0  0  0  0  0  0
   53.1394  156.9024   25.6646 H   0  0  0  0  0  0  0  0  0  0  0  0
  1  2  1  0
  2  3  2  0
  3  4  1  0
  4  5  2  0
  5  6  1  0
  6  7  1  0
  7  8  1  0
  8  9  2  0
  9 10  1  0
 10 11  2  0
 11 12  1  0
 12 13  1  0
 12 14  2  0
 14 15  1  0
 15 16  2  0
 15 17  1  0
 17 18  1  0
  5 19  1  0
 19 20  2  0
 20 21  1  0
 21 22  1  0
 22 23  1  0
 23 24  1  0
 24 25  1  0
 25 26  1  0
 20  2  1  0
 26 21  1  0
 17  6  2  0
 14  8  1  0
  1 27  1  0
  1 28  1  0
  1 29  1  0
  3 30  1  0
  4 31  1  0
  9 32  1  0
 10 33  1  0
 11 34  1  0
 13 35  1  0
 18 36  1  0
 19 37  1  0
 22 38  1  0
 22 39  1  0
 23 40  1  0
 23 41  1  0
 24 42  1  0
 24 43  1  0
 25 44  1  0
 25 45  1  0
 26 46  1  0
 26 47  1  0
M  END
>  <meeko>  (1) 
{"is_sidechain": [false], "free_energy": -10.594, "intermolecular_energy": -12.452, "internal_energy": 0.897}

$$$$
cand_006_out
     RDKit          3D

 47 50  0  0  0  0  0  0  0  0999 V2000
   51.7570  161.4320   31.1820 C   0  0  0  0  0  0  0  0  0  0  0  0
   51.8610  160.0960   30.4980 C   0  0  0  0  0  0  0  0  0  0  0  0
   53.1040  159.6490   30.0310 C   0  0  0  0  0  0  0  0  0  0  0  0
   53.2240  158.4120   29.3970 C   0  0  0  0  0  0  0  0  0  0  0  0
   52.1060  157.5890   29.2200 C   0  0  0  0  0  0  0  0  0  0  0  0
   52.2500  156.2930   28.5230 C   0  0  0  0  0  0  0  0  0  0  0  0
   52.7940  156.4210   27.2500 O   0  0  0  0  0  0  0  0  0  0  0  0
   52.9840  155.2930   26.4930 C   0  0  0  0  0  0  0  0  0  0  0  0
   53.5190  155.4710   25.2160 C   0  0  0  0  0  0  0  0  0  0  0  0
   53.7370  154.3650   24.3920 C   0  0  0  0  0  0  0  0  0  0  0  0
   53.4230  153.0820   24.8460 C   0  0  0  0  0  0  0  0  0  0  0  0
   52.8890  152.9070   26.1200 C   0  0  0  0  0  0  0  0  0  0  0  0
   52.6050  151.6250   26.5000 O   0  0  0  0  0  0  0  0  0  0  0  0
   52.6690  154.0160   26.9430 C   0  0  0  0  0  0  0  0  0  0  0  0
   52.1100  153.8760   28.2890 C   0  0  0  0  0  0  0  0  0  0  0  0
   51.8140  152.7810   28.7610 O   0  0  0  0  0  0  0  0  0  0  0  0
   51.9090  155.1140   29.0780 C   0  0  0  0  0  0  0  0  0  0  0  0
   51.3920  154.9690   30.3530 O   0  0  0  0  0  0  0  0  0  0  0  0
   50.8620  158.0440   29.6790 C   0  0  0  0  0  0  0  0  0  0  0  0
   50.7210  159.2880   30.3220 C   0  0  0  0  0  0  0  0  0  0  0  0
   49.4720  159.7490   30.8000 N   0  0  0  0  0  0  0  0  0  0  0  0
   49.4580  159.9000   32.2650 C   0  0  0  0  0  0  0  0  0  0  0  0
   48.1720  160.6140   32.6800 C   0  0  0  0  0  0  0  0  0  0  0  0
   46.9380  159.8790   32.1580 C   0  0  0  0  0  0  0  0  0  0  0  0
   47.0350  159.6540   30.6490 C   0  0  0  0  0  0  0  0  0  0  0  0
   48.3450  158.9600   30.2780 C   0  0  0  0  0  0  0  0  0  0  0  0
   51.7682  161.2875   32.2724 H   0  0  0  0  0  0  0  0  0  0  0  0
   52.6088  162.0623   30.8868 H   0  0  0  0  0  0  0  0  0  0  0  0
   50.8179  161.9229   30.8868 H   0  0  0  0  0  0  0  0  0  0  0  0
   53.9948  160.2801   30.1657 H   0  0  0  0  0  0  0  0  0  0  0  0
   54.2074  158.0802   29.0325 H   0  0  0  0  0  0  0  0  0  0  0  0
   53.7685  156.4812   24.8593 H   0  0  0  0  0  0  0  0  0  0  0  0
   54.1563  154.5043   23.3846 H   0  0  0  0  0  0  0  0  0  0  0  0
   53.5974  152.2106   24.1977 H   0  0  0  0  0  0  0  0  0  0  0  0
   52.2560  151.0180   25.8780 H   0  0  0  0  0  0  0  0  0  0  0  0
   51.6100  155.5900   31.0190 H   0  0  0  0  0  0  0  0  0  0  0  0
   49.9732  157.4125   29.5329 H   0  0  0  0  0  0  0  0  0  0  0  0
   49.4980  158.9078   32.7383 H   0  0  0  0  0  0  0  0  0  0  0  0
   50.3299  160.4889   32.5860 H   0  0  0  0  0  0  0  0  0  0  0  0
   48.1250  160.6589   33.7781 H   0  0  0  0  0  0  0  0  0  0  0  0
   48.1818  161.6265   32.2502 H   0  0  0  0  0  0  0  0  0  0  0  0
   46.8584  158.9050   32.6630 H   0  0  0  0  0  0  0  0  0  0  0  0
   46.0492  160.4930   32.3655 H   0  0  0  0  0  0  0  0  0  0  0  0
   46.1918  159.0264   30.3247 H   0  0  0  0  0  0  0  0  0  0  0  0
   47.0046  160.6327   30.1477 H   0  0  0  0  0  0  0  0  0  0  0  0
   48.3656  157.9522   30.7183 H   0  0  0  0  0  0  0  0  0  0  0  0
   48.4246  158.8787   29.1839 H   0  0  0  0  0  0  0  0  0  0  0  0
  1  2  1  0
  2  3  2  0
  3  4  1  0
  4  5  2  0
  5  6  1  0
  6  7  1  0
  7  8  1  0
  8  9  2  0
  9 10  1  0
 10 11  2  0
 11 12  1  0
 12 13  1  0
 12 14  2  0
 14 15  1  0
 15 16  2  0
 15 17  1  0
 17 18  1  0
  5 19  1  0
 19 20  2  0
 20 21  1  0
 21 22  1  0
 22 23  1  0
 23 24  1  0
 24 25  1  0
 25 26  1  0
 20  2  1  0
 26 21  1  0
 17  6  2  0
 14  8  1  0
  1 27  1  0
  1 28  1  0
  1 29  1  0
  3 30  1  0
  4 31  1  0
  9 32  1  0
 10 33  1  0
 11 34  1  0
 13 35  1  0
 18 36  1  0
 19 37  1  0
 22 38  1  0
 22 39  1  0
 23 40  1  0
 23 41  1  0
 24 42  1  0
 24 43  1  0
 25 44  1  0
 25 45  1  0
 26 46  1  0
 26 47  1  0
M  END
>  <meeko>  (2) 
{"is_sidechain": [false], "free_energy": -10.293, "intermolecular_energy": -11.164, "internal_energy": -0.037}

$$$$
cand_006_out
     RDKit          3D

 47 50  0  0  0  0  0  0  0  0999 V2000
   53.2610  152.6610   27.3190 C   0  0  0  0  0  0  0  0  0  0  0  0
   52.6440  153.8930   27.9240 C   0  0  0  0  0  0  0  0  0  0  0  0
   51.8080  153.7740   29.0420 C   0  0  0  0  0  0  0  0  0  0  0  0
   51.2290  154.9040   29.6210 C   0  0  0  0  0  0  0  0  0  0  0  0
   51.4760  156.1800   29.1010 C   0  0  0  0  0  0  0  0  0  0  0  0
   50.8330  157.3620   29.7130 C   0  0  0  0  0  0  0  0  0  0  0  0
   51.7360  158.3790   30.0040 O   0  0  0  0  0  0  0  0  0  0  0  0
   51.2720  159.5360   30.5750 C   0  0  0  0  0  0  0  0  0  0  0  0
   52.2160  160.5230   30.8630 C   0  0  0  0  0  0  0  0  0  0  0  0
   51.8110  161.7260   31.4450 C   0  0  0  0  0  0  0  0  0  0  0  0
   50.4620  161.9420   31.7370 C   0  0  0  0  0  0  0  0  0  0  0  0
   49.5220  160.9560   31.4480 C   0  0  0  0  0  0  0  0  0  0  0  0
   48.2200  161.2340   31.7600 O   0  0  0  0  0  0  0  0  0  0  0  0
   49.9300  159.7510   30.8680 C   0  0  0  0  0  0  0  0  0  0  0  0
   48.9750  158.6890   30.5480 C   0  0  0  0  0  0  0  0  0  0  0  0
   47.7710  158.8070   30.7690 O   0  0  0  0  0  0  0  0  0  0  0  0
   49.5090  157.4480   29.9410 C   0  0  0  0  0  0  0  0  0  0  0  0
   48.5960  156.4560   29.6320 O   0  0  0  0  0  0  0  0  0  0  0  0
   52.3050  156.2930   27.9750 C   0  0  0  0  0  0  0  0  0  0  0  0
   52.9000  155.1660   27.3780 C   0  0  0  0  0  0  0  0  0  0  0  0
   53.7470  155.2730   26.2510 N   0  0  0  0  0  0  0  0  0  0  0  0
   53.7950  156.6450   25.7200 C   0  0  0  0  0  0  0  0  0  0  0  0
   54.8960  156.7320   24.6620 C   0  0  0  0  0  0  0  0  0  0  0  0
   54.6910  155.6880   23.5640 C   0  0  0  0  0  0  0  0  0  0  0  0
   54.5450  154.2880   24.1620 C   0  0  0  0  0  0  0  0  0  0  0  0
   53.4520  154.2550   25.2300 C   0  0  0  0  0  0  0  0  0  0  0  0
   53.5980  151.9880   28.1212 H   0  0  0  0  0  0  0  0  0  0  0  0
   52.5149  152.1450   26.6968 H   0  0  0  0  0  0  0  0  0  0  0  0
   54.1211  152.9494   26.6968 H   0  0  0  0  0  0  0  0  0  0  0  0
   51.6060  152.7800   29.4676 H   0  0  0  0  0  0  0  0  0  0  0  0
   50.5714  154.7908   30.4955 H   0  0  0  0  0  0  0  0  0  0  0  0
   53.2779  160.3533   30.6317 H   0  0  0  0  0  0  0  0  0  0  0  0
   52.5544  162.5039   31.6736 H   0  0  0  0  0  0  0  0  0  0  0  0
   50.1427  162.8899   32.1947 H   0  0  0  0  0  0  0  0  0  0  0  0
   47.9840  161.4470   32.6410 H   0  0  0  0  0  0  0  0  0  0  0  0
   48.0680  156.5300   28.8620 H   0  0  0  0  0  0  0  0  0  0  0  0
   52.4950  157.2886   27.5475 H   0  0  0  0  0  0  0  0  0  0  0  0
   52.8260  156.8985   25.2653 H   0  0  0  0  0  0  0  0  0  0  0  0
   54.0073  157.3517   26.5358 H   0  0  0  0  0  0  0  0  0  0  0  0
   54.8815  157.7350   24.2107 H   0  0  0  0  0  0  0  0  0  0  0  0
   55.8634  156.5399   25.1492 H   0  0  0  0  0  0  0  0  0  0  0  0
   53.7805  155.9346   22.9981 H   0  0  0  0  0  0  0  0  0  0  0  0
   55.5694  155.6974   22.9019 H   0  0  0  0  0  0  0  0  0  0  0  0
   54.2852  153.5807   23.3606 H   0  0  0  0  0  0  0  0  0  0  0  0
   55.4996  154.0082   24.6315 H   0  0  0  0  0  0  0  0  0  0  0  0
   52.4775  154.4692   24.7668 H   0  0  0  0  0  0  0  0  0  0  0  0
   53.4195  153.2596   25.6970 H   0  0  0  0  0  0  0  0  0  0  0  0
  1  2  1  0
  2  3  2  0
  3  4  1  0
  4  5  2  0
  5  6  1  0
  6  7  1  0
  7  8  1  0
  8  9  2  0
  9 10  1  0
 10 11  2  0
 11 12  1  0
 12 13  1  0
 12 14  2  0
 14 15  1  0
 15 16  2  0
 15 17  1  0
 17 18  1  0
  5 19  1  0
 19 20  2  0
 20 21  1  0
 21 22  1  0
 22 23  1  0
 23 24  1  0
 24 25  1  0
 25 26  1  0
 20  2  1  0
 26 21  1  0
 17  6  2  0
 14  8  1  0
  1 27  1  0
  1 28  1  0
  1 29  1  0
  3 30  1  0
  4 31  1  0
  9 32  1  0
 10 33  1  0
 11 34  1  0
 13 35  1  0
 18 36  1  0
 19 37  1  0
 22 38  1  0
 22 39  1  0
 23 40  1  0
 23 41  1  0
 24 42  1  0
 24 43  1  0
 25 44  1  0
 25 45  1  0
 26 46  1  0
 26 47  1  0
M  END
>  <meeko>  (3) 
{"is_sidechain": [false], "free_energy": -8.92, "intermolecular_energy": -10.204, "internal_energy": 0.616}

$$$$
cand_006_out
     RDKit          3D

 47 50  0  0  0  0  0  0  0  0999 V2000
   48.6680  160.0450   31.5780 C   0  0  0  0  0  0  0  0  0  0  0  0
   49.4850  159.0520   30.7970 C   0  0  0  0  0  0  0  0  0  0  0  0
   48.9450  157.7960   30.4910 C   0  0  0  0  0  0  0  0  0  0  0  0
   49.6830  156.8600   29.7660 C   0  0  0  0  0  0  0  0  0  0  0  0
   50.9770  157.1610   29.3220 C   0  0  0  0  0  0  0  0  0  0  0  0
   51.7530  156.1470   28.5760 C   0  0  0  0  0  0  0  0  0  0  0  0
   52.2570  156.6300   27.3730 O   0  0  0  0  0  0  0  0  0  0  0  0
   52.9990  155.7930   26.5800 C   0  0  0  0  0  0  0  0  0  0  0  0
   53.4720  156.3160   25.3760 C   0  0  0  0  0  0  0  0  0  0  0  0
   54.2340  155.5160   24.5210 C   0  0  0  0  0  0  0  0  0  0  0  0
   54.5240  154.1960   24.8720 C   0  0  0  0  0  0  0  0  0  0  0  0
   54.0520  153.6770   26.0740 C   0  0  0  0  0  0  0  0  0  0  0  0
   54.3730  152.3780   26.3550 O   0  0  0  0  0  0  0  0  0  0  0  0
   53.2870  154.4770   26.9280 C   0  0  0  0  0  0  0  0  0  0  0  0
   52.7710  153.9710   28.2010 C   0  0  0  0  0  0  0  0  0  0  0  0
   52.9890  152.8230   28.5820 O   0  0  0  0  0  0  0  0  0  0  0  0
   51.9650  154.8980   29.0300 C   0  0  0  0  0  0  0  0  0  0  0  0
   51.4930  154.4120   30.2360 O   0  0  0  0  0  0  0  0  0  0  0  0
   51.5180  158.4150   29.6400 C   0  0  0  0  0  0  0  0  0  0  0  0
   50.7880  159.3720   30.3690 C   0  0  0  0  0  0  0  0  0  0  0  0
   51.3210  160.6440   30.6830 N   0  0  0  0  0  0  0  0  0  0  0  0
   52.7490  160.7480   30.3390 C   0  0  0  0  0  0  0  0  0  0  0  0
   53.1920  162.2040   30.4870 C   0  0  0  0  0  0  0  0  0  0  0  0
   52.8890  162.7350   31.8880 C   0  0  0  0  0  0  0  0  0  0  0  0
   51.4190  162.5190   32.2470 C   0  0  0  0  0  0  0  0  0  0  0  0
   51.0140  161.0560   32.0610 C   0  0  0  0  0  0  0  0  0  0  0  0
   48.8109  159.8713   32.6547 H   0  0  0  0  0  0  0  0  0  0  0  0
   48.9914  161.0655   31.3251 H   0  0  0  0  0  0  0  0  0  0  0  0
   47.6043  159.9242   31.3251 H   0  0  0  0  0  0  0  0  0  0  0  0
   47.9278  157.5451   30.8261 H   0  0  0  0  0  0  0  0  0  0  0  0
   49.2447  155.8765   29.5409 H   0  0  0  0  0  0  0  0  0  0  0  0
   53.2453  157.3565   25.1005 H   0  0  0  0  0  0  0  0  0  0  0  0
   54.6058  155.9263   23.5705 H   0  0  0  0  0  0  0  0  0  0  0  0
   55.1250  153.5668   24.1990 H   0  0  0  0  0  0  0  0  0  0  0  0
   55.2030  152.0330   26.0920 H   0  0  0  0  0  0  0  0  0  0  0  0
   51.4180  154.9840   30.9740 H   0  0  0  0  0  0  0  0  0  0  0  0
   52.5394  158.6569   29.3111 H   0  0  0  0  0  0  0  0  0  0  0  0
   53.3387  160.1125   31.0160 H   0  0  0  0  0  0  0  0  0  0  0  0
   52.9068  160.4151   29.3025 H   0  0  0  0  0  0  0  0  0  0  0  0
   54.2748  162.2697   30.3049 H   0  0  0  0  0  0  0  0  0  0  0  0
   52.6380  162.8123   29.7569 H   0  0  0  0  0  0  0  0  0  0  0  0
   53.5195  162.2060   32.6178 H   0  0  0  0  0  0  0  0  0  0  0  0
   53.1008  163.8142   31.9083 H   0  0  0  0  0  0  0  0  0  0  0  0
   51.2604  162.8045   33.2974 H   0  0  0  0  0  0  0  0  0  0  0  0
   50.8025  163.1389   31.5795 H   0  0  0  0  0  0  0  0  0  0  0  0
   51.5742  160.4259   32.7675 H   0  0  0  0  0  0  0  0  0  0  0  0
   49.9365  160.9424   32.2508 H   0  0  0  0  0  0  0  0  0  0  0  0
  1  2  1  0
  2  3  2  0
  3  4  1  0
  4  5  2  0
  5  6  1  0
  6  7  1  0
  7  8  1  0
  8  9  2  0
  9 10  1  0
 10 11  2  0
 11 12  1  0
 12 13  1  0
 12 14  2  0
 14 15  1  0
 15 16  2  0
 15 17  1  0
 17 18  1  0
  5 19  1  0
 19 20  2  0
 20 21  1  0
 21 22  1  0
 22 23  1  0
 23 24  1  0
 24 25  1  0
 25 26  1  0
 20  2  1  0
 26 21  1  0
 17  6  2  0
 14  8  1  0
  1 27  1  0
  1 28  1  0
  1 29  1  0
  3 30  1  0
  4 31  1  0
  9 32  1  0
 10 33  1  0
 11 34  1  0
 13 35  1  0
 18 36  1  0
 19 37  1  0
 22 38  1  0
 22 39  1  0
 23 40  1  0
 23 41  1  0
 24 42  1  0
 24 43  1  0
 25 44  1  0
 25 45  1  0
 26 46  1  0
 26 47  1  0
M  END
>  <meeko>  (4) 
{"is_sidechain": [false], "free_energy": -8.849, "intermolecular_energy": -10.166, "internal_energy": 0.662}

$$$$
cand_006_out
     RDKit          3D

 47 50  0  0  0  0  0  0  0  0999 V2000
   55.1160  153.9720   24.0620 C   0  0  0  0  0  0  0  0  0  0  0  0
   54.2670  154.6130   25.1270 C   0  0  0  0  0  0  0  0  0  0  0  0
   54.1790  156.0090   25.1990 C   0  0  0  0  0  0  0  0  0  0  0  0
   53.3950  156.6240   26.1760 C   0  0  0  0  0  0  0  0  0  0  0  0
   52.6750  155.8580   27.1000 C   0  0  0  0  0  0  0  0  0  0  0  0
   51.8700  156.5280   28.1430 C   0  0  0  0  0  0  0  0  0  0  0  0
   52.3820  157.7690   28.5080 O   0  0  0  0  0  0  0  0  0  0  0  0
   51.7300  158.5000   29.4670 C   0  0  0  0  0  0  0  0  0  0  0  0
   52.2890  159.7320   29.8120 C   0  0  0  0  0  0  0  0  0  0  0  0
   51.6750  160.5280   30.7820 C   0  0  0  0  0  0  0  0  0  0  0  0
   50.5030  160.0930   31.4040 C   0  0  0  0  0  0  0  0  0  0  0  0
   49.9480  158.8640   31.0580 C   0  0  0  0  0  0  0  0  0  0  0  0
   48.8000  158.5000   31.7070 O   0  0  0  0  0  0  0  0  0  0  0  0
   50.5640  158.0670   30.0890 C   0  0  0  0  0  0  0  0  0  0  0  0
   50.0140  156.7690   29.6960 C   0  0  0  0  0  0  0  0  0  0  0  0
   48.9830  156.3210   30.1930 O   0  0  0  0  0  0  0  0  0  0  0  0
   50.7470  155.9990   28.6640 C   0  0  0  0  0  0  0  0  0  0  0  0
   50.2100  154.7800   28.2920 O   0  0  0  0  0  0  0  0  0  0  0  0
   52.7740  154.4610   27.0310 C   0  0  0  0  0  0  0  0  0  0  0  0
   53.5570  153.8220   26.0520 C   0  0  0  0  0  0  0  0  0  0  0  0
   53.6530  152.4140   25.9670 N   0  0  0  0  0  0  0  0  0  0  0  0
   54.3270  151.9760   24.7330 C   0  0  0  0  0  0  0  0  0  0  0  0
   54.5990  150.4740   24.8200 C   0  0  0  0  0  0  0  0  0  0  0  0
   53.3120  149.6940   25.0900 C   0  0  0  0  0  0  0  0  0  0  0  0
   52.5890  150.2420   26.3200 C   0  0  0  0  0  0  0  0  0  0  0  0
   52.3610  151.7490   26.2010 C   0  0  0  0  0  0  0  0  0  0  0  0
   55.9084  153.3737   24.5355 H   0  0  0  0  0  0  0  0  0  0  0  0
   54.4888  153.3201   23.4361 H   0  0  0  0  0  0  0  0  0  0  0  0
   55.5712  154.7537   23.4361 H   0  0  0  0  0  0  0  0  0  0  0  0
   54.7338  156.6271   24.4778 H   0  0  0  0  0  0  0  0  0  0  0  0
   53.3424  157.7218   26.2204 H   0  0  0  0  0  0  0  0  0  0  0  0
   53.2114  160.0753   29.3208 H   0  0  0  0  0  0  0  0  0  0  0  0
   52.1151  161.4982   31.0560 H   0  0  0  0  0  0  0  0  0  0  0  0
   50.0187  160.7207   32.1666 H   0  0  0  0  0  0  0  0  0  0  0  0
   48.7540  157.6770   32.1510 H   0  0  0  0  0  0  0  0  0  0  0  0
   50.7040  154.1970   27.7490 H   0  0  0  0  0  0  0  0  0  0  0  0
   52.2251  153.8485   27.7614 H   0  0  0  0  0  0  0  0  0  0  0  0
   53.6819  152.1843   23.8667 H   0  0  0  0  0  0  0  0  0  0  0  0
   55.2763  152.5192   24.6154 H   0  0  0  0  0  0  0  0  0  0  0  0
   55.0329  150.1322   23.8687 H   0  0  0  0  0  0  0  0  0  0  0  0
   55.2965  150.2938   25.6513 H   0  0  0  0  0  0  0  0  0  0  0  0
   52.6497  149.7785   24.2158 H   0  0  0  0  0  0  0  0  0  0  0  0
   53.5718  148.6413   25.2755 H   0  0  0  0  0  0  0  0  0  0  0  0
   51.6160  149.7385   26.4183 H   0  0  0  0  0  0  0  0  0  0  0  0
   53.2145  150.0530   27.2049 H   0  0  0  0  0  0  0  0  0  0  0  0
   51.6834  151.9538   25.3590 H   0  0  0  0  0  0  0  0  0  0  0  0
   51.9104  152.1303   27.1292 H   0  0  0  0  0  0  0  0  0  0  0  0
  1  2  1  0
  2  3  2  0
  3  4  1  0
  4  5  2  0
  5  6  1  0
  6  7  1  0
  7  8  1  0
  8  9  2  0
  9 10  1  0
 10 11  2  0
 11 12  1  0
 12 13  1  0
 12 14  2  0
 14 15  1  0
 15 16  2  0
 15 17  1  0
 17 18  1  0
  5 19  1  0
 19 20  2  0
 20 21  1  0
 21 22  1  0
 22 23  1  0
 23 24  1  0
 24 25  1  0
 25 26  1  0
 20  2  1  0
 26 21  1  0
 17  6  2  0
 14  8  1  0
  1 27  1  0
  1 28  1  0
  1 29  1  0
  3 30  1  0
  4 31  1  0
  9 32  1  0
 10 33  1  0
 11 34  1  0
 13 35  1  0
 18 36  1  0
 19 37  1  0
 22 38  1  0
 22 39  1  0
 23 40  1  0
 23 41  1  0
 24 42  1  0
 24 43  1  0
 25 44  1  0
 25 45  1  0
 26 46  1  0
 26 47  1  0
M  END
>  <meeko>  (5) 
{"is_sidechain": [false], "free_energy": -7.69, "intermolecular_energy": -9.834, "internal_energy": 1.693}

$$$$
