cand_012_out
     RDKit          3D

 40 42  0  0  0  0  0  0  0  0999 V2000
   49.1330  159.9520   33.0320 C   0  0  0  0  0  0  0  0  0  0  0  0
   48.8900  160.0210   31.5890 N   0  0  0  0  0  0  0  0  0  0  0  0
   47.4710  160.0870   31.2230 C   0  0  0  0  0  0  0  0  0  0  0  0
   49.5790  159.0350   30.8570 C   0  0  0  0  0  0  0  0  0  0  0  0
   48.9870  157.8030   30.5350 C   0  0  0  0  0  0  0  0  0  0  0  0
   49.6780  156.8350   29.8000 C   0  0  0  0  0  0  0  0  0  0  0  0
   50.9810  157.0710   29.3560 C   0  0  0  0  0  0  0  0  0  0  0  0
   51.7460  156.0560   28.6010 C   0  0  0  0  0  0  0  0  0  0  0  0
   52.2610  156.5460   27.4060 O   0  0  0  0  0  0  0  0  0  0  0  0
   52.9900  155.7060   26.6040 C   0  0  0  0  0  0  0  0  0  0  0  0
   53.4970  156.2440   25.4200 C   0  0  0  0  0  0  0  0  0  0  0  0
   54.2480  155.4410   24.5570 C   0  0  0  0  0  0  0  0  0  0  0  0
   54.4900  154.1040   24.8780 C   0  0  0  0  0  0  0  0  0  0  0  0
   53.9820  153.5710   26.0590 C   0  0  0  0  0  0  0  0  0  0  0  0
   54.2570  152.2550   26.3110 O   0  0  0  0  0  0  0  0  0  0  0  0
   53.2320  154.3740   26.9230 C   0  0  0  0  0  0  0  0  0  0  0  0
   52.6790  153.8530   28.1740 C   0  0  0  0  0  0  0  0  0  0  0  0
   52.8440  152.6860   28.5230 O   0  0  0  0  0  0  0  0  0  0  0  0
   51.9030  154.7870   29.0210 C   0  0  0  0  0  0  0  0  0  0  0  0
   51.3720  154.2810   30.1940 O   0  0  0  0  0  0  0  0  0  0  0  0
   51.5790  158.2970   29.6830 C   0  0  0  0  0  0  0  0  0  0  0  0
   50.8940  159.2840   30.4230 C   0  0  0  0  0  0  0  0  0  0  0  0
   51.5810  160.5880   30.7460 C   0  0  0  0  0  0  0  0  0  0  0  0
   50.8870  161.6900   30.3390 F   0  0  0  0  0  0  0  0  0  0  0  0
   52.8030  160.7030   30.1350 F   0  0  0  0  0  0  0  0  0  0  0  0
   51.8420  160.7590   32.0740 F   0  0  0  0  0  0  0  0  0  0  0  0
   48.2111  160.2138   33.5720 H   0  0  0  0  0  0  0  0  0  0  0  0
   49.4398  158.9312   33.3038 H   0  0  0  0  0  0  0  0  0  0  0  0
   49.9305  160.6592   33.3038 H   0  0  0  0  0  0  0  0  0  0  0  0
   46.8578  160.1155   32.1358 H   0  0  0  0  0  0  0  0  0  0  0  0
   47.2873  160.9947   30.6294 H   0  0  0  0  0  0  0  0  0  0  0  0
   47.2038  159.2003   30.6294 H   0  0  0  0  0  0  0  0  0  0  0  0
   47.9593  157.5954   30.8676 H   0  0  0  0  0  0  0  0  0  0  0  0
   49.1899  155.8767   29.5688 H   0  0  0  0  0  0  0  0  0  0  0  0
   53.3060  157.2973   25.1668 H   0  0  0  0  0  0  0  0  0  0  0  0
   54.6489  155.8630   23.6236 H   0  0  0  0  0  0  0  0  0  0  0  0
   55.0814  153.4728   24.1984 H   0  0  0  0  0  0  0  0  0  0  0  0
   54.3000  151.6410   25.6040 H   0  0  0  0  0  0  0  0  0  0  0  0
   50.6130  153.7320   30.1650 H   0  0  0  0  0  0  0  0  0  0  0  0
   52.6098  158.4943   29.3536 H   0  0  0  0  0  0  0  0  0  0  0  0
  1  2  1  0
  2  3  1  0
  2  4  1  0
  4  5  2  0
  5  6  1  0
  6  7  2  0
  7  8  1  0
  8  9  1  0
  9 10  1  0
 10 11  2  0
 11 12  1  0
 12 13  2  0
 13 14  1  0
 14 15  1  0
 14 16  2  0
 16 17  1  0
 17 18  2  0
 17 19  1  0
 19 20  1  0
  7 21  1  0
 21 22  2  0
 22 23  1  0
 23 24  1  0
 23 25  1  0
 23 26  1  0
 22  4  1  0
 19  8  2  0
 16 10  1  0
  1 27  1  0
  1 28  1  0
  1 29  1  0
  3 30  1  0
  3 31  1  0
  3 32  1  0
  5 33  1  0
  6 34  1  0
 11 35  1  0
 12 36  1  0
 13 37  1  0
 15 38  1  0
 20 39  1  0
 21 40  1  0
M  END
>  <meeko>  (1) 
{"is_sidechain": [false], "free_energy": -10.414, "intermolecular_energy": -12.849, "internal_energy": -0.074}

$$$$
cand_012_out
     RDKit          3D

 40 42  0  0  0  0  0  0  0  0999 V2000
   51.2010  162.1010   31.2810 C   0  0  0  0  0  0  0  0  0  0  0  0
   50.3100  160.9440   31.4090 N   0  0  0  0  0  0  0  0  0  0  0  0
   49.9350  160.6270   32.7920 C   0  0  0  0  0  0  0  0  0  0  0  0
   50.7620  159.8100   30.7100 C   0  0  0  0  0  0  0  0  0  0  0  0
   52.1150  159.6340   30.3790 C   0  0  0  0  0  0  0  0  0  0  0  0
   52.5540  158.4990   29.6920 C   0  0  0  0  0  0  0  0  0  0  0  0
   51.6540  157.4970   29.3210 C   0  0  0  0  0  0  0  0  0  0  0  0
   52.0850  156.2980   28.5710 C   0  0  0  0  0  0  0  0  0  0  0  0
   52.6060  156.6030   27.3180 O   0  0  0  0  0  0  0  0  0  0  0  0
   53.0410  155.5820   26.5130 C   0  0  0  0  0  0  0  0  0  0  0  0
   53.5670  155.9350   25.2700 C   0  0  0  0  0  0  0  0  0  0  0  0
   54.0280  154.9420   24.4020 C   0  0  0  0  0  0  0  0  0  0  0  0
   53.9630  153.5990   24.7770 C   0  0  0  0  0  0  0  0  0  0  0  0
   53.4370  153.2500   26.0180 C   0  0  0  0  0  0  0  0  0  0  0  0
   53.4030  151.9160   26.3210 O   0  0  0  0  0  0  0  0  0  0  0  0
   52.9780  154.2430   26.8870 C   0  0  0  0  0  0  0  0  0  0  0  0
   52.4180  153.9190   28.2000 C   0  0  0  0  0  0  0  0  0  0  0  0
   52.3210  152.7610   28.5990 O   0  0  0  0  0  0  0  0  0  0  0  0
   51.9630  155.0450   29.0470 C   0  0  0  0  0  0  0  0  0  0  0  0
   51.4210  154.7280   30.2790 O   0  0  0  0  0  0  0  0  0  0  0  0
   50.3010  157.6710   29.6430 C   0  0  0  0  0  0  0  0  0  0  0  0
   49.8430  158.8120   30.3370 C   0  0  0  0  0  0  0  0  0  0  0  0
   48.3760  158.9500   30.6610 C   0  0  0  0  0  0  0  0  0  0  0  0
   48.0590  158.5810   31.9360 F   0  0  0  0  0  0  0  0  0  0  0  0
   47.5850  158.1630   29.8650 F   0  0  0  0  0  0  0  0  0  0  0  0
   47.8910  160.2130   30.4890 F   0  0  0  0  0  0  0  0  0  0  0  0
   51.4791  162.4621   32.2821 H   0  0  0  0  0  0  0  0  0  0  0  0
   52.1078  161.8065   30.7324 H   0  0  0  0  0  0  0  0  0  0  0  0
   50.6846  162.9025   30.7324 H   0  0  0  0  0  0  0  0  0  0  0  0
   50.5877  161.1787   33.4845 H   0  0  0  0  0  0  0  0  0  0  0  0
   48.8883  160.9182   32.9640 H   0  0  0  0  0  0  0  0  0  0  0  0
   50.0479  159.5464   32.9640 H   0  0  0  0  0  0  0  0  0  0  0  0
   52.8446  160.4055   30.6664 H   0  0  0  0  0  0  0  0  0  0  0  0
   53.6197  158.3934   29.4407 H   0  0  0  0  0  0  0  0  0  0  0  0
   53.6187  156.9931   24.9739 H   0  0  0  0  0  0  0  0  0  0  0  0
   54.4428  155.2189   23.4216 H   0  0  0  0  0  0  0  0  0  0  0  0
   54.3267  152.8178   24.0933 H   0  0  0  0  0  0  0  0  0  0  0  0
   53.8410  151.5980   27.0870 H   0  0  0  0  0  0  0  0  0  0  0  0
   50.9670  153.9160   30.3960 H   0  0  0  0  0  0  0  0  0  0  0  0
   49.5766  156.8979   29.3471 H   0  0  0  0  0  0  0  0  0  0  0  0
  1  2  1  0
  2  3  1  0
  2  4  1  0
  4  5  2  0
  5  6  1  0
  6  7  2  0
  7  8  1  0
  8  9  1  0
  9 10  1  0
 10 11  2  0
 11 12  1  0
 12 13  2  0
 13 14  1  0
 14 15  1  0
 14 16  2  0
 16 17  1  0
 17 18  2  0
 17 19  1  0
 19 20  1  0
  7 21  1  0
 21 22  2  0
 22 23  1  0
 23 24  1  0
 23 25  1  0
 23 26  1  0
 22  4  1  0
 19  8  2  0
 16 10  1  0
  1 27  1  0
  1 28  1  0
  1 29  1  0
  3 30  1  0
  3 31  1  0
  3 32  1  0
  5 33  1  0
  6 34  1  0
 11 35  1  0
 12 36  1  0
 13 37  1  0
 15 38  1  0
 20 39  1  0
 21 40  1  0
M  END
>  <meeko>  (2) 
{"is_sidechain": [false], "free_energy": -10.087, "intermolecular_energy": -12.895, "internal_energy": 0.375}

$$$$
cand_012_out
     RDKit          3D

 40 42  0  0  0  0  0  0  0  0999 V2000
   51.8720  152.0080   26.6140 C   0  0  0  0  0  0  0  0  0  0  0  0
   52.7820  153.1470   26.4720 N   0  0  0  0  0  0  0  0  0  0  0  0
   54.1980  152.8090   26.6510 C   0  0  0  0  0  0  0  0  0  0  0  0
   52.4040  154.2650   27.2400 C   0  0  0  0  0  0  0  0  0  0  0  0
   51.8420  154.1280   28.5200 C   0  0  0  0  0  0  0  0  0  0  0  0
   51.4790  155.2450   29.2780 C   0  0  0  0  0  0  0  0  0  0  0  0
   51.6740  156.5370   28.7830 C   0  0  0  0  0  0  0  0  0  0  0  0
   51.2750  157.7350   29.5510 C   0  0  0  0  0  0  0  0  0  0  0  0
   49.9470  157.6980   29.9590 O   0  0  0  0  0  0  0  0  0  0  0  0
   49.4430  158.7510   30.6790 C   0  0  0  0  0  0  0  0  0  0  0  0
   48.1080  158.6650   31.0780 C   0  0  0  0  0  0  0  0  0  0  0  0
   47.5340  159.7050   31.8140 C   0  0  0  0  0  0  0  0  0  0  0  0
   48.2930  160.8280   32.1480 C   0  0  0  0  0  0  0  0  0  0  0  0
   49.6230  160.9110   31.7470 C   0  0  0  0  0  0  0  0  0  0  0  0
   50.3080  162.0390   32.1090 O   0  0  0  0  0  0  0  0  0  0  0  0
   50.1980  159.8710   31.0130 C   0  0  0  0  0  0  0  0  0  0  0  0
   51.5930  159.9180   30.5720 C   0  0  0  0  0  0  0  0  0  0  0  0
   52.3240  160.8750   30.8210 O   0  0  0  0  0  0  0  0  0  0  0  0
   52.1080  158.7620   29.8030 C   0  0  0  0  0  0  0  0  0  0  0  0
   53.4230  158.8230   29.3770 O   0  0  0  0  0  0  0  0  0  0  0  0
   52.2280  156.6780   27.5030 C   0  0  0  0  0  0  0  0  0  0  0  0
   52.6000  155.5590   26.7260 C   0  0  0  0  0  0  0  0  0  0  0  0
   53.1950  155.7670   25.3550 C   0  0  0  0  0  0  0  0  0  0  0  0
   54.5520  155.6320   25.3200 F   0  0  0  0  0  0  0  0  0  0  0  0
   52.9590  157.0240   24.8640 F   0  0  0  0  0  0  0  0  0  0  0  0
   52.6950  154.9250   24.4060 F   0  0  0  0  0  0  0  0  0  0  0  0
   51.7070  151.8014   27.6818 H   0  0  0  0  0  0  0  0  0  0  0  0
   50.9111  152.2442   26.1334 H   0  0  0  0  0  0  0  0  0  0  0  0
   52.3145  151.1230   26.1334 H   0  0  0  0  0  0  0  0  0  0  0  0
   54.4289  152.7539   27.7251 H   0  0  0  0  0  0  0  0  0  0  0  0
   54.4050  151.8362   26.1811 H   0  0  0  0  0  0  0  0  0  0  0  0
   54.8221  153.5834   26.1811 H   0  0  0  0  0  0  0  0  0  0  0  0
   51.6843  153.1213   28.9343 H   0  0  0  0  0  0  0  0  0  0  0  0
   51.0351  155.1054   30.2747 H   0  0  0  0  0  0  0  0  0  0  0  0
   47.5094  157.7808   30.8137 H   0  0  0  0  0  0  0  0  0  0  0  0
   46.4826  159.6387   32.1306 H   0  0  0  0  0  0  0  0  0  0  0  0
   47.8404  161.6462   32.7274 H   0  0  0  0  0  0  0  0  0  0  0  0
   50.1630  162.8430   31.6490 H   0  0  0  0  0  0  0  0  0  0  0  0
   53.9570  159.5560   29.6120 H   0  0  0  0  0  0  0  0  0  0  0  0
   52.3770  157.6877   27.0927 H   0  0  0  0  0  0  0  0  0  0  0  0
  1  2  1  0
  2  3  1  0
  2  4  1  0
  4  5  2  0
  5  6  1  0
  6  7  2  0
  7  8  1  0
  8  9  1  0
  9 10  1  0
 10 11  2  0
 11 12  1  0
 12 13  2  0
 13 14  1  0
 14 15  1  0
 14 16  2  0
 16 17  1  0
 17 18  2  0
 17 19  1  0
 19 20  1  0
  7 21  1  0
 21 22  2  0
 22 23  1  0
 23 24  1  0
 23 25  1  0
 23 26  1  0
 22  4  1  0
 19  8  2  0
 16 10  1  0
  1 27  1  0
  1 28  1  0
  1 29  1  0
  3 30  1  0
  3 31  1  0
  3 32  1  0
  5 33  1  0
  6 34  1  0
 11 35  1  0
 12 36  1  0
 13 37  1  0
 15 38  1  0
 20 39  1  0
 21 40  1  0
M  END
>  <meeko>  (3) 
{"is_sidechain": [false], "free_energy": -9.875, "intermolecular_energy": -12.209, "internal_energy": -0.049}

$$$$
cand_012_out
     RDKit          3D

 40 42  0  0  0  0  0  0  0  0999 V2000
   54.4700  154.7650   25.4340 C   0  0  0  0  0  0  0  0  0  0  0  0
   53.3740  154.3290   26.3030 N   0  0  0  0  0  0  0  0  0  0  0  0
   52.2960  153.6230   25.6010 C   0  0  0  0  0  0  0  0  0  0  0  0
   52.8820  155.3490   27.1390 C   0  0  0  0  0  0  0  0  0  0  0  0
   53.0140  156.7060   26.8060 C   0  0  0  0  0  0  0  0  0  0  0  0
   52.5140  157.7120   27.6390 C   0  0  0  0  0  0  0  0  0  0  0  0
   51.8560  157.3900   28.8290 C   0  0  0  0  0  0  0  0  0  0  0  0
   51.3410  158.4320   29.7430 C   0  0  0  0  0  0  0  0  0  0  0  0
   50.0050  158.2420   30.0790 O   0  0  0  0  0  0  0  0  0  0  0  0
   49.3980  159.1400   30.9200 C   0  0  0  0  0  0  0  0  0  0  0  0
   48.0610  158.9040   31.2400 C   0  0  0  0  0  0  0  0  0  0  0  0
   47.3840  159.7810   32.0900 C   0  0  0  0  0  0  0  0  0  0  0  0
   48.0430  160.8920   32.6190 C   0  0  0  0  0  0  0  0  0  0  0  0
   49.3780  161.1250   32.2970 C   0  0  0  0  0  0  0  0  0  0  0  0
   49.9620  162.2320   32.8500 O   0  0  0  0  0  0  0  0  0  0  0  0
   50.0550  160.2470   31.4480 C   0  0  0  0  0  0  0  0  0  0  0  0
   51.4570  160.4550   31.0840 C   0  0  0  0  0  0  0  0  0  0  0  0
   52.1040  161.4130   31.5030 O   0  0  0  0  0  0  0  0  0  0  0  0
   52.0850  159.4640   30.1800 C   0  0  0  0  0  0  0  0  0  0  0  0
   53.4060  159.6780   29.8300 O   0  0  0  0  0  0  0  0  0  0  0  0
   51.7290  156.0360   29.1700 C   0  0  0  0  0  0  0  0  0  0  0  0
   52.2280  155.0100   28.3370 C   0  0  0  0  0  0  0  0  0  0  0  0
   52.0620  153.5680   28.7480 C   0  0  0  0  0  0  0  0  0  0  0  0
   51.1420  152.8880   28.0060 F   0  0  0  0  0  0  0  0  0  0  0  0
   51.6300  153.4360   30.0420 F   0  0  0  0  0  0  0  0  0  0  0  0
   53.2170  152.8440   28.6950 F   0  0  0  0  0  0  0  0  0  0  0  0
   55.3159  155.1015   26.0515 H   0  0  0  0  0  0  0  0  0  0  0  0
   54.7905  153.9259   24.7990 H   0  0  0  0  0  0  0  0  0  0  0  0
   54.1265  155.5950   24.7990 H   0  0  0  0  0  0  0  0  0  0  0  0
   51.6116  153.1748   26.3363 H   0  0  0  0  0  0  0  0  0  0  0  0
   51.7421  154.3339   24.9702 H   0  0  0  0  0  0  0  0  0  0  0  0
   52.7262  152.8311   24.9702 H   0  0  0  0  0  0  0  0  0  0  0  0
   53.5213  156.9841   25.8704 H   0  0  0  0  0  0  0  0  0  0  0  0
   52.6399  158.7671   27.3546 H   0  0  0  0  0  0  0  0  0  0  0  0
   47.5409  158.0287   30.8236 H   0  0  0  0  0  0  0  0  0  0  0  0
   46.3296  159.5960   32.3431 H   0  0  0  0  0  0  0  0  0  0  0  0
   47.5091  161.5821   33.2888 H   0  0  0  0  0  0  0  0  0  0  0  0
   50.3690  162.8720   32.2990 H   0  0  0  0  0  0  0  0  0  0  0  0
   53.6490  160.4640   29.3790 H   0  0  0  0  0  0  0  0  0  0  0  0
   51.2276  155.7655   30.1110 H   0  0  0  0  0  0  0  0  0  0  0  0
  1  2  1  0
  2  3  1  0
  2  4  1  0
  4  5  2  0
  5  6  1  0
  6  7  2  0
  7  8  1  0
  8  9  1  0
  9 10  1  0
 10 11  2  0
 11 12  1  0
 12 13  2  0
 13 14  1  0
 14 15  1  0
 14 16  2  0
 16 17  1  0
 17 18  2  0
 17 19  1  0
 19 20  1  0
  7 21  1  0
 21 22  2  0
 22 23  1  0
 23 24  1  0
 23 25  1  0
 23 26  1  0
 22  4  1  0
 19  8  2  0
 16 10  1  0
  1 27  1  0
  1 28  1  0
  1 29  1  0
  3 30  1  0
  3 31  1  0
  3 32  1  0
  5 33  1  0
  6 34  1  0
 11 35  1  0
 12 36  1  0
 13 37  1  0
 15 38  1  0
 20 39  1  0
 21 40  1  0
M  END
>  <meeko>  (4) 
{"is_sidechain": [false], "free_energy": -8.49, "intermolecular_energy": -10.957, "internal_energy": 0.407}

$$$$
cand_012_out
     RDKit          3D

 40 42  0  0  0  0  0  0  0  0999 V2000
   52.8210  151.8220   25.9230 C   0  0  0  0  0  0  0  0  0  0  0  0
   53.6230  153.0390   26.0770 N   0  0  0  0  0  0  0  0  0  0  0  0
   55.0100  152.7950   26.4880 C   0  0  0  0  0  0  0  0  0  0  0  0
   53.0010  154.0230   26.8680 C   0  0  0  0  0  0  0  0  0  0  0  0
   52.4480  153.7220   28.1230 C   0  0  0  0  0  0  0  0  0  0  0  0
   51.8410  154.7090   28.9060 C   0  0  0  0  0  0  0  0  0  0  0  0
   51.7750  156.0320   28.4610 C   0  0  0  0  0  0  0  0  0  0  0  0
   51.1160  157.0910   29.2540 C   0  0  0  0  0  0  0  0  0  0  0  0
   51.9550  158.1660   29.5230 O   0  0  0  0  0  0  0  0  0  0  0  0
   51.4700  159.2200   30.2550 C   0  0  0  0  0  0  0  0  0  0  0  0
   52.3430  160.2830   30.4900 C   0  0  0  0  0  0  0  0  0  0  0  0
   51.9120  161.3870   31.2290 C   0  0  0  0  0  0  0  0  0  0  0  0
   50.6110  161.4270   31.7330 C   0  0  0  0  0  0  0  0  0  0  0  0
   49.7430  160.3650   31.4970 C   0  0  0  0  0  0  0  0  0  0  0  0
   48.4820  160.4700   32.0200 O   0  0  0  0  0  0  0  0  0  0  0  0
   50.1730  159.2610   30.7570 C   0  0  0  0  0  0  0  0  0  0  0  0
   49.2930  158.1230   30.4860 C   0  0  0  0  0  0  0  0  0  0  0  0
   48.1360  158.0810   30.9010 O   0  0  0  0  0  0  0  0  0  0  0  0
   49.8440  157.0050   29.6870 C   0  0  0  0  0  0  0  0  0  0  0  0
   49.0100  155.9280   29.4510 O   0  0  0  0  0  0  0  0  0  0  0  0
   52.3200  156.3350   27.2050 C   0  0  0  0  0  0  0  0  0  0  0  0
   52.9370  155.3490   26.4050 C   0  0  0  0  0  0  0  0  0  0  0  0
   53.5100  155.7290   25.0620 C   0  0  0  0  0  0  0  0  0  0  0  0
   54.8720  155.8110   25.0500 F   0  0  0  0  0  0  0  0  0  0  0  0
   53.0840  156.9610   24.6370 F   0  0  0  0  0  0  0  0  0  0  0  0
   53.1620  154.8780   24.0540 F   0  0  0  0  0  0  0  0  0  0  0  0
   52.5604  151.4265   26.9158 H   0  0  0  0  0  0  0  0  0  0  0  0
   51.9004  152.0572   25.3688 H   0  0  0  0  0  0  0  0  0  0  0  0
   53.4003  151.0688   25.3688 H   0  0  0  0  0  0  0  0  0  0  0  0
   55.0705  152.7844   27.5863 H   0  0  0  0  0  0  0  0  0  0  0  0
   55.3441  151.8243   26.0929 H   0  0  0  0  0  0  0  0  0  0  0  0
   55.6554  153.5934   26.0929 H   0  0  0  0  0  0  0  0  0  0  0  0
   52.4931  152.6889   28.4979 H   0  0  0  0  0  0  0  0  0  0  0  0
   51.4110  154.4411   29.8824 H   0  0  0  0  0  0  0  0  0  0  0  0
   53.3687  160.2515   30.0939 H   0  0  0  0  0  0  0  0  0  0  0  0
   52.5988  162.2261   31.4141 H   0  0  0  0  0  0  0  0  0  0  0  0
   50.2723  162.2964   32.3157 H   0  0  0  0  0  0  0  0  0  0  0  0
   47.8080  159.8820   31.7390 H   0  0  0  0  0  0  0  0  0  0  0  0
   48.7820  155.6970   28.5710 H   0  0  0  0  0  0  0  0  0  0  0  0
   52.2653  157.3688   26.8331 H   0  0  0  0  0  0  0  0  0  0  0  0
  1  2  1  0
  2  3  1  0
  2  4  1  0
  4  5  2  0
  5  6  1  0
  6  7  2  0
  7  8  1  0
  8  9  1  0
  9 10  1  0
 10 11  2  0
 11 12  1  0
 12 13  2  0
 13 14  1  0
 14 15  1  0
 14 16  2  0
 16 17  1  0
 17 18  2  0
 17 19  1  0
 19 20  1  0
  7 21  1  0
 21 22  2  0
 22 23  1  0
 23 24  1  0
 23 25  1  0
 23 26  1  0
 22  4  1  0
 19  8  2  0
 16 10  1  0
  1 27  1  0
  1 28  1  0
  1 29  1  0
  3 30  1  0
  3 31  1  0
  3 32  1  0
  5 33  1  0
  6 34  1  0
 11 35  1  0
 12 36  1  0
 13 37  1  0
 15 38  1  0
 20 39  1  0
 21 40  1  0
M  END
>  <meeko>  (5) 
{"is_sidechain": [false], "free_energy": -7.891, "intermolecular_energy": -9.488, "internal_energy": -0.322}

$$$$
