cand_029_out
     RDKit          3D

 50 53  0  0  0  0  0  0  0  0999 V2000
   54.4260  156.0610   24.8390 C   0  0  0  0  0  0  0  0  0  0  0  0
   53.2470  155.1000   24.8770 C   0  0  0  0  0  0  0  0  0  0  0  0
   52.7210  154.9020   26.2810 C   0  0  0  0  0  0  0  0  0  0  0  0
   52.4060  156.0370   27.0540 C   0  0  0  0  0  0  0  0  0  0  0  0
   51.9370  155.9240   28.3710 C   0  0  0  0  0  0  0  0  0  0  0  0
   51.5910  157.1400   29.1360 C   0  0  0  0  0  0  0  0  0  0  0  0
   50.2760  157.1380   29.5890 O   0  0  0  0  0  0  0  0  0  0  0  0
   49.8210  158.2100   30.3130 C   0  0  0  0  0  0  0  0  0  0  0  0
   48.4990  158.1590   30.7580 C   0  0  0  0  0  0  0  0  0  0  0  0
   47.9730  159.2180   31.4990 C   0  0  0  0  0  0  0  0  0  0  0  0
   48.7660  160.3290   31.7940 C   0  0  0  0  0  0  0  0  0  0  0  0
   50.0850  160.3770   31.3480 C   0  0  0  0  0  0  0  0  0  0  0  0
   50.8050  161.4940   31.6730 O   0  0  0  0  0  0  0  0  0  0  0  0
   50.6110  159.3160   30.6080 C   0  0  0  0  0  0  0  0  0  0  0  0
   51.9920  159.3270   30.1200 C   0  0  0  0  0  0  0  0  0  0  0  0
   52.7500  160.2700   30.3340 O   0  0  0  0  0  0  0  0  0  0  0  0
   52.4550  158.1500   29.3490 C   0  0  0  0  0  0  0  0  0  0  0  0
   53.7560  158.1770   28.8820 O   0  0  0  0  0  0  0  0  0  0  0  0
   51.7700  154.6430   28.9040 C   0  0  0  0  0  0  0  0  0  0  0  0
   52.0860  153.5080   28.1520 C   0  0  0  0  0  0  0  0  0  0  0  0
   52.5720  153.6170   26.8400 C   0  0  0  0  0  0  0  0  0  0  0  0
   52.8950  152.4810   26.0660 N   0  0  0  0  0  0  0  0  0  0  0  0
   54.3160  152.4140   25.6910 C   0  0  0  0  0  0  0  0  0  0  0  0
   54.5040  151.2980   24.6610 C   0  0  0  0  0  0  0  0  0  0  0  0
   53.9810  149.9650   25.1920 C   0  0  0  0  0  0  0  0  0  0  0  0
   52.5360  150.0970   25.6700 C   0  0  0  0  0  0  0  0  0  0  0  0
   52.3830  151.2420   26.6720 C   0  0  0  0  0  0  0  0  0  0  0  0
   54.7302  156.3090   25.8666 H   0  0  0  0  0  0  0  0  0  0  0  0
   55.2675  155.5882   24.3115 H   0  0  0  0  0  0  0  0  0  0  0  0
   54.1326  156.9806   24.3115 H   0  0  0  0  0  0  0  0  0  0  0  0
   52.4393  155.5042   24.2491 H   0  0  0  0  0  0  0  0  0  0  0  0
   53.5921  154.1247   24.5033 H   0  0  0  0  0  0  0  0  0  0  0  0
   52.5311  157.0371   26.6135 H   0  0  0  0  0  0  0  0  0  0  0  0
   47.8727  157.2853   30.5249 H   0  0  0  0  0  0  0  0  0  0  0  0
   46.9318  159.1776   31.8514 H   0  0  0  0  0  0  0  0  0  0  0  0
   48.3503  161.1640   32.3770 H   0  0  0  0  0  0  0  0  0  0  0  0
   51.3640  161.4890   32.4250 H   0  0  0  0  0  0  0  0  0  0  0  0
   54.1090  157.4330   28.4350 H   0  0  0  0  0  0  0  0  0  0  0  0
   51.3852  154.5265   29.9279 H   0  0  0  0  0  0  0  0  0  0  0  0
   51.9513  152.5110   28.5967 H   0  0  0  0  0  0  0  0  0  0  0  0
   54.6289  153.3747   25.2560 H   0  0  0  0  0  0  0  0  0  0  0  0
   54.9274  152.2065   26.5816 H   0  0  0  0  0  0  0  0  0  0  0  0
   53.9555  151.5594   23.7441 H   0  0  0  0  0  0  0  0  0  0  0  0
   55.5789  151.1931   24.4523 H   0  0  0  0  0  0  0  0  0  0  0  0
   54.0275  149.2145   24.3892 H   0  0  0  0  0  0  0  0  0  0  0  0
   54.6057  149.6567   26.0433 H   0  0  0  0  0  0  0  0  0  0  0  0
   51.8883  150.2915   24.8025 H   0  0  0  0  0  0  0  0  0  0  0  0
   52.2489  149.1595   26.1686 H   0  0  0  0  0  0  0  0  0  0  0  0
   51.3207  151.3684   26.9281 H   0  0  0  0  0  0  0  0  0  0  0  0
   52.9503  151.0137   27.5864 H   0  0  0  0  0  0  0  0  0  0  0  0
  1  2  1  0
  2  3  1  0
  3  4  2  0
  4  5  1  0
  5  6  1  0
  6  7  1  0
  7  8  1  0
  8  9  2  0
  9 10  1  0
 10 11  2  0
 11 12  1  0
 12 13  1  0
 12 14  2  0
 14 15  1  0
 15 16  2  0
 15 17  1  0
 17 18  1  0
  5 19  2  0
 19 20  1  0
 20 21  2  0
 21 22  1  0
 22 23  1  0
 23 24  1  0
 24 25  1  0
 25 26  1  0
 26 27  1  0
 21  3  1  0
 27 22  1  0
 17  6  2  0
 14  8  1  0
  1 28  1  0
  1 29  1  0
  1 30  1  0
  2 31  1  0
  2 32  1  0
  4 33  1  0
  9 34  1  0
 10 35  1  0
 11 36  1  0
 13 37  1  0
 18 38  1  0
 19 39  1  0
 20 40  1  0
 23 41  1  0
 23 42  1  0
 24 43  1  0
 24 44  1  0
 25 45  1  0
 25 46  1  0
 26 47  1  0
 26 48  1  0
 27 49  1  0
 27 50  1  0
M  END
>  <meeko>  (1) 
{"is_sidechain": [false], "free_energy": -11.062, "intermolecular_energy": -13.649, "internal_energy": -0.161}

$$$$
cand_029_out
     RDKit          3D

 50 53  0  0  0  0  0  0  0  0999 V2000
   52.7850  161.1640   31.6330 C   0  0  0  0  0  0  0  0  0  0  0  0
   52.2950  160.8590   30.2260 C   0  0  0  0  0  0  0  0  0  0  0  0
   51.5370  159.5510   30.1600 C   0  0  0  0  0  0  0  0  0  0  0  0
   52.0770  158.4920   29.4040 C   0  0  0  0  0  0  0  0  0  0  0  0
   51.4140  157.2620   29.2830 C   0  0  0  0  0  0  0  0  0  0  0  0
   52.0300  156.1680   28.5030 C   0  0  0  0  0  0  0  0  0  0  0  0
   52.5750  156.6010   27.3000 O   0  0  0  0  0  0  0  0  0  0  0  0
   53.1780  155.6870   26.4750 C   0  0  0  0  0  0  0  0  0  0  0  0
   53.7220  156.1690   25.2850 C   0  0  0  0  0  0  0  0  0  0  0  0
   54.3490  155.2900   24.3990 C   0  0  0  0  0  0  0  0  0  0  0  0
   54.4310  153.9290   24.7040 C   0  0  0  0  0  0  0  0  0  0  0  0
   53.8880  153.4510   25.8940 C   0  0  0  0  0  0  0  0  0  0  0  0
   54.0030  152.1080   26.1290 O   0  0  0  0  0  0  0  0  0  0  0  0
   53.2610  154.3320   26.7790 C   0  0  0  0  0  0  0  0  0  0  0  0
   52.6760  153.8700   28.0400 C   0  0  0  0  0  0  0  0  0  0  0  0
   52.7030  152.6880   28.3760 O   0  0  0  0  0  0  0  0  0  0  0  0
   52.0400  154.8850   28.9120 C   0  0  0  0  0  0  0  0  0  0  0  0
   51.4790  154.4360   30.0930 O   0  0  0  0  0  0  0  0  0  0  0  0
   50.1960  157.0990   29.9500 C   0  0  0  0  0  0  0  0  0  0  0  0
   49.6450  158.1450   30.6970 C   0  0  0  0  0  0  0  0  0  0  0  0
   50.2970  159.3820   30.8070 C   0  0  0  0  0  0  0  0  0  0  0  0
   49.7550  160.4480   31.5590 N   0  0  0  0  0  0  0  0  0  0  0  0
   48.5820  161.0720   30.9270 C   0  0  0  0  0  0  0  0  0  0  0  0
   48.2330  162.3530   31.6870 C   0  0  0  0  0  0  0  0  0  0  0  0
   48.0090  162.0700   33.1710 C   0  0  0  0  0  0  0  0  0  0  0  0
   49.2020  161.3270   33.7710 C   0  0  0  0  0  0  0  0  0  0  0  0
   49.5390  160.0720   32.9650 C   0  0  0  0  0  0  0  0  0  0  0  0
   52.0886  160.7305   32.3658 H   0  0  0  0  0  0  0  0  0  0  0  0
   53.7851  160.7286   31.7754 H   0  0  0  0  0  0  0  0  0  0  0  0
   52.8358  162.2536   31.7754 H   0  0  0  0  0  0  0  0  0  0  0  0
   51.6302  161.6715   29.8977 H   0  0  0  0  0  0  0  0  0  0  0  0
   53.1747  160.7749   29.5710 H   0  0  0  0  0  0  0  0  0  0  0  0
   53.0424  158.6333   28.8961 H   0  0  0  0  0  0  0  0  0  0  0  0
   53.6574  157.2404   25.0443 H   0  0  0  0  0  0  0  0  0  0  0  0
   54.7786  155.6696   23.4602 H   0  0  0  0  0  0  0  0  0  0  0  0
   54.9235  153.2364   24.0056 H   0  0  0  0  0  0  0  0  0  0  0  0
   53.3180  151.6490   26.5740 H   0  0  0  0  0  0  0  0  0  0  0  0
   52.0230  154.0530   30.7540 H   0  0  0  0  0  0  0  0  0  0  0  0
   49.6654  156.1375   29.8865 H   0  0  0  0  0  0  0  0  0  0  0  0
   48.6824  157.9949   31.2078 H   0  0  0  0  0  0  0  0  0  0  0  0
   48.8127  161.3153   29.8793 H   0  0  0  0  0  0  0  0  0  0  0  0
   47.7295  160.3775   30.9555 H   0  0  0  0  0  0  0  0  0  0  0  0
   49.0595  163.0708   31.5792 H   0  0  0  0  0  0  0  0  0  0  0  0
   47.3041  162.7658   31.2666 H   0  0  0  0  0  0  0  0  0  0  0  0
   47.8739  163.0233   33.7030 H   0  0  0  0  0  0  0  0  0  0  0  0
   47.1134  161.4403   33.2772 H   0  0  0  0  0  0  0  0  0  0  0  0
   50.0754  161.9957   33.7744 H   0  0  0  0  0  0  0  0  0  0  0  0
   48.9409  161.0216   34.7950 H   0  0  0  0  0  0  0  0  0  0  0  0
   50.4524  159.6097   33.3674 H   0  0  0  0  0  0  0  0  0  0  0  0
   48.7094  159.3529   33.0337 H   0  0  0  0  0  0  0  0  0  0  0  0
  1  2  1  0
  2  3  1  0
  3  4  2  0
  4  5  1  0
  5  6  1  0
  6  7  1  0
  7  8  1  0
  8  9  2  0
  9 10  1  0
 10 11  2  0
 11 12  1  0
 12 13  1  0
 12 14  2  0
 14 15  1  0
 15 16  2  0
 15 17  1  0
 17 18  1  0
  5 19  2  0
 19 20  1  0
 20 21  2  0
 21 22  1  0
 22 23  1  0
 23 24  1  0
 24 25  1  0
 25 26  1  0
 26 27  1  0
 21  3  1  0
 27 22  1  0
 17  6  2  0
 14  8  1  0
  1 28  1  0
  1 29  1  0
  1 30  1  0
  2 31  1  0
  2 32  1  0
  4 33  1  0
  9 34  1  0
 10 35  1  0
 11 36  1  0
 13 37  1  0
 18 38  1  0
 19 39  1  0
 20 40  1  0
 23 41  1  0
 23 42  1  0
 24 43  1  0
 24 44  1  0
 25 45  1  0
 25 46  1  0
 26 47  1  0
 26 48  1  0
 27 49  1  0
 27 50  1  0
M  END
>  <meeko>  (2) 
{"is_sidechain": [false], "free_energy": -10.816, "intermolecular_energy": -13.205, "internal_energy": -0.301}

$$$$
cand_029_out
     RDKit          3D

 50 53  0  0  0  0  0  0  0  0999 V2000
   53.9510  156.6350   25.2000 C   0  0  0  0  0  0  0  0  0  0  0  0
   53.3320  155.2540   25.3540 C   0  0  0  0  0  0  0  0  0  0  0  0
   52.7830  155.0300   26.7460 C   0  0  0  0  0  0  0  0  0  0  0  0
   52.2170  156.1200   27.4350 C   0  0  0  0  0  0  0  0  0  0  0  0
   51.7120  155.9860   28.7360 C   0  0  0  0  0  0  0  0  0  0  0  0
   51.0990  157.1490   29.4120 C   0  0  0  0  0  0  0  0  0  0  0  0
   52.0080  158.1740   29.6540 O   0  0  0  0  0  0  0  0  0  0  0  0
   51.5720  159.3150   30.2780 C   0  0  0  0  0  0  0  0  0  0  0  0
   52.5150  160.3210   30.4890 C   0  0  0  0  0  0  0  0  0  0  0  0
   52.1380  161.5070   31.1200 C   0  0  0  0  0  0  0  0  0  0  0  0
   50.8190  161.6870   31.5420 C   0  0  0  0  0  0  0  0  0  0  0  0
   49.8800  160.6810   31.3300 C   0  0  0  0  0  0  0  0  0  0  0  0
   48.6060  160.9230   31.7690 O   0  0  0  0  0  0  0  0  0  0  0  0
   50.2580  159.4940   30.6970 C   0  0  0  0  0  0  0  0  0  0  0  0
   49.3030  158.4110   30.4560 C   0  0  0  0  0  0  0  0  0  0  0  0
   48.1260  158.4920   30.8030 O   0  0  0  0  0  0  0  0  0  0  0  0
   49.8030  157.1970   29.7710 C   0  0  0  0  0  0  0  0  0  0  0  0
   48.8950  156.1750   29.5610 O   0  0  0  0  0  0  0  0  0  0  0  0
   51.7670  154.7260   29.3390 C   0  0  0  0  0  0  0  0  0  0  0  0
   52.3340  153.6380   28.6700 C   0  0  0  0  0  0  0  0  0  0  0  0
   52.8560  153.7710   27.3750 C   0  0  0  0  0  0  0  0  0  0  0  0
   53.4300  152.6820   26.6840 N   0  0  0  0  0  0  0  0  0  0  0  0
   52.4350  151.7680   26.1020 C   0  0  0  0  0  0  0  0  0  0  0  0
   53.1490  150.5110   25.6020 C   0  0  0  0  0  0  0  0  0  0  0  0
   54.2580  150.8650   24.6120 C   0  0  0  0  0  0  0  0  0  0  0  0
   55.2140  151.8960   25.2110 C   0  0  0  0  0  0  0  0  0  0  0  0
   54.4590  153.1210   25.7290 C   0  0  0  0  0  0  0  0  0  0  0  0
   54.1431  157.0637   26.1946 H   0  0  0  0  0  0  0  0  0  0  0  0
   54.8983  156.5526   24.6470 H   0  0  0  0  0  0  0  0  0  0  0  0
   53.2592  157.2873   24.6470 H   0  0  0  0  0  0  0  0  0  0  0  0
   52.5122  155.1495   24.6280 H   0  0  0  0  0  0  0  0  0  0  0  0
   54.1197  154.5072   25.1756 H   0  0  0  0  0  0  0  0  0  0  0  0
   52.1699  157.1012   26.9400 H   0  0  0  0  0  0  0  0  0  0  0  0
   53.5545  160.1795   30.1584 H   0  0  0  0  0  0  0  0  0  0  0  0
   52.8808  162.3013   31.2853 H   0  0  0  0  0  0  0  0  0  0  0  0
   50.5225  162.6215   32.0408 H   0  0  0  0  0  0  0  0  0  0  0  0
   48.4660  161.3080   32.6110 H   0  0  0  0  0  0  0  0  0  0  0  0
   49.1530  155.4100   29.0850 H   0  0  0  0  0  0  0  0  0  0  0  0
   51.3594  154.5894   30.3515 H   0  0  0  0  0  0  0  0  0  0  0  0
   52.3717  152.6583   29.1687 H   0  0  0  0  0  0  0  0  0  0  0  0
   51.6947  151.4923   26.8675 H   0  0  0  0  0  0  0  0  0  0  0  0
   51.9202  152.2620   25.2647 H   0  0  0  0  0  0  0  0  0  0  0  0
   53.5891  149.9824   26.4604 H   0  0  0  0  0  0  0  0  0  0  0  0
   52.4143  149.8724   25.0898 H   0  0  0  0  0  0  0  0  0  0  0  0
   54.8214  149.9541   24.3613 H   0  0  0  0  0  0  0  0  0  0  0  0
   53.7995  151.2935   23.7086 H   0  0  0  0  0  0  0  0  0  0  0  0
   55.7620  151.4339   26.0454 H   0  0  0  0  0  0  0  0  0  0  0  0
   55.9079  152.2241   24.4230 H   0  0  0  0  0  0  0  0  0  0  0  0
   55.1618  153.8019   26.2315 H   0  0  0  0  0  0  0  0  0  0  0  0
   53.9844  153.6476   24.8879 H   0  0  0  0  0  0  0  0  0  0  0  0
  1  2  1  0
  2  3  1  0
  3  4  2  0
  4  5  1  0
  5  6  1  0
  6  7  1  0
  7  8  1  0
  8  9  2  0
  9 10  1  0
 10 11  2  0
 11 12  1  0
 12 13  1  0
 12 14  2  0
 14 15  1  0
 15 16  2  0
 15 17  1  0
 17 18  1  0
  5 19  2  0
 19 20  1  0
 20 21  2  0
 21 22  1  0
 22 23  1  0
 23 24  1  0
 24 25  1  0
 25 26  1  0
 26 27  1  0
 21  3  1  0
 27 22  1  0
 17  6  2  0
 14  8  1  0
  1 28  1  0
  1 29  1  0
  1 30  1  0
  2 31  1  0
  2 32  1  0
  4 33  1  0
  9 34  1  0
 10 35  1  0
 11 36  1  0
 13 37  1  0
 18 38  1  0
 19 39  1  0
 20 40  1  0
 23 41  1  0
 23 42  1  0
 24 43  1  0
 24 44  1  0
 25 45  1  0
 25 46  1  0
 26 47  1  0
 26 48  1  0
 27 49  1  0
 27 50  1  0
M  END
>  <meeko>  (3) 
{"is_sidechain": [false], "free_energy": -9.671, "intermolecular_energy": -12.872, "internal_energy": 0.777}

$$$$
cand_029_out
     RDKit          3D

 50 53  0  0  0  0  0  0  0  0999 V2000
   51.4950  152.8260   28.7890 C   0  0  0  0  0  0  0  0  0  0  0  0
   52.8160  153.5760   28.8800 C   0  0  0  0  0  0  0  0  0  0  0  0
   52.7100  154.9820   28.3340 C   0  0  0  0  0  0  0  0  0  0  0  0
   52.1830  155.9930   29.1620 C   0  0  0  0  0  0  0  0  0  0  0  0
   52.0360  157.3120   28.7090 C   0  0  0  0  0  0  0  0  0  0  0  0
   51.5060  158.3480   29.6210 C   0  0  0  0  0  0  0  0  0  0  0  0
   50.1630  158.1630   29.9280 O   0  0  0  0  0  0  0  0  0  0  0  0
   49.5430  159.0550   30.7650 C   0  0  0  0  0  0  0  0  0  0  0  0
   48.1980  158.8230   31.0550 C   0  0  0  0  0  0  0  0  0  0  0  0
   47.5070  159.6940   31.8980 C   0  0  0  0  0  0  0  0  0  0  0  0
   48.1600  160.7990   32.4510 C   0  0  0  0  0  0  0  0  0  0  0  0
   49.5030  161.0280   32.1590 C   0  0  0  0  0  0  0  0  0  0  0  0
   50.0790  162.1270   32.7340 O   0  0  0  0  0  0  0  0  0  0  0  0
   50.1930  160.1540   31.3160 C   0  0  0  0  0  0  0  0  0  0  0  0
   51.6040  160.3590   30.9830 C   0  0  0  0  0  0  0  0  0  0  0  0
   52.2450  161.3110   31.4250 O   0  0  0  0  0  0  0  0  0  0  0  0
   52.2470  159.3730   30.0840 C   0  0  0  0  0  0  0  0  0  0  0  0
   53.5760  159.5840   29.7670 O   0  0  0  0  0  0  0  0  0  0  0  0
   52.4420  157.6130   27.4060 C   0  0  0  0  0  0  0  0  0  0  0  0
   52.9580  156.6170   26.5710 C   0  0  0  0  0  0  0  0  0  0  0  0
   53.0920  155.2930   27.0140 C   0  0  0  0  0  0  0  0  0  0  0  0
   53.6120  154.2760   26.1840 N   0  0  0  0  0  0  0  0  0  0  0  0
   52.6170  153.2590   25.8110 C   0  0  0  0  0  0  0  0  0  0  0  0
   53.3340  152.0900   25.1310 C   0  0  0  0  0  0  0  0  0  0  0  0
   54.1510  152.5680   23.9320 C   0  0  0  0  0  0  0  0  0  0  0  0
   55.0990  153.6970   24.3330 C   0  0  0  0  0  0  0  0  0  0  0  0
   54.3500  154.8290   25.0370 C   0  0  0  0  0  0  0  0  0  0  0  0
   51.1228  152.6147   29.8023 H   0  0  0  0  0  0  0  0  0  0  0  0
   50.7602  153.4416   28.2495 H   0  0  0  0  0  0  0  0  0  0  0  0
   51.6471  151.8796   28.2495 H   0  0  0  0  0  0  0  0  0  0  0  0
   53.1229  153.6273   29.9351 H   0  0  0  0  0  0  0  0  0  0  0  0
   53.5567  153.0325   28.2751 H   0  0  0  0  0  0  0  0  0  0  0  0
   51.8794  155.7415   30.1889 H   0  0  0  0  0  0  0  0  0  0  0  0
   47.6829  157.9542   30.6194 H   0  0  0  0  0  0  0  0  0  0  0  0
   46.4470  159.5107   32.1276 H   0  0  0  0  0  0  0  0  0  0  0  0
   47.6151  161.4861   33.1150 H   0  0  0  0  0  0  0  0  0  0  0  0
   50.0220  162.2570   33.6600 H   0  0  0  0  0  0  0  0  0  0  0  0
   54.1820  158.8700   29.7910 H   0  0  0  0  0  0  0  0  0  0  0  0
   52.3547  158.6443   27.0333 H   0  0  0  0  0  0  0  0  0  0  0  0
   53.2647  156.8769   25.5471 H   0  0  0  0  0  0  0  0  0  0  0  0
   52.0995  152.9004   26.7130 H   0  0  0  0  0  0  0  0  0  0  0  0
   51.8787  153.6950   25.1220 H   0  0  0  0  0  0  0  0  0  0  0  0
   54.0077  151.6108   25.8566 H   0  0  0  0  0  0  0  0  0  0  0  0
   52.5771  151.3754   24.7753 H   0  0  0  0  0  0  0  0  0  0  0  0
   54.7397  151.7261   23.5387 H   0  0  0  0  0  0  0  0  0  0  0  0
   53.4599  152.9457   23.1641 H   0  0  0  0  0  0  0  0  0  0  0  0
   55.8649  153.2968   25.0136 H   0  0  0  0  0  0  0  0  0  0  0  0
   55.5615  154.1019   23.4208 H   0  0  0  0  0  0  0  0  0  0  0  0
   55.0689  155.5830   25.3901 H   0  0  0  0  0  0  0  0  0  0  0  0
   53.6463  155.3010   24.3355 H   0  0  0  0  0  0  0  0  0  0  0  0
  1  2  1  0
  2  3  1  0
  3  4  2  0
  4  5  1  0
  5  6  1  0
  6  7  1  0
  7  8  1  0
  8  9  2  0
  9 10  1  0
 10 11  2  0
 11 12  1  0
 12 13  1  0
 12 14  2  0
 14 15  1  0
 15 16  2  0
 15 17  1  0
 17 18  1  0
  5 19  2  0
 19 20  1  0
 20 21  2  0
 21 22  1  0
 22 23  1  0
 23 24  1  0
 24 25  1  0
 25 26  1  0
 26 27  1  0
 21  3  1  0
 27 22  1  0
 17  6  2  0
 14  8  1  0
  1 28  1  0
  1 29  1  0
  1 30  1  0
  2 31  1  0
  2 32  1  0
  4 33  1  0
  9 34  1  0
 10 35  1  0
 11 36  1  0
 13 37  1  0
 18 38  1  0
 19 39  1  0
 20 40  1  0
 23 41  1  0
 23 42  1  0
 24 43  1  0
 24 44  1  0
 25 45  1  0
 25 46  1  0
 26 47  1  0
 26 48  1  0
 27 49  1  0
 27 50  1  0
M  END
>  <meeko>  (4) 
{"is_sidechain": [false], "free_energy": -9.283, "intermolecular_energy": -11.502, "internal_energy": -0.113}

$$$$
cand_029_out
     RDKit          3D

 50 53  0  0  0  0  0  0  0  0999 V2000
   47.4650  158.7580   29.9400 C   0  0  0  0  0  0  0  0  0  0  0  0
   48.4780  158.1820   30.9180 C   0  0  0  0  0  0  0  0  0  0  0  0
   49.8930  158.2790   30.3930 C   0  0  0  0  0  0  0  0  0  0  0  0
   50.4190  157.1980   29.6590 C   0  0  0  0  0  0  0  0  0  0  0  0
   51.7310  157.2140   29.1640 C   0  0  0  0  0  0  0  0  0  0  0  0
   52.2340  156.0710   28.3730 C   0  0  0  0  0  0  0  0  0  0  0  0
   52.8220  156.4600   27.1750 O   0  0  0  0  0  0  0  0  0  0  0  0
   53.3300  155.4980   26.3400 C   0  0  0  0  0  0  0  0  0  0  0  0
   53.9230  155.9340   25.1550 C   0  0  0  0  0  0  0  0  0  0  0  0
   54.4580  155.0060   24.2610 C   0  0  0  0  0  0  0  0  0  0  0  0
   54.4000  153.6410   24.5500 C   0  0  0  0  0  0  0  0  0  0  0  0
   53.8080  153.2080   25.7340 C   0  0  0  0  0  0  0  0  0  0  0  0
   53.7850  151.8570   25.9550 O   0  0  0  0  0  0  0  0  0  0  0  0
   53.2730  154.1380   26.6290 C   0  0  0  0  0  0  0  0  0  0  0  0
   52.6410  153.7250   27.8840 C   0  0  0  0  0  0  0  0  0  0  0  0
   52.5470  152.5430   28.2060 O   0  0  0  0  0  0  0  0  0  0  0  0
   52.1110  154.7900   28.7670 C   0  0  0  0  0  0  0  0  0  0  0  0
   51.5050  154.3870   29.9420 O   0  0  0  0  0  0  0  0  0  0  0  0
   52.5140  158.3470   29.4040 C   0  0  0  0  0  0  0  0  0  0  0  0
   52.0080  159.4230   30.1380 C   0  0  0  0  0  0  0  0  0  0  0  0
   50.7010  159.4050   30.6490 C   0  0  0  0  0  0  0  0  0  0  0  0
   50.1730  160.4840   31.3920 N   0  0  0  0  0  0  0  0  0  0  0  0
   49.0750  161.1830   30.7070 C   0  0  0  0  0  0  0  0  0  0  0  0
   48.7500  162.4660   31.4740 C   0  0  0  0  0  0  0  0  0  0  0  0
   48.4240  162.1670   32.9360 C   0  0  0  0  0  0  0  0  0  0  0  0
   49.5380  161.3490   33.5870 C   0  0  0  0  0  0  0  0  0  0  0  0
   49.8550  160.0930   32.7740 C   0  0  0  0  0  0  0  0  0  0  0  0
   46.6413  159.2264   30.4987 H   0  0  0  0  0  0  0  0  0  0  0  0
   47.9546  159.5128   29.3071 H   0  0  0  0  0  0  0  0  0  0  0  0
   47.0667  157.9513   29.3071 H   0  0  0  0  0  0  0  0  0  0  0  0
   48.4121  158.7373   31.8653 H   0  0  0  0  0  0  0  0  0  0  0  0
   48.2422  157.1174   31.0628 H   0  0  0  0  0  0  0  0  0  0  0  0
   49.7849  156.3194   29.4693 H   0  0  0  0  0  0  0  0  0  0  0  0
   53.9688  157.0088   24.9255 H   0  0  0  0  0  0  0  0  0  0  0  0
   54.9262  155.3501   23.3270 H   0  0  0  0  0  0  0  0  0  0  0  0
   54.8208  152.9096   23.8443 H   0  0  0  0  0  0  0  0  0  0  0  0
   53.3440  151.2920   25.3520 H   0  0  0  0  0  0  0  0  0  0  0  0
   52.0290  154.0930   30.6620 H   0  0  0  0  0  0  0  0  0  0  0  0
   53.5402  158.3920   29.0105 H   0  0  0  0  0  0  0  0  0  0  0  0
   52.6461  160.3006   30.3187 H   0  0  0  0  0  0  0  0  0  0  0  0
   49.3804  161.4337   29.6804 H   0  0  0  0  0  0  0  0  0  0  0  0
   48.1865  160.5356   30.6699 H   0  0  0  0  0  0  0  0  0  0  0  0
   49.6183  163.1400   31.4304 H   0  0  0  0  0  0  0  0  0  0  0  0
   47.8707  162.9365   31.0099 H   0  0  0  0  0  0  0  0  0  0  0  0
   48.3087  163.1158   33.4805 H   0  0  0  0  0  0  0  0  0  0  0  0
   47.4914  161.5850   32.9761 H   0  0  0  0  0  0  0  0  0  0  0  0
   50.4440  161.9690   33.6559 H   0  0  0  0  0  0  0  0  0  0  0  0
   49.2009  161.0386   34.5870 H   0  0  0  0  0  0  0  0  0  0  0  0
   50.7174  159.5742   33.2181 H   0  0  0  0  0  0  0  0  0  0  0  0
   48.9861  159.4185   32.7786 H   0  0  0  0  0  0  0  0  0  0  0  0
  1  2  1  0
  2  3  1  0
  3  4  2  0
  4  5  1  0
  5  6  1  0
  6  7  1  0
  7  8  1  0
  8  9  2  0
  9 10  1  0
 10 11  2  0
 11 12  1  0
 12 13  1  0
 12 14  2  0
 14 15  1  0
 15 16  2  0
 15 17  1  0
 17 18  1  0
  5 19  2  0
 19 20  1  0
 20 21  2  0
 21 22  1  0
 22 23  1  0
 23 24  1  0
 24 25  1  0
 25 26  1  0
 26 27  1  0
 21  3  1  0
 27 22  1  0
 17  6  2  0
 14  8  1  0
  1 28  1  0
  1 29  1  0
  1 30  1  0
  2 31  1  0
  2 32  1  0
  4 33  1  0
  9 34  1  0
 10 35  1  0
 11 36  1  0
 13 37  1  0
 18 38  1  0
 19 39  1  0
 20 40  1  0
 23 41  1  0
 23 42  1  0
 24 43  1  0
 24 44  1  0
 25 45  1  0
 25 46  1  0
 26 47  1  0
 26 48  1  0
 27 49  1  0
 27 50  1  0
M  END
>  <meeko>  (5) 
{"is_sidechain": [false], "free_energy": -9.264, "intermolecular_energy": -12.439, "internal_energy": 0.847}

$$$$
cand_029_out
     RDKit          3D

 50 53  0  0  0  0  0  0  0  0999 V2000
   51.5310  152.5860   28.5910 C   0  0  0  0  0  0  0  0  0  0  0  0
   52.8440  153.3540   28.5880 C   0  0  0  0  0  0  0  0  0  0  0  0
   52.6630  154.7860   28.1360 C   0  0  0  0  0  0  0  0  0  0  0  0
   52.0100  155.6910   28.9950 C   0  0  0  0  0  0  0  0  0  0  0  0
   51.7890  157.0270   28.6270 C   0  0  0  0  0  0  0  0  0  0  0  0
   51.1250  157.9500   29.5710 C   0  0  0  0  0  0  0  0  0  0  0  0
   51.9080  159.0540   29.8880 O   0  0  0  0  0  0  0  0  0  0  0  0
   51.4140  159.9930   30.7570 C   0  0  0  0  0  0  0  0  0  0  0  0
   52.2290  161.0900   31.0370 C   0  0  0  0  0  0  0  0  0  0  0  0
   51.7860  162.0810   31.9150 C   0  0  0  0  0  0  0  0  0  0  0  0
   50.5290  161.9740   32.5140 C   0  0  0  0  0  0  0  0  0  0  0  0
   49.7170  160.8780   32.2340 C   0  0  0  0  0  0  0  0  0  0  0  0
   48.4990  160.8360   32.8550 O   0  0  0  0  0  0  0  0  0  0  0  0
   50.1610  159.8870   31.3540 C   0  0  0  0  0  0  0  0  0  0  0  0
   49.3400  158.7180   31.0320 C   0  0  0  0  0  0  0  0  0  0  0  0
   48.2260  158.5500   31.5240 O   0  0  0  0  0  0  0  0  0  0  0  0
   49.9000  157.7280   30.0830 C   0  0  0  0  0  0  0  0  0  0  0  0
   49.1210  156.6220   29.7980 O   0  0  0  0  0  0  0  0  0  0  0  0
   52.2510  157.4530   27.3790 C   0  0  0  0  0  0  0  0  0  0  0  0
   52.8930  156.5630   26.5130 C   0  0  0  0  0  0  0  0  0  0  0  0
   53.1020  155.2230   26.8700 C   0  0  0  0  0  0  0  0  0  0  0  0
   53.7500  154.3120   26.0080 N   0  0  0  0  0  0  0  0  0  0  0  0
   52.8940  153.1910   25.5900 C   0  0  0  0  0  0  0  0  0  0  0  0
   53.7550  152.1490   24.8740 C   0  0  0  0  0  0  0  0  0  0  0  0
   54.5090  152.7700   23.6990 C   0  0  0  0  0  0  0  0  0  0  0  0
   55.3050  153.9950   24.1490 C   0  0  0  0  0  0  0  0  0  0  0  0
   54.4160  154.9960   24.8880 C   0  0  0  0  0  0  0  0  0  0  0  0
   51.2163  152.4019   29.6288 H   0  0  0  0  0  0  0  0  0  0  0  0
   50.7601  153.1756   28.0732 H   0  0  0  0  0  0  0  0  0  0  0  0
   51.6671  151.6251   28.0732 H   0  0  0  0  0  0  0  0  0  0  0  0
   53.2580  153.3531   29.6071 H   0  0  0  0  0  0  0  0  0  0  0  0
   53.5253  152.8585   27.8807 H   0  0  0  0  0  0  0  0  0  0  0  0
   51.6645  155.3418   29.9792 H   0  0  0  0  0  0  0  0  0  0  0  0
   53.2197  161.1741   30.5665 H   0  0  0  0  0  0  0  0  0  0  0  0
   52.4277  162.9469   32.1352 H   0  0  0  0  0  0  0  0  0  0  0  0
   50.1807  162.7547   33.2063 H   0  0  0  0  0  0  0  0  0  0  0  0
   47.7680  161.2910   32.4850 H   0  0  0  0  0  0  0  0  0  0  0  0
   48.1980  156.6450   29.9590 H   0  0  0  0  0  0  0  0  0  0  0  0
   52.1079  158.5003   27.0746 H   0  0  0  0  0  0  0  0  0  0  0  0
   53.2409  156.9206   25.5327 H   0  0  0  0  0  0  0  0  0  0  0  0
   52.4234  152.7363   26.4742 H   0  0  0  0  0  0  0  0  0  0  0  0
   52.1088  153.5552   24.9111 H   0  0  0  0  0  0  0  0  0  0  0  0
   54.4817  151.7325   25.5870 H   0  0  0  0  0  0  0  0  0  0  0  0
   53.0957  151.3583   24.4866 H   0  0  0  0  0  0  0  0  0  0  0  0
   55.2011  152.0244   23.2805 H   0  0  0  0  0  0  0  0  0  0  0  0
   53.7786  153.0847   22.9391 H   0  0  0  0  0  0  0  0  0  0  0  0
   56.1133  153.6699   24.8206 H   0  0  0  0  0  0  0  0  0  0  0  0
   55.7153  154.4891   23.2559 H   0  0  0  0  0  0  0  0  0  0  0  0
   55.0323  155.8212   25.2742 H   0  0  0  0  0  0  0  0  0  0  0  0
   53.6605  155.4008   24.1985 H   0  0  0  0  0  0  0  0  0  0  0  0
  1  2  1  0
  2  3  1  0
  3  4  2  0
  4  5  1  0
  5  6  1  0
  6  7  1  0
  7  8  1  0
  8  9  2  0
  9 10  1  0
 10 11  2  0
 11 12  1  0
 12 13  1  0
 12 14  2  0
 14 15  1  0
 15 16  2  0
 15 17  1  0
 17 18  1  0
  5 19  2  0
 19 20  1  0
 20 21  2  0
 21 22  1  0
 22 23  1  0
 23 24  1  0
 24 25  1  0
 25 26  1  0
 26 27  1  0
 21  3  1  0
 27 22  1  0
 17  6  2  0
 14  8  1  0
  1 28  1  0
  1 29  1  0
  1 30  1  0
  2 31  1  0
  2 32  1  0
  4 33  1  0
  9 34  1  0
 10 35  1  0
 11 36  1  0
 13 37  1  0
 18 38  1  0
 19 39  1  0
 20 40  1  0
 23 41  1  0
 23 42  1  0
 24 43  1  0
 24 44  1  0
 25 45  1  0
 25 46  1  0
 26 47  1  0
 26 48  1  0
 27 49  1  0
 27 50  1  0
M  END
>  <meeko>  (6) 
{"is_sidechain": [false], "free_energy": -8.57, "intermolecular_energy": -10.715, "internal_energy": -0.021}

$$$$
