cand_047_out
     RDKit          3D

 38 40  0  0  0  0  0  0  0  0999 V2000
   52.2430  161.1560   30.5960 C   0  0  0  0  0  0  0  0  0  0  0  0
   51.3970  159.9240   30.4200 C   0  0  0  0  0  0  0  0  0  0  0  0
   51.9470  158.8170   29.7450 C   0  0  0  0  0  0  0  0  0  0  0  0
   51.2120  157.6400   29.5410 C   0  0  0  0  0  0  0  0  0  0  0  0
   51.7790  156.4850   28.8130 C   0  0  0  0  0  0  0  0  0  0  0  0
   52.3380  156.8380   27.5900 O   0  0  0  0  0  0  0  0  0  0  0  0
   52.9020  155.8610   26.8120 C   0  0  0  0  0  0  0  0  0  0  0  0
   53.4650  156.2610   25.6000 C   0  0  0  0  0  0  0  0  0  0  0  0
   54.0550  155.3150   24.7580 C   0  0  0  0  0  0  0  0  0  0  0  0
   54.0800  153.9690   25.1290 C   0  0  0  0  0  0  0  0  0  0  0  0
   53.5170  153.5710   26.3380 C   0  0  0  0  0  0  0  0  0  0  0  0
   53.5750  152.2380   26.6390 O   0  0  0  0  0  0  0  0  0  0  0  0
   52.9280  154.5190   27.1800 C   0  0  0  0  0  0  0  0  0  0  0  0
   52.3250  154.1430   28.4600 C   0  0  0  0  0  0  0  0  0  0  0  0
   52.3010  152.9780   28.8520 O   0  0  0  0  0  0  0  0  0  0  0  0
   51.7340  155.2240   29.2830 C   0  0  0  0  0  0  0  0  0  0  0  0
   51.1560  154.8570   30.4840 O   0  0  0  0  0  0  0  0  0  0  0  0
   49.8950  157.5890   30.0090 C   0  0  0  0  0  0  0  0  0  0  0  0
   49.3330  158.6810   30.6750 C   0  0  0  0  0  0  0  0  0  0  0  0
   50.0700  159.8570   30.8850 C   0  0  0  0  0  0  0  0  0  0  0  0
   49.4130  160.9940   31.6330 C   0  0  0  0  0  0  0  0  0  0  0  0
   48.6840  160.5160   32.8790 C   0  0  0  0  0  0  0  0  0  0  0  0
   49.5940  159.9720   33.7340 F   0  0  0  0  0  0  0  0  0  0  0  0
   52.3805  161.3562   31.6689 H   0  0  0  0  0  0  0  0  0  0  0  0
   53.2239  160.9978   30.1239 H   0  0  0  0  0  0  0  0  0  0  0  0
   51.7431  162.0146   30.1239 H   0  0  0  0  0  0  0  0  0  0  0  0
   52.9788  158.8770   29.3684 H   0  0  0  0  0  0  0  0  0  0  0  0
   53.4444  157.3211   25.3072 H   0  0  0  0  0  0  0  0  0  0  0  0
   54.4999  155.6305   23.8027 H   0  0  0  0  0  0  0  0  0  0  0  0
   54.5443  153.2239   24.4663 H   0  0  0  0  0  0  0  0  0  0  0  0
   54.3550  151.8760   27.0110 H   0  0  0  0  0  0  0  0  0  0  0  0
   51.2920  153.9950   30.8240 H   0  0  0  0  0  0  0  0  0  0  0  0
   49.2958  156.6802   29.8511 H   0  0  0  0  0  0  0  0  0  0  0  0
   48.2973  158.6182   31.0403 H   0  0  0  0  0  0  0  0  0  0  0  0
   50.1872  161.7165   31.9307 H   0  0  0  0  0  0  0  0  0  0  0  0
   48.6717  161.4550   30.9638 H   0  0  0  0  0  0  0  0  0  0  0  0
   48.1824  161.3665   33.3639 H   0  0  0  0  0  0  0  0  0  0  0  0
   47.9285  159.7643   32.6068 H   0  0  0  0  0  0  0  0  0  0  0  0
  1  2  1  0
  2  3  2  0
  3  4  1  0
  4  5  1  0
  5  6  1  0
  6  7  1  0
  7  8  2  0
  8  9  1  0
  9 10  2  0
 10 11  1  0
 11 12  1  0
 11 13  2  0
 13 14  1  0
 14 15  2  0
 14 16  1  0
 16 17  1  0
  4 18  2  0
 18 19  1  0
 19 20  2  0
 20 21  1  0
 21 22  1  0
 22 23  1  0
 20  2  1  0
 16  5  2  0
 13  7  1  0
  1 24  1  0
  1 25  1  0
  1 26  1  0
  3 27  1  0
  8 28  1  0
  9 29  1  0
 10 30  1  0
 12 31  1  0
 17 32  1  0
 18 33  1  0
 19 34  1  0
 21 35  1  0
 21 36  1  0
 22 37  1  0
 22 38  1  0
M  END
>  <meeko>  (1) 
{"is_sidechain": [false], "free_energy": -10.696, "intermolecular_energy": -13.197, "internal_energy": -0.295}

$$$$
cand_047_out
     RDKit          3D

 38 40  0  0  0  0  0  0  0  0999 V2000
   48.0070  158.8890   31.2730 C   0  0  0  0  0  0  0  0  0  0  0  0
   49.4200  158.9300   30.7580 C   0  0  0  0  0  0  0  0  0  0  0  0
   49.9230  157.8060   30.0750 C   0  0  0  0  0  0  0  0  0  0  0  0
   51.2330  157.7740   29.5740 C   0  0  0  0  0  0  0  0  0  0  0  0
   51.7700  156.5870   28.8750 C   0  0  0  0  0  0  0  0  0  0  0  0
   52.3400  156.8950   27.6450 O   0  0  0  0  0  0  0  0  0  0  0  0
   52.8790  155.8840   26.8930 C   0  0  0  0  0  0  0  0  0  0  0  0
   53.4530  156.2400   25.6720 C   0  0  0  0  0  0  0  0  0  0  0  0
   54.0190  155.2580   24.8550 C   0  0  0  0  0  0  0  0  0  0  0  0
   54.0080  153.9210   25.2580 C   0  0  0  0  0  0  0  0  0  0  0  0
   53.4330  153.5680   26.4760 C   0  0  0  0  0  0  0  0  0  0  0  0
   53.4550  152.2420   26.8090 O   0  0  0  0  0  0  0  0  0  0  0  0
   52.8690  154.5520   27.2930 C   0  0  0  0  0  0  0  0  0  0  0  0
   52.2540  154.2230   28.5810 C   0  0  0  0  0  0  0  0  0  0  0  0
   52.1990  153.0690   29.0010 O   0  0  0  0  0  0  0  0  0  0  0  0
   51.6920  155.3400   29.3760 C   0  0  0  0  0  0  0  0  0  0  0  0
   51.1020  155.0170   30.5840 O   0  0  0  0  0  0  0  0  0  0  0  0
   52.0520  158.8870   29.7850 C   0  0  0  0  0  0  0  0  0  0  0  0
   51.5700  160.0080   30.4660 C   0  0  0  0  0  0  0  0  0  0  0  0
   50.2570  160.0430   30.9630 C   0  0  0  0  0  0  0  0  0  0  0  0
   49.7890  161.2930   31.6700 C   0  0  0  0  0  0  0  0  0  0  0  0
   50.1500  161.2860   33.1470 C   0  0  0  0  0  0  0  0  0  0  0  0
   49.3320  160.4090   33.7910 F   0  0  0  0  0  0  0  0  0  0  0  0
   48.0175  158.8893   32.3730 H   0  0  0  0  0  0  0  0  0  0  0  0
   47.4592  159.7716   30.9113 H   0  0  0  0  0  0  0  0  0  0  0  0
   47.5112  157.9761   30.9113 H   0  0  0  0  0  0  0  0  0  0  0  0
   49.2723  156.9309   29.9306 H   0  0  0  0  0  0  0  0  0  0  0  0
   53.4599  157.2927   25.3530 H   0  0  0  0  0  0  0  0  0  0  0  0
   54.4737  155.5383   23.8934 H   0  0  0  0  0  0  0  0  0  0  0  0
   54.4529  153.1479   24.6142 H   0  0  0  0  0  0  0  0  0  0  0  0
   53.1450  151.6010   26.1990 H   0  0  0  0  0  0  0  0  0  0  0  0
   51.5840  155.1190   31.3810 H   0  0  0  0  0  0  0  0  0  0  0  0
   53.0865  158.8803   29.4111 H   0  0  0  0  0  0  0  0  0  0  0  0
   52.2290  160.8761   30.6150 H   0  0  0  0  0  0  0  0  0  0  0  0
   50.2593  162.1663   31.1944 H   0  0  0  0  0  0  0  0  0  0  0  0
   48.6927  161.3361   31.5902 H   0  0  0  0  0  0  0  0  0  0  0  0
   51.1977  160.9745   33.2707 H   0  0  0  0  0  0  0  0  0  0  0  0
   50.0253  162.2943   33.5686 H   0  0  0  0  0  0  0  0  0  0  0  0
  1  2  1  0
  2  3  2  0
  3  4  1  0
  4  5  1  0
  5  6  1  0
  6  7  1  0
  7  8  2  0
  8  9  1  0
  9 10  2  0
 10 11  1  0
 11 12  1  0
 11 13  2  0
 13 14  1  0
 14 15  2  0
 14 16  1  0
 16 17  1  0
  4 18  2  0
 18 19  1  0
 19 20  2  0
 20 21  1  0
 21 22  1  0
 22 23  1  0
 20  2  1  0
 16  5  2  0
 13  7  1  0
  1 24  1  0
  1 25  1  0
  1 26  1  0
  3 27  1  0
  8 28  1  0
  9 29  1  0
 10 30  1  0
 12 31  1  0
 17 32  1  0
 18 33  1  0
 19 34  1  0
 21 35  1  0
 21 36  1  0
 22 37  1  0
 22 38  1  0
M  END
>  <meeko>  (2) 
{"is_sidechain": [false], "free_energy": -10.401, "intermolecular_energy": -12.809, "internal_energy": -0.318}

$$$$
cand_047_out
     RDKit          3D

 38 40  0  0  0  0  0  0  0  0999 V2000
   53.5890  156.1350   25.7110 C   0  0  0  0  0  0  0  0  0  0  0  0
   52.8590  155.9150   27.0080 C   0  0  0  0  0  0  0  0  0  0  0  0
   52.4320  157.0390   27.7430 C   0  0  0  0  0  0  0  0  0  0  0  0
   51.7520  156.9060   28.9620 C   0  0  0  0  0  0  0  0  0  0  0  0
   51.3230  158.0840   29.7450 C   0  0  0  0  0  0  0  0  0  0  0  0
   49.9880  158.0220   30.1280 O   0  0  0  0  0  0  0  0  0  0  0  0
   49.4600  159.0520   30.8620 C   0  0  0  0  0  0  0  0  0  0  0  0
   48.1200  158.9410   31.2370 C   0  0  0  0  0  0  0  0  0  0  0  0
   47.5190  159.9570   31.9850 C   0  0  0  0  0  0  0  0  0  0  0  0
   48.2570  161.0830   32.3560 C   0  0  0  0  0  0  0  0  0  0  0  0
   49.5930  161.1920   31.9790 C   0  0  0  0  0  0  0  0  0  0  0  0
   50.2570  162.3210   32.3740 O   0  0  0  0  0  0  0  0  0  0  0  0
   50.1940  160.1740   31.2320 C   0  0  0  0  0  0  0  0  0  0  0  0
   51.5960  160.2500   30.8160 C   0  0  0  0  0  0  0  0  0  0  0  0
   52.3080  161.2110   31.0960 O   0  0  0  0  0  0  0  0  0  0  0  0
   52.1390  159.1150   30.0340 C   0  0  0  0  0  0  0  0  0  0  0  0
   53.4610  159.2020   29.6340 O   0  0  0  0  0  0  0  0  0  0  0  0
   51.5190  155.6200   29.4570 C   0  0  0  0  0  0  0  0  0  0  0  0
   51.9410  154.4950   28.7440 C   0  0  0  0  0  0  0  0  0  0  0  0
   52.6170  154.6260   27.5200 C   0  0  0  0  0  0  0  0  0  0  0  0
   53.0270  153.3710   26.7860 C   0  0  0  0  0  0  0  0  0  0  0  0
   51.9140  152.3360   26.7530 C   0  0  0  0  0  0  0  0  0  0  0  0
   52.4420  151.1400   26.3700 F   0  0  0  0  0  0  0  0  0  0  0  0
   54.6229  156.4466   25.9205 H   0  0  0  0  0  0  0  0  0  0  0  0
   53.5981  155.1997   25.1321 H   0  0  0  0  0  0  0  0  0  0  0  0
   53.0797  156.9196   25.1321 H   0  0  0  0  0  0  0  0  0  0  0  0
   52.6373  158.0459   27.3506 H   0  0  0  0  0  0  0  0  0  0  0  0
   47.5378  158.0548   30.9441 H   0  0  0  0  0  0  0  0  0  0  0  0
   46.4634  159.8697   32.2819 H   0  0  0  0  0  0  0  0  0  0  0  0
   47.7837  161.8824   32.9450 H   0  0  0  0  0  0  0  0  0  0  0  0
   49.8190  162.9610   32.9000 H   0  0  0  0  0  0  0  0  0  0  0  0
   54.0430  159.7930   30.0690 H   0  0  0  0  0  0  0  0  0  0  0  0
   50.9982  155.4922   30.4175 H   0  0  0  0  0  0  0  0  0  0  0  0
   51.7407  153.4915   29.1475 H   0  0  0  0  0  0  0  0  0  0  0  0
   53.2948  153.6364   25.7526 H   0  0  0  0  0  0  0  0  0  0  0  0
   53.8818  152.9310   27.3205 H   0  0  0  0  0  0  0  0  0  0  0  0
   51.4676  152.2402   27.7538 H   0  0  0  0  0  0  0  0  0  0  0  0
   51.1339  152.6465   26.0423 H   0  0  0  0  0  0  0  0  0  0  0  0
  1  2  1  0
  2  3  2  0
  3  4  1  0
  4  5  1  0
  5  6  1  0
  6  7  1  0
  7  8  2  0
  8  9  1  0
  9 10  2  0
 10 11  1  0
 11 12  1  0
 11 13  2  0
 13 14  1  0
 14 15  2  0
 14 16  1  0
 16 17  1  0
  4 18  2  0
 18 19  1  0
 19 20  2  0
 20 21  1  0
 21 22  1  0
 22 23  1  0
 20  2  1  0
 16  5  2  0
 13  7  1  0
  1 24  1  0
  1 25  1  0
  1 26  1  0
  3 27  1  0
  8 28  1  0
  9 29  1  0
 10 30  1  0
 12 31  1  0
 17 32  1  0
 18 33  1  0
 19 34  1  0
 21 35  1  0
 21 36  1  0
 22 37  1  0
 22 38  1  0
M  END
>  <meeko>  (3) 
{"is_sidechain": [false], "free_energy": -9.775, "intermolecular_energy": -12.19, "internal_energy": -0.166}

$$$$
cand_047_out
     RDKit          3D

 38 40  0  0  0  0  0  0  0  0999 V2000
   51.8560  153.3080   28.8130 C   0  0  0  0  0  0  0  0  0  0  0  0
   52.1390  154.7210   28.3830 C   0  0  0  0  0  0  0  0  0  0  0  0
   51.6990  155.7780   29.2030 C   0  0  0  0  0  0  0  0  0  0  0  0
   51.9240  157.1190   28.8590 C   0  0  0  0  0  0  0  0  0  0  0  0
   51.4440  158.2310   29.7070 C   0  0  0  0  0  0  0  0  0  0  0  0
   50.1030  158.1080   30.0520 O   0  0  0  0  0  0  0  0  0  0  0  0
   49.5300  159.0720   30.8400 C   0  0  0  0  0  0  0  0  0  0  0  0
   48.1860  158.9010   31.1750 C   0  0  0  0  0  0  0  0  0  0  0  0
   47.5400  159.8480   31.9730 C   0  0  0  0  0  0  0  0  0  0  0  0
   48.2380  160.9670   32.4340 C   0  0  0  0  0  0  0  0  0  0  0  0
   49.5780  161.1360   32.0980 C   0  0  0  0  0  0  0  0  0  0  0  0
   50.2000  162.2540   32.5820 O   0  0  0  0  0  0  0  0  0  0  0  0
   50.2240  160.1870   31.3000 C   0  0  0  0  0  0  0  0  0  0  0  0
   51.6320  160.3270   30.9240 C   0  0  0  0  0  0  0  0  0  0  0  0
   52.3100  161.2870   31.2840 O   0  0  0  0  0  0  0  0  0  0  0  0
   52.2250  159.2620   30.0820 C   0  0  0  0  0  0  0  0  0  0  0  0
   53.5510  159.4100   29.7210 O   0  0  0  0  0  0  0  0  0  0  0  0
   52.5850  157.3960   27.6590 C   0  0  0  0  0  0  0  0  0  0  0  0
   53.0230  156.3590   26.8300 C   0  0  0  0  0  0  0  0  0  0  0  0
   52.8030  155.0160   27.1770 C   0  0  0  0  0  0  0  0  0  0  0  0
   53.3210  153.9400   26.2510 C   0  0  0  0  0  0  0  0  0  0  0  0
   53.9550  154.5190   24.9960 C   0  0  0  0  0  0  0  0  0  0  0  0
   53.3690  153.9480   23.9080 F   0  0  0  0  0  0  0  0  0  0  0  0
   51.8452  153.2543   29.9116 H   0  0  0  0  0  0  0  0  0  0  0  0
   50.8772  152.9945   28.4209 H   0  0  0  0  0  0  0  0  0  0  0  0
   52.6385  152.6417   28.4209 H   0  0  0  0  0  0  0  0  0  0  0  0
   51.1655  155.5461   30.1366 H   0  0  0  0  0  0  0  0  0  0  0  0
   47.6358  158.0209   30.8108 H   0  0  0  0  0  0  0  0  0  0  0  0
   46.4812  159.7127   32.2386 H   0  0  0  0  0  0  0  0  0  0  0  0
   47.7292  161.7134   33.0617 H   0  0  0  0  0  0  0  0  0  0  0  0
   50.2060  163.0430   32.0750 H   0  0  0  0  0  0  0  0  0  0  0  0
   54.1710  158.7400   29.9310 H   0  0  0  0  0  0  0  0  0  0  0  0
   52.7624  158.4407   27.3638 H   0  0  0  0  0  0  0  0  0  0  0  0
   53.5472  156.5982   25.8930 H   0  0  0  0  0  0  0  0  0  0  0  0
   54.0751  153.3446   26.7865 H   0  0  0  0  0  0  0  0  0  0  0  0
   52.4666  153.3197   25.9425 H   0  0  0  0  0  0  0  0  0  0  0  0
   53.7999  155.6077   24.9714 H   0  0  0  0  0  0  0  0  0  0  0  0
   55.0353  154.3118   24.9919 H   0  0  0  0  0  0  0  0  0  0  0  0
  1  2  1  0
  2  3  2  0
  3  4  1  0
  4  5  1  0
  5  6  1  0
  6  7  1  0
  7  8  2  0
  8  9  1  0
  9 10  2  0
 10 11  1  0
 11 12  1  0
 11 13  2  0
 13 14  1  0
 14 15  2  0
 14 16  1  0
 16 17  1  0
  4 18  2  0
 18 19  1  0
 19 20  2  0
 20 21  1  0
 21 22  1  0
 22 23  1  0
 20  2  1  0
 16  5  2  0
 13  7  1  0
  1 24  1  0
  1 25  1  0
  1 26  1  0
  3 27  1  0
  8 28  1  0
  9 29  1  0
 10 30  1  0
 12 31  1  0
 17 32  1  0
 18 33  1  0
 19 34  1  0
 21 35  1  0
 21 36  1  0
 22 37  1  0
 22 38  1  0
M  END
>  <meeko>  (4) 
{"is_sidechain": [false], "free_energy": -9.254, "intermolecular_energy": -11.534, "internal_energy": -0.179}

$$$$
cand_047_out
     RDKit          3D

 38 40  0  0  0  0  0  0  0  0999 V2000
   53.7590  155.8340   25.5160 C   0  0  0  0  0  0  0  0  0  0  0  0
   53.0030  155.4950   26.7710 C   0  0  0  0  0  0  0  0  0  0  0  0
   52.3960  156.5380   27.4980 C   0  0  0  0  0  0  0  0  0  0  0  0
   51.6810  156.2920   28.6800 C   0  0  0  0  0  0  0  0  0  0  0  0
   51.0620  157.3880   29.4560 C   0  0  0  0  0  0  0  0  0  0  0  0
   51.9470  158.4240   29.7300 O   0  0  0  0  0  0  0  0  0  0  0  0
   51.5000  159.5060   30.4430 C   0  0  0  0  0  0  0  0  0  0  0  0
   52.4180  160.5300   30.6830 C   0  0  0  0  0  0  0  0  0  0  0  0
   52.0290  161.6610   31.4040 C   0  0  0  0  0  0  0  0  0  0  0  0
   50.7230  161.7670   31.8880 C   0  0  0  0  0  0  0  0  0  0  0  0
   49.8090  160.7440   31.6480 C   0  0  0  0  0  0  0  0  0  0  0  0
   48.5480  160.9110   32.1510 O   0  0  0  0  0  0  0  0  0  0  0  0
   50.2000  159.6130   30.9240 C   0  0  0  0  0  0  0  0  0  0  0  0
   49.2700  158.5150   30.6510 C   0  0  0  0  0  0  0  0  0  0  0  0
   48.1080  158.5320   31.0490 O   0  0  0  0  0  0  0  0  0  0  0  0
   49.7800  157.3660   29.8680 C   0  0  0  0  0  0  0  0  0  0  0  0
   48.8990  156.3280   29.6260 O   0  0  0  0  0  0  0  0  0  0  0  0
   51.5970  154.9770   29.1450 C   0  0  0  0  0  0  0  0  0  0  0  0
   52.1980  153.9310   28.4390 C   0  0  0  0  0  0  0  0  0  0  0  0
   52.9090  154.1750   27.2530 C   0  0  0  0  0  0  0  0  0  0  0  0
   53.5170  152.9990   26.5240 C   0  0  0  0  0  0  0  0  0  0  0  0
   52.5080  151.8870   26.2870 C   0  0  0  0  0  0  0  0  0  0  0  0
   53.1290  150.8700   25.6280 F   0  0  0  0  0  0  0  0  0  0  0  0
   54.7331  156.2708   25.7814 H   0  0  0  0  0  0  0  0  0  0  0  0
   53.9160  154.9201   24.9243 H   0  0  0  0  0  0  0  0  0  0  0  0
   53.1810  156.5591   24.9243 H   0  0  0  0  0  0  0  0  0  0  0  0
   52.4848  157.5708   27.1299 H   0  0  0  0  0  0  0  0  0  0  0  0
   53.4474  160.4460   30.3043 H   0  0  0  0  0  0  0  0  0  0  0  0
   52.7516  162.4690   31.5909 H   0  0  0  0  0  0  0  0  0  0  0  0
   50.4170  162.6569   32.4577 H   0  0  0  0  0  0  0  0  0  0  0  0
   48.3840  161.5760   32.7910 H   0  0  0  0  0  0  0  0  0  0  0  0
   48.3490  156.3490   28.8680 H   0  0  0  0  0  0  0  0  0  0  0  0
   51.0523  154.7628   30.0763 H   0  0  0  0  0  0  0  0  0  0  0  0
   52.1128  152.9019   28.8180 H   0  0  0  0  0  0  0  0  0  0  0  0
   53.8992  153.3438   25.5519 H   0  0  0  0  0  0  0  0  0  0  0  0
   54.3252  152.5940   27.1508 H   0  0  0  0  0  0  0  0  0  0  0  0
   52.1237  151.5235   27.2515 H   0  0  0  0  0  0  0  0  0  0  0  0
   51.6665  152.2646   25.6876 H   0  0  0  0  0  0  0  0  0  0  0  0
  1  2  1  0
  2  3  2  0
  3  4  1  0
  4  5  1  0
  5  6  1  0
  6  7  1  0
  7  8  2  0
  8  9  1  0
  9 10  2  0
 10 11  1  0
 11 12  1  0
 11 13  2  0
 13 14  1  0
 14 15  2  0
 14 16  1  0
 16 17  1  0
  4 18  2  0
 18 19  1  0
 19 20  2  0
 20 21  1  0
 21 22  1  0
 22 23  1  0
 20  2  1  0
 16  5  2  0
 13  7  1  0
  1 24  1  0
  1 25  1  0
  1 26  1  0
  3 27  1  0
  8 28  1  0
  9 29  1  0
 10 30  1  0
 12 31  1  0
 17 32  1  0
 18 33  1  0
 19 34  1  0
 21 35  1  0
 21 36  1  0
 22 37  1  0
 22 38  1  0
M  END
>  <meeko>  (5) 
{"is_sidechain": [false], "free_energy": -8.864, "intermolecular_energy": -11.065, "internal_energy": -0.167}

$$$$
cand_047_out
     RDKit          3D

 38 40  0  0  0  0  0  0  0  0999 V2000
   51.8360  159.7200   30.2030 C   0  0  0  0  0  0  0  0  0  0  0  0
   51.2570  158.3770   29.8500 C   0  0  0  0  0  0  0  0  0  0  0  0
   51.9600  157.5550   28.9470 C   0  0  0  0  0  0  0  0  0  0  0  0
   51.4750  156.2940   28.5700 C   0  0  0  0  0  0  0  0  0  0  0  0
   52.2000  155.4380   27.6060 C   0  0  0  0  0  0  0  0  0  0  0  0
   51.8490  154.0970   27.7030 O   0  0  0  0  0  0  0  0  0  0  0  0
   52.4460  153.1930   26.8640 C   0  0  0  0  0  0  0  0  0  0  0  0
   52.0530  151.8590   26.9850 C   0  0  0  0  0  0  0  0  0  0  0  0
   52.6240  150.8860   26.1610 C   0  0  0  0  0  0  0  0  0  0  0  0
   53.5900  151.2470   25.2190 C   0  0  0  0  0  0  0  0  0  0  0  0
   53.9820  152.5770   25.1000 C   0  0  0  0  0  0  0  0  0  0  0  0
   54.9320  152.8610   24.1590 O   0  0  0  0  0  0  0  0  0  0  0  0
   53.4080  153.5500   25.9240 C   0  0  0  0  0  0  0  0  0  0  0  0
   53.7920  154.9600   25.8330 C   0  0  0  0  0  0  0  0  0  0  0  0
   54.6400  155.3540   25.0340 O   0  0  0  0  0  0  0  0  0  0  0  0
   53.1190  155.9140   26.7450 C   0  0  0  0  0  0  0  0  0  0  0  0
   53.4980  157.2410   26.6600 O   0  0  0  0  0  0  0  0  0  0  0  0
   50.2530  155.8660   29.0960 C   0  0  0  0  0  0  0  0  0  0  0  0
   49.5400  156.6730   29.9880 C   0  0  0  0  0  0  0  0  0  0  0  0
   50.0270  157.9320   30.3710 C   0  0  0  0  0  0  0  0  0  0  0  0
   49.2210  158.7460   31.3560 C   0  0  0  0  0  0  0  0  0  0  0  0
   48.0530  159.4570   30.6930 C   0  0  0  0  0  0  0  0  0  0  0  0
   48.5250  160.5530   30.0360 F   0  0  0  0  0  0  0  0  0  0  0  0
   51.8808  159.8239   31.2972 H   0  0  0  0  0  0  0  0  0  0  0  0
   52.8500  159.8035   29.7850 H   0  0  0  0  0  0  0  0  0  0  0  0
   51.2005  160.5146   29.7850 H   0  0  0  0  0  0  0  0  0  0  0  0
   52.9125  157.9109   28.5274 H   0  0  0  0  0  0  0  0  0  0  0  0
   51.2942  151.5741   27.7287 H   0  0  0  0  0  0  0  0  0  0  0  0
   52.3127  149.8351   26.2541 H   0  0  0  0  0  0  0  0  0  0  0  0
   54.0407  150.4804   24.5715 H   0  0  0  0  0  0  0  0  0  0  0  0
   54.9420  152.3900   23.3480 H   0  0  0  0  0  0  0  0  0  0  0  0
   53.2980  157.8300   27.3600 H   0  0  0  0  0  0  0  0  0  0  0  0
   49.8483  154.8852   28.8056 H   0  0  0  0  0  0  0  0  0  0  0  0
   48.5829  156.3155   30.3956 H   0  0  0  0  0  0  0  0  0  0  0  0
   48.8309  158.0745   32.1351 H   0  0  0  0  0  0  0  0  0  0  0  0
   49.8843  159.5124   31.7834 H   0  0  0  0  0  0  0  0  0  0  0  0
   47.5644  158.7787   29.9780 H   0  0  0  0  0  0  0  0  0  0  0  0
   47.3197  159.7629   31.4537 H   0  0  0  0  0  0  0  0  0  0  0  0
  1  2  1  0
  2  3  2  0
  3  4  1  0
  4  5  1  0
  5  6  1  0
  6  7  1  0
  7  8  2  0
  8  9  1  0
  9 10  2  0
 10 11  1  0
 11 12  1  0
 11 13  2  0
 13 14  1  0
 14 15  2  0
 14 16  1  0
 16 17  1  0
  4 18  2  0
 18 19  1  0
 19 20  2  0
 20 21  1  0
 21 22  1  0
 22 23  1  0
 20  2  1  0
 16  5  2  0
 13  7  1  0
  1 24  1  0
  1 25  1  0
  1 26  1  0
  3 27  1  0
  8 28  1  0
  9 29  1  0
 10 30  1  0
 12 31  1  0
 17 32  1  0
 18 33  1  0
 19 34  1  0
 21 35  1  0
 21 36  1  0
 22 37  1  0
 22 38  1  0
M  END
>  <meeko>  (6) 
{"is_sidechain": [false], "free_energy": -8.487, "intermolecular_energy": -10.737, "internal_energy": -0.03}

$$$$
cand_047_out
     RDKit          3D

 38 40  0  0  0  0  0  0  0  0999 V2000
   51.8880  152.8130   28.2320 C   0  0  0  0  0  0  0  0  0  0  0  0
   52.1760  154.2660   27.9640 C   0  0  0  0  0  0  0  0  0  0  0  0
   51.5800  155.2370   28.7920 C   0  0  0  0  0  0  0  0  0  0  0  0
   51.8010  156.6080   28.5950 C   0  0  0  0  0  0  0  0  0  0  0  0
   51.1580  157.6290   29.4490 C   0  0  0  0  0  0  0  0  0  0  0  0
   51.9960  158.7030   29.7320 O   0  0  0  0  0  0  0  0  0  0  0  0
   51.5230  159.7240   30.5140 C   0  0  0  0  0  0  0  0  0  0  0  0
   52.3920  160.7880   30.7590 C   0  0  0  0  0  0  0  0  0  0  0  0
   51.9740  161.8610   31.5510 C   0  0  0  0  0  0  0  0  0  0  0  0
   50.6900  161.8680   32.0970 C   0  0  0  0  0  0  0  0  0  0  0  0
   49.8250  160.8050   31.8520 C   0  0  0  0  0  0  0  0  0  0  0  0
   48.5820  160.8750   32.4190 O   0  0  0  0  0  0  0  0  0  0  0  0
   50.2430  159.7330   31.0590 C   0  0  0  0  0  0  0  0  0  0  0  0
   49.3660  158.5950   30.7770 C   0  0  0  0  0  0  0  0  0  0  0  0
   48.2250  158.5250   31.2280 O   0  0  0  0  0  0  0  0  0  0  0  0
   49.9020  157.5140   29.9180 C   0  0  0  0  0  0  0  0  0  0  0  0
   49.0700  156.4380   29.6680 O   0  0  0  0  0  0  0  0  0  0  0  0
   52.6200  157.0040   27.5340 C   0  0  0  0  0  0  0  0  0  0  0  0
   53.2140  156.0530   26.6990 C   0  0  0  0  0  0  0  0  0  0  0  0
   52.9990  154.6800   26.9000 C   0  0  0  0  0  0  0  0  0  0  0  0
   53.6890  153.7020   25.9770 C   0  0  0  0  0  0  0  0  0  0  0  0
   53.4860  154.0540   24.5120 C   0  0  0  0  0  0  0  0  0  0  0  0
   53.7520  152.9510   23.7590 F   0  0  0  0  0  0  0  0  0  0  0  0
   51.8537  152.6402   29.3178 H   0  0  0  0  0  0  0  0  0  0  0  0
   50.9189  152.5431   27.7870 H   0  0  0  0  0  0  0  0  0  0  0  0
   52.6809  152.1939   27.7870 H   0  0  0  0  0  0  0  0  0  0  0  0
   50.9248  154.9120   29.6137 H   0  0  0  0  0  0  0  0  0  0  0  0
   53.4046  160.7822   30.3294 H   0  0  0  0  0  0  0  0  0  0  0  0
   52.6578  162.7007   31.7441 H   0  0  0  0  0  0  0  0  0  0  0  0
   50.3615  162.7126   32.7204 H   0  0  0  0  0  0  0  0  0  0  0  0
   47.8340  161.0620   31.8850 H   0  0  0  0  0  0  0  0  0  0  0  0
   49.3940  155.6960   29.1970 H   0  0  0  0  0  0  0  0  0  0  0  0
   52.7990  158.0743   27.3542 H   0  0  0  0  0  0  0  0  0  0  0  0
   53.8593  156.3852   25.8724 H   0  0  0  0  0  0  0  0  0  0  0  0
   54.7668  153.7076   26.1966 H   0  0  0  0  0  0  0  0  0  0  0  0
   53.2505  152.7080   26.1494 H   0  0  0  0  0  0  0  0  0  0  0  0
   52.4460  154.3725   24.3481 H   0  0  0  0  0  0  0  0  0  0  0  0
   54.1595  154.8754   24.2262 H   0  0  0  0  0  0  0  0  0  0  0  0
  1  2  1  0
  2  3  2  0
  3  4  1  0
  4  5  1  0
  5  6  1  0
  6  7  1  0
  7  8  2  0
  8  9  1  0
  9 10  2  0
 10 11  1  0
 11 12  1  0
 11 13  2  0
 13 14  1  0
 14 15  2  0
 14 16  1  0
 16 17  1  0
  4 18  2  0
 18 19  1  0
 19 20  2  0
 20 21  1  0
 21 22  1  0
 22 23  1  0
 20  2  1  0
 16  5  2  0
 13  7  1  0
  1 24  1  0
  1 25  1  0
  1 26  1  0
  3 27  1  0
  8 28  1  0
  9 29  1  0
 10 30  1  0
 12 31  1  0
 17 32  1  0
 18 33  1  0
 19 34  1  0
 21 35  1  0
 21 36  1  0
 22 37  1  0
 22 38  1  0
M  END
>  <meeko>  (7) 
{"is_sidechain": [false], "free_energy": -8.44, "intermolecular_energy": -10.68, "internal_energy": -0.029}

$$$$
cand_047_out
     RDKit          3D

 38 40  0  0  0  0  0  0  0  0999 V2000
   48.9390  157.2280   30.3620 C   0  0  0  0  0  0  0  0  0  0  0  0
   50.3020  157.3930   29.7470 C   0  0  0  0  0  0  0  0  0  0  0  0
   50.7680  156.4040   28.8600 C   0  0  0  0  0  0  0  0  0  0  0  0
   52.0310  156.4920   28.2570 C   0  0  0  0  0  0  0  0  0  0  0  0
   52.5310  155.4440   27.3420 C   0  0  0  0  0  0  0  0  0  0  0  0
   52.0800  154.1730   27.6780 O   0  0  0  0  0  0  0  0  0  0  0  0
   52.4680  153.1070   26.9090 C   0  0  0  0  0  0  0  0  0  0  0  0
   51.9790  151.8510   27.2730 C   0  0  0  0  0  0  0  0  0  0  0  0
   52.3380  150.7220   26.5330 C   0  0  0  0  0  0  0  0  0  0  0  0
   53.1860  150.8480   25.4310 C   0  0  0  0  0  0  0  0  0  0  0  0
   53.6740  152.1010   25.0700 C   0  0  0  0  0  0  0  0  0  0  0  0
   54.5010  152.1540   23.9820 O   0  0  0  0  0  0  0  0  0  0  0  0
   53.3130  153.2310   25.8110 C   0  0  0  0  0  0  0  0  0  0  0  0
   53.8040  154.5670   25.4660 C   0  0  0  0  0  0  0  0  0  0  0  0
   54.5590  154.7580   24.5150 O   0  0  0  0  0  0  0  0  0  0  0  0
   53.3560  155.6990   26.3090 C   0  0  0  0  0  0  0  0  0  0  0  0
   53.8350  156.9550   25.9820 O   0  0  0  0  0  0  0  0  0  0  0  0
   52.8430  157.5860   28.5710 C   0  0  0  0  0  0  0  0  0  0  0  0
   52.3980  158.5740   29.4540 C   0  0  0  0  0  0  0  0  0  0  0  0
   51.1310  158.4890   30.0530 C   0  0  0  0  0  0  0  0  0  0  0  0
   50.6990  159.6010   30.9810 C   0  0  0  0  0  0  0  0  0  0  0  0
   50.1820  160.8130   30.2230 C   0  0  0  0  0  0  0  0  0  0  0  0
   49.5970  160.3880   29.0690 F   0  0  0  0  0  0  0  0  0  0  0  0
   49.0277  157.2387   31.4584 H   0  0  0  0  0  0  0  0  0  0  0  0
   48.2884  158.0539   30.0387 H   0  0  0  0  0  0  0  0  0  0  0  0
   48.5043  156.2707   30.0387 H   0  0  0  0  0  0  0  0  0  0  0  0
   50.1252  155.5404   28.6343 H   0  0  0  0  0  0  0  0  0  0  0  0
   51.3117  151.7506   28.1417 H   0  0  0  0  0  0  0  0  0  0  0  0
   51.9521  149.7324   26.8188 H   0  0  0  0  0  0  0  0  0  0  0  0
   53.4682  149.9584   24.8487 H   0  0  0  0  0  0  0  0  0  0  0  0
   54.1540  152.0050   23.1240 H   0  0  0  0  0  0  0  0  0  0  0  0
   54.4810  157.3640   26.5230 H   0  0  0  0  0  0  0  0  0  0  0  0
   53.8421  157.6701   28.1186 H   0  0  0  0  0  0  0  0  0  0  0  0
   53.0496  159.4302   29.6828 H   0  0  0  0  0  0  0  0  0  0  0  0
   49.8992  159.2252   31.6360 H   0  0  0  0  0  0  0  0  0  0  0  0
   51.5779  159.9161   31.5627 H   0  0  0  0  0  0  0  0  0  0  0  0
   49.4428  161.3469   30.8382 H   0  0  0  0  0  0  0  0  0  0  0  0
   51.0140  161.4948   29.9930 H   0  0  0  0  0  0  0  0  0  0  0  0
  1  2  1  0
  2  3  2  0
  3  4  1  0
  4  5  1  0
  5  6  1  0
  6  7  1  0
  7  8  2  0
  8  9  1  0
  9 10  2  0
 10 11  1  0
 11 12  1  0
 11 13  2  0
 13 14  1  0
 14 15  2  0
 14 16  1  0
 16 17  1  0
  4 18  2  0
 18 19  1  0
 19 20  2  0
 20 21  1  0
 21 22  1  0
 22 23  1  0
 20  2  1  0
 16  5  2  0
 13  7  1  0
  1 24  1  0
  1 25  1  0
  1 26  1  0
  3 27  1  0
  8 28  1  0
  9 29  1  0
 10 30  1  0
 12 31  1  0
 17 32  1  0
 18 33  1  0
 19 34  1  0
 21 35  1  0
 21 36  1  0
 22 37  1  0
 22 38  1  0
M  END
>  <meeko>  (8) 
{"is_sidechain": [false], "free_energy": -7.833, "intermolecular_energy": -9.826, "internal_energy": -0.134}

$$$$
