cand_044_out
     RDKit          3D

 41 43  0  0  0  0  0  0  0  0999 V2000
   48.7730  161.4760   33.7240 C   0  0  0  0  0  0  0  0  0  0  0  0
   50.0750  161.0870   33.0430 C   0  0  0  0  0  0  0  0  0  0  0  0
   49.9790  161.2400   31.5240 C   0  0  0  0  0  0  0  0  0  0  0  0
   50.4440  159.9950   30.8000 C   0  0  0  0  0  0  0  0  0  0  0  0
   51.7850  159.9280   30.3890 C   0  0  0  0  0  0  0  0  0  0  0  0
   52.2740  158.8150   29.7010 C   0  0  0  0  0  0  0  0  0  0  0  0
   51.4350  157.7410   29.3940 C   0  0  0  0  0  0  0  0  0  0  0  0
   51.9310  156.5390   28.6890 C   0  0  0  0  0  0  0  0  0  0  0  0
   52.5410  156.8390   27.4760 O   0  0  0  0  0  0  0  0  0  0  0  0
   53.0530  155.8150   26.7200 C   0  0  0  0  0  0  0  0  0  0  0  0
   53.6470  156.1610   25.5050 C   0  0  0  0  0  0  0  0  0  0  0  0
   54.1880  155.1670   24.6870 C   0  0  0  0  0  0  0  0  0  0  0  0
   54.1360  153.8290   25.0830 C   0  0  0  0  0  0  0  0  0  0  0  0
   53.5430  153.4870   26.2960 C   0  0  0  0  0  0  0  0  0  0  0  0
   53.5270  152.1590   26.6230 O   0  0  0  0  0  0  0  0  0  0  0  0
   53.0020  154.4820   27.1140 C   0  0  0  0  0  0  0  0  0  0  0  0
   52.3710  154.1670   28.3960 C   0  0  0  0  0  0  0  0  0  0  0  0
   52.2910  153.0140   28.8170 O   0  0  0  0  0  0  0  0  0  0  0  0
   51.8230  155.2930   29.1860 C   0  0  0  0  0  0  0  0  0  0  0  0
   51.2430  154.9840   30.4030 O   0  0  0  0  0  0  0  0  0  0  0  0
   50.0950  157.8030   29.8090 C   0  0  0  0  0  0  0  0  0  0  0  0
   49.5820  158.9190   30.5020 C   0  0  0  0  0  0  0  0  0  0  0  0
   48.1320  158.9070   30.9290 C   0  0  0  0  0  0  0  0  0  0  0  0
   47.9660  158.6950   32.2650 F   0  0  0  0  0  0  0  0  0  0  0  0
   47.4760  160.0740   30.6650 F   0  0  0  0  0  0  0  0  0  0  0  0
   48.9041  161.4368   34.8155 H   0  0  0  0  0  0  0  0  0  0  0  0
   48.4934  162.4969   33.4247 H   0  0  0  0  0  0  0  0  0  0  0  0
   47.9792  160.7758   33.4247 H   0  0  0  0  0  0  0  0  0  0  0  0
   50.8818  161.7342   33.4174 H   0  0  0  0  0  0  0  0  0  0  0  0
   50.2828  160.0313   33.2717 H   0  0  0  0  0  0  0  0  0  0  0  0
   48.9318  161.4390   31.2523 H   0  0  0  0  0  0  0  0  0  0  0  0
   50.6322  162.0726   31.2237 H   0  0  0  0  0  0  0  0  0  0  0  0
   52.4617  160.7659   30.6125 H   0  0  0  0  0  0  0  0  0  0  0  0
   53.3309  158.7839   29.3977 H   0  0  0  0  0  0  0  0  0  0  0  0
   53.6888  157.2149   25.1925 H   0  0  0  0  0  0  0  0  0  0  0  0
   54.6559  155.4384   23.7292 H   0  0  0  0  0  0  0  0  0  0  0  0
   54.5626  153.0465   24.4382 H   0  0  0  0  0  0  0  0  0  0  0  0
   53.6580  151.5110   25.9580 H   0  0  0  0  0  0  0  0  0  0  0  0
   50.3120  154.9050   30.4720 H   0  0  0  0  0  0  0  0  0  0  0  0
   49.4269  156.9577   29.5874 H   0  0  0  0  0  0  0  0  0  0  0  0
   47.7143  158.0783   30.3384 H   0  0  0  0  0  0  0  0  0  0  0  0
  1  2  1  0
  2  3  1  0
  3  4  1  0
  4  5  2  0
  5  6  1  0
  6  7  2  0
  7  8  1  0
  8  9  1  0
  9 10  1  0
 10 11  2  0
 11 12  1  0
 12 13  2  0
 13 14  1  0
 14 15  1  0
 14 16  2  0
 16 17  1  0
 17 18  2  0
 17 19  1  0
 19 20  1  0
  7 21  1  0
 21 22  2  0
 22 23  1  0
 23 24  1  0
 23 25  1  0
 22  4  1  0
 19  8  2  0
 16 10  1  0
  1 26  1  0
  1 27  1  0
  1 28  1  0
  2 29  1  0
  2 30  1  0
  3 31  1  0
  3 32  1  0
  5 33  1  0
  6 34  1  0
 11 35  1  0
 12 36  1  0
 13 37  1  0
 15 38  1  0
 20 39  1  0
 21 40  1  0
 23 41  1  0
M  END
>  <meeko>  (1) 
{"is_sidechain": [false], "free_energy": -10.857, "intermolecular_energy": -14.03, "internal_energy": -0.55}

$$$$
cand_044_out
     RDKit          3D

 41 43  0  0  0  0  0  0  0  0999 V2000
   48.9070  161.5280   33.8830 C   0  0  0  0  0  0  0  0  0  0  0  0
   49.2850  160.2900   33.0850 C   0  0  0  0  0  0  0  0  0  0  0  0
   49.3500  160.5910   31.5860 C   0  0  0  0  0  0  0  0  0  0  0  0
   50.0320  159.4790   30.8170 C   0  0  0  0  0  0  0  0  0  0  0  0
   49.2910  158.3210   30.5280 C   0  0  0  0  0  0  0  0  0  0  0  0
   49.8650  157.2520   29.8370 C   0  0  0  0  0  0  0  0  0  0  0  0
   51.1990  157.3020   29.4250 C   0  0  0  0  0  0  0  0  0  0  0  0
   51.8250  156.1940   28.6710 C   0  0  0  0  0  0  0  0  0  0  0  0
   52.3880  156.6100   27.4690 O   0  0  0  0  0  0  0  0  0  0  0  0
   53.0070  155.6830   26.6710 C   0  0  0  0  0  0  0  0  0  0  0  0
   53.5490  156.1420   25.4700 C   0  0  0  0  0  0  0  0  0  0  0  0
   54.1950  155.2500   24.6110 C   0  0  0  0  0  0  0  0  0  0  0  0
   54.2990  153.9010   24.9520 C   0  0  0  0  0  0  0  0  0  0  0  0
   53.7580  153.4450   26.1520 C   0  0  0  0  0  0  0  0  0  0  0  0
   53.8960  152.1120   26.4250 O   0  0  0  0  0  0  0  0  0  0  0  0
   53.1120  154.3380   27.0110 C   0  0  0  0  0  0  0  0  0  0  0  0
   52.5310  153.9010   28.2810 C   0  0  0  0  0  0  0  0  0  0  0  0
   52.5880  152.7320   28.6550 O   0  0  0  0  0  0  0  0  0  0  0  0
   51.8630  154.9260   29.1170 C   0  0  0  0  0  0  0  0  0  0  0  0
   51.3320  154.5040   30.3220 O   0  0  0  0  0  0  0  0  0  0  0  0
   51.9400  158.4600   29.7090 C   0  0  0  0  0  0  0  0  0  0  0  0
   51.3790  159.5500   30.4070 C   0  0  0  0  0  0  0  0  0  0  0  0
   52.2360  160.7680   30.6630 C   0  0  0  0  0  0  0  0  0  0  0  0
   51.7960  161.8810   30.0110 F   0  0  0  0  0  0  0  0  0  0  0  0
   52.3000  161.1240   31.9790 F   0  0  0  0  0  0  0  0  0  0  0  0
   48.9748  161.3060   34.9582 H   0  0  0  0  0  0  0  0  0  0  0  0
   49.5954  162.3491   33.6340 H   0  0  0  0  0  0  0  0  0  0  0  0
   47.8774  161.8245   33.6340 H   0  0  0  0  0  0  0  0  0  0  0  0
   50.2698  159.9339   33.4217 H   0  0  0  0  0  0  0  0  0  0  0  0
   48.5150  159.5222   33.2511 H   0  0  0  0  0  0  0  0  0  0  0  0
   48.3261  160.7126   31.2028 H   0  0  0  0  0  0  0  0  0  0  0  0
   49.9365  161.5113   31.4477 H   0  0  0  0  0  0  0  0  0  0  0  0
   48.2416  158.2554   30.8513 H   0  0  0  0  0  0  0  0  0  0  0  0
   49.2601  156.3606   29.6146 H   0  0  0  0  0  0  0  0  0  0  0  0
   53.4676  157.2052   25.2000 H   0  0  0  0  0  0  0  0  0  0  0  0
   54.6225  155.6116   23.6641 H   0  0  0  0  0  0  0  0  0  0  0  0
   54.8072  153.1990   24.2746 H   0  0  0  0  0  0  0  0  0  0  0  0
   54.3530  151.5550   25.8240 H   0  0  0  0  0  0  0  0  0  0  0  0
   51.8820  154.0940   30.9600 H   0  0  0  0  0  0  0  0  0  0  0  0
   52.9874  158.5191   29.3780 H   0  0  0  0  0  0  0  0  0  0  0  0
   53.2220  160.4505   30.2929 H   0  0  0  0  0  0  0  0  0  0  0  0
  1  2  1  0
  2  3  1  0
  3  4  1  0
  4  5  2  0
  5  6  1  0
  6  7  2  0
  7  8  1  0
  8  9  1  0
  9 10  1  0
 10 11  2  0
 11 12  1  0
 12 13  2  0
 13 14  1  0
 14 15  1  0
 14 16  2  0
 16 17  1  0
 17 18  2  0
 17 19  1  0
 19 20  1  0
  7 21  1  0
 21 22  2  0
 22 23  1  0
 23 24  1  0
 23 25  1  0
 22  4  1  0
 19  8  2  0
 16 10  1  0
  1 26  1  0
  1 27  1  0
  1 28  1  0
  2 29  1  0
  2 30  1  0
  3 31  1  0
  3 32  1  0
  5 33  1  0
  6 34  1  0
 11 35  1  0
 12 36  1  0
 13 37  1  0
 15 38  1  0
 20 39  1  0
 21 40  1  0
 23 41  1  0
M  END
>  <meeko>  (2) 
{"is_sidechain": [false], "free_energy": -10.748, "intermolecular_energy": -13.882, "internal_energy": -0.558}

$$$$
cand_044_out
     RDKit          3D

 41 43  0  0  0  0  0  0  0  0999 V2000
   54.4530  151.7110   24.9920 C   0  0  0  0  0  0  0  0  0  0  0  0
   54.2520  152.5030   26.2740 C   0  0  0  0  0  0  0  0  0  0  0  0
   52.7700  152.6070   26.6390 C   0  0  0  0  0  0  0  0  0  0  0  0
   52.4500  153.9150   27.3310 C   0  0  0  0  0  0  0  0  0  0  0  0
   51.8610  153.8660   28.6050 C   0  0  0  0  0  0  0  0  0  0  0  0
   51.5240  155.0350   29.2900 C   0  0  0  0  0  0  0  0  0  0  0  0
   51.7570  156.2890   28.7180 C   0  0  0  0  0  0  0  0  0  0  0  0
   51.4330  157.5440   29.4320 C   0  0  0  0  0  0  0  0  0  0  0  0
   50.1210  157.5800   29.8920 O   0  0  0  0  0  0  0  0  0  0  0  0
   49.6890  158.6860   30.5770 C   0  0  0  0  0  0  0  0  0  0  0  0
   48.3630  158.6840   31.0120 C   0  0  0  0  0  0  0  0  0  0  0  0
   47.8600  159.7800   31.7160 C   0  0  0  0  0  0  0  0  0  0  0  0
   48.6800  160.8760   31.9860 C   0  0  0  0  0  0  0  0  0  0  0  0
   50.0040  160.8760   31.5500 C   0  0  0  0  0  0  0  0  0  0  0  0
   50.7530  161.9810   31.8480 O   0  0  0  0  0  0  0  0  0  0  0  0
   50.5060  159.7800   30.8460 C   0  0  0  0  0  0  0  0  0  0  0  0
   51.8910  159.7380   30.3720 C   0  0  0  0  0  0  0  0  0  0  0  0
   52.6770  160.6610   30.5750 O   0  0  0  0  0  0  0  0  0  0  0  0
   52.3250  158.5310   29.6300 C   0  0  0  0  0  0  0  0  0  0  0  0
   53.6390  158.4970   29.2010 O   0  0  0  0  0  0  0  0  0  0  0  0
   52.3500  156.3410   27.4480 C   0  0  0  0  0  0  0  0  0  0  0  0
   52.6950  155.1710   26.7390 C   0  0  0  0  0  0  0  0  0  0  0  0
   53.3450  155.3090   25.3810 C   0  0  0  0  0  0  0  0  0  0  0  0
   52.6040  154.7690   24.3730 F   0  0  0  0  0  0  0  0  0  0  0  0
   53.5670  156.6040   25.0110 F   0  0  0  0  0  0  0  0  0  0  0  0
   54.7166  150.6723   25.2402 H   0  0  0  0  0  0  0  0  0  0  0  0
   53.5234  151.7229   24.4041 H   0  0  0  0  0  0  0  0  0  0  0  0
   55.2645  152.1647   24.4041 H   0  0  0  0  0  0  0  0  0  0  0  0
   54.7879  152.0007   27.0928 H   0  0  0  0  0  0  0  0  0  0  0  0
   54.6424  153.5195   26.1179 H   0  0  0  0  0  0  0  0  0  0  0  0
   52.1712  152.5355   25.7190 H   0  0  0  0  0  0  0  0  0  0  0  0
   52.5310  151.7870   27.3321 H   0  0  0  0  0  0  0  0  0  0  0  0
   51.6617  152.8898   29.0712 H   0  0  0  0  0  0  0  0  0  0  0  0
   51.0705  154.9685   30.2900 H   0  0  0  0  0  0  0  0  0  0  0  0
   47.7151  157.8205   30.8007 H   0  0  0  0  0  0  0  0  0  0  0  0
   46.8147  159.7793   32.0585 H   0  0  0  0  0  0  0  0  0  0  0  0
   48.2826  161.7382   32.5417 H   0  0  0  0  0  0  0  0  0  0  0  0
   51.6520  161.8850   32.0960 H   0  0  0  0  0  0  0  0  0  0  0  0
   53.8470  158.7010   28.3110 H   0  0  0  0  0  0  0  0  0  0  0  0
   52.5517  157.3215   26.9920 H   0  0  0  0  0  0  0  0  0  0  0  0
   54.2944  154.7693   25.5128 H   0  0  0  0  0  0  0  0  0  0  0  0
  1  2  1  0
  2  3  1  0
  3  4  1  0
  4  5  2  0
  5  6  1  0
  6  7  2  0
  7  8  1  0
  8  9  1  0
  9 10  1  0
 10 11  2  0
 11 12  1  0
 12 13  2  0
 13 14  1  0
 14 15  1  0
 14 16  2  0
 16 17  1  0
 17 18  2  0
 17 19  1  0
 19 20  1  0
  7 21  1  0
 21 22  2  0
 22 23  1  0
 23 24  1  0
 23 25  1  0
 22  4  1  0
 19  8  2  0
 16 10  1  0
  1 26  1  0
  1 27  1  0
  1 28  1  0
  2 29  1  0
  2 30  1  0
  3 31  1  0
  3 32  1  0
  5 33  1  0
  6 34  1  0
 11 35  1  0
 12 36  1  0
 13 37  1  0
 15 38  1  0
 20 39  1  0
 21 40  1  0
 23 41  1  0
M  END
>  <meeko>  (3) 
{"is_sidechain": [false], "free_energy": -10.064, "intermolecular_energy": -13.404, "internal_energy": -0.153}

$$$$
cand_044_out
     RDKit          3D

 41 43  0  0  0  0  0  0  0  0999 V2000
   53.4710  150.5940   25.2270 C   0  0  0  0  0  0  0  0  0  0  0  0
   52.7850  151.7290   25.9720 C   0  0  0  0  0  0  0  0  0  0  0  0
   53.8040  152.6590   26.6340 C   0  0  0  0  0  0  0  0  0  0  0  0
   53.1360  153.8320   27.3180 C   0  0  0  0  0  0  0  0  0  0  0  0
   52.5700  153.6260   28.5870 C   0  0  0  0  0  0  0  0  0  0  0  0
   51.9230  154.6620   29.2650 C   0  0  0  0  0  0  0  0  0  0  0  0
   51.8130  155.9310   28.6900 C   0  0  0  0  0  0  0  0  0  0  0  0
   51.1560  157.0530   29.3960 C   0  0  0  0  0  0  0  0  0  0  0  0
   52.0200  158.1130   29.6480 O   0  0  0  0  0  0  0  0  0  0  0  0
   51.5380  159.2230   30.2930 C   0  0  0  0  0  0  0  0  0  0  0  0
   52.4420  160.2580   30.5330 C   0  0  0  0  0  0  0  0  0  0  0  0
   52.0160  161.4170   31.1850 C   0  0  0  0  0  0  0  0  0  0  0  0
   50.6890  161.5420   31.5970 C   0  0  0  0  0  0  0  0  0  0  0  0
   49.7880  160.5060   31.3550 C   0  0  0  0  0  0  0  0  0  0  0  0
   48.5020  160.6940   31.7840 O   0  0  0  0  0  0  0  0  0  0  0  0
   50.2150  159.3470   30.7030 C   0  0  0  0  0  0  0  0  0  0  0  0
   49.3010  158.2370   30.4280 C   0  0  0  0  0  0  0  0  0  0  0  0
   48.1160  158.2730   30.7540 O   0  0  0  0  0  0  0  0  0  0  0  0
   49.8540  157.0500   29.7360 C   0  0  0  0  0  0  0  0  0  0  0  0
   48.9780  156.0140   29.4680 O   0  0  0  0  0  0  0  0  0  0  0  0
   52.3830  156.1400   27.4250 C   0  0  0  0  0  0  0  0  0  0  0  0
   53.0380  155.1070   26.7230 C   0  0  0  0  0  0  0  0  0  0  0  0
   53.6390  155.4140   25.3710 C   0  0  0  0  0  0  0  0  0  0  0  0
   53.0120  154.7730   24.3450 F   0  0  0  0  0  0  0  0  0  0  0  0
   53.6010  156.7390   25.0440 F   0  0  0  0  0  0  0  0  0  0  0  0
   53.8991  149.8857   25.9516 H   0  0  0  0  0  0  0  0  0  0  0  0
   52.7363  150.0732   24.5953 H   0  0  0  0  0  0  0  0  0  0  0  0
   54.2737  151.0023   24.5953 H   0  0  0  0  0  0  0  0  0  0  0  0
   52.1798  152.3099   25.2604 H   0  0  0  0  0  0  0  0  0  0  0  0
   52.1516  151.2935   26.7589 H   0  0  0  0  0  0  0  0  0  0  0  0
   54.3732  152.0879   27.3823 H   0  0  0  0  0  0  0  0  0  0  0  0
   54.4659  153.0537   25.8490 H   0  0  0  0  0  0  0  0  0  0  0  0
   52.6373  152.6326   29.0546 H   0  0  0  0  0  0  0  0  0  0  0  0
   51.4958  154.4770   30.2616 H   0  0  0  0  0  0  0  0  0  0  0  0
   53.4888  160.1613   30.2091 H   0  0  0  0  0  0  0  0  0  0  0  0
   52.7285  162.2335   31.3742 H   0  0  0  0  0  0  0  0  0  0  0  0
   50.3546  162.4551   32.1112 H   0  0  0  0  0  0  0  0  0  0  0  0
   48.3340  160.9050   32.6820 H   0  0  0  0  0  0  0  0  0  0  0  0
   49.0650  155.5190   28.6780 H   0  0  0  0  0  0  0  0  0  0  0  0
   52.3171  157.1383   26.9677 H   0  0  0  0  0  0  0  0  0  0  0  0
   54.6763  155.0663   25.4855 H   0  0  0  0  0  0  0  0  0  0  0  0
  1  2  1  0
  2  3  1  0
  3  4  1  0
  4  5  2  0
  5  6  1  0
  6  7  2  0
  7  8  1  0
  8  9  1  0
  9 10  1  0
 10 11  2  0
 11 12  1  0
 12 13  2  0
 13 14  1  0
 14 15  1  0
 14 16  2  0
 16 17  1  0
 17 18  2  0
 17 19  1  0
 19 20  1  0
  7 21  1  0
 21 22  2  0
 22 23  1  0
 23 24  1  0
 23 25  1  0
 22  4  1  0
 19  8  2  0
 16 10  1  0
  1 26  1  0
  1 27  1  0
  1 28  1  0
  2 29  1  0
  2 30  1  0
  3 31  1  0
  3 32  1  0
  5 33  1  0
  6 34  1  0
 11 35  1  0
 12 36  1  0
 13 37  1  0
 15 38  1  0
 20 39  1  0
 21 40  1  0
 23 41  1  0
M  END
>  <meeko>  (4) 
{"is_sidechain": [false], "free_energy": -9.339, "intermolecular_energy": -11.92, "internal_energy": -0.699}

$$$$
cand_044_out
     RDKit          3D

 41 43  0  0  0  0  0  0  0  0999 V2000
   54.0370  153.4580   23.7860 C   0  0  0  0  0  0  0  0  0  0  0  0
   53.2830  154.4200   24.6910 C   0  0  0  0  0  0  0  0  0  0  0  0
   53.3920  154.0060   26.1600 C   0  0  0  0  0  0  0  0  0  0  0  0
   52.8750  155.0840   27.0890 C   0  0  0  0  0  0  0  0  0  0  0  0
   52.9880  156.4230   26.6810 C   0  0  0  0  0  0  0  0  0  0  0  0
   52.5470  157.4650   27.4990 C   0  0  0  0  0  0  0  0  0  0  0  0
   51.9910  157.2020   28.7540 C   0  0  0  0  0  0  0  0  0  0  0  0
   51.4930  158.2850   29.6290 C   0  0  0  0  0  0  0  0  0  0  0  0
   50.1510  158.1370   29.9620 O   0  0  0  0  0  0  0  0  0  0  0  0
   49.5620  159.0710   30.7750 C   0  0  0  0  0  0  0  0  0  0  0  0
   48.2110  158.8880   31.0740 C   0  0  0  0  0  0  0  0  0  0  0  0
   47.5500  159.8020   31.8970 C   0  0  0  0  0  0  0  0  0  0  0  0
   48.2390  160.8970   32.4210 C   0  0  0  0  0  0  0  0  0  0  0  0
   49.5870  161.0770   32.1210 C   0  0  0  0  0  0  0  0  0  0  0  0
   50.2010  162.1710   32.6680 O   0  0  0  0  0  0  0  0  0  0  0  0
   50.2470  160.1630   31.2970 C   0  0  0  0  0  0  0  0  0  0  0  0
   51.6630  160.3130   30.9580 C   0  0  0  0  0  0  0  0  0  0  0  0
   52.3390  161.2480   31.3850 O   0  0  0  0  0  0  0  0  0  0  0  0
   52.2680  159.2920   30.0730 C   0  0  0  0  0  0  0  0  0  0  0  0
   53.6110  159.4360   29.7720 O   0  0  0  0  0  0  0  0  0  0  0  0
   51.8730  155.8640   29.1610 C   0  0  0  0  0  0  0  0  0  0  0  0
   52.3140  154.7970   28.3510 C   0  0  0  0  0  0  0  0  0  0  0  0
   52.1400  153.3820   28.8530 C   0  0  0  0  0  0  0  0  0  0  0  0
   51.5560  153.3160   30.0830 F   0  0  0  0  0  0  0  0  0  0  0  0
   51.3610  152.6080   28.0430 F   0  0  0  0  0  0  0  0  0  0  0  0
   54.5995  152.7403   24.4013 H   0  0  0  0  0  0  0  0  0  0  0  0
   53.3215  152.9149   23.1511 H   0  0  0  0  0  0  0  0  0  0  0  0
   54.7353  154.0230   23.1511 H   0  0  0  0  0  0  0  0  0  0  0  0
   53.7046  155.4289   24.5713 H   0  0  0  0  0  0  0  0  0  0  0  0
   52.2210  154.4043   24.4047 H   0  0  0  0  0  0  0  0  0  0  0  0
   52.8038  153.0896   26.3160 H   0  0  0  0  0  0  0  0  0  0  0  0
   54.4546  153.8383   26.3895 H   0  0  0  0  0  0  0  0  0  0  0  0
   53.4311  156.6546   25.7012 H   0  0  0  0  0  0  0  0  0  0  0  0
   52.6382  158.5048   27.1518 H   0  0  0  0  0  0  0  0  0  0  0  0
   47.6677  158.0249   30.6618 H   0  0  0  0  0  0  0  0  0  0  0  0
   46.4851  159.6590   32.1327 H   0  0  0  0  0  0  0  0  0  0  0  0
   47.7181  161.6165   33.0698 H   0  0  0  0  0  0  0  0  0  0  0  0
   51.1160  162.1410   32.8720 H   0  0  0  0  0  0  0  0  0  0  0  0
   53.9410  160.2650   29.4890 H   0  0  0  0  0  0  0  0  0  0  0  0
   51.4236  155.6411   30.1400 H   0  0  0  0  0  0  0  0  0  0  0  0
   53.1738  153.0072   28.8804 H   0  0  0  0  0  0  0  0  0  0  0  0
  1  2  1  0
  2  3  1  0
  3  4  1  0
  4  5  2  0
  5  6  1  0
  6  7  2  0
  7  8  1  0
  8  9  1  0
  9 10  1  0
 10 11  2  0
 11 12  1  0
 12 13  2  0
 13 14  1  0
 14 15  1  0
 14 16  2  0
 16 17  1  0
 17 18  2  0
 17 19  1  0
 19 20  1  0
  7 21  1  0
 21 22  2  0
 22 23  1  0
 23 24  1  0
 23 25  1  0
 22  4  1  0
 19  8  2  0
 16 10  1  0
  1 26  1  0
  1 27  1  0
  1 28  1  0
  2 29  1  0
  2 30  1  0
  3 31  1  0
  3 32  1  0
  5 33  1  0
  6 34  1  0
 11 35  1  0
 12 36  1  0
 13 37  1  0
 15 38  1  0
 20 39  1  0
 21 40  1  0
 23 41  1  0
M  END
>  <meeko>  (5) 
{"is_sidechain": [false], "free_energy": -9.167, "intermolecular_energy": -11.854, "internal_energy": -0.542}

$$$$
cand_044_out
     RDKit          3D

 41 43  0  0  0  0  0  0  0  0999 V2000
   48.0110  160.5720   31.0500 C   0  0  0  0  0  0  0  0  0  0  0  0
   48.0680  159.1400   30.5410 C   0  0  0  0  0  0  0  0  0  0  0  0
   49.1870  158.3500   31.2220 C   0  0  0  0  0  0  0  0  0  0  0  0
   50.0140  157.5700   30.2230 C   0  0  0  0  0  0  0  0  0  0  0  0
   49.5730  156.2890   29.8520 C   0  0  0  0  0  0  0  0  0  0  0  0
   50.2990  155.5090   28.9480 C   0  0  0  0  0  0  0  0  0  0  0  0
   51.4930  155.9810   28.3980 C   0  0  0  0  0  0  0  0  0  0  0  0
   52.2690  155.1870   27.4200 C   0  0  0  0  0  0  0  0  0  0  0  0
   51.9800  153.8280   27.4790 O   0  0  0  0  0  0  0  0  0  0  0  0
   52.6270  152.9750   26.6210 C   0  0  0  0  0  0  0  0  0  0  0  0
   52.3140  151.6190   26.7220 C   0  0  0  0  0  0  0  0  0  0  0  0
   52.9360  150.6970   25.8770 C   0  0  0  0  0  0  0  0  0  0  0  0
   53.8690  151.1290   24.9330 C   0  0  0  0  0  0  0  0  0  0  0  0
   54.1780  152.4840   24.8350 C   0  0  0  0  0  0  0  0  0  0  0  0
   55.1000  152.8400   23.8880 O   0  0  0  0  0  0  0  0  0  0  0  0
   53.5560  153.4060   25.6800 C   0  0  0  0  0  0  0  0  0  0  0  0
   53.8520  154.8380   25.6090 C   0  0  0  0  0  0  0  0  0  0  0  0
   54.6560  155.2980   24.8010 O   0  0  0  0  0  0  0  0  0  0  0  0
   53.1420  155.7320   26.5530 C   0  0  0  0  0  0  0  0  0  0  0  0
   53.4170  157.0840   26.4660 O   0  0  0  0  0  0  0  0  0  0  0  0
   51.9330  157.2630   28.7630 C   0  0  0  0  0  0  0  0  0  0  0  0
   51.2160  158.0650   29.6750 C   0  0  0  0  0  0  0  0  0  0  0  0
   51.7470  159.4400   30.0080 C   0  0  0  0  0  0  0  0  0  0  0  0
   51.0080  160.4480   29.4640 F   0  0  0  0  0  0  0  0  0  0  0  0
   51.7820  159.7020   31.3480 F   0  0  0  0  0  0  0  0  0  0  0  0
   48.0111  160.5704   32.1500 H   0  0  0  0  0  0  0  0  0  0  0  0
   48.8878  161.1264   30.6841 H   0  0  0  0  0  0  0  0  0  0  0  0
   47.0929  161.0549   30.6841 H   0  0  0  0  0  0  0  0  0  0  0  0
   47.1059  158.6482   30.7473 H   0  0  0  0  0  0  0  0  0  0  0  0
   48.2698  159.1645   29.4599 H   0  0  0  0  0  0  0  0  0  0  0  0
   49.8437  159.0520   31.7566 H   0  0  0  0  0  0  0  0  0  0  0  0
   48.7249  157.6330   31.9166 H   0  0  0  0  0  0  0  0  0  0  0  0
   48.6404  155.8931   30.2803 H   0  0  0  0  0  0  0  0  0  0  0  0
   49.9263  154.5130   28.6666 H   0  0  0  0  0  0  0  0  0  0  0  0
   51.5790  151.2768   27.4655 H   0  0  0  0  0  0  0  0  0  0  0  0
   52.6899  149.6278   25.9557 H   0  0  0  0  0  0  0  0  0  0  0  0
   54.3588  150.4019   24.2685 H   0  0  0  0  0  0  0  0  0  0  0  0
   55.8270  152.2760   23.7070 H   0  0  0  0  0  0  0  0  0  0  0  0
   53.4400  157.6090   27.2410 H   0  0  0  0  0  0  0  0  0  0  0  0
   52.8636  157.6533   28.3252 H   0  0  0  0  0  0  0  0  0  0  0  0
   52.7621  159.4150   29.5850 H   0  0  0  0  0  0  0  0  0  0  0  0
  1  2  1  0
  2  3  1  0
  3  4  1  0
  4  5  2  0
  5  6  1  0
  6  7  2  0
  7  8  1  0
  8  9  1  0
  9 10  1  0
 10 11  2  0
 11 12  1  0
 12 13  2  0
 13 14  1  0
 14 15  1  0
 14 16  2  0
 16 17  1  0
 17 18  2  0
 17 19  1  0
 19 20  1  0
  7 21  1  0
 21 22  2  0
 22 23  1  0
 23 24  1  0
 23 25  1  0
 22  4  1  0
 19  8  2  0
 16 10  1  0
  1 26  1  0
  1 27  1  0
  1 28  1  0
  2 29  1  0
  2 30  1  0
  3 31  1  0
  3 32  1  0
  5 33  1  0
  6 34  1  0
 11 35  1  0
 12 36  1  0
 13 37  1  0
 15 38  1  0
 20 39  1  0
 21 40  1  0
 23 41  1  0
M  END
>  <meeko>  (6) 
{"is_sidechain": [false], "free_energy": -9.032, "intermolecular_energy": -12.003, "internal_energy": -0.22}

$$$$
cand_044_out
     RDKit          3D

 41 43  0  0  0  0  0  0  0  0999 V2000
   54.2200  153.2740   23.4340 C   0  0  0  0  0  0  0  0  0  0  0  0
   53.4570  154.1820   24.3860 C   0  0  0  0  0  0  0  0  0  0  0  0
   53.8730  153.9460   25.8390 C   0  0  0  0  0  0  0  0  0  0  0  0
   53.1590  154.8820   26.7900 C   0  0  0  0  0  0  0  0  0  0  0  0
   53.2860  156.2650   26.5820 C   0  0  0  0  0  0  0  0  0  0  0  0
   52.6670  157.1830   27.4330 C   0  0  0  0  0  0  0  0  0  0  0  0
   51.9110  156.7460   28.5240 C   0  0  0  0  0  0  0  0  0  0  0  0
   51.2240  157.6950   29.4280 C   0  0  0  0  0  0  0  0  0  0  0  0
   51.9880  158.8240   29.7060 O   0  0  0  0  0  0  0  0  0  0  0  0
   51.4680  159.7900   30.5290 C   0  0  0  0  0  0  0  0  0  0  0  0
   52.2720  160.9000   30.7890 C   0  0  0  0  0  0  0  0  0  0  0  0
   51.8020  161.9210   31.6180 C   0  0  0  0  0  0  0  0  0  0  0  0
   50.5300  161.8330   32.1860 C   0  0  0  0  0  0  0  0  0  0  0  0
   49.7290  160.7230   31.9240 C   0  0  0  0  0  0  0  0  0  0  0  0
   48.4940  160.7010   32.5110 O   0  0  0  0  0  0  0  0  0  0  0  0
   50.2000  159.7030   31.0940 C   0  0  0  0  0  0  0  0  0  0  0  0
   49.3910  158.5210   30.7920 C   0  0  0  0  0  0  0  0  0  0  0  0
   48.2590  158.3730   31.2490 O   0  0  0  0  0  0  0  0  0  0  0  0
   49.9830  157.4930   29.9060 C   0  0  0  0  0  0  0  0  0  0  0  0
   49.2030  156.3880   29.6160 O   0  0  0  0  0  0  0  0  0  0  0  0
   51.7780  155.3640   28.7310 C   0  0  0  0  0  0  0  0  0  0  0  0
   52.3980  154.4220   27.8840 C   0  0  0  0  0  0  0  0  0  0  0  0
   52.1960  152.9500   28.1630 C   0  0  0  0  0  0  0  0  0  0  0  0
   51.4820  152.7110   29.2990 F   0  0  0  0  0  0  0  0  0  0  0  0
   51.5250  152.2940   27.1720 F   0  0  0  0  0  0  0  0  0  0  0  0
   54.8216  152.5581   24.0133 H   0  0  0  0  0  0  0  0  0  0  0  0
   53.5075  152.7258   22.8001 H   0  0  0  0  0  0  0  0  0  0  0  0
   54.8827  153.8814   22.8001 H   0  0  0  0  0  0  0  0  0  0  0  0
   53.6612  155.2300   24.1213 H   0  0  0  0  0  0  0  0  0  0  0  0
   52.3843  153.9568   24.2929 H   0  0  0  0  0  0  0  0  0  0  0  0
   53.6323  152.9084   26.1137 H   0  0  0  0  0  0  0  0  0  0  0  0
   54.9532  154.1373   25.9195 H   0  0  0  0  0  0  0  0  0  0  0  0
   53.8833  156.6315   25.7341 H   0  0  0  0  0  0  0  0  0  0  0  0
   52.7756  158.2609   27.2426 H   0  0  0  0  0  0  0  0  0  0  0  0
   53.2745  160.9710   30.3418 H   0  0  0  0  0  0  0  0  0  0  0  0
   52.4356  162.7964   31.8237 H   0  0  0  0  0  0  0  0  0  0  0  0
   50.1607  162.6377   32.8388 H   0  0  0  0  0  0  0  0  0  0  0  0
   47.8290  160.1270   32.1820 H   0  0  0  0  0  0  0  0  0  0  0  0
   48.6820  155.9930   30.2860 H   0  0  0  0  0  0  0  0  0  0  0  0
   51.1735  155.0058   29.5773 H   0  0  0  0  0  0  0  0  0  0  0  0
   53.2274  152.5785   28.2532 H   0  0  0  0  0  0  0  0  0  0  0  0
  1  2  1  0
  2  3  1  0
  3  4  1  0
  4  5  2  0
  5  6  1  0
  6  7  2  0
  7  8  1  0
  8  9  1  0
  9 10  1  0
 10 11  2  0
 11 12  1  0
 12 13  2  0
 13 14  1  0
 14 15  1  0
 14 16  2  0
 16 17  1  0
 17 18  2  0
 17 19  1  0
 19 20  1  0
  7 21  1  0
 21 22  2  0
 22 23  1  0
 23 24  1  0
 23 25  1  0
 22  4  1  0
 19  8  2  0
 16 10  1  0
  1 26  1  0
  1 27  1  0
  1 28  1  0
  2 29  1  0
  2 30  1  0
  3 31  1  0
  3 32  1  0
  5 33  1  0
  6 34  1  0
 11 35  1  0
 12 36  1  0
 13 37  1  0
 15 38  1  0
 20 39  1  0
 21 40  1  0
 23 41  1  0
M  END
>  <meeko>  (7) 
{"is_sidechain": [false], "free_energy": -8.728, "intermolecular_energy": -11.506, "internal_energy": -0.324}

$$$$
cand_044_out
     RDKit          3D

 41 43  0  0  0  0  0  0  0  0999 V2000
   49.1330  161.2720   30.4630 C   0  0  0  0  0  0  0  0  0  0  0  0
   50.5140  160.8320   30.0030 C   0  0  0  0  0  0  0  0  0  0  0  0
   51.0370  159.6660   30.8440 C   0  0  0  0  0  0  0  0  0  0  0  0
   51.3770  158.4630   29.9910 C   0  0  0  0  0  0  0  0  0  0  0  0
   52.6440  158.4130   29.3880 C   0  0  0  0  0  0  0  0  0  0  0  0
   53.0140  157.3390   28.5750 C   0  0  0  0  0  0  0  0  0  0  0  0
   52.1250  156.2900   28.3300 C   0  0  0  0  0  0  0  0  0  0  0  0
   52.4990  155.1290   27.4930 C   0  0  0  0  0  0  0  0  0  0  0  0
   53.2410  155.4880   26.3730 O   0  0  0  0  0  0  0  0  0  0  0  0
   53.6590  154.5060   25.5120 C   0  0  0  0  0  0  0  0  0  0  0  0
   54.3920  154.9120   24.3960 C   0  0  0  0  0  0  0  0  0  0  0  0
   54.8490  153.9630   23.4800 C   0  0  0  0  0  0  0  0  0  0  0  0
   54.5740  152.6090   23.6780 C   0  0  0  0  0  0  0  0  0  0  0  0
   53.8420  152.2060   24.7940 C   0  0  0  0  0  0  0  0  0  0  0  0
   53.6100  150.8650   24.9280 O   0  0  0  0  0  0  0  0  0  0  0  0
   53.3860  153.1560   25.7100 C   0  0  0  0  0  0  0  0  0  0  0  0
   52.6150  152.7760   26.8950 C   0  0  0  0  0  0  0  0  0  0  0  0
   52.3380  151.6040   27.1420 O   0  0  0  0  0  0  0  0  0  0  0  0
   52.1730  153.8600   27.8020 C   0  0  0  0  0  0  0  0  0  0  0  0
   51.4590  153.4870   28.9260 O   0  0  0  0  0  0  0  0  0  0  0  0
   50.8600  156.3350   28.9360 C   0  0  0  0  0  0  0  0  0  0  0  0
   50.4670  157.4110   29.7590 C   0  0  0  0  0  0  0  0  0  0  0  0
   49.0930  157.3810   30.3880 C   0  0  0  0  0  0  0  0  0  0  0  0
   48.3560  158.4970   30.1240 F   0  0  0  0  0  0  0  0  0  0  0  0
   48.3230  156.3340   29.9700 F   0  0  0  0  0  0  0  0  0  0  0  0
   49.0989  161.2829   31.5624 H   0  0  0  0  0  0  0  0  0  0  0  0
   48.9232  162.2815   30.0797 H   0  0  0  0  0  0  0  0  0  0  0  0
   48.3779  160.5700   30.0797 H   0  0  0  0  0  0  0  0  0  0  0  0
   50.4572  160.5171   28.9506 H   0  0  0  0  0  0  0  0  0  0  0  0
   51.2045  161.6803   30.1198 H   0  0  0  0  0  0  0  0  0  0  0  0
   51.9422  159.9906   31.3780 H   0  0  0  0  0  0  0  0  0  0  0  0
   50.2452  159.3716   31.5485 H   0  0  0  0  0  0  0  0  0  0  0  0
   53.3570  159.2331   29.5586 H   0  0  0  0  0  0  0  0  0  0  0  0
   54.0165  157.3192   28.1228 H   0  0  0  0  0  0  0  0  0  0  0  0
   54.6094  155.9787   24.2384 H   0  0  0  0  0  0  0  0  0  0  0  0
   55.4270  154.2829   22.6004 H   0  0  0  0  0  0  0  0  0  0  0  0
   54.9339  151.8618   22.9554 H   0  0  0  0  0  0  0  0  0  0  0  0
   54.1770  150.2460   24.5090 H   0  0  0  0  0  0  0  0  0  0  0  0
   50.5400  153.3190   28.8630 H   0  0  0  0  0  0  0  0  0  0  0  0
   50.1552  155.5080   28.7644 H   0  0  0  0  0  0  0  0  0  0  0  0
   49.3220  157.2972   31.4606 H   0  0  0  0  0  0  0  0  0  0  0  0
  1  2  1  0
  2  3  1  0
  3  4  1  0
  4  5  2  0
  5  6  1  0
  6  7  2  0
  7  8  1  0
  8  9  1  0
  9 10  1  0
 10 11  2  0
 11 12  1  0
 12 13  2  0
 13 14  1  0
 14 15  1  0
 14 16  2  0
 16 17  1  0
 17 18  2  0
 17 19  1  0
 19 20  1  0
  7 21  1  0
 21 22  2  0
 22 23  1  0
 23 24  1  0
 23 25  1  0
 22  4  1  0
 19  8  2  0
 16 10  1  0
  1 26  1  0
  1 27  1  0
  1 28  1  0
  2 29  1  0
  2 30  1  0
  3 31  1  0
  3 32  1  0
  5 33  1  0
  6 34  1  0
 11 35  1  0
 12 36  1  0
 13 37  1  0
 15 38  1  0
 20 39  1  0
 21 40  1  0
 23 41  1  0
M  END
>  <meeko>  (8) 
{"is_sidechain": [false], "free_energy": -8.69, "intermolecular_energy": -11.665, "internal_energy": -0.116}

$$$$
cand_044_out
     RDKit          3D

 41 43  0  0  0  0  0  0  0  0999 V2000
   48.9900  161.1390   30.7210 C   0  0  0  0  0  0  0  0  0  0  0  0
   50.2730  160.6300   30.0830 C   0  0  0  0  0  0  0  0  0  0  0  0
   50.8240  159.4140   30.8310 C   0  0  0  0  0  0  0  0  0  0  0  0
   51.2930  158.3330   29.8820 C   0  0  0  0  0  0  0  0  0  0  0  0
   52.5770  158.4470   29.3260 C   0  0  0  0  0  0  0  0  0  0  0  0
   53.0630  157.4930   28.4290 C   0  0  0  0  0  0  0  0  0  0  0  0
   52.2760  156.4020   28.0530 C   0  0  0  0  0  0  0  0  0  0  0  0
   52.7740  155.3630   27.1250 C   0  0  0  0  0  0  0  0  0  0  0  0
   52.3130  154.0900   27.4420 O   0  0  0  0  0  0  0  0  0  0  0  0
   52.6950  153.0320   26.6580 C   0  0  0  0  0  0  0  0  0  0  0  0
   52.2170  151.7720   27.0180 C   0  0  0  0  0  0  0  0  0  0  0  0
   52.5680  150.6510   26.2610 C   0  0  0  0  0  0  0  0  0  0  0  0
   53.3950  150.7910   25.1450 C   0  0  0  0  0  0  0  0  0  0  0  0
   53.8700  152.0510   24.7880 C   0  0  0  0  0  0  0  0  0  0  0  0
   54.6750  152.1170   23.6830 O   0  0  0  0  0  0  0  0  0  0  0  0
   53.5190  153.1710   25.5450 C   0  0  0  0  0  0  0  0  0  0  0  0
   53.9950  154.5120   25.2030 C   0  0  0  0  0  0  0  0  0  0  0  0
   54.7210  154.7180   24.2330 O   0  0  0  0  0  0  0  0  0  0  0  0
   53.5700  155.6320   26.0740 C   0  0  0  0  0  0  0  0  0  0  0  0
   54.0130  156.8970   25.7320 O   0  0  0  0  0  0  0  0  0  0  0  0
   50.9940  156.2820   28.6110 C   0  0  0  0  0  0  0  0  0  0  0  0
   50.4840  157.2360   29.5160 C   0  0  0  0  0  0  0  0  0  0  0  0
   49.0990  157.0310   30.0870 C   0  0  0  0  0  0  0  0  0  0  0  0
   48.2350  158.0380   29.7770 F   0  0  0  0  0  0  0  0  0  0  0  0
   48.4930  155.8890   29.6490 F   0  0  0  0  0  0  0  0  0  0  0  0
   49.0851  161.1013   31.8162 H   0  0  0  0  0  0  0  0  0  0  0  0
   48.8096  162.1768   30.4041 H   0  0  0  0  0  0  0  0  0  0  0  0
   48.1472  160.5071   30.4041 H   0  0  0  0  0  0  0  0  0  0  0  0
   50.0661  160.3456   29.0407 H   0  0  0  0  0  0  0  0  0  0  0  0
   51.0237  161.4329   30.1267 H   0  0  0  0  0  0  0  0  0  0  0  0
   51.6729  159.7338   31.4532 H   0  0  0  0  0  0  0  0  0  0  0  0
   50.0144  158.9979   31.4485 H   0  0  0  0  0  0  0  0  0  0  0  0
   53.2113  159.3024   29.6015 H   0  0  0  0  0  0  0  0  0  0  0  0
   54.0760  157.6020   28.0144 H   0  0  0  0  0  0  0  0  0  0  0  0
   51.5646  151.6609   27.8966 H   0  0  0  0  0  0  0  0  0  0  0  0
   52.1922  149.6569   26.5449 H   0  0  0  0  0  0  0  0  0  0  0  0
   53.6709  149.9086   24.5490 H   0  0  0  0  0  0  0  0  0  0  0  0
   55.5830  152.3290   23.7770 H   0  0  0  0  0  0  0  0  0  0  0  0
   54.8900  157.1560   25.9330 H   0  0  0  0  0  0  0  0  0  0  0  0
   50.3693  155.4197   28.3348 H   0  0  0  0  0  0  0  0  0  0  0  0
   49.2885  156.9866   31.1696 H   0  0  0  0  0  0  0  0  0  0  0  0
  1  2  1  0
  2  3  1  0
  3  4  1  0
  4  5  2  0
  5  6  1  0
  6  7  2  0
  7  8  1  0
  8  9  1  0
  9 10  1  0
 10 11  2  0
 11 12  1  0
 12 13  2  0
 13 14  1  0
 14 15  1  0
 14 16  2  0
 16 17  1  0
 17 18  2  0
 17 19  1  0
 19 20  1  0
  7 21  1  0
 21 22  2  0
 22 23  1  0
 23 24  1  0
 23 25  1  0
 22  4  1  0
 19  8  2  0
 16 10  1  0
  1 26  1  0
  1 27  1  0
  1 28  1  0
  2 29  1  0
  2 30  1  0
  3 31  1  0
  3 32  1  0
  5 33  1  0
  6 34  1  0
 11 35  1  0
 12 36  1  0
 13 37  1  0
 15 38  1  0
 20 39  1  0
 21 40  1  0
 23 41  1  0
M  END
>  <meeko>  (9) 
{"is_sidechain": [false], "free_energy": -8.307, "intermolecular_energy": -10.835, "internal_energy": -0.451}

$$$$
