cand_009_out
     RDKit          3D

 41 43  0  0  0  0  0  0  0  0999 V2000
   52.9950  152.4590   26.9310 C   0  0  0  0  0  0  0  0  0  0  0  0
   52.6130  153.7830   27.5340 C   0  0  0  0  0  0  0  0  0  0  0  0
   51.9150  153.7840   28.7540 C   0  0  0  0  0  0  0  0  0  0  0  0
   51.5300  154.9800   29.3630 C   0  0  0  0  0  0  0  0  0  0  0  0
   51.8260  156.2090   28.7690 C   0  0  0  0  0  0  0  0  0  0  0  0
   51.4330  157.4650   29.4420 C   0  0  0  0  0  0  0  0  0  0  0  0
   50.0990  157.4750   29.8320 O   0  0  0  0  0  0  0  0  0  0  0  0
   49.6010  158.5820   30.4700 C   0  0  0  0  0  0  0  0  0  0  0  0
   48.2600  158.5420   30.8560 C   0  0  0  0  0  0  0  0  0  0  0  0
   47.6910  159.6380   31.5080 C   0  0  0  0  0  0  0  0  0  0  0  0
   48.4610  160.7720   31.7740 C   0  0  0  0  0  0  0  0  0  0  0  0
   49.7980  160.8090   31.3870 C   0  0  0  0  0  0  0  0  0  0  0  0
   50.4940  161.9510   31.6760 O   0  0  0  0  0  0  0  0  0  0  0  0
   50.3680  159.7120   30.7340 C   0  0  0  0  0  0  0  0  0  0  0  0
   51.7690  159.7100   30.3120 C   0  0  0  0  0  0  0  0  0  0  0  0
   52.5080  160.6740   30.5020 O   0  0  0  0  0  0  0  0  0  0  0  0
   52.2790  158.4950   29.6350 C   0  0  0  0  0  0  0  0  0  0  0  0
   53.5990  158.5100   29.2280 O   0  0  0  0  0  0  0  0  0  0  0  0
   52.5320  156.2090   27.5580 C   0  0  0  0  0  0  0  0  0  0  0  0
   52.9300  155.0120   26.9200 C   0  0  0  0  0  0  0  0  0  0  0  0
   53.6850  155.0880   25.5970 C   0  0  0  0  0  0  0  0  0  0  0  0
   54.0070  156.5370   25.2160 C   0  0  0  0  0  0  0  0  0  0  0  0
   52.9240  154.3830   24.4700 C   0  0  0  0  0  0  0  0  0  0  0  0
   53.2034  151.7368   27.7341 H   0  0  0  0  0  0  0  0  0  0  0  0
   52.1675  152.0870   26.3090 H   0  0  0  0  0  0  0  0  0  0  0  0
   53.8934  152.5850   26.3090 H   0  0  0  0  0  0  0  0  0  0  0  0
   51.6680  152.8270   29.2368 H   0  0  0  0  0  0  0  0  0  0  0  0
   50.9882  154.9541   30.3200 H   0  0  0  0  0  0  0  0  0  0  0  0
   47.6528  157.6489   30.6470 H   0  0  0  0  0  0  0  0  0  0  0  0
   46.6344  159.6079   31.8125 H   0  0  0  0  0  0  0  0  0  0  0  0
   48.0122  161.6346   32.2883 H   0  0  0  0  0  0  0  0  0  0  0  0
   50.7960  162.5030   30.9820 H   0  0  0  0  0  0  0  0  0  0  0  0
   53.8160  158.3420   28.3320 H   0  0  0  0  0  0  0  0  0  0  0  0
   52.7844  157.1715   27.0891 H   0  0  0  0  0  0  0  0  0  0  0  0
   54.6379  154.5572   25.7395 H   0  0  0  0  0  0  0  0  0  0  0  0
   54.1400  157.1354   26.1294 H   0  0  0  0  0  0  0  0  0  0  0  0
   54.9328  156.5630   24.6226 H   0  0  0  0  0  0  0  0  0  0  0  0
   53.1793  156.9527   24.6226 H   0  0  0  0  0  0  0  0  0  0  0  0
   52.1821  153.6957   24.9026 H   0  0  0  0  0  0  0  0  0  0  0  0
   52.4113  155.1324   23.8490 H   0  0  0  0  0  0  0  0  0  0  0  0
   53.6321  153.8147   23.8490 H   0  0  0  0  0  0  0  0  0  0  0  0
  1  2  1  0
  2  3  2  0
  3  4  1  0
  4  5  2  0
  5  6  1  0
  6  7  1  0
  7  8  1  0
  8  9  2  0
  9 10  1  0
 10 11  2  0
 11 12  1  0
 12 13  1  0
 12 14  2  0
 14 15  1  0
 15 16  2  0
 15 17  1  0
 17 18  1  0
  5 19  1  0
 19 20  2  0
 20 21  1  0
 21 22  1  0
 21 23  1  0
 20  2  1  0
 17  6  2  0
 14  8  1  0
  1 24  1  0
  1 25  1  0
  1 26  1  0
  3 27  1  0
  4 28  1  0
  9 29  1  0
 10 30  1  0
 11 31  1  0
 13 32  1  0
 18 33  1  0
 19 34  1  0
 21 35  1  0
 22 36  1  0
 22 37  1  0
 22 38  1  0
 23 39  1  0
 23 40  1  0
 23 41  1  0
M  END
>  <meeko>  (1) 
{"is_sidechain": [false], "free_energy": -10.451, "intermolecular_energy": -12.284, "internal_energy": 0.066}

$$$$
cand_009_out
     RDKit          3D

 41 43  0  0  0  0  0  0  0  0999 V2000
   50.5950  161.1000   31.4540 C   0  0  0  0  0  0  0  0  0  0  0  0
   50.8770  159.8130   30.7310 C   0  0  0  0  0  0  0  0  0  0  0  0
   52.1230  159.6620   30.0990 C   0  0  0  0  0  0  0  0  0  0  0  0
   52.4450  158.4910   29.4090 C   0  0  0  0  0  0  0  0  0  0  0  0
   51.5290  157.4400   29.3250 C   0  0  0  0  0  0  0  0  0  0  0  0
   51.8970  156.1980   28.6120 C   0  0  0  0  0  0  0  0  0  0  0  0
   52.3610  156.4330   27.3230 O   0  0  0  0  0  0  0  0  0  0  0  0
   52.7390  155.3660   26.5490 C   0  0  0  0  0  0  0  0  0  0  0  0
   53.2120  155.6490   25.2670 C   0  0  0  0  0  0  0  0  0  0  0  0
   53.6120  154.6080   24.4260 C   0  0  0  0  0  0  0  0  0  0  0  0
   53.5370  153.2840   24.8670 C   0  0  0  0  0  0  0  0  0  0  0  0
   53.0640  153.0050   26.1460 C   0  0  0  0  0  0  0  0  0  0  0  0
   53.0160  151.6880   26.5130 O   0  0  0  0  0  0  0  0  0  0  0  0
   52.6650  154.0470   26.9870 C   0  0  0  0  0  0  0  0  0  0  0  0
   52.1630  153.7970   28.3390 C   0  0  0  0  0  0  0  0  0  0  0  0
   52.0600  152.6610   28.7950 O   0  0  0  0  0  0  0  0  0  0  0  0
   51.7720  154.9720   29.1530 C   0  0  0  0  0  0  0  0  0  0  0  0
   51.2870  154.7220   30.4230 O   0  0  0  0  0  0  0  0  0  0  0  0
   50.2900  157.5850   29.9650 C   0  0  0  0  0  0  0  0  0  0  0  0
   49.9390  158.7610   30.6660 C   0  0  0  0  0  0  0  0  0  0  0  0
   48.5680  158.8540   31.3280 C   0  0  0  0  0  0  0  0  0  0  0  0
   47.5780  159.6370   30.4600 C   0  0  0  0  0  0  0  0  0  0  0  0
   48.6590  159.4570   32.7340 C   0  0  0  0  0  0  0  0  0  0  0  0
   50.6330  160.9266   32.5396 H   0  0  0  0  0  0  0  0  0  0  0  0
   51.3501  161.8499   31.1758 H   0  0  0  0  0  0  0  0  0  0  0  0
   49.5955  161.4655   31.1758 H   0  0  0  0  0  0  0  0  0  0  0  0
   52.8571  160.4797   30.1485 H   0  0  0  0  0  0  0  0  0  0  0  0
   53.4293  158.3957   28.9272 H   0  0  0  0  0  0  0  0  0  0  0  0
   53.2698  156.6909   24.9191 H   0  0  0  0  0  0  0  0  0  0  0  0
   53.9863  154.8305   23.4159 H   0  0  0  0  0  0  0  0  0  0  0  0
   53.8512  152.4639   24.2046 H   0  0  0  0  0  0  0  0  0  0  0  0
   53.8100  151.2230   26.6920 H   0  0  0  0  0  0  0  0  0  0  0  0
   51.8570  154.7830   31.1640 H   0  0  0  0  0  0  0  0  0  0  0  0
   49.5677  156.7566   29.9201 H   0  0  0  0  0  0  0  0  0  0  0  0
   48.1881  157.8267   31.4293 H   0  0  0  0  0  0  0  0  0  0  0  0
   46.8801  160.1889   31.1068 H   0  0  0  0  0  0  0  0  0  0  0  0
   48.1286  160.3466   29.8250 H   0  0  0  0  0  0  0  0  0  0  0  0
   47.0143  158.9377   29.8250 H   0  0  0  0  0  0  0  0  0  0  0  0
   48.5388  158.6605   33.4831 H   0  0  0  0  0  0  0  0  0  0  0  0
   49.6399  159.9376   32.8641 H   0  0  0  0  0  0  0  0  0  0  0  0
   47.8637  160.2057   32.8641 H   0  0  0  0  0  0  0  0  0  0  0  0
  1  2  1  0
  2  3  2  0
  3  4  1  0
  4  5  2  0
  5  6  1  0
  6  7  1  0
  7  8  1  0
  8  9  2  0
  9 10  1  0
 10 11  2  0
 11 12  1  0
 12 13  1  0
 12 14  2  0
 14 15  1  0
 15 16  2  0
 15 17  1  0
 17 18  1  0
  5 19  1  0
 19 20  2  0
 20 21  1  0
 21 22  1  0
 21 23  1  0
 20  2  1  0
 17  6  2  0
 14  8  1  0
  1 24  1  0
  1 25  1  0
  1 26  1  0
  3 27  1  0
  4 28  1  0
  9 29  1  0
 10 30  1  0
 11 31  1  0
 13 32  1  0
 18 33  1  0
 19 34  1  0
 21 35  1  0
 22 36  1  0
 22 37  1  0
 22 38  1  0
 23 39  1  0
 23 40  1  0
 23 41  1  0
M  END
>  <meeko>  (2) 
{"is_sidechain": [false], "free_energy": -10.204, "intermolecular_energy": -12.43, "internal_energy": 0.503}

$$$$
cand_009_out
     RDKit          3D

 41 43  0  0  0  0  0  0  0  0999 V2000
   48.6920  160.3760   31.6990 C   0  0  0  0  0  0  0  0  0  0  0  0
   49.5200  159.3680   30.9500 C   0  0  0  0  0  0  0  0  0  0  0  0
   48.9460  158.1210   30.6530 C   0  0  0  0  0  0  0  0  0  0  0  0
   49.6650  157.1420   29.9630 C   0  0  0  0  0  0  0  0  0  0  0  0
   50.9790  157.3800   29.5550 C   0  0  0  0  0  0  0  0  0  0  0  0
   51.7160  156.3420   28.8030 C   0  0  0  0  0  0  0  0  0  0  0  0
   52.2260  156.8080   27.5970 O   0  0  0  0  0  0  0  0  0  0  0  0
   52.9350  155.9470   26.7980 C   0  0  0  0  0  0  0  0  0  0  0  0
   53.4410  156.4620   25.6040 C   0  0  0  0  0  0  0  0  0  0  0  0
   54.1690  155.6370   24.7440 C   0  0  0  0  0  0  0  0  0  0  0  0
   54.3910  154.2990   25.0770 C   0  0  0  0  0  0  0  0  0  0  0  0
   53.8840  153.7890   26.2690 C   0  0  0  0  0  0  0  0  0  0  0  0
   54.1370  152.4700   26.5340 O   0  0  0  0  0  0  0  0  0  0  0  0
   53.1550  154.6140   27.1300 C   0  0  0  0  0  0  0  0  0  0  0  0
   52.6060  154.1170   28.3920 C   0  0  0  0  0  0  0  0  0  0  0  0
   52.7520  152.9510   28.7520 O   0  0  0  0  0  0  0  0  0  0  0  0
   51.8560  155.0750   29.2370 C   0  0  0  0  0  0  0  0  0  0  0  0
   51.3300  154.5910   30.4210 O   0  0  0  0  0  0  0  0  0  0  0  0
   51.5490  158.6290   29.8420 C   0  0  0  0  0  0  0  0  0  0  0  0
   50.8440  159.6340   30.5410 C   0  0  0  0  0  0  0  0  0  0  0  0
   51.5310  160.9650   30.8290 C   0  0  0  0  0  0  0  0  0  0  0  0
   53.0490  160.8640   30.6430 C   0  0  0  0  0  0  0  0  0  0  0  0
   51.1860  161.4890   32.2260 C   0  0  0  0  0  0  0  0  0  0  0  0
   48.8179  160.2227   32.7810 H   0  0  0  0  0  0  0  0  0  0  0  0
   49.0203  161.3913   31.4319 H   0  0  0  0  0  0  0  0  0  0  0  0
   47.6323  160.2512   31.4319 H   0  0  0  0  0  0  0  0  0  0  0  0
   47.9133  157.9118   30.9689 H   0  0  0  0  0  0  0  0  0  0  0  0
   49.1916  156.1747   29.7390 H   0  0  0  0  0  0  0  0  0  0  0  0
   53.2668  157.5157   25.3406 H   0  0  0  0  0  0  0  0  0  0  0  0
   54.5684  156.0418   23.8024 H   0  0  0  0  0  0  0  0  0  0  0  0
   54.9649  153.6499   24.3993 H   0  0  0  0  0  0  0  0  0  0  0  0
   54.2800  151.8710   25.8280 H   0  0  0  0  0  0  0  0  0  0  0  0
   51.7150  154.8340   31.2390 H   0  0  0  0  0  0  0  0  0  0  0  0
   52.5784  158.8326   29.5121 H   0  0  0  0  0  0  0  0  0  0  0  0
   51.1480  161.6907   30.0964 H   0  0  0  0  0  0  0  0  0  0  0  0
   53.5377  160.8315   31.6279 H   0  0  0  0  0  0  0  0  0  0  0  0
   53.2897  159.9479   30.0838 H   0  0  0  0  0  0  0  0  0  0  0  0
   53.4090  161.7402   30.0838 H   0  0  0  0  0  0  0  0  0  0  0  0
   51.6236  160.8243   32.9854 H   0  0  0  0  0  0  0  0  0  0  0  0
   51.5934  162.5034   32.3481 H   0  0  0  0  0  0  0  0  0  0  0  0
   50.0931  161.5157   32.3481 H   0  0  0  0  0  0  0  0  0  0  0  0
  1  2  1  0
  2  3  2  0
  3  4  1  0
  4  5  2  0
  5  6  1  0
  6  7  1  0
  7  8  1  0
  8  9  2  0
  9 10  1  0
 10 11  2  0
 11 12  1  0
 12 13  1  0
 12 14  2  0
 14 15  1  0
 15 16  2  0
 15 17  1  0
 17 18  1  0
  5 19  1  0
 19 20  2  0
 20 21  1  0
 21 22  1  0
 21 23  1  0
 20  2  1  0
 17  6  2  0
 14  8  1  0
  1 24  1  0
  1 25  1  0
  1 26  1  0
  3 27  1  0
  4 28  1  0
  9 29  1  0
 10 30  1  0
 11 31  1  0
 13 32  1  0
 18 33  1  0
 19 34  1  0
 21 35  1  0
 22 36  1  0
 22 37  1  0
 22 38  1  0
 23 39  1  0
 23 40  1  0
 23 41  1  0
M  END
>  <meeko>  (3) 
{"is_sidechain": [false], "free_energy": -9.596, "intermolecular_energy": -11.725, "internal_energy": 0.513}

$$$$
cand_009_out
     RDKit          3D

 41 43  0  0  0  0  0  0  0  0999 V2000
   53.5070  152.5250   26.8730 C   0  0  0  0  0  0  0  0  0  0  0  0
   52.8930  153.7520   27.4890 C   0  0  0  0  0  0  0  0  0  0  0  0
   52.1980  153.6120   28.7020 C   0  0  0  0  0  0  0  0  0  0  0  0
   51.6040  154.7130   29.3240 C   0  0  0  0  0  0  0  0  0  0  0  0
   51.6830  155.9830   28.7490 C   0  0  0  0  0  0  0  0  0  0  0  0
   51.0710  157.1410   29.4340 C   0  0  0  0  0  0  0  0  0  0  0  0
   51.9830  158.1540   29.7050 O   0  0  0  0  0  0  0  0  0  0  0  0
   51.5470  159.2890   30.3380 C   0  0  0  0  0  0  0  0  0  0  0  0
   52.4950  160.2860   30.5760 C   0  0  0  0  0  0  0  0  0  0  0  0
   52.1160  161.4670   31.2190 C   0  0  0  0  0  0  0  0  0  0  0  0
   50.7920  161.6510   31.6230 C   0  0  0  0  0  0  0  0  0  0  0  0
   49.8490  160.6550   31.3840 C   0  0  0  0  0  0  0  0  0  0  0  0
   48.5710  160.8990   31.8070 O   0  0  0  0  0  0  0  0  0  0  0  0
   50.2280  159.4730   30.7410 C   0  0  0  0  0  0  0  0  0  0  0  0
   49.2680  158.4020   30.4700 C   0  0  0  0  0  0  0  0  0  0  0  0
   48.0880  158.4850   30.8020 O   0  0  0  0  0  0  0  0  0  0  0  0
   49.7690  157.1930   29.7750 C   0  0  0  0  0  0  0  0  0  0  0  0
   48.8570  156.1820   29.5370 O   0  0  0  0  0  0  0  0  0  0  0  0
   52.3870  156.1250   27.5440 C   0  0  0  0  0  0  0  0  0  0  0  0
   52.9930  155.0270   26.8940 C   0  0  0  0  0  0  0  0  0  0  0  0
   53.7330  155.2540   25.5790 C   0  0  0  0  0  0  0  0  0  0  0  0
   53.9710  156.7450   25.3190 C   0  0  0  0  0  0  0  0  0  0  0  0
   53.0020  154.6030   24.4000 C   0  0  0  0  0  0  0  0  0  0  0  0
   53.8468  151.8460   27.6689 H   0  0  0  0  0  0  0  0  0  0  0  0
   52.7585  152.0139   26.2498 H   0  0  0  0  0  0  0  0  0  0  0  0
   54.3648  152.8177   26.2498 H   0  0  0  0  0  0  0  0  0  0  0  0
   52.1203  152.6194   29.1696 H   0  0  0  0  0  0  0  0  0  0  0  0
   51.0691  154.5781   30.2756 H   0  0  0  0  0  0  0  0  0  0  0  0
   53.5381  160.1419   30.2579 H   0  0  0  0  0  0  0  0  0  0  0  0
   52.8618  162.2533   31.4074 H   0  0  0  0  0  0  0  0  0  0  0  0
   50.4946  162.5812   32.1292 H   0  0  0  0  0  0  0  0  0  0  0  0
   47.8930  161.0540   31.1800 H   0  0  0  0  0  0  0  0  0  0  0  0
   48.9520  155.6320   28.7840 H   0  0  0  0  0  0  0  0  0  0  0  0
   52.4698  157.1238   27.0906 H   0  0  0  0  0  0  0  0  0  0  0  0
   54.7151  154.7675   25.6731 H   0  0  0  0  0  0  0  0  0  0  0  0
   54.0557  157.2756   26.2788 H   0  0  0  0  0  0  0  0  0  0  0  0
   54.9010  156.8734   24.7458 H   0  0  0  0  0  0  0  0  0  0  0  0
   53.1272  157.1565   24.7458 H   0  0  0  0  0  0  0  0  0  0  0  0
   52.2312  153.9166   24.7804 H   0  0  0  0  0  0  0  0  0  0  0  0
   52.5277  155.3833   23.7867 H   0  0  0  0  0  0  0  0  0  0  0  0
   53.7223  154.0418   23.7867 H   0  0  0  0  0  0  0  0  0  0  0  0
  1  2  1  0
  2  3  2  0
  3  4  1  0
  4  5  2  0
  5  6  1  0
  6  7  1  0
  7  8  1  0
  8  9  2  0
  9 10  1  0
 10 11  2  0
 11 12  1  0
 12 13  1  0
 12 14  2  0
 14 15  1  0
 15 16  2  0
 15 17  1  0
 17 18  1  0
  5 19  1  0
 19 20  2  0
 20 21  1  0
 21 22  1  0
 21 23  1  0
 20  2  1  0
 17  6  2  0
 14  8  1  0
  1 24  1  0
  1 25  1  0
  1 26  1  0
  3 27  1  0
  4 28  1  0
  9 29  1  0
 10 30  1  0
 11 31  1  0
 13 32  1  0
 18 33  1  0
 19 34  1  0
 21 35  1  0
 22 36  1  0
 22 37  1  0
 22 38  1  0
 23 39  1  0
 23 40  1  0
 23 41  1  0
M  END
>  <meeko>  (4) 
{"is_sidechain": [false], "free_energy": -9.183, "intermolecular_energy": -10.563, "internal_energy": -0.165}

$$$$
cand_009_out
     RDKit          3D

 41 43  0  0  0  0  0  0  0  0999 V2000
   54.1300  154.2820   25.3620 C   0  0  0  0  0  0  0  0  0  0  0  0
   53.4200  155.1180   26.3920 C   0  0  0  0  0  0  0  0  0  0  0  0
   53.4840  156.5160   26.2760 C   0  0  0  0  0  0  0  0  0  0  0  0
   52.8480  157.3470   27.2010 C   0  0  0  0  0  0  0  0  0  0  0  0
   52.1350  156.8040   28.2720 C   0  0  0  0  0  0  0  0  0  0  0  0
   51.4470  157.6980   29.2280 C   0  0  0  0  0  0  0  0  0  0  0  0
   52.1860  158.8350   29.5310 O   0  0  0  0  0  0  0  0  0  0  0  0
   51.6630  159.7530   30.4060 C   0  0  0  0  0  0  0  0  0  0  0  0
   52.4330  160.8870   30.6700 C   0  0  0  0  0  0  0  0  0  0  0  0
   51.9600  161.8590   31.5540 C   0  0  0  0  0  0  0  0  0  0  0  0
   50.7180  161.6980   32.1730 C   0  0  0  0  0  0  0  0  0  0  0  0
   49.9530  160.5660   31.9070 C   0  0  0  0  0  0  0  0  0  0  0  0
   48.7470  160.4700   32.5480 O   0  0  0  0  0  0  0  0  0  0  0  0
   50.4260  159.5930   31.0230 C   0  0  0  0  0  0  0  0  0  0  0  0
   49.6530  158.3890   30.7160 C   0  0  0  0  0  0  0  0  0  0  0  0
   48.5570  158.1710   31.2270 O   0  0  0  0  0  0  0  0  0  0  0  0
   50.2410  157.4220   29.7590 C   0  0  0  0  0  0  0  0  0  0  0  0
   49.5080  156.2820   29.4880 O   0  0  0  0  0  0  0  0  0  0  0  0
   52.0620  155.4080   28.3820 C   0  0  0  0  0  0  0  0  0  0  0  0
   52.6990  154.5460   27.4610 C   0  0  0  0  0  0  0  0  0  0  0  0
   52.5870  153.0370   27.6500 C   0  0  0  0  0  0  0  0  0  0  0  0
   51.9650  152.3620   26.4230 C   0  0  0  0  0  0  0  0  0  0  0  0
   51.8080  152.6830   28.9220 C   0  0  0  0  0  0  0  0  0  0  0  0
   54.7626  153.5371   25.8670 H   0  0  0  0  0  0  0  0  0  0  0  0
   53.3887  153.7674   24.7330 H   0  0  0  0  0  0  0  0  0  0  0  0
   54.7578  154.9302   24.7330 H   0  0  0  0  0  0  0  0  0  0  0  0
   54.0446  156.9642   25.4424 H   0  0  0  0  0  0  0  0  0  0  0  0
   52.9093  158.4391   27.0849 H   0  0  0  0  0  0  0  0  0  0  0  0
   53.4108  161.0147   30.1825 H   0  0  0  0  0  0  0  0  0  0  0  0
   52.5662  162.7527   31.7633 H   0  0  0  0  0  0  0  0  0  0  0  0
   50.3455  162.4640   32.8690 H   0  0  0  0  0  0  0  0  0  0  0  0
   48.5980  159.7780   33.1620 H   0  0  0  0  0  0  0  0  0  0  0  0
   49.4220  155.6140   30.1380 H   0  0  0  0  0  0  0  0  0  0  0  0
   51.4899  154.9693   29.2128 H   0  0  0  0  0  0  0  0  0  0  0  0
   53.6101  152.6498   27.7656 H   0  0  0  0  0  0  0  0  0  0  0  0
   51.2534  151.5898   26.7506 H   0  0  0  0  0  0  0  0  0  0  0  0
   51.4370  153.1145   25.8188 H   0  0  0  0  0  0  0  0  0  0  0  0
   52.7580  151.8972   25.8188 H   0  0  0  0  0  0  0  0  0  0  0  0
   52.4051  152.9543   29.8051 H   0  0  0  0  0  0  0  0  0  0  0  0
   50.8584  153.2380   28.9368 H   0  0  0  0  0  0  0  0  0  0  0  0
   51.6015  151.6026   28.9368 H   0  0  0  0  0  0  0  0  0  0  0  0
  1  2  1  0
  2  3  2  0
  3  4  1  0
  4  5  2  0
  5  6  1  0
  6  7  1  0
  7  8  1  0
  8  9  2  0
  9 10  1  0
 10 11  2  0
 11 12  1  0
 12 13  1  0
 12 14  2  0
 14 15  1  0
 15 16  2  0
 15 17  1  0
 17 18  1  0
  5 19  1  0
 19 20  2  0
 20 21  1  0
 21 22  1  0
 21 23  1  0
 20  2  1  0
 17  6  2  0
 14  8  1  0
  1 24  1  0
  1 25  1  0
  1 26  1  0
  3 27  1  0
  4 28  1  0
  9 29  1  0
 10 30  1  0
 11 31  1  0
 13 32  1  0
 18 33  1  0
 19 34  1  0
 21 35  1  0
 22 36  1  0
 22 37  1  0
 22 38  1  0
 23 39  1  0
 23 40  1  0
 23 41  1  0
M  END
>  <meeko>  (5) 
{"is_sidechain": [false], "free_energy": -7.56, "intermolecular_energy": -9.061, "internal_energy": 0.241}

$$$$
cand_009_out
     RDKit          3D

 41 43  0  0  0  0  0  0  0  0999 V2000
   49.1900  158.3450   31.2790 C   0  0  0  0  0  0  0  0  0  0  0  0
   50.0430  157.6460   30.2560 C   0  0  0  0  0  0  0  0  0  0  0  0
   49.8620  156.2650   30.0680 C   0  0  0  0  0  0  0  0  0  0  0  0
   50.6230  155.5590   29.1350 C   0  0  0  0  0  0  0  0  0  0  0  0
   51.5920  156.2100   28.3670 C   0  0  0  0  0  0  0  0  0  0  0  0
   52.3710  155.4500   27.3670 C   0  0  0  0  0  0  0  0  0  0  0  0
   52.1030  154.0870   27.3950 O   0  0  0  0  0  0  0  0  0  0  0  0
   52.7570  153.2630   26.5150 C   0  0  0  0  0  0  0  0  0  0  0  0
   52.4460  151.9030   26.5680 C   0  0  0  0  0  0  0  0  0  0  0  0
   53.0790  151.0100   25.7010 C   0  0  0  0  0  0  0  0  0  0  0  0
   54.0220  151.4750   24.7820 C   0  0  0  0  0  0  0  0  0  0  0  0
   54.3310  152.8310   24.7320 C   0  0  0  0  0  0  0  0  0  0  0  0
   55.2640  153.2190   23.8100 O   0  0  0  0  0  0  0  0  0  0  0  0
   53.6970  153.7260   25.6000 C   0  0  0  0  0  0  0  0  0  0  0  0
   53.9930  155.1590   25.5790 C   0  0  0  0  0  0  0  0  0  0  0  0
   54.8160  155.6430   24.8060 O   0  0  0  0  0  0  0  0  0  0  0  0
   53.2600  156.0230   26.5340 C   0  0  0  0  0  0  0  0  0  0  0  0
   53.5570  157.3730   26.5150 O   0  0  0  0  0  0  0  0  0  0  0  0
   51.7650  157.5900   28.5470 C   0  0  0  0  0  0  0  0  0  0  0  0
   51.0100  158.3270   29.4870 C   0  0  0  0  0  0  0  0  0  0  0  0
   51.2600  159.8230   29.6360 C   0  0  0  0  0  0  0  0  0  0  0  0
   52.0410  160.1360   30.9170 C   0  0  0  0  0  0  0  0  0  0  0  0
   49.9540  160.6230   29.5830 C   0  0  0  0  0  0  0  0  0  0  0  0
   49.5276  158.0683   32.2887 H   0  0  0  0  0  0  0  0  0  0  0  0
   49.2786  159.4336   31.1482 H   0  0  0  0  0  0  0  0  0  0  0  0
   48.1400  158.0442   31.1482 H   0  0  0  0  0  0  0  0  0  0  0  0
   49.1082  155.7318   30.6660 H   0  0  0  0  0  0  0  0  0  0  0  0
   50.4583  154.4794   29.0029 H   0  0  0  0  0  0  0  0  0  0  0  0
   51.7035  151.5355   27.2916 H   0  0  0  0  0  0  0  0  0  0  0  0
   52.8344  149.9383   25.7420 H   0  0  0  0  0  0  0  0  0  0  0  0
   54.5196  150.7709   24.0989 H   0  0  0  0  0  0  0  0  0  0  0  0
   56.1770  153.1510   24.0110 H   0  0  0  0  0  0  0  0  0  0  0  0
   52.9470  157.9930   26.8640 H   0  0  0  0  0  0  0  0  0  0  0  0
   52.5133  158.1162   27.9361 H   0  0  0  0  0  0  0  0  0  0  0  0
   51.8767  160.1338   28.7798 H   0  0  0  0  0  0  0  0  0  0  0  0
   51.4232  159.8884   31.7928 H   0  0  0  0  0  0  0  0  0  0  0  0
   52.9643  159.5384   30.9388 H   0  0  0  0  0  0  0  0  0  0  0  0
   52.2960  161.2058   30.9388 H   0  0  0  0  0  0  0  0  0  0  0  0
   49.6109  160.8331   30.6068 H   0  0  0  0  0  0  0  0  0  0  0  0
   50.1260  161.5709   29.0521 H   0  0  0  0  0  0  0  0  0  0  0  0
   49.1877  160.0392   29.0521 H   0  0  0  0  0  0  0  0  0  0  0  0
  1  2  1  0
  2  3  2  0
  3  4  1  0
  4  5  2  0
  5  6  1  0
  6  7  1  0
  7  8  1  0
  8  9  2  0
  9 10  1  0
 10 11  2  0
 11 12  1  0
 12 13  1  0
 12 14  2  0
 14 15  1  0
 15 16  2  0
 15 17  1  0
 17 18  1  0
  5 19  1  0
 19 20  2  0
 20 21  1  0
 21 22  1  0
 21 23  1  0
 20  2  1  0
 17  6  2  0
 14  8  1  0
  1 24  1  0
  1 25  1  0
  1 26  1  0
  3 27  1  0
  4 28  1  0
  9 29  1  0
 10 30  1  0
 11 31  1  0
 13 32  1  0
 18 33  1  0
 19 34  1  0
 21 35  1  0
 22 36  1  0
 22 37  1  0
 22 38  1  0
 23 39  1  0
 23 40  1  0
 23 41  1  0
M  END
>  <meeko>  (6) 
{"is_sidechain": [false], "free_energy": -7.508, "intermolecular_energy": -9.584, "internal_energy": 0.826}

$$$$
cand_009_out
     RDKit          3D

 41 43  0  0  0  0  0  0  0  0999 V2000
   53.5870  154.2880   25.9340 C   0  0  0  0  0  0  0  0  0  0  0  0
   53.0350  155.2840   26.9170 C   0  0  0  0  0  0  0  0  0  0  0  0
   53.1470  156.6510   26.6160 C   0  0  0  0  0  0  0  0  0  0  0  0
   52.6560  157.6250   27.4890 C   0  0  0  0  0  0  0  0  0  0  0  0
   52.0440  157.2600   28.6900 C   0  0  0  0  0  0  0  0  0  0  0  0
   51.5070  158.3030   29.5890 C   0  0  0  0  0  0  0  0  0  0  0  0
   50.1550  158.1330   29.8670 O   0  0  0  0  0  0  0  0  0  0  0  0
   49.5290  159.0320   30.6930 C   0  0  0  0  0  0  0  0  0  0  0  0
   48.1760  158.8140   30.9560 C   0  0  0  0  0  0  0  0  0  0  0  0
   47.4790  159.6940   31.7870 C   0  0  0  0  0  0  0  0  0  0  0  0
   48.1330  160.7900   32.3540 C   0  0  0  0  0  0  0  0  0  0  0  0
   49.4830  161.0040   32.0890 C   0  0  0  0  0  0  0  0  0  0  0  0
   50.0620  162.0970   32.6750 O   0  0  0  0  0  0  0  0  0  0  0  0
   50.1810  160.1240   31.2580 C   0  0  0  0  0  0  0  0  0  0  0  0
   51.6000  160.3130   30.9540 C   0  0  0  0  0  0  0  0  0  0  0  0
   52.2430  161.2570   31.4080 O   0  0  0  0  0  0  0  0  0  0  0  0
   52.2500  159.3180   30.0680 C   0  0  0  0  0  0  0  0  0  0  0  0
   53.5870  159.5140   29.7780 O   0  0  0  0  0  0  0  0  0  0  0  0
   51.9210  155.8940   28.9850 C   0  0  0  0  0  0  0  0  0  0  0  0
   52.4130  154.8910   28.1210 C   0  0  0  0  0  0  0  0  0  0  0  0
   52.2550  153.4250   28.5130 C   0  0  0  0  0  0  0  0  0  0  0  0
   51.6130  152.6090   27.3860 C   0  0  0  0  0  0  0  0  0  0  0  0
   51.4660  153.2710   29.8170 C   0  0  0  0  0  0  0  0  0  0  0  0
   54.0501  153.4525   26.4795 H   0  0  0  0  0  0  0  0  0  0  0  0
   52.7717  153.9062   25.3019 H   0  0  0  0  0  0  0  0  0  0  0  0
   54.3429  154.7770   25.3019 H   0  0  0  0  0  0  0  0  0  0  0  0
   53.6295  156.9602   25.6770 H   0  0  0  0  0  0  0  0  0  0  0  0
   52.7524  158.6892   27.2279 H   0  0  0  0  0  0  0  0  0  0  0  0
   47.6597  157.9512   30.5099 H   0  0  0  0  0  0  0  0  0  0  0  0
   46.4125  159.5234   31.9954 H   0  0  0  0  0  0  0  0  0  0  0  0
   47.5830  161.4824   33.0083 H   0  0  0  0  0  0  0  0  0  0  0  0
   50.5900  161.9910   33.4420 H   0  0  0  0  0  0  0  0  0  0  0  0
   54.0310  160.2730   30.1010 H   0  0  0  0  0  0  0  0  0  0  0  0
   51.4251  155.5943   29.9200 H   0  0  0  0  0  0  0  0  0  0  0  0
   53.2656  153.0261   28.6848 H   0  0  0  0  0  0  0  0  0  0  0  0
   50.9878  151.8143   27.8190 H   0  0  0  0  0  0  0  0  0  0  0  0
   50.9893  153.2688   26.7650 H   0  0  0  0  0  0  0  0  0  0  0  0
   52.4011  152.1581   26.7650 H   0  0  0  0  0  0  0  0  0  0  0  0
   52.1436  153.4033   30.6734 H   0  0  0  0  0  0  0  0  0  0  0  0
   50.6718  154.0311   29.8570 H   0  0  0  0  0  0  0  0  0  0  0  0
   51.0160  152.2681   29.8570 H   0  0  0  0  0  0  0  0  0  0  0  0
  1  2  1  0
  2  3  2  0
  3  4  1  0
  4  5  2  0
  5  6  1  0
  6  7  1  0
  7  8  1  0
  8  9  2  0
  9 10  1  0
 10 11  2  0
 11 12  1  0
 12 13  1  0
 12 14  2  0
 14 15  1  0
 15 16  2  0
 15 17  1  0
 17 18  1  0
  5 19  1  0
 19 20  2  0
 20 21  1  0
 21 22  1  0
 21 23  1  0
 20  2  1  0
 17  6  2  0
 14  8  1  0
  1 24  1  0
  1 25  1  0
  1 26  1  0
  3 27  1  0
  4 28  1  0
  9 29  1  0
 10 30  1  0
 11 31  1  0
 13 32  1  0
 18 33  1  0
 19 34  1  0
 21 35  1  0
 22 36  1  0
 22 37  1  0
 22 38  1  0
 23 39  1  0
 23 40  1  0
 23 41  1  0
M  END
>  <meeko>  (7) 
{"is_sidechain": [false], "free_energy": -7.479, "intermolecular_energy": -8.915, "internal_energy": 0.191}

$$$$
