cand_033_out
     RDKit          3D

 44 46  0  0  0  0  0  0  0  0999 V2000
   46.9920  160.0230   31.3350 C   0  0  0  0  0  0  0  0  0  0  0  0
   47.8860  159.2720   30.3610 C   0  0  0  0  0  0  0  0  0  0  0  0
   48.8560  158.3440   31.0960 C   0  0  0  0  0  0  0  0  0  0  0  0
   50.1920  158.2590   30.3910 C   0  0  0  0  0  0  0  0  0  0  0  0
   50.5040  157.0620   29.7130 C   0  0  0  0  0  0  0  0  0  0  0  0
   51.7260  156.8830   29.0510 C   0  0  0  0  0  0  0  0  0  0  0  0
   52.0400  155.6370   28.3190 C   0  0  0  0  0  0  0  0  0  0  0  0
   52.5840  155.8730   27.0610 O   0  0  0  0  0  0  0  0  0  0  0  0
   52.9220  154.8030   26.2730 C   0  0  0  0  0  0  0  0  0  0  0  0
   53.4500  155.0860   25.0130 C   0  0  0  0  0  0  0  0  0  0  0  0
   53.8160  154.0420   24.1600 C   0  0  0  0  0  0  0  0  0  0  0  0
   53.6560  152.7160   24.5690 C   0  0  0  0  0  0  0  0  0  0  0  0
   53.1300  152.4370   25.8270 C   0  0  0  0  0  0  0  0  0  0  0  0
   53.0010  151.1180   26.1640 O   0  0  0  0  0  0  0  0  0  0  0  0
   52.7630  153.4820   26.6790 C   0  0  0  0  0  0  0  0  0  0  0  0
   52.2050  153.2330   28.0100 C   0  0  0  0  0  0  0  0  0  0  0  0
   52.0410  152.0940   28.4430 O   0  0  0  0  0  0  0  0  0  0  0  0
   51.8400  154.4090   28.8310 C   0  0  0  0  0  0  0  0  0  0  0  0
   51.3270  154.1620   30.0910 O   0  0  0  0  0  0  0  0  0  0  0  0
   52.6440  157.9370   29.0590 C   0  0  0  0  0  0  0  0  0  0  0  0
   52.3550  159.1280   29.7290 C   0  0  0  0  0  0  0  0  0  0  0  0
   51.1380  159.3020   30.4090 C   0  0  0  0  0  0  0  0  0  0  0  0
   50.8950  160.6230   31.1040 C   0  0  0  0  0  0  0  0  0  0  0  0
   52.1740  161.4370   31.2410 C   0  0  0  0  0  0  0  0  0  0  0  0
   47.2851  159.7768   32.3662 H   0  0  0  0  0  0  0  0  0  0  0  0
   47.0998  161.1055   31.1717 H   0  0  0  0  0  0  0  0  0  0  0  0
   45.9444  159.7300   31.1717 H   0  0  0  0  0  0  0  0  0  0  0  0
   47.2568  158.6714   29.6877 H   0  0  0  0  0  0  0  0  0  0  0  0
   48.4739  160.0077   29.7926 H   0  0  0  0  0  0  0  0  0  0  0  0
   49.0142  158.7282   32.1145 H   0  0  0  0  0  0  0  0  0  0  0  0
   48.4156  157.3363   31.1187 H   0  0  0  0  0  0  0  0  0  0  0  0
   49.7668  156.2456   29.7037 H   0  0  0  0  0  0  0  0  0  0  0  0
   53.5780  156.1302   24.6916 H   0  0  0  0  0  0  0  0  0  0  0  0
   54.2305  154.2643   23.1656 H   0  0  0  0  0  0  0  0  0  0  0  0
   53.9452  151.8937   23.8980 H   0  0  0  0  0  0  0  0  0  0  0  0
   53.1530  150.4530   25.5210 H   0  0  0  0  0  0  0  0  0  0  0  0
   51.4140  153.3110   30.4740 H   0  0  0  0  0  0  0  0  0  0  0  0
   53.6035  157.8274   28.5324 H   0  0  0  0  0  0  0  0  0  0  0  0
   53.0929  159.9437   29.7241 H   0  0  0  0  0  0  0  0  0  0  0  0
   50.1653  161.2030   30.5199 H   0  0  0  0  0  0  0  0  0  0  0  0
   50.5161  160.4114   32.1148 H   0  0  0  0  0  0  0  0  0  0  0  0
   52.4033  161.5830   32.3069 H   0  0  0  0  0  0  0  0  0  0  0  0
   53.0037  160.9004   30.7576 H   0  0  0  0  0  0  0  0  0  0  0  0
   52.0392  162.4158   30.7576 H   0  0  0  0  0  0  0  0  0  0  0  0
  1  2  1  0
  2  3  1  0
  3  4  1  0
  4  5  2  0
  5  6  1  0
  6  7  1  0
  7  8  1  0
  8  9  1  0
  9 10  2  0
 10 11  1  0
 11 12  2  0
 12 13  1  0
 13 14  1  0
 13 15  2  0
 15 16  1  0
 16 17  2  0
 16 18  1  0
 18 19  1  0
  6 20  2  0
 20 21  1  0
 21 22  2  0
 22 23  1  0
 23 24  1  0
 22  4  1  0
 18  7  2  0
 15  9  1  0
  1 25  1  0
  1 26  1  0
  1 27  1  0
  2 28  1  0
  2 29  1  0
  3 30  1  0
  3 31  1  0
  5 32  1  0
 10 33  1  0
 11 34  1  0
 12 35  1  0
 14 36  1  0
 19 37  1  0
 20 38  1  0
 21 39  1  0
 23 40  1  0
 23 41  1  0
 24 42  1  0
 24 43  1  0
 24 44  1  0
M  END
>  <meeko>  (1) 
{"is_sidechain": [false], "free_energy": -10.357, "intermolecular_energy": -13.384, "internal_energy": -0.354}

$$$$
cand_033_out
     RDKit          3D

 44 46  0  0  0  0  0  0  0  0999 V2000
   53.9020  162.2390   31.1710 C   0  0  0  0  0  0  0  0  0  0  0  0
   52.8210  161.2180   31.4880 C   0  0  0  0  0  0  0  0  0  0  0  0
   51.7480  161.1840   30.3970 C   0  0  0  0  0  0  0  0  0  0  0  0
   51.0340  159.8510   30.3560 C   0  0  0  0  0  0  0  0  0  0  0  0
   51.6440  158.7980   29.6440 C   0  0  0  0  0  0  0  0  0  0  0  0
   51.0470  157.5350   29.5320 C   0  0  0  0  0  0  0  0  0  0  0  0
   51.7000  156.4250   28.8070 C   0  0  0  0  0  0  0  0  0  0  0  0
   52.2470  156.8220   27.5920 O   0  0  0  0  0  0  0  0  0  0  0  0
   52.8840  155.8890   26.8130 C   0  0  0  0  0  0  0  0  0  0  0  0
   53.4040  156.3290   25.5960 C   0  0  0  0  0  0  0  0  0  0  0  0
   54.0650  155.4300   24.7560 C   0  0  0  0  0  0  0  0  0  0  0  0
   54.2080  154.0930   25.1350 C   0  0  0  0  0  0  0  0  0  0  0  0
   53.6880  153.6580   26.3510 C   0  0  0  0  0  0  0  0  0  0  0  0
   53.8640  152.3370   26.6600 O   0  0  0  0  0  0  0  0  0  0  0  0
   53.0260  154.5570   27.1900 C   0  0  0  0  0  0  0  0  0  0  0  0
   52.4640  154.1410   28.4770 C   0  0  0  0  0  0  0  0  0  0  0  0
   52.5550  152.9840   28.8820 O   0  0  0  0  0  0  0  0  0  0  0  0
   51.7740  155.1700   29.2880 C   0  0  0  0  0  0  0  0  0  0  0  0
   51.2590  154.7680   30.5070 O   0  0  0  0  0  0  0  0  0  0  0  0
   49.8180  157.3260   30.1650 C   0  0  0  0  0  0  0  0  0  0  0  0
   49.1950  158.3580   30.8700 C   0  0  0  0  0  0  0  0  0  0  0  0
   49.7840  159.6300   30.9680 C   0  0  0  0  0  0  0  0  0  0  0  0
   49.0520  160.6930   31.7560 C   0  0  0  0  0  0  0  0  0  0  0  0
   49.3320  160.5880   33.2480 C   0  0  0  0  0  0  0  0  0  0  0  0
   54.3199  162.6337   32.1088 H   0  0  0  0  0  0  0  0  0  0  0  0
   54.7008  161.7580   30.5874 H   0  0  0  0  0  0  0  0  0  0  0  0
   53.4674  163.0639   30.5874 H   0  0  0  0  0  0  0  0  0  0  0  0
   53.2816  160.2223   31.5682 H   0  0  0  0  0  0  0  0  0  0  0  0
   52.3420  161.5039   32.4360 H   0  0  0  0  0  0  0  0  0  0  0  0
   51.0119  161.9768   30.5961 H   0  0  0  0  0  0  0  0  0  0  0  0
   52.2411  161.3389   29.4260 H   0  0  0  0  0  0  0  0  0  0  0  0
   52.6173  158.9730   29.1622 H   0  0  0  0  0  0  0  0  0  0  0  0
   53.2937  157.3822   25.2982 H   0  0  0  0  0  0  0  0  0  0  0  0
   54.4735  155.7751   23.7948 H   0  0  0  0  0  0  0  0  0  0  0  0
   54.7303  153.3855   24.4741 H   0  0  0  0  0  0  0  0  0  0  0  0
   53.4130  151.6770   26.1710 H   0  0  0  0  0  0  0  0  0  0  0  0
   51.8210  154.3770   31.1460 H   0  0  0  0  0  0  0  0  0  0  0  0
   49.3369  156.3385   30.1071 H   0  0  0  0  0  0  0  0  0  0  0  0
   48.2264  158.1719   31.3570 H   0  0  0  0  0  0  0  0  0  0  0  0
   49.3751  161.6833   31.4025 H   0  0  0  0  0  0  0  0  0  0  0  0
   47.9725  160.5490   31.6011 H   0  0  0  0  0  0  0  0  0  0  0  0
   48.4473  160.9197   33.8113 H   0  0  0  0  0  0  0  0  0  0  0  0
   49.5602  159.5432   33.5056 H   0  0  0  0  0  0  0  0  0  0  0  0
   50.1909  161.2251   33.5056 H   0  0  0  0  0  0  0  0  0  0  0  0
  1  2  1  0
  2  3  1  0
  3  4  1  0
  4  5  2  0
  5  6  1  0
  6  7  1  0
  7  8  1  0
  8  9  1  0
  9 10  2  0
 10 11  1  0
 11 12  2  0
 12 13  1  0
 13 14  1  0
 13 15  2  0
 15 16  1  0
 16 17  2  0
 16 18  1  0
 18 19  1  0
  6 20  2  0
 20 21  1  0
 21 22  2  0
 22 23  1  0
 23 24  1  0
 22  4  1  0
 18  7  2  0
 15  9  1  0
  1 25  1  0
  1 26  1  0
  1 27  1  0
  2 28  1  0
  2 29  1  0
  3 30  1  0
  3 31  1  0
  5 32  1  0
 10 33  1  0
 11 34  1  0
 12 35  1  0
 14 36  1  0
 19 37  1  0
 20 38  1  0
 21 39  1  0
 23 40  1  0
 23 41  1  0
 24 42  1  0
 24 43  1  0
 24 44  1  0
M  END
>  <meeko>  (2) 
{"is_sidechain": [false], "free_energy": -10.221, "intermolecular_energy": -13.096, "internal_energy": -0.467}

$$$$
cand_033_out
     RDKit          3D

 44 46  0  0  0  0  0  0  0  0999 V2000
   54.7210  156.7380   24.4680 C   0  0  0  0  0  0  0  0  0  0  0  0
   54.5070  155.2760   24.8220 C   0  0  0  0  0  0  0  0  0  0  0  0
   53.0170  154.9360   24.9130 C   0  0  0  0  0  0  0  0  0  0  0  0
   52.5630  154.7880   26.3480 C   0  0  0  0  0  0  0  0  0  0  0  0
   52.2760  155.9640   27.0730 C   0  0  0  0  0  0  0  0  0  0  0  0
   51.8700  155.9280   28.4140 C   0  0  0  0  0  0  0  0  0  0  0  0
   51.5450  157.1590   29.1640 C   0  0  0  0  0  0  0  0  0  0  0  0
   50.2390  157.1720   29.6400 O   0  0  0  0  0  0  0  0  0  0  0  0
   49.8030  158.2590   30.3550 C   0  0  0  0  0  0  0  0  0  0  0  0
   48.4820  158.2360   30.8010 C   0  0  0  0  0  0  0  0  0  0  0  0
   47.9750  159.3110   31.5350 C   0  0  0  0  0  0  0  0  0  0  0  0
   48.7910  160.4070   31.8240 C   0  0  0  0  0  0  0  0  0  0  0  0
   50.1100  160.4270   31.3770 C   0  0  0  0  0  0  0  0  0  0  0  0
   50.8530  161.5300   31.6950 O   0  0  0  0  0  0  0  0  0  0  0  0
   50.6150  159.3520   30.6420 C   0  0  0  0  0  0  0  0  0  0  0  0
   51.9960  159.3320   30.1540 C   0  0  0  0  0  0  0  0  0  0  0  0
   52.7750  160.2570   30.3730 O   0  0  0  0  0  0  0  0  0  0  0  0
   52.4310  158.1490   29.3770 C   0  0  0  0  0  0  0  0  0  0  0  0
   53.7400  158.1360   28.9320 O   0  0  0  0  0  0  0  0  0  0  0  0
   51.7360  154.6800   29.0310 C   0  0  0  0  0  0  0  0  0  0  0  0
   52.0200  153.5050   28.3310 C   0  0  0  0  0  0  0  0  0  0  0  0
   52.4450  153.5410   26.9920 C   0  0  0  0  0  0  0  0  0  0  0  0
   52.7260  152.2260   26.3010 C   0  0  0  0  0  0  0  0  0  0  0  0
   54.1970  152.0760   25.9410 C   0  0  0  0  0  0  0  0  0  0  0  0
   54.8076  157.3299   25.3911 H   0  0  0  0  0  0  0  0  0  0  0  0
   55.6438  156.8412   23.8783 H   0  0  0  0  0  0  0  0  0  0  0  0
   53.8665  157.1014   23.8783 H   0  0  0  0  0  0  0  0  0  0  0  0
   54.9707  154.6484   24.0467 H   0  0  0  0  0  0  0  0  0  0  0  0
   54.9661  155.0865   25.8035 H   0  0  0  0  0  0  0  0  0  0  0  0
   52.4380  155.7413   24.4373 H   0  0  0  0  0  0  0  0  0  0  0  0
   52.8526  153.9764   24.4009 H   0  0  0  0  0  0  0  0  0  0  0  0
   52.3738  156.9378   26.5709 H   0  0  0  0  0  0  0  0  0  0  0  0
   47.8397  157.3721   30.5750 H   0  0  0  0  0  0  0  0  0  0  0  0
   46.9325  159.2943   31.8856 H   0  0  0  0  0  0  0  0  0  0  0  0
   48.3927  161.2529   32.4036 H   0  0  0  0  0  0  0  0  0  0  0  0
   51.0060  161.7500   32.5940 H   0  0  0  0  0  0  0  0  0  0  0  0
   54.4350  157.9290   29.5260 H   0  0  0  0  0  0  0  0  0  0  0  0
   51.4036  154.6232   30.0780 H   0  0  0  0  0  0  0  0  0  0  0  0
   51.9090  152.5345   28.8368 H   0  0  0  0  0  0  0  0  0  0  0  0
   52.4386  151.4032   26.9722 H   0  0  0  0  0  0  0  0  0  0  0  0
   52.1429  152.1999   25.3686 H   0  0  0  0  0  0  0  0  0  0  0  0
   54.7955  152.0150   26.8619 H   0  0  0  0  0  0  0  0  0  0  0  0
   54.3383  151.1588   25.3504 H   0  0  0  0  0  0  0  0  0  0  0  0
   54.5205  152.9458   25.3504 H   0  0  0  0  0  0  0  0  0  0  0  0
  1  2  1  0
  2  3  1  0
  3  4  1  0
  4  5  2  0
  5  6  1  0
  6  7  1  0
  7  8  1  0
  8  9  1  0
  9 10  2  0
 10 11  1  0
 11 12  2  0
 12 13  1  0
 13 14  1  0
 13 15  2  0
 15 16  1  0
 16 17  2  0
 16 18  1  0
 18 19  1  0
  6 20  2  0
 20 21  1  0
 21 22  2  0
 22 23  1  0
 23 24  1  0
 22  4  1  0
 18  7  2  0
 15  9  1  0
  1 25  1  0
  1 26  1  0
  1 27  1  0
  2 28  1  0
  2 29  1  0
  3 30  1  0
  3 31  1  0
  5 32  1  0
 10 33  1  0
 11 34  1  0
 12 35  1  0
 14 36  1  0
 19 37  1  0
 20 38  1  0
 21 39  1  0
 23 40  1  0
 23 41  1  0
 24 42  1  0
 24 43  1  0
 24 44  1  0
M  END
>  <meeko>  (3) 
{"is_sidechain": [false], "free_energy": -9.908, "intermolecular_energy": -12.842, "internal_energy": -0.316}

$$$$
cand_033_out
     RDKit          3D

 44 46  0  0  0  0  0  0  0  0999 V2000
   53.9100  154.0680   24.0220 C   0  0  0  0  0  0  0  0  0  0  0  0
   52.9610  155.0360   24.7090 C   0  0  0  0  0  0  0  0  0  0  0  0
   53.6210  155.7010   25.9190 C   0  0  0  0  0  0  0  0  0  0  0  0
   52.8540  155.4310   27.1940 C   0  0  0  0  0  0  0  0  0  0  0  0
   52.2610  156.5280   27.8530 C   0  0  0  0  0  0  0  0  0  0  0  0
   51.5500  156.3780   29.0510 C   0  0  0  0  0  0  0  0  0  0  0  0
   50.9080  157.5250   29.7260 C   0  0  0  0  0  0  0  0  0  0  0  0
   51.8020  158.5500   30.0160 O   0  0  0  0  0  0  0  0  0  0  0  0
   51.3390  159.6780   30.6450 C   0  0  0  0  0  0  0  0  0  0  0  0
   52.2730  160.6740   30.9290 C   0  0  0  0  0  0  0  0  0  0  0  0
   51.8670  161.8480   31.5680 C   0  0  0  0  0  0  0  0  0  0  0  0
   50.5270  162.0260   31.9190 C   0  0  0  0  0  0  0  0  0  0  0  0
   49.5970  161.0300   31.6320 C   0  0  0  0  0  0  0  0  0  0  0  0
   48.3020  161.2700   32.0030 O   0  0  0  0  0  0  0  0  0  0  0  0
   50.0040  159.8560   30.9950 C   0  0  0  0  0  0  0  0  0  0  0  0
   49.0590  158.7840   30.6760 C   0  0  0  0  0  0  0  0  0  0  0  0
   47.8630  158.8700   30.9480 O   0  0  0  0  0  0  0  0  0  0  0  0
   49.5930  157.5760   30.0080 C   0  0  0  0  0  0  0  0  0  0  0  0
   48.6890  156.5750   29.7000 O   0  0  0  0  0  0  0  0  0  0  0  0
   51.4220  155.0930   29.5880 C   0  0  0  0  0  0  0  0  0  0  0  0
   52.0070  153.9940   28.9530 C   0  0  0  0  0  0  0  0  0  0  0  0
   52.7350  154.1460   27.7610 C   0  0  0  0  0  0  0  0  0  0  0  0
   53.3300  152.9080   27.1300 C   0  0  0  0  0  0  0  0  0  0  0  0
   52.2570  151.9450   26.6450 C   0  0  0  0  0  0  0  0  0  0  0  0
   54.4672  153.4997   24.7813 H   0  0  0  0  0  0  0  0  0  0  0  0
   53.3335  153.3731   23.3937 H   0  0  0  0  0  0  0  0  0  0  0  0
   54.6162  154.6306   23.3937 H   0  0  0  0  0  0  0  0  0  0  0  0
   52.6624  155.8144   23.9914 H   0  0  0  0  0  0  0  0  0  0  0  0
   52.0845  154.4713   25.0596 H   0  0  0  0  0  0  0  0  0  0  0  0
   54.6428  155.3086   26.0280 H   0  0  0  0  0  0  0  0  0  0  0  0
   53.6317  156.7878   25.7492 H   0  0  0  0  0  0  0  0  0  0  0  0
   52.3597  157.5314   27.4132 H   0  0  0  0  0  0  0  0  0  0  0  0
   53.3280  160.5353   30.6502 H   0  0  0  0  0  0  0  0  0  0  0  0
   52.6034  162.6330   31.7949 H   0  0  0  0  0  0  0  0  0  0  0  0
   50.2069  162.9509   32.4211 H   0  0  0  0  0  0  0  0  0  0  0  0
   47.8570  160.6680   32.5670 H   0  0  0  0  0  0  0  0  0  0  0  0
   48.5170  155.8930   30.3180 H   0  0  0  0  0  0  0  0  0  0  0  0
   50.8553  154.9459   30.5193 H   0  0  0  0  0  0  0  0  0  0  0  0
   51.8955  152.9925   29.3942 H   0  0  0  0  0  0  0  0  0  0  0  0
   53.9507  153.2092   26.2732 H   0  0  0  0  0  0  0  0  0  0  0  0
   53.9303  152.3919   27.8937 H   0  0  0  0  0  0  0  0  0  0  0  0
   51.7523  151.4920   27.5111 H   0  0  0  0  0  0  0  0  0  0  0  0
   51.5215  152.4917   26.0366 H   0  0  0  0  0  0  0  0  0  0  0  0
   52.7213  151.1549   26.0366 H   0  0  0  0  0  0  0  0  0  0  0  0
  1  2  1  0
  2  3  1  0
  3  4  1  0
  4  5  2  0
  5  6  1  0
  6  7  1  0
  7  8  1  0
  8  9  1  0
  9 10  2  0
 10 11  1  0
 11 12  2  0
 12 13  1  0
 13 14  1  0
 13 15  2  0
 15 16  1  0
 16 17  2  0
 16 18  1  0
 18 19  1  0
  6 20  2  0
 20 21  1  0
 21 22  2  0
 22 23  1  0
 23 24  1  0
 22  4  1  0
 18  7  2  0
 15  9  1  0
  1 25  1  0
  1 26  1  0
  1 27  1  0
  2 28  1  0
  2 29  1  0
  3 30  1  0
  3 31  1  0
  5 32  1  0
 10 33  1  0
 11 34  1  0
 12 35  1  0
 14 36  1  0
 19 37  1  0
 20 38  1  0
 21 39  1  0
 23 40  1  0
 23 41  1  0
 24 42  1  0
 24 43  1  0
 24 44  1  0
M  END
>  <meeko>  (4) 
{"is_sidechain": [false], "free_energy": -8.923, "intermolecular_energy": -11.616, "internal_energy": -0.27}

$$$$
cand_033_out
     RDKit          3D

 44 46  0  0  0  0  0  0  0  0999 V2000
   51.2930  161.3510   31.2670 C   0  0  0  0  0  0  0  0  0  0  0  0
   51.0720  160.4120   30.0920 C   0  0  0  0  0  0  0  0  0  0  0  0
   52.0790  159.2600   30.1010 C   0  0  0  0  0  0  0  0  0  0  0  0
   51.4370  157.9520   29.6930 C   0  0  0  0  0  0  0  0  0  0  0  0
   52.1190  157.1470   28.7580 C   0  0  0  0  0  0  0  0  0  0  0  0
   51.5930  155.9300   28.3030 C   0  0  0  0  0  0  0  0  0  0  0  0
   52.3220  155.0750   27.3430 C   0  0  0  0  0  0  0  0  0  0  0  0
   51.9780  153.7310   27.4470 O   0  0  0  0  0  0  0  0  0  0  0  0
   52.5810  152.8250   26.6140 C   0  0  0  0  0  0  0  0  0  0  0  0
   52.2170  151.4860   26.7630 C   0  0  0  0  0  0  0  0  0  0  0  0
   52.7930  150.5120   25.9450 C   0  0  0  0  0  0  0  0  0  0  0  0
   53.7320  150.8760   24.9780 C   0  0  0  0  0  0  0  0  0  0  0  0
   54.0930  152.2130   24.8310 C   0  0  0  0  0  0  0  0  0  0  0  0
   55.0170  152.5000   23.8640 O   0  0  0  0  0  0  0  0  0  0  0  0
   53.5170  153.1870   25.6500 C   0  0  0  0  0  0  0  0  0  0  0  0
   53.8680  154.6030   25.5290 C   0  0  0  0  0  0  0  0  0  0  0  0
   54.6810  155.0020   24.6970 O   0  0  0  0  0  0  0  0  0  0  0  0
   53.2070  155.5550   26.4510 C   0  0  0  0  0  0  0  0  0  0  0  0
   53.5370  156.8910   26.3180 O   0  0  0  0  0  0  0  0  0  0  0  0
   50.3610  155.5100   28.8140 C   0  0  0  0  0  0  0  0  0  0  0  0
   49.6670  156.2970   29.7370 C   0  0  0  0  0  0  0  0  0  0  0  0
   50.1850  157.5260   30.1790 C   0  0  0  0  0  0  0  0  0  0  0  0
   49.3790  158.3160   31.1850 C   0  0  0  0  0  0  0  0  0  0  0  0
   48.0970  158.8680   30.5780 C   0  0  0  0  0  0  0  0  0  0  0  0
   51.1627  160.7972   32.2085 H   0  0  0  0  0  0  0  0  0  0  0  0
   52.3124  161.7618   31.2214 H   0  0  0  0  0  0  0  0  0  0  0  0
   50.5639  162.1734   31.2214 H   0  0  0  0  0  0  0  0  0  0  0  0
   50.0544  159.9984   30.1509 H   0  0  0  0  0  0  0  0  0  0  0  0
   51.2079  160.9834   29.1619 H   0  0  0  0  0  0  0  0  0  0  0  0
   52.8926  159.4923   29.3981 H   0  0  0  0  0  0  0  0  0  0  0  0
   52.4631  159.1484   31.1257 H   0  0  0  0  0  0  0  0  0  0  0  0
   53.0931  157.4840   28.3740 H   0  0  0  0  0  0  0  0  0  0  0  0
   51.4769  151.1982   27.5242 H   0  0  0  0  0  0  0  0  0  0  0  0
   52.5066  149.4565   26.0626 H   0  0  0  0  0  0  0  0  0  0  0  0
   54.1856  150.1085   24.3337 H   0  0  0  0  0  0  0  0  0  0  0  0
   55.7950  152.9740   24.0850 H   0  0  0  0  0  0  0  0  0  0  0  0
   54.4370  157.1490   26.2720 H   0  0  0  0  0  0  0  0  0  0  0  0
   49.9339  154.5507   28.4862 H   0  0  0  0  0  0  0  0  0  0  0  0
   48.6983  155.9482   30.1242 H   0  0  0  0  0  0  0  0  0  0  0  0
   49.1190  157.6583   32.0275 H   0  0  0  0  0  0  0  0  0  0  0  0
   49.9912  159.1664   31.5197 H   0  0  0  0  0  0  0  0  0  0  0  0
   47.4083  159.1645   31.3828 H   0  0  0  0  0  0  0  0  0  0  0  0
   48.3333  159.7441   29.9562 H   0  0  0  0  0  0  0  0  0  0  0  0
   47.6229  158.0943   29.9562 H   0  0  0  0  0  0  0  0  0  0  0  0
  1  2  1  0
  2  3  1  0
  3  4  1  0
  4  5  2  0
  5  6  1  0
  6  7  1  0
  7  8  1  0
  8  9  1  0
  9 10  2  0
 10 11  1  0
 11 12  2  0
 12 13  1  0
 13 14  1  0
 13 15  2  0
 15 16  1  0
 16 17  2  0
 16 18  1  0
 18 19  1  0
  6 20  2  0
 20 21  1  0
 21 22  2  0
 22 23  1  0
 23 24  1  0
 22  4  1  0
 18  7  2  0
 15  9  1  0
  1 25  1  0
  1 26  1  0
  1 27  1  0
  2 28  1  0
  2 29  1  0
  3 30  1  0
  3 31  1  0
  5 32  1  0
 10 33  1  0
 11 34  1  0
 12 35  1  0
 14 36  1  0
 19 37  1  0
 20 38  1  0
 21 39  1  0
 23 40  1  0
 23 41  1  0
 24 42  1  0
 24 43  1  0
 24 44  1  0
M  END
>  <meeko>  (5) 
{"is_sidechain": [false], "free_energy": -8.438, "intermolecular_energy": -11.727, "internal_energy": 0.468}

$$$$
cand_033_out
     RDKit          3D

 44 46  0  0  0  0  0  0  0  0999 V2000
   51.5620  150.9730   28.1120 C   0  0  0  0  0  0  0  0  0  0  0  0
   51.5580  152.4350   27.6960 C   0  0  0  0  0  0  0  0  0  0  0  0
   51.9250  153.3490   28.8670 C   0  0  0  0  0  0  0  0  0  0  0  0
   52.1840  154.7680   28.4090 C   0  0  0  0  0  0  0  0  0  0  0  0
   51.6940  155.8190   29.2120 C   0  0  0  0  0  0  0  0  0  0  0  0
   51.8660  157.1640   28.8580 C   0  0  0  0  0  0  0  0  0  0  0  0
   51.3740  158.2650   29.7130 C   0  0  0  0  0  0  0  0  0  0  0  0
   50.0350  158.1210   30.0600 O   0  0  0  0  0  0  0  0  0  0  0  0
   49.4480  159.0750   30.8520 C   0  0  0  0  0  0  0  0  0  0  0  0
   48.1000  158.8980   31.1640 C   0  0  0  0  0  0  0  0  0  0  0  0
   47.4420  159.8320   31.9670 C   0  0  0  0  0  0  0  0  0  0  0  0
   48.1330  160.9410   32.4600 C   0  0  0  0  0  0  0  0  0  0  0  0
   49.4790  161.1140   32.1480 C   0  0  0  0  0  0  0  0  0  0  0  0
   50.0950  162.2210   32.6640 O   0  0  0  0  0  0  0  0  0  0  0  0
   50.1360  160.1800   31.3440 C   0  0  0  0  0  0  0  0  0  0  0  0
   51.5500  160.3240   30.9910 C   0  0  0  0  0  0  0  0  0  0  0  0
   52.2270  161.2690   31.3920 O   0  0  0  0  0  0  0  0  0  0  0  0
   52.1500  159.2830   30.1260 C   0  0  0  0  0  0  0  0  0  0  0  0
   53.4890  159.4230   29.8100 O   0  0  0  0  0  0  0  0  0  0  0  0
   52.5590  157.4550   27.6790 C   0  0  0  0  0  0  0  0  0  0  0  0
   53.0480  156.4270   26.8680 C   0  0  0  0  0  0  0  0  0  0  0  0
   52.8600  155.0780   27.2130 C   0  0  0  0  0  0  0  0  0  0  0  0
   53.4250  154.0230   26.2880 C   0  0  0  0  0  0  0  0  0  0  0  0
   53.2020  154.3730   24.8240 C   0  0  0  0  0  0  0  0  0  0  0  0
   51.5622  150.9042   29.2098 H   0  0  0  0  0  0  0  0  0  0  0  0
   50.6652  150.4760   27.7136 H   0  0  0  0  0  0  0  0  0  0  0  0
   52.4615  150.4809   27.7136 H   0  0  0  0  0  0  0  0  0  0  0  0
   52.2890  152.5789   26.8867 H   0  0  0  0  0  0  0  0  0  0  0  0
   50.5446  152.6960   27.3572 H   0  0  0  0  0  0  0  0  0  0  0  0
   51.0956  153.3533   29.5895 H   0  0  0  0  0  0  0  0  0  0  0  0
   52.8466  152.9635   29.3275 H   0  0  0  0  0  0  0  0  0  0  0  0
   51.1614  155.5758   30.1432 H   0  0  0  0  0  0  0  0  0  0  0  0
   47.5558  158.0235   30.7779 H   0  0  0  0  0  0  0  0  0  0  0  0
   46.3784  159.6941   32.2114 H   0  0  0  0  0  0  0  0  0  0  0  0
   47.6151  161.6762   33.0934 H   0  0  0  0  0  0  0  0  0  0  0  0
   50.1400  163.0100   32.1600 H   0  0  0  0  0  0  0  0  0  0  0  0
   53.9690  160.1650   30.1230 H   0  0  0  0  0  0  0  0  0  0  0  0
   52.7209  158.5031   27.3869 H   0  0  0  0  0  0  0  0  0  0  0  0
   53.5892  156.6784   25.9439 H   0  0  0  0  0  0  0  0  0  0  0  0
   54.5058  153.9316   26.4711 H   0  0  0  0  0  0  0  0  0  0  0  0
   52.9060  153.0754   26.4946 H   0  0  0  0  0  0  0  0  0  0  0  0
   52.6121  155.2988   24.7541 H   0  0  0  0  0  0  0  0  0  0  0  0
   54.1738  154.5192   24.3298 H   0  0  0  0  0  0  0  0  0  0  0  0
   52.6589  153.5540   24.3298 H   0  0  0  0  0  0  0  0  0  0  0  0
  1  2  1  0
  2  3  1  0
  3  4  1  0
  4  5  2  0
  5  6  1  0
  6  7  1  0
  7  8  1  0
  8  9  1  0
  9 10  2  0
 10 11  1  0
 11 12  2  0
 12 13  1  0
 13 14  1  0
 13 15  2  0
 15 16  1  0
 16 17  2  0
 16 18  1  0
 18 19  1  0
  6 20  2  0
 20 21  1  0
 21 22  2  0
 22 23  1  0
 23 24  1  0
 22  4  1  0
 18  7  2  0
 15  9  1  0
  1 25  1  0
  1 26  1  0
  1 27  1  0
  2 28  1  0
  2 29  1  0
  3 30  1  0
  3 31  1  0
  5 32  1  0
 10 33  1  0
 11 34  1  0
 12 35  1  0
 14 36  1  0
 19 37  1  0
 20 38  1  0
 21 39  1  0
 23 40  1  0
 23 41  1  0
 24 42  1  0
 24 43  1  0
 24 44  1  0
M  END
>  <meeko>  (6) 
{"is_sidechain": [false], "free_energy": -8.006, "intermolecular_energy": -10.946, "internal_energy": 0.246}

$$$$
cand_033_out
     RDKit          3D

 44 46  0  0  0  0  0  0  0  0999 V2000
   47.2970  159.6520   31.3870 C   0  0  0  0  0  0  0  0  0  0  0  0
   47.9750  158.9290   30.2360 C   0  0  0  0  0  0  0  0  0  0  0  0
   48.8750  157.7980   30.7390 C   0  0  0  0  0  0  0  0  0  0  0  0
   50.2510  157.8560   30.1130 C   0  0  0  0  0  0  0  0  0  0  0  0
   50.6510  156.7750   29.3010 C   0  0  0  0  0  0  0  0  0  0  0  0
   51.9150  156.7300   28.6970 C   0  0  0  0  0  0  0  0  0  0  0  0
   52.3240  155.6080   27.8250 C   0  0  0  0  0  0  0  0  0  0  0  0
   51.8150  154.3850   28.2460 O   0  0  0  0  0  0  0  0  0  0  0  0
   52.1180  153.2570   27.5270 C   0  0  0  0  0  0  0  0  0  0  0  0
   51.5980  152.0490   27.9940 C   0  0  0  0  0  0  0  0  0  0  0  0
   51.8680  150.8630   27.3080 C   0  0  0  0  0  0  0  0  0  0  0  0
   52.6540  150.8850   26.1540 C   0  0  0  0  0  0  0  0  0  0  0  0
   53.1710  152.0920   25.6900 C   0  0  0  0  0  0  0  0  0  0  0  0
   53.9320  152.0430   24.5550 O   0  0  0  0  0  0  0  0  0  0  0  0
   52.9020  153.2780   26.3780 C   0  0  0  0  0  0  0  0  0  0  0  0
   53.4250  154.5690   25.9250 C   0  0  0  0  0  0  0  0  0  0  0  0
   54.1190  154.6700   24.9150 O   0  0  0  0  0  0  0  0  0  0  0  0
   53.0890  155.7650   26.7300 C   0  0  0  0  0  0  0  0  0  0  0  0
   53.5780  156.9800   26.2850 O   0  0  0  0  0  0  0  0  0  0  0  0
   52.7860  157.8040   28.9040 C   0  0  0  0  0  0  0  0  0  0  0  0
   52.4090  158.8820   29.7100 C   0  0  0  0  0  0  0  0  0  0  0  0
   51.1490  158.9190   30.3300 C   0  0  0  0  0  0  0  0  0  0  0  0
   50.8120  160.1230   31.1810 C   0  0  0  0  0  0  0  0  0  0  0  0
   51.9310  161.1540   31.1750 C   0  0  0  0  0  0  0  0  0  0  0  0
   47.6709  159.2533   32.3416 H   0  0  0  0  0  0  0  0  0  0  0  0
   47.5197  160.7275   31.3265 H   0  0  0  0  0  0  0  0  0  0  0  0
   46.2094  159.4988   31.3265 H   0  0  0  0  0  0  0  0  0  0  0  0
   47.2039  158.5058   29.5755 H   0  0  0  0  0  0  0  0  0  0  0  0
   48.6001  159.6530   29.6929 H   0  0  0  0  0  0  0  0  0  0  0  0
   48.9766  157.8824   31.8310 H   0  0  0  0  0  0  0  0  0  0  0  0
   48.4112  156.8408   30.4585 H   0  0  0  0  0  0  0  0  0  0  0  0
   49.9507  155.9427   29.1367 H   0  0  0  0  0  0  0  0  0  0  0  0
   50.9763  152.0311   28.9013 H   0  0  0  0  0  0  0  0  0  0  0  0
   51.4610  149.9101   27.6772 H   0  0  0  0  0  0  0  0  0  0  0  0
   52.8644  149.9509   25.6126 H   0  0  0  0  0  0  0  0  0  0  0  0
   54.8670  152.0080   24.6180 H   0  0  0  0  0  0  0  0  0  0  0  0
   53.9400  157.5910   26.8960 H   0  0  0  0  0  0  0  0  0  0  0  0
   53.7776  157.8006   28.4279 H   0  0  0  0  0  0  0  0  0  0  0  0
   53.1108  159.7154   29.8613 H   0  0  0  0  0  0  0  0  0  0  0  0
   49.8962  160.5900   30.7895 H   0  0  0  0  0  0  0  0  0  0  0  0
   50.6709  159.7795   32.2164 H   0  0  0  0  0  0  0  0  0  0  0  0
   52.2037  161.4052   32.2106 H   0  0  0  0  0  0  0  0  0  0  0  0
   52.8077  160.7406   30.6550 H   0  0  0  0  0  0  0  0  0  0  0  0
   51.5906  162.0616   30.6550 H   0  0  0  0  0  0  0  0  0  0  0  0
  1  2  1  0
  2  3  1  0
  3  4  1  0
  4  5  2  0
  5  6  1  0
  6  7  1  0
  7  8  1  0
  8  9  1  0
  9 10  2  0
 10 11  1  0
 11 12  2  0
 12 13  1  0
 13 14  1  0
 13 15  2  0
 15 16  1  0
 16 17  2  0
 16 18  1  0
 18 19  1  0
  6 20  2  0
 20 21  1  0
 21 22  2  0
 22 23  1  0
 23 24  1  0
 22  4  1  0
 18  7  2  0
 15  9  1  0
  1 25  1  0
  1 26  1  0
  1 27  1  0
  2 28  1  0
  2 29  1  0
  3 30  1  0
  3 31  1  0
  5 32  1  0
 10 33  1  0
 11 34  1  0
 12 35  1  0
 14 36  1  0
 19 37  1  0
 20 38  1  0
 21 39  1  0
 23 40  1  0
 23 41  1  0
 24 42  1  0
 24 43  1  0
 24 44  1  0
M  END
>  <meeko>  (7) 
{"is_sidechain": [false], "free_energy": -7.917, "intermolecular_energy": -10.592, "internal_energy": 0.007}

$$$$
cand_033_out
     RDKit          3D

 44 46  0  0  0  0  0  0  0  0999 V2000
   52.5250  151.1240   26.2440 C   0  0  0  0  0  0  0  0  0  0  0  0
   51.8100  152.2680   26.9440 C   0  0  0  0  0  0  0  0  0  0  0  0
   52.7490  153.0180   27.8910 C   0  0  0  0  0  0  0  0  0  0  0  0
   52.7780  154.5010   27.5930 C   0  0  0  0  0  0  0  0  0  0  0  0
   52.1250  155.3680   28.4940 C   0  0  0  0  0  0  0  0  0  0  0  0
   52.0810  156.7530   28.2890 C   0  0  0  0  0  0  0  0  0  0  0  0
   51.4180  157.6630   29.2480 C   0  0  0  0  0  0  0  0  0  0  0  0
   52.1630  158.8080   29.5070 O   0  0  0  0  0  0  0  0  0  0  0  0
   51.6650  159.7400   30.3820 C   0  0  0  0  0  0  0  0  0  0  0  0
   52.4510  160.8660   30.6240 C   0  0  0  0  0  0  0  0  0  0  0  0
   52.0020  161.8540   31.5040 C   0  0  0  0  0  0  0  0  0  0  0  0
   50.7660  161.7150   32.1400 C   0  0  0  0  0  0  0  0  0  0  0  0
   49.9830  160.5890   31.8950 C   0  0  0  0  0  0  0  0  0  0  0  0
   48.7850  160.5170   32.5510 O   0  0  0  0  0  0  0  0  0  0  0  0
   50.4340  159.6020   31.0160 C   0  0  0  0  0  0  0  0  0  0  0  0
   49.6420  158.4030   30.7320 C   0  0  0  0  0  0  0  0  0  0  0  0
   48.5430  158.2130   31.2480 O   0  0  0  0  0  0  0  0  0  0  0  0
   50.2130  157.4120   29.7910 C   0  0  0  0  0  0  0  0  0  0  0  0
   49.4510  156.2910   29.5200 O   0  0  0  0  0  0  0  0  0  0  0  0
   52.7200  157.2760   27.1610 C   0  0  0  0  0  0  0  0  0  0  0  0
   53.3670  156.4330   26.2540 C   0  0  0  0  0  0  0  0  0  0  0  0
   53.3970  155.0420   26.4490 C   0  0  0  0  0  0  0  0  0  0  0  0
   54.1250  154.1970   25.4270 C   0  0  0  0  0  0  0  0  0  0  0  0
   54.8840  155.0500   24.4220 C   0  0  0  0  0  0  0  0  0  0  0  0
   52.9506  150.4430   26.9957 H   0  0  0  0  0  0  0  0  0  0  0  0
   51.8093  150.5745   25.6148 H   0  0  0  0  0  0  0  0  0  0  0  0
   53.3325  151.5265   25.6148 H   0  0  0  0  0  0  0  0  0  0  0  0
   51.4306  152.9696   26.1865 H   0  0  0  0  0  0  0  0  0  0  0  0
   50.9837  151.8485   27.5367 H   0  0  0  0  0  0  0  0  0  0  0  0
   52.4055  152.8690   28.9253 H   0  0  0  0  0  0  0  0  0  0  0  0
   53.7652  152.6206   27.7516 H   0  0  0  0  0  0  0  0  0  0  0  0
   51.6361  154.9441   29.3835 H   0  0  0  0  0  0  0  0  0  0  0  0
   53.4238  160.9764   30.1225 H   0  0  0  0  0  0  0  0  0  0  0  0
   52.6222  162.7419   31.6962 H   0  0  0  0  0  0  0  0  0  0  0  0
   50.4118  162.4927   32.8326 H   0  0  0  0  0  0  0  0  0  0  0  0
   48.2490  161.2820   32.6340 H   0  0  0  0  0  0  0  0  0  0  0  0
   49.8660  155.4570   29.4160 H   0  0  0  0  0  0  0  0  0  0  0  0
   52.7133  158.3619   26.9858 H   0  0  0  0  0  0  0  0  0  0  0  0
   53.8615  156.8659   25.3719 H   0  0  0  0  0  0  0  0  0  0  0  0
   54.8390  153.5435   25.9497 H   0  0  0  0  0  0  0  0  0  0  0  0
   53.3766  153.6075   24.8771 H   0  0  0  0  0  0  0  0  0  0  0  0
   55.5225  155.7675   24.9582 H   0  0  0  0  0  0  0  0  0  0  0  0
   55.5102  154.4026   23.7905 H   0  0  0  0  0  0  0  0  0  0  0  0
   54.1682  155.5967   23.7905 H   0  0  0  0  0  0  0  0  0  0  0  0
  1  2  1  0
  2  3  1  0
  3  4  1  0
  4  5  2  0
  5  6  1  0
  6  7  1  0
  7  8  1  0
  8  9  1  0
  9 10  2  0
 10 11  1  0
 11 12  2  0
 12 13  1  0
 13 14  1  0
 13 15  2  0
 15 16  1  0
 16 17  2  0
 16 18  1  0
 18 19  1  0
  6 20  2  0
 20 21  1  0
 21 22  2  0
 22 23  1  0
 23 24  1  0
 22  4  1  0
 18  7  2  0
 15  9  1  0
  1 25  1  0
  1 26  1  0
  1 27  1  0
  2 28  1  0
  2 29  1  0
  3 30  1  0
  3 31  1  0
  5 32  1  0
 10 33  1  0
 11 34  1  0
 12 35  1  0
 14 36  1  0
 19 37  1  0
 20 38  1  0
 21 39  1  0
 23 40  1  0
 23 41  1  0
 24 42  1  0
 24 43  1  0
 24 44  1  0
M  END
>  <meeko>  (8) 
{"is_sidechain": [false], "free_energy": -7.891, "intermolecular_energy": -10.255, "internal_energy": -0.297}

$$$$
