cand_045_out
     RDKit          3D

 35 37  0  0  0  0  0  0  0  0999 V2000
   49.3870  160.9390   31.6840 C   0  0  0  0  0  0  0  0  0  0  0  0
   50.0080  159.7810   30.9500 C   0  0  0  0  0  0  0  0  0  0  0  0
   49.2610  158.6100   30.7610 C   0  0  0  0  0  0  0  0  0  0  0  0
   49.8030  157.5140   30.0840 C   0  0  0  0  0  0  0  0  0  0  0  0
   51.1100  157.5560   29.5850 C   0  0  0  0  0  0  0  0  0  0  0  0
   51.6990  156.4200   28.8440 C   0  0  0  0  0  0  0  0  0  0  0  0
   52.2670  156.8020   27.6350 O   0  0  0  0  0  0  0  0  0  0  0  0
   52.8570  155.8460   26.8470 C   0  0  0  0  0  0  0  0  0  0  0  0
   53.4070  156.2730   25.6380 C   0  0  0  0  0  0  0  0  0  0  0  0
   54.0220  155.3510   24.7890 C   0  0  0  0  0  0  0  0  0  0  0  0
   54.0870  154.0030   25.1480 C   0  0  0  0  0  0  0  0  0  0  0  0
   53.5370  153.5800   26.3560 C   0  0  0  0  0  0  0  0  0  0  0  0
   53.6360  152.2470   26.6470 O   0  0  0  0  0  0  0  0  0  0  0  0
   52.9210  154.5030   27.2050 C   0  0  0  0  0  0  0  0  0  0  0  0
   52.3320  154.1020   28.4830 C   0  0  0  0  0  0  0  0  0  0  0  0
   52.3550  152.9360   28.8720 O   0  0  0  0  0  0  0  0  0  0  0  0
   51.7000  155.1570   29.3080 C   0  0  0  0  0  0  0  0  0  0  0  0
   51.1600  154.7680   30.5210 O   0  0  0  0  0  0  0  0  0  0  0  0
   51.8530  158.7330   29.7660 C   0  0  0  0  0  0  0  0  0  0  0  0
   51.3210  159.8470   30.4420 C   0  0  0  0  0  0  0  0  0  0  0  0
   52.1710  161.0820   30.6130 C   0  0  0  0  0  0  0  0  0  0  0  0
   52.6800  161.2270   31.8710 F   0  0  0  0  0  0  0  0  0  0  0  0
   49.4747  160.7754   32.7682 H   0  0  0  0  0  0  0  0  0  0  0  0
   49.9077  161.8684   31.4101 H   0  0  0  0  0  0  0  0  0  0  0  0
   48.3247  161.0195   31.4101 H   0  0  0  0  0  0  0  0  0  0  0  0
   48.2340  158.5529   31.1509 H   0  0  0  0  0  0  0  0  0  0  0  0
   49.1955  156.6081   29.9417 H   0  0  0  0  0  0  0  0  0  0  0  0
   53.3562  157.3345   25.3541 H   0  0  0  0  0  0  0  0  0  0  0  0
   54.4561  155.6869   23.8357 H   0  0  0  0  0  0  0  0  0  0  0  0
   54.5714  153.2769   24.4785 H   0  0  0  0  0  0  0  0  0  0  0  0
   52.8630  151.7190   26.6900 H   0  0  0  0  0  0  0  0  0  0  0  0
   51.2840  155.3020   31.2800 H   0  0  0  0  0  0  0  0  0  0  0  0
   52.8776  158.7861   29.3693 H   0  0  0  0  0  0  0  0  0  0  0  0
   53.0095  161.0277   29.9031 H   0  0  0  0  0  0  0  0  0  0  0  0
   51.5199  161.9490   30.4274 H   0  0  0  0  0  0  0  0  0  0  0  0
  1  2  1  0
  2  3  2  0
  3  4  1  0
  4  5  2  0
  5  6  1  0
  6  7  1  0
  7  8  1  0
  8  9  2  0
  9 10  1  0
 10 11  2  0
 11 12  1  0
 12 13  1  0
 12 14  2  0
 14 15  1  0
 15 16  2  0
 15 17  1  0
 17 18  1  0
  5 19  1  0
 19 20  2  0
 20 21  1  0
 21 22  1  0
 20  2  1  0
 17  6  2  0
 14  8  1  0
  1 23  1  0
  1 24  1  0
  1 25  1  0
  3 26  1  0
  4 27  1  0
  9 28  1  0
 10 29  1  0
 11 30  1  0
 13 31  1  0
 18 32  1  0
 19 33  1  0
 21 34  1  0
 21 35  1  0
M  END
>  <meeko>  (1) 
{"is_sidechain": [false], "free_energy": -10.398, "intermolecular_energy": -12.222, "internal_energy": -0.221}

$$$$
cand_045_out
     RDKit          3D

 35 37  0  0  0  0  0  0  0  0999 V2000
   50.0460  161.2220   31.7380 C   0  0  0  0  0  0  0  0  0  0  0  0
   50.5010  160.0100   30.9710 C   0  0  0  0  0  0  0  0  0  0  0  0
   51.7810  160.0000   30.4010 C   0  0  0  0  0  0  0  0  0  0  0  0
   52.2380  158.8920   29.6800 C   0  0  0  0  0  0  0  0  0  0  0  0
   51.4240  157.7680   29.5050 C   0  0  0  0  0  0  0  0  0  0  0  0
   51.8920  156.5740   28.7700 C   0  0  0  0  0  0  0  0  0  0  0  0
   52.4880  156.8870   27.5540 O   0  0  0  0  0  0  0  0  0  0  0  0
   52.9740  155.8720   26.7710 C   0  0  0  0  0  0  0  0  0  0  0  0
   53.5570  156.2320   25.5560 C   0  0  0  0  0  0  0  0  0  0  0  0
   54.0710  155.2470   24.7110 C   0  0  0  0  0  0  0  0  0  0  0  0
   54.0020  153.9020   25.0800 C   0  0  0  0  0  0  0  0  0  0  0  0
   53.4200  153.5450   26.2950 C   0  0  0  0  0  0  0  0  0  0  0  0
   53.3870  152.2110   26.5950 O   0  0  0  0  0  0  0  0  0  0  0  0
   52.9060  154.5320   27.1400 C   0  0  0  0  0  0  0  0  0  0  0  0
   52.2870  154.2010   28.4240 C   0  0  0  0  0  0  0  0  0  0  0  0
   52.1950  153.0410   28.8220 O   0  0  0  0  0  0  0  0  0  0  0  0
   51.7690  155.3200   29.2440 C   0  0  0  0  0  0  0  0  0  0  0  0
   51.2010  154.9960   30.4630 O   0  0  0  0  0  0  0  0  0  0  0  0
   50.1470  157.7750   30.0870 C   0  0  0  0  0  0  0  0  0  0  0  0
   49.6720  158.8810   30.8170 C   0  0  0  0  0  0  0  0  0  0  0  0
   48.2860  158.8330   31.4110 C   0  0  0  0  0  0  0  0  0  0  0  0
   47.3020  159.1920   30.5360 F   0  0  0  0  0  0  0  0  0  0  0  0
   50.1209  161.0224   32.8171 H   0  0  0  0  0  0  0  0  0  0  0  0
   50.6831  162.0804   31.4788 H   0  0  0  0  0  0  0  0  0  0  0  0
   49.0014  161.4491   31.4788 H   0  0  0  0  0  0  0  0  0  0  0  0
   52.4355  160.8757   30.5222 H   0  0  0  0  0  0  0  0  0  0  0  0
   53.2486  158.9047   29.2458 H   0  0  0  0  0  0  0  0  0  0  0  0
   53.6116  157.2911   25.2640 H   0  0  0  0  0  0  0  0  0  0  0  0
   54.5311  155.5307   23.7530 H   0  0  0  0  0  0  0  0  0  0  0  0
   54.4061  153.1260   24.4132 H   0  0  0  0  0  0  0  0  0  0  0  0
   52.7690  151.8870   27.2210 H   0  0  0  0  0  0  0  0  0  0  0  0
   50.3040  154.7290   30.5050 H   0  0  0  0  0  0  0  0  0  0  0  0
   49.5002  156.8930   29.9697 H   0  0  0  0  0  0  0  0  0  0  0  0
   48.0897  157.8059   31.7522 H   0  0  0  0  0  0  0  0  0  0  0  0
   48.2641  159.5603   32.2359 H   0  0  0  0  0  0  0  0  0  0  0  0
  1  2  1  0
  2  3  2  0
  3  4  1  0
  4  5  2  0
  5  6  1  0
  6  7  1  0
  7  8  1  0
  8  9  2  0
  9 10  1  0
 10 11  2  0
 11 12  1  0
 12 13  1  0
 12 14  2  0
 14 15  1  0
 15 16  2  0
 15 17  1  0
 17 18  1  0
  5 19  1  0
 19 20  2  0
 20 21  1  0
 21 22  1  0
 20  2  1  0
 17  6  2  0
 14  8  1  0
  1 23  1  0
  1 24  1  0
  1 25  1  0
  3 26  1  0
  4 27  1  0
  9 28  1  0
 10 29  1  0
 11 30  1  0
 13 31  1  0
 18 32  1  0
 19 33  1  0
 21 34  1  0
 21 35  1  0
M  END
>  <meeko>  (2) 
{"is_sidechain": [false], "free_energy": -10.297, "intermolecular_energy": -12.2, "internal_energy": -0.124}

$$$$
cand_045_out
     RDKit          3D

 35 37  0  0  0  0  0  0  0  0999 V2000
   53.0310  152.5840   26.6780 C   0  0  0  0  0  0  0  0  0  0  0  0
   52.6340  153.8640   27.3610 C   0  0  0  0  0  0  0  0  0  0  0  0
   51.9780  153.8040   28.5990 C   0  0  0  0  0  0  0  0  0  0  0  0
   51.5930  154.9720   29.2650 C   0  0  0  0  0  0  0  0  0  0  0  0
   51.8460  156.2290   28.7070 C   0  0  0  0  0  0  0  0  0  0  0  0
   51.4730  157.4800   29.4010 C   0  0  0  0  0  0  0  0  0  0  0  0
   50.1500  157.4870   29.8270 O   0  0  0  0  0  0  0  0  0  0  0  0
   49.6720  158.5860   30.4920 C   0  0  0  0  0  0  0  0  0  0  0  0
   48.3360  158.5520   30.8940 C   0  0  0  0  0  0  0  0  0  0  0  0
   47.7860  159.6390   31.5770 C   0  0  0  0  0  0  0  0  0  0  0  0
   48.5700  160.7600   31.8560 C   0  0  0  0  0  0  0  0  0  0  0  0
   49.9040  160.7900   31.4540 C   0  0  0  0  0  0  0  0  0  0  0  0
   50.6160  161.9180   31.7610 O   0  0  0  0  0  0  0  0  0  0  0  0
   50.4540  159.7020   30.7720 C   0  0  0  0  0  0  0  0  0  0  0  0
   51.8490  159.6930   30.3330 C   0  0  0  0  0  0  0  0  0  0  0  0
   52.6060  160.6390   30.5470 O   0  0  0  0  0  0  0  0  0  0  0  0
   52.3340  158.4930   29.6130 C   0  0  0  0  0  0  0  0  0  0  0  0
   53.6590  158.4890   29.2170 O   0  0  0  0  0  0  0  0  0  0  0  0
   52.5120  156.2880   27.4730 C   0  0  0  0  0  0  0  0  0  0  0  0
   52.9090  155.1220   26.7900 C   0  0  0  0  0  0  0  0  0  0  0  0
   53.6140  155.2480   25.4630 C   0  0  0  0  0  0  0  0  0  0  0  0
   53.3370  156.4100   24.8030 F   0  0  0  0  0  0  0  0  0  0  0  0
   53.2673  151.8222   27.4355 H   0  0  0  0  0  0  0  0  0  0  0  0
   52.2002  152.2308   26.0495 H   0  0  0  0  0  0  0  0  0  0  0  0
   53.9159  152.7629   26.0495 H   0  0  0  0  0  0  0  0  0  0  0  0
   51.7633  152.8250   29.0524 H   0  0  0  0  0  0  0  0  0  0  0  0
   51.0856  154.9011   30.2384 H   0  0  0  0  0  0  0  0  0  0  0  0
   47.7168  157.6700   30.6732 H   0  0  0  0  0  0  0  0  0  0  0  0
   46.7335  159.6119   31.8956 H   0  0  0  0  0  0  0  0  0  0  0  0
   48.1360  161.6171   32.3916 H   0  0  0  0  0  0  0  0  0  0  0  0
   51.4840  161.8440   32.1070 H   0  0  0  0  0  0  0  0  0  0  0  0
   54.2630  159.0950   29.5980 H   0  0  0  0  0  0  0  0  0  0  0  0
   52.7295  157.2701   27.0278 H   0  0  0  0  0  0  0  0  0  0  0  0
   54.6986  155.1991   25.6399 H   0  0  0  0  0  0  0  0  0  0  0  0
   53.2548  154.4243   24.8285 H   0  0  0  0  0  0  0  0  0  0  0  0
  1  2  1  0
  2  3  2  0
  3  4  1  0
  4  5  2  0
  5  6  1  0
  6  7  1  0
  7  8  1  0
  8  9  2  0
  9 10  1  0
 10 11  2  0
 11 12  1  0
 12 13  1  0
 12 14  2  0
 14 15  1  0
 15 16  2  0
 15 17  1  0
 17 18  1  0
  5 19  1  0
 19 20  2  0
 20 21  1  0
 21 22  1  0
 20  2  1  0
 17  6  2  0
 14  8  1  0
  1 23  1  0
  1 24  1  0
  1 25  1  0
  3 26  1  0
  4 27  1  0
  9 28  1  0
 10 29  1  0
 11 30  1  0
 13 31  1  0
 18 32  1  0
 19 33  1  0
 21 34  1  0
 21 35  1  0
M  END
>  <meeko>  (3) 
{"is_sidechain": [false], "free_energy": -9.877, "intermolecular_energy": -11.7, "internal_energy": -0.13}

$$$$
cand_045_out
     RDKit          3D

 35 37  0  0  0  0  0  0  0  0999 V2000
   53.5550  152.8940   26.5640 C   0  0  0  0  0  0  0  0  0  0  0  0
   52.9130  154.0400   27.2970 C   0  0  0  0  0  0  0  0  0  0  0  0
   52.2260  153.7900   28.4930 C   0  0  0  0  0  0  0  0  0  0  0  0
   51.6160  154.8290   29.2020 C   0  0  0  0  0  0  0  0  0  0  0  0
   51.6710  156.1450   28.7300 C   0  0  0  0  0  0  0  0  0  0  0  0
   51.0560  157.2660   29.4730 C   0  0  0  0  0  0  0  0  0  0  0  0
   51.9500  158.3000   29.7260 O   0  0  0  0  0  0  0  0  0  0  0  0
   51.5090  159.4080   30.4030 C   0  0  0  0  0  0  0  0  0  0  0  0
   52.4420  160.4170   30.6420 C   0  0  0  0  0  0  0  0  0  0  0  0
   52.0590  161.5730   31.3260 C   0  0  0  0  0  0  0  0  0  0  0  0
   50.7440  161.7180   31.7720 C   0  0  0  0  0  0  0  0  0  0  0  0
   49.8140  160.7090   31.5320 C   0  0  0  0  0  0  0  0  0  0  0  0
   48.5430  160.9160   31.9950 O   0  0  0  0  0  0  0  0  0  0  0  0
   50.1980  159.5530   30.8470 C   0  0  0  0  0  0  0  0  0  0  0  0
   49.2540  158.4700   30.5730 C   0  0  0  0  0  0  0  0  0  0  0  0
   48.0780  158.5260   30.9270 O   0  0  0  0  0  0  0  0  0  0  0  0
   49.7620  157.2850   29.8430 C   0  0  0  0  0  0  0  0  0  0  0  0
   48.8560  156.2750   29.5760 O   0  0  0  0  0  0  0  0  0  0  0  0
   52.3680  156.3960   27.5380 C   0  0  0  0  0  0  0  0  0  0  0  0
   52.9900  155.3620   26.8130 C   0  0  0  0  0  0  0  0  0  0  0  0
   53.7190  155.6920   25.5340 C   0  0  0  0  0  0  0  0  0  0  0  0
   53.1040  156.6520   24.7860 F   0  0  0  0  0  0  0  0  0  0  0  0
   53.9585  152.1738   27.2910 H   0  0  0  0  0  0  0  0  0  0  0  0
   52.8044  152.3961   25.9325 H   0  0  0  0  0  0  0  0  0  0  0  0
   54.3716  153.2741   25.9325 H   0  0  0  0  0  0  0  0  0  0  0  0
   52.1660  152.7617   28.8791 H   0  0  0  0  0  0  0  0  0  0  0  0
   51.0870  154.6095   30.1412 H   0  0  0  0  0  0  0  0  0  0  0  0
   53.4785  160.3024   30.2921 H   0  0  0  0  0  0  0  0  0  0  0  0
   52.7939  162.3697   31.5134 H   0  0  0  0  0  0  0  0  0  0  0  0
   50.4427  162.6277   32.3121 H   0  0  0  0  0  0  0  0  0  0  0  0
   47.8840  160.2630   31.8620 H   0  0  0  0  0  0  0  0  0  0  0  0
   48.0560  156.4700   29.1310 H   0  0  0  0  0  0  0  0  0  0  0  0
   52.4299  157.4273   27.1605 H   0  0  0  0  0  0  0  0  0  0  0  0
   54.7287  156.0452   25.7907 H   0  0  0  0  0  0  0  0  0  0  0  0
   53.7376  154.7742   24.9279 H   0  0  0  0  0  0  0  0  0  0  0  0
  1  2  1  0
  2  3  2  0
  3  4  1  0
  4  5  2  0
  5  6  1  0
  6  7  1  0
  7  8  1  0
  8  9  2  0
  9 10  1  0
 10 11  2  0
 11 12  1  0
 12 13  1  0
 12 14  2  0
 14 15  1  0
 15 16  2  0
 15 17  1  0
 17 18  1  0
  5 19  1  0
 19 20  2  0
 20 21  1  0
 21 22  1  0
 20  2  1  0
 17  6  2  0
 14  8  1  0
  1 23  1  0
  1 24  1  0
  1 25  1  0
  3 26  1  0
  4 27  1  0
  9 28  1  0
 10 29  1  0
 11 30  1  0
 13 31  1  0
 18 32  1  0
 19 33  1  0
 21 34  1  0
 21 35  1  0
M  END
>  <meeko>  (4) 
{"is_sidechain": [false], "free_energy": -8.938, "intermolecular_energy": -10.495, "internal_energy": -0.231}

$$$$
cand_045_out
     RDKit          3D

 35 37  0  0  0  0  0  0  0  0999 V2000
   53.2520  153.8540   26.3570 C   0  0  0  0  0  0  0  0  0  0  0  0
   52.7740  154.9740   27.2400 C   0  0  0  0  0  0  0  0  0  0  0  0
   52.9820  156.3010   26.8390 C   0  0  0  0  0  0  0  0  0  0  0  0
   52.5520  157.3680   27.6330 C   0  0  0  0  0  0  0  0  0  0  0  0
   51.9090  157.1360   28.8530 C   0  0  0  0  0  0  0  0  0  0  0  0
   51.4210  158.2460   29.7010 C   0  0  0  0  0  0  0  0  0  0  0  0
   50.0870  158.1030   30.0630 O   0  0  0  0  0  0  0  0  0  0  0  0
   49.5070  159.0600   30.8550 C   0  0  0  0  0  0  0  0  0  0  0  0
   48.1640  158.8800   31.1870 C   0  0  0  0  0  0  0  0  0  0  0  0
   47.5120  159.8170   31.9910 C   0  0  0  0  0  0  0  0  0  0  0  0
   48.2040  160.9350   32.4630 C   0  0  0  0  0  0  0  0  0  0  0  0
   49.5450  161.1120   32.1300 C   0  0  0  0  0  0  0  0  0  0  0  0
   50.1630  162.2270   32.6270 O   0  0  0  0  0  0  0  0  0  0  0  0
   50.1960  160.1730   31.3260 C   0  0  0  0  0  0  0  0  0  0  0  0
   51.6030  160.3210   30.9540 C   0  0  0  0  0  0  0  0  0  0  0  0
   52.2810  161.2730   31.3350 O   0  0  0  0  0  0  0  0  0  0  0  0
   52.1990  159.2720   30.0930 C   0  0  0  0  0  0  0  0  0  0  0  0
   53.5340  159.4130   29.7620 O   0  0  0  0  0  0  0  0  0  0  0  0
   51.6910  155.8080   29.2490 C   0  0  0  0  0  0  0  0  0  0  0  0
   52.1150  154.7220   28.4610 C   0  0  0  0  0  0  0  0  0  0  0  0
   51.8610  153.3150   28.9430 C   0  0  0  0  0  0  0  0  0  0  0  0
   51.2890  152.5090   28.0020 F   0  0  0  0  0  0  0  0  0  0  0  0
   53.6075  153.0211   26.9814 H   0  0  0  0  0  0  0  0  0  0  0  0
   52.4230  153.5084   25.7220 H   0  0  0  0  0  0  0  0  0  0  0  0
   54.0751  154.2135   25.7220 H   0  0  0  0  0  0  0  0  0  0  0  0
   53.4910  156.5056   25.8856 H   0  0  0  0  0  0  0  0  0  0  0  0
   52.7211  158.4009   27.2947 H   0  0  0  0  0  0  0  0  0  0  0  0
   47.6187  157.9999   30.8154 H   0  0  0  0  0  0  0  0  0  0  0  0
   46.4531  159.6748   32.2528 H   0  0  0  0  0  0  0  0  0  0  0  0
   47.6911  161.6739   33.0962 H   0  0  0  0  0  0  0  0  0  0  0  0
   51.0980  162.2630   32.6750 H   0  0  0  0  0  0  0  0  0  0  0  0
   53.8540  160.2370   29.4520 H   0  0  0  0  0  0  0  0  0  0  0  0
   51.1752  155.6105   30.2003 H   0  0  0  0  0  0  0  0  0  0  0  0
   52.8220  152.8715   29.2427 H   0  0  0  0  0  0  0  0  0  0  0  0
   51.1522  153.3847   29.7813 H   0  0  0  0  0  0  0  0  0  0  0  0
  1  2  1  0
  2  3  2  0
  3  4  1  0
  4  5  2  0
  5  6  1  0
  6  7  1  0
  7  8  1  0
  8  9  2  0
  9 10  1  0
 10 11  2  0
 11 12  1  0
 12 13  1  0
 12 14  2  0
 14 15  1  0
 15 16  2  0
 15 17  1  0
 17 18  1  0
  5 19  1  0
 19 20  2  0
 20 21  1  0
 21 22  1  0
 20  2  1  0
 17  6  2  0
 14  8  1  0
  1 23  1  0
  1 24  1  0
  1 25  1  0
  3 26  1  0
  4 27  1  0
  9 28  1  0
 10 29  1  0
 11 30  1  0
 13 31  1  0
 18 32  1  0
 19 33  1  0
 21 34  1  0
 21 35  1  0
M  END
>  <meeko>  (5) 
{"is_sidechain": [false], "free_energy": -8.714, "intermolecular_energy": -10.466, "internal_energy": 0.003}

$$$$
cand_045_out
     RDKit          3D

 35 37  0  0  0  0  0  0  0  0999 V2000
   49.2480  158.3840   31.1920 C   0  0  0  0  0  0  0  0  0  0  0  0
   50.0430  157.5620   30.2150 C   0  0  0  0  0  0  0  0  0  0  0  0
   49.5570  156.3090   29.8170 C   0  0  0  0  0  0  0  0  0  0  0  0
   50.2680  155.5170   28.9110 C   0  0  0  0  0  0  0  0  0  0  0  0
   51.4890  155.9530   28.3850 C   0  0  0  0  0  0  0  0  0  0  0  0
   52.2490  155.1460   27.4060 C   0  0  0  0  0  0  0  0  0  0  0  0
   51.9510  153.7910   27.4760 O   0  0  0  0  0  0  0  0  0  0  0  0
   52.5810  152.9270   26.6180 C   0  0  0  0  0  0  0  0  0  0  0  0
   52.2580  151.5740   26.7300 C   0  0  0  0  0  0  0  0  0  0  0  0
   52.8640  150.6410   25.8860 C   0  0  0  0  0  0  0  0  0  0  0  0
   53.7930  151.0600   24.9320 C   0  0  0  0  0  0  0  0  0  0  0  0
   54.1140  152.4110   24.8230 C   0  0  0  0  0  0  0  0  0  0  0  0
   55.0310  152.7530   23.8660 O   0  0  0  0  0  0  0  0  0  0  0  0
   53.5070  153.3440   25.6670 C   0  0  0  0  0  0  0  0  0  0  0  0
   53.8150  154.7720   25.5850 C   0  0  0  0  0  0  0  0  0  0  0  0
   54.6170  155.2200   24.7670 O   0  0  0  0  0  0  0  0  0  0  0  0
   53.1200  155.6790   26.5290 C   0  0  0  0  0  0  0  0  0  0  0  0
   53.4070  157.0280   26.4310 O   0  0  0  0  0  0  0  0  0  0  0  0
   51.9700  157.2120   28.7760 C   0  0  0  0  0  0  0  0  0  0  0  0
   51.2650  158.0240   29.6850 C   0  0  0  0  0  0  0  0  0  0  0  0
   51.8360  159.3650   30.0740 C   0  0  0  0  0  0  0  0  0  0  0  0
   51.0530  160.4210   29.7090 F   0  0  0  0  0  0  0  0  0  0  0  0
   49.5225  158.1002   32.2187 H   0  0  0  0  0  0  0  0  0  0  0  0
   49.4656  159.4509   31.0359 H   0  0  0  0  0  0  0  0  0  0  0  0
   48.1744  158.2021   31.0359 H   0  0  0  0  0  0  0  0  0  0  0  0
   48.6024  155.9437   30.2235 H   0  0  0  0  0  0  0  0  0  0  0  0
   49.8631  154.5401   28.6082 H   0  0  0  0  0  0  0  0  0  0  0  0
   51.5269  151.2429   27.4822 H   0  0  0  0  0  0  0  0  0  0  0  0
   52.6090  149.5745   25.9730 H   0  0  0  0  0  0  0  0  0  0  0  0
   54.2706  150.3247   24.2677 H   0  0  0  0  0  0  0  0  0  0  0  0
   55.6080  153.4770   24.0090 H   0  0  0  0  0  0  0  0  0  0  0  0
   54.2840  157.3310   26.5600 H   0  0  0  0  0  0  0  0  0  0  0  0
   52.9225  157.5739   28.3616 H   0  0  0  0  0  0  0  0  0  0  0  0
   51.9600  159.3859   31.1668 H   0  0  0  0  0  0  0  0  0  0  0  0
   52.7921  159.4742   29.5411 H   0  0  0  0  0  0  0  0  0  0  0  0
  1  2  1  0
  2  3  2  0
  3  4  1  0
  4  5  2  0
  5  6  1  0
  6  7  1  0
  7  8  1  0
  8  9  2  0
  9 10  1  0
 10 11  2  0
 11 12  1  0
 12 13  1  0
 12 14  2  0
 14 15  1  0
 15 16  2  0
 15 17  1  0
 17 18  1  0
  5 19  1  0
 19 20  2  0
 20 21  1  0
 21 22  1  0
 20  2  1  0
 17  6  2  0
 14  8  1  0
  1 23  1  0
  1 24  1  0
  1 25  1  0
  3 26  1  0
  4 27  1  0
  9 28  1  0
 10 29  1  0
 11 30  1  0
 13 31  1  0
 18 32  1  0
 19 33  1  0
 21 34  1  0
 21 35  1  0
M  END
>  <meeko>  (6) 
{"is_sidechain": [false], "free_energy": -8.395, "intermolecular_energy": -10.325, "internal_energy": 0.238}

$$$$
cand_045_out
     RDKit          3D

 35 37  0  0  0  0  0  0  0  0999 V2000
   53.6310  153.6650   26.0160 C   0  0  0  0  0  0  0  0  0  0  0  0
   52.9900  154.6760   26.9280 C   0  0  0  0  0  0  0  0  0  0  0  0
   53.1910  156.0420   26.6850 C   0  0  0  0  0  0  0  0  0  0  0  0
   52.6120  157.0110   27.5110 C   0  0  0  0  0  0  0  0  0  0  0  0
   51.8240  156.6390   28.6050 C   0  0  0  0  0  0  0  0  0  0  0  0
   51.1800  157.6430   29.4780 C   0  0  0  0  0  0  0  0  0  0  0  0
   51.9930  158.7420   29.7290 O   0  0  0  0  0  0  0  0  0  0  0  0
   51.5170  159.7540   30.5220 C   0  0  0  0  0  0  0  0  0  0  0  0
   52.3700  160.8330   30.7540 C   0  0  0  0  0  0  0  0  0  0  0  0
   51.9470  161.8980   31.5520 C   0  0  0  0  0  0  0  0  0  0  0  0
   50.6710  161.8830   32.1190 C   0  0  0  0  0  0  0  0  0  0  0  0
   49.8210  160.8040   31.8860 C   0  0  0  0  0  0  0  0  0  0  0  0
   48.5840  160.8540   32.4700 O   0  0  0  0  0  0  0  0  0  0  0  0
   50.2450  159.7400   31.0860 C   0  0  0  0  0  0  0  0  0  0  0  0
   49.3840  158.5890   30.8150 C   0  0  0  0  0  0  0  0  0  0  0  0
   48.2450  158.5050   31.2730 O   0  0  0  0  0  0  0  0  0  0  0  0
   49.9300  157.5100   29.9590 C   0  0  0  0  0  0  0  0  0  0  0  0
   49.1010  156.4350   29.6970 O   0  0  0  0  0  0  0  0  0  0  0  0
   51.6150  155.2710   28.8400 C   0  0  0  0  0  0  0  0  0  0  0  0
   52.1880  154.2830   28.0180 C   0  0  0  0  0  0  0  0  0  0  0  0
   51.9340  152.8280   28.3260 C   0  0  0  0  0  0  0  0  0  0  0  0
   51.5190  152.1040   27.2470 F   0  0  0  0  0  0  0  0  0  0  0  0
   54.1237  152.8879   26.6188 H   0  0  0  0  0  0  0  0  0  0  0  0
   52.8604  153.2031   25.3813 H   0  0  0  0  0  0  0  0  0  0  0  0
   54.3774  154.1650   25.3813 H   0  0  0  0  0  0  0  0  0  0  0  0
   53.8124  156.3560   25.8333 H   0  0  0  0  0  0  0  0  0  0  0  0
   52.7782  158.0773   27.2978 H   0  0  0  0  0  0  0  0  0  0  0  0
   53.3757  160.8450   30.3084 H   0  0  0  0  0  0  0  0  0  0  0  0
   52.6194  162.7493   31.7341 H   0  0  0  0  0  0  0  0  0  0  0  0
   50.3376  162.7214   32.7483 H   0  0  0  0  0  0  0  0  0  0  0  0
   47.8360  161.0990   31.9620 H   0  0  0  0  0  0  0  0  0  0  0  0
   48.5980  156.0520   30.3880 H   0  0  0  0  0  0  0  0  0  0  0  0
   50.9869  154.9632   29.6889 H   0  0  0  0  0  0  0  0  0  0  0  0
   52.8673  152.3848   28.7036 H   0  0  0  0  0  0  0  0  0  0  0  0
   51.1228  152.7931   29.0681 H   0  0  0  0  0  0  0  0  0  0  0  0
  1  2  1  0
  2  3  2  0
  3  4  1  0
  4  5  2  0
  5  6  1  0
  6  7  1  0
  7  8  1  0
  8  9  2  0
  9 10  1  0
 10 11  2  0
 11 12  1  0
 12 13  1  0
 12 14  2  0
 14 15  1  0
 15 16  2  0
 15 17  1  0
 17 18  1  0
  5 19  1  0
 19 20  2  0
 20 21  1  0
 21 22  1  0
 20  2  1  0
 17  6  2  0
 14  8  1  0
  1 23  1  0
  1 24  1  0
  1 25  1  0
  3 26  1  0
  4 27  1  0
  9 28  1  0
 10 29  1  0
 11 30  1  0
 13 31  1  0
 18 32  1  0
 19 33  1  0
 21 34  1  0
 21 35  1  0
M  END
>  <meeko>  (7) 
{"is_sidechain": [false], "free_energy": -8.03, "intermolecular_energy": -9.866, "internal_energy": 0.206}

$$$$
cand_045_out
     RDKit          3D

 35 37  0  0  0  0  0  0  0  0999 V2000
   50.7860  159.4780   30.8180 C   0  0  0  0  0  0  0  0  0  0  0  0
   51.2330  158.3650   29.9090 C   0  0  0  0  0  0  0  0  0  0  0  0
   52.4890  158.4470   29.2920 C   0  0  0  0  0  0  0  0  0  0  0  0
   52.9380  157.4330   28.4410 C   0  0  0  0  0  0  0  0  0  0  0  0
   52.1410  156.3140   28.1790 C   0  0  0  0  0  0  0  0  0  0  0  0
   52.6020  155.2160   27.3030 C   0  0  0  0  0  0  0  0  0  0  0  0
   52.0920  153.9780   27.6750 O   0  0  0  0  0  0  0  0  0  0  0  0
   52.4350  152.8700   26.9430 C   0  0  0  0  0  0  0  0  0  0  0  0
   51.9070  151.6470   27.3580 C   0  0  0  0  0  0  0  0  0  0  0  0
   52.2160  150.4800   26.6570 C   0  0  0  0  0  0  0  0  0  0  0  0
   53.0540  150.5360   25.5410 C   0  0  0  0  0  0  0  0  0  0  0  0
   53.5800  151.7580   25.1290 C   0  0  0  0  0  0  0  0  0  0  0  0
   54.3920  151.7420   24.0280 O   0  0  0  0  0  0  0  0  0  0  0  0
   53.2690  152.9260   25.8310 C   0  0  0  0  0  0  0  0  0  0  0  0
   53.7990  154.2290   25.4310 C   0  0  0  0  0  0  0  0  0  0  0  0
   54.5380  154.3610   24.4570 O   0  0  0  0  0  0  0  0  0  0  0  0
   53.4130  155.4050   26.2460 C   0  0  0  0  0  0  0  0  0  0  0  0
   53.9070  156.6350   25.8490 O   0  0  0  0  0  0  0  0  0  0  0  0
   50.8880  156.2280   28.8050 C   0  0  0  0  0  0  0  0  0  0  0  0
   50.4210  157.2390   29.6660 C   0  0  0  0  0  0  0  0  0  0  0  0
   49.0610  157.0950   30.3040 C   0  0  0  0  0  0  0  0  0  0  0  0
   48.0990  157.8690   29.7240 F   0  0  0  0  0  0  0  0  0  0  0  0
   50.9105  159.1679   31.8660 H   0  0  0  0  0  0  0  0  0  0  0  0
   51.3938  160.3745   30.6262 H   0  0  0  0  0  0  0  0  0  0  0  0
   49.7269  159.7051   30.6262 H   0  0  0  0  0  0  0  0  0  0  0  0
   53.1299  159.3210   29.4800 H   0  0  0  0  0  0  0  0  0  0  0  0
   53.9295  157.5161   27.9720 H   0  0  0  0  0  0  0  0  0  0  0  0
   51.2475  151.6024   28.2372 H   0  0  0  0  0  0  0  0  0  0  0  0
   51.7993  149.5158   26.9837 H   0  0  0  0  0  0  0  0  0  0  0  0
   53.2981  149.6167   24.9885 H   0  0  0  0  0  0  0  0  0  0  0  0
   55.1650  151.2130   24.0240 H   0  0  0  0  0  0  0  0  0  0  0  0
   53.4980  157.4220   26.1480 H   0  0  0  0  0  0  0  0  0  0  0  0
   50.2547  155.3482   28.6181 H   0  0  0  0  0  0  0  0  0  0  0  0
   48.7518  156.0420   30.2288 H   0  0  0  0  0  0  0  0  0  0  0  0
   49.1579  157.4302   31.3472 H   0  0  0  0  0  0  0  0  0  0  0  0
  1  2  1  0
  2  3  2  0
  3  4  1  0
  4  5  2  0
  5  6  1  0
  6  7  1  0
  7  8  1  0
  8  9  2  0
  9 10  1  0
 10 11  2  0
 11 12  1  0
 12 13  1  0
 12 14  2  0
 14 15  1  0
 15 16  2  0
 15 17  1  0
 17 18  1  0
  5 19  1  0
 19 20  2  0
 20 21  1  0
 21 22  1  0
 20  2  1  0
 17  6  2  0
 14  8  1  0
  1 23  1  0
  1 24  1  0
  1 25  1  0
  3 26  1  0
  4 27  1  0
  9 28  1  0
 10 29  1  0
 11 30  1  0
 13 31  1  0
 18 32  1  0
 19 33  1  0
 21 34  1  0
 21 35  1  0
M  END
>  <meeko>  (8) 
{"is_sidechain": [false], "free_energy": -7.566, "intermolecular_energy": -9.107, "internal_energy": -0.006}

$$$$
