cand_038_out
     RDKit          3D

 47 49  0  0  0  0  0  0  0  0999 V2000
   52.4080  161.0670   31.6630 C   0  0  0  0  0  0  0  0  0  0  0  0
   51.6450  160.8970   30.3540 C   0  0  0  0  0  0  0  0  0  0  0  0
   50.9360  159.5610   30.2680 C   0  0  0  0  0  0  0  0  0  0  0  0
   51.6450  158.5720   29.5330 C   0  0  0  0  0  0  0  0  0  0  0  0
   51.1670  157.2720   29.3530 C   0  0  0  0  0  0  0  0  0  0  0  0
   51.9070  156.2620   28.5670 C   0  0  0  0  0  0  0  0  0  0  0  0
   52.4200  156.7720   27.3790 O   0  0  0  0  0  0  0  0  0  0  0  0
   53.1300  155.9400   26.5540 C   0  0  0  0  0  0  0  0  0  0  0  0
   53.6400  156.4960   25.3790 C   0  0  0  0  0  0  0  0  0  0  0  0
   54.3710  155.7030   24.4920 C   0  0  0  0  0  0  0  0  0  0  0  0
   54.5920  154.3540   24.7780 C   0  0  0  0  0  0  0  0  0  0  0  0
   54.0820  153.8010   25.9500 C   0  0  0  0  0  0  0  0  0  0  0  0
   54.3340  152.4740   26.1670 O   0  0  0  0  0  0  0  0  0  0  0  0
   53.3510  154.5950   26.8370 C   0  0  0  0  0  0  0  0  0  0  0  0
   52.7970  154.0540   28.0800 C   0  0  0  0  0  0  0  0  0  0  0  0
   52.9430  152.8750   28.3980 O   0  0  0  0  0  0  0  0  0  0  0  0
   52.0450  154.9810   28.9560 C   0  0  0  0  0  0  0  0  0  0  0  0
   51.5150  154.4550   30.1200 O   0  0  0  0  0  0  0  0  0  0  0  0
   49.9310  156.9610   29.9080 C   0  0  0  0  0  0  0  0  0  0  0  0
   49.2120  157.9200   30.6330 C   0  0  0  0  0  0  0  0  0  0  0  0
   49.6790  159.2400   30.8480 C   0  0  0  0  0  0  0  0  0  0  0  0
   48.7890  160.2240   31.6560 C   0  0  0  0  0  0  0  0  0  0  0  0
   47.3110  159.7540   31.8000 C   0  0  0  0  0  0  0  0  0  0  0  0
   49.2830  160.4000   33.1100 C   0  0  0  0  0  0  0  0  0  0  0  0
   48.7190  161.5850   30.9310 C   0  0  0  0  0  0  0  0  0  0  0  0
   51.7224  160.9142   32.5095 H   0  0  0  0  0  0  0  0  0  0  0  0
   53.2214  160.3281   31.7119 H   0  0  0  0  0  0  0  0  0  0  0  0
   52.8307  162.0814   31.7119 H   0  0  0  0  0  0  0  0  0  0  0  0
   50.8970  161.6996   30.2743 H   0  0  0  0  0  0  0  0  0  0  0  0
   52.3747  160.9429   29.5321 H   0  0  0  0  0  0  0  0  0  0  0  0
   52.6131  158.8426   29.0862 H   0  0  0  0  0  0  0  0  0  0  0  0
   53.4660  157.5582   25.1522 H   0  0  0  0  0  0  0  0  0  0  0  0
   54.7733  156.1414   23.5668 H   0  0  0  0  0  0  0  0  0  0  0  0
   55.1677  153.7296   24.0790 H   0  0  0  0  0  0  0  0  0  0  0  0
   54.1350  151.8450   25.5030 H   0  0  0  0  0  0  0  0  0  0  0  0
   51.9730  154.5590   30.9310 H   0  0  0  0  0  0  0  0  0  0  0  0
   49.5134  155.9519   29.7766 H   0  0  0  0  0  0  0  0  0  0  0  0
   48.2376  157.6342   31.0558 H   0  0  0  0  0  0  0  0  0  0  0  0
   47.0544  159.6724   32.8665 H   0  0  0  0  0  0  0  0  0  0  0  0
   46.6452  160.4847   31.3176 H   0  0  0  0  0  0  0  0  0  0  0  0
   47.1896  158.7729   31.3176 H   0  0  0  0  0  0  0  0  0  0  0  0
   48.4812  160.1143   33.8068 H   0  0  0  0  0  0  0  0  0  0  0  0
   50.1611  159.7594   33.2790 H   0  0  0  0  0  0  0  0  0  0  0  0
   49.5583  161.4515   33.2790 H   0  0  0  0  0  0  0  0  0  0  0  0
   48.6774  162.3947   31.6744 H   0  0  0  0  0  0  0  0  0  0  0  0
   49.6118  161.7112   30.3010 H   0  0  0  0  0  0  0  0  0  0  0  0
   47.8179  161.6189   30.3010 H   0  0  0  0  0  0  0  0  0  0  0  0
  1  2  1  0
  2  3  1  0
  3  4  2  0
  4  5  1  0
  5  6  1  0
  6  7  1  0
  7  8  1  0
  8  9  2  0
  9 10  1  0
 10 11  2  0
 11 12  1  0
 12 13  1  0
 12 14  2  0
 14 15  1  0
 15 16  2  0
 15 17  1  0
 17 18  1  0
  5 19  2  0
 19 20  1  0
 20 21  2  0
 21 22  1  0
 22 23  1  0
 22 24  1  0
 22 25  1  0
 21  3  1  0
 17  6  2  0
 14  8  1  0
  1 26  1  0
  1 27  1  0
  1 28  1  0
  2 29  1  0
  2 30  1  0
  4 31  1  0
  9 32  1  0
 10 33  1  0
 11 34  1  0
 13 35  1  0
 18 36  1  0
 19 37  1  0
 20 38  1  0
 23 39  1  0
 23 40  1  0
 23 41  1  0
 24 42  1  0
 24 43  1  0
 24 44  1  0
 25 45  1  0
 25 46  1  0
 25 47  1  0
M  END
>  <meeko>  (1) 
{"is_sidechain": [false], "free_energy": -11.199, "intermolecular_energy": -13.818, "internal_energy": -0.093}

$$$$
cand_038_out
     RDKit          3D

 47 49  0  0  0  0  0  0  0  0999 V2000
   47.3280  159.3910   30.6910 C   0  0  0  0  0  0  0  0  0  0  0  0
   48.3680  158.5500   31.4250 C   0  0  0  0  0  0  0  0  0  0  0  0
   49.7610  158.7330   30.8580 C   0  0  0  0  0  0  0  0  0  0  0  0
   50.2290  157.6260   30.0990 C   0  0  0  0  0  0  0  0  0  0  0  0
   51.4810  157.6050   29.4800 C   0  0  0  0  0  0  0  0  0  0  0  0
   51.9620  156.4370   28.7120 C   0  0  0  0  0  0  0  0  0  0  0  0
   52.4840  156.7860   27.4710 O   0  0  0  0  0  0  0  0  0  0  0  0
   52.9680  155.7970   26.6540 C   0  0  0  0  0  0  0  0  0  0  0  0
   53.4960  156.1920   25.4240 C   0  0  0  0  0  0  0  0  0  0  0  0
   54.0030  155.2350   24.5430 C   0  0  0  0  0  0  0  0  0  0  0  0
   53.9820  153.8830   24.8910 C   0  0  0  0  0  0  0  0  0  0  0  0
   53.4540  153.4900   26.1180 C   0  0  0  0  0  0  0  0  0  0  0  0
   53.4640  152.1500   26.3950 O   0  0  0  0  0  0  0  0  0  0  0  0
   52.9470  154.4490   26.9990 C   0  0  0  0  0  0  0  0  0  0  0  0
   52.3840  154.0800   28.2990 C   0  0  0  0  0  0  0  0  0  0  0  0
   52.3230  152.9100   28.6740 O   0  0  0  0  0  0  0  0  0  0  0  0
   51.8800  155.1720   29.1630 C   0  0  0  0  0  0  0  0  0  0  0  0
   51.3380  154.8100   30.3830 O   0  0  0  0  0  0  0  0  0  0  0  0
   52.2970  158.7180   29.6470 C   0  0  0  0  0  0  0  0  0  0  0  0
   51.8600  159.8200   30.3940 C   0  0  0  0  0  0  0  0  0  0  0  0
   50.5880  159.8760   31.0170 C   0  0  0  0  0  0  0  0  0  0  0  0
   50.2150  161.1440   31.8340 C   0  0  0  0  0  0  0  0  0  0  0  0
   49.0330  161.9550   31.2240 C   0  0  0  0  0  0  0  0  0  0  0  0
   49.7500  160.8000   33.2670 C   0  0  0  0  0  0  0  0  0  0  0  0
   51.4110  162.1200   31.8640 C   0  0  0  0  0  0  0  0  0  0  0  0
   46.6901  159.9069   31.4238 H   0  0  0  0  0  0  0  0  0  0  0  0
   47.8368  160.1346   30.0600 H   0  0  0  0  0  0  0  0  0  0  0  0
   46.7073  158.7379   30.0600 H   0  0  0  0  0  0  0  0  0  0  0  0
   48.3763  158.8439   32.4850 H   0  0  0  0  0  0  0  0  0  0  0  0
   48.0918  157.4923   31.3031 H   0  0  0  0  0  0  0  0  0  0  0  0
   49.5762  156.7468   29.9945 H   0  0  0  0  0  0  0  0  0  0  0  0
   53.5127  157.2569   25.1488 H   0  0  0  0  0  0  0  0  0  0  0  0
   54.4194  155.5464   23.5737 H   0  0  0  0  0  0  0  0  0  0  0  0
   54.3820  153.1293   24.1968 H   0  0  0  0  0  0  0  0  0  0  0  0
   53.0810  151.5450   25.7910 H   0  0  0  0  0  0  0  0  0  0  0  0
   51.3260  155.4240   31.0910 H   0  0  0  0  0  0  0  0  0  0  0  0
   53.2964  158.7338   29.1878 H   0  0  0  0  0  0  0  0  0  0  0  0
   52.5353  160.6816   30.5020 H   0  0  0  0  0  0  0  0  0  0  0  0
   48.4200  162.3756   32.0347 H   0  0  0  0  0  0  0  0  0  0  0  0
   49.4304  162.7716   30.6033 H   0  0  0  0  0  0  0  0  0  0  0  0
   48.4141  161.2904   30.6033 H   0  0  0  0  0  0  0  0  0  0  0  0
   50.4128  161.2903   33.9952 H   0  0  0  0  0  0  0  0  0  0  0  0
   48.7189  161.1545   33.4129 H   0  0  0  0  0  0  0  0  0  0  0  0
   49.7872  159.7104   33.4129 H   0  0  0  0  0  0  0  0  0  0  0  0
   51.6794  162.3390   32.9080 H   0  0  0  0  0  0  0  0  0  0  0  0
   52.2707  161.6623   31.3527 H   0  0  0  0  0  0  0  0  0  0  0  0
   51.1350  163.0540   31.3527 H   0  0  0  0  0  0  0  0  0  0  0  0
  1  2  1  0
  2  3  1  0
  3  4  2  0
  4  5  1  0
  5  6  1  0
  6  7  1  0
  7  8  1  0
  8  9  2  0
  9 10  1  0
 10 11  2  0
 11 12  1  0
 12 13  1  0
 12 14  2  0
 14 15  1  0
 15 16  2  0
 15 17  1  0
 17 18  1  0
  5 19  2  0
 19 20  1  0
 20 21  2  0
 21 22  1  0
 22 23  1  0
 22 24  1  0
 22 25  1  0
 21  3  1  0
 17  6  2  0
 14  8  1  0
  1 26  1  0
  1 27  1  0
  1 28  1  0
  2 29  1  0
  2 30  1  0
  4 31  1  0
  9 32  1  0
 10 33  1  0
 11 34  1  0
 13 35  1  0
 18 36  1  0
 19 37  1  0
 20 38  1  0
 23 39  1  0
 23 40  1  0
 23 41  1  0
 24 42  1  0
 24 43  1  0
 24 44  1  0
 25 45  1  0
 25 46  1  0
 25 47  1  0
M  END
>  <meeko>  (2) 
{"is_sidechain": [false], "free_energy": -10.268, "intermolecular_energy": -12.88, "internal_energy": 0.118}

$$$$
cand_038_out
     RDKit          3D

 47 49  0  0  0  0  0  0  0  0999 V2000
   54.8180  156.4870   24.8050 C   0  0  0  0  0  0  0  0  0  0  0  0
   53.4090  155.9030   24.8420 C   0  0  0  0  0  0  0  0  0  0  0  0
   52.9890  155.4980   26.2400 C   0  0  0  0  0  0  0  0  0  0  0  0
   52.5680  156.5830   27.0580 C   0  0  0  0  0  0  0  0  0  0  0  0
   52.1270  156.4160   28.3720 C   0  0  0  0  0  0  0  0  0  0  0  0
   51.7140  157.5560   29.2160 C   0  0  0  0  0  0  0  0  0  0  0  0
   50.3750  157.4960   29.5870 O   0  0  0  0  0  0  0  0  0  0  0  0
   49.8590  158.4930   30.3730 C   0  0  0  0  0  0  0  0  0  0  0  0
   48.5150  158.3850   30.7340 C   0  0  0  0  0  0  0  0  0  0  0  0
   47.9260  159.3680   31.5320 C   0  0  0  0  0  0  0  0  0  0  0  0
   48.6800  160.4590   31.9690 C   0  0  0  0  0  0  0  0  0  0  0  0
   50.0200  160.5660   31.6070 C   0  0  0  0  0  0  0  0  0  0  0  0
   50.6990  161.6600   32.0680 O   0  0  0  0  0  0  0  0  0  0  0  0
   50.6090  159.5810   30.8090 C   0  0  0  0  0  0  0  0  0  0  0  0
   52.0140  159.6540   30.4060 C   0  0  0  0  0  0  0  0  0  0  0  0
   52.7400  160.5870   30.7440 O   0  0  0  0  0  0  0  0  0  0  0  0
   52.5450  158.5560   29.5660 C   0  0  0  0  0  0  0  0  0  0  0  0
   53.8700  158.6420   29.1810 O   0  0  0  0  0  0  0  0  0  0  0  0
   52.1300  155.1260   28.8900 C   0  0  0  0  0  0  0  0  0  0  0  0
   52.5440  154.0410   28.1060 C   0  0  0  0  0  0  0  0  0  0  0  0
   52.9780  154.1780   26.7640 C   0  0  0  0  0  0  0  0  0  0  0  0
   53.4290  152.9060   25.9940 C   0  0  0  0  0  0  0  0  0  0  0  0
   53.3890  153.0660   24.4450 C   0  0  0  0  0  0  0  0  0  0  0  0
   54.8940  152.5220   26.3050 C   0  0  0  0  0  0  0  0  0  0  0  0
   52.4750  151.7340   26.3110 C   0  0  0  0  0  0  0  0  0  0  0  0
   55.1799  156.6370   25.8329 H   0  0  0  0  0  0  0  0  0  0  0  0
   55.4889  155.7928   24.2777 H   0  0  0  0  0  0  0  0  0  0  0  0
   54.8011  157.4522   24.2777 H   0  0  0  0  0  0  0  0  0  0  0  0
   52.7034  156.6584   24.4659 H   0  0  0  0  0  0  0  0  0  0  0  0
   53.4036  154.9993   24.2148 H   0  0  0  0  0  0  0  0  0  0  0  0
   52.5910  157.5987   26.6364 H   0  0  0  0  0  0  0  0  0  0  0  0
   47.9201  157.5260   30.3901 H   0  0  0  0  0  0  0  0  0  0  0  0
   46.8669  159.2828   31.8167 H   0  0  0  0  0  0  0  0  0  0  0  0
   48.2159  161.2327   32.5983 H   0  0  0  0  0  0  0  0  0  0  0  0
   51.6350  161.6480   32.1100 H   0  0  0  0  0  0  0  0  0  0  0  0
   54.4540  159.2140   29.6390 H   0  0  0  0  0  0  0  0  0  0  0  0
   51.8038  154.9552   29.9266 H   0  0  0  0  0  0  0  0  0  0  0  0
   52.5315  153.0360   28.5531 H   0  0  0  0  0  0  0  0  0  0  0  0
   53.1294  154.1041   24.1902 H   0  0  0  0  0  0  0  0  0  0  0  0
   54.3760  152.8213   24.0255 H   0  0  0  0  0  0  0  0  0  0  0  0
   52.6333  152.3856   24.0255 H   0  0  0  0  0  0  0  0  0  0  0  0
   55.0396  152.4838   27.3946 H   0  0  0  0  0  0  0  0  0  0  0  0
   55.1146  151.5357   25.8708 H   0  0  0  0  0  0  0  0  0  0  0  0
   55.5701  153.2733   25.8708 H   0  0  0  0  0  0  0  0  0  0  0  0
   52.3829  151.6208   27.4013 H   0  0  0  0  0  0  0  0  0  0  0  0
   51.4847  151.9401   25.8788 H   0  0  0  0  0  0  0  0  0  0  0  0
   52.8778  150.8061   25.8788 H   0  0  0  0  0  0  0  0  0  0  0  0
  1  2  1  0
  2  3  1  0
  3  4  2  0
  4  5  1  0
  5  6  1  0
  6  7  1  0
  7  8  1  0
  8  9  2  0
  9 10  1  0
 10 11  2  0
 11 12  1  0
 12 13  1  0
 12 14  2  0
 14 15  1  0
 15 16  2  0
 15 17  1  0
 17 18  1  0
  5 19  2  0
 19 20  1  0
 20 21  2  0
 21 22  1  0
 22 23  1  0
 22 24  1  0
 22 25  1  0
 21  3  1  0
 17  6  2  0
 14  8  1  0
  1 26  1  0
  1 27  1  0
  1 28  1  0
  2 29  1  0
  2 30  1  0
  4 31  1  0
  9 32  1  0
 10 33  1  0
 11 34  1  0
 13 35  1  0
 18 36  1  0
 19 37  1  0
 20 38  1  0
 23 39  1  0
 23 40  1  0
 23 41  1  0
 24 42  1  0
 24 43  1  0
 24 44  1  0
 25 45  1  0
 25 46  1  0
 25 47  1  0
M  END
>  <meeko>  (3) 
{"is_sidechain": [false], "free_energy": -9.496, "intermolecular_energy": -11.686, "internal_energy": -0.124}

$$$$
cand_038_out
     RDKit          3D

 47 49  0  0  0  0  0  0  0  0999 V2000
   55.1140  156.7790   24.6830 C   0  0  0  0  0  0  0  0  0  0  0  0
   53.6880  156.2420   24.6120 C   0  0  0  0  0  0  0  0  0  0  0  0
   53.2350  155.6290   25.9210 C   0  0  0  0  0  0  0  0  0  0  0  0
   52.6170  156.5480   26.8110 C   0  0  0  0  0  0  0  0  0  0  0  0
   52.1170  156.1760   28.0610 C   0  0  0  0  0  0  0  0  0  0  0  0
   51.4960  157.1490   28.9840 C   0  0  0  0  0  0  0  0  0  0  0  0
   52.3080  158.2520   29.2330 O   0  0  0  0  0  0  0  0  0  0  0  0
   51.8520  159.2340   30.0730 C   0  0  0  0  0  0  0  0  0  0  0  0
   52.6920  160.3290   30.2820 C   0  0  0  0  0  0  0  0  0  0  0  0
   52.2910  161.3640   31.1290 C   0  0  0  0  0  0  0  0  0  0  0  0
   51.0490  161.3050   31.7670 C   0  0  0  0  0  0  0  0  0  0  0  0
   50.2130  160.2110   31.5570 C   0  0  0  0  0  0  0  0  0  0  0  0
   49.0130  160.2170   32.2140 O   0  0  0  0  0  0  0  0  0  0  0  0
   50.6160  159.1760   30.7090 C   0  0  0  0  0  0  0  0  0  0  0  0
   49.7680  158.0090   30.4610 C   0  0  0  0  0  0  0  0  0  0  0  0
   48.6660  157.8810   30.9910 O   0  0  0  0  0  0  0  0  0  0  0  0
   50.2830  156.9710   29.5390 C   0  0  0  0  0  0  0  0  0  0  0  0
   49.4790  155.8660   29.3230 O   0  0  0  0  0  0  0  0  0  0  0  0
   52.2620  154.8470   28.4390 C   0  0  0  0  0  0  0  0  0  0  0  0
   52.8710  153.9220   27.5810 C   0  0  0  0  0  0  0  0  0  0  0  0
   53.3700  154.2660   26.3010 C   0  0  0  0  0  0  0  0  0  0  0  0
   54.0410  153.1600   25.4390 C   0  0  0  0  0  0  0  0  0  0  0  0
   53.7420  153.2870   23.9160 C   0  0  0  0  0  0  0  0  0  0  0  0
   55.5830  153.1980   25.5360 C   0  0  0  0  0  0  0  0  0  0  0  0
   53.4990  151.7740   25.8510 C   0  0  0  0  0  0  0  0  0  0  0  0
   55.4116  156.8911   25.7360 H   0  0  0  0  0  0  0  0  0  0  0  0
   55.7959  156.0761   24.1821 H   0  0  0  0  0  0  0  0  0  0  0  0
   55.1628  157.7571   24.1821 H   0  0  0  0  0  0  0  0  0  0  0  0
   53.0109  157.0706   24.3572 H   0  0  0  0  0  0  0  0  0  0  0  0
   53.6652  155.4523   23.8466 H   0  0  0  0  0  0  0  0  0  0  0  0
   52.5283  157.5999   26.5017 H   0  0  0  0  0  0  0  0  0  0  0  0
   53.6694  160.3765   29.7796 H   0  0  0  0  0  0  0  0  0  0  0  0
   52.9532  162.2266   31.2943 H   0  0  0  0  0  0  0  0  0  0  0  0
   50.7324  162.1208   32.4335 H   0  0  0  0  0  0  0  0  0  0  0  0
   48.8630  159.6190   32.9190 H   0  0  0  0  0  0  0  0  0  0  0  0
   48.5900  155.9810   29.0510 H   0  0  0  0  0  0  0  0  0  0  0  0
   51.8948  154.5176   29.4222 H   0  0  0  0  0  0  0  0  0  0  0  0
   52.9661  152.8790   27.9175 H   0  0  0  0  0  0  0  0  0  0  0  0
   52.7380  153.7134   23.7737 H   0  0  0  0  0  0  0  0  0  0  0  0
   54.4895  153.9453   23.4492 H   0  0  0  0  0  0  0  0  0  0  0  0
   53.7873  152.2920   23.4492 H   0  0  0  0  0  0  0  0  0  0  0  0
   55.8838  153.2054   26.5941 H   0  0  0  0  0  0  0  0  0  0  0  0
   56.0035  152.3099   25.0415 H   0  0  0  0  0  0  0  0  0  0  0  0
   55.9592  154.1057   25.0415 H   0  0  0  0  0  0  0  0  0  0  0  0
   53.4711  151.7026   26.9483 H   0  0  0  0  0  0  0  0  0  0  0  0
   52.4835  151.6431   25.4491 H   0  0  0  0  0  0  0  0  0  0  0  0
   54.1564  150.9889   25.4491 H   0  0  0  0  0  0  0  0  0  0  0  0
  1  2  1  0
  2  3  1  0
  3  4  2  0
  4  5  1  0
  5  6  1  0
  6  7  1  0
  7  8  1  0
  8  9  2  0
  9 10  1  0
 10 11  2  0
 11 12  1  0
 12 13  1  0
 12 14  2  0
 14 15  1  0
 15 16  2  0
 15 17  1  0
 17 18  1  0
  5 19  2  0
 19 20  1  0
 20 21  2  0
 21 22  1  0
 22 23  1  0
 22 24  1  0
 22 25  1  0
 21  3  1  0
 17  6  2  0
 14  8  1  0
  1 26  1  0
  1 27  1  0
  1 28  1  0
  2 29  1  0
  2 30  1  0
  4 31  1  0
  9 32  1  0
 10 33  1  0
 11 34  1  0
 13 35  1  0
 18 36  1  0
 19 37  1  0
 20 38  1  0
 23 39  1  0
 23 40  1  0
 23 41  1  0
 24 42  1  0
 24 43  1  0
 24 44  1  0
 25 45  1  0
 25 46  1  0
 25 47  1  0
M  END
>  <meeko>  (4) 
{"is_sidechain": [false], "free_energy": -8.659, "intermolecular_energy": -10.497, "internal_energy": -0.279}

$$$$
