cand_048_out
     RDKit          3D

 37 39  0  0  0  0  0  0  0  0999 V2000
   50.0590  161.3060   33.0240 C   0  0  0  0  0  0  0  0  0  0  0  0
   50.0670  161.2250   31.6880 C   0  0  0  0  0  0  0  0  0  0  0  0
   50.4810  160.0250   30.9400 C   0  0  0  0  0  0  0  0  0  0  0  0
   51.7650  159.9800   30.3730 C   0  0  0  0  0  0  0  0  0  0  0  0
   52.2110  158.8450   29.6910 C   0  0  0  0  0  0  0  0  0  0  0  0
   51.3910  157.7190   29.5650 C   0  0  0  0  0  0  0  0  0  0  0  0
   51.8690  156.5410   28.8120 C   0  0  0  0  0  0  0  0  0  0  0  0
   52.4660  156.8770   27.6030 O   0  0  0  0  0  0  0  0  0  0  0  0
   52.9520  155.8750   26.8020 C   0  0  0  0  0  0  0  0  0  0  0  0
   53.5290  156.2570   25.5900 C   0  0  0  0  0  0  0  0  0  0  0  0
   54.0460  155.2870   24.7290 C   0  0  0  0  0  0  0  0  0  0  0  0
   53.9880  153.9370   25.0790 C   0  0  0  0  0  0  0  0  0  0  0  0
   53.4110  153.5590   26.2890 C   0  0  0  0  0  0  0  0  0  0  0  0
   53.3870  152.2210   26.5700 O   0  0  0  0  0  0  0  0  0  0  0  0
   52.8930  154.5300   27.1510 C   0  0  0  0  0  0  0  0  0  0  0  0
   52.2800  154.1750   28.4310 C   0  0  0  0  0  0  0  0  0  0  0  0
   52.1970  153.0100   28.8130 O   0  0  0  0  0  0  0  0  0  0  0  0
   51.7530  155.2790   29.2670 C   0  0  0  0  0  0  0  0  0  0  0  0
   51.1880  154.9360   30.4810 O   0  0  0  0  0  0  0  0  0  0  0  0
   50.1080  157.7620   30.1310 C   0  0  0  0  0  0  0  0  0  0  0  0
   49.6470  158.8910   30.8340 C   0  0  0  0  0  0  0  0  0  0  0  0
   48.2780  158.8880   31.3800 C   0  0  0  0  0  0  0  0  0  0  0  0
   47.2870  159.6560   30.9080 C   0  0  0  0  0  0  0  0  0  0  0  0
   49.7371  162.2353   33.5168 H   0  0  0  0  0  0  0  0  0  0  0  0
   50.3744  160.4433   33.6292 H   0  0  0  0  0  0  0  0  0  0  0  0
   49.7454  162.1068   31.1144 H   0  0  0  0  0  0  0  0  0  0  0  0
   52.4296  160.8514   30.4672 H   0  0  0  0  0  0  0  0  0  0  0  0
   53.2180  158.8370   29.2484 H   0  0  0  0  0  0  0  0  0  0  0  0
   53.5764  157.3206   25.3135 H   0  0  0  0  0  0  0  0  0  0  0  0
   54.4999  155.5873   23.7730 H   0  0  0  0  0  0  0  0  0  0  0  0
   54.3970  153.1735   24.4009 H   0  0  0  0  0  0  0  0  0  0  0  0
   53.8670  151.6200   26.0350 H   0  0  0  0  0  0  0  0  0  0  0  0
   50.2580  154.8480   30.5560 H   0  0  0  0  0  0  0  0  0  0  0  0
   49.4451  156.8909   30.0226 H   0  0  0  0  0  0  0  0  0  0  0  0
   48.0574  158.2169   32.2232 H   0  0  0  0  0  0  0  0  0  0  0  0
   46.2868  159.6042   31.3628 H   0  0  0  0  0  0  0  0  0  0  0  0
   47.4735  160.3384   30.0657 H   0  0  0  0  0  0  0  0  0  0  0  0
  1  2  2  0
  2  3  1  0
  3  4  2  0
  4  5  1  0
  5  6  2  0
  6  7  1  0
  7  8  1  0
  8  9  1  0
  9 10  2  0
 10 11  1  0
 11 12  2  0
 12 13  1  0
 13 14  1  0
 13 15  2  0
 15 16  1  0
 16 17  2  0
 16 18  1  0
 18 19  1  0
  6 20  1  0
 20 21  2  0
 21 22  1  0
 22 23  2  0
 21  3  1  0
 18  7  2  0
 15  9  1  0
  1 24  1  0
  1 25  1  0
  2 26  1  0
  4 27  1  0
  5 28  1  0
 10 29  1  0
 11 30  1  0
 12 31  1  0
 14 32  1  0
 19 33  1  0
 20 34  1  0
 22 35  1  0
 23 36  1  0
 23 37  1  0
M  END
>  <meeko>  (1) 
{"is_sidechain": [false], "free_energy": -10.855, "intermolecular_energy": -13.393, "internal_energy": -0.054}

$$$$
cand_048_out
     RDKit          3D

 37 39  0  0  0  0  0  0  0  0999 V2000
   49.2170  160.8520   33.0770 C   0  0  0  0  0  0  0  0  0  0  0  0
   49.3000  160.7880   31.7420 C   0  0  0  0  0  0  0  0  0  0  0  0
   49.9610  159.6920   31.0110 C   0  0  0  0  0  0  0  0  0  0  0  0
   49.2950  158.4640   30.8680 C   0  0  0  0  0  0  0  0  0  0  0  0
   49.8700  157.4140   30.1480 C   0  0  0  0  0  0  0  0  0  0  0  0
   51.1210  157.5630   29.5420 C   0  0  0  0  0  0  0  0  0  0  0  0
   51.7260  156.4300   28.8130 C   0  0  0  0  0  0  0  0  0  0  0  0
   52.2950  156.8070   27.6020 O   0  0  0  0  0  0  0  0  0  0  0  0
   52.8920  155.8490   26.8220 C   0  0  0  0  0  0  0  0  0  0  0  0
   53.4360  156.2700   25.6080 C   0  0  0  0  0  0  0  0  0  0  0  0
   54.0600  155.3460   24.7670 C   0  0  0  0  0  0  0  0  0  0  0  0
   54.1410  154.0030   25.1400 C   0  0  0  0  0  0  0  0  0  0  0  0
   53.5960  153.5860   26.3530 C   0  0  0  0  0  0  0  0  0  0  0  0
   53.7110  152.2580   26.6560 O   0  0  0  0  0  0  0  0  0  0  0  0
   52.9720  154.5110   27.1940 C   0  0  0  0  0  0  0  0  0  0  0  0
   52.3870  154.1140   28.4750 C   0  0  0  0  0  0  0  0  0  0  0  0
   52.4240  152.9540   28.8770 O   0  0  0  0  0  0  0  0  0  0  0  0
   51.7410  155.1710   29.2890 C   0  0  0  0  0  0  0  0  0  0  0  0
   51.2040  154.7900   30.5040 O   0  0  0  0  0  0  0  0  0  0  0  0
   51.7880  158.7890   29.6840 C   0  0  0  0  0  0  0  0  0  0  0  0
   51.2180  159.8640   30.3940 C   0  0  0  0  0  0  0  0  0  0  0  0
   51.9820  161.1170   30.5340 C   0  0  0  0  0  0  0  0  0  0  0  0
   52.8920  161.3300   31.4930 C   0  0  0  0  0  0  0  0  0  0  0  0
   48.7079  161.7011   33.5563 H   0  0  0  0  0  0  0  0  0  0  0  0
   49.6579  160.0554   33.6943 H   0  0  0  0  0  0  0  0  0  0  0  0
   48.8480  161.6018   31.1560 H   0  0  0  0  0  0  0  0  0  0  0  0
   48.3060  158.3269   31.3297 H   0  0  0  0  0  0  0  0  0  0  0  0
   49.3322  156.4588   30.0568 H   0  0  0  0  0  0  0  0  0  0  0  0
   53.3735  157.3281   25.3138 H   0  0  0  0  0  0  0  0  0  0  0  0
   54.4883  155.6768   23.8093 H   0  0  0  0  0  0  0  0  0  0  0  0
   54.6338  153.2758   24.4780 H   0  0  0  0  0  0  0  0  0  0  0  0
   54.3860  151.9660   27.2370 H   0  0  0  0  0  0  0  0  0  0  0  0
   51.7680  154.5130   31.1990 H   0  0  0  0  0  0  0  0  0  0  0  0
   52.7817  158.9141   29.2292 H   0  0  0  0  0  0  0  0  0  0  0  0
   51.7938  161.9229   29.8094 H   0  0  0  0  0  0  0  0  0  0  0  0
   53.4271  162.2899   31.5400 H   0  0  0  0  0  0  0  0  0  0  0  0
   53.1044  160.5450   32.2337 H   0  0  0  0  0  0  0  0  0  0  0  0
  1  2  2  0
  2  3  1  0
  3  4  2  0
  4  5  1  0
  5  6  2  0
  6  7  1  0
  7  8  1  0
  8  9  1  0
  9 10  2  0
 10 11  1  0
 11 12  2  0
 12 13  1  0
 13 14  1  0
 13 15  2  0
 15 16  1  0
 16 17  2  0
 16 18  1  0
 18 19  1  0
  6 20  1  0
 20 21  2  0
 21 22  1  0
 22 23  2  0
 21  3  1  0
 18  7  2  0
 15  9  1  0
  1 24  1  0
  1 25  1  0
  2 26  1  0
  4 27  1  0
  5 28  1  0
 10 29  1  0
 11 30  1  0
 12 31  1  0
 14 32  1  0
 19 33  1  0
 20 34  1  0
 22 35  1  0
 23 36  1  0
 23 37  1  0
M  END
>  <meeko>  (2) 
{"is_sidechain": [false], "free_energy": -10.623, "intermolecular_energy": -12.835, "internal_energy": -0.326}

$$$$
cand_048_out
     RDKit          3D

 37 39  0  0  0  0  0  0  0  0999 V2000
   52.2290  151.5440   26.6170 C   0  0  0  0  0  0  0  0  0  0  0  0
   52.9600  152.6650   26.5640 C   0  0  0  0  0  0  0  0  0  0  0  0
   52.5850  153.9220   27.2360 C   0  0  0  0  0  0  0  0  0  0  0  0
   51.8770  153.8670   28.4480 C   0  0  0  0  0  0  0  0  0  0  0  0
   51.5370  155.0350   29.1360 C   0  0  0  0  0  0  0  0  0  0  0  0
   51.9050  156.2900   28.6390 C   0  0  0  0  0  0  0  0  0  0  0  0
   51.5090  157.5140   29.3650 C   0  0  0  0  0  0  0  0  0  0  0  0
   50.1800  157.4950   29.7730 O   0  0  0  0  0  0  0  0  0  0  0  0
   49.6810  158.5740   30.4580 C   0  0  0  0  0  0  0  0  0  0  0  0
   48.3380  158.5200   30.8340 C   0  0  0  0  0  0  0  0  0  0  0  0
   47.7670  159.5830   31.5350 C   0  0  0  0  0  0  0  0  0  0  0  0
   48.5390  160.7000   31.8610 C   0  0  0  0  0  0  0  0  0  0  0  0
   49.8790  160.7520   31.4850 C   0  0  0  0  0  0  0  0  0  0  0  0
   50.5760  161.8740   31.8370 O   0  0  0  0  0  0  0  0  0  0  0  0
   50.4490  159.6870   30.7820 C   0  0  0  0  0  0  0  0  0  0  0  0
   51.8530  159.7020   30.3680 C   0  0  0  0  0  0  0  0  0  0  0  0
   52.5980  160.6450   30.6240 O   0  0  0  0  0  0  0  0  0  0  0  0
   52.3580  158.5260   29.6210 C   0  0  0  0  0  0  0  0  0  0  0  0
   53.6880  158.5430   29.2460 O   0  0  0  0  0  0  0  0  0  0  0  0
   52.6120  156.3470   27.4290 C   0  0  0  0  0  0  0  0  0  0  0  0
   52.9750  155.1800   26.7290 C   0  0  0  0  0  0  0  0  0  0  0  0
   53.6920  155.3060   25.4460 C   0  0  0  0  0  0  0  0  0  0  0  0
   54.0870  156.4760   24.9280 C   0  0  0  0  0  0  0  0  0  0  0  0
   52.5693  150.6401   26.0905 H   0  0  0  0  0  0  0  0  0  0  0  0
   51.2883  151.5272   27.1870 H   0  0  0  0  0  0  0  0  0  0  0  0
   53.8951  152.6464   25.9850 H   0  0  0  0  0  0  0  0  0  0  0  0
   51.5859  152.8902   28.8617 H   0  0  0  0  0  0  0  0  0  0  0  0
   50.9739  154.9669   30.0785 H   0  0  0  0  0  0  0  0  0  0  0  0
   47.7299  157.6399   30.5779 H   0  0  0  0  0  0  0  0  0  0  0  0
   46.7084  159.5410   31.8309 H   0  0  0  0  0  0  0  0  0  0  0  0
   48.0893  161.5378   32.4141 H   0  0  0  0  0  0  0  0  0  0  0  0
   51.1780  162.2620   31.2330 H   0  0  0  0  0  0  0  0  0  0  0  0
   54.1500  157.7370   29.1220 H   0  0  0  0  0  0  0  0  0  0  0  0
   52.8900  157.3280   27.0163 H   0  0  0  0  0  0  0  0  0  0  0  0
   53.9147  154.3874   24.8833 H   0  0  0  0  0  0  0  0  0  0  0  0
   54.6184  156.4998   23.9652 H   0  0  0  0  0  0  0  0  0  0  0  0
   53.8801  157.4133   25.4653 H   0  0  0  0  0  0  0  0  0  0  0  0
  1  2  2  0
  2  3  1  0
  3  4  2  0
  4  5  1  0
  5  6  2  0
  6  7  1  0
  7  8  1  0
  8  9  1  0
  9 10  2  0
 10 11  1  0
 11 12  2  0
 12 13  1  0
 13 14  1  0
 13 15  2  0
 15 16  1  0
 16 17  2  0
 16 18  1  0
 18 19  1  0
  6 20  1  0
 20 21  2  0
 21 22  1  0
 22 23  2  0
 21  3  1  0
 18  7  2  0
 15  9  1  0
  1 24  1  0
  1 25  1  0
  2 26  1  0
  4 27  1  0
  5 28  1  0
 10 29  1  0
 11 30  1  0
 12 31  1  0
 14 32  1  0
 19 33  1  0
 20 34  1  0
 22 35  1  0
 23 36  1  0
 23 37  1  0
M  END
>  <meeko>  (3) 
{"is_sidechain": [false], "free_energy": -10.252, "intermolecular_energy": -12.353, "internal_energy": -0.351}

$$$$
cand_048_out
     RDKit          3D

 37 39  0  0  0  0  0  0  0  0999 V2000
   52.9380  151.7010   25.9820 C   0  0  0  0  0  0  0  0  0  0  0  0
   53.6180  152.7250   26.5120 C   0  0  0  0  0  0  0  0  0  0  0  0
   52.9850  153.8660   27.1960 C   0  0  0  0  0  0  0  0  0  0  0  0
   52.3920  153.6690   28.4540 C   0  0  0  0  0  0  0  0  0  0  0  0
   51.8160  154.7330   29.1530 C   0  0  0  0  0  0  0  0  0  0  0  0
   51.8260  156.0260   28.6200 C   0  0  0  0  0  0  0  0  0  0  0  0
   51.1830  157.1320   29.3600 C   0  0  0  0  0  0  0  0  0  0  0  0
   52.0470  158.1920   29.6080 O   0  0  0  0  0  0  0  0  0  0  0  0
   51.5780  159.2860   30.2890 C   0  0  0  0  0  0  0  0  0  0  0  0
   52.4840  160.3190   30.5300 C   0  0  0  0  0  0  0  0  0  0  0  0
   52.0700  161.4620   31.2170 C   0  0  0  0  0  0  0  0  0  0  0  0
   50.7520  161.5720   31.6620 C   0  0  0  0  0  0  0  0  0  0  0  0
   49.8490  160.5390   31.4210 C   0  0  0  0  0  0  0  0  0  0  0  0
   48.5740  160.7130   31.8830 O   0  0  0  0  0  0  0  0  0  0  0  0
   50.2640  159.3950   30.7340 C   0  0  0  0  0  0  0  0  0  0  0  0
   49.3480  158.2870   30.4600 C   0  0  0  0  0  0  0  0  0  0  0  0
   48.1710  158.3120   30.8130 O   0  0  0  0  0  0  0  0  0  0  0  0
   49.8890  157.1160   29.7310 C   0  0  0  0  0  0  0  0  0  0  0  0
   49.0130  156.0800   29.4650 O   0  0  0  0  0  0  0  0  0  0  0  0
   52.4170  156.2260   27.3640 C   0  0  0  0  0  0  0  0  0  0  0  0
   53.0150  155.1680   26.6520 C   0  0  0  0  0  0  0  0  0  0  0  0
   53.5940  155.4350   25.3220 C   0  0  0  0  0  0  0  0  0  0  0  0
   54.2540  156.5580   25.0110 C   0  0  0  0  0  0  0  0  0  0  0  0
   53.4773  150.8812   25.4849 H   0  0  0  0  0  0  0  0  0  0  0  0
   51.8399  151.6793   26.0436 H   0  0  0  0  0  0  0  0  0  0  0  0
   54.7150  152.7139   26.4320 H   0  0  0  0  0  0  0  0  0  0  0  0
   52.3809  152.6616   28.8957 H   0  0  0  0  0  0  0  0  0  0  0  0
   51.3498  154.5518   30.1327 H   0  0  0  0  0  0  0  0  0  0  0  0
   53.5231  160.2333   30.1793 H   0  0  0  0  0  0  0  0  0  0  0  0
   52.7839  162.2769   31.4077 H   0  0  0  0  0  0  0  0  0  0  0  0
   50.4265  162.4732   32.2023 H   0  0  0  0  0  0  0  0  0  0  0  0
   48.3480  161.4900   32.3550 H   0  0  0  0  0  0  0  0  0  0  0  0
   49.1090  155.2600   29.9080 H   0  0  0  0  0  0  0  0  0  0  0  0
   52.4134  157.2341   26.9240 H   0  0  0  0  0  0  0  0  0  0  0  0
   53.4771  154.6686   24.5416 H   0  0  0  0  0  0  0  0  0  0  0  0
   54.6615  156.6939   23.9984 H   0  0  0  0  0  0  0  0  0  0  0  0
   54.3886  157.3445   25.7682 H   0  0  0  0  0  0  0  0  0  0  0  0
  1  2  2  0
  2  3  1  0
  3  4  2  0
  4  5  1  0
  5  6  2  0
  6  7  1  0
  7  8  1  0
  8  9  1  0
  9 10  2  0
 10 11  1  0
 11 12  2  0
 12 13  1  0
 13 14  1  0
 13 15  2  0
 15 16  1  0
 16 17  2  0
 16 18  1  0
 18 19  1  0
  6 20  1  0
 20 21  2  0
 21 22  1  0
 22 23  2  0
 21  3  1  0
 18  7  2  0
 15  9  1  0
  1 24  1  0
  1 25  1  0
  2 26  1  0
  4 27  1  0
  5 28  1  0
 10 29  1  0
 11 30  1  0
 12 31  1  0
 14 32  1  0
 19 33  1  0
 20 34  1  0
 22 35  1  0
 23 36  1  0
 23 37  1  0
M  END
>  <meeko>  (4) 
{"is_sidechain": [false], "free_energy": -9.389, "intermolecular_energy": -11.202, "internal_energy": -0.436}

$$$$
cand_048_out
     RDKit          3D

 37 39  0  0  0  0  0  0  0  0999 V2000
   53.0690  153.9360   24.9820 C   0  0  0  0  0  0  0  0  0  0  0  0
   53.3980  154.0220   26.2770 C   0  0  0  0  0  0  0  0  0  0  0  0
   52.8970  155.0700   27.1840 C   0  0  0  0  0  0  0  0  0  0  0  0
   53.0380  156.4190   26.8180 C   0  0  0  0  0  0  0  0  0  0  0  0
   52.5410  157.4410   27.6310 C   0  0  0  0  0  0  0  0  0  0  0  0
   51.8790  157.1440   28.8270 C   0  0  0  0  0  0  0  0  0  0  0  0
   51.3890  158.2400   29.6880 C   0  0  0  0  0  0  0  0  0  0  0  0
   50.0550  158.0910   30.0480 O   0  0  0  0  0  0  0  0  0  0  0  0
   49.4730  159.0410   30.8470 C   0  0  0  0  0  0  0  0  0  0  0  0
   48.1270  158.8600   31.1710 C   0  0  0  0  0  0  0  0  0  0  0  0
   47.4740  159.7890   31.9820 C   0  0  0  0  0  0  0  0  0  0  0  0
   48.1660  160.8990   32.4710 C   0  0  0  0  0  0  0  0  0  0  0  0
   49.5080  161.0790   32.1460 C   0  0  0  0  0  0  0  0  0  0  0  0
   50.1240  162.1860   32.6590 O   0  0  0  0  0  0  0  0  0  0  0  0
   50.1610  160.1480   31.3330 C   0  0  0  0  0  0  0  0  0  0  0  0
   51.5700  160.2990   30.9690 C   0  0  0  0  0  0  0  0  0  0  0  0
   52.2480  161.2440   31.3650 O   0  0  0  0  0  0  0  0  0  0  0  0
   52.1670  159.2610   30.0950 C   0  0  0  0  0  0  0  0  0  0  0  0
   53.5020  159.4040   29.7680 O   0  0  0  0  0  0  0  0  0  0  0  0
   51.7370  155.7980   29.1940 C   0  0  0  0  0  0  0  0  0  0  0  0
   52.2190  154.7540   28.3810 C   0  0  0  0  0  0  0  0  0  0  0  0
   52.0660  153.3600   28.8360 C   0  0  0  0  0  0  0  0  0  0  0  0
   51.5750  152.3780   28.0690 C   0  0  0  0  0  0  0  0  0  0  0  0
   53.4811  153.1258   24.3625 H   0  0  0  0  0  0  0  0  0  0  0  0
   52.3866  154.6755   24.5376 H   0  0  0  0  0  0  0  0  0  0  0  0
   54.0827  153.2657   26.6883 H   0  0  0  0  0  0  0  0  0  0  0  0
   53.5474  156.6746   25.8771 H   0  0  0  0  0  0  0  0  0  0  0  0
   52.6717  158.4901   27.3274 H   0  0  0  0  0  0  0  0  0  0  0  0
   47.5815  157.9853   30.7871 H   0  0  0  0  0  0  0  0  0  0  0  0
   46.4133  159.6469   32.2363 H   0  0  0  0  0  0  0  0  0  0  0  0
   47.6517  161.6301   33.1120 H   0  0  0  0  0  0  0  0  0  0  0  0
   49.8600  163.0410   32.3810 H   0  0  0  0  0  0  0  0  0  0  0  0
   53.9450  160.2090   29.9510 H   0  0  0  0  0  0  0  0  0  0  0  0
   51.2360  155.5512   30.1417 H   0  0  0  0  0  0  0  0  0  0  0  0
   52.3723  153.1126   29.8631 H   0  0  0  0  0  0  0  0  0  0  0  0
   51.4873  151.3578   28.4709 H   0  0  0  0  0  0  0  0  0  0  0  0
   51.2594  152.5916   27.0371 H   0  0  0  0  0  0  0  0  0  0  0  0
  1  2  2  0
  2  3  1  0
  3  4  2  0
  4  5  1  0
  5  6  2  0
  6  7  1  0
  7  8  1  0
  8  9  1  0
  9 10  2  0
 10 11  1  0
 11 12  2  0
 12 13  1  0
 13 14  1  0
 13 15  2  0
 15 16  1  0
 16 17  2  0
 16 18  1  0
 18 19  1  0
  6 20  1  0
 20 21  2  0
 21 22  1  0
 22 23  2  0
 21  3  1  0
 18  7  2  0
 15  9  1  0
  1 24  1  0
  1 25  1  0
  2 26  1  0
  4 27  1  0
  5 28  1  0
 10 29  1  0
 11 30  1  0
 12 31  1  0
 14 32  1  0
 19 33  1  0
 20 34  1  0
 22 35  1  0
 23 36  1  0
 23 37  1  0
M  END
>  <meeko>  (5) 
{"is_sidechain": [false], "free_energy": -8.876, "intermolecular_energy": -11.084, "internal_energy": 0.079}

$$$$
cand_048_out
     RDKit          3D

 37 39  0  0  0  0  0  0  0  0999 V2000
   48.1480  158.9490   30.8160 C   0  0  0  0  0  0  0  0  0  0  0  0
   49.2880  158.3280   31.1430 C   0  0  0  0  0  0  0  0  0  0  0  0
   50.0890  157.5290   30.1980 C   0  0  0  0  0  0  0  0  0  0  0  0
   49.5910  156.2950   29.7510 C   0  0  0  0  0  0  0  0  0  0  0  0
   50.3000  155.5260   28.8240 C   0  0  0  0  0  0  0  0  0  0  0  0
   51.5220  155.9720   28.3110 C   0  0  0  0  0  0  0  0  0  0  0  0
   52.2720  155.1300   27.3570 C   0  0  0  0  0  0  0  0  0  0  0  0
   51.9380  153.7830   27.4460 O   0  0  0  0  0  0  0  0  0  0  0  0
   52.5640  152.8890   26.6150 C   0  0  0  0  0  0  0  0  0  0  0  0
   52.2100  151.5460   26.7490 C   0  0  0  0  0  0  0  0  0  0  0  0
   52.8080  150.5830   25.9340 C   0  0  0  0  0  0  0  0  0  0  0  0
   53.7580  150.9630   24.9840 C   0  0  0  0  0  0  0  0  0  0  0  0
   54.1100  152.3040   24.8520 C   0  0  0  0  0  0  0  0  0  0  0  0
   55.0460  152.6060   23.9030 O   0  0  0  0  0  0  0  0  0  0  0  0
   53.5120  153.2670   25.6700 C   0  0  0  0  0  0  0  0  0  0  0  0
   53.8530  154.6860   25.5640 C   0  0  0  0  0  0  0  0  0  0  0  0
   54.6740  155.1000   24.7480 O   0  0  0  0  0  0  0  0  0  0  0  0
   53.1670  155.6250   26.4830 C   0  0  0  0  0  0  0  0  0  0  0  0
   53.4860  156.9660   26.3660 O   0  0  0  0  0  0  0  0  0  0  0  0
   52.0220  157.2050   28.7570 C   0  0  0  0  0  0  0  0  0  0  0  0
   51.3140  158.0000   29.6790 C   0  0  0  0  0  0  0  0  0  0  0  0
   51.9050  159.2730   30.1320 C   0  0  0  0  0  0  0  0  0  0  0  0
   51.2850  160.4560   30.0380 C   0  0  0  0  0  0  0  0  0  0  0  0
   47.6009  159.5293   31.5736 H   0  0  0  0  0  0  0  0  0  0  0  0
   47.7583  158.8789   29.7897 H   0  0  0  0  0  0  0  0  0  0  0  0
   49.6484  158.4194   32.1783 H   0  0  0  0  0  0  0  0  0  0  0  0
   48.6283  155.9277   30.1361 H   0  0  0  0  0  0  0  0  0  0  0  0
   49.8922  154.5591   28.4943 H   0  0  0  0  0  0  0  0  0  0  0  0
   51.4604  151.2462   27.4961 H   0  0  0  0  0  0  0  0  0  0  0  0
   52.5304  149.5239   26.0404 H   0  0  0  0  0  0  0  0  0  0  0  0
   54.2277  150.2043   24.3407 H   0  0  0  0  0  0  0  0  0  0  0  0
   55.8980  152.8980   24.1600 H   0  0  0  0  0  0  0  0  0  0  0  0
   52.8190  157.6160   26.4670 H   0  0  0  0  0  0  0  0  0  0  0  0
   52.9914  157.5595   28.3769 H   0  0  0  0  0  0  0  0  0  0  0  0
   52.9128  159.2492   30.5723 H   0  0  0  0  0  0  0  0  0  0  0  0
   51.7841  161.3685   30.3960 H   0  0  0  0  0  0  0  0  0  0  0  0
   50.2765  160.5154   29.6028 H   0  0  0  0  0  0  0  0  0  0  0  0
  1  2  2  0
  2  3  1  0
  3  4  2  0
  4  5  1  0
  5  6  2  0
  6  7  1  0
  7  8  1  0
  8  9  1  0
  9 10  2  0
 10 11  1  0
 11 12  2  0
 12 13  1  0
 13 14  1  0
 13 15  2  0
 15 16  1  0
 16 17  2  0
 16 18  1  0
 18 19  1  0
  6 20  1  0
 20 21  2  0
 21 22  1  0
 22 23  2  0
 21  3  1  0
 18  7  2  0
 15  9  1  0
  1 24  1  0
  1 25  1  0
  2 26  1  0
  4 27  1  0
  5 28  1  0
 10 29  1  0
 11 30  1  0
 12 31  1  0
 14 32  1  0
 19 33  1  0
 20 34  1  0
 22 35  1  0
 23 36  1  0
 23 37  1  0
M  END
>  <meeko>  (6) 
{"is_sidechain": [false], "free_energy": -8.737, "intermolecular_energy": -11.127, "internal_energy": 0.294}

$$$$
cand_048_out
     RDKit          3D

 37 39  0  0  0  0  0  0  0  0999 V2000
   53.4590  153.8640   24.6850 C   0  0  0  0  0  0  0  0  0  0  0  0
   53.7880  153.9850   25.9770 C   0  0  0  0  0  0  0  0  0  0  0  0
   53.1200  154.9070   26.9130 C   0  0  0  0  0  0  0  0  0  0  0  0
   53.1450  156.2870   26.6510 C   0  0  0  0  0  0  0  0  0  0  0  0
   52.4890  157.1900   27.4920 C   0  0  0  0  0  0  0  0  0  0  0  0
   51.7810  156.7410   28.6100 C   0  0  0  0  0  0  0  0  0  0  0  0
   51.1220  157.7140   29.5050 C   0  0  0  0  0  0  0  0  0  0  0  0
   51.9220  158.8150   29.7900 O   0  0  0  0  0  0  0  0  0  0  0  0
   51.4300  159.7960   30.6130 C   0  0  0  0  0  0  0  0  0  0  0  0
   52.2730  160.8750   30.8860 C   0  0  0  0  0  0  0  0  0  0  0  0
   51.8350  161.9090   31.7140 C   0  0  0  0  0  0  0  0  0  0  0  0
   50.5540  161.8670   32.2670 C   0  0  0  0  0  0  0  0  0  0  0  0
   49.7150  160.7900   31.9940 C   0  0  0  0  0  0  0  0  0  0  0  0
   48.4740  160.8130   32.5680 O   0  0  0  0  0  0  0  0  0  0  0  0
   50.1550  159.7540   31.1650 C   0  0  0  0  0  0  0  0  0  0  0  0
   49.3050  158.6050   30.8530 C   0  0  0  0  0  0  0  0  0  0  0  0
   48.1630  158.4980   31.2960 O   0  0  0  0  0  0  0  0  0  0  0  0
   49.8690  157.5560   29.9710 C   0  0  0  0  0  0  0  0  0  0  0  0
   49.0540  156.4810   29.6690 O   0  0  0  0  0  0  0  0  0  0  0  0
   51.7540  155.3630   28.8730 C   0  0  0  0  0  0  0  0  0  0  0  0
   52.3970  154.4360   28.0300 C   0  0  0  0  0  0  0  0  0  0  0  0
   52.3590  153.0030   28.3760 C   0  0  0  0  0  0  0  0  0  0  0  0
   51.6290  152.0980   27.7110 C   0  0  0  0  0  0  0  0  0  0  0  0
   54.0016  153.1541   24.0434 H   0  0  0  0  0  0  0  0  0  0  0  0
   52.6461  154.4745   24.2649 H   0  0  0  0  0  0  0  0  0  0  0  0
   54.6058  153.3589   26.3632 H   0  0  0  0  0  0  0  0  0  0  0  0
   53.6887  156.6621   25.7714 H   0  0  0  0  0  0  0  0  0  0  0  0
   52.5304  158.2668   27.2713 H   0  0  0  0  0  0  0  0  0  0  0  0
   53.2817  160.9098   30.4486 H   0  0  0  0  0  0  0  0  0  0  0  0
   52.4997  162.7581   31.9312 H   0  0  0  0  0  0  0  0  0  0  0  0
   50.2079  162.6837   32.9176 H   0  0  0  0  0  0  0  0  0  0  0  0
   48.2230  160.1390   33.1690 H   0  0  0  0  0  0  0  0  0  0  0  0
   49.2610  155.9240   28.9450 H   0  0  0  0  0  0  0  0  0  0  0  0
   51.2168  154.9973   29.7605 H   0  0  0  0  0  0  0  0  0  0  0  0
   52.9638  152.6581   29.2276 H   0  0  0  0  0  0  0  0  0  0  0  0
   51.6454  151.0428   28.0213 H   0  0  0  0  0  0  0  0  0  0  0  0
   51.0132  152.4100   26.8546 H   0  0  0  0  0  0  0  0  0  0  0  0
  1  2  2  0
  2  3  1  0
  3  4  2  0
  4  5  1  0
  5  6  2  0
  6  7  1  0
  7  8  1  0
  8  9  1  0
  9 10  2  0
 10 11  1  0
 11 12  2  0
 12 13  1  0
 13 14  1  0
 13 15  2  0
 15 16  1  0
 16 17  2  0
 16 18  1  0
 18 19  1  0
  6 20  1  0
 20 21  2  0
 21 22  1  0
 22 23  2  0
 21  3  1  0
 18  7  2  0
 15  9  1  0
  1 24  1  0
  1 25  1  0
  2 26  1  0
  4 27  1  0
  5 28  1  0
 10 29  1  0
 11 30  1  0
 12 31  1  0
 14 32  1  0
 19 33  1  0
 20 34  1  0
 22 35  1  0
 23 36  1  0
 23 37  1  0
M  END
>  <meeko>  (7) 
{"is_sidechain": [false], "free_energy": -8.175, "intermolecular_energy": -9.922, "internal_energy": -0.218}

$$$$
cand_048_out
     RDKit          3D

 37 39  0  0  0  0  0  0  0  0999 V2000
   51.6390  160.7650   30.8080 C   0  0  0  0  0  0  0  0  0  0  0  0
   51.0320  159.5710   30.8130 C   0  0  0  0  0  0  0  0  0  0  0  0
   51.3930  158.4620   29.9120 C   0  0  0  0  0  0  0  0  0  0  0  0
   52.6560  158.4610   29.2970 C   0  0  0  0  0  0  0  0  0  0  0  0
   53.0510  157.4080   28.4680 C   0  0  0  0  0  0  0  0  0  0  0  0
   52.2020  156.3220   28.2380 C   0  0  0  0  0  0  0  0  0  0  0  0
   52.6260  155.2350   27.3320 C   0  0  0  0  0  0  0  0  0  0  0  0
   52.1380  153.9910   27.7140 O   0  0  0  0  0  0  0  0  0  0  0  0
   52.4580  152.8920   26.9580 C   0  0  0  0  0  0  0  0  0  0  0  0
   51.9600  151.6610   27.3870 C   0  0  0  0  0  0  0  0  0  0  0  0
   52.2470  150.5020   26.6630 C   0  0  0  0  0  0  0  0  0  0  0  0
   53.0300  150.5740   25.5100 C   0  0  0  0  0  0  0  0  0  0  0  0
   53.5270  151.8040   25.0840 C   0  0  0  0  0  0  0  0  0  0  0  0
   54.2860  151.8030   23.9470 O   0  0  0  0  0  0  0  0  0  0  0  0
   53.2400  152.9630   25.8100 C   0  0  0  0  0  0  0  0  0  0  0  0
   53.7410  154.2740   25.3960 C   0  0  0  0  0  0  0  0  0  0  0  0
   54.4300  154.4210   24.3900 O   0  0  0  0  0  0  0  0  0  0  0  0
   53.3860  155.4400   26.2400 C   0  0  0  0  0  0  0  0  0  0  0  0
   53.8530  156.6760   25.8340 O   0  0  0  0  0  0  0  0  0  0  0  0
   50.9390  156.3210   28.8500 C   0  0  0  0  0  0  0  0  0  0  0  0
   50.5290  157.3660   29.7000 C   0  0  0  0  0  0  0  0  0  0  0  0
   49.1790  157.3230   30.2910 C   0  0  0  0  0  0  0  0  0  0  0  0
   48.2020  158.1840   29.9760 C   0  0  0  0  0  0  0  0  0  0  0  0
   51.3173  161.5485   31.5099 H   0  0  0  0  0  0  0  0  0  0  0  0
   52.4592  160.9621   30.1020 H   0  0  0  0  0  0  0  0  0  0  0  0
   50.2157  159.4086   31.5322 H   0  0  0  0  0  0  0  0  0  0  0  0
   53.3440  159.3015   29.4706 H   0  0  0  0  0  0  0  0  0  0  0  0
   54.0418  157.4341   27.9908 H   0  0  0  0  0  0  0  0  0  0  0  0
   51.3417  151.6037   28.2950 H   0  0  0  0  0  0  0  0  0  0  0  0
   51.8556  149.5314   27.0017 H   0  0  0  0  0  0  0  0  0  0  0  0
   53.2544  149.6613   24.9385 H   0  0  0  0  0  0  0  0  0  0  0  0
   53.9120  152.0770   23.1330 H   0  0  0  0  0  0  0  0  0  0  0  0
   54.7310  156.9340   26.0350 H   0  0  0  0  0  0  0  0  0  0  0  0
   50.2522  155.4828   28.6609 H   0  0  0  0  0  0  0  0  0  0  0  0
   48.9616  156.5399   31.0323 H   0  0  0  0  0  0  0  0  0  0  0  0
   47.2157  158.0959   30.4550 H   0  0  0  0  0  0  0  0  0  0  0  0
   48.3862  158.9790   29.2384 H   0  0  0  0  0  0  0  0  0  0  0  0
  1  2  2  0
  2  3  1  0
  3  4  2  0
  4  5  1  0
  5  6  2  0
  6  7  1  0
  7  8  1  0
  8  9  1  0
  9 10  2  0
 10 11  1  0
 11 12  2  0
 12 13  1  0
 13 14  1  0
 13 15  2  0
 15 16  1  0
 16 17  2  0
 16 18  1  0
 18 19  1  0
  6 20  1  0
 20 21  2  0
 21 22  1  0
 22 23  2  0
 21  3  1  0
 18  7  2  0
 15  9  1  0
  1 24  1  0
  1 25  1  0
  2 26  1  0
  4 27  1  0
  5 28  1  0
 10 29  1  0
 11 30  1  0
 12 31  1  0
 14 32  1  0
 19 33  1  0
 20 34  1  0
 22 35  1  0
 23 36  1  0
 23 37  1  0
M  END
>  <meeko>  (8) 
{"is_sidechain": [false], "free_energy": -8.026, "intermolecular_energy": -10.04, "internal_energy": 0.084}

$$$$
