cand_027_out
     RDKit          3D

 44 46  0  0  0  0  0  0  0  0999 V2000
   52.9070  152.4150   26.7240 C   0  0  0  0  0  0  0  0  0  0  0  0
   52.5940  153.7600   27.3230 C   0  0  0  0  0  0  0  0  0  0  0  0
   51.9250  153.7260   28.5660 C   0  0  0  0  0  0  0  0  0  0  0  0
   51.5750  154.8880   29.2460 C   0  0  0  0  0  0  0  0  0  0  0  0
   51.8870  156.1300   28.7070 C   0  0  0  0  0  0  0  0  0  0  0  0
   51.5190  157.3890   29.3880 C   0  0  0  0  0  0  0  0  0  0  0  0
   50.1920  157.4100   29.8050 O   0  0  0  0  0  0  0  0  0  0  0  0
   49.7170  158.5220   30.4500 C   0  0  0  0  0  0  0  0  0  0  0  0
   48.3840  158.4940   30.8620 C   0  0  0  0  0  0  0  0  0  0  0  0
   47.8360  159.5950   31.5240 C   0  0  0  0  0  0  0  0  0  0  0  0
   48.6200  160.7240   31.7720 C   0  0  0  0  0  0  0  0  0  0  0  0
   49.9490  160.7490   31.3600 C   0  0  0  0  0  0  0  0  0  0  0  0
   50.6590  161.8860   31.6340 O   0  0  0  0  0  0  0  0  0  0  0  0
   50.4980  159.6470   30.6990 C   0  0  0  0  0  0  0  0  0  0  0  0
   51.8890  159.6320   30.2490 C   0  0  0  0  0  0  0  0  0  0  0  0
   52.6400  160.5890   30.4250 O   0  0  0  0  0  0  0  0  0  0  0  0
   52.3750  158.4130   29.5620 C   0  0  0  0  0  0  0  0  0  0  0  0
   53.6880  158.4150   29.1290 O   0  0  0  0  0  0  0  0  0  0  0  0
   52.5320  156.1700   27.4560 C   0  0  0  0  0  0  0  0  0  0  0  0
   52.8900  155.0110   26.7190 C   0  0  0  0  0  0  0  0  0  0  0  0
   53.6010  155.1830   25.3480 C   0  0  0  0  0  0  0  0  0  0  0  0
   54.1250  156.6180   25.1140 C   0  0  0  0  0  0  0  0  0  0  0  0
   52.6240  154.7890   24.2190 C   0  0  0  0  0  0  0  0  0  0  0  0
   54.8520  154.2720   25.1830 C   0  0  0  0  0  0  0  0  0  0  0  0
   53.0768  151.6854   27.5295 H   0  0  0  0  0  0  0  0  0  0  0  0
   52.0617  152.0848   26.1024 H   0  0  0  0  0  0  0  0  0  0  0  0
   53.8112  152.4919   26.1024 H   0  0  0  0  0  0  0  0  0  0  0  0
   51.6731  152.7516   29.0099 H   0  0  0  0  0  0  0  0  0  0  0  0
   51.0509  154.8235   30.2110 H   0  0  0  0  0  0  0  0  0  0  0  0
   47.7655  157.6058   30.6656 H   0  0  0  0  0  0  0  0  0  0  0  0
   46.7858  159.5729   31.8504 H   0  0  0  0  0  0  0  0  0  0  0  0
   48.1878  161.5917   32.2919 H   0  0  0  0  0  0  0  0  0  0  0  0
   51.2840  162.2090   31.0160 H   0  0  0  0  0  0  0  0  0  0  0  0
   54.3020  157.8060   29.4900 H   0  0  0  0  0  0  0  0  0  0  0  0
   52.7717  157.1538   27.0261 H   0  0  0  0  0  0  0  0  0  0  0  0
   54.3032  157.1059   26.0836 H   0  0  0  0  0  0  0  0  0  0  0  0
   55.0660  156.5766   24.5459 H   0  0  0  0  0  0  0  0  0  0  0  0
   53.3787  157.1928   24.5459 H   0  0  0  0  0  0  0  0  0  0  0  0
   51.6888  154.4119   24.6584 H   0  0  0  0  0  0  0  0  0  0  0  0
   52.4077  155.6702   23.5971 H   0  0  0  0  0  0  0  0  0  0  0  0
   53.0795  154.0043   23.5971 H   0  0  0  0  0  0  0  0  0  0  0  0
   55.2356  153.9927   26.1754 H   0  0  0  0  0  0  0  0  0  0  0  0
   54.5736  153.3637   24.6285 H   0  0  0  0  0  0  0  0  0  0  0  0
   55.6310  154.8158   24.6285 H   0  0  0  0  0  0  0  0  0  0  0  0
  1  2  1  0
  2  3  2  0
  3  4  1  0
  4  5  2  0
  5  6  1  0
  6  7  1  0
  7  8  1  0
  8  9  2  0
  9 10  1  0
 10 11  2  0
 11 12  1  0
 12 13  1  0
 12 14  2  0
 14 15  1  0
 15 16  2  0
 15 17  1  0
 17 18  1  0
  5 19  1  0
 19 20  2  0
 20 21  1  0
 21 22  1  0
 21 23  1  0
 21 24  1  0
 20  2  1  0
 17  6  2  0
 14  8  1  0
  1 25  1  0
  1 26  1  0
  1 27  1  0
  3 28  1  0
  4 29  1  0
  9 30  1  0
 10 31  1  0
 11 32  1  0
 13 33  1  0
 18 34  1  0
 19 35  1  0
 22 36  1  0
 22 37  1  0
 22 38  1  0
 23 39  1  0
 23 40  1  0
 23 41  1  0
 24 42  1  0
 24 43  1  0
 24 44  1  0
M  END
>  <meeko>  (1) 
{"is_sidechain": [false], "free_energy": -10.282, "intermolecular_energy": -12.085, "internal_energy": 0.086}

$$$$
cand_027_out
     RDKit          3D

 44 46  0  0  0  0  0  0  0  0999 V2000
   51.3520  161.3270   31.2230 C   0  0  0  0  0  0  0  0  0  0  0  0
   51.4480  159.9870   30.5430 C   0  0  0  0  0  0  0  0  0  0  0  0
   52.7330  159.6440   30.0670 C   0  0  0  0  0  0  0  0  0  0  0  0
   52.9810  158.4360   29.4220 C   0  0  0  0  0  0  0  0  0  0  0  0
   51.9500  157.5240   29.2350 C   0  0  0  0  0  0  0  0  0  0  0  0
   52.1660  156.2370   28.5400 C   0  0  0  0  0  0  0  0  0  0  0  0
   52.6470  156.3960   27.2450 O   0  0  0  0  0  0  0  0  0  0  0  0
   52.8900  155.2800   26.4860 C   0  0  0  0  0  0  0  0  0  0  0  0
   53.3840  155.4870   25.1970 C   0  0  0  0  0  0  0  0  0  0  0  0
   53.6520  154.3930   24.3700 C   0  0  0  0  0  0  0  0  0  0  0  0
   53.4250  153.0950   24.8320 C   0  0  0  0  0  0  0  0  0  0  0  0
   52.9320  152.8930   26.1180 C   0  0  0  0  0  0  0  0  0  0  0  0
   52.7320  151.5950   26.5060 O   0  0  0  0  0  0  0  0  0  0  0  0
   52.6650  153.9860   26.9460 C   0  0  0  0  0  0  0  0  0  0  0  0
   52.1460  153.8180   28.3030 C   0  0  0  0  0  0  0  0  0  0  0  0
   51.9150  152.7080   28.7780 O   0  0  0  0  0  0  0  0  0  0  0  0
   51.9020  155.0420   29.1010 C   0  0  0  0  0  0  0  0  0  0  0  0
   51.3990  154.8720   30.3770 O   0  0  0  0  0  0  0  0  0  0  0  0
   50.6630  157.8720   29.6850 C   0  0  0  0  0  0  0  0  0  0  0  0
   50.3600  159.1010   30.3290 C   0  0  0  0  0  0  0  0  0  0  0  0
   48.8990  159.3710   30.7830 C   0  0  0  0  0  0  0  0  0  0  0  0
   48.7090  159.2520   32.3130 C   0  0  0  0  0  0  0  0  0  0  0  0
   47.9550  158.3890   30.0570 C   0  0  0  0  0  0  0  0  0  0  0  0
   48.3980  160.8020   30.4320 C   0  0  0  0  0  0  0  0  0  0  0  0
   51.3621  161.1861   32.3139 H   0  0  0  0  0  0  0  0  0  0  0  0
   52.2077  161.9511   30.9259 H   0  0  0  0  0  0  0  0  0  0  0  0
   50.4160  161.8227   30.9259 H   0  0  0  0  0  0  0  0  0  0  0  0
   53.5621  160.3526   30.2104 H   0  0  0  0  0  0  0  0  0  0  0  0
   53.9934  158.2034   29.0603 H   0  0  0  0  0  0  0  0  0  0  0  0
   53.5620  156.5096   24.8328 H   0  0  0  0  0  0  0  0  0  0  0  0
   54.0421  154.5545   23.3542 H   0  0  0  0  0  0  0  0  0  0  0  0
   53.6354  152.2337   24.1809 H   0  0  0  0  0  0  0  0  0  0  0  0
   52.4470  151.4050   27.3770 H   0  0  0  0  0  0  0  0  0  0  0  0
   51.7000  155.4190   31.0750 H   0  0  0  0  0  0  0  0  0  0  0  0
   49.8461  157.1520   29.5293 H   0  0  0  0  0  0  0  0  0  0  0  0
   49.5336  159.7685   32.8261 H   0  0  0  0  0  0  0  0  0  0  0  0
   47.7524  159.7126   32.6006 H   0  0  0  0  0  0  0  0  0  0  0  0
   48.7059  158.1903   32.6006 H   0  0  0  0  0  0  0  0  0  0  0  0
   47.3927  157.8041   30.7998 H   0  0  0  0  0  0  0  0  0  0  0  0
   47.2523  158.9540   29.4269 H   0  0  0  0  0  0  0  0  0  0  0  0
   48.5473  157.7091   29.4269 H   0  0  0  0  0  0  0  0  0  0  0  0
   48.2027  161.3599   31.3597 H   0  0  0  0  0  0  0  0  0  0  0  0
   49.1663  161.3256   29.8441 H   0  0  0  0  0  0  0  0  0  0  0  0
   47.4709  160.7320   29.8441 H   0  0  0  0  0  0  0  0  0  0  0  0
  1  2  1  0
  2  3  2  0
  3  4  1  0
  4  5  2  0
  5  6  1  0
  6  7  1  0
  7  8  1  0
  8  9  2  0
  9 10  1  0
 10 11  2  0
 11 12  1  0
 12 13  1  0
 12 14  2  0
 14 15  1  0
 15 16  2  0
 15 17  1  0
 17 18  1  0
  5 19  1  0
 19 20  2  0
 20 21  1  0
 21 22  1  0
 21 23  1  0
 21 24  1  0
 20  2  1  0
 17  6  2  0
 14  8  1  0
  1 25  1  0
  1 26  1  0
  1 27  1  0
  3 28  1  0
  4 29  1  0
  9 30  1  0
 10 31  1  0
 11 32  1  0
 13 33  1  0
 18 34  1  0
 19 35  1  0
 22 36  1  0
 22 37  1  0
 22 38  1  0
 23 39  1  0
 23 40  1  0
 23 41  1  0
 24 42  1  0
 24 43  1  0
 24 44  1  0
M  END
>  <meeko>  (2) 
{"is_sidechain": [false], "free_energy": -10.262, "intermolecular_energy": -11.908, "internal_energy": -0.067}

$$$$
cand_027_out
     RDKit          3D

 44 46  0  0  0  0  0  0  0  0999 V2000
   53.5930  152.4820   26.7550 C   0  0  0  0  0  0  0  0  0  0  0  0
   52.9910  153.7310   27.3430 C   0  0  0  0  0  0  0  0  0  0  0  0
   52.3650  153.5650   28.5980 C   0  0  0  0  0  0  0  0  0  0  0  0
   51.7690  154.6290   29.2690 C   0  0  0  0  0  0  0  0  0  0  0  0
   51.7820  155.9000   28.7080 C   0  0  0  0  0  0  0  0  0  0  0  0
   51.1460  157.0530   29.3790 C   0  0  0  0  0  0  0  0  0  0  0  0
   52.0360  158.0920   29.6280 O   0  0  0  0  0  0  0  0  0  0  0  0
   51.5770  159.2250   30.2490 C   0  0  0  0  0  0  0  0  0  0  0  0
   52.5020  160.2470   30.4670 C   0  0  0  0  0  0  0  0  0  0  0  0
   52.1010  161.4270   31.0960 C   0  0  0  0  0  0  0  0  0  0  0  0
   50.7750  161.5850   31.5090 C   0  0  0  0  0  0  0  0  0  0  0  0
   49.8550  160.5630   31.2900 C   0  0  0  0  0  0  0  0  0  0  0  0
   48.5750  160.7840   31.7190 O   0  0  0  0  0  0  0  0  0  0  0  0
   50.2560  159.3830   30.6590 C   0  0  0  0  0  0  0  0  0  0  0  0
   49.3220  158.2860   30.4110 C   0  0  0  0  0  0  0  0  0  0  0  0
   48.1420  158.3470   30.7490 O   0  0  0  0  0  0  0  0  0  0  0  0
   49.8460  157.0790   29.7300 C   0  0  0  0  0  0  0  0  0  0  0  0
   48.9580  156.0420   29.5130 O   0  0  0  0  0  0  0  0  0  0  0  0
   52.3830  156.0650   27.4460 C   0  0  0  0  0  0  0  0  0  0  0  0
   52.9850  155.0050   26.7170 C   0  0  0  0  0  0  0  0  0  0  0  0
   53.6180  155.3120   25.3310 C   0  0  0  0  0  0  0  0  0  0  0  0
   54.0820  156.7800   25.1900 C   0  0  0  0  0  0  0  0  0  0  0  0
   52.5980  154.9740   24.2240 C   0  0  0  0  0  0  0  0  0  0  0  0
   54.8880  154.4650   25.0320 C   0  0  0  0  0  0  0  0  0  0  0  0
   53.9154  151.8132   27.5666 H   0  0  0  0  0  0  0  0  0  0  0  0
   52.8426  151.9703   26.1345 H   0  0  0  0  0  0  0  0  0  0  0  0
   54.4607  152.7502   26.1345 H   0  0  0  0  0  0  0  0  0  0  0  0
   52.3479  152.5662   29.0585 H   0  0  0  0  0  0  0  0  0  0  0  0
   51.2874  154.4634   30.2440 H   0  0  0  0  0  0  0  0  0  0  0  0
   53.5460  160.1229   30.1435 H   0  0  0  0  0  0  0  0  0  0  0  0
   52.8294  162.2334   31.2668 H   0  0  0  0  0  0  0  0  0  0  0  0
   50.4591  162.5143   32.0057 H   0  0  0  0  0  0  0  0  0  0  0  0
   48.3810  161.5310   32.2490 H   0  0  0  0  0  0  0  0  0  0  0  0
   49.0610  155.2330   29.9740 H   0  0  0  0  0  0  0  0  0  0  0  0
   52.3867  157.0704   26.9996 H   0  0  0  0  0  0  0  0  0  0  0  0
   54.2206  157.2183   26.1893 H   0  0  0  0  0  0  0  0  0  0  0  0
   55.0342  156.8124   24.6402 H   0  0  0  0  0  0  0  0  0  0  0  0
   53.3214  157.3538   24.6402 H   0  0  0  0  0  0  0  0  0  0  0  0
   51.6492  154.6596   24.6832 H   0  0  0  0  0  0  0  0  0  0  0  0
   52.4263  155.8633   23.5997 H   0  0  0  0  0  0  0  0  0  0  0  0
   52.9913  154.1581   23.5997 H   0  0  0  0  0  0  0  0  0  0  0  0
   55.3532  154.1547   25.9793 H   0  0  0  0  0  0  0  0  0  0  0  0
   54.6061  153.5734   24.4526 H   0  0  0  0  0  0  0  0  0  0  0  0
   55.6028  155.0679   24.4526 H   0  0  0  0  0  0  0  0  0  0  0  0
  1  2  1  0
  2  3  2  0
  3  4  1  0
  4  5  2  0
  5  6  1  0
  6  7  1  0
  7  8  1  0
  8  9  2  0
  9 10  1  0
 10 11  2  0
 11 12  1  0
 12 13  1  0
 12 14  2  0
 14 15  1  0
 15 16  2  0
 15 17  1  0
 17 18  1  0
  5 19  1  0
 19 20  2  0
 20 21  1  0
 21 22  1  0
 21 23  1  0
 21 24  1  0
 20  2  1  0
 17  6  2  0
 14  8  1  0
  1 25  1  0
  1 26  1  0
  1 27  1  0
  3 28  1  0
  4 29  1  0
  9 30  1  0
 10 31  1  0
 11 32  1  0
 13 33  1  0
 18 34  1  0
 19 35  1  0
 22 36  1  0
 22 37  1  0
 22 38  1  0
 23 39  1  0
 23 40  1  0
 23 41  1  0
 24 42  1  0
 24 43  1  0
 24 44  1  0
M  END
>  <meeko>  (3) 
{"is_sidechain": [false], "free_energy": -8.8, "intermolecular_energy": -10.353, "internal_energy": 0.096}

$$$$
cand_027_out
     RDKit          3D

 44 46  0  0  0  0  0  0  0  0999 V2000
   48.1800  159.3500   31.5370 C   0  0  0  0  0  0  0  0  0  0  0  0
   49.1830  158.5460   30.7520 C   0  0  0  0  0  0  0  0  0  0  0  0
   48.7550  157.2550   30.3710 C   0  0  0  0  0  0  0  0  0  0  0  0
   49.5680  156.3960   29.6380 C   0  0  0  0  0  0  0  0  0  0  0  0
   50.8400  156.8030   29.2540 C   0  0  0  0  0  0  0  0  0  0  0  0
   51.7420  155.9160   28.4890 C   0  0  0  0  0  0  0  0  0  0  0  0
   52.1870  156.4910   27.3030 O   0  0  0  0  0  0  0  0  0  0  0  0
   53.0300  155.7740   26.4940 C   0  0  0  0  0  0  0  0  0  0  0  0
   53.4610  156.3950   25.3210 C   0  0  0  0  0  0  0  0  0  0  0  0
   54.3200  155.7200   24.4500 C   0  0  0  0  0  0  0  0  0  0  0  0
   54.7470  154.4250   24.7530 C   0  0  0  0  0  0  0  0  0  0  0  0
   54.3140  153.8080   25.9240 C   0  0  0  0  0  0  0  0  0  0  0  0
   54.7700  152.5390   26.1580 O   0  0  0  0  0  0  0  0  0  0  0  0
   53.4560  154.4840   26.7950 C   0  0  0  0  0  0  0  0  0  0  0  0
   52.9780  153.8730   28.0350 C   0  0  0  0  0  0  0  0  0  0  0  0
   53.3040  152.7350   28.3670 O   0  0  0  0  0  0  0  0  0  0  0  0
   52.0750  154.6760   28.8920 C   0  0  0  0  0  0  0  0  0  0  0  0
   51.6190  154.0830   30.0540 O   0  0  0  0  0  0  0  0  0  0  0  0
   51.2800  158.0790   29.6520 C   0  0  0  0  0  0  0  0  0  0  0  0
   50.4930  158.9790   30.4170 C   0  0  0  0  0  0  0  0  0  0  0  0
   51.0890  160.3630   30.7960 C   0  0  0  0  0  0  0  0  0  0  0  0
   50.9150  160.7080   32.2930 C   0  0  0  0  0  0  0  0  0  0  0  0
   50.4280  161.4530   29.9250 C   0  0  0  0  0  0  0  0  0  0  0  0
   52.6200  160.4660   30.5410 C   0  0  0  0  0  0  0  0  0  0  0  0
   48.3576  159.2077   32.6132 H   0  0  0  0  0  0  0  0  0  0  0  0
   48.2867  160.4156   31.2855 H   0  0  0  0  0  0  0  0  0  0  0  0
   47.1632  159.0140   31.2855 H   0  0  0  0  0  0  0  0  0  0  0  0
   47.7490  156.9187   30.6624 H   0  0  0  0  0  0  0  0  0  0  0  0
   49.2040  155.3952   29.3626 H   0  0  0  0  0  0  0  0  0  0  0  0
   53.1248  157.4148   25.0824 H   0  0  0  0  0  0  0  0  0  0  0  0
   54.6602  156.2087   23.5251 H   0  0  0  0  0  0  0  0  0  0  0  0
   55.4240  153.8936   24.0680 H   0  0  0  0  0  0  0  0  0  0  0  0
   55.6860  152.3860   26.2830 H   0  0  0  0  0  0  0  0  0  0  0  0
   52.2020  153.5720   30.5790 H   0  0  0  0  0  0  0  0  0  0  0  0
   52.2900  158.3966   29.3537 H   0  0  0  0  0  0  0  0  0  0  0  0
   51.3259  159.8932   32.9072 H   0  0  0  0  0  0  0  0  0  0  0  0
   51.4495  161.6426   32.5184 H   0  0  0  0  0  0  0  0  0  0  0  0
   49.8457  160.8336   32.5184 H   0  0  0  0  0  0  0  0  0  0  0  0
   49.9676  162.2121   30.5744 H   0  0  0  0  0  0  0  0  0  0  0  0
   51.1907  161.9274   29.2900 H   0  0  0  0  0  0  0  0  0  0  0  0
   49.6547  160.9960   29.2900 H   0  0  0  0  0  0  0  0  0  0  0  0
   53.1505  160.5017   31.5040 H   0  0  0  0  0  0  0  0  0  0  0  0
   52.9564  159.5885   29.9694 H   0  0  0  0  0  0  0  0  0  0  0  0
   52.8358  161.3807   29.9694 H   0  0  0  0  0  0  0  0  0  0  0  0
  1  2  1  0
  2  3  2  0
  3  4  1  0
  4  5  2  0
  5  6  1  0
  6  7  1  0
  7  8  1  0
  8  9  2  0
  9 10  1  0
 10 11  2  0
 11 12  1  0
 12 13  1  0
 12 14  2  0
 14 15  1  0
 15 16  2  0
 15 17  1  0
 17 18  1  0
  5 19  1  0
 19 20  2  0
 20 21  1  0
 21 22  1  0
 21 23  1  0
 21 24  1  0
 20  2  1  0
 17  6  2  0
 14  8  1  0
  1 25  1  0
  1 26  1  0
  1 27  1  0
  3 28  1  0
  4 29  1  0
  9 30  1  0
 10 31  1  0
 11 32  1  0
 13 33  1  0
 18 34  1  0
 19 35  1  0
 22 36  1  0
 22 37  1  0
 22 38  1  0
 23 39  1  0
 23 40  1  0
 23 41  1  0
 24 42  1  0
 24 43  1  0
 24 44  1  0
M  END
>  <meeko>  (4) 
{"is_sidechain": [false], "free_energy": -8.551, "intermolecular_energy": -9.898, "internal_energy": -0.066}

$$$$
