cand_028_out
     RDKit          3D

 38 40  0  0  0  0  0  0  0  0999 V2000
   47.3020  159.7280   30.7880 C   0  0  0  0  0  0  0  0  0  0  0  0
   48.3020  158.8470   31.5210 C   0  0  0  0  0  0  0  0  0  0  0  0
   49.6740  158.9040   30.8890 C   0  0  0  0  0  0  0  0  0  0  0  0
   50.1330  157.7700   30.1880 C   0  0  0  0  0  0  0  0  0  0  0  0
   51.4010  157.7350   29.5910 C   0  0  0  0  0  0  0  0  0  0  0  0
   51.8730  156.5570   28.8330 C   0  0  0  0  0  0  0  0  0  0  0  0
   52.4710  156.8980   27.6240 O   0  0  0  0  0  0  0  0  0  0  0  0
   52.9540  155.8980   26.8190 C   0  0  0  0  0  0  0  0  0  0  0  0
   53.5320  156.2840   25.6090 C   0  0  0  0  0  0  0  0  0  0  0  0
   54.0460  155.3160   24.7420 C   0  0  0  0  0  0  0  0  0  0  0  0
   53.9810  153.9640   25.0850 C   0  0  0  0  0  0  0  0  0  0  0  0
   53.4040  153.5830   26.2940 C   0  0  0  0  0  0  0  0  0  0  0  0
   53.3750  152.2420   26.5680 O   0  0  0  0  0  0  0  0  0  0  0  0
   52.8890  154.5510   27.1600 C   0  0  0  0  0  0  0  0  0  0  0  0
   52.2750  154.1920   28.4400 C   0  0  0  0  0  0  0  0  0  0  0  0
   52.1880  153.0260   28.8150 O   0  0  0  0  0  0  0  0  0  0  0  0
   51.7530  155.2940   29.2810 C   0  0  0  0  0  0  0  0  0  0  0  0
   51.1870  154.9440   30.4930 O   0  0  0  0  0  0  0  0  0  0  0  0
   52.2130  158.8700   29.6920 C   0  0  0  0  0  0  0  0  0  0  0  0
   51.7760  160.0010   30.3880 C   0  0  0  0  0  0  0  0  0  0  0  0
   50.5140  160.0290   31.0000 C   0  0  0  0  0  0  0  0  0  0  0  0
   50.0900  161.2720   31.7320 C   0  0  0  0  0  0  0  0  0  0  0  0
   46.6859  160.2708   31.5200 H   0  0  0  0  0  0  0  0  0  0  0  0
   47.8422  160.4491   30.1569 H   0  0  0  0  0  0  0  0  0  0  0  0
   46.6547  159.1013   30.1569 H   0  0  0  0  0  0  0  0  0  0  0  0
   48.3769  159.1866   32.5646 H   0  0  0  0  0  0  0  0  0  0  0  0
   47.9448  157.8081   31.4663 H   0  0  0  0  0  0  0  0  0  0  0  0
   49.4788  156.8894   30.1074 H   0  0  0  0  0  0  0  0  0  0  0  0
   53.5830  157.3489   25.3380 H   0  0  0  0  0  0  0  0  0  0  0  0
   54.5023  155.6195   23.7882 H   0  0  0  0  0  0  0  0  0  0  0  0
   54.3845  153.2018   24.4021 H   0  0  0  0  0  0  0  0  0  0  0  0
   52.5870  151.8470   26.8880 H   0  0  0  0  0  0  0  0  0  0  0  0
   50.3070  155.1990   30.6900 H   0  0  0  0  0  0  0  0  0  0  0  0
   53.2059  158.8724   29.2187 H   0  0  0  0  0  0  0  0  0  0  0  0
   52.4313  160.8818   30.4567 H   0  0  0  0  0  0  0  0  0  0  0  0
   50.1496  161.0973   32.8164 H   0  0  0  0  0  0  0  0  0  0  0  0
   50.7551  162.1040   31.4576 H   0  0  0  0  0  0  0  0  0  0  0  0
   49.0550  161.5241   31.4576 H   0  0  0  0  0  0  0  0  0  0  0  0
  1  2  1  0
  2  3  1  0
  3  4  2  0
  4  5  1  0
  5  6  1  0
  6  7  1  0
  7  8  1  0
  8  9  2  0
  9 10  1  0
 10 11  2  0
 11 12  1  0
 12 13  1  0
 12 14  2  0
 14 15  1  0
 15 16  2  0
 15 17  1  0
 17 18  1  0
  5 19  2  0
 19 20  1  0
 20 21  2  0
 21 22  1  0
 21  3  1  0
 17  6  2  0
 14  8  1  0
  1 23  1  0
  1 24  1  0
  1 25  1  0
  2 26  1  0
  2 27  1  0
  4 28  1  0
  9 29  1  0
 10 30  1  0
 11 31  1  0
 13 32  1  0
 18 33  1  0
 19 34  1  0
 20 35  1  0
 22 36  1  0
 22 37  1  0
 22 38  1  0
M  END
>  <meeko>  (1) 
{"is_sidechain": [false], "free_energy": -10.683, "intermolecular_energy": -12.556, "internal_energy": 0.01}

$$$$
cand_028_out
     RDKit          3D

 38 40  0  0  0  0  0  0  0  0999 V2000
   53.9630  156.4310   25.1980 C   0  0  0  0  0  0  0  0  0  0  0  0
   53.3650  155.0590   25.4720 C   0  0  0  0  0  0  0  0  0  0  0  0
   52.7200  154.9870   26.8380 C   0  0  0  0  0  0  0  0  0  0  0  0
   52.3960  156.1960   27.4870 C   0  0  0  0  0  0  0  0  0  0  0  0
   51.8150  156.2150   28.7620 C   0  0  0  0  0  0  0  0  0  0  0  0
   51.4510  157.4810   29.4330 C   0  0  0  0  0  0  0  0  0  0  0  0
   50.1320  157.4990   29.8740 O   0  0  0  0  0  0  0  0  0  0  0  0
   49.6610  158.6170   30.5140 C   0  0  0  0  0  0  0  0  0  0  0  0
   48.3280  158.5960   30.9240 C   0  0  0  0  0  0  0  0  0  0  0  0
   47.7850  159.7010   31.5850 C   0  0  0  0  0  0  0  0  0  0  0  0
   48.5760  160.8260   31.8330 C   0  0  0  0  0  0  0  0  0  0  0  0
   49.9060  160.8430   31.4220 C   0  0  0  0  0  0  0  0  0  0  0  0
   50.6240  161.9750   31.6980 O   0  0  0  0  0  0  0  0  0  0  0  0
   50.4480  159.7370   30.7610 C   0  0  0  0  0  0  0  0  0  0  0  0
   51.8420  159.7140   30.3120 C   0  0  0  0  0  0  0  0  0  0  0  0
   52.6010  160.6610   30.5010 O   0  0  0  0  0  0  0  0  0  0  0  0
   52.3150  158.4970   29.6150 C   0  0  0  0  0  0  0  0  0  0  0  0
   53.6370  158.4810   29.2070 O   0  0  0  0  0  0  0  0  0  0  0  0
   51.5430  154.9930   29.3860 C   0  0  0  0  0  0  0  0  0  0  0  0
   51.8620  153.7850   28.7590 C   0  0  0  0  0  0  0  0  0  0  0  0
   52.4600  153.7670   27.4900 C   0  0  0  0  0  0  0  0  0  0  0  0
   52.7780  152.4400   26.8570 C   0  0  0  0  0  0  0  0  0  0  0  0
   54.1817  156.9328   26.1521 H   0  0  0  0  0  0  0  0  0  0  0  0
   54.8931  156.3172   24.6219 H   0  0  0  0  0  0  0  0  0  0  0  0
   53.2465  157.0349   24.6219 H   0  0  0  0  0  0  0  0  0  0  0  0
   52.6038  154.8438   24.7076 H   0  0  0  0  0  0  0  0  0  0  0  0
   54.1792  154.3200   25.4403 H   0  0  0  0  0  0  0  0  0  0  0  0
   52.6048  157.1492   26.9792 H   0  0  0  0  0  0  0  0  0  0  0  0
   47.7051  157.7109   30.7273 H   0  0  0  0  0  0  0  0  0  0  0  0
   46.7343  159.6853   31.9103 H   0  0  0  0  0  0  0  0  0  0  0  0
   48.1485  161.6966   32.3520 H   0  0  0  0  0  0  0  0  0  0  0  0
   51.2010  161.9940   32.4370 H   0  0  0  0  0  0  0  0  0  0  0  0
   53.9410  157.8100   28.6280 H   0  0  0  0  0  0  0  0  0  0  0  0
   51.0731  154.9825   30.3805 H   0  0  0  0  0  0  0  0  0  0  0  0
   51.6410  152.8351   29.2678 H   0  0  0  0  0  0  0  0  0  0  0  0
   52.9572  151.6921   27.6435 H   0  0  0  0  0  0  0  0  0  0  0  0
   51.9312  152.1194   26.2323 H   0  0  0  0  0  0  0  0  0  0  0  0
   53.6781  152.5380   26.2323 H   0  0  0  0  0  0  0  0  0  0  0  0
  1  2  1  0
  2  3  1  0
  3  4  2  0
  4  5  1  0
  5  6  1  0
  6  7  1  0
  7  8  1  0
  8  9  2  0
  9 10  1  0
 10 11  2  0
 11 12  1  0
 12 13  1  0
 12 14  2  0
 14 15  1  0
 15 16  2  0
 15 17  1  0
 17 18  1  0
  5 19  2  0
 19 20  1  0
 20 21  2  0
 21 22  1  0
 21  3  1  0
 17  6  2  0
 14  8  1  0
  1 23  1  0
  1 24  1  0
  1 25  1  0
  2 26  1  0
  2 27  1  0
  4 28  1  0
  9 29  1  0
 10 30  1  0
 11 31  1  0
 13 32  1  0
 18 33  1  0
 19 34  1  0
 20 35  1  0
 22 36  1  0
 22 37  1  0
 22 38  1  0
M  END
>  <meeko>  (2) 
{"is_sidechain": [false], "free_energy": -10.337, "intermolecular_energy": -11.875, "internal_energy": -0.264}

$$$$
cand_028_out
     RDKit          3D

 38 40  0  0  0  0  0  0  0  0999 V2000
   52.7470  161.2450   31.6500 C   0  0  0  0  0  0  0  0  0  0  0  0
   51.8620  161.1670   30.4150 C   0  0  0  0  0  0  0  0  0  0  0  0
   51.1150  159.8550   30.3370 C   0  0  0  0  0  0  0  0  0  0  0  0
   51.7080  158.7900   29.6300 C   0  0  0  0  0  0  0  0  0  0  0  0
   51.0720  157.5490   29.4950 C   0  0  0  0  0  0  0  0  0  0  0  0
   51.7050  156.4230   28.7770 C   0  0  0  0  0  0  0  0  0  0  0  0
   52.2670  156.8040   27.5630 O   0  0  0  0  0  0  0  0  0  0  0  0
   52.8870  155.8550   26.7920 C   0  0  0  0  0  0  0  0  0  0  0  0
   53.4230  156.2790   25.5750 C   0  0  0  0  0  0  0  0  0  0  0  0
   54.0710  155.3640   24.7420 C   0  0  0  0  0  0  0  0  0  0  0  0
   54.1820  154.0250   25.1260 C   0  0  0  0  0  0  0  0  0  0  0  0
   53.6460  153.6050   26.3400 C   0  0  0  0  0  0  0  0  0  0  0  0
   53.7910  152.2810   26.6550 O   0  0  0  0  0  0  0  0  0  0  0  0
   52.9970  154.5220   27.1730 C   0  0  0  0  0  0  0  0  0  0  0  0
   52.4200  154.1210   28.4580 C   0  0  0  0  0  0  0  0  0  0  0  0
   52.4840  152.9650   28.8670 O   0  0  0  0  0  0  0  0  0  0  0  0
   51.7480  155.1680   29.2610 C   0  0  0  0  0  0  0  0  0  0  0  0
   51.2180  154.7810   30.4780 O   0  0  0  0  0  0  0  0  0  0  0  0
   49.8200  157.3760   30.0970 C   0  0  0  0  0  0  0  0  0  0  0  0
   49.2150  158.4230   30.7960 C   0  0  0  0  0  0  0  0  0  0  0  0
   49.8450  159.6710   30.9170 C   0  0  0  0  0  0  0  0  0  0  0  0
   49.1520  160.7630   31.6850 C   0  0  0  0  0  0  0  0  0  0  0  0
   52.1217  161.1899   32.5533 H   0  0  0  0  0  0  0  0  0  0  0  0
   53.4585  160.4061   31.6448 H   0  0  0  0  0  0  0  0  0  0  0  0
   53.3008  162.1954   31.6448 H   0  0  0  0  0  0  0  0  0  0  0  0
   51.1326  161.9898   30.4479 H   0  0  0  0  0  0  0  0  0  0  0  0
   52.5080  161.2440   29.5280 H   0  0  0  0  0  0  0  0  0  0  0  0
   52.6971  158.9370   29.1717 H   0  0  0  0  0  0  0  0  0  0  0  0
   53.3352  157.3328   25.2722 H   0  0  0  0  0  0  0  0  0  0  0  0
   54.4942  155.6977   23.7831 H   0  0  0  0  0  0  0  0  0  0  0  0
   54.6920  153.3042   24.4701 H   0  0  0  0  0  0  0  0  0  0  0  0
   53.2050  151.6470   26.2910 H   0  0  0  0  0  0  0  0  0  0  0  0
   50.4800  154.2040   30.5070 H   0  0  0  0  0  0  0  0  0  0  0  0
   49.3076  156.4058   30.0187 H   0  0  0  0  0  0  0  0  0  0  0  0
   48.2294  158.2668   31.2588 H   0  0  0  0  0  0  0  0  0  0  0  0
   49.2668  160.5821   32.7639 H   0  0  0  0  0  0  0  0  0  0  0  0
   49.5995  161.7340   31.4264 H   0  0  0  0  0  0  0  0  0  0  0  0
   48.0829  160.7715   31.4264 H   0  0  0  0  0  0  0  0  0  0  0  0
  1  2  1  0
  2  3  1  0
  3  4  2  0
  4  5  1  0
  5  6  1  0
  6  7  1  0
  7  8  1  0
  8  9  2  0
  9 10  1  0
 10 11  2  0
 11 12  1  0
 12 13  1  0
 12 14  2  0
 14 15  1  0
 15 16  2  0
 15 17  1  0
 17 18  1  0
  5 19  2  0
 19 20  1  0
 20 21  2  0
 21 22  1  0
 21  3  1  0
 17  6  2  0
 14  8  1  0
  1 23  1  0
  1 24  1  0
  1 25  1  0
  2 26  1  0
  2 27  1  0
  4 28  1  0
  9 29  1  0
 10 30  1  0
 11 31  1  0
 13 32  1  0
 18 33  1  0
 19 34  1  0
 20 35  1  0
 22 36  1  0
 22 37  1  0
 22 38  1  0
M  END
>  <meeko>  (3) 
{"is_sidechain": [false], "free_energy": -10.05, "intermolecular_energy": -11.687, "internal_energy": -0.115}

$$$$
cand_028_out
     RDKit          3D

 38 40  0  0  0  0  0  0  0  0999 V2000
   50.6340  161.1340   30.1330 C   0  0  0  0  0  0  0  0  0  0  0  0
   51.5290  159.9930   30.5940 C   0  0  0  0  0  0  0  0  0  0  0  0
   50.9770  158.6440   30.1920 C   0  0  0  0  0  0  0  0  0  0  0  0
   51.7460  157.8400   29.3270 C   0  0  0  0  0  0  0  0  0  0  0  0
   51.2960  156.5860   28.8910 C   0  0  0  0  0  0  0  0  0  0  0  0
   52.1120  155.7300   28.0040 C   0  0  0  0  0  0  0  0  0  0  0  0
   52.6720  156.4320   26.9430 O   0  0  0  0  0  0  0  0  0  0  0  0
   53.4540  155.7570   26.0400 C   0  0  0  0  0  0  0  0  0  0  0  0
   53.9820  156.4980   24.9820 C   0  0  0  0  0  0  0  0  0  0  0  0
   54.7890  155.8720   24.0290 C   0  0  0  0  0  0  0  0  0  0  0  0
   55.0670  154.5070   24.1330 C   0  0  0  0  0  0  0  0  0  0  0  0
   54.5380  153.7720   25.1900 C   0  0  0  0  0  0  0  0  0  0  0  0
   54.8510  152.4400   25.2330 O   0  0  0  0  0  0  0  0  0  0  0  0
   53.7300  154.3980   26.1430 C   0  0  0  0  0  0  0  0  0  0  0  0
   53.1540  153.6600   27.2700 C   0  0  0  0  0  0  0  0  0  0  0  0
   53.3590  152.4600   27.4340 O   0  0  0  0  0  0  0  0  0  0  0  0
   52.3060  154.4160   28.2200 C   0  0  0  0  0  0  0  0  0  0  0  0
   51.7780  153.7120   29.2870 O   0  0  0  0  0  0  0  0  0  0  0  0
   50.0550  156.1310   29.3500 C   0  0  0  0  0  0  0  0  0  0  0  0
   49.2780  156.9180   30.2040 C   0  0  0  0  0  0  0  0  0  0  0  0
   49.7210  158.1800   30.6260 C   0  0  0  0  0  0  0  0  0  0  0  0
   48.8480  158.9850   31.5500 C   0  0  0  0  0  0  0  0  0  0  0  0
   50.2244  161.6562   31.0103 H   0  0  0  0  0  0  0  0  0  0  0  0
   51.2220  161.8397   29.5277 H   0  0  0  0  0  0  0  0  0  0  0  0
   49.8086  160.7310   29.5277 H   0  0  0  0  0  0  0  0  0  0  0  0
   52.5247  160.1181   30.1436 H   0  0  0  0  0  0  0  0  0  0  0  0
   51.5829  160.0251   31.6922 H   0  0  0  0  0  0  0  0  0  0  0  0
   52.7252  158.2061   28.9849 H   0  0  0  0  0  0  0  0  0  0  0  0
   53.7632  157.5728   24.8986 H   0  0  0  0  0  0  0  0  0  0  0  0
   55.2064  156.4551   23.1949 H   0  0  0  0  0  0  0  0  0  0  0  0
   55.7020  154.0145   23.3819 H   0  0  0  0  0  0  0  0  0  0  0  0
   55.7460  152.1670   25.1870 H   0  0  0  0  0  0  0  0  0  0  0  0
   51.9900  152.8070   29.4030 H   0  0  0  0  0  0  0  0  0  0  0  0
   49.6872  155.1433   29.0352 H   0  0  0  0  0  0  0  0  0  0  0  0
   48.3041  156.5420   30.5506 H   0  0  0  0  0  0  0  0  0  0  0  0
   49.1035  158.7494   32.5937 H   0  0  0  0  0  0  0  0  0  0  0  0
   49.0100  160.0573   31.3659 H   0  0  0  0  0  0  0  0  0  0  0  0
   47.7923  158.7368   31.3659 H   0  0  0  0  0  0  0  0  0  0  0  0
  1  2  1  0
  2  3  1  0
  3  4  2  0
  4  5  1  0
  5  6  1  0
  6  7  1  0
  7  8  1  0
  8  9  2  0
  9 10  1  0
 10 11  2  0
 11 12  1  0
 12 13  1  0
 12 14  2  0
 14 15  1  0
 15 16  2  0
 15 17  1  0
 17 18  1  0
  5 19  2  0
 19 20  1  0
 20 21  2  0
 21 22  1  0
 21  3  1  0
 17  6  2  0
 14  8  1  0
  1 23  1  0
  1 24  1  0
  1 25  1  0
  2 26  1  0
  2 27  1  0
  4 28  1  0
  9 29  1  0
 10 30  1  0
 11 31  1  0
 13 32  1  0
 18 33  1  0
 19 34  1  0
 20 35  1  0
 22 36  1  0
 22 37  1  0
 22 38  1  0
M  END
>  <meeko>  (4) 
{"is_sidechain": [false], "free_energy": -9.009, "intermolecular_energy": -10.837, "internal_energy": 0.259}

$$$$
cand_028_out
     RDKit          3D

 38 40  0  0  0  0  0  0  0  0999 V2000
   54.1230  156.5700   25.1280 C   0  0  0  0  0  0  0  0  0  0  0  0
   53.4150  155.2270   25.2210 C   0  0  0  0  0  0  0  0  0  0  0  0
   52.8650  154.9740   26.6070 C   0  0  0  0  0  0  0  0  0  0  0  0
   52.2920  156.0570   27.3050 C   0  0  0  0  0  0  0  0  0  0  0  0
   51.7790  155.9100   28.6010 C   0  0  0  0  0  0  0  0  0  0  0  0
   51.1540  157.0380   29.3240 C   0  0  0  0  0  0  0  0  0  0  0  0
   52.0380  158.0870   29.5550 O   0  0  0  0  0  0  0  0  0  0  0  0
   51.5880  159.1990   30.2190 C   0  0  0  0  0  0  0  0  0  0  0  0
   52.5120  160.2200   30.4430 C   0  0  0  0  0  0  0  0  0  0  0  0
   52.1190  161.3820   31.1110 C   0  0  0  0  0  0  0  0  0  0  0  0
   50.8020  161.5220   31.5570 C   0  0  0  0  0  0  0  0  0  0  0  0
   49.8830  160.5020   31.3320 C   0  0  0  0  0  0  0  0  0  0  0  0
   48.6100  160.7040   31.7930 O   0  0  0  0  0  0  0  0  0  0  0  0
   50.2770  159.3390   30.6630 C   0  0  0  0  0  0  0  0  0  0  0  0
   49.3410  158.2420   30.4070 C   0  0  0  0  0  0  0  0  0  0  0  0
   48.1660  158.2940   30.7600 O   0  0  0  0  0  0  0  0  0  0  0  0
   49.8610  157.0510   29.6970 C   0  0  0  0  0  0  0  0  0  0  0  0
   48.9650  156.0270   29.4490 O   0  0  0  0  0  0  0  0  0  0  0  0
   51.8320  154.6450   29.1970 C   0  0  0  0  0  0  0  0  0  0  0  0
   52.4020  153.5620   28.5210 C   0  0  0  0  0  0  0  0  0  0  0  0
   52.9310  153.7140   27.2310 C   0  0  0  0  0  0  0  0  0  0  0  0
   53.5280  152.5150   26.5450 C   0  0  0  0  0  0  0  0  0  0  0  0
   54.3232  156.9498   26.1407 H   0  0  0  0  0  0  0  0  0  0  0  0
   55.0734  156.4469   24.5880 H   0  0  0  0  0  0  0  0  0  0  0  0
   53.4844  157.2846   24.5880 H   0  0  0  0  0  0  0  0  0  0  0  0
   52.5839  155.2125   24.5005 H   0  0  0  0  0  0  0  0  0  0  0  0
   54.1486  154.4387   24.9963 H   0  0  0  0  0  0  0  0  0  0  0  0
   52.2464  157.0431   26.8196 H   0  0  0  0  0  0  0  0  0  0  0  0
   53.5493  160.1100   30.0938 H   0  0  0  0  0  0  0  0  0  0  0  0
   52.8470  162.1878   31.2862 H   0  0  0  0  0  0  0  0  0  0  0  0
   50.4928  162.4363   32.0846 H   0  0  0  0  0  0  0  0  0  0  0  0
   48.2790  161.5760   31.8850 H   0  0  0  0  0  0  0  0  0  0  0  0
   48.0820  156.2250   29.2080 H   0  0  0  0  0  0  0  0  0  0  0  0
   51.4212  154.5013   30.2072 H   0  0  0  0  0  0  0  0  0  0  0  0
   52.4361  152.5763   29.0080 H   0  0  0  0  0  0  0  0  0  0  0  0
   53.8842  151.7997   27.3009 H   0  0  0  0  0  0  0  0  0  0  0  0
   52.7641  152.0341   25.9163 H   0  0  0  0  0  0  0  0  0  0  0  0
   54.3721  152.8348   25.9163 H   0  0  0  0  0  0  0  0  0  0  0  0
  1  2  1  0
  2  3  1  0
  3  4  2  0
  4  5  1  0
  5  6  1  0
  6  7  1  0
  7  8  1  0
  8  9  2  0
  9 10  1  0
 10 11  2  0
 11 12  1  0
 12 13  1  0
 12 14  2  0
 14 15  1  0
 15 16  2  0
 15 17  1  0
 17 18  1  0
  5 19  2  0
 19 20  1  0
 20 21  2  0
 21 22  1  0
 21  3  1  0
 17  6  2  0
 14  8  1  0
  1 23  1  0
  1 24  1  0
  1 25  1  0
  2 26  1  0
  2 27  1  0
  4 28  1  0
  9 29  1  0
 10 30  1  0
 11 31  1  0
 13 32  1  0
 18 33  1  0
 19 34  1  0
 20 35  1  0
 22 36  1  0
 22 37  1  0
 22 38  1  0
M  END
>  <meeko>  (5) 
{"is_sidechain": [false], "free_energy": -8.981, "intermolecular_energy": -10.212, "internal_energy": -0.334}

$$$$
cand_028_out
     RDKit          3D

 38 40  0  0  0  0  0  0  0  0999 V2000
   51.5580  152.4240   27.7100 C   0  0  0  0  0  0  0  0  0  0  0  0
   52.0120  153.3270   28.8470 C   0  0  0  0  0  0  0  0  0  0  0  0
   52.2280  154.7510   28.3840 C   0  0  0  0  0  0  0  0  0  0  0  0
   51.7390  155.7960   29.1940 C   0  0  0  0  0  0  0  0  0  0  0  0
   51.8800  157.1410   28.8270 C   0  0  0  0  0  0  0  0  0  0  0  0
   51.3910  158.2400   29.6870 C   0  0  0  0  0  0  0  0  0  0  0  0
   50.0570  158.0880   30.0500 O   0  0  0  0  0  0  0  0  0  0  0  0
   49.4750  159.0390   30.8490 C   0  0  0  0  0  0  0  0  0  0  0  0
   48.1310  158.8560   31.1750 C   0  0  0  0  0  0  0  0  0  0  0  0
   47.4780  159.7860   31.9870 C   0  0  0  0  0  0  0  0  0  0  0  0
   48.1680  160.8990   32.4710 C   0  0  0  0  0  0  0  0  0  0  0  0
   49.5090  161.0790   32.1440 C   0  0  0  0  0  0  0  0  0  0  0  0
   50.1260  162.1900   32.6530 O   0  0  0  0  0  0  0  0  0  0  0  0
   50.1620  160.1490   31.3310 C   0  0  0  0  0  0  0  0  0  0  0  0
   51.5720  160.3010   30.9630 C   0  0  0  0  0  0  0  0  0  0  0  0
   52.2470  161.2490   31.3560 O   0  0  0  0  0  0  0  0  0  0  0  0
   52.1660  159.2630   30.0910 C   0  0  0  0  0  0  0  0  0  0  0  0
   53.5010  159.4100   29.7610 O   0  0  0  0  0  0  0  0  0  0  0  0
   52.5390  157.4360   27.6280 C   0  0  0  0  0  0  0  0  0  0  0  0
   53.0250  156.4120   26.8110 C   0  0  0  0  0  0  0  0  0  0  0  0
   52.8680  155.0650   27.1700 C   0  0  0  0  0  0  0  0  0  0  0  0
   53.4140  154.0010   26.2580 C   0  0  0  0  0  0  0  0  0  0  0  0
   51.1004  151.5138   28.1250 H   0  0  0  0  0  0  0  0  0  0  0  0
   50.8202  152.9560   27.0914 H   0  0  0  0  0  0  0  0  0  0  0  0
   52.4251  152.1492   27.0914 H   0  0  0  0  0  0  0  0  0  0  0  0
   51.2436  153.3216   29.6341 H   0  0  0  0  0  0  0  0  0  0  0  0
   52.9704  152.9425   29.2261 H   0  0  0  0  0  0  0  0  0  0  0  0
   51.2334  155.5491   30.1392 H   0  0  0  0  0  0  0  0  0  0  0  0
   47.5861  157.9802   30.7929 H   0  0  0  0  0  0  0  0  0  0  0  0
   46.4186  159.6413   32.2455 H   0  0  0  0  0  0  0  0  0  0  0  0
   47.6531  161.6321   33.1093 H   0  0  0  0  0  0  0  0  0  0  0  0
   50.8770  162.0970   33.2050 H   0  0  0  0  0  0  0  0  0  0  0  0
   54.1640  159.0410   30.3100 H   0  0  0  0  0  0  0  0  0  0  0  0
   52.6757  158.4848   27.3258 H   0  0  0  0  0  0  0  0  0  0  0  0
   53.5386  156.6659   25.8720 H   0  0  0  0  0  0  0  0  0  0  0  0
   53.8342  153.1821   26.8603 H   0  0  0  0  0  0  0  0  0  0  0  0
   52.6045  153.6113   25.6233 H   0  0  0  0  0  0  0  0  0  0  0  0
   54.2026  154.4314   25.6233 H   0  0  0  0  0  0  0  0  0  0  0  0
  1  2  1  0
  2  3  1  0
  3  4  2  0
  4  5  1  0
  5  6  1  0
  6  7  1  0
  7  8  1  0
  8  9  2  0
  9 10  1  0
 10 11  2  0
 11 12  1  0
 12 13  1  0
 12 14  2  0
 14 15  1  0
 15 16  2  0
 15 17  1  0
 17 18  1  0
  5 19  2  0
 19 20  1  0
 20 21  2  0
 21 22  1  0
 21  3  1  0
 17  6  2  0
 14  8  1  0
  1 23  1  0
  1 24  1  0
  1 25  1  0
  2 26  1  0
  2 27  1  0
  4 28  1  0
  9 29  1  0
 10 30  1  0
 11 31  1  0
 13 32  1  0
 18 33  1  0
 19 34  1  0
 20 35  1  0
 22 36  1  0
 22 37  1  0
 22 38  1  0
M  END
>  <meeko>  (6) 
{"is_sidechain": [false], "free_energy": -8.437, "intermolecular_energy": -10.495, "internal_energy": 0.589}

$$$$
cand_028_out
     RDKit          3D

 38 40  0  0  0  0  0  0  0  0999 V2000
   50.7940  160.4530   29.9530 C   0  0  0  0  0  0  0  0  0  0  0  0
   51.8280  159.3450   30.0930 C   0  0  0  0  0  0  0  0  0  0  0  0
   51.2690  157.9980   29.6970 C   0  0  0  0  0  0  0  0  0  0  0  0
   51.9850  157.2280   28.7570 C   0  0  0  0  0  0  0  0  0  0  0  0
   51.5240  155.9780   28.3220 C   0  0  0  0  0  0  0  0  0  0  0  0
   52.2870  155.1590   27.3570 C   0  0  0  0  0  0  0  0  0  0  0  0
   51.9740  153.8060   27.4330 O   0  0  0  0  0  0  0  0  0  0  0  0
   52.6120  152.9300   26.5920 C   0  0  0  0  0  0  0  0  0  0  0  0
   52.2790  151.5800   26.7130 C   0  0  0  0  0  0  0  0  0  0  0  0
   52.8900  150.6350   25.8850 C   0  0  0  0  0  0  0  0  0  0  0  0
   53.8340  151.0400   24.9380 C   0  0  0  0  0  0  0  0  0  0  0  0
   54.1630  152.3870   24.8200 C   0  0  0  0  0  0  0  0  0  0  0  0
   55.0940  152.7150   23.8710 O   0  0  0  0  0  0  0  0  0  0  0  0
   53.5530  153.3320   25.6490 C   0  0  0  0  0  0  0  0  0  0  0  0
   53.8710  154.7590   25.5570 C   0  0  0  0  0  0  0  0  0  0  0  0
   54.6840  155.1920   24.7440 O   0  0  0  0  0  0  0  0  0  0  0  0
   53.1730  155.6760   26.4870 C   0  0  0  0  0  0  0  0  0  0  0  0
   53.4720  157.0220   26.3820 O   0  0  0  0  0  0  0  0  0  0  0  0
   50.3260  155.4910   28.8560 C   0  0  0  0  0  0  0  0  0  0  0  0
   49.6010  156.2430   29.7840 C   0  0  0  0  0  0  0  0  0  0  0  0
   50.0540  157.5010   30.2060 C   0  0  0  0  0  0  0  0  0  0  0  0
   49.2380  158.2680   31.2110 C   0  0  0  0  0  0  0  0  0  0  0  0
   50.4798  160.7897   30.9520 H   0  0  0  0  0  0  0  0  0  0  0  0
   51.2341  161.2978   29.4029 H   0  0  0  0  0  0  0  0  0  0  0  0
   49.9208  160.0723   29.4029 H   0  0  0  0  0  0  0  0  0  0  0  0
   52.6874  159.5771   29.4468 H   0  0  0  0  0  0  0  0  0  0  0  0
   52.1288  159.2915   31.1497 H   0  0  0  0  0  0  0  0  0  0  0  0
   52.9310  157.6192   28.3543 H   0  0  0  0  0  0  0  0  0  0  0  0
   51.5366  151.2605   27.4592 H   0  0  0  0  0  0  0  0  0  0  0  0
   52.6275  149.5709   25.9788 H   0  0  0  0  0  0  0  0  0  0  0  0
   54.3161  150.2958   24.2871 H   0  0  0  0  0  0  0  0  0  0  0  0
   54.8220  153.1130   23.0670 H   0  0  0  0  0  0  0  0  0  0  0  0
   53.6760  157.3940   25.5470 H   0  0  0  0  0  0  0  0  0  0  0  0
   49.9509  154.5057   28.5420 H   0  0  0  0  0  0  0  0  0  0  0  0
   48.6605  155.8419   30.1897 H   0  0  0  0  0  0  0  0  0  0  0  0
   49.5439  157.9805   32.2278 H   0  0  0  0  0  0  0  0  0  0  0  0
   49.4019  159.3465   31.0700 H   0  0  0  0  0  0  0  0  0  0  0  0
   48.1717  158.0377   31.0700 H   0  0  0  0  0  0  0  0  0  0  0  0
  1  2  1  0
  2  3  1  0
  3  4  2  0
  4  5  1  0
  5  6  1  0
  6  7  1  0
  7  8  1  0
  8  9  2  0
  9 10  1  0
 10 11  2  0
 11 12  1  0
 12 13  1  0
 12 14  2  0
 14 15  1  0
 15 16  2  0
 15 17  1  0
 17 18  1  0
  5 19  2  0
 19 20  1  0
 20 21  2  0
 21 22  1  0
 21  3  1  0
 17  6  2  0
 14  8  1  0
  1 23  1  0
  1 24  1  0
  1 25  1  0
  2 26  1  0
  2 27  1  0
  4 28  1  0
  9 29  1  0
 10 30  1  0
 11 31  1  0
 13 32  1  0
 18 33  1  0
 19 34  1  0
 20 35  1  0
 22 36  1  0
 22 37  1  0
 22 38  1  0
M  END
>  <meeko>  (7) 
{"is_sidechain": [false], "free_energy": -8.308, "intermolecular_energy": -10.425, "internal_energy": 0.67}

$$$$
cand_028_out
     RDKit          3D

 38 40  0  0  0  0  0  0  0  0999 V2000
   51.7670  152.1430   27.0350 C   0  0  0  0  0  0  0  0  0  0  0  0
   52.1680  152.9430   28.2660 C   0  0  0  0  0  0  0  0  0  0  0  0
   52.3410  154.4120   27.9520 C   0  0  0  0  0  0  0  0  0  0  0  0
   51.7160  155.3520   28.7960 C   0  0  0  0  0  0  0  0  0  0  0  0
   51.8110  156.7310   28.5620 C   0  0  0  0  0  0  0  0  0  0  0  0
   51.1780  157.7190   29.4600 C   0  0  0  0  0  0  0  0  0  0  0  0
   51.9940  158.8170   29.7160 O   0  0  0  0  0  0  0  0  0  0  0  0
   51.5290  159.8120   30.5370 C   0  0  0  0  0  0  0  0  0  0  0  0
   52.3860  160.8860   30.7780 C   0  0  0  0  0  0  0  0  0  0  0  0
   51.9740  161.9340   31.6040 C   0  0  0  0  0  0  0  0  0  0  0  0
   50.7060  161.9080   32.1890 C   0  0  0  0  0  0  0  0  0  0  0  0
   49.8530  160.8350   31.9460 C   0  0  0  0  0  0  0  0  0  0  0  0
   48.6250  160.8730   32.5490 O   0  0  0  0  0  0  0  0  0  0  0  0
   50.2660  159.7860   31.1200 C   0  0  0  0  0  0  0  0  0  0  0  0
   49.4000  158.6390   30.8390 C   0  0  0  0  0  0  0  0  0  0  0  0
   48.2690  158.5480   31.3100 O   0  0  0  0  0  0  0  0  0  0  0  0
   49.9360  157.5770   29.9580 C   0  0  0  0  0  0  0  0  0  0  0  0
   49.1040  156.5050   29.6890 O   0  0  0  0  0  0  0  0  0  0  0  0
   52.5630  157.1670   27.4650 C   0  0  0  0  0  0  0  0  0  0  0  0
   53.1850  156.2480   26.6160 C   0  0  0  0  0  0  0  0  0  0  0  0
   53.0750  154.8680   26.8400 C   0  0  0  0  0  0  0  0  0  0  0  0
   53.7680  153.9220   25.8990 C   0  0  0  0  0  0  0  0  0  0  0  0
   51.2945  151.2003   27.3482 H   0  0  0  0  0  0  0  0  0  0  0  0
   51.0554  152.7277   26.4335 H   0  0  0  0  0  0  0  0  0  0  0  0
   52.6613  151.9228   26.4335 H   0  0  0  0  0  0  0  0  0  0  0  0
   51.3863  152.8327   29.0320 H   0  0  0  0  0  0  0  0  0  0  0  0
   53.1327  152.5552   28.6252 H   0  0  0  0  0  0  0  0  0  0  0  0
   51.1385  154.9942   29.6611 H   0  0  0  0  0  0  0  0  0  0  0  0
   53.3850  160.9074   30.3180 H   0  0  0  0  0  0  0  0  0  0  0  0
   52.6492  162.7813   31.7942 H   0  0  0  0  0  0  0  0  0  0  0  0
   50.3822  162.7333   32.8401 H   0  0  0  0  0  0  0  0  0  0  0  0
   47.8830  160.4900   32.1240 H   0  0  0  0  0  0  0  0  0  0  0  0
   49.4540  155.6360   29.6580 H   0  0  0  0  0  0  0  0  0  0  0  0
   52.6654  158.2446   27.2692 H   0  0  0  0  0  0  0  0  0  0  0  0
   53.7700  156.6125   25.7587 H   0  0  0  0  0  0  0  0  0  0  0  0
   54.3206  153.1677   26.4784 H   0  0  0  0  0  0  0  0  0  0  0  0
   53.0207  153.4223   25.2651 H   0  0  0  0  0  0  0  0  0  0  0  0
   54.4698  154.4839   25.2651 H   0  0  0  0  0  0  0  0  0  0  0  0
  1  2  1  0
  2  3  1  0
  3  4  2  0
  4  5  1  0
  5  6  1  0
  6  7  1  0
  7  8  1  0
  8  9  2  0
  9 10  1  0
 10 11  2  0
 11 12  1  0
 12 13  1  0
 12 14  2  0
 14 15  1  0
 15 16  2  0
 15 17  1  0
 17 18  1  0
  5 19  2  0
 19 20  1  0
 20 21  2  0
 21 22  1  0
 21  3  1  0
 17  6  2  0
 14  8  1  0
  1 23  1  0
  1 24  1  0
  1 25  1  0
  2 26  1  0
  2 27  1  0
  4 28  1  0
  9 29  1  0
 10 30  1  0
 11 31  1  0
 13 32  1  0
 18 33  1  0
 19 34  1  0
 20 35  1  0
 22 36  1  0
 22 37  1  0
 22 38  1  0
M  END
>  <meeko>  (8) 
{"is_sidechain": [false], "free_energy": -7.701, "intermolecular_energy": -9.583, "internal_energy": 0.542}

$$$$
