cand_050_out
     RDKit          3D

 38 40  0  0  0  0  0  0  0  0999 V2000
   50.0250  161.2140   33.0700 C   0  0  0  0  0  0  0  0  0  0  0  0
   50.1510  161.4230   31.5680 C   0  0  0  0  0  0  0  0  0  0  0  0
   50.5500  160.1520   30.8500 C   0  0  0  0  0  0  0  0  0  0  0  0
   51.8970  159.9950   30.4790 C   0  0  0  0  0  0  0  0  0  0  0  0
   52.3300  158.8500   29.8070 C   0  0  0  0  0  0  0  0  0  0  0  0
   51.4330  157.8260   29.4890 C   0  0  0  0  0  0  0  0  0  0  0  0
   51.9080  156.6310   28.7600 C   0  0  0  0  0  0  0  0  0  0  0  0
   52.5240  156.9410   27.5530 O   0  0  0  0  0  0  0  0  0  0  0  0
   53.0100  155.9210   26.7770 C   0  0  0  0  0  0  0  0  0  0  0  0
   53.6070  156.2760   25.5660 C   0  0  0  0  0  0  0  0  0  0  0  0
   54.1260  155.2850   24.7280 C   0  0  0  0  0  0  0  0  0  0  0  0
   54.0490  153.9420   25.1020 C   0  0  0  0  0  0  0  0  0  0  0  0
   53.4530  153.5910   26.3100 C   0  0  0  0  0  0  0  0  0  0  0  0
   53.4110  152.2570   26.6130 O   0  0  0  0  0  0  0  0  0  0  0  0
   52.9330  154.5820   27.1480 C   0  0  0  0  0  0  0  0  0  0  0  0
   52.2990  154.2550   28.4250 C   0  0  0  0  0  0  0  0  0  0  0  0
   52.1980  153.0980   28.8270 O   0  0  0  0  0  0  0  0  0  0  0  0
   51.7730  155.3780   29.2350 C   0  0  0  0  0  0  0  0  0  0  0  0
   51.1870  155.0630   30.4470 O   0  0  0  0  0  0  0  0  0  0  0  0
   50.0850  157.9880   29.8440 C   0  0  0  0  0  0  0  0  0  0  0  0
   49.6260  159.1370   30.5220 C   0  0  0  0  0  0  0  0  0  0  0  0
   48.1600  159.2310   30.8880 C   0  0  0  0  0  0  0  0  0  0  0  0
   47.6540  160.4960   30.8010 F   0  0  0  0  0  0  0  0  0  0  0  0
   47.9040  158.8280   32.1640 F   0  0  0  0  0  0  0  0  0  0  0  0
   47.3690  158.4650   30.0860 F   0  0  0  0  0  0  0  0  0  0  0  0
   50.5232  162.0403   33.5982 H   0  0  0  0  0  0  0  0  0  0  0  0
   48.9612  161.1890   33.3488 H   0  0  0  0  0  0  0  0  0  0  0  0
   50.4996  160.2616   33.3488 H   0  0  0  0  0  0  0  0  0  0  0  0
   49.1821  161.7640   31.1744 H   0  0  0  0  0  0  0  0  0  0  0  0
   50.9372  162.1724   31.3941 H   0  0  0  0  0  0  0  0  0  0  0  0
   52.6212  160.7865   30.7219 H   0  0  0  0  0  0  0  0  0  0  0  0
   53.3887  158.7527   29.5247 H   0  0  0  0  0  0  0  0  0  0  0  0
   53.6689  157.3341   25.2717 H   0  0  0  0  0  0  0  0  0  0  0  0
   54.5955  155.5634   23.7730 H   0  0  0  0  0  0  0  0  0  0  0  0
   54.4587  153.1624   24.4430 H   0  0  0  0  0  0  0  0  0  0  0  0
   54.1580  151.7160   26.4530 H   0  0  0  0  0  0  0  0  0  0  0  0
   50.4630  155.5680   30.7620 H   0  0  0  0  0  0  0  0  0  0  0  0
   49.3658  157.1966   29.5863 H   0  0  0  0  0  0  0  0  0  0  0  0
  1  2  1  0
  2  3  1  0
  3  4  2  0
  4  5  1  0
  5  6  2  0
  6  7  1  0
  7  8  1  0
  8  9  1  0
  9 10  2  0
 10 11  1  0
 11 12  2  0
 12 13  1  0
 13 14  1  0
 13 15  2  0
 15 16  1  0
 16 17  2  0
 16 18  1  0
 18 19  1  0
  6 20  1  0
 20 21  2  0
 21 22  1  0
 22 23  1  0
 22 24  1  0
 22 25  1  0
 21  3  1  0
 18  7  2  0
 15  9  1  0
  1 26  1  0
  1 27  1  0
  1 28  1  0
  2 29  1  0
  2 30  1  0
  4 31  1  0
  5 32  1  0
 10 33  1  0
 11 34  1  0
 12 35  1  0
 14 36  1  0
 19 37  1  0
 20 38  1  0
M  END
>  <meeko>  (1) 
{"is_sidechain": [false], "free_energy": -10.798, "intermolecular_energy": -13.323, "internal_energy": -0.323}

$$$$
cand_050_out
     RDKit          3D

 38 40  0  0  0  0  0  0  0  0999 V2000
   47.5420  159.9080   31.7810 C   0  0  0  0  0  0  0  0  0  0  0  0
   49.0200  160.2630   31.6960 C   0  0  0  0  0  0  0  0  0  0  0  0
   49.7990  159.2540   30.8810 C   0  0  0  0  0  0  0  0  0  0  0  0
   49.1760  158.0340   30.5640 C   0  0  0  0  0  0  0  0  0  0  0  0
   49.8430  157.0570   29.8220 C   0  0  0  0  0  0  0  0  0  0  0  0
   51.1500  157.2690   29.3710 C   0  0  0  0  0  0  0  0  0  0  0  0
   51.8440  156.2140   28.6030 C   0  0  0  0  0  0  0  0  0  0  0  0
   52.3570  156.6720   27.3950 O   0  0  0  0  0  0  0  0  0  0  0  0
   53.0260  155.7910   26.5830 C   0  0  0  0  0  0  0  0  0  0  0  0
   53.5100  156.2890   25.3730 C   0  0  0  0  0  0  0  0  0  0  0  0
   54.2030  155.4460   24.5000 C   0  0  0  0  0  0  0  0  0  0  0  0
   54.4120  154.1080   24.8390 C   0  0  0  0  0  0  0  0  0  0  0  0
   53.9270  153.6140   26.0470 C   0  0  0  0  0  0  0  0  0  0  0  0
   54.1670  152.2930   26.3150 O   0  0  0  0  0  0  0  0  0  0  0  0
   53.2330  154.4570   26.9200 C   0  0  0  0  0  0  0  0  0  0  0  0
   52.7080  153.9780   28.1980 C   0  0  0  0  0  0  0  0  0  0  0  0
   52.8560  152.8160   28.5710 O   0  0  0  0  0  0  0  0  0  0  0  0
   51.9800  154.9500   29.0460 C   0  0  0  0  0  0  0  0  0  0  0  0
   51.4980  154.4930   30.2590 O   0  0  0  0  0  0  0  0  0  0  0  0
   51.7790  158.4780   29.7010 C   0  0  0  0  0  0  0  0  0  0  0  0
   51.1250  159.4790   30.4510 C   0  0  0  0  0  0  0  0  0  0  0  0
   51.8630  160.7660   30.7510 C   0  0  0  0  0  0  0  0  0  0  0  0
   53.1580  160.7670   30.3220 F   0  0  0  0  0  0  0  0  0  0  0  0
   51.9250  161.0450   32.0830 F   0  0  0  0  0  0  0  0  0  0  0  0
   51.2830  161.8510   30.1660 F   0  0  0  0  0  0  0  0  0  0  0  0
   47.2423  159.8360   32.8369 H   0  0  0  0  0  0  0  0  0  0  0  0
   46.9481  160.6891   31.2837 H   0  0  0  0  0  0  0  0  0  0  0  0
   47.3676  158.9424   31.2837 H   0  0  0  0  0  0  0  0  0  0  0  0
   49.1212  161.2527   31.2267 H   0  0  0  0  0  0  0  0  0  0  0  0
   49.4287  160.2634   32.7172 H   0  0  0  0  0  0  0  0  0  0  0  0
   48.1474  157.8463   30.9057 H   0  0  0  0  0  0  0  0  0  0  0  0
   49.3347  156.1096   29.5895 H   0  0  0  0  0  0  0  0  0  0  0  0
   53.3464  157.3436   25.1065 H   0  0  0  0  0  0  0  0  0  0  0  0
   54.5841  155.8370   23.5451 H   0  0  0  0  0  0  0  0  0  0  0  0
   54.9591  153.4449   24.1527 H   0  0  0  0  0  0  0  0  0  0  0  0
   53.9370  151.6390   25.6860 H   0  0  0  0  0  0  0  0  0  0  0  0
   51.2390  155.1050   30.9200 H   0  0  0  0  0  0  0  0  0  0  0  0
   52.8122  158.6513   29.3656 H   0  0  0  0  0  0  0  0  0  0  0  0
  1  2  1  0
  2  3  1  0
  3  4  2  0
  4  5  1  0
  5  6  2  0
  6  7  1  0
  7  8  1  0
  8  9  1  0
  9 10  2  0
 10 11  1  0
 11 12  2  0
 12 13  1  0
 13 14  1  0
 13 15  2  0
 15 16  1  0
 16 17  2  0
 16 18  1  0
 18 19  1  0
  6 20  1  0
 20 21  2  0
 21 22  1  0
 22 23  1  0
 22 24  1  0
 22 25  1  0
 21  3  1  0
 18  7  2  0
 15  9  1  0
  1 26  1  0
  1 27  1  0
  1 28  1  0
  2 29  1  0
  2 30  1  0
  4 31  1  0
  5 32  1  0
 10 33  1  0
 11 34  1  0
 12 35  1  0
 14 36  1  0
 19 37  1  0
 20 38  1  0
M  END
>  <meeko>  (2) 
{"is_sidechain": [false], "free_energy": -10.732, "intermolecular_energy": -13.166, "internal_energy": -0.398}

$$$$
cand_050_out
     RDKit          3D

 38 40  0  0  0  0  0  0  0  0999 V2000
   52.0730  151.6430   26.6310 C   0  0  0  0  0  0  0  0  0  0  0  0
   53.1790  152.6870   26.5770 C   0  0  0  0  0  0  0  0  0  0  0  0
   52.7760  153.9750   27.2620 C   0  0  0  0  0  0  0  0  0  0  0  0
   52.1990  153.8940   28.5410 C   0  0  0  0  0  0  0  0  0  0  0  0
   51.7970  155.0450   29.2230 C   0  0  0  0  0  0  0  0  0  0  0  0
   51.9630  156.3100   28.6510 C   0  0  0  0  0  0  0  0  0  0  0  0
   51.5140  157.5130   29.3830 C   0  0  0  0  0  0  0  0  0  0  0  0
   50.1810  157.4440   29.7740 O   0  0  0  0  0  0  0  0  0  0  0  0
   49.6370  158.4980   30.4620 C   0  0  0  0  0  0  0  0  0  0  0  0
   48.2930  158.3930   30.8220 C   0  0  0  0  0  0  0  0  0  0  0  0
   47.6780  159.4300   31.5270 C   0  0  0  0  0  0  0  0  0  0  0  0
   48.4060  160.5700   31.8720 C   0  0  0  0  0  0  0  0  0  0  0  0
   49.7470  160.6720   31.5110 C   0  0  0  0  0  0  0  0  0  0  0  0
   50.4010  161.8170   31.8810 O   0  0  0  0  0  0  0  0  0  0  0  0
   50.3630  159.6350   30.8050 C   0  0  0  0  0  0  0  0  0  0  0  0
   51.7690  159.7020   30.4070 C   0  0  0  0  0  0  0  0  0  0  0  0
   52.4790  160.6690   30.6790 O   0  0  0  0  0  0  0  0  0  0  0  0
   52.3230  158.5530   29.6560 C   0  0  0  0  0  0  0  0  0  0  0  0
   53.6560  158.6180   29.2940 O   0  0  0  0  0  0  0  0  0  0  0  0
   52.5240  156.3910   27.3680 C   0  0  0  0  0  0  0  0  0  0  0  0
   52.9350  155.2420   26.6590 C   0  0  0  0  0  0  0  0  0  0  0  0
   53.5490  155.4120   25.2870 C   0  0  0  0  0  0  0  0  0  0  0  0
   54.8330  154.9590   25.2010 F   0  0  0  0  0  0  0  0  0  0  0  0
   53.5990  156.7140   24.8850 F   0  0  0  0  0  0  0  0  0  0  0  0
   52.8600  154.7460   24.3180 F   0  0  0  0  0  0  0  0  0  0  0  0
   51.8333  151.4167   27.6804 H   0  0  0  0  0  0  0  0  0  0  0  0
   51.1766  152.0320   26.1258 H   0  0  0  0  0  0  0  0  0  0  0  0
   52.4097  150.7257   26.1258 H   0  0  0  0  0  0  0  0  0  0  0  0
   54.0727  152.2839   27.0758 H   0  0  0  0  0  0  0  0  0  0  0  0
   53.3818  152.9132   25.5198 H   0  0  0  0  0  0  0  0  0  0  0  0
   52.0619  152.9095   29.0121 H   0  0  0  0  0  0  0  0  0  0  0  0
   51.3446  154.9551   30.2216 H   0  0  0  0  0  0  0  0  0  0  0  0
   47.7187  157.4948   30.5509 H   0  0  0  0  0  0  0  0  0  0  0  0
   46.6184  159.3483   31.8108 H   0  0  0  0  0  0  0  0  0  0  0  0
   47.9213  161.3861   32.4279 H   0  0  0  0  0  0  0  0  0  0  0  0
   50.7750  162.3740   31.2280 H   0  0  0  0  0  0  0  0  0  0  0  0
   54.1370  157.8300   29.1350 H   0  0  0  0  0  0  0  0  0  0  0  0
   52.6472  157.3791   26.9007 H   0  0  0  0  0  0  0  0  0  0  0  0
  1  2  1  0
  2  3  1  0
  3  4  2  0
  4  5  1  0
  5  6  2  0
  6  7  1  0
  7  8  1  0
  8  9  1  0
  9 10  2  0
 10 11  1  0
 11 12  2  0
 12 13  1  0
 13 14  1  0
 13 15  2  0
 15 16  1  0
 16 17  2  0
 16 18  1  0
 18 19  1  0
  6 20  1  0
 20 21  2  0
 21 22  1  0
 22 23  1  0
 22 24  1  0
 22 25  1  0
 21  3  1  0
 18  7  2  0
 15  9  1  0
  1 26  1  0
  1 27  1  0
  1 28  1  0
  2 29  1  0
  2 30  1  0
  4 31  1  0
  5 32  1  0
 10 33  1  0
 11 34  1  0
 12 35  1  0
 14 36  1  0
 19 37  1  0
 20 38  1  0
M  END
>  <meeko>  (3) 
{"is_sidechain": [false], "free_energy": -10.695, "intermolecular_energy": -13.019, "internal_energy": -0.5}

$$$$
cand_050_out
     RDKit          3D

 38 40  0  0  0  0  0  0  0  0999 V2000
   52.6250  151.6850   26.0940 C   0  0  0  0  0  0  0  0  0  0  0  0
   53.6730  152.6780   26.5750 C   0  0  0  0  0  0  0  0  0  0  0  0
   53.0470  153.8750   27.2580 C   0  0  0  0  0  0  0  0  0  0  0  0
   52.4940  153.6950   28.5380 C   0  0  0  0  0  0  0  0  0  0  0  0
   51.8930  154.7570   29.2180 C   0  0  0  0  0  0  0  0  0  0  0  0
   51.8310  156.0300   28.6440 C   0  0  0  0  0  0  0  0  0  0  0  0
   51.1750  157.1350   29.3740 C   0  0  0  0  0  0  0  0  0  0  0  0
   52.0350  158.1960   29.6380 O   0  0  0  0  0  0  0  0  0  0  0  0
   51.5510  159.2880   30.3110 C   0  0  0  0  0  0  0  0  0  0  0  0
   52.4510  160.3230   30.5680 C   0  0  0  0  0  0  0  0  0  0  0  0
   52.0240  161.4660   31.2480 C   0  0  0  0  0  0  0  0  0  0  0  0
   50.6970  161.5740   31.6690 C   0  0  0  0  0  0  0  0  0  0  0  0
   49.8010  160.5400   31.4120 C   0  0  0  0  0  0  0  0  0  0  0  0
   48.5170  160.7110   31.8530 O   0  0  0  0  0  0  0  0  0  0  0  0
   50.2290  159.3960   30.7320 C   0  0  0  0  0  0  0  0  0  0  0  0
   49.3200  158.2870   30.4420 C   0  0  0  0  0  0  0  0  0  0  0  0
   48.1370  158.3090   30.7730 O   0  0  0  0  0  0  0  0  0  0  0  0
   49.8750  157.1170   29.7230 C   0  0  0  0  0  0  0  0  0  0  0  0
   49.0070  156.0790   29.4410 O   0  0  0  0  0  0  0  0  0  0  0  0
   52.3680  156.2080   27.3610 C   0  0  0  0  0  0  0  0  0  0  0  0
   52.9780  155.1490   26.6540 C   0  0  0  0  0  0  0  0  0  0  0  0
   53.5510  155.4240   25.2800 C   0  0  0  0  0  0  0  0  0  0  0  0
   52.9900  154.6680   24.2920 F   0  0  0  0  0  0  0  0  0  0  0  0
   54.8900  155.1790   25.2050 F   0  0  0  0  0  0  0  0  0  0  0  0
   53.3830  156.7180   24.8910 F   0  0  0  0  0  0  0  0  0  0  0  0
   52.1345  151.2203   26.9620 H   0  0  0  0  0  0  0  0  0  0  0  0
   51.8737  152.2104   25.4861 H   0  0  0  0  0  0  0  0  0  0  0  0
   53.1092  150.9065   25.4861 H   0  0  0  0  0  0  0  0  0  0  0  0
   54.3416  152.1720   27.2870 H   0  0  0  0  0  0  0  0  0  0  0  0
   54.2280  153.0391   25.6967 H   0  0  0  0  0  0  0  0  0  0  0  0
   52.5352  152.7029   29.0112 H   0  0  0  0  0  0  0  0  0  0  0  0
   51.4636  154.5895   30.2168 H   0  0  0  0  0  0  0  0  0  0  0  0
   53.4961  160.2388   30.2353 H   0  0  0  0  0  0  0  0  0  0  0  0
   52.7335  162.2815   31.4520 H   0  0  0  0  0  0  0  0  0  0  0  0
   50.3601  162.4748   32.2029 H   0  0  0  0  0  0  0  0  0  0  0  0
   48.2850  160.4650   32.7260 H   0  0  0  0  0  0  0  0  0  0  0  0
   48.4840  155.7070   30.1230 H   0  0  0  0  0  0  0  0  0  0  0  0
   52.3124  157.2013   26.8918 H   0  0  0  0  0  0  0  0  0  0  0  0
  1  2  1  0
  2  3  1  0
  3  4  2  0
  4  5  1  0
  5  6  2  0
  6  7  1  0
  7  8  1  0
  8  9  1  0
  9 10  2  0
 10 11  1  0
 11 12  2  0
 12 13  1  0
 13 14  1  0
 13 15  2  0
 15 16  1  0
 16 17  2  0
 16 18  1  0
 18 19  1  0
  6 20  1  0
 20 21  2  0
 21 22  1  0
 22 23  1  0
 22 24  1  0
 22 25  1  0
 21  3  1  0
 18  7  2  0
 15  9  1  0
  1 26  1  0
  1 27  1  0
  1 28  1  0
  2 29  1  0
  2 30  1  0
  4 31  1  0
  5 32  1  0
 10 33  1  0
 11 34  1  0
 12 35  1  0
 14 36  1  0
 19 37  1  0
 20 38  1  0
M  END
>  <meeko>  (4) 
{"is_sidechain": [false], "free_energy": -9.832, "intermolecular_energy": -11.88, "internal_energy": -0.573}

$$$$
cand_050_out
     RDKit          3D

 38 40  0  0  0  0  0  0  0  0999 V2000
   53.9990  154.8750   24.8300 C   0  0  0  0  0  0  0  0  0  0  0  0
   53.4420  154.2270   26.0890 C   0  0  0  0  0  0  0  0  0  0  0  0
   52.8880  155.2510   27.0560 C   0  0  0  0  0  0  0  0  0  0  0  0
   52.9730  156.6090   26.7050 C   0  0  0  0  0  0  0  0  0  0  0  0
   52.4890  157.6050   27.5560 C   0  0  0  0  0  0  0  0  0  0  0  0
   51.9020  157.2740   28.7810 C   0  0  0  0  0  0  0  0  0  0  0  0
   51.4120  158.3450   29.6760 C   0  0  0  0  0  0  0  0  0  0  0  0
   50.0740  158.1910   30.0230 O   0  0  0  0  0  0  0  0  0  0  0  0
   49.4940  159.1180   30.8500 C   0  0  0  0  0  0  0  0  0  0  0  0
   48.1470  158.9340   31.1610 C   0  0  0  0  0  0  0  0  0  0  0  0
   47.4950  159.8400   32.0010 C   0  0  0  0  0  0  0  0  0  0  0  0
   48.1910  160.9290   32.5290 C   0  0  0  0  0  0  0  0  0  0  0  0
   49.5360  161.1110   32.2170 C   0  0  0  0  0  0  0  0  0  0  0  0
   50.1560  162.1990   32.7690 O   0  0  0  0  0  0  0  0  0  0  0  0
   50.1880  160.2040   31.3760 C   0  0  0  0  0  0  0  0  0  0  0  0
   51.5990  160.3580   31.0240 C   0  0  0  0  0  0  0  0  0  0  0  0
   52.2810  161.2860   31.4540 O   0  0  0  0  0  0  0  0  0  0  0  0
   52.1930  159.3470   30.1200 C   0  0  0  0  0  0  0  0  0  0  0  0
   53.5310  159.4920   29.8010 O   0  0  0  0  0  0  0  0  0  0  0  0
   51.8300  155.9210   29.1410 C   0  0  0  0  0  0  0  0  0  0  0  0
   52.3150  154.8980   28.2970 C   0  0  0  0  0  0  0  0  0  0  0  0
   52.1860  153.4590   28.7460 C   0  0  0  0  0  0  0  0  0  0  0  0
   51.4630  152.6800   27.8900 F   0  0  0  0  0  0  0  0  0  0  0  0
   51.5680  153.3330   29.9550 F   0  0  0  0  0  0  0  0  0  0  0  0
   53.3920  152.8390   28.8740 F   0  0  0  0  0  0  0  0  0  0  0  0
   54.6926  155.6819   25.1090 H   0  0  0  0  0  0  0  0  0  0  0  0
   54.5346  154.1203   24.2354 H   0  0  0  0  0  0  0  0  0  0  0  0
   53.1724  155.2912   24.2354 H   0  0  0  0  0  0  0  0  0  0  0  0
   52.6361  153.5342   25.8051 H   0  0  0  0  0  0  0  0  0  0  0  0
   54.2647  153.6963   26.5905 H   0  0  0  0  0  0  0  0  0  0  0  0
   53.4281  156.8921   25.7444 H   0  0  0  0  0  0  0  0  0  0  0  0
   52.5705  158.6611   27.2593 H   0  0  0  0  0  0  0  0  0  0  0  0
   47.5983  158.0761   30.7452 H   0  0  0  0  0  0  0  0  0  0  0  0
   46.4326  159.6953   32.2466 H   0  0  0  0  0  0  0  0  0  0  0  0
   47.6777  161.6423   33.1906 H   0  0  0  0  0  0  0  0  0  0  0  0
   51.0820  162.3050   32.6800 H   0  0  0  0  0  0  0  0  0  0  0  0
   54.0100  160.2310   30.1200 H   0  0  0  0  0  0  0  0  0  0  0  0
   51.3830  155.6485   30.1084 H   0  0  0  0  0  0  0  0  0  0  0  0
  1  2  1  0
  2  3  1  0
  3  4  2  0
  4  5  1  0
  5  6  2  0
  6  7  1  0
  7  8  1  0
  8  9  1  0
  9 10  2  0
 10 11  1  0
 11 12  2  0
 12 13  1  0
 13 14  1  0
 13 15  2  0
 15 16  1  0
 16 17  2  0
 16 18  1  0
 18 19  1  0
  6 20  1  0
 20 21  2  0
 21 22  1  0
 22 23  1  0
 22 24  1  0
 22 25  1  0
 21  3  1  0
 18  7  2  0
 15  9  1  0
  1 26  1  0
  1 27  1  0
  1 28  1  0
  2 29  1  0
  2 30  1  0
  4 31  1  0
  5 32  1  0
 10 33  1  0
 11 34  1  0
 12 35  1  0
 14 36  1  0
 19 37  1  0
 20 38  1  0
M  END
>  <meeko>  (5) 
{"is_sidechain": [false], "free_energy": -9.152, "intermolecular_energy": -11.183, "internal_energy": -0.433}

$$$$
cand_050_out
     RDKit          3D

 38 40  0  0  0  0  0  0  0  0999 V2000
   47.7930  159.4280   30.7910 C   0  0  0  0  0  0  0  0  0  0  0  0
   48.9200  158.6660   31.4720 C   0  0  0  0  0  0  0  0  0  0  0  0
   49.7640  157.8950   30.4800 C   0  0  0  0  0  0  0  0  0  0  0  0
   49.3290  156.6170   30.0910 C   0  0  0  0  0  0  0  0  0  0  0  0
   50.0670  155.8500   29.1860 C   0  0  0  0  0  0  0  0  0  0  0  0
   51.2580  156.3380   28.6410 C   0  0  0  0  0  0  0  0  0  0  0  0
   52.0330  155.5030   27.6990 C   0  0  0  0  0  0  0  0  0  0  0  0
   51.6930  154.1560   27.7640 O   0  0  0  0  0  0  0  0  0  0  0  0
   52.3400  153.2700   26.9400 C   0  0  0  0  0  0  0  0  0  0  0  0
   51.9790  151.9260   27.0490 C   0  0  0  0  0  0  0  0  0  0  0  0
   52.5970  150.9710   26.2370 C   0  0  0  0  0  0  0  0  0  0  0  0
   53.5730  151.3600   25.3190 C   0  0  0  0  0  0  0  0  0  0  0  0
   53.9310  152.7020   25.2120 C   0  0  0  0  0  0  0  0  0  0  0  0
   54.8950  153.0130   24.2920 O   0  0  0  0  0  0  0  0  0  0  0  0
   53.3140  153.6570   26.0250 C   0  0  0  0  0  0  0  0  0  0  0  0
   53.6610  155.0760   25.9450 C   0  0  0  0  0  0  0  0  0  0  0  0
   54.5050  155.4980   25.1580 O   0  0  0  0  0  0  0  0  0  0  0  0
   52.9530  156.0050   26.8560 C   0  0  0  0  0  0  0  0  0  0  0  0
   53.2770  157.3470   26.7650 O   0  0  0  0  0  0  0  0  0  0  0  0
   51.7020  157.6070   29.0410 C   0  0  0  0  0  0  0  0  0  0  0  0
   50.9740  158.3980   29.9550 C   0  0  0  0  0  0  0  0  0  0  0  0
   51.5090  159.7650   30.3240 C   0  0  0  0  0  0  0  0  0  0  0  0
   51.4970  160.0130   31.6660 F   0  0  0  0  0  0  0  0  0  0  0  0
   50.7960  160.7830   29.7640 F   0  0  0  0  0  0  0  0  0  0  0  0
   52.7990  159.9470   29.9290 F   0  0  0  0  0  0  0  0  0  0  0  0
   47.1368  159.8717   31.5543 H   0  0  0  0  0  0  0  0  0  0  0  0
   48.2167  160.2257   30.1632 H   0  0  0  0  0  0  0  0  0  0  0  0
   47.2106  158.7376   30.1632 H   0  0  0  0  0  0  0  0  0  0  0  0
   49.5629  159.3830   32.0035 H   0  0  0  0  0  0  0  0  0  0  0  0
   48.4692  157.9434   32.1682 H   0  0  0  0  0  0  0  0  0  0  0  0
   48.3930  156.2141   30.5053 H   0  0  0  0  0  0  0  0  0  0  0  0
   49.7068  154.8510   28.8992 H   0  0  0  0  0  0  0  0  0  0  0  0
   51.2095  151.6191   27.7727 H   0  0  0  0  0  0  0  0  0  0  0  0
   52.3136  149.9115   26.3218 H   0  0  0  0  0  0  0  0  0  0  0  0
   54.0593  150.6078   24.6804 H   0  0  0  0  0  0  0  0  0  0  0  0
   55.5320  153.6710   24.4860 H   0  0  0  0  0  0  0  0  0  0  0  0
   53.4450  157.7320   25.9280 H   0  0  0  0  0  0  0  0  0  0  0  0
   52.6450  157.9968   28.6303 H   0  0  0  0  0  0  0  0  0  0  0  0
  1  2  1  0
  2  3  1  0
  3  4  2  0
  4  5  1  0
  5  6  2  0
  6  7  1  0
  7  8  1  0
  8  9  1  0
  9 10  2  0
 10 11  1  0
 11 12  2  0
 12 13  1  0
 13 14  1  0
 13 15  2  0
 15 16  1  0
 16 17  2  0
 16 18  1  0
 18 19  1  0
  6 20  1  0
 20 21  2  0
 21 22  1  0
 22 23  1  0
 22 24  1  0
 22 25  1  0
 21  3  1  0
 18  7  2  0
 15  9  1  0
  1 26  1  0
  1 27  1  0
  1 28  1  0
  2 29  1  0
  2 30  1  0
  4 31  1  0
  5 32  1  0
 10 33  1  0
 11 34  1  0
 12 35  1  0
 14 36  1  0
 19 37  1  0
 20 38  1  0
M  END
>  <meeko>  (6) 
{"is_sidechain": [false], "free_energy": -8.665, "intermolecular_energy": -10.888, "internal_energy": -0.126}

$$$$
cand_050_out
     RDKit          3D

 38 40  0  0  0  0  0  0  0  0999 V2000
   54.7940  155.1680   24.6350 C   0  0  0  0  0  0  0  0  0  0  0  0
   53.9280  154.3230   25.5600 C   0  0  0  0  0  0  0  0  0  0  0  0
   53.1950  155.1690   26.5780 C   0  0  0  0  0  0  0  0  0  0  0  0
   53.3140  156.5670   26.4890 C   0  0  0  0  0  0  0  0  0  0  0  0
   52.6700  157.4040   27.4040 C   0  0  0  0  0  0  0  0  0  0  0  0
   51.8860  156.8710   28.4310 C   0  0  0  0  0  0  0  0  0  0  0  0
   51.2280  157.7740   29.3990 C   0  0  0  0  0  0  0  0  0  0  0  0
   51.9810  158.9080   29.6800 O   0  0  0  0  0  0  0  0  0  0  0  0
   51.4840  159.8300   30.5660 C   0  0  0  0  0  0  0  0  0  0  0  0
   52.2800  160.9450   30.8320 C   0  0  0  0  0  0  0  0  0  0  0  0
   51.8320  161.9240   31.7220 C   0  0  0  0  0  0  0  0  0  0  0  0
   50.5900  161.7870   32.3450 C   0  0  0  0  0  0  0  0  0  0  0  0
   49.7990  160.6730   32.0790 C   0  0  0  0  0  0  0  0  0  0  0  0
   48.5940  160.6030   32.7240 O   0  0  0  0  0  0  0  0  0  0  0  0
   50.2470  159.6930   31.1880 C   0  0  0  0  0  0  0  0  0  0  0  0
   49.4460  158.5080   30.8810 C   0  0  0  0  0  0  0  0  0  0  0  0
   48.3410  158.3190   31.3830 O   0  0  0  0  0  0  0  0  0  0  0  0
   50.0160  157.5260   29.9300 C   0  0  0  0  0  0  0  0  0  0  0  0
   49.2480  156.4150   29.6330 O   0  0  0  0  0  0  0  0  0  0  0  0
   51.7790  155.4760   28.5310 C   0  0  0  0  0  0  0  0  0  0  0  0
   52.4220  154.6110   27.6200 C   0  0  0  0  0  0  0  0  0  0  0  0
   52.2440  153.1170   27.7820 C   0  0  0  0  0  0  0  0  0  0  0  0
   51.5700  152.5300   26.7500 F   0  0  0  0  0  0  0  0  0  0  0  0
   51.5460  152.7840   28.9040 F   0  0  0  0  0  0  0  0  0  0  0  0
   53.4310  152.4540   27.8670 F   0  0  0  0  0  0  0  0  0  0  0  0
   55.4533  155.8113   25.2362 H   0  0  0  0  0  0  0  0  0  0  0  0
   55.4043  154.5087   24.0004 H   0  0  0  0  0  0  0  0  0  0  0  0
   54.1498  155.7943   24.0004 H   0  0  0  0  0  0  0  0  0  0  0  0
   53.1899  153.7763   24.9547 H   0  0  0  0  0  0  0  0  0  0  0  0
   54.5868  153.6303   26.1043 H   0  0  0  0  0  0  0  0  0  0  0  0
   53.9234  157.0087   25.6868 H   0  0  0  0  0  0  0  0  0  0  0  0
   52.7813  158.4947   27.3150 H   0  0  0  0  0  0  0  0  0  0  0  0
   53.2587  161.0528   30.3416 H   0  0  0  0  0  0  0  0  0  0  0  0
   52.4582  162.8036   31.9322 H   0  0  0  0  0  0  0  0  0  0  0  0
   50.2371  162.5585   33.0452 H   0  0  0  0  0  0  0  0  0  0  0  0
   48.5170  160.1160   33.5200 H   0  0  0  0  0  0  0  0  0  0  0  0
   48.8660  155.9120   30.3250 H   0  0  0  0  0  0  0  0  0  0  0  0
   51.1763  155.0436   29.3433 H   0  0  0  0  0  0  0  0  0  0  0  0
  1  2  1  0
  2  3  1  0
  3  4  2  0
  4  5  1  0
  5  6  2  0
  6  7  1  0
  7  8  1  0
  8  9  1  0
  9 10  2  0
 10 11  1  0
 11 12  2  0
 12 13  1  0
 13 14  1  0
 13 15  2  0
 15 16  1  0
 16 17  2  0
 16 18  1  0
 18 19  1  0
  6 20  1  0
 20 21  2  0
 21 22  1  0
 22 23  1  0
 22 24  1  0
 22 25  1  0
 21  3  1  0
 18  7  2  0
 15  9  1  0
  1 26  1  0
  1 27  1  0
  1 28  1  0
  2 29  1  0
  2 30  1  0
  4 31  1  0
  5 32  1  0
 10 33  1  0
 11 34  1  0
 12 35  1  0
 14 36  1  0
 19 37  1  0
 20 38  1  0
M  END
>  <meeko>  (7) 
{"is_sidechain": [false], "free_energy": -8.43, "intermolecular_energy": -10.497, "internal_energy": -0.228}

$$$$
cand_050_out
     RDKit          3D

 38 40  0  0  0  0  0  0  0  0999 V2000
   52.1400  161.2610   30.9740 C   0  0  0  0  0  0  0  0  0  0  0  0
   51.0360  160.2150   31.0320 C   0  0  0  0  0  0  0  0  0  0  0  0
   51.3520  159.0090   30.1730 C   0  0  0  0  0  0  0  0  0  0  0  0
   52.6620  158.8700   29.6820 C   0  0  0  0  0  0  0  0  0  0  0  0
   53.0170  157.7860   28.8760 C   0  0  0  0  0  0  0  0  0  0  0  0
   52.0770  156.8060   28.5420 C   0  0  0  0  0  0  0  0  0  0  0  0
   52.4700  155.6760   27.6730 C   0  0  0  0  0  0  0  0  0  0  0  0
   51.9230  154.4640   28.0810 O   0  0  0  0  0  0  0  0  0  0  0  0
   52.2090  153.3330   27.3600 C   0  0  0  0  0  0  0  0  0  0  0  0
   51.6530  152.1360   27.8140 C   0  0  0  0  0  0  0  0  0  0  0  0
   51.9020  150.9470   27.1240 C   0  0  0  0  0  0  0  0  0  0  0  0
   52.7060  150.9560   25.9830 C   0  0  0  0  0  0  0  0  0  0  0  0
   53.2600  152.1510   25.5330 C   0  0  0  0  0  0  0  0  0  0  0  0
   54.0380  152.0870   24.4080 O   0  0  0  0  0  0  0  0  0  0  0  0
   53.0110  153.3410   26.2230 C   0  0  0  0  0  0  0  0  0  0  0  0
   53.5740  154.6180   25.7840 C   0  0  0  0  0  0  0  0  0  0  0  0
   54.2850  154.7090   24.7850 O   0  0  0  0  0  0  0  0  0  0  0  0
   53.2560  155.8190   26.5900 C   0  0  0  0  0  0  0  0  0  0  0  0
   53.7800  157.0240   26.1610 O   0  0  0  0  0  0  0  0  0  0  0  0
   50.7660  156.9520   29.0180 C   0  0  0  0  0  0  0  0  0  0  0  0
   50.3840  158.0410   29.8310 C   0  0  0  0  0  0  0  0  0  0  0  0
   48.9550  158.1190   30.3210 C   0  0  0  0  0  0  0  0  0  0  0  0
   48.2910  159.2340   29.8990 F   0  0  0  0  0  0  0  0  0  0  0  0
   48.8600  158.1370   31.6810 F   0  0  0  0  0  0  0  0  0  0  0  0
   48.1990  157.0640   29.9050 F   0  0  0  0  0  0  0  0  0  0  0  0
   52.4347  161.5402   31.9964 H   0  0  0  0  0  0  0  0  0  0  0  0
   53.0094  160.8474   30.4419 H   0  0  0  0  0  0  0  0  0  0  0  0
   51.7739  162.1514   30.4419 H   0  0  0  0  0  0  0  0  0  0  0  0
   50.9127  159.8861   32.0744 H   0  0  0  0  0  0  0  0  0  0  0  0
   50.1129  160.6735   30.6478 H   0  0  0  0  0  0  0  0  0  0  0  0
   53.4189  159.6265   29.9365 H   0  0  0  0  0  0  0  0  0  0  0  0
   54.0473  157.7022   28.4998 H   0  0  0  0  0  0  0  0  0  0  0  0
   51.0199  152.1288   28.7135 H   0  0  0  0  0  0  0  0  0  0  0  0
   51.4641  150.0029   27.4802 H   0  0  0  0  0  0  0  0  0  0  0  0
   52.9016  150.0196   25.4400 H   0  0  0  0  0  0  0  0  0  0  0  0
   53.7920  151.5260   23.7000 H   0  0  0  0  0  0  0  0  0  0  0  0
   54.0860  157.1150   25.2810 H   0  0  0  0  0  0  0  0  0  0  0  0
   50.0134  156.1959   28.7500 H   0  0  0  0  0  0  0  0  0  0  0  0
  1  2  1  0
  2  3  1  0
  3  4  2  0
  4  5  1  0
  5  6  2  0
  6  7  1  0
  7  8  1  0
  8  9  1  0
  9 10  2  0
 10 11  1  0
 11 12  2  0
 12 13  1  0
 13 14  1  0
 13 15  2  0
 15 16  1  0
 16 17  2  0
 16 18  1  0
 18 19  1  0
  6 20  1  0
 20 21  2  0
 21 22  1  0
 22 23  1  0
 22 24  1  0
 22 25  1  0
 21  3  1  0
 18  7  2  0
 15  9  1  0
  1 26  1  0
  1 27  1  0
  1 28  1  0
  2 29  1  0
  2 30  1  0
  4 31  1  0
  5 32  1  0
 10 33  1  0
 11 34  1  0
 12 35  1  0
 14 36  1  0
 19 37  1  0
 20 38  1  0
M  END
>  <meeko>  (8) 
{"is_sidechain": [false], "free_energy": -7.828, "intermolecular_energy": -9.725, "internal_energy": -0.257}

$$$$
