cand_025_out
     RDKit          3D

 53 56  0  0  0  0  0  0  0  0999 V2000
   54.2570  156.5640   25.0580 C   0  0  0  0  0  0  0  0  0  0  0  0
   53.1440  155.5270   25.0910 C   0  0  0  0  0  0  0  0  0  0  0  0
   52.5810  155.3440   26.4830 C   0  0  0  0  0  0  0  0  0  0  0  0
   52.2720  156.4900   27.2430 C   0  0  0  0  0  0  0  0  0  0  0  0
   51.7560  156.3920   28.5400 C   0  0  0  0  0  0  0  0  0  0  0  0
   51.4520  157.5890   29.3520 C   0  0  0  0  0  0  0  0  0  0  0  0
   50.1310  157.6300   29.7820 O   0  0  0  0  0  0  0  0  0  0  0  0
   49.7150  158.6900   30.5470 C   0  0  0  0  0  0  0  0  0  0  0  0
   48.3860  158.6830   30.9700 C   0  0  0  0  0  0  0  0  0  0  0  0
   47.8960  159.7330   31.7510 C   0  0  0  0  0  0  0  0  0  0  0  0
   48.7370  160.7890   32.1060 C   0  0  0  0  0  0  0  0  0  0  0  0
   50.0630  160.7940   31.6830 C   0  0  0  0  0  0  0  0  0  0  0  0
   50.8310  161.8600   32.0680 O   0  0  0  0  0  0  0  0  0  0  0  0
   50.5520  159.7430   30.9030 C   0  0  0  0  0  0  0  0  0  0  0  0
   51.9400  159.7090   30.4370 C   0  0  0  0  0  0  0  0  0  0  0  0
   52.7370  160.6060   30.7040 O   0  0  0  0  0  0  0  0  0  0  0  0
   52.3600  158.5470   29.6220 C   0  0  0  0  0  0  0  0  0  0  0  0
   53.6680  158.5310   29.1770 O   0  0  0  0  0  0  0  0  0  0  0  0
   51.5690  155.1160   29.0840 C   0  0  0  0  0  0  0  0  0  0  0  0
   51.8790  153.9710   28.3430 C   0  0  0  0  0  0  0  0  0  0  0  0
   52.3930  154.0630   27.0410 C   0  0  0  0  0  0  0  0  0  0  0  0
   52.7080  152.9230   26.2780 N   0  0  0  0  0  0  0  0  0  0  0  0
   54.1430  152.7890   25.9480 C   0  0  0  0  0  0  0  0  0  0  0  0
   54.3510  151.5850   24.9980 C   0  0  0  0  0  0  0  0  0  0  0  0
   53.8410  150.3170   25.5730 N   0  0  0  0  0  0  0  0  0  0  0  0
   54.0060  149.2190   24.6240 C   0  0  0  0  0  0  0  0  0  0  0  0
   52.4120  150.4870   25.9300 C   0  0  0  0  0  0  0  0  0  0  0  0
   52.1710  151.6830   26.8820 C   0  0  0  0  0  0  0  0  0  0  0  0
   54.5417  156.8292   26.0869 H   0  0  0  0  0  0  0  0  0  0  0  0
   55.1292  156.1491   24.5316 H   0  0  0  0  0  0  0  0  0  0  0  0
   53.9047  157.4633   24.5316 H   0  0  0  0  0  0  0  0  0  0  0  0
   52.3350  155.8529   24.4207 H   0  0  0  0  0  0  0  0  0  0  0  0
   53.5665  154.5647   24.7662 H   0  0  0  0  0  0  0  0  0  0  0  0
   52.4405  157.4854   26.8061 H   0  0  0  0  0  0  0  0  0  0  0  0
   47.7236  157.8510   30.6888 H   0  0  0  0  0  0  0  0  0  0  0  0
   46.8482  159.7274   32.0858 H   0  0  0  0  0  0  0  0  0  0  0  0
   48.3520  161.6167   32.7197 H   0  0  0  0  0  0  0  0  0  0  0  0
   51.6140  162.0680   31.5960 H   0  0  0  0  0  0  0  0  0  0  0  0
   54.1640  159.3260   29.1490 H   0  0  0  0  0  0  0  0  0  0  0  0
   51.1739  155.0126   30.1054 H   0  0  0  0  0  0  0  0  0  0  0  0
   51.7166  152.9791   28.7899 H   0  0  0  0  0  0  0  0  0  0  0  0
   54.4919  153.7082   25.4547 H   0  0  0  0  0  0  0  0  0  0  0  0
   54.7152  152.6254   26.8731 H   0  0  0  0  0  0  0  0  0  0  0  0
   53.8211  151.7836   24.0547 H   0  0  0  0  0  0  0  0  0  0  0  0
   55.4327  151.4687   24.8357 H   0  0  0  0  0  0  0  0  0  0  0  0
   54.3740  150.0890   26.4120 H   0  0  0  0  0  0  0  0  0  0  0  0
   54.1476  148.2770   25.1741 H   0  0  0  0  0  0  0  0  0  0  0  0
   53.1092  149.1431   23.9916 H   0  0  0  0  0  0  0  0  0  0  0  0
   54.8855  149.4100   23.9916 H   0  0  0  0  0  0  0  0  0  0  0  0
   51.8360  150.6505   25.0072 H   0  0  0  0  0  0  0  0  0  0  0  0
   52.0906  149.5753   26.4549 H   0  0  0  0  0  0  0  0  0  0  0  0
   51.0910  151.7996   27.0552 H   0  0  0  0  0  0  0  0  0  0  0  0
   52.6823  151.4944   27.8375 H   0  0  0  0  0  0  0  0  0  0  0  0
  1  2  1  0
  2  3  1  0
  3  4  2  0
  4  5  1  0
  5  6  1  0
  6  7  1  0
  7  8  1  0
  8  9  2  0
  9 10  1  0
 10 11  2  0
 11 12  1  0
 12 13  1  0
 12 14  2  0
 14 15  1  0
 15 16  2  0
 15 17  1  0
 17 18  1  0
  5 19  2  0
 19 20  1  0
 20 21  2  0
 21 22  1  0
 22 23  1  0
 23 24  1  0
 24 25  1  0
 25 26  1  0
 25 27  1  0
 27 28  1  0
 21  3  1  0
 28 22  1  0
 17  6  2  0
 14  8  1  0
  1 29  1  0
  1 30  1  0
  1 31  1  0
  2 32  1  0
  2 33  1  0
  4 34  1  0
  9 35  1  0
 10 36  1  0
 11 37  1  0
 13 38  1  0
 18 39  1  0
 19 40  1  0
 20 41  1  0
 23 42  1  0
 23 43  1  0
 24 44  1  0
 24 45  1  0
 25 46  1  0
 26 47  1  0
 26 48  1  0
 26 49  1  0
 27 50  1  0
 27 51  1  0
 28 52  1  0
 28 53  1  0
M  CHG  1  25   1
M  END
>  <meeko>  (1) 
{"is_sidechain": [false], "free_energy": -10.59, "intermolecular_energy": -13.066, "internal_energy": -0.068}

$$$$
cand_025_out
     RDKit          3D

 53 56  0  0  0  0  0  0  0  0999 V2000
   53.7550  156.5450   25.3570 C   0  0  0  0  0  0  0  0  0  0  0  0
   53.1400  155.1720   25.5830 C   0  0  0  0  0  0  0  0  0  0  0  0
   52.5540  155.0350   26.9710 C   0  0  0  0  0  0  0  0  0  0  0  0
   52.0210  156.1810   27.5950 C   0  0  0  0  0  0  0  0  0  0  0  0
   51.4710  156.1260   28.8820 C   0  0  0  0  0  0  0  0  0  0  0  0
   50.9330  157.3290   29.5520 C   0  0  0  0  0  0  0  0  0  0  0  0
   51.9050  158.2940   29.7900 O   0  0  0  0  0  0  0  0  0  0  0  0
   51.5410  159.4640   30.4070 C   0  0  0  0  0  0  0  0  0  0  0  0
   52.5440  160.4110   30.6120 C   0  0  0  0  0  0  0  0  0  0  0  0
   52.2410  161.6240   31.2370 C   0  0  0  0  0  0  0  0  0  0  0  0
   50.9350  161.8870   31.6550 C   0  0  0  0  0  0  0  0  0  0  0  0
   49.9360  160.9400   31.4490 C   0  0  0  0  0  0  0  0  0  0  0  0
   48.6790  161.2630   31.8840 O   0  0  0  0  0  0  0  0  0  0  0  0
   50.2390  159.7280   30.8240 C   0  0  0  0  0  0  0  0  0  0  0  0
   49.2180  158.7060   30.5870 C   0  0  0  0  0  0  0  0  0  0  0  0
   48.0490  158.8620   30.9340 O   0  0  0  0  0  0  0  0  0  0  0  0
   49.6420  157.4590   29.9100 C   0  0  0  0  0  0  0  0  0  0  0  0
   48.6730  156.4950   29.7040 O   0  0  0  0  0  0  0  0  0  0  0  0
   51.4780  154.8990   29.5530 C   0  0  0  0  0  0  0  0  0  0  0  0
   52.0100  153.7560   28.9480 C   0  0  0  0  0  0  0  0  0  0  0  0
   52.5600  153.8040   27.6580 C   0  0  0  0  0  0  0  0  0  0  0  0
   53.0970  152.6640   27.0300 N   0  0  0  0  0  0  0  0  0  0  0  0
   52.0820  151.7190   26.5160 C   0  0  0  0  0  0  0  0  0  0  0  0
   52.7800  150.4490   25.9730 C   0  0  0  0  0  0  0  0  0  0  0  0
   53.7710  150.7560   24.9150 N   0  0  0  0  0  0  0  0  0  0  0  0
   54.4440  149.5380   24.4700 C   0  0  0  0  0  0  0  0  0  0  0  0
   54.7550  151.7330   25.4400 C   0  0  0  0  0  0  0  0  0  0  0  0
   54.0880  153.0170   25.9890 C   0  0  0  0  0  0  0  0  0  0  0  0
   53.9662  157.0165   26.3281 H   0  0  0  0  0  0  0  0  0  0  0  0
   54.6914  156.4385   24.7897 H   0  0  0  0  0  0  0  0  0  0  0  0
   53.0521  157.1728   24.7897 H   0  0  0  0  0  0  0  0  0  0  0  0
   52.3413  155.0145   24.8432 H   0  0  0  0  0  0  0  0  0  0  0  0
   53.9364  154.4210   25.4748 H   0  0  0  0  0  0  0  0  0  0  0  0
   52.0374  157.1412   27.0586 H   0  0  0  0  0  0  0  0  0  0  0  0
   53.5727  160.2036   30.2821 H   0  0  0  0  0  0  0  0  0  0  0  0
   53.0315  162.3714   31.3996 H   0  0  0  0  0  0  0  0  0  0  0  0
   50.6959  162.8416   32.1466 H   0  0  0  0  0  0  0  0  0  0  0  0
   48.5030  161.3270   32.8030 H   0  0  0  0  0  0  0  0  0  0  0  0
   47.8740  156.5210   30.1930 H   0  0  0  0  0  0  0  0  0  0  0  0
   51.0602  154.8322   30.5684 H   0  0  0  0  0  0  0  0  0  0  0  0
   51.9971  152.8010   29.4938 H   0  0  0  0  0  0  0  0  0  0  0  0
   51.3967  151.4400   27.3299 H   0  0  0  0  0  0  0  0  0  0  0  0
   51.5153  152.1987   25.7044 H   0  0  0  0  0  0  0  0  0  0  0  0
   53.2957  149.9467   26.8047 H   0  0  0  0  0  0  0  0  0  0  0  0
   52.0060  149.8051   25.5300 H   0  0  0  0  0  0  0  0  0  0  0  0
   53.2910  151.1600   24.1100 H   0  0  0  0  0  0  0  0  0  0  0  0
   54.7657  148.9558   25.3461 H   0  0  0  0  0  0  0  0  0  0  0  0
   53.7504  148.9362   23.8644 H   0  0  0  0  0  0  0  0  0  0  0  0
   55.3226  149.8049   23.8644 H   0  0  0  0  0  0  0  0  0  0  0  0
   55.3241  151.2573   26.2523 H   0  0  0  0  0  0  0  0  0  0  0  0
   55.4072  152.0287   24.6050 H   0  0  0  0  0  0  0  0  0  0  0  0
   54.8581  153.6702   26.4251 H   0  0  0  0  0  0  0  0  0  0  0  0
   53.5786  153.5406   25.1666 H   0  0  0  0  0  0  0  0  0  0  0  0
  1  2  1  0
  2  3  1  0
  3  4  2  0
  4  5  1  0
  5  6  1  0
  6  7  1  0
  7  8  1  0
  8  9  2  0
  9 10  1  0
 10 11  2  0
 11 12  1  0
 12 13  1  0
 12 14  2  0
 14 15  1  0
 15 16  2  0
 15 17  1  0
 17 18  1  0
  5 19  2  0
 19 20  1  0
 20 21  2  0
 21 22  1  0
 22 23  1  0
 23 24  1  0
 24 25  1  0
 25 26  1  0
 25 27  1  0
 27 28  1  0
 21  3  1  0
 28 22  1  0
 17  6  2  0
 14  8  1  0
  1 29  1  0
  1 30  1  0
  1 31  1  0
  2 32  1  0
  2 33  1  0
  4 34  1  0
  9 35  1  0
 10 36  1  0
 11 37  1  0
 13 38  1  0
 18 39  1  0
 19 40  1  0
 20 41  1  0
 23 42  1  0
 23 43  1  0
 24 44  1  0
 24 45  1  0
 25 46  1  0
 26 47  1  0
 26 48  1  0
 26 49  1  0
 27 50  1  0
 27 51  1  0
 28 52  1  0
 28 53  1  0
M  CHG  1  25   1
M  END
>  <meeko>  (2) 
{"is_sidechain": [false], "free_energy": -8.793, "intermolecular_energy": -11.984, "internal_energy": 1.067}

$$$$
cand_025_out
     RDKit          3D

 53 56  0  0  0  0  0  0  0  0999 V2000
   50.8780  153.6720   30.4830 C   0  0  0  0  0  0  0  0  0  0  0  0
   51.8540  153.7030   29.3170 C   0  0  0  0  0  0  0  0  0  0  0  0
   52.1230  155.1140   28.8410 C   0  0  0  0  0  0  0  0  0  0  0  0
   51.6500  156.1910   29.6180 C   0  0  0  0  0  0  0  0  0  0  0  0
   51.8570  157.5200   29.2320 C   0  0  0  0  0  0  0  0  0  0  0  0
   51.3430  158.6540   30.0290 C   0  0  0  0  0  0  0  0  0  0  0  0
   50.0070  158.5020   30.3850 O   0  0  0  0  0  0  0  0  0  0  0  0
   49.4030  159.4820   31.1290 C   0  0  0  0  0  0  0  0  0  0  0  0
   48.0670  159.2820   31.4770 C   0  0  0  0  0  0  0  0  0  0  0  0
   47.3910  160.2430   32.2320 C   0  0  0  0  0  0  0  0  0  0  0  0
   48.0520  161.4040   32.6380 C   0  0  0  0  0  0  0  0  0  0  0  0
   49.3850  161.6020   32.2900 C   0  0  0  0  0  0  0  0  0  0  0  0
   49.9710  162.7620   32.7200 O   0  0  0  0  0  0  0  0  0  0  0  0
   50.0610  160.6400   31.5350 C   0  0  0  0  0  0  0  0  0  0  0  0
   51.4620  160.8090   31.1470 C   0  0  0  0  0  0  0  0  0  0  0  0
   52.1080  161.8070   31.4610 O   0  0  0  0  0  0  0  0  0  0  0  0
   52.0880  159.7270   30.3530 C   0  0  0  0  0  0  0  0  0  0  0  0
   53.4080  159.9030   29.9820 O   0  0  0  0  0  0  0  0  0  0  0  0
   52.5350  157.7630   28.0330 C   0  0  0  0  0  0  0  0  0  0  0  0
   53.0030  156.7040   27.2490 C   0  0  0  0  0  0  0  0  0  0  0  0
   52.8010  155.3690   27.6320 C   0  0  0  0  0  0  0  0  0  0  0  0
   53.2680  154.2890   26.8590 N   0  0  0  0  0  0  0  0  0  0  0  0
   52.2860  153.1960   26.6870 C   0  0  0  0  0  0  0  0  0  0  0  0
   52.9480  152.0120   25.9440 C   0  0  0  0  0  0  0  0  0  0  0  0
   53.5040  152.4090   24.6280 N   0  0  0  0  0  0  0  0  0  0  0  0
   54.1670  151.2770   23.9860 C   0  0  0  0  0  0  0  0  0  0  0  0
   54.4560  153.5290   24.8220 C   0  0  0  0  0  0  0  0  0  0  0  0
   53.8220  154.7320   25.5610 C   0  0  0  0  0  0  0  0  0  0  0  0
   51.4374  153.6898   31.4300 H   0  0  0  0  0  0  0  0  0  0  0  0
   50.2168  154.5496   30.4312 H   0  0  0  0  0  0  0  0  0  0  0  0
   50.2739  152.7542   30.4312 H   0  0  0  0  0  0  0  0  0  0  0  0
   52.8035  153.2487   29.6364 H   0  0  0  0  0  0  0  0  0  0  0  0
   51.4057  153.1426   28.4834 H   0  0  0  0  0  0  0  0  0  0  0  0
   51.1050  155.9816   30.5503 H   0  0  0  0  0  0  0  0  0  0  0  0
   47.5461  158.3676   31.1568 H   0  0  0  0  0  0  0  0  0  0  0  0
   46.3376  160.0852   32.5069 H   0  0  0  0  0  0  0  0  0  0  0  0
   47.5198  162.1614   33.2323 H   0  0  0  0  0  0  0  0  0  0  0  0
   50.1840  163.4360   32.1040 H   0  0  0  0  0  0  0  0  0  0  0  0
   53.7790  159.3750   29.3030 H   0  0  0  0  0  0  0  0  0  0  0  0
   52.7019  158.7990   27.7031 H   0  0  0  0  0  0  0  0  0  0  0  0
   53.5399  156.9215   26.3139 H   0  0  0  0  0  0  0  0  0  0  0  0
   51.9374  152.8590   27.6744 H   0  0  0  0  0  0  0  0  0  0  0  0
   51.4319  153.5631   26.0990 H   0  0  0  0  0  0  0  0  0  0  0  0
   53.7636  151.6159   26.5669 H   0  0  0  0  0  0  0  0  0  0  0  0
   52.1721  151.2532   25.7646 H   0  0  0  0  0  0  0  0  0  0  0  0
   52.7440  152.7130   24.0190 H   0  0  0  0  0  0  0  0  0  0  0  0
   54.5638  150.5994   24.7564 H   0  0  0  0  0  0  0  0  0  0  0  0
   53.4432  150.7356   23.3591 H   0  0  0  0  0  0  0  0  0  0  0  0
   54.9933  151.6434   23.3591 H   0  0  0  0  0  0  0  0  0  0  0  0
   55.3113  153.1657   25.4106 H   0  0  0  0  0  0  0  0  0  0  0  0
   54.7658  153.8775   23.8257 H   0  0  0  0  0  0  0  0  0  0  0  0
   54.5905  155.4995   25.7351 H   0  0  0  0  0  0  0  0  0  0  0  0
   53.0123  155.1502   24.9449 H   0  0  0  0  0  0  0  0  0  0  0  0
  1  2  1  0
  2  3  1  0
  3  4  2  0
  4  5  1  0
  5  6  1  0
  6  7  1  0
  7  8  1  0
  8  9  2  0
  9 10  1  0
 10 11  2  0
 11 12  1  0
 12 13  1  0
 12 14  2  0
 14 15  1  0
 15 16  2  0
 15 17  1  0
 17 18  1  0
  5 19  2  0
 19 20  1  0
 20 21  2  0
 21 22  1  0
 22 23  1  0
 23 24  1  0
 24 25  1  0
 25 26  1  0
 25 27  1  0
 27 28  1  0
 21  3  1  0
 28 22  1  0
 17  6  2  0
 14  8  1  0
  1 29  1  0
  1 30  1  0
  1 31  1  0
  2 32  1  0
  2 33  1  0
  4 34  1  0
  9 35  1  0
 10 36  1  0
 11 37  1  0
 13 38  1  0
 18 39  1  0
 19 40  1  0
 20 41  1  0
 23 42  1  0
 23 43  1  0
 24 44  1  0
 24 45  1  0
 25 46  1  0
 26 47  1  0
 26 48  1  0
 26 49  1  0
 27 50  1  0
 27 51  1  0
 28 52  1  0
 28 53  1  0
M  CHG  1  25   1
M  END
>  <meeko>  (3) 
{"is_sidechain": [false], "free_energy": -7.879, "intermolecular_energy": -10.325, "internal_energy": 0.536}

$$$$
cand_025_out
     RDKit          3D

 53 56  0  0  0  0  0  0  0  0999 V2000
   52.4890  161.1580   31.6230 C   0  0  0  0  0  0  0  0  0  0  0  0
   52.5200  160.6340   30.1960 C   0  0  0  0  0  0  0  0  0  0  0  0
   51.7760  159.3240   30.0580 C   0  0  0  0  0  0  0  0  0  0  0  0
   52.3340  158.3110   29.2520 C   0  0  0  0  0  0  0  0  0  0  0  0
   51.6940  157.0780   29.0750 C   0  0  0  0  0  0  0  0  0  0  0  0
   52.2620  156.0220   28.2110 C   0  0  0  0  0  0  0  0  0  0  0  0
   52.8570  156.5260   27.0600 O   0  0  0  0  0  0  0  0  0  0  0  0
   53.4250  155.6530   26.1690 C   0  0  0  0  0  0  0  0  0  0  0  0
   54.0250  156.2030   25.0370 C   0  0  0  0  0  0  0  0  0  0  0  0
   54.6210  155.3690   24.0870 C   0  0  0  0  0  0  0  0  0  0  0  0
   54.6160  153.9850   24.2720 C   0  0  0  0  0  0  0  0  0  0  0  0
   54.0170  153.4380   25.4040 C   0  0  0  0  0  0  0  0  0  0  0  0
   54.0480  152.0750   25.5220 O   0  0  0  0  0  0  0  0  0  0  0  0
   53.4220  154.2730   26.3530 C   0  0  0  0  0  0  0  0  0  0  0  0
   52.7810  153.7390   27.5560 C   0  0  0  0  0  0  0  0  0  0  0  0
   52.7310  152.5330   27.7840 O   0  0  0  0  0  0  0  0  0  0  0  0
   52.1860  154.7100   28.5030 C   0  0  0  0  0  0  0  0  0  0  0  0
   51.5730  154.1940   29.6290 O   0  0  0  0  0  0  0  0  0  0  0  0
   50.4630  156.8750   29.7070 C   0  0  0  0  0  0  0  0  0  0  0  0
   49.8950  157.8740   30.5040 C   0  0  0  0  0  0  0  0  0  0  0  0
   50.5330  159.1100   30.6870 C   0  0  0  0  0  0  0  0  0  0  0  0
   49.9790  160.1270   31.4880 N   0  0  0  0  0  0  0  0  0  0  0  0
   48.8480  160.8460   30.8630 C   0  0  0  0  0  0  0  0  0  0  0  0
   48.4130  162.0220   31.7690 C   0  0  0  0  0  0  0  0  0  0  0  0
   48.0410  161.5770   33.1330 N   0  0  0  0  0  0  0  0  0  0  0  0
   47.6890  162.7220   33.9700 C   0  0  0  0  0  0  0  0  0  0  0  0
   49.1750  160.8270   33.7250 C   0  0  0  0  0  0  0  0  0  0  0  0
   49.6330  159.6420   32.8430 C   0  0  0  0  0  0  0  0  0  0  0  0
   52.5390  160.3127   32.3252 H   0  0  0  0  0  0  0  0  0  0  0  0
   53.3494  161.8232   31.7881 H   0  0  0  0  0  0  0  0  0  0  0  0
   51.5562  161.7171   31.7881 H   0  0  0  0  0  0  0  0  0  0  0  0
   52.0541  161.3787   29.5339 H   0  0  0  0  0  0  0  0  0  0  0  0
   53.5705  160.4592   29.9205 H   0  0  0  0  0  0  0  0  0  0  0  0
   53.2955  158.4935   28.7499 H   0  0  0  0  0  0  0  0  0  0  0  0
   54.0293  157.2933   24.8916 H   0  0  0  0  0  0  0  0  0  0  0  0
   55.0940  155.8028   23.1936 H   0  0  0  0  0  0  0  0  0  0  0  0
   55.0845  153.3277   23.5247 H   0  0  0  0  0  0  0  0  0  0  0  0
   53.2780  151.6100   25.7860 H   0  0  0  0  0  0  0  0  0  0  0  0
   51.5330  153.2670   29.7580 H   0  0  0  0  0  0  0  0  0  0  0  0
   49.9356  155.9187   29.5757 H   0  0  0  0  0  0  0  0  0  0  0  0
   48.9295  157.6871   30.9968 H   0  0  0  0  0  0  0  0  0  0  0  0
   49.1594  161.2356   29.8826 H   0  0  0  0  0  0  0  0  0  0  0  0
   48.0030  160.1537   30.7340 H   0  0  0  0  0  0  0  0  0  0  0  0
   49.2463  162.7360   31.8454 H   0  0  0  0  0  0  0  0  0  0  0  0
   47.5254  162.4855   31.3137 H   0  0  0  0  0  0  0  0  0  0  0  0
   47.2250  160.9670   33.0790 H   0  0  0  0  0  0  0  0  0  0  0  0
   47.7752  162.4415   35.0301 H   0  0  0  0  0  0  0  0  0  0  0  0
   48.3719  163.5571   33.7550 H   0  0  0  0  0  0  0  0  0  0  0  0
   46.6549  163.0293   33.7550 H   0  0  0  0  0  0  0  0  0  0  0  0
   50.0223  161.5161   33.8561 H   0  0  0  0  0  0  0  0  0  0  0  0
   48.8341  160.4135   34.6857 H   0  0  0  0  0  0  0  0  0  0  0  0
   50.5159  159.1688   33.2976 H   0  0  0  0  0  0  0  0  0  0  0  0
   48.8159  158.9094   32.7678 H   0  0  0  0  0  0  0  0  0  0  0  0
  1  2  1  0
  2  3  1  0
  3  4  2  0
  4  5  1  0
  5  6  1  0
  6  7  1  0
  7  8  1  0
  8  9  2  0
  9 10  1  0
 10 11  2  0
 11 12  1  0
 12 13  1  0
 12 14  2  0
 14 15  1  0
 15 16  2  0
 15 17  1  0
 17 18  1  0
  5 19  2  0
 19 20  1  0
 20 21  2  0
 21 22  1  0
 22 23  1  0
 23 24  1  0
 24 25  1  0
 25 26  1  0
 25 27  1  0
 27 28  1  0
 21  3  1  0
 28 22  1  0
 17  6  2  0
 14  8  1  0
  1 29  1  0
  1 30  1  0
  1 31  1  0
  2 32  1  0
  2 33  1  0
  4 34  1  0
  9 35  1  0
 10 36  1  0
 11 37  1  0
 13 38  1  0
 18 39  1  0
 19 40  1  0
 20 41  1  0
 23 42  1  0
 23 43  1  0
 24 44  1  0
 24 45  1  0
 25 46  1  0
 26 47  1  0
 26 48  1  0
 26 49  1  0
 27 50  1  0
 27 51  1  0
 28 52  1  0
 28 53  1  0
M  CHG  1  25   1
M  END
>  <meeko>  (4) 
{"is_sidechain": [false], "free_energy": -7.646, "intermolecular_energy": -10.052, "internal_energy": 0.551}

$$$$
