cand_016_out
     RDKit          3D

 35 37  0  0  0  0  0  0  0  0999 V2000
   52.1210  161.0560   30.7050 C   0  0  0  0  0  0  0  0  0  0  0  0
   51.3050  159.8120   30.4820 C   0  0  0  0  0  0  0  0  0  0  0  0
   51.8730  158.7470   29.7580 C   0  0  0  0  0  0  0  0  0  0  0  0
   51.1680  157.5580   29.5240 C   0  0  0  0  0  0  0  0  0  0  0  0
   51.7700  156.4290   28.7830 C   0  0  0  0  0  0  0  0  0  0  0  0
   52.3510  156.8200   27.5820 O   0  0  0  0  0  0  0  0  0  0  0  0
   52.9470  155.8700   26.7940 C   0  0  0  0  0  0  0  0  0  0  0  0
   53.5030  156.3030   25.5890 C   0  0  0  0  0  0  0  0  0  0  0  0
   54.1270  155.3870   24.7390 C   0  0  0  0  0  0  0  0  0  0  0  0
   54.1940  154.0380   25.0940 C   0  0  0  0  0  0  0  0  0  0  0  0
   53.6380  153.6080   26.2960 C   0  0  0  0  0  0  0  0  0  0  0  0
   53.7410  152.2740   26.5810 O   0  0  0  0  0  0  0  0  0  0  0  0
   53.0140  154.5260   27.1460 C   0  0  0  0  0  0  0  0  0  0  0  0
   52.4170  154.1150   28.4170 C   0  0  0  0  0  0  0  0  0  0  0  0
   52.4430  152.9480   28.8030 O   0  0  0  0  0  0  0  0  0  0  0  0
   51.7720  155.1630   29.2410 C   0  0  0  0  0  0  0  0  0  0  0  0
   51.2230  154.7680   30.4460 O   0  0  0  0  0  0  0  0  0  0  0  0
   49.8770  157.4360   30.0500 C   0  0  0  0  0  0  0  0  0  0  0  0
   49.3020  158.4800   30.7780 C   0  0  0  0  0  0  0  0  0  0  0  0
   50.0050  159.6730   31.0100 C   0  0  0  0  0  0  0  0  0  0  0  0
   49.3390  160.7850   31.7900 C   0  0  0  0  0  0  0  0  0  0  0  0
   48.4060  161.4710   31.0690 F   0  0  0  0  0  0  0  0  0  0  0  0
   48.6860  160.3420   32.9000 F   0  0  0  0  0  0  0  0  0  0  0  0
   52.2356  161.2307   31.7850 H   0  0  0  0  0  0  0  0  0  0  0  0
   53.1130  160.9309   30.2465 H   0  0  0  0  0  0  0  0  0  0  0  0
   51.6110  161.9161   30.2465 H   0  0  0  0  0  0  0  0  0  0  0  0
   52.8956  158.8501   29.3660 H   0  0  0  0  0  0  0  0  0  0  0  0
   53.4497  157.3654   25.3089 H   0  0  0  0  0  0  0  0  0  0  0  0
   54.5657  155.7282   23.7898 H   0  0  0  0  0  0  0  0  0  0  0  0
   54.6853  153.3162   24.4250 H   0  0  0  0  0  0  0  0  0  0  0  0
   52.9700  151.7420   26.6210 H   0  0  0  0  0  0  0  0  0  0  0  0
   50.4830  155.2250   30.7960 H   0  0  0  0  0  0  0  0  0  0  0  0
   49.3090  156.5080   29.8884 H   0  0  0  0  0  0  0  0  0  0  0  0
   48.2828  158.3658   31.1757 H   0  0  0  0  0  0  0  0  0  0  0  0
   50.1840  161.4364   32.0577 H   0  0  0  0  0  0  0  0  0  0  0  0
  1  2  1  0
  2  3  2  0
  3  4  1  0
  4  5  1  0
  5  6  1  0
  6  7  1  0
  7  8  2  0
  8  9  1  0
  9 10  2  0
 10 11  1  0
 11 12  1  0
 11 13  2  0
 13 14  1  0
 14 15  2  0
 14 16  1  0
 16 17  1  0
  4 18  2  0
 18 19  1  0
 19 20  2  0
 20 21  1  0
 21 22  1  0
 21 23  1  0
 20  2  1  0
 16  5  2  0
 13  7  1  0
  1 24  1  0
  1 25  1  0
  1 26  1  0
  3 27  1  0
  8 28  1  0
  9 29  1  0
 10 30  1  0
 12 31  1  0
 17 32  1  0
 18 33  1  0
 19 34  1  0
 21 35  1  0
M  END
>  <meeko>  (1) 
{"is_sidechain": [false], "free_energy": -11.051, "intermolecular_energy": -12.99, "internal_energy": -0.215}

$$$$
cand_016_out
     RDKit          3D

 35 37  0  0  0  0  0  0  0  0999 V2000
   48.2000  158.8320   31.2790 C   0  0  0  0  0  0  0  0  0  0  0  0
   49.6100  158.8490   30.7540 C   0  0  0  0  0  0  0  0  0  0  0  0
   50.0890  157.7260   30.0540 C   0  0  0  0  0  0  0  0  0  0  0  0
   51.3890  157.6830   29.5320 C   0  0  0  0  0  0  0  0  0  0  0  0
   51.8870  156.5130   28.7780 C   0  0  0  0  0  0  0  0  0  0  0  0
   52.4820  156.8600   27.5710 O   0  0  0  0  0  0  0  0  0  0  0  0
   52.9880  155.8680   26.7720 C   0  0  0  0  0  0  0  0  0  0  0  0
   53.5620  156.2590   25.5610 C   0  0  0  0  0  0  0  0  0  0  0  0
   54.0970  155.2980   24.7000 C   0  0  0  0  0  0  0  0  0  0  0  0
   54.0580  153.9480   25.0490 C   0  0  0  0  0  0  0  0  0  0  0  0
   53.4860  153.5590   26.2580 C   0  0  0  0  0  0  0  0  0  0  0  0
   53.4830  152.2200   26.5370 O   0  0  0  0  0  0  0  0  0  0  0  0
   52.9500  154.5210   27.1190 C   0  0  0  0  0  0  0  0  0  0  0  0
   52.3380  154.1550   28.3970 C   0  0  0  0  0  0  0  0  0  0  0  0
   52.2740  152.9880   28.7790 O   0  0  0  0  0  0  0  0  0  0  0  0
   51.7920  155.2490   29.2330 C   0  0  0  0  0  0  0  0  0  0  0  0
   51.2290  154.8950   30.4440 O   0  0  0  0  0  0  0  0  0  0  0  0
   52.2100  158.8030   29.7010 C   0  0  0  0  0  0  0  0  0  0  0  0
   51.7480  159.9300   30.3850 C   0  0  0  0  0  0  0  0  0  0  0  0
   50.4470  159.9730   30.9130 C   0  0  0  0  0  0  0  0  0  0  0  0
   49.9910  161.2060   31.6600 C   0  0  0  0  0  0  0  0  0  0  0  0
   48.8460  161.7520   31.1580 F   0  0  0  0  0  0  0  0  0  0  0  0
   49.7330  160.9690   32.9760 F   0  0  0  0  0  0  0  0  0  0  0  0
   48.2182  158.8322   32.3788 H   0  0  0  0  0  0  0  0  0  0  0  0
   47.6647  159.7238   30.9210 H   0  0  0  0  0  0  0  0  0  0  0  0
   47.6863  157.9276   30.9210 H   0  0  0  0  0  0  0  0  0  0  0  0
   49.4260  156.8597   29.9129 H   0  0  0  0  0  0  0  0  0  0  0  0
   53.5930  157.3234   25.2850 H   0  0  0  0  0  0  0  0  0  0  0  0
   54.5495  155.6061   23.7459 H   0  0  0  0  0  0  0  0  0  0  0  0
   54.4785  153.1914   24.3702 H   0  0  0  0  0  0  0  0  0  0  0  0
   53.7640  151.9160   27.3780 H   0  0  0  0  0  0  0  0  0  0  0  0
   50.6860  154.1330   30.5040 H   0  0  0  0  0  0  0  0  0  0  0  0
   53.2306  158.7961   29.2908 H   0  0  0  0  0  0  0  0  0  0  0  0
   52.4131  160.7969   30.5121 H   0  0  0  0  0  0  0  0  0  0  0  0
   50.8404  161.8943   31.5381 H   0  0  0  0  0  0  0  0  0  0  0  0
  1  2  1  0
  2  3  2  0
  3  4  1  0
  4  5  1  0
  5  6  1  0
  6  7  1  0
  7  8  2  0
  8  9  1  0
  9 10  2  0
 10 11  1  0
 11 12  1  0
 11 13  2  0
 13 14  1  0
 14 15  2  0
 14 16  1  0
 16 17  1  0
  4 18  2  0
 18 19  1  0
 19 20  2  0
 20 21  1  0
 21 22  1  0
 21 23  1  0
 20  2  1  0
 16  5  2  0
 13  7  1  0
  1 24  1  0
  1 25  1  0
  1 26  1  0
  3 27  1  0
  8 28  1  0
  9 29  1  0
 10 30  1  0
 12 31  1  0
 17 32  1  0
 18 33  1  0
 19 34  1  0
 21 35  1  0
M  END
>  <meeko>  (2) 
{"is_sidechain": [false], "free_energy": -10.964, "intermolecular_energy": -13.008, "internal_energy": -0.094}

$$$$
cand_016_out
     RDKit          3D

 35 37  0  0  0  0  0  0  0  0999 V2000
   53.6380  155.3430   25.3150 C   0  0  0  0  0  0  0  0  0  0  0  0
   52.9180  155.1990   26.6290 C   0  0  0  0  0  0  0  0  0  0  0  0
   52.5750  156.3590   27.3470 C   0  0  0  0  0  0  0  0  0  0  0  0
   51.8970  156.2910   28.5730 C   0  0  0  0  0  0  0  0  0  0  0  0
   51.5170  157.5090   29.3200 C   0  0  0  0  0  0  0  0  0  0  0  0
   50.1920  157.4940   29.7400 O   0  0  0  0  0  0  0  0  0  0  0  0
   49.7080  158.5650   30.4450 C   0  0  0  0  0  0  0  0  0  0  0  0
   48.3690  158.5170   30.8330 C   0  0  0  0  0  0  0  0  0  0  0  0
   47.8130  159.5760   31.5560 C   0  0  0  0  0  0  0  0  0  0  0  0
   48.5960  160.6810   31.8900 C   0  0  0  0  0  0  0  0  0  0  0  0
   49.9330  160.7280   31.5020 C   0  0  0  0  0  0  0  0  0  0  0  0
   50.6420  161.8400   31.8630 O   0  0  0  0  0  0  0  0  0  0  0  0
   50.4880  159.6690   30.7780 C   0  0  0  0  0  0  0  0  0  0  0  0
   51.8880  159.6780   30.3510 C   0  0  0  0  0  0  0  0  0  0  0  0
   52.6440  160.6120   30.6130 O   0  0  0  0  0  0  0  0  0  0  0  0
   52.3770  158.5110   29.5820 C   0  0  0  0  0  0  0  0  0  0  0  0
   53.7030  158.5230   29.1940 O   0  0  0  0  0  0  0  0  0  0  0  0
   51.5410  155.0320   29.0670 C   0  0  0  0  0  0  0  0  0  0  0  0
   51.8650  153.8700   28.3610 C   0  0  0  0  0  0  0  0  0  0  0  0
   52.5490  153.9350   27.1360 C   0  0  0  0  0  0  0  0  0  0  0  0
   52.8950  152.6540   26.4120 C   0  0  0  0  0  0  0  0  0  0  0  0
   54.1980  152.2790   26.5650 F   0  0  0  0  0  0  0  0  0  0  0  0
   52.1600  151.5870   26.8320 F   0  0  0  0  0  0  0  0  0  0  0  0
   54.7011  155.5556   25.5008 H   0  0  0  0  0  0  0  0  0  0  0  0
   53.5457  154.4086   24.7420 H   0  0  0  0  0  0  0  0  0  0  0  0
   53.1934  156.1700   24.7420 H   0  0  0  0  0  0  0  0  0  0  0  0
   52.8451  157.3434   26.9370 H   0  0  0  0  0  0  0  0  0  0  0  0
   47.7509  157.6459   30.5700 H   0  0  0  0  0  0  0  0  0  0  0  0
   46.7571  159.5381   31.8619 H   0  0  0  0  0  0  0  0  0  0  0  0
   48.1582  161.5143   32.4591 H   0  0  0  0  0  0  0  0  0  0  0  0
   50.4540  162.2740   32.6720 H   0  0  0  0  0  0  0  0  0  0  0  0
   54.3730  158.2850   29.8060 H   0  0  0  0  0  0  0  0  0  0  0  0
   51.0000  154.9554   30.0217 H   0  0  0  0  0  0  0  0  0  0  0  0
   51.5800  152.8898   28.7710 H   0  0  0  0  0  0  0  0  0  0  0  0
   52.6774  152.9000   25.3622 H   0  0  0  0  0  0  0  0  0  0  0  0
  1  2  1  0
  2  3  2  0
  3  4  1  0
  4  5  1  0
  5  6  1  0
  6  7  1  0
  7  8  2  0
  8  9  1  0
  9 10  2  0
 10 11  1  0
 11 12  1  0
 11 13  2  0
 13 14  1  0
 14 15  2  0
 14 16  1  0
 16 17  1  0
  4 18  2  0
 18 19  1  0
 19 20  2  0
 20 21  1  0
 21 22  1  0
 21 23  1  0
 20  2  1  0
 16  5  2  0
 13  7  1  0
  1 24  1  0
  1 25  1  0
  1 26  1  0
  3 27  1  0
  8 28  1  0
  9 29  1  0
 10 30  1  0
 12 31  1  0
 17 32  1  0
 18 33  1  0
 19 34  1  0
 21 35  1  0
M  END
>  <meeko>  (3) 
{"is_sidechain": [false], "free_energy": -10.343, "intermolecular_energy": -12.108, "internal_energy": -0.264}

$$$$
cand_016_out
     RDKit          3D

 35 37  0  0  0  0  0  0  0  0999 V2000
   53.7790  156.0070   25.4460 C   0  0  0  0  0  0  0  0  0  0  0  0
   53.0130  155.6260   26.6840 C   0  0  0  0  0  0  0  0  0  0  0  0
   52.4420  156.6440   27.4700 C   0  0  0  0  0  0  0  0  0  0  0  0
   51.7090  156.3540   28.6300 C   0  0  0  0  0  0  0  0  0  0  0  0
   51.0900  157.4200   29.4460 C   0  0  0  0  0  0  0  0  0  0  0  0
   51.9550  158.4790   29.6980 O   0  0  0  0  0  0  0  0  0  0  0  0
   51.5070  159.5370   30.4450 C   0  0  0  0  0  0  0  0  0  0  0  0
   52.4130  160.5710   30.6890 C   0  0  0  0  0  0  0  0  0  0  0  0
   52.0200  161.6790   31.4420 C   0  0  0  0  0  0  0  0  0  0  0  0
   50.7220  161.7550   31.9510 C   0  0  0  0  0  0  0  0  0  0  0  0
   49.8200  160.7230   31.7070 C   0  0  0  0  0  0  0  0  0  0  0  0
   48.5660  160.8620   32.2350 O   0  0  0  0  0  0  0  0  0  0  0  0
   50.2140  159.6130   30.9540 C   0  0  0  0  0  0  0  0  0  0  0  0
   49.2970  158.5070   30.6750 C   0  0  0  0  0  0  0  0  0  0  0  0
   48.1370  158.5030   31.0820 O   0  0  0  0  0  0  0  0  0  0  0  0
   49.8150  157.3740   29.8740 C   0  0  0  0  0  0  0  0  0  0  0  0
   48.9370  156.3400   29.6050 O   0  0  0  0  0  0  0  0  0  0  0  0
   51.5330  155.0130   28.9870 C   0  0  0  0  0  0  0  0  0  0  0  0
   52.0860  153.9900   28.2140 C   0  0  0  0  0  0  0  0  0  0  0  0
   52.8240  154.2780   27.0540 C   0  0  0  0  0  0  0  0  0  0  0  0
   53.4180  153.1420   26.2530 C   0  0  0  0  0  0  0  0  0  0  0  0
   54.4900  152.5530   26.8590 F   0  0  0  0  0  0  0  0  0  0  0  0
   52.5350  152.1320   26.0190 F   0  0  0  0  0  0  0  0  0  0  0  0
   54.7296  156.4798   25.7340 H   0  0  0  0  0  0  0  0  0  0  0  0
   53.9837  155.1057   24.8496 H   0  0  0  0  0  0  0  0  0  0  0  0
   53.1837  156.7140   24.8496 H   0  0  0  0  0  0  0  0  0  0  0  0
   52.5738  157.6932   27.1671 H   0  0  0  0  0  0  0  0  0  0  0  0
   53.4357  160.5126   30.2882 H   0  0  0  0  0  0  0  0  0  0  0  0
   52.7340  162.4933   31.6346 H   0  0  0  0  0  0  0  0  0  0  0  0
   50.4127  162.6286   32.5436 H   0  0  0  0  0  0  0  0  0  0  0  0
   48.2570  161.7080   32.4940 H   0  0  0  0  0  0  0  0  0  0  0  0
   49.2620  155.4690   29.4850 H   0  0  0  0  0  0  0  0  0  0  0  0
   50.9524  154.7615   29.8868 H   0  0  0  0  0  0  0  0  0  0  0  0
   51.9415  152.9428   28.5180 H   0  0  0  0  0  0  0  0  0  0  0  0
   53.7171  153.6346   25.3160 H   0  0  0  0  0  0  0  0  0  0  0  0
  1  2  1  0
  2  3  2  0
  3  4  1  0
  4  5  1  0
  5  6  1  0
  6  7  1  0
  7  8  2  0
  8  9  1  0
  9 10  2  0
 10 11  1  0
 11 12  1  0
 11 13  2  0
 13 14  1  0
 14 15  2  0
 14 16  1  0
 16 17  1  0
  4 18  2  0
 18 19  1  0
 19 20  2  0
 20 21  1  0
 21 22  1  0
 21 23  1  0
 20  2  1  0
 16  5  2  0
 13  7  1  0
  1 24  1  0
  1 25  1  0
  1 26  1  0
  3 27  1  0
  8 28  1  0
  9 29  1  0
 10 30  1  0
 12 31  1  0
 17 32  1  0
 18 33  1  0
 19 34  1  0
 21 35  1  0
M  END
>  <meeko>  (4) 
{"is_sidechain": [false], "free_energy": -9.255, "intermolecular_energy": -10.91, "internal_energy": -0.183}

$$$$
cand_016_out
     RDKit          3D

 35 37  0  0  0  0  0  0  0  0999 V2000
   51.8710  152.8160   28.1380 C   0  0  0  0  0  0  0  0  0  0  0  0
   52.1310  154.2760   27.8830 C   0  0  0  0  0  0  0  0  0  0  0  0
   51.5350  155.2310   28.7270 C   0  0  0  0  0  0  0  0  0  0  0  0
   51.7460  156.6050   28.5470 C   0  0  0  0  0  0  0  0  0  0  0  0
   51.1370  157.6090   29.4440 C   0  0  0  0  0  0  0  0  0  0  0  0
   51.9700  158.6950   29.6850 O   0  0  0  0  0  0  0  0  0  0  0  0
   51.5270  159.7030   30.5030 C   0  0  0  0  0  0  0  0  0  0  0  0
   52.4020  160.7660   30.7310 C   0  0  0  0  0  0  0  0  0  0  0  0
   52.0120  161.8250   31.5540 C   0  0  0  0  0  0  0  0  0  0  0  0
   50.7490  161.8210   32.1480 C   0  0  0  0  0  0  0  0  0  0  0  0
   49.8770  160.7600   31.9190 C   0  0  0  0  0  0  0  0  0  0  0  0
   48.6560  160.8200   32.5310 O   0  0  0  0  0  0  0  0  0  0  0  0
   50.2680  159.6990   31.0960 C   0  0  0  0  0  0  0  0  0  0  0  0
   49.3830  158.5640   30.8310 C   0  0  0  0  0  0  0  0  0  0  0  0
   48.2530  158.4920   31.3100 O   0  0  0  0  0  0  0  0  0  0  0  0
   49.8950  157.4880   29.9510 C   0  0  0  0  0  0  0  0  0  0  0  0
   49.0470  156.4270   29.6950 O   0  0  0  0  0  0  0  0  0  0  0  0
   52.5910  157.0180   27.5110 C   0  0  0  0  0  0  0  0  0  0  0  0
   53.1990  156.0830   26.6700 C   0  0  0  0  0  0  0  0  0  0  0  0
   52.9850  154.7060   26.8460 C   0  0  0  0  0  0  0  0  0  0  0  0
   53.6500  153.7280   25.9040 C   0  0  0  0  0  0  0  0  0  0  0  0
   52.8060  153.2280   24.9550 F   0  0  0  0  0  0  0  0  0  0  0  0
   54.6890  154.2720   25.2120 F   0  0  0  0  0  0  0  0  0  0  0  0
   51.8385  152.6333   29.2222 H   0  0  0  0  0  0  0  0  0  0  0  0
   50.9080  152.5312   27.6891 H   0  0  0  0  0  0  0  0  0  0  0  0
   52.6765  152.2162   27.6891 H   0  0  0  0  0  0  0  0  0  0  0  0
   50.8874  154.8909   29.5485 H   0  0  0  0  0  0  0  0  0  0  0  0
   53.3975  160.7699   30.2632 H   0  0  0  0  0  0  0  0  0  0  0  0
   52.7011  162.6632   31.7342 H   0  0  0  0  0  0  0  0  0  0  0  0
   50.4428  162.6552   32.7964 H   0  0  0  0  0  0  0  0  0  0  0  0
   48.0970  160.0680   32.5390 H   0  0  0  0  0  0  0  0  0  0  0  0
   48.3500  156.5230   29.0760 H   0  0  0  0  0  0  0  0  0  0  0  0
   52.7786  158.0909   27.3571 H   0  0  0  0  0  0  0  0  0  0  0  0
   53.8549  156.4301   25.8581 H   0  0  0  0  0  0  0  0  0  0  0  0
   53.9949  152.9335   26.5821 H   0  0  0  0  0  0  0  0  0  0  0  0
  1  2  1  0
  2  3  2  0
  3  4  1  0
  4  5  1  0
  5  6  1  0
  6  7  1  0
  7  8  2  0
  8  9  1  0
  9 10  2  0
 10 11  1  0
 11 12  1  0
 11 13  2  0
 13 14  1  0
 14 15  2  0
 14 16  1  0
 16 17  1  0
  4 18  2  0
 18 19  1  0
 19 20  2  0
 20 21  1  0
 21 22  1  0
 21 23  1  0
 20  2  1  0
 16  5  2  0
 13  7  1  0
  1 24  1  0
  1 25  1  0
  1 26  1  0
  3 27  1  0
  8 28  1  0
  9 29  1  0
 10 30  1  0
 12 31  1  0
 17 32  1  0
 18 33  1  0
 19 34  1  0
 21 35  1  0
M  END
>  <meeko>  (5) 
{"is_sidechain": [false], "free_energy": -8.747, "intermolecular_energy": -10.369, "internal_energy": -0.127}

$$$$
cand_016_out
     RDKit          3D

 35 37  0  0  0  0  0  0  0  0999 V2000
   51.9250  159.3930   30.0250 C   0  0  0  0  0  0  0  0  0  0  0  0
   51.3460  158.0630   29.6260 C   0  0  0  0  0  0  0  0  0  0  0  0
   52.0470  157.2650   28.7040 C   0  0  0  0  0  0  0  0  0  0  0  0
   51.5650  156.0120   28.3000 C   0  0  0  0  0  0  0  0  0  0  0  0
   52.3110  155.1620   27.3470 C   0  0  0  0  0  0  0  0  0  0  0  0
   51.9720  153.8170   27.4420 O   0  0  0  0  0  0  0  0  0  0  0  0
   52.5910  152.9180   26.6130 C   0  0  0  0  0  0  0  0  0  0  0  0
   52.2330  151.5760   26.7530 C   0  0  0  0  0  0  0  0  0  0  0  0
   52.8250  150.6080   25.9390 C   0  0  0  0  0  0  0  0  0  0  0  0
   53.7730  150.9810   24.9850 C   0  0  0  0  0  0  0  0  0  0  0  0
   54.1300  152.3200   24.8470 C   0  0  0  0  0  0  0  0  0  0  0  0
   55.0640  152.6150   23.8930 O   0  0  0  0  0  0  0  0  0  0  0  0
   53.5370  153.2880   25.6630 C   0  0  0  0  0  0  0  0  0  0  0  0
   53.8830  154.7060   25.5500 C   0  0  0  0  0  0  0  0  0  0  0  0
   54.7030  155.1140   24.7300 O   0  0  0  0  0  0  0  0  0  0  0  0
   53.2050  155.6510   26.4670 C   0  0  0  0  0  0  0  0  0  0  0  0
   53.5280  156.9890   26.3440 O   0  0  0  0  0  0  0  0  0  0  0  0
   50.3670  155.5500   28.8540 C   0  0  0  0  0  0  0  0  0  0  0  0
   49.6620  156.3260   29.7770 C   0  0  0  0  0  0  0  0  0  0  0  0
   50.1410  157.5830   30.1810 C   0  0  0  0  0  0  0  0  0  0  0  0
   49.3400  158.3980   31.1710 C   0  0  0  0  0  0  0  0  0  0  0  0
   49.9970  159.5060   31.6200 F   0  0  0  0  0  0  0  0  0  0  0  0
   48.1640  158.8570   30.6600 F   0  0  0  0  0  0  0  0  0  0  0  0
   51.9563  159.4650   31.1222 H   0  0  0  0  0  0  0  0  0  0  0  0
   52.9445  159.4848   29.6223 H   0  0  0  0  0  0  0  0  0  0  0  0
   51.2975  160.2018   29.6223 H   0  0  0  0  0  0  0  0  0  0  0  0
   52.9971  157.6332   28.2896 H   0  0  0  0  0  0  0  0  0  0  0  0
   51.4852  151.2813   27.5039 H   0  0  0  0  0  0  0  0  0  0  0  0
   52.5438  149.5503   26.0498 H   0  0  0  0  0  0  0  0  0  0  0  0
   54.2376  150.2182   24.3429 H   0  0  0  0  0  0  0  0  0  0  0  0
   55.1850  152.0420   23.1610 H   0  0  0  0  0  0  0  0  0  0  0  0
   54.3190  157.2420   25.9090 H   0  0  0  0  0  0  0  0  0  0  0  0
   49.9757  154.5650   28.5598 H   0  0  0  0  0  0  0  0  0  0  0  0
   48.7173  155.9469   30.1938 H   0  0  0  0  0  0  0  0  0  0  0  0
   49.1671  157.6847   31.9903 H   0  0  0  0  0  0  0  0  0  0  0  0
  1  2  1  0
  2  3  2  0
  3  4  1  0
  4  5  1  0
  5  6  1  0
  6  7  1  0
  7  8  2  0
  8  9  1  0
  9 10  2  0
 10 11  1  0
 11 12  1  0
 11 13  2  0
 13 14  1  0
 14 15  2  0
 14 16  1  0
 16 17  1  0
  4 18  2  0
 18 19  1  0
 19 20  2  0
 20 21  1  0
 21 22  1  0
 21 23  1  0
 20  2  1  0
 16  5  2  0
 13  7  1  0
  1 24  1  0
  1 25  1  0
  1 26  1  0
  3 27  1  0
  8 28  1  0
  9 29  1  0
 10 30  1  0
 12 31  1  0
 17 32  1  0
 18 33  1  0
 19 34  1  0
 21 35  1  0
M  END
>  <meeko>  (6) 
{"is_sidechain": [false], "free_energy": -8.388, "intermolecular_energy": -10.775, "internal_energy": 0.701}

$$$$
