cand_039_out
     RDKit          3D

 41 43  0  0  0  0  0  0  0  0999 V2000
   49.9640  161.0100   33.2530 C   0  0  0  0  0  0  0  0  0  0  0  0
   50.0070  161.2560   31.7520 C   0  0  0  0  0  0  0  0  0  0  0  0
   50.4270  160.0210   30.9880 C   0  0  0  0  0  0  0  0  0  0  0  0
   51.7140  159.9980   30.4250 C   0  0  0  0  0  0  0  0  0  0  0  0
   52.1720  158.8870   29.7140 C   0  0  0  0  0  0  0  0  0  0  0  0
   51.3550  157.7660   29.5390 C   0  0  0  0  0  0  0  0  0  0  0  0
   51.8640  156.5900   28.8010 C   0  0  0  0  0  0  0  0  0  0  0  0
   52.4320  156.9250   27.5770 O   0  0  0  0  0  0  0  0  0  0  0  0
   52.9450  155.9280   26.7880 C   0  0  0  0  0  0  0  0  0  0  0  0
   53.5190  156.3110   25.5760 C   0  0  0  0  0  0  0  0  0  0  0  0
   54.0580  155.3430   24.7240 C   0  0  0  0  0  0  0  0  0  0  0  0
   54.0220  153.9950   25.0850 C   0  0  0  0  0  0  0  0  0  0  0  0
   53.4490  153.6150   26.2950 C   0  0  0  0  0  0  0  0  0  0  0  0
   53.4470  152.2790   26.5860 O   0  0  0  0  0  0  0  0  0  0  0  0
   52.9100  154.5840   27.1480 C   0  0  0  0  0  0  0  0  0  0  0  0
   52.2980  154.2280   28.4280 C   0  0  0  0  0  0  0  0  0  0  0  0
   52.2220  153.0620   28.8120 O   0  0  0  0  0  0  0  0  0  0  0  0
   51.7640  155.3290   29.2620 C   0  0  0  0  0  0  0  0  0  0  0  0
   51.1760  154.9800   30.4630 O   0  0  0  0  0  0  0  0  0  0  0  0
   50.0780  157.7800   30.1160 C   0  0  0  0  0  0  0  0  0  0  0  0
   49.6000  158.8900   30.8430 C   0  0  0  0  0  0  0  0  0  0  0  0
   48.1970  158.8170   31.4040 C   0  0  0  0  0  0  0  0  0  0  0  0
   47.2880  159.8770   30.8000 C   0  0  0  0  0  0  0  0  0  0  0  0
   50.1298  161.9585   33.7849 H   0  0  0  0  0  0  0  0  0  0  0  0
   48.9808  160.6015   33.5296 H   0  0  0  0  0  0  0  0  0  0  0  0
   50.7503  160.2922   33.5296 H   0  0  0  0  0  0  0  0  0  0  0  0
   49.0057  161.5600   31.4130 H   0  0  0  0  0  0  0  0  0  0  0  0
   50.7489  162.0446   31.5579 H   0  0  0  0  0  0  0  0  0  0  0  0
   52.3725  160.8707   30.5465 H   0  0  0  0  0  0  0  0  0  0  0  0
   53.1858  158.8938   29.2873 H   0  0  0  0  0  0  0  0  0  0  0  0
   53.5475  157.3731   25.2911 H   0  0  0  0  0  0  0  0  0  0  0  0
   54.5111  155.6437   23.7678 H   0  0  0  0  0  0  0  0  0  0  0  0
   54.4462  153.2338   24.4137 H   0  0  0  0  0  0  0  0  0  0  0  0
   54.1180  151.7240   26.2410 H   0  0  0  0  0  0  0  0  0  0  0  0
   51.2800  155.5310   31.2140 H   0  0  0  0  0  0  0  0  0  0  0  0
   49.4294  156.8994   29.9984 H   0  0  0  0  0  0  0  0  0  0  0  0
   47.7782  157.8234   31.1861 H   0  0  0  0  0  0  0  0  0  0  0  0
   48.2539  158.9946   32.4881 H   0  0  0  0  0  0  0  0  0  0  0  0
   46.8009  160.4450   31.6063 H   0  0  0  0  0  0  0  0  0  0  0  0
   47.8847  160.5609   30.1785 H   0  0  0  0  0  0  0  0  0  0  0  0
   46.5211  159.3915   30.1785 H   0  0  0  0  0  0  0  0  0  0  0  0
  1  2  1  0
  2  3  1  0
  3  4  2  0
  4  5  1  0
  5  6  2  0
  6  7  1  0
  7  8  1  0
  8  9  1  0
  9 10  2  0
 10 11  1  0
 11 12  2  0
 12 13  1  0
 13 14  1  0
 13 15  2  0
 15 16  1  0
 16 17  2  0
 16 18  1  0
 18 19  1  0
  6 20  1  0
 20 21  2  0
 21 22  1  0
 22 23  1  0
 21  3  1  0
 18  7  2  0
 15  9  1  0
  1 24  1  0
  1 25  1  0
  1 26  1  0
  2 27  1  0
  2 28  1  0
  4 29  1  0
  5 30  1  0
 10 31  1  0
 11 32  1  0
 12 33  1  0
 14 34  1  0
 19 35  1  0
 20 36  1  0
 22 37  1  0
 22 38  1  0
 23 39  1  0
 23 40  1  0
 23 41  1  0
M  END
>  <meeko>  (1) 
{"is_sidechain": [false], "free_energy": -10.668, "intermolecular_energy": -13.162, "internal_energy": 0.084}

$$$$
cand_039_out
     RDKit          3D

 41 43  0  0  0  0  0  0  0  0999 V2000
   49.2740  160.6980   33.1590 C   0  0  0  0  0  0  0  0  0  0  0  0
   49.1290  160.8210   31.6490 C   0  0  0  0  0  0  0  0  0  0  0  0
   49.8570  159.7160   30.9200 C   0  0  0  0  0  0  0  0  0  0  0  0
   49.2120  158.4740   30.7920 C   0  0  0  0  0  0  0  0  0  0  0  0
   49.8210  157.4090   30.1230 C   0  0  0  0  0  0  0  0  0  0  0  0
   51.0950  157.5510   29.5670 C   0  0  0  0  0  0  0  0  0  0  0  0
   51.7150  156.4200   28.8440 C   0  0  0  0  0  0  0  0  0  0  0  0
   52.2640  156.7950   27.6230 O   0  0  0  0  0  0  0  0  0  0  0  0
   52.8730  155.8410   26.8480 C   0  0  0  0  0  0  0  0  0  0  0  0
   53.4240  156.2650   25.6390 C   0  0  0  0  0  0  0  0  0  0  0  0
   54.0560  155.3430   24.8010 C   0  0  0  0  0  0  0  0  0  0  0  0
   54.1370  154.0000   25.1720 C   0  0  0  0  0  0  0  0  0  0  0  0
   53.5860  153.5800   26.3800 C   0  0  0  0  0  0  0  0  0  0  0  0
   53.7000  152.2510   26.6820 O   0  0  0  0  0  0  0  0  0  0  0  0
   52.9540  154.5020   27.2190 C   0  0  0  0  0  0  0  0  0  0  0  0
   52.3620  154.1030   28.4960 C   0  0  0  0  0  0  0  0  0  0  0  0
   52.3860  152.9380   28.8890 O   0  0  0  0  0  0  0  0  0  0  0  0
   51.7220  155.1590   29.3150 C   0  0  0  0  0  0  0  0  0  0  0  0
   51.1550  154.7680   30.5130 O   0  0  0  0  0  0  0  0  0  0  0  0
   51.7320  158.7950   29.6780 C   0  0  0  0  0  0  0  0  0  0  0  0
   51.1310  159.8840   30.3440 C   0  0  0  0  0  0  0  0  0  0  0  0
   51.9110  161.1760   30.4320 C   0  0  0  0  0  0  0  0  0  0  0  0
   52.7280  161.2600   31.7130 C   0  0  0  0  0  0  0  0  0  0  0  0
   48.5243  161.3340   33.6524 H   0  0  0  0  0  0  0  0  0  0  0  0
   49.1203  159.6506   33.4580 H   0  0  0  0  0  0  0  0  0  0  0  0
   50.2823  161.0205   33.4580 H   0  0  0  0  0  0  0  0  0  0  0  0
   48.0610  160.7745   31.3896 H   0  0  0  0  0  0  0  0  0  0  0  0
   49.5710  161.7803   31.3417 H   0  0  0  0  0  0  0  0  0  0  0  0
   48.2104  158.3378   31.2259 H   0  0  0  0  0  0  0  0  0  0  0  0
   49.2919  156.4488   30.0331 H   0  0  0  0  0  0  0  0  0  0  0  0
   53.3611  157.3233   25.3458 H   0  0  0  0  0  0  0  0  0  0  0  0
   54.4906  155.6762   23.8470 H   0  0  0  0  0  0  0  0  0  0  0  0
   54.6350  153.2748   24.5116 H   0  0  0  0  0  0  0  0  0  0  0  0
   52.9940  151.8050   27.1070 H   0  0  0  0  0  0  0  0  0  0  0  0
   51.6160  154.1840   31.0820 H   0  0  0  0  0  0  0  0  0  0  0  0
   52.7294  158.9258   29.2329 H   0  0  0  0  0  0  0  0  0  0  0  0
   52.5925  161.2392   29.5709 H   0  0  0  0  0  0  0  0  0  0  0  0
   51.1922  162.0087   30.4311 H   0  0  0  0  0  0  0  0  0  0  0  0
   52.0564  161.1909   32.5814 H   0  0  0  0  0  0  0  0  0  0  0  0
   53.4510  160.4314   31.7418 H   0  0  0  0  0  0  0  0  0  0  0  0
   53.2672  162.2183   31.7418 H   0  0  0  0  0  0  0  0  0  0  0  0
  1  2  1  0
  2  3  1  0
  3  4  2  0
  4  5  1  0
  5  6  2  0
  6  7  1  0
  7  8  1  0
  8  9  1  0
  9 10  2  0
 10 11  1  0
 11 12  2  0
 12 13  1  0
 13 14  1  0
 13 15  2  0
 15 16  1  0
 16 17  2  0
 16 18  1  0
 18 19  1  0
  6 20  1  0
 20 21  2  0
 21 22  1  0
 22 23  1  0
 21  3  1  0
 18  7  2  0
 15  9  1  0
  1 24  1  0
  1 25  1  0
  1 26  1  0
  2 27  1  0
  2 28  1  0
  4 29  1  0
  5 30  1  0
 10 31  1  0
 11 32  1  0
 12 33  1  0
 14 34  1  0
 19 35  1  0
 20 36  1  0
 22 37  1  0
 22 38  1  0
 23 39  1  0
 23 40  1  0
 23 41  1  0
M  END
>  <meeko>  (2) 
{"is_sidechain": [false], "free_energy": -10.651, "intermolecular_energy": -12.696, "internal_energy": -0.362}

$$$$
cand_039_out
     RDKit          3D

 41 43  0  0  0  0  0  0  0  0999 V2000
   52.0100  161.5750   31.4780 C   0  0  0  0  0  0  0  0  0  0  0  0
   50.7360  160.7680   31.2760 C   0  0  0  0  0  0  0  0  0  0  0  0
   50.9970  159.4750   30.5380 C   0  0  0  0  0  0  0  0  0  0  0  0
   52.2480  159.3090   29.9200 C   0  0  0  0  0  0  0  0  0  0  0  0
   52.5620  158.1370   29.2280 C   0  0  0  0  0  0  0  0  0  0  0  0
   51.6330  157.0970   29.1280 C   0  0  0  0  0  0  0  0  0  0  0  0
   51.9910  155.8550   28.4090 C   0  0  0  0  0  0  0  0  0  0  0  0
   52.4540  156.0920   27.1200 O   0  0  0  0  0  0  0  0  0  0  0  0
   52.8210  155.0250   26.3400 C   0  0  0  0  0  0  0  0  0  0  0  0
   53.2950  155.3100   25.0600 C   0  0  0  0  0  0  0  0  0  0  0  0
   53.6840  154.2680   24.2130 C   0  0  0  0  0  0  0  0  0  0  0  0
   53.5990  152.9440   24.6480 C   0  0  0  0  0  0  0  0  0  0  0  0
   53.1250  152.6630   25.9270 C   0  0  0  0  0  0  0  0  0  0  0  0
   53.0670  151.3450   26.2880 O   0  0  0  0  0  0  0  0  0  0  0  0
   52.7370  153.7050   26.7740 C   0  0  0  0  0  0  0  0  0  0  0  0
   52.2340  153.4540   28.1250 C   0  0  0  0  0  0  0  0  0  0  0  0
   52.1230  152.3160   28.5760 O   0  0  0  0  0  0  0  0  0  0  0  0
   51.8560  154.6280   28.9450 C   0  0  0  0  0  0  0  0  0  0  0  0
   51.3700  154.3770   30.2140 O   0  0  0  0  0  0  0  0  0  0  0  0
   50.3910  157.2540   29.7590 C   0  0  0  0  0  0  0  0  0  0  0  0
   50.0580  158.4270   30.4680 C   0  0  0  0  0  0  0  0  0  0  0  0
   48.6830  158.5090   31.0920 C   0  0  0  0  0  0  0  0  0  0  0  0
   47.7700  159.4590   30.3310 C   0  0  0  0  0  0  0  0  0  0  0  0
   52.2007  161.6958   32.5546 H   0  0  0  0  0  0  0  0  0  0  0  0
   52.8558  161.0476   31.0127 H   0  0  0  0  0  0  0  0  0  0  0  0
   51.8946  162.5650   31.0127 H   0  0  0  0  0  0  0  0  0  0  0  0
   50.3036  160.5344   32.2601 H   0  0  0  0  0  0  0  0  0  0  0  0
   50.0435  161.3714   30.6707 H   0  0  0  0  0  0  0  0  0  0  0  0
   52.9929  160.1160   29.9822 H   0  0  0  0  0  0  0  0  0  0  0  0
   53.5504  158.0312   28.7569 H   0  0  0  0  0  0  0  0  0  0  0  0
   53.3627  156.3530   24.7172 H   0  0  0  0  0  0  0  0  0  0  0  0
   54.0574  154.4915   23.2028 H   0  0  0  0  0  0  0  0  0  0  0  0
   53.9059  152.1243   23.9817 H   0  0  0  0  0  0  0  0  0  0  0  0
   52.5280  150.7500   25.8060 H   0  0  0  0  0  0  0  0  0  0  0  0
   51.0030  153.5400   30.4190 H   0  0  0  0  0  0  0  0  0  0  0  0
   49.6549  156.4388   29.6995 H   0  0  0  0  0  0  0  0  0  0  0  0
   48.2320  157.5057   31.0916 H   0  0  0  0  0  0  0  0  0  0  0  0
   48.7961  158.8927   32.1167 H   0  0  0  0  0  0  0  0  0  0  0  0
   47.1906  160.0619   31.0457 H   0  0  0  0  0  0  0  0  0  0  0  0
   48.3773  160.1233   29.6986 H   0  0  0  0  0  0  0  0  0  0  0  0
   47.0821  158.8786   29.6986 H   0  0  0  0  0  0  0  0  0  0  0  0
  1  2  1  0
  2  3  1  0
  3  4  2  0
  4  5  1  0
  5  6  2  0
  6  7  1  0
  7  8  1  0
  8  9  1  0
  9 10  2  0
 10 11  1  0
 11 12  2  0
 12 13  1  0
 13 14  1  0
 13 15  2  0
 15 16  1  0
 16 17  2  0
 16 18  1  0
 18 19  1  0
  6 20  1  0
 20 21  2  0
 21 22  1  0
 22 23  1  0
 21  3  1  0
 18  7  2  0
 15  9  1  0
  1 24  1  0
  1 25  1  0
  1 26  1  0
  2 27  1  0
  2 28  1  0
  4 29  1  0
  5 30  1  0
 10 31  1  0
 11 32  1  0
 12 33  1  0
 14 34  1  0
 19 35  1  0
 20 36  1  0
 22 37  1  0
 22 38  1  0
 23 39  1  0
 23 40  1  0
 23 41  1  0
M  END
>  <meeko>  (3) 
{"is_sidechain": [false], "free_energy": -10.408, "intermolecular_energy": -12.537, "internal_energy": -0.221}

$$$$
cand_039_out
     RDKit          3D

 41 43  0  0  0  0  0  0  0  0999 V2000
   51.9870  151.5280   26.7300 C   0  0  0  0  0  0  0  0  0  0  0  0
   53.1160  152.5480   26.7120 C   0  0  0  0  0  0  0  0  0  0  0  0
   52.7040  153.8570   27.3460 C   0  0  0  0  0  0  0  0  0  0  0  0
   52.1540  153.8190   28.6390 C   0  0  0  0  0  0  0  0  0  0  0  0
   51.7600  154.9900   29.2900 C   0  0  0  0  0  0  0  0  0  0  0  0
   51.8980  156.2340   28.6680 C   0  0  0  0  0  0  0  0  0  0  0  0
   51.4940  157.4650   29.3810 C   0  0  0  0  0  0  0  0  0  0  0  0
   50.1560  157.4560   29.7580 O   0  0  0  0  0  0  0  0  0  0  0  0
   49.6480  158.5390   30.4290 C   0  0  0  0  0  0  0  0  0  0  0  0
   48.3050  158.4810   30.8020 C   0  0  0  0  0  0  0  0  0  0  0  0
   47.7250  159.5520   31.4860 C   0  0  0  0  0  0  0  0  0  0  0  0
   48.4880  160.6800   31.7960 C   0  0  0  0  0  0  0  0  0  0  0  0
   49.8280  160.7350   31.4230 C   0  0  0  0  0  0  0  0  0  0  0  0
   50.5160  161.8680   31.7580 O   0  0  0  0  0  0  0  0  0  0  0  0
   50.4090  159.6630   30.7390 C   0  0  0  0  0  0  0  0  0  0  0  0
   51.8130  159.6800   30.3290 C   0  0  0  0  0  0  0  0  0  0  0  0
   52.5460  160.6400   30.5590 O   0  0  0  0  0  0  0  0  0  0  0  0
   52.3330  158.4910   29.6160 C   0  0  0  0  0  0  0  0  0  0  0  0
   53.6580  158.5240   29.2210 O   0  0  0  0  0  0  0  0  0  0  0  0
   52.4630  156.2750   27.3860 C   0  0  0  0  0  0  0  0  0  0  0  0
   52.8730  155.1050   26.7150 C   0  0  0  0  0  0  0  0  0  0  0  0
   53.4480  155.2520   25.3240 C   0  0  0  0  0  0  0  0  0  0  0  0
   54.1300  156.6000   25.1310 C   0  0  0  0  0  0  0  0  0  0  0  0
   51.7241  151.2904   27.7714 H   0  0  0  0  0  0  0  0  0  0  0  0
   51.1083  151.9445   26.2158 H   0  0  0  0  0  0  0  0  0  0  0  0
   52.3125  150.6117   26.2158 H   0  0  0  0  0  0  0  0  0  0  0  0
   53.9736  152.1389   27.2663 H   0  0  0  0  0  0  0  0  0  0  0  0
   53.3796  152.7459   25.6625 H   0  0  0  0  0  0  0  0  0  0  0  0
   52.0319  152.8508   29.1465 H   0  0  0  0  0  0  0  0  0  0  0  0
   51.3364  154.9327   30.3035 H   0  0  0  0  0  0  0  0  0  0  0  0
   47.7035  157.5930   30.5578 H   0  0  0  0  0  0  0  0  0  0  0  0
   46.6662  159.5069   31.7808 H   0  0  0  0  0  0  0  0  0  0  0  0
   48.0308  161.5235   32.3340 H   0  0  0  0  0  0  0  0  0  0  0  0
   50.7870  162.0070   32.6450 H   0  0  0  0  0  0  0  0  0  0  0  0
   54.2810  157.9530   29.6250 H   0  0  0  0  0  0  0  0  0  0  0  0
   52.5902  157.2481   26.8892 H   0  0  0  0  0  0  0  0  0  0  0  0
   54.1858  154.4532   25.1579 H   0  0  0  0  0  0  0  0  0  0  0  0
   52.6196  155.1828   24.6036 H   0  0  0  0  0  0  0  0  0  0  0  0
   54.3535  157.0418   26.1133 H   0  0  0  0  0  0  0  0  0  0  0  0
   55.0659  156.4605   24.5702 H   0  0  0  0  0  0  0  0  0  0  0  0
   53.4631  157.2714   24.5702 H   0  0  0  0  0  0  0  0  0  0  0  0
  1  2  1  0
  2  3  1  0
  3  4  2  0
  4  5  1  0
  5  6  2  0
  6  7  1  0
  7  8  1  0
  8  9  1  0
  9 10  2  0
 10 11  1  0
 11 12  2  0
 12 13  1  0
 13 14  1  0
 13 15  2  0
 15 16  1  0
 16 17  2  0
 16 18  1  0
 18 19  1  0
  6 20  1  0
 20 21  2  0
 21 22  1  0
 22 23  1  0
 21  3  1  0
 18  7  2  0
 15  9  1  0
  1 24  1  0
  1 25  1  0
  1 26  1  0
  2 27  1  0
  2 28  1  0
  4 29  1  0
  5 30  1  0
 10 31  1  0
 11 32  1  0
 12 33  1  0
 14 34  1  0
 19 35  1  0
 20 36  1  0
 22 37  1  0
 22 38  1  0
 23 39  1  0
 23 40  1  0
 23 41  1  0
M  END
>  <meeko>  (4) 
{"is_sidechain": [false], "free_energy": -10.163, "intermolecular_energy": -12.027, "internal_energy": -0.43}

$$$$
cand_039_out
     RDKit          3D

 41 43  0  0  0  0  0  0  0  0999 V2000
   52.6180  151.6130   26.1090 C   0  0  0  0  0  0  0  0  0  0  0  0
   53.6480  152.6240   26.5920 C   0  0  0  0  0  0  0  0  0  0  0  0
   52.9990  153.8210   27.2490 C   0  0  0  0  0  0  0  0  0  0  0  0
   52.4870  153.6640   28.5480 C   0  0  0  0  0  0  0  0  0  0  0  0
   51.8820  154.7290   29.2190 C   0  0  0  0  0  0  0  0  0  0  0  0
   51.7660  155.9820   28.6110 C   0  0  0  0  0  0  0  0  0  0  0  0
   51.1410  157.1030   29.3460 C   0  0  0  0  0  0  0  0  0  0  0  0
   52.0310  158.1370   29.6100 O   0  0  0  0  0  0  0  0  0  0  0  0
   51.5820  159.2430   30.2870 C   0  0  0  0  0  0  0  0  0  0  0  0
   52.5050  160.2630   30.5170 C   0  0  0  0  0  0  0  0  0  0  0  0
   52.1130  161.4160   31.2030 C   0  0  0  0  0  0  0  0  0  0  0  0
   50.7990  161.5460   31.6580 C   0  0  0  0  0  0  0  0  0  0  0  0
   49.8810  160.5260   31.4270 C   0  0  0  0  0  0  0  0  0  0  0  0
   48.6120  160.7190   31.9000 O   0  0  0  0  0  0  0  0  0  0  0  0
   50.2730  159.3740   30.7400 C   0  0  0  0  0  0  0  0  0  0  0  0
   49.3390  158.2780   30.4770 C   0  0  0  0  0  0  0  0  0  0  0  0
   48.1690  158.3170   30.8520 O   0  0  0  0  0  0  0  0  0  0  0  0
   49.8520  157.1040   29.7330 C   0  0  0  0  0  0  0  0  0  0  0  0
   48.9650  156.0700   29.5020 O   0  0  0  0  0  0  0  0  0  0  0  0
   52.2920  156.1450   27.3220 C   0  0  0  0  0  0  0  0  0  0  0  0
   52.9120  155.0840   26.6310 C   0  0  0  0  0  0  0  0  0  0  0  0
   53.4260  155.3550   25.2340 C   0  0  0  0  0  0  0  0  0  0  0  0
   54.2030  156.6620   25.1590 C   0  0  0  0  0  0  0  0  0  0  0  0
   52.1350  151.1389   26.9761 H   0  0  0  0  0  0  0  0  0  0  0  0
   51.8582  152.1257   25.5009 H   0  0  0  0  0  0  0  0  0  0  0  0
   53.1164  150.8437   25.5009 H   0  0  0  0  0  0  0  0  0  0  0  0
   54.3117  152.1350   27.3203 H   0  0  0  0  0  0  0  0  0  0  0  0
   54.2122  152.9798   25.7173 H   0  0  0  0  0  0  0  0  0  0  0  0
   52.5640  152.6857   29.0449 H   0  0  0  0  0  0  0  0  0  0  0  0
   51.4926  154.5800   30.2369 H   0  0  0  0  0  0  0  0  0  0  0  0
   53.5400  160.1602   30.1590 H   0  0  0  0  0  0  0  0  0  0  0  0
   52.8398  162.2214   31.3846 H   0  0  0  0  0  0  0  0  0  0  0  0
   50.4902  162.4532   32.1981 H   0  0  0  0  0  0  0  0  0  0  0  0
   48.0080  160.0030   31.9270 H   0  0  0  0  0  0  0  0  0  0  0  0
   48.7040  155.8630   28.6260 H   0  0  0  0  0  0  0  0  0  0  0  0
   52.2189  157.1289   26.8357 H   0  0  0  0  0  0  0  0  0  0  0  0
   54.0879  154.5299   24.9322 H   0  0  0  0  0  0  0  0  0  0  0  0
   52.5594  155.4343   24.5611 H   0  0  0  0  0  0  0  0  0  0  0  0
   54.4162  157.0207   26.1768 H   0  0  0  0  0  0  0  0  0  0  0  0
   55.1491  156.4959   24.6230 H   0  0  0  0  0  0  0  0  0  0  0  0
   53.6051  157.4138   24.6230 H   0  0  0  0  0  0  0  0  0  0  0  0
  1  2  1  0
  2  3  1  0
  3  4  2  0
  4  5  1  0
  5  6  2  0
  6  7  1  0
  7  8  1  0
  8  9  1  0
  9 10  2  0
 10 11  1  0
 11 12  2  0
 12 13  1  0
 13 14  1  0
 13 15  2  0
 15 16  1  0
 16 17  2  0
 16 18  1  0
 18 19  1  0
  6 20  1  0
 20 21  2  0
 21 22  1  0
 22 23  1  0
 21  3  1  0
 18  7  2  0
 15  9  1  0
  1 24  1  0
  1 25  1  0
  1 26  1  0
  2 27  1  0
  2 28  1  0
  4 29  1  0
  5 30  1  0
 10 31  1  0
 11 32  1  0
 12 33  1  0
 14 34  1  0
 19 35  1  0
 20 36  1  0
 22 37  1  0
 22 38  1  0
 23 39  1  0
 23 40  1  0
 23 41  1  0
M  END
>  <meeko>  (5) 
{"is_sidechain": [false], "free_energy": -9.1, "intermolecular_energy": -10.63, "internal_energy": -0.515}

$$$$
cand_039_out
     RDKit          3D

 41 43  0  0  0  0  0  0  0  0999 V2000
   53.2710  154.4460   24.7690 C   0  0  0  0  0  0  0  0  0  0  0  0
   53.4040  154.0160   26.2230 C   0  0  0  0  0  0  0  0  0  0  0  0
   52.8730  155.0640   27.1730 C   0  0  0  0  0  0  0  0  0  0  0  0
   53.0370  156.4160   26.8240 C   0  0  0  0  0  0  0  0  0  0  0  0
   52.5640  157.4380   27.6500 C   0  0  0  0  0  0  0  0  0  0  0  0
   51.9170  157.1420   28.8520 C   0  0  0  0  0  0  0  0  0  0  0  0
   51.4040  158.2370   29.7040 C   0  0  0  0  0  0  0  0  0  0  0  0
   50.0610  158.0860   30.0250 O   0  0  0  0  0  0  0  0  0  0  0  0
   49.4560  159.0340   30.8120 C   0  0  0  0  0  0  0  0  0  0  0  0
   48.1110  158.8340   31.1230 C   0  0  0  0  0  0  0  0  0  0  0  0
   47.4350  159.7630   31.9180 C   0  0  0  0  0  0  0  0  0  0  0  0
   48.1040  160.8900   32.4010 C   0  0  0  0  0  0  0  0  0  0  0  0
   49.4460  161.0860   32.0890 C   0  0  0  0  0  0  0  0  0  0  0  0
   50.0400  162.2090   32.5940 O   0  0  0  0  0  0  0  0  0  0  0  0
   50.1230  160.1560   31.2940 C   0  0  0  0  0  0  0  0  0  0  0  0
   51.5330  160.3240   30.9420 C   0  0  0  0  0  0  0  0  0  0  0  0
   52.1880  161.2930   31.3230 O   0  0  0  0  0  0  0  0  0  0  0  0
   52.1590  159.2780   30.1010 C   0  0  0  0  0  0  0  0  0  0  0  0
   53.4880  159.4540   29.7640 O   0  0  0  0  0  0  0  0  0  0  0  0
   51.7370  155.7940   29.1940 C   0  0  0  0  0  0  0  0  0  0  0  0
   52.2010  154.7480   28.3700 C   0  0  0  0  0  0  0  0  0  0  0  0
   51.9790  153.3270   28.8400 C   0  0  0  0  0  0  0  0  0  0  0  0
   51.5770  152.4080   27.6950 C   0  0  0  0  0  0  0  0  0  0  0  0
   52.9462  155.4961   24.7254 H   0  0  0  0  0  0  0  0  0  0  0  0
   54.2434  154.3417   24.2654 H   0  0  0  0  0  0  0  0  0  0  0  0
   52.5273  153.8110   24.2654 H   0  0  0  0  0  0  0  0  0  0  0  0
   52.8394  153.0836   26.3709 H   0  0  0  0  0  0  0  0  0  0  0  0
   54.4730  153.8717   26.4387 H   0  0  0  0  0  0  0  0  0  0  0  0
   53.5468  156.6734   25.8839 H   0  0  0  0  0  0  0  0  0  0  0  0
   52.7025  158.4874   27.3507 H   0  0  0  0  0  0  0  0  0  0  0  0
   47.5836  157.9466   30.7431 H   0  0  0  0  0  0  0  0  0  0  0  0
   46.3743  159.6066   32.1639 H   0  0  0  0  0  0  0  0  0  0  0  0
   47.5712  161.6211   33.0267 H   0  0  0  0  0  0  0  0  0  0  0  0
   49.7620  163.0560   32.3070 H   0  0  0  0  0  0  0  0  0  0  0  0
   53.7220  159.6990   28.8900 H   0  0  0  0  0  0  0  0  0  0  0  0
   51.2190  155.5454   30.1320 H   0  0  0  0  0  0  0  0  0  0  0  0
   52.9105  152.9507   29.2880 H   0  0  0  0  0  0  0  0  0  0  0  0
   51.1608  153.3344   29.5752 H   0  0  0  0  0  0  0  0  0  0  0  0
   51.1675  151.4719   28.1026 H   0  0  0  0  0  0  0  0  0  0  0  0
   50.8136  152.9039   27.0775 H   0  0  0  0  0  0  0  0  0  0  0  0
   52.4593  152.1840   27.0775 H   0  0  0  0  0  0  0  0  0  0  0  0
  1  2  1  0
  2  3  1  0
  3  4  2  0
  4  5  1  0
  5  6  2  0
  6  7  1  0
  7  8  1  0
  8  9  1  0
  9 10  2  0
 10 11  1  0
 11 12  2  0
 12 13  1  0
 13 14  1  0
 13 15  2  0
 15 16  1  0
 16 17  2  0
 16 18  1  0
 18 19  1  0
  6 20  1  0
 20 21  2  0
 21 22  1  0
 22 23  1  0
 21  3  1  0
 18  7  2  0
 15  9  1  0
  1 24  1  0
  1 25  1  0
  1 26  1  0
  2 27  1  0
  2 28  1  0
  4 29  1  0
  5 30  1  0
 10 31  1  0
 11 32  1  0
 12 33  1  0
 14 34  1  0
 19 35  1  0
 20 36  1  0
 22 37  1  0
 22 38  1  0
 23 39  1  0
 23 40  1  0
 23 41  1  0
M  END
>  <meeko>  (6) 
{"is_sidechain": [false], "free_energy": -8.877, "intermolecular_energy": -11.238, "internal_energy": 0.369}

$$$$
cand_039_out
     RDKit          3D

 41 43  0  0  0  0  0  0  0  0999 V2000
   48.0140  158.9370   30.5620 C   0  0  0  0  0  0  0  0  0  0  0  0
   49.2550  158.3440   31.2140 C   0  0  0  0  0  0  0  0  0  0  0  0
   50.0900  157.5600   30.2290 C   0  0  0  0  0  0  0  0  0  0  0  0
   49.6020  156.3160   29.7920 C   0  0  0  0  0  0  0  0  0  0  0  0
   50.3180  155.5410   28.8770 C   0  0  0  0  0  0  0  0  0  0  0  0
   51.5450  155.9810   28.3730 C   0  0  0  0  0  0  0  0  0  0  0  0
   52.2770  155.1570   27.3890 C   0  0  0  0  0  0  0  0  0  0  0  0
   51.9750  153.8030   27.4870 O   0  0  0  0  0  0  0  0  0  0  0  0
   52.5860  152.9230   26.6310 C   0  0  0  0  0  0  0  0  0  0  0  0
   52.2410  151.5770   26.7540 C   0  0  0  0  0  0  0  0  0  0  0  0
   52.8290  150.6280   25.9140 C   0  0  0  0  0  0  0  0  0  0  0  0
   53.7600  151.0250   24.9520 C   0  0  0  0  0  0  0  0  0  0  0  0
   54.1030  152.3690   24.8320 C   0  0  0  0  0  0  0  0  0  0  0  0
   55.0210  152.6890   23.8710 O   0  0  0  0  0  0  0  0  0  0  0  0
   53.5140  153.3190   25.6720 C   0  0  0  0  0  0  0  0  0  0  0  0
   53.8460  154.7410   25.5790 C   0  0  0  0  0  0  0  0  0  0  0  0
   54.6610  155.1670   24.7640 O   0  0  0  0  0  0  0  0  0  0  0  0
   53.1600  155.6670   26.5100 C   0  0  0  0  0  0  0  0  0  0  0  0
   53.4910  157.0060   26.4220 O   0  0  0  0  0  0  0  0  0  0  0  0
   52.0240  157.2300   28.7940 C   0  0  0  0  0  0  0  0  0  0  0  0
   51.3140  158.0300   29.7130 C   0  0  0  0  0  0  0  0  0  0  0  0
   51.9280  159.3500   30.1230 C   0  0  0  0  0  0  0  0  0  0  0  0
   50.9970  160.5210   29.8440 C   0  0  0  0  0  0  0  0  0  0  0  0
   47.3142  159.2714   31.3421 H   0  0  0  0  0  0  0  0  0  0  0  0
   48.3027  159.7945   29.9364 H   0  0  0  0  0  0  0  0  0  0  0  0
   47.5282  158.1737   29.9364 H   0  0  0  0  0  0  0  0  0  0  0  0
   49.8652  159.1614   31.6258 H   0  0  0  0  0  0  0  0  0  0  0  0
   48.9271  157.6552   32.0065 H   0  0  0  0  0  0  0  0  0  0  0  0
   48.6401  155.9469   30.1773 H   0  0  0  0  0  0  0  0  0  0  0  0
   49.9114  154.5729   28.5492 H   0  0  0  0  0  0  0  0  0  0  0  0
   51.5072  151.2633   27.5111 H   0  0  0  0  0  0  0  0  0  0  0  0
   52.5581  149.5663   26.0106 H   0  0  0  0  0  0  0  0  0  0  0  0
   54.2215  150.2773   24.2902 H   0  0  0  0  0  0  0  0  0  0  0  0
   55.1270  152.1360   23.1220 H   0  0  0  0  0  0  0  0  0  0  0  0
   54.3890  157.2700   26.4630 H   0  0  0  0  0  0  0  0  0  0  0  0
   52.9816  157.5964   28.3957 H   0  0  0  0  0  0  0  0  0  0  0  0
   52.1485  159.3201   31.2002 H   0  0  0  0  0  0  0  0  0  0  0  0
   52.8453  159.4964   29.5338 H   0  0  0  0  0  0  0  0  0  0  0  0
   50.6544  160.9520   30.7963 H   0  0  0  0  0  0  0  0  0  0  0  0
   51.5349  161.2877   29.2670 H   0  0  0  0  0  0  0  0  0  0  0  0
   50.1288  160.1698   29.2670 H   0  0  0  0  0  0  0  0  0  0  0  0
  1  2  1  0
  2  3  1  0
  3  4  2  0
  4  5  1  0
  5  6  2  0
  6  7  1  0
  7  8  1  0
  8  9  1  0
  9 10  2  0
 10 11  1  0
 11 12  2  0
 12 13  1  0
 13 14  1  0
 13 15  2  0
 15 16  1  0
 16 17  2  0
 16 18  1  0
 18 19  1  0
  6 20  1  0
 20 21  2  0
 21 22  1  0
 22 23  1  0
 21  3  1  0
 18  7  2  0
 15  9  1  0
  1 24  1  0
  1 25  1  0
  1 26  1  0
  2 27  1  0
  2 28  1  0
  4 29  1  0
  5 30  1  0
 10 31  1  0
 11 32  1  0
 12 33  1  0
 14 34  1  0
 19 35  1  0
 20 36  1  0
 22 37  1  0
 22 38  1  0
 23 39  1  0
 23 40  1  0
 23 41  1  0
M  END
>  <meeko>  (7) 
{"is_sidechain": [false], "free_energy": -8.735, "intermolecular_energy": -11.078, "internal_energy": 0.384}

$$$$
cand_039_out
     RDKit          3D

 41 43  0  0  0  0  0  0  0  0999 V2000
   53.4560  154.2780   24.5030 C   0  0  0  0  0  0  0  0  0  0  0  0
   53.7850  153.9490   25.9520 C   0  0  0  0  0  0  0  0  0  0  0  0
   53.0860  154.8800   26.9150 C   0  0  0  0  0  0  0  0  0  0  0  0
   53.1370  156.2600   26.6550 C   0  0  0  0  0  0  0  0  0  0  0  0
   52.5070  157.1780   27.4970 C   0  0  0  0  0  0  0  0  0  0  0  0
   51.8090  156.7460   28.6290 C   0  0  0  0  0  0  0  0  0  0  0  0
   51.1300  157.7320   29.4980 C   0  0  0  0  0  0  0  0  0  0  0  0
   51.9350  158.8210   29.8100 O   0  0  0  0  0  0  0  0  0  0  0  0
   51.4280  159.8130   30.6100 C   0  0  0  0  0  0  0  0  0  0  0  0
   52.2650  160.8950   30.8840 C   0  0  0  0  0  0  0  0  0  0  0  0
   51.8110  161.9390   31.6950 C   0  0  0  0  0  0  0  0  0  0  0  0
   50.5220  161.8980   32.2320 C   0  0  0  0  0  0  0  0  0  0  0  0
   49.6900  160.8170   31.9570 C   0  0  0  0  0  0  0  0  0  0  0  0
   48.4410  160.8410   32.5140 O   0  0  0  0  0  0  0  0  0  0  0  0
   50.1440  159.7730   31.1440 C   0  0  0  0  0  0  0  0  0  0  0  0
   49.3020  158.6190   30.8310 C   0  0  0  0  0  0  0  0  0  0  0  0
   48.1590  158.5080   31.2710 O   0  0  0  0  0  0  0  0  0  0  0  0
   49.8740  157.5710   29.9540 C   0  0  0  0  0  0  0  0  0  0  0  0
   49.0750  156.4780   29.6760 O   0  0  0  0  0  0  0  0  0  0  0  0
   51.7420  155.3690   28.8810 C   0  0  0  0  0  0  0  0  0  0  0  0
   52.3660  154.4260   28.0390 C   0  0  0  0  0  0  0  0  0  0  0  0
   52.2560  152.9640   28.4100 C   0  0  0  0  0  0  0  0  0  0  0  0
   51.8150  152.1100   27.2300 C   0  0  0  0  0  0  0  0  0  0  0  0
   52.6785  155.0555   24.4710 H   0  0  0  0  0  0  0  0  0  0  0  0
   54.3609  154.6432   23.9954 H   0  0  0  0  0  0  0  0  0  0  0  0
   53.0908  153.3731   23.9954 H   0  0  0  0  0  0  0  0  0  0  0  0
   53.4687  152.9168   26.1627 H   0  0  0  0  0  0  0  0  0  0  0  0
   54.8698  154.0680   26.0903 H   0  0  0  0  0  0  0  0  0  0  0  0
   53.6832  156.6234   25.7721 H   0  0  0  0  0  0  0  0  0  0  0  0
   52.5602  158.2525   27.2676 H   0  0  0  0  0  0  0  0  0  0  0  0
   53.2806  160.9265   30.4625 H   0  0  0  0  0  0  0  0  0  0  0  0
   52.4692  162.7936   31.9106 H   0  0  0  0  0  0  0  0  0  0  0  0
   50.1652  162.7190   32.8713 H   0  0  0  0  0  0  0  0  0  0  0  0
   48.2690  160.3600   33.2990 H   0  0  0  0  0  0  0  0  0  0  0  0
   48.7990  156.3110   28.7960 H   0  0  0  0  0  0  0  0  0  0  0  0
   51.1864  155.0136   29.7614 H   0  0  0  0  0  0  0  0  0  0  0  0
   53.2380  152.6105   28.7573 H   0  0  0  0  0  0  0  0  0  0  0  0
   51.4976  152.8695   29.2011 H   0  0  0  0  0  0  0  0  0  0  0  0
   51.3398  151.1898   27.6007 H   0  0  0  0  0  0  0  0  0  0  0  0
   51.0952  152.6736   26.6182 H   0  0  0  0  0  0  0  0  0  0  0  0
   52.6912  151.8494   26.6182 H   0  0  0  0  0  0  0  0  0  0  0  0
  1  2  1  0
  2  3  1  0
  3  4  2  0
  4  5  1  0
  5  6  2  0
  6  7  1  0
  7  8  1  0
  8  9  1  0
  9 10  2  0
 10 11  1  0
 11 12  2  0
 12 13  1  0
 13 14  1  0
 13 15  2  0
 15 16  1  0
 16 17  2  0
 16 18  1  0
 18 19  1  0
  6 20  1  0
 20 21  2  0
 21 22  1  0
 22 23  1  0
 21  3  1  0
 18  7  2  0
 15  9  1  0
  1 24  1  0
  1 25  1  0
  1 26  1  0
  2 27  1  0
  2 28  1  0
  4 29  1  0
  5 30  1  0
 10 31  1  0
 11 32  1  0
 12 33  1  0
 14 34  1  0
 19 35  1  0
 20 36  1  0
 22 37  1  0
 22 38  1  0
 23 39  1  0
 23 40  1  0
 23 41  1  0
M  END
>  <meeko>  (8) 
{"is_sidechain": [false], "free_energy": -8.175, "intermolecular_energy": -10.218, "internal_energy": 0.215}

$$$$
cand_039_out
     RDKit          3D

 41 43  0  0  0  0  0  0  0  0999 V2000
   51.9690  161.1870   31.0020 C   0  0  0  0  0  0  0  0  0  0  0  0
   50.9370  160.0810   31.1720 C   0  0  0  0  0  0  0  0  0  0  0  0
   51.2260  158.8970   30.2800 C   0  0  0  0  0  0  0  0  0  0  0  0
   52.4800  158.8360   29.6470 C   0  0  0  0  0  0  0  0  0  0  0  0
   52.8180  157.7670   28.8150 C   0  0  0  0  0  0  0  0  0  0  0  0
   51.9130  156.7270   28.5850 C   0  0  0  0  0  0  0  0  0  0  0  0
   52.2970  155.5930   27.7180 C   0  0  0  0  0  0  0  0  0  0  0  0
   51.8180  154.3730   28.1810 O   0  0  0  0  0  0  0  0  0  0  0  0
   52.1020  153.2350   27.4700 C   0  0  0  0  0  0  0  0  0  0  0  0
   51.5880  152.0360   27.9620 C   0  0  0  0  0  0  0  0  0  0  0  0
   51.8420  150.8390   27.2870 C   0  0  0  0  0  0  0  0  0  0  0  0
   52.6090  150.8440   26.1200 C   0  0  0  0  0  0  0  0  0  0  0  0
   53.1210  152.0420   25.6310 C   0  0  0  0  0  0  0  0  0  0  0  0
   53.8630  151.9750   24.4840 O   0  0  0  0  0  0  0  0  0  0  0  0
   52.8660  153.2400   26.3060 C   0  0  0  0  0  0  0  0  0  0  0  0
   53.3840  154.5210   25.8270 C   0  0  0  0  0  0  0  0  0  0  0  0
   54.0730  154.6050   24.8120 O   0  0  0  0  0  0  0  0  0  0  0  0
   53.0500  155.7320   26.6110 C   0  0  0  0  0  0  0  0  0  0  0  0
   53.5570  156.9350   26.1560 O   0  0  0  0  0  0  0  0  0  0  0  0
   50.6690  156.7770   29.2290 C   0  0  0  0  0  0  0  0  0  0  0  0
   50.3110  157.8440   30.0780 C   0  0  0  0  0  0  0  0  0  0  0  0
   48.9350  157.8170   30.7060 C   0  0  0  0  0  0  0  0  0  0  0  0
   48.0220  158.8830   30.1190 C   0  0  0  0  0  0  0  0  0  0  0  0
   52.2966  161.5381   31.9917 H   0  0  0  0  0  0  0  0  0  0  0  0
   52.8348  160.7983   30.4457 H   0  0  0  0  0  0  0  0  0  0  0  0
   51.5214  162.0238   30.4457 H   0  0  0  0  0  0  0  0  0  0  0  0
   50.9440  159.7465   32.2199 H   0  0  0  0  0  0  0  0  0  0  0  0
   49.9540  160.4868   30.8910 H   0  0  0  0  0  0  0  0  0  0  0  0
   53.2075  159.6447   29.8102 H   0  0  0  0  0  0  0  0  0  0  0  0
   53.8075  157.7430   28.3352 H   0  0  0  0  0  0  0  0  0  0  0  0
   50.9831  152.0322   28.8807 H   0  0  0  0  0  0  0  0  0  0  0  0
   51.4376  149.8925   27.6751 H   0  0  0  0  0  0  0  0  0  0  0  0
   52.8082  149.9021   25.5879 H   0  0  0  0  0  0  0  0  0  0  0  0
   54.7790  152.1740   24.5060 H   0  0  0  0  0  0  0  0  0  0  0  0
   54.4330  156.9800   25.8260 H   0  0  0  0  0  0  0  0  0  0  0  0
   49.9509  155.9596   29.0672 H   0  0  0  0  0  0  0  0  0  0  0  0
   48.4845  156.8285   30.5330 H   0  0  0  0  0  0  0  0  0  0  0  0
   49.0473  158.0191   31.7814 H   0  0  0  0  0  0  0  0  0  0  0  0
   47.5417  159.4438   30.9343 H   0  0  0  0  0  0  0  0  0  0  0  0
   48.6142  159.5722   29.4991 H   0  0  0  0  0  0  0  0  0  0  0  0
   47.2500  158.4037   29.4991 H   0  0  0  0  0  0  0  0  0  0  0  0
  1  2  1  0
  2  3  1  0
  3  4  2  0
  4  5  1  0
  5  6  2  0
  6  7  1  0
  7  8  1  0
  8  9  1  0
  9 10  2  0
 10 11  1  0
 11 12  2  0
 12 13  1  0
 13 14  1  0
 13 15  2  0
 15 16  1  0
 16 17  2  0
 16 18  1  0
 18 19  1  0
  6 20  1  0
 20 21  2  0
 21 22  1  0
 22 23  1  0
 21  3  1  0
 18  7  2  0
 15  9  1  0
  1 24  1  0
  1 25  1  0
  1 26  1  0
  2 27  1  0
  2 28  1  0
  4 29  1  0
  5 30  1  0
 10 31  1  0
 11 32  1  0
 12 33  1  0
 14 34  1  0
 19 35  1  0
 20 36  1  0
 22 37  1  0
 22 38  1  0
 23 39  1  0
 23 40  1  0
 23 41  1  0
M  END
>  <meeko>  (9) 
{"is_sidechain": [false], "free_energy": -7.732, "intermolecular_energy": -9.468, "internal_energy": 0.012}

$$$$
