cand_052_out
     RDKit          3D

 44 46  0  0  0  0  0  0  0  0999 V2000
   48.1040  161.5040   33.0430 C   0  0  0  0  0  0  0  0  0  0  0  0
   49.3740  160.9200   33.6410 C   0  0  0  0  0  0  0  0  0  0  0  0
   50.5590  161.0570   32.6840 C   0  0  0  0  0  0  0  0  0  0  0  0
   50.1010  160.9940   31.2230 C   0  0  0  0  0  0  0  0  0  0  0  0
   50.5740  159.7280   30.5420 C   0  0  0  0  0  0  0  0  0  0  0  0
   51.8960  159.6760   30.0730 C   0  0  0  0  0  0  0  0  0  0  0  0
   52.3870  158.5380   29.4290 C   0  0  0  0  0  0  0  0  0  0  0  0
   51.5730  157.4190   29.2380 C   0  0  0  0  0  0  0  0  0  0  0  0
   52.0590  156.2110   28.5390 C   0  0  0  0  0  0  0  0  0  0  0  0
   52.6190  156.4950   27.2980 O   0  0  0  0  0  0  0  0  0  0  0  0
   53.1130  155.4640   26.5410 C   0  0  0  0  0  0  0  0  0  0  0  0
   53.6770  155.7960   25.3090 C   0  0  0  0  0  0  0  0  0  0  0  0
   54.1970  154.7930   24.4870 C   0  0  0  0  0  0  0  0  0  0  0  0
   54.1510  153.4590   24.8970 C   0  0  0  0  0  0  0  0  0  0  0  0
   53.5860  153.1300   26.1270 C   0  0  0  0  0  0  0  0  0  0  0  0
   53.5720  151.8050   26.4650 O   0  0  0  0  0  0  0  0  0  0  0  0
   53.0670  154.1340   26.9480 C   0  0  0  0  0  0  0  0  0  0  0  0
   52.4650  153.8320   28.2480 C   0  0  0  0  0  0  0  0  0  0  0  0
   52.3810  152.6820   28.6750 O   0  0  0  0  0  0  0  0  0  0  0  0
   51.9510  154.9700   29.0460 C   0  0  0  0  0  0  0  0  0  0  0  0
   51.3720  154.6710   30.2660 O   0  0  0  0  0  0  0  0  0  0  0  0
   50.2470  157.4760   29.6940 C   0  0  0  0  0  0  0  0  0  0  0  0
   49.7330  158.6170   30.3390 C   0  0  0  0  0  0  0  0  0  0  0  0
   48.3060  158.6000   30.8170 C   0  0  0  0  0  0  0  0  0  0  0  0
   47.4271  161.8153   33.8523 H   0  0  0  0  0  0  0  0  0  0  0  0
   48.3583  162.3756   32.4220 H   0  0  0  0  0  0  0  0  0  0  0  0
   47.6078  160.7436   32.4220 H   0  0  0  0  0  0  0  0  0  0  0  0
   49.6062  161.4515   34.5757 H   0  0  0  0  0  0  0  0  0  0  0  0
   49.2056  159.8496   33.8305 H   0  0  0  0  0  0  0  0  0  0  0  0
   51.0553  162.0222   32.8632 H   0  0  0  0  0  0  0  0  0  0  0  0
   51.2535  160.2240   32.8677 H   0  0  0  0  0  0  0  0  0  0  0  0
   49.0019  161.0259   31.1923 H   0  0  0  0  0  0  0  0  0  0  0  0
   50.5355  161.8527   30.6902 H   0  0  0  0  0  0  0  0  0  0  0  0
   52.5555  160.5449   30.2148 H   0  0  0  0  0  0  0  0  0  0  0  0
   53.4261  158.5228   29.0683 H   0  0  0  0  0  0  0  0  0  0  0  0
   53.7123  156.8466   24.9850 H   0  0  0  0  0  0  0  0  0  0  0  0
   54.6430  155.0544   23.5161 H   0  0  0  0  0  0  0  0  0  0  0  0
   54.5602  152.6693   24.2498 H   0  0  0  0  0  0  0  0  0  0  0  0
   52.7650  151.3870   26.6910 H   0  0  0  0  0  0  0  0  0  0  0  0
   51.6380  155.1340   31.0360 H   0  0  0  0  0  0  0  0  0  0  0  0
   49.5915  156.6056   29.5434 H   0  0  0  0  0  0  0  0  0  0  0  0
   48.2877  158.5998   31.9168 H   0  0  0  0  0  0  0  0  0  0  0  0
   47.7830  159.4920   30.4418 H   0  0  0  0  0  0  0  0  0  0  0  0
   47.8044  157.6958   30.4418 H   0  0  0  0  0  0  0  0  0  0  0  0
  1  2  1  0
  2  3  1  0
  3  4  1  0
  4  5  1  0
  5  6  2  0
  6  7  1  0
  7  8  2  0
  8  9  1  0
  9 10  1  0
 10 11  1  0
 11 12  2  0
 12 13  1  0
 13 14  2  0
 14 15  1  0
 15 16  1  0
 15 17  2  0
 17 18  1  0
 18 19  2  0
 18 20  1  0
 20 21  1  0
  8 22  1  0
 22 23  2  0
 23 24  1  0
 23  5  1  0
 20  9  2  0
 17 11  1  0
  1 25  1  0
  1 26  1  0
  1 27  1  0
  2 28  1  0
  2 29  1  0
  3 30  1  0
  3 31  1  0
  4 32  1  0
  4 33  1  0
  6 34  1  0
  7 35  1  0
 12 36  1  0
 13 37  1  0
 14 38  1  0
 16 39  1  0
 21 40  1  0
 22 41  1  0
 24 42  1  0
 24 43  1  0
 24 44  1  0
M  END
>  <meeko>  (1) 
{"is_sidechain": [false], "free_energy": -10.457, "intermolecular_energy": -13.514, "internal_energy": -0.616}

$$$$
cand_052_out
     RDKit          3D

 44 46  0  0  0  0  0  0  0  0999 V2000
   54.1300  149.9400   24.7160 C   0  0  0  0  0  0  0  0  0  0  0  0
   54.2170  151.4500   24.5650 C   0  0  0  0  0  0  0  0  0  0  0  0
   54.0910  152.1570   25.9150 C   0  0  0  0  0  0  0  0  0  0  0  0
   52.6260  152.2750   26.3440 C   0  0  0  0  0  0  0  0  0  0  0  0
   52.3570  153.5760   27.0690 C   0  0  0  0  0  0  0  0  0  0  0  0
   51.9180  153.5190   28.4010 C   0  0  0  0  0  0  0  0  0  0  0  0
   51.6450  154.6850   29.1210 C   0  0  0  0  0  0  0  0  0  0  0  0
   51.8080  155.9410   28.5300 C   0  0  0  0  0  0  0  0  0  0  0  0
   51.5040  157.1900   29.2600 C   0  0  0  0  0  0  0  0  0  0  0  0
   50.1980  157.2330   29.7350 O   0  0  0  0  0  0  0  0  0  0  0  0
   49.7810  158.3380   30.4330 C   0  0  0  0  0  0  0  0  0  0  0  0
   48.4680  158.3320   30.9020 C   0  0  0  0  0  0  0  0  0  0  0  0
   47.9790  159.4280   31.6200 C   0  0  0  0  0  0  0  0  0  0  0  0
   48.8040  160.5270   31.8650 C   0  0  0  0  0  0  0  0  0  0  0  0
   50.1150  160.5290   31.3950 C   0  0  0  0  0  0  0  0  0  0  0  0
   50.8680  161.6380   31.6710 O   0  0  0  0  0  0  0  0  0  0  0  0
   50.6030  159.4330   30.6790 C   0  0  0  0  0  0  0  0  0  0  0  0
   51.9740  159.3960   30.1670 C   0  0  0  0  0  0  0  0  0  0  0  0
   52.7580  160.3280   30.3370 O   0  0  0  0  0  0  0  0  0  0  0  0
   52.3960  158.1840   29.4270 C   0  0  0  0  0  0  0  0  0  0  0  0
   53.6890  158.1650   28.9360 O   0  0  0  0  0  0  0  0  0  0  0  0
   52.2330  155.9980   27.1940 C   0  0  0  0  0  0  0  0  0  0  0  0
   52.5050  154.8330   26.4520 C   0  0  0  0  0  0  0  0  0  0  0  0
   52.9740  154.9710   25.0290 C   0  0  0  0  0  0  0  0  0  0  0  0
   54.1149  149.6786   25.7844 H   0  0  0  0  0  0  0  0  0  0  0  0
   53.2094  149.5760   24.2364 H   0  0  0  0  0  0  0  0  0  0  0  0
   55.0027  149.4727   24.2364 H   0  0  0  0  0  0  0  0  0  0  0  0
   55.1869  151.7088   24.1152 H   0  0  0  0  0  0  0  0  0  0  0  0
   53.3868  151.7808   23.9236 H   0  0  0  0  0  0  0  0  0  0  0  0
   54.6418  151.5820   26.6739 H   0  0  0  0  0  0  0  0  0  0  0  0
   54.5080  153.1702   25.8177 H   0  0  0  0  0  0  0  0  0  0  0  0
   51.9878  152.2271   25.4493 H   0  0  0  0  0  0  0  0  0  0  0  0
   52.4031  151.4467   27.0327 H   0  0  0  0  0  0  0  0  0  0  0  0
   51.7867  152.5404   28.8860 H   0  0  0  0  0  0  0  0  0  0  0  0
   51.2986  154.6137   30.1626 H   0  0  0  0  0  0  0  0  0  0  0  0
   47.8176  157.4664   30.7075 H   0  0  0  0  0  0  0  0  0  0  0  0
   46.9438  159.4240   31.9918 H   0  0  0  0  0  0  0  0  0  0  0  0
   48.4193  161.3900   32.4283 H   0  0  0  0  0  0  0  0  0  0  0  0
   51.1880  162.1730   30.9720 H   0  0  0  0  0  0  0  0  0  0  0  0
   54.1090  158.9670   28.6940 H   0  0  0  0  0  0  0  0  0  0  0  0
   52.3570  156.9796   26.7134 H   0  0  0  0  0  0  0  0  0  0  0  0
   54.0292  155.2815   25.0192 H   0  0  0  0  0  0  0  0  0  0  0  0
   52.8714  154.0046   24.5137 H   0  0  0  0  0  0  0  0  0  0  0  0
   52.3643  155.7278   24.5137 H   0  0  0  0  0  0  0  0  0  0  0  0
  1  2  1  0
  2  3  1  0
  3  4  1  0
  4  5  1  0
  5  6  2  0
  6  7  1  0
  7  8  2  0
  8  9  1  0
  9 10  1  0
 10 11  1  0
 11 12  2  0
 12 13  1  0
 13 14  2  0
 14 15  1  0
 15 16  1  0
 15 17  2  0
 17 18  1  0
 18 19  2  0
 18 20  1  0
 20 21  1  0
  8 22  1  0
 22 23  2  0
 23 24  1  0
 23  5  1  0
 20  9  2  0
 17 11  1  0
  1 25  1  0
  1 26  1  0
  1 27  1  0
  2 28  1  0
  2 29  1  0
  3 30  1  0
  3 31  1  0
  4 32  1  0
  4 33  1  0
  6 34  1  0
  7 35  1  0
 12 36  1  0
 13 37  1  0
 14 38  1  0
 16 39  1  0
 21 40  1  0
 22 41  1  0
 24 42  1  0
 24 43  1  0
 24 44  1  0
M  END
>  <meeko>  (2) 
{"is_sidechain": [false], "free_energy": -10.215, "intermolecular_energy": -13.705, "internal_energy": -0.112}

$$$$
cand_052_out
     RDKit          3D

 44 46  0  0  0  0  0  0  0  0999 V2000
   54.0980  151.9280   24.3800 C   0  0  0  0  0  0  0  0  0  0  0  0
   54.0970  153.3890   23.9610 C   0  0  0  0  0  0  0  0  0  0  0  0
   53.1540  154.2210   24.8310 C   0  0  0  0  0  0  0  0  0  0  0  0
   53.3050  153.8630   26.3120 C   0  0  0  0  0  0  0  0  0  0  0  0
   52.7850  154.9640   27.2110 C   0  0  0  0  0  0  0  0  0  0  0  0
   52.9950  156.2970   26.8240 C   0  0  0  0  0  0  0  0  0  0  0  0
   52.5460  157.3560   27.6160 C   0  0  0  0  0  0  0  0  0  0  0  0
   51.8690  157.1140   28.8150 C   0  0  0  0  0  0  0  0  0  0  0  0
   51.4040  158.2150   29.6840 C   0  0  0  0  0  0  0  0  0  0  0  0
   50.0620  158.0980   30.0300 O   0  0  0  0  0  0  0  0  0  0  0  0
   49.4990  159.0540   30.8360 C   0  0  0  0  0  0  0  0  0  0  0  0
   48.1550  158.8900   31.1700 C   0  0  0  0  0  0  0  0  0  0  0  0
   47.5190  159.8290   31.9860 C   0  0  0  0  0  0  0  0  0  0  0  0
   48.2280  160.9320   32.4660 C   0  0  0  0  0  0  0  0  0  0  0  0
   49.5700  161.0940   32.1300 C   0  0  0  0  0  0  0  0  0  0  0  0
   50.2030  162.1970   32.6340 O   0  0  0  0  0  0  0  0  0  0  0  0
   50.2050  160.1540   31.3150 C   0  0  0  0  0  0  0  0  0  0  0  0
   51.6130  160.2860   30.9390 C   0  0  0  0  0  0  0  0  0  0  0  0
   52.3020  161.2330   31.3160 O   0  0  0  0  0  0  0  0  0  0  0  0
   52.1940  159.2300   30.0770 C   0  0  0  0  0  0  0  0  0  0  0  0
   53.5220  159.3730   29.7160 O   0  0  0  0  0  0  0  0  0  0  0  0
   51.6720  155.7810   29.2080 C   0  0  0  0  0  0  0  0  0  0  0  0
   52.1240  154.7020   28.4260 C   0  0  0  0  0  0  0  0  0  0  0  0
   51.8610  153.2990   28.9030 C   0  0  0  0  0  0  0  0  0  0  0  0
   54.0980  151.8614   25.4780 H   0  0  0  0  0  0  0  0  0  0  0  0
   53.2002  151.4320   23.9826 H   0  0  0  0  0  0  0  0  0  0  0  0
   54.9965  151.4332   23.9826 H   0  0  0  0  0  0  0  0  0  0  0  0
   55.1173  153.7889   24.0563 H   0  0  0  0  0  0  0  0  0  0  0  0
   53.7485  153.4490   22.9194 H   0  0  0  0  0  0  0  0  0  0  0  0
   53.3870  155.2873   24.6942 H   0  0  0  0  0  0  0  0  0  0  0  0
   52.1192  154.0073   24.5252 H   0  0  0  0  0  0  0  0  0  0  0  0
   52.7406  152.9409   26.5150 H   0  0  0  0  0  0  0  0  0  0  0  0
   54.3756  153.7252   26.5235 H   0  0  0  0  0  0  0  0  0  0  0  0
   53.5215  156.5107   25.8821 H   0  0  0  0  0  0  0  0  0  0  0  0
   52.7270  158.3918   27.2929 H   0  0  0  0  0  0  0  0  0  0  0  0
   47.5959  158.0218   30.7912 H   0  0  0  0  0  0  0  0  0  0  0  0
   46.4592  159.6993   32.2504 H   0  0  0  0  0  0  0  0  0  0  0  0
   47.7276  161.6717   33.1083 H   0  0  0  0  0  0  0  0  0  0  0  0
   50.9600  162.5410   32.2020 H   0  0  0  0  0  0  0  0  0  0  0  0
   54.0720  159.9710   30.1830 H   0  0  0  0  0  0  0  0  0  0  0  0
   51.1497  155.5741   30.1537 H   0  0  0  0  0  0  0  0  0  0  0  0
   51.8575  153.2803   30.0028 H   0  0  0  0  0  0  0  0  0  0  0  0
   50.8839  152.9611   28.5274 H   0  0  0  0  0  0  0  0  0  0  0  0
   52.6494  152.6302   28.5274 H   0  0  0  0  0  0  0  0  0  0  0  0
  1  2  1  0
  2  3  1  0
  3  4  1  0
  4  5  1  0
  5  6  2  0
  6  7  1  0
  7  8  2  0
  8  9  1  0
  9 10  1  0
 10 11  1  0
 11 12  2  0
 12 13  1  0
 13 14  2  0
 14 15  1  0
 15 16  1  0
 15 17  2  0
 17 18  1  0
 18 19  2  0
 18 20  1  0
 20 21  1  0
  8 22  1  0
 22 23  2  0
 23 24  1  0
 23  5  1  0
 20  9  2  0
 17 11  1  0
  1 25  1  0
  1 26  1  0
  1 27  1  0
  2 28  1  0
  2 29  1  0
  3 30  1  0
  3 31  1  0
  4 32  1  0
  4 33  1  0
  6 34  1  0
  7 35  1  0
 12 36  1  0
 13 37  1  0
 14 38  1  0
 16 39  1  0
 21 40  1  0
 22 41  1  0
 24 42  1  0
 24 43  1  0
 24 44  1  0
M  END
>  <meeko>  (3) 
{"is_sidechain": [false], "free_energy": -9.658, "intermolecular_energy": -12.723, "internal_energy": -0.374}

$$$$
cand_052_out
     RDKit          3D

 44 46  0  0  0  0  0  0  0  0999 V2000
   54.1370  151.4660   24.3330 C   0  0  0  0  0  0  0  0  0  0  0  0
   53.3530  150.9560   25.5320 C   0  0  0  0  0  0  0  0  0  0  0  0
   52.6760  152.1010   26.2860 C   0  0  0  0  0  0  0  0  0  0  0  0
   53.6180  153.2980   26.4390 C   0  0  0  0  0  0  0  0  0  0  0  0
   52.9750  154.4220   27.2230 C   0  0  0  0  0  0  0  0  0  0  0  0
   52.2840  154.1030   28.4020 C   0  0  0  0  0  0  0  0  0  0  0  0
   51.6620  155.0950   29.1630 C   0  0  0  0  0  0  0  0  0  0  0  0
   51.7170  156.4360   28.7700 C   0  0  0  0  0  0  0  0  0  0  0  0
   51.0490  157.5030   29.5440 C   0  0  0  0  0  0  0  0  0  0  0  0
   51.8990  158.5600   29.8510 O   0  0  0  0  0  0  0  0  0  0  0  0
   51.4070  159.6210   30.5660 C   0  0  0  0  0  0  0  0  0  0  0  0
   52.2910  160.6650   30.8390 C   0  0  0  0  0  0  0  0  0  0  0  0
   51.8540  161.7760   31.5660 C   0  0  0  0  0  0  0  0  0  0  0  0
   50.5350  161.8410   32.0200 C   0  0  0  0  0  0  0  0  0  0  0  0
   49.6550  160.7960   31.7460 C   0  0  0  0  0  0  0  0  0  0  0  0
   48.3790  160.9240   32.2220 O   0  0  0  0  0  0  0  0  0  0  0  0
   50.0930  159.6860   31.0190 C   0  0  0  0  0  0  0  0  0  0  0  0
   49.2010  158.5680   30.7100 C   0  0  0  0  0  0  0  0  0  0  0  0
   48.0280  158.5480   31.0800 O   0  0  0  0  0  0  0  0  0  0  0  0
   49.7600  157.4420   29.9250 C   0  0  0  0  0  0  0  0  0  0  0  0
   48.9120  156.3840   29.6510 O   0  0  0  0  0  0  0  0  0  0  0  0
   52.3960  156.7520   27.5830 C   0  0  0  0  0  0  0  0  0  0  0  0
   53.0220  155.7650   26.8000 C   0  0  0  0  0  0  0  0  0  0  0  0
   53.7460  156.1810   25.5490 C   0  0  0  0  0  0  0  0  0  0  0  0
   55.0115  152.0349   24.6818 H   0  0  0  0  0  0  0  0  0  0  0  0
   54.4731  150.6132   23.7250 H   0  0  0  0  0  0  0  0  0  0  0  0
   53.4936  152.1189   23.7250 H   0  0  0  0  0  0  0  0  0  0  0  0
   52.5825  150.2530   25.1826 H   0  0  0  0  0  0  0  0  0  0  0  0
   54.0548  150.4583   26.2174 H   0  0  0  0  0  0  0  0  0  0  0  0
   51.7815  152.4175   25.7295 H   0  0  0  0  0  0  0  0  0  0  0  0
   52.4026  151.7430   27.2895 H   0  0  0  0  0  0  0  0  0  0  0  0
   54.5268  152.9710   26.9654 H   0  0  0  0  0  0  0  0  0  0  0  0
   53.8578  153.6754   25.4340 H   0  0  0  0  0  0  0  0  0  0  0  0
   52.2315  153.0550   28.7319 H   0  0  0  0  0  0  0  0  0  0  0  0
   51.1231  154.8187   30.0813 H   0  0  0  0  0  0  0  0  0  0  0  0
   53.3304  160.6140   30.4827 H   0  0  0  0  0  0  0  0  0  0  0  0
   52.5500  162.6002   31.7808 H   0  0  0  0  0  0  0  0  0  0  0  0
   50.1915  162.7152   32.5926 H   0  0  0  0  0  0  0  0  0  0  0  0
   48.1620  160.6030   33.0740 H   0  0  0  0  0  0  0  0  0  0  0  0
   48.3780  156.4000   28.8810 H   0  0  0  0  0  0  0  0  0  0  0  0
   52.4399  157.8012   27.2556 H   0  0  0  0  0  0  0  0  0  0  0  0
   54.6704  156.7122   25.8198 H   0  0  0  0  0  0  0  0  0  0  0  0
   53.9960  155.2888   24.9561 H   0  0  0  0  0  0  0  0  0  0  0  0
   53.1011  156.8463   24.9561 H   0  0  0  0  0  0  0  0  0  0  0  0
  1  2  1  0
  2  3  1  0
  3  4  1  0
  4  5  1  0
  5  6  2  0
  6  7  1  0
  7  8  2  0
  8  9  1  0
  9 10  1  0
 10 11  1  0
 11 12  2  0
 12 13  1  0
 13 14  2  0
 14 15  1  0
 15 16  1  0
 15 17  2  0
 17 18  1  0
 18 19  2  0
 18 20  1  0
 20 21  1  0
  8 22  1  0
 22 23  2  0
 23 24  1  0
 23  5  1  0
 20  9  2  0
 17 11  1  0
  1 25  1  0
  1 26  1  0
  1 27  1  0
  2 28  1  0
  2 29  1  0
  3 30  1  0
  3 31  1  0
  4 32  1  0
  4 33  1  0
  6 34  1  0
  7 35  1  0
 12 36  1  0
 13 37  1  0
 14 38  1  0
 16 39  1  0
 21 40  1  0
 22 41  1  0
 24 42  1  0
 24 43  1  0
 24 44  1  0
M  END
>  <meeko>  (4) 
{"is_sidechain": [false], "free_energy": -9.246, "intermolecular_energy": -12.169, "internal_energy": -0.395}

$$$$
cand_052_out
     RDKit          3D

 44 46  0  0  0  0  0  0  0  0999 V2000
   54.0810  151.7210   24.3910 C   0  0  0  0  0  0  0  0  0  0  0  0
   54.1470  153.1980   24.0390 C   0  0  0  0  0  0  0  0  0  0  0  0
   53.2310  154.0300   24.9370 C   0  0  0  0  0  0  0  0  0  0  0  0
   53.5980  153.8590   26.4140 C   0  0  0  0  0  0  0  0  0  0  0  0
   52.8780  154.8600   27.2910 C   0  0  0  0  0  0  0  0  0  0  0  0
   53.0110  156.2260   26.9930 C   0  0  0  0  0  0  0  0  0  0  0  0
   52.3770  157.1980   27.7700 C   0  0  0  0  0  0  0  0  0  0  0  0
   51.5890  156.8330   28.8650 C   0  0  0  0  0  0  0  0  0  0  0  0
   50.9260  157.8420   29.7190 C   0  0  0  0  0  0  0  0  0  0  0  0
   51.7710  158.8890   30.0700 O   0  0  0  0  0  0  0  0  0  0  0  0
   51.2840  159.8980   30.8610 C   0  0  0  0  0  0  0  0  0  0  0  0
   52.1610  160.9340   31.1780 C   0  0  0  0  0  0  0  0  0  0  0  0
   51.7290  161.9930   31.9820 C   0  0  0  0  0  0  0  0  0  0  0  0
   50.4210  162.0120   32.4690 C   0  0  0  0  0  0  0  0  0  0  0  0
   49.5470  160.9750   32.1520 C   0  0  0  0  0  0  0  0  0  0  0  0
   48.2810  161.0560   32.6630 O   0  0  0  0  0  0  0  0  0  0  0  0
   49.9800  159.9170   31.3470 C   0  0  0  0  0  0  0  0  0  0  0  0
   49.0940  158.8080   30.9900 C   0  0  0  0  0  0  0  0  0  0  0  0
   47.9310  158.7500   31.3860 O   0  0  0  0  0  0  0  0  0  0  0  0
   49.6480  157.7400   30.1250 C   0  0  0  0  0  0  0  0  0  0  0  0
   48.8060  156.6910   29.8060 O   0  0  0  0  0  0  0  0  0  0  0  0
   51.4680  155.4690   29.1720 C   0  0  0  0  0  0  0  0  0  0  0  0
   52.1050  154.4760   28.4040 C   0  0  0  0  0  0  0  0  0  0  0  0
   51.9150  153.0320   28.7810 C   0  0  0  0  0  0  0  0  0  0  0  0
   54.0758  151.6046   25.4848 H   0  0  0  0  0  0  0  0  0  0  0  0
   53.1625  151.2848   23.9715 H   0  0  0  0  0  0  0  0  0  0  0  0
   54.9570  151.2046   23.9715 H   0  0  0  0  0  0  0  0  0  0  0  0
   55.1823  153.5487   24.1618 H   0  0  0  0  0  0  0  0  0  0  0  0
   53.8129  153.3198   22.9981 H   0  0  0  0  0  0  0  0  0  0  0  0
   53.3283  155.0911   24.6638 H   0  0  0  0  0  0  0  0  0  0  0  0
   52.1963  153.6854   24.7934 H   0  0  0  0  0  0  0  0  0  0  0  0
   53.3235  152.8430   26.7339 H   0  0  0  0  0  0  0  0  0  0  0  0
   54.6799  154.0277   26.5194 H   0  0  0  0  0  0  0  0  0  0  0  0
   53.6244  156.5353   26.1338 H   0  0  0  0  0  0  0  0  0  0  0  0
   52.4991  158.2617   27.5176 H   0  0  0  0  0  0  0  0  0  0  0  0
   53.1923  160.9184   30.7958 H   0  0  0  0  0  0  0  0  0  0  0  0
   52.4202  162.8117   32.2309 H   0  0  0  0  0  0  0  0  0  0  0  0
   50.0810  162.8447   33.1022 H   0  0  0  0  0  0  0  0  0  0  0  0
   47.9660  161.8670   33.0100 H   0  0  0  0  0  0  0  0  0  0  0  0
   49.1350  155.8130   29.7960 H   0  0  0  0  0  0  0  0  0  0  0  0
   50.8585  155.1674   30.0367 H   0  0  0  0  0  0  0  0  0  0  0  0
   51.9026  152.9377   29.8769 H   0  0  0  0  0  0  0  0  0  0  0  0
   50.9613  152.6684   28.3709 H   0  0  0  0  0  0  0  0  0  0  0  0
   52.7422  152.4341   28.3709 H   0  0  0  0  0  0  0  0  0  0  0  0
  1  2  1  0
  2  3  1  0
  3  4  1  0
  4  5  1  0
  5  6  2  0
  6  7  1  0
  7  8  2  0
  8  9  1  0
  9 10  1  0
 10 11  1  0
 11 12  2  0
 12 13  1  0
 13 14  2  0
 14 15  1  0
 15 16  1  0
 15 17  2  0
 17 18  1  0
 18 19  2  0
 18 20  1  0
 20 21  1  0
  8 22  1  0
 22 23  2  0
 23 24  1  0
 23  5  1  0
 20  9  2  0
 17 11  1  0
  1 25  1  0
  1 26  1  0
  1 27  1  0
  2 28  1  0
  2 29  1  0
  3 30  1  0
  3 31  1  0
  4 32  1  0
  4 33  1  0
  6 34  1  0
  7 35  1  0
 12 36  1  0
 13 37  1  0
 14 38  1  0
 16 39  1  0
 21 40  1  0
 22 41  1  0
 24 42  1  0
 24 43  1  0
 24 44  1  0
M  END
>  <meeko>  (5) 
{"is_sidechain": [false], "free_energy": -8.697, "intermolecular_energy": -11.561, "internal_energy": -0.294}

$$$$
cand_052_out
     RDKit          3D

 44 46  0  0  0  0  0  0  0  0999 V2000
   48.1110  159.7880   31.6600 C   0  0  0  0  0  0  0  0  0  0  0  0
   48.6000  160.6700   30.5220 C   0  0  0  0  0  0  0  0  0  0  0  0
   50.0460  160.3480   30.1450 C   0  0  0  0  0  0  0  0  0  0  0  0
   50.5400  159.0900   30.8660 C   0  0  0  0  0  0  0  0  0  0  0  0
   51.0790  158.0620   29.8940 C   0  0  0  0  0  0  0  0  0  0  0  0
   52.3110  158.3130   29.2710 C   0  0  0  0  0  0  0  0  0  0  0  0
   52.8560  157.4070   28.3590 C   0  0  0  0  0  0  0  0  0  0  0  0
   52.1860  156.2210   28.0460 C   0  0  0  0  0  0  0  0  0  0  0  0
   52.7280  155.2550   27.0670 C   0  0  0  0  0  0  0  0  0  0  0  0
   52.3550  153.9430   27.3400 O   0  0  0  0  0  0  0  0  0  0  0  0
   52.7890  152.9430   26.5090 C   0  0  0  0  0  0  0  0  0  0  0  0
   52.3790  151.6450   26.8130 C   0  0  0  0  0  0  0  0  0  0  0  0
   52.7870  150.5780   26.0070 C   0  0  0  0  0  0  0  0  0  0  0  0
   53.6050  150.8120   24.8990 C   0  0  0  0  0  0  0  0  0  0  0  0
   54.0120  152.1090   24.5990 C   0  0  0  0  0  0  0  0  0  0  0  0
   54.8130  152.2660   23.5000 O   0  0  0  0  0  0  0  0  0  0  0  0
   53.6030  153.1750   25.4050 C   0  0  0  0  0  0  0  0  0  0  0  0
   54.0090  154.5530   25.1240 C   0  0  0  0  0  0  0  0  0  0  0  0
   54.7330  154.8380   24.1720 O   0  0  0  0  0  0  0  0  0  0  0  0
   53.5140  155.6110   26.0350 C   0  0  0  0  0  0  0  0  0  0  0  0
   53.9150  156.9080   25.7690 O   0  0  0  0  0  0  0  0  0  0  0  0
   50.9470  155.9760   28.6580 C   0  0  0  0  0  0  0  0  0  0  0  0
   50.3800  156.8820   29.5740 C   0  0  0  0  0  0  0  0  0  0  0  0
   49.0560  156.5450   30.2030 C   0  0  0  0  0  0  0  0  0  0  0  0
   48.3694  160.2541   32.6223 H   0  0  0  0  0  0  0  0  0  0  0  0
   47.0194  159.6714   31.5905 H   0  0  0  0  0  0  0  0  0  0  0  0
   48.5904  158.8004   31.5905 H   0  0  0  0  0  0  0  0  0  0  0  0
   47.9574  160.5093   29.6438 H   0  0  0  0  0  0  0  0  0  0  0  0
   48.5550  161.7178   30.8537 H   0  0  0  0  0  0  0  0  0  0  0  0
   50.1058  160.1857   29.0587 H   0  0  0  0  0  0  0  0  0  0  0  0
   50.6810  161.1941   30.4466 H   0  0  0  0  0  0  0  0  0  0  0  0
   51.3398  159.3717   31.5667 H   0  0  0  0  0  0  0  0  0  0  0  0
   49.6876  158.6436   31.3991 H   0  0  0  0  0  0  0  0  0  0  0  0
   52.8566  159.2391   29.5050 H   0  0  0  0  0  0  0  0  0  0  0  0
   53.8221  157.6288   27.8822 H   0  0  0  0  0  0  0  0  0  0  0  0
   51.7354  151.4610   27.6859 H   0  0  0  0  0  0  0  0  0  0  0  0
   52.4638  149.5539   26.2454 H   0  0  0  0  0  0  0  0  0  0  0  0
   53.9269  149.9729   24.2648 H   0  0  0  0  0  0  0  0  0  0  0  0
   55.3290  151.5490   23.1900 H   0  0  0  0  0  0  0  0  0  0  0  0
   53.5740  157.6170   26.2770 H   0  0  0  0  0  0  0  0  0  0  0  0
   50.4041  155.0506   28.4152 H   0  0  0  0  0  0  0  0  0  0  0  0
   49.1535  156.5698   31.2984 H   0  0  0  0  0  0  0  0  0  0  0  0
   48.3015  157.2797   29.8853 H   0  0  0  0  0  0  0  0  0  0  0  0
   48.7446  155.5390   29.8853 H   0  0  0  0  0  0  0  0  0  0  0  0
  1  2  1  0
  2  3  1  0
  3  4  1  0
  4  5  1  0
  5  6  2  0
  6  7  1  0
  7  8  2  0
  8  9  1  0
  9 10  1  0
 10 11  1  0
 11 12  2  0
 12 13  1  0
 13 14  2  0
 14 15  1  0
 15 16  1  0
 15 17  2  0
 17 18  1  0
 18 19  2  0
 18 20  1  0
 20 21  1  0
  8 22  1  0
 22 23  2  0
 23 24  1  0
 23  5  1  0
 20  9  2  0
 17 11  1  0
  1 25  1  0
  1 26  1  0
  1 27  1  0
  2 28  1  0
  2 29  1  0
  3 30  1  0
  3 31  1  0
  4 32  1  0
  4 33  1  0
  6 34  1  0
  7 35  1  0
 12 36  1  0
 13 37  1  0
 14 38  1  0
 16 39  1  0
 21 40  1  0
 22 41  1  0
 24 42  1  0
 24 43  1  0
 24 44  1  0
M  END
>  <meeko>  (6) 
{"is_sidechain": [false], "free_energy": -8.519, "intermolecular_energy": -11.269, "internal_energy": -0.355}

$$$$
cand_052_out
     RDKit          3D

 44 46  0  0  0  0  0  0  0  0999 V2000
   46.4680  160.0620   31.4750 C   0  0  0  0  0  0  0  0  0  0  0  0
   47.9580  159.8210   31.6590 C   0  0  0  0  0  0  0  0  0  0  0  0
   48.4980  158.8310   30.6260 C   0  0  0  0  0  0  0  0  0  0  0  0
   49.6540  158.0070   31.2000 C   0  0  0  0  0  0  0  0  0  0  0  0
   50.4180  157.2810   30.1130 C   0  0  0  0  0  0  0  0  0  0  0  0
   49.9640  156.0160   29.7080 C   0  0  0  0  0  0  0  0  0  0  0  0
   50.6320  155.2940   28.7170 C   0  0  0  0  0  0  0  0  0  0  0  0
   51.7710  155.8170   28.0990 C   0  0  0  0  0  0  0  0  0  0  0  0
   52.5110  155.0650   27.0630 C   0  0  0  0  0  0  0  0  0  0  0  0
   52.2900  153.6940   27.1320 O   0  0  0  0  0  0  0  0  0  0  0  0
   52.9150  152.8750   26.2280 C   0  0  0  0  0  0  0  0  0  0  0  0
   52.6540  151.5080   26.3250 C   0  0  0  0  0  0  0  0  0  0  0  0
   53.2610  150.6170   25.4350 C   0  0  0  0  0  0  0  0  0  0  0  0
   54.1290  151.0940   24.4510 C   0  0  0  0  0  0  0  0  0  0  0  0
   54.3880  152.4590   24.3570 C   0  0  0  0  0  0  0  0  0  0  0  0
   55.2480  152.8580   23.3700 O   0  0  0  0  0  0  0  0  0  0  0  0
   53.7800  153.3490   25.2470 C   0  0  0  0  0  0  0  0  0  0  0  0
   54.0250  154.7910   25.1820 C   0  0  0  0  0  0  0  0  0  0  0  0
   54.7810  155.2870   24.3480 O   0  0  0  0  0  0  0  0  0  0  0  0
   53.3250  155.6490   26.1660 C   0  0  0  0  0  0  0  0  0  0  0  0
   53.5740  157.0080   26.1040 O   0  0  0  0  0  0  0  0  0  0  0  0
   52.2330  157.0760   28.5130 C   0  0  0  0  0  0  0  0  0  0  0  0
   51.5770  157.8140   29.5160 C   0  0  0  0  0  0  0  0  0  0  0  0
   52.1200  159.1640   29.8970 C   0  0  0  0  0  0  0  0  0  0  0  0
   45.9848  160.1401   32.4601 H   0  0  0  0  0  0  0  0  0  0  0  0
   46.3140  160.9967   30.9159 H   0  0  0  0  0  0  0  0  0  0  0  0
   46.0272  159.2235   30.9159 H   0  0  0  0  0  0  0  0  0  0  0  0
   48.4908  160.7772   31.5501 H   0  0  0  0  0  0  0  0  0  0  0  0
   48.1174  159.3954   32.6607 H   0  0  0  0  0  0  0  0  0  0  0  0
   47.6882  158.1508   30.3234 H   0  0  0  0  0  0  0  0  0  0  0  0
   48.8711  159.3990   29.7610 H   0  0  0  0  0  0  0  0  0  0  0  0
   50.3428  158.6806   31.7308 H   0  0  0  0  0  0  0  0  0  0  0  0
   49.2329  157.2552   31.8837 H   0  0  0  0  0  0  0  0  0  0  0  0
   49.0675  155.5865   30.1790 H   0  0  0  0  0  0  0  0  0  0  0  0
   50.2578  154.3033   28.4197 H   0  0  0  0  0  0  0  0  0  0  0  0
   51.9713  151.1316   27.1010 H   0  0  0  0  0  0  0  0  0  0  0  0
   53.0545  149.5392   25.5101 H   0  0  0  0  0  0  0  0  0  0  0  0
   54.6074  150.3929   23.7513 H   0  0  0  0  0  0  0  0  0  0  0  0
   55.9780  152.3200   23.1390 H   0  0  0  0  0  0  0  0  0  0  0  0
   54.4570  157.3220   26.0870 H   0  0  0  0  0  0  0  0  0  0  0  0
   53.1325  157.4975   28.0406 H   0  0  0  0  0  0  0  0  0  0  0  0
   52.1543  159.2494   30.9931 H   0  0  0  0  0  0  0  0  0  0  0  0
   53.1346  159.2798   29.4882 H   0  0  0  0  0  0  0  0  0  0  0  0
   51.4681  159.9501   29.4882 H   0  0  0  0  0  0  0  0  0  0  0  0
  1  2  1  0
  2  3  1  0
  3  4  1  0
  4  5  1  0
  5  6  2  0
  6  7  1  0
  7  8  2  0
  8  9  1  0
  9 10  1  0
 10 11  1  0
 11 12  2  0
 12 13  1  0
 13 14  2  0
 14 15  1  0
 15 16  1  0
 15 17  2  0
 17 18  1  0
 18 19  2  0
 18 20  1  0
 20 21  1  0
  8 22  1  0
 22 23  2  0
 23 24  1  0
 23  5  1  0
 20  9  2  0
 17 11  1  0
  1 25  1  0
  1 26  1  0
  1 27  1  0
  2 28  1  0
  2 29  1  0
  3 30  1  0
  3 31  1  0
  4 32  1  0
  4 33  1  0
  6 34  1  0
  7 35  1  0
 12 36  1  0
 13 37  1  0
 14 38  1  0
 16 39  1  0
 21 40  1  0
 22 41  1  0
 24 42  1  0
 24 43  1  0
 24 44  1  0
M  END
>  <meeko>  (7) 
{"is_sidechain": [false], "free_energy": -8.325, "intermolecular_energy": -11.369, "internal_energy": -0.004}

$$$$
cand_052_out
     RDKit          3D

 44 46  0  0  0  0  0  0  0  0999 V2000
   50.2070  160.8150   32.2230 C   0  0  0  0  0  0  0  0  0  0  0  0
   51.3440  161.2370   31.3070 C   0  0  0  0  0  0  0  0  0  0  0  0
   51.8160  160.0780   30.4270 C   0  0  0  0  0  0  0  0  0  0  0  0
   50.8140  158.9200   30.4530 C   0  0  0  0  0  0  0  0  0  0  0  0
   51.2590  157.7740   29.5710 C   0  0  0  0  0  0  0  0  0  0  0  0
   52.4800  157.8930   28.8870 C   0  0  0  0  0  0  0  0  0  0  0  0
   52.9400  156.8730   28.0520 C   0  0  0  0  0  0  0  0  0  0  0  0
   52.1950  155.7020   27.8780 C   0  0  0  0  0  0  0  0  0  0  0  0
   52.6470  154.6170   26.9820 C   0  0  0  0  0  0  0  0  0  0  0  0
   52.1650  153.3690   27.3620 O   0  0  0  0  0  0  0  0  0  0  0  0
   52.5070  152.2700   26.6150 C   0  0  0  0  0  0  0  0  0  0  0  0
   51.9910  151.0410   27.0250 C   0  0  0  0  0  0  0  0  0  0  0  0
   52.3020  149.8810   26.3090 C   0  0  0  0  0  0  0  0  0  0  0  0
   53.1290  149.9530   25.1870 C   0  0  0  0  0  0  0  0  0  0  0  0
   53.6430  151.1820   24.7810 C   0  0  0  0  0  0  0  0  0  0  0  0
   54.4470  151.1800   23.6740 O   0  0  0  0  0  0  0  0  0  0  0  0
   53.3310  152.3410   25.4970 C   0  0  0  0  0  0  0  0  0  0  0  0
   53.8500  153.6520   25.1040 C   0  0  0  0  0  0  0  0  0  0  0  0
   54.5900  153.7950   24.1320 O   0  0  0  0  0  0  0  0  0  0  0  0
   53.4530  154.8200   25.9250 C   0  0  0  0  0  0  0  0  0  0  0  0
   53.9610  156.0510   25.5530 O   0  0  0  0  0  0  0  0  0  0  0  0
   50.9680  155.5900   28.5500 C   0  0  0  0  0  0  0  0  0  0  0  0
   50.4860  156.6110   29.3900 C   0  0  0  0  0  0  0  0  0  0  0  0
   49.1700  156.4130   30.0920 C   0  0  0  0  0  0  0  0  0  0  0  0
   50.5187  160.9307   33.2716 H   0  0  0  0  0  0  0  0  0  0  0  0
   49.3272  161.4465   32.0302 H   0  0  0  0  0  0  0  0  0  0  0  0
   49.9522  159.7624   32.0302 H   0  0  0  0  0  0  0  0  0  0  0  0
   50.9971  162.0574   30.6615 H   0  0  0  0  0  0  0  0  0  0  0  0
   52.1887  161.5609   31.9328 H   0  0  0  0  0  0  0  0  0  0  0  0
   51.9257  160.4346   29.3922 H   0  0  0  0  0  0  0  0  0  0  0  0
   52.7787  159.7147   30.8158 H   0  0  0  0  0  0  0  0  0  0  0  0
   50.7159  158.5568   31.4867 H   0  0  0  0  0  0  0  0  0  0  0  0
   49.8512  159.2915   30.0722 H   0  0  0  0  0  0  0  0  0  0  0  0
   53.0834  158.8043   29.0112 H   0  0  0  0  0  0  0  0  0  0  0  0
   53.8984  156.9915   27.5254 H   0  0  0  0  0  0  0  0  0  0  0  0
   51.3404  150.9843   27.9102 H   0  0  0  0  0  0  0  0  0  0  0  0
   51.8946  148.9110   26.6302 H   0  0  0  0  0  0  0  0  0  0  0  0
   53.3745  149.0403   24.6242 H   0  0  0  0  0  0  0  0  0  0  0  0
   54.6240  150.3780   23.2240 H   0  0  0  0  0  0  0  0  0  0  0  0
   53.5120  156.5690   24.9140 H   0  0  0  0  0  0  0  0  0  0  0  0
   50.3664  154.6789   28.4164 H   0  0  0  0  0  0  0  0  0  0  0  0
   49.3278  156.4367   31.1804 H   0  0  0  0  0  0  0  0  0  0  0  0
   48.4764  157.2169   29.8044 H   0  0  0  0  0  0  0  0  0  0  0  0
   48.7437  155.4406   29.8044 H   0  0  0  0  0  0  0  0  0  0  0  0
  1  2  1  0
  2  3  1  0
  3  4  1  0
  4  5  1  0
  5  6  2  0
  6  7  1  0
  7  8  2  0
  8  9  1  0
  9 10  1  0
 10 11  1  0
 11 12  2  0
 12 13  1  0
 13 14  2  0
 14 15  1  0
 15 16  1  0
 15 17  2  0
 17 18  1  0
 18 19  2  0
 18 20  1  0
 20 21  1  0
  8 22  1  0
 22 23  2  0
 23 24  1  0
 23  5  1  0
 20  9  2  0
 17 11  1  0
  1 25  1  0
  1 26  1  0
  1 27  1  0
  2 28  1  0
  2 29  1  0
  3 30  1  0
  3 31  1  0
  4 32  1  0
  4 33  1  0
  6 34  1  0
  7 35  1  0
 12 36  1  0
 13 37  1  0
 14 38  1  0
 16 39  1  0
 21 40  1  0
 22 41  1  0
 24 42  1  0
 24 43  1  0
 24 44  1  0
M  END
>  <meeko>  (8) 
{"is_sidechain": [false], "free_energy": -7.825, "intermolecular_energy": -10.601, "internal_energy": -0.128}

$$$$
