cand_055_out
     RDKit          3D

 41 43  0  0  0  0  0  0  0  0999 V2000
   48.6920  161.5230   33.6870 C   0  0  0  0  0  0  0  0  0  0  0  0
   50.0130  161.1520   33.0320 C   0  0  0  0  0  0  0  0  0  0  0  0
   49.9330  161.2710   31.5090 C   0  0  0  0  0  0  0  0  0  0  0  0
   50.4030  160.0080   30.8210 C   0  0  0  0  0  0  0  0  0  0  0  0
   51.7270  159.9560   30.3540 C   0  0  0  0  0  0  0  0  0  0  0  0
   52.2160  158.8210   29.7030 C   0  0  0  0  0  0  0  0  0  0  0  0
   51.3980  157.7050   29.5040 C   0  0  0  0  0  0  0  0  0  0  0  0
   51.8840  156.5010   28.7970 C   0  0  0  0  0  0  0  0  0  0  0  0
   52.4630  156.7930   27.5670 O   0  0  0  0  0  0  0  0  0  0  0  0
   52.9560  155.7660   26.8050 C   0  0  0  0  0  0  0  0  0  0  0  0
   53.5420  156.1070   25.5840 C   0  0  0  0  0  0  0  0  0  0  0  0
   54.0620  155.1090   24.7580 C   0  0  0  0  0  0  0  0  0  0  0  0
   53.9960  153.7700   25.1510 C   0  0  0  0  0  0  0  0  0  0  0  0
   53.4120  153.4330   26.3690 C   0  0  0  0  0  0  0  0  0  0  0  0
   53.3790  152.1040   26.6910 O   0  0  0  0  0  0  0  0  0  0  0  0
   52.8910  154.4330   27.1960 C   0  0  0  0  0  0  0  0  0  0  0  0
   52.2680  154.1210   28.4830 C   0  0  0  0  0  0  0  0  0  0  0  0
   52.1670  152.9670   28.8940 O   0  0  0  0  0  0  0  0  0  0  0  0
   51.7550  155.2540   29.2870 C   0  0  0  0  0  0  0  0  0  0  0  0
   51.1560  154.9460   30.4960 O   0  0  0  0  0  0  0  0  0  0  0  0
   50.0720  157.7620   29.9570 C   0  0  0  0  0  0  0  0  0  0  0  0
   49.5590  158.9000   30.6090 C   0  0  0  0  0  0  0  0  0  0  0  0
   48.1320  158.8840   31.0830 C   0  0  0  0  0  0  0  0  0  0  0  0
   48.8036  161.4917   34.7809 H   0  0  0  0  0  0  0  0  0  0  0  0
   48.4012  162.5376   33.3770 H   0  0  0  0  0  0  0  0  0  0  0  0
   47.9155  160.8082   33.3770 H   0  0  0  0  0  0  0  0  0  0  0  0
   50.7985  161.8267   33.4030 H   0  0  0  0  0  0  0  0  0  0  0  0
   50.2443  160.1071   33.2862 H   0  0  0  0  0  0  0  0  0  0  0  0
   48.8893  161.4657   31.2215 H   0  0  0  0  0  0  0  0  0  0  0  0
   50.5900  162.0957   31.1956 H   0  0  0  0  0  0  0  0  0  0  0  0
   52.3885  160.8221   30.5033 H   0  0  0  0  0  0  0  0  0  0  0  0
   53.2554  158.8052   29.3432 H   0  0  0  0  0  0  0  0  0  0  0  0
   53.5937  157.1610   25.2735 H   0  0  0  0  0  0  0  0  0  0  0  0
   54.5243  155.3772   23.7966 H   0  0  0  0  0  0  0  0  0  0  0  0
   54.4046  152.9836   24.4994 H   0  0  0  0  0  0  0  0  0  0  0  0
   53.8690  151.7870   27.4240 H   0  0  0  0  0  0  0  0  0  0  0  0
   51.3390  154.1280   30.9130 H   0  0  0  0  0  0  0  0  0  0  0  0
   49.4148  156.8942   29.7988 H   0  0  0  0  0  0  0  0  0  0  0  0
   48.1109  158.8838   32.1828 H   0  0  0  0  0  0  0  0  0  0  0  0
   47.6105  159.7764   30.7065 H   0  0  0  0  0  0  0  0  0  0  0  0
   47.6307  157.9802   30.7065 H   0  0  0  0  0  0  0  0  0  0  0  0
  1  2  1  0
  2  3  1  0
  3  4  1  0
  4  5  2  0
  5  6  1  0
  6  7  2  0
  7  8  1  0
  8  9  1  0
  9 10  1  0
 10 11  2  0
 11 12  1  0
 12 13  2  0
 13 14  1  0
 14 15  1  0
 14 16  2  0
 16 17  1  0
 17 18  2  0
 17 19  1  0
 19 20  1  0
  7 21  1  0
 21 22  2  0
 22 23  1  0
 22  4  1  0
 19  8  2  0
 16 10  1  0
  1 24  1  0
  1 25  1  0
  1 26  1  0
  2 27  1  0
  2 28  1  0
  3 29  1  0
  3 30  1  0
  5 31  1  0
  6 32  1  0
 11 33  1  0
 12 34  1  0
 13 35  1  0
 15 36  1  0
 20 37  1  0
 21 38  1  0
 23 39  1  0
 23 40  1  0
 23 41  1  0
M  END
>  <meeko>  (1) 
{"is_sidechain": [false], "free_energy": -10.858, "intermolecular_energy": -13.397, "internal_energy": -0.317}

$$$$
cand_055_out
     RDKit          3D

 41 43  0  0  0  0  0  0  0  0999 V2000
   52.8990  162.1850   30.8450 C   0  0  0  0  0  0  0  0  0  0  0  0
   52.0960  161.2300   31.7140 C   0  0  0  0  0  0  0  0  0  0  0  0
   50.8670  160.7010   30.9720 C   0  0  0  0  0  0  0  0  0  0  0  0
   51.1400  159.3700   30.3070 C   0  0  0  0  0  0  0  0  0  0  0  0
   52.4100  159.1520   29.7480 C   0  0  0  0  0  0  0  0  0  0  0  0
   52.7200  157.9470   29.1130 C   0  0  0  0  0  0  0  0  0  0  0  0
   51.7720  156.9250   29.0230 C   0  0  0  0  0  0  0  0  0  0  0  0
   52.0660  155.6490   28.3340 C   0  0  0  0  0  0  0  0  0  0  0  0
   52.5770  155.8310   27.0550 O   0  0  0  0  0  0  0  0  0  0  0  0
   52.8940  154.7290   26.3040 C   0  0  0  0  0  0  0  0  0  0  0  0
   53.4190  154.9580   25.0310 C   0  0  0  0  0  0  0  0  0  0  0  0
   53.7610  153.8790   24.2130 C   0  0  0  0  0  0  0  0  0  0  0  0
   53.5780  152.5710   24.6670 C   0  0  0  0  0  0  0  0  0  0  0  0
   53.0550  152.3450   25.9380 C   0  0  0  0  0  0  0  0  0  0  0  0
   52.9010  151.0400   26.3200 O   0  0  0  0  0  0  0  0  0  0  0  0
   52.7140  153.4260   26.7560 C   0  0  0  0  0  0  0  0  0  0  0  0
   52.1610  153.2310   28.0980 C   0  0  0  0  0  0  0  0  0  0  0  0
   51.9640  152.1120   28.5650 O   0  0  0  0  0  0  0  0  0  0  0  0
   51.8380  154.4430   28.8870 C   0  0  0  0  0  0  0  0  0  0  0  0
   51.3050  154.2470   30.1480 O   0  0  0  0  0  0  0  0  0  0  0  0
   50.4980  157.1470   29.5670 C   0  0  0  0  0  0  0  0  0  0  0  0
   50.1660  158.3580   30.2040 C   0  0  0  0  0  0  0  0  0  0  0  0
   48.7870  158.5200   30.7800 C   0  0  0  0  0  0  0  0  0  0  0  0
   53.4741  162.8689   31.4865 H   0  0  0  0  0  0  0  0  0  0  0  0
   53.5893  161.6104   30.2099 H   0  0  0  0  0  0  0  0  0  0  0  0
   52.2145  162.7665   30.2099 H   0  0  0  0  0  0  0  0  0  0  0  0
   52.7353  160.3813   31.9986 H   0  0  0  0  0  0  0  0  0  0  0  0
   51.7541  161.7766   32.6053 H   0  0  0  0  0  0  0  0  0  0  0  0
   50.0435  160.5773   31.6907 H   0  0  0  0  0  0  0  0  0  0  0  0
   50.6033  161.4263   30.1882 H   0  0  0  0  0  0  0  0  0  0  0  0
   53.1723  159.9425   29.8112 H   0  0  0  0  0  0  0  0  0  0  0  0
   53.7205  157.8015   28.6796 H   0  0  0  0  0  0  0  0  0  0  0  0
   53.5633  155.9878   24.6723 H   0  0  0  0  0  0  0  0  0  0  0  0
   54.1750  154.0595   23.2100 H   0  0  0  0  0  0  0  0  0  0  0  0
   53.8463  151.7211   24.0222 H   0  0  0  0  0  0  0  0  0  0  0  0
   52.4910  150.8360   27.1370 H   0  0  0  0  0  0  0  0  0  0  0  0
   50.7320  153.5230   30.3070 H   0  0  0  0  0  0  0  0  0  0  0  0
   49.7388  156.3544   29.4940 H   0  0  0  0  0  0  0  0  0  0  0  0
   48.8453  158.5132   31.8784 H   0  0  0  0  0  0  0  0  0  0  0  0
   48.3581  159.4747   30.4415 H   0  0  0  0  0  0  0  0  0  0  0  0
   48.1485  157.6907   30.4415 H   0  0  0  0  0  0  0  0  0  0  0  0
  1  2  1  0
  2  3  1  0
  3  4  1  0
  4  5  2  0
  5  6  1  0
  6  7  2  0
  7  8  1  0
  8  9  1  0
  9 10  1  0
 10 11  2  0
 11 12  1  0
 12 13  2  0
 13 14  1  0
 14 15  1  0
 14 16  2  0
 16 17  1  0
 17 18  2  0
 17 19  1  0
 19 20  1  0
  7 21  1  0
 21 22  2  0
 22 23  1  0
 22  4  1  0
 19  8  2  0
 16 10  1  0
  1 24  1  0
  1 25  1  0
  1 26  1  0
  2 27  1  0
  2 28  1  0
  3 29  1  0
  3 30  1  0
  5 31  1  0
  6 32  1  0
 11 33  1  0
 12 34  1  0
 13 35  1  0
 15 36  1  0
 20 37  1  0
 21 38  1  0
 23 39  1  0
 23 40  1  0
 23 41  1  0
M  END
>  <meeko>  (2) 
{"is_sidechain": [false], "free_energy": -10.004, "intermolecular_energy": -12.582, "internal_energy": -0.077}

$$$$
cand_055_out
     RDKit          3D

 41 43  0  0  0  0  0  0  0  0999 V2000
   54.3810  151.0790   24.7710 C   0  0  0  0  0  0  0  0  0  0  0  0
   54.2030  152.1440   25.8400 C   0  0  0  0  0  0  0  0  0  0  0  0
   52.7460  152.2350   26.2990 C   0  0  0  0  0  0  0  0  0  0  0  0
   52.4640  153.5330   27.0230 C   0  0  0  0  0  0  0  0  0  0  0  0
   52.0690  153.4740   28.3690 C   0  0  0  0  0  0  0  0  0  0  0  0
   51.7860  154.6370   29.0880 C   0  0  0  0  0  0  0  0  0  0  0  0
   51.8950  155.8930   28.4840 C   0  0  0  0  0  0  0  0  0  0  0  0
   51.5780  157.1390   29.2150 C   0  0  0  0  0  0  0  0  0  0  0  0
   50.2660  157.1780   29.6730 O   0  0  0  0  0  0  0  0  0  0  0  0
   49.8380  158.2790   30.3690 C   0  0  0  0  0  0  0  0  0  0  0  0
   48.5180  158.2690   30.8220 C   0  0  0  0  0  0  0  0  0  0  0  0
   48.0180  159.3600   31.5360 C   0  0  0  0  0  0  0  0  0  0  0  0
   48.8360  160.4610   31.7950 C   0  0  0  0  0  0  0  0  0  0  0  0
   50.1530  160.4680   31.3420 C   0  0  0  0  0  0  0  0  0  0  0  0
   50.8990  161.5780   31.6290 O   0  0  0  0  0  0  0  0  0  0  0  0
   50.6530  159.3750   30.6280 C   0  0  0  0  0  0  0  0  0  0  0  0
   52.0310  159.3430   30.1340 C   0  0  0  0  0  0  0  0  0  0  0  0
   52.8090  160.2760   30.3160 O   0  0  0  0  0  0  0  0  0  0  0  0
   52.4650  158.1350   29.3950 C   0  0  0  0  0  0  0  0  0  0  0  0
   53.7650  158.1210   28.9220 O   0  0  0  0  0  0  0  0  0  0  0  0
   52.2750  155.9520   27.1350 C   0  0  0  0  0  0  0  0  0  0  0  0
   52.5570  154.7890   26.3930 C   0  0  0  0  0  0  0  0  0  0  0  0
   52.9760  154.9300   24.9550 C   0  0  0  0  0  0  0  0  0  0  0  0
   54.5442  150.1023   25.2500 H   0  0  0  0  0  0  0  0  0  0  0  0
   53.4780  151.0338   24.1445 H   0  0  0  0  0  0  0  0  0  0  0  0
   55.2497  151.3299   24.1445 H   0  0  0  0  0  0  0  0  0  0  0  0
   54.8357  151.8932   26.7042 H   0  0  0  0  0  0  0  0  0  0  0  0
   54.4933  153.1154   25.4132 H   0  0  0  0  0  0  0  0  0  0  0  0
   52.0906  152.1693   25.4180 H   0  0  0  0  0  0  0  0  0  0  0  0
   52.5555  151.4064   26.9969 H   0  0  0  0  0  0  0  0  0  0  0  0
   51.9811  152.4961   28.8650 H   0  0  0  0  0  0  0  0  0  0  0  0
   51.4741  154.5642   30.1403 H   0  0  0  0  0  0  0  0  0  0  0  0
   47.8721  157.4026   30.6168 H   0  0  0  0  0  0  0  0  0  0  0  0
   46.9782  159.3517   31.8948 H   0  0  0  0  0  0  0  0  0  0  0  0
   48.4413  161.3212   32.3556 H   0  0  0  0  0  0  0  0  0  0  0  0
   50.7140  162.3910   31.2010 H   0  0  0  0  0  0  0  0  0  0  0  0
   54.4620  158.4400   29.4600 H   0  0  0  0  0  0  0  0  0  0  0  0
   52.3548  156.9329   26.6437 H   0  0  0  0  0  0  0  0  0  0  0  0
   54.0177  155.2805   24.9093 H   0  0  0  0  0  0  0  0  0  0  0  0
   52.8948  153.9550   24.4521 H   0  0  0  0  0  0  0  0  0  0  0  0
   52.3219  155.6575   24.4521 H   0  0  0  0  0  0  0  0  0  0  0  0
  1  2  1  0
  2  3  1  0
  3  4  1  0
  4  5  2  0
  5  6  1  0
  6  7  2  0
  7  8  1  0
  8  9  1  0
  9 10  1  0
 10 11  2  0
 11 12  1  0
 12 13  2  0
 13 14  1  0
 14 15  1  0
 14 16  2  0
 16 17  1  0
 17 18  2  0
 17 19  1  0
 19 20  1  0
  7 21  1  0
 21 22  2  0
 22 23  1  0
 22  4  1  0
 19  8  2  0
 16 10  1  0
  1 24  1  0
  1 25  1  0
  1 26  1  0
  2 27  1  0
  2 28  1  0
  3 29  1  0
  3 30  1  0
  5 31  1  0
  6 32  1  0
 11 33  1  0
 12 34  1  0
 13 35  1  0
 15 36  1  0
 20 37  1  0
 21 38  1  0
 23 39  1  0
 23 40  1  0
 23 41  1  0
M  END
>  <meeko>  (3) 
{"is_sidechain": [false], "free_energy": -9.961, "intermolecular_energy": -12.529, "internal_energy": -0.078}

$$$$
cand_055_out
     RDKit          3D

 41 43  0  0  0  0  0  0  0  0999 V2000
   54.0590  153.3350   24.0000 C   0  0  0  0  0  0  0  0  0  0  0  0
   53.1860  154.2330   24.8620 C   0  0  0  0  0  0  0  0  0  0  0  0
   53.3080  153.8720   26.3440 C   0  0  0  0  0  0  0  0  0  0  0  0
   52.7890  154.9780   27.2370 C   0  0  0  0  0  0  0  0  0  0  0  0
   53.0060  156.3090   26.8440 C   0  0  0  0  0  0  0  0  0  0  0  0
   52.5590  157.3730   27.6310 C   0  0  0  0  0  0  0  0  0  0  0  0
   51.8780  157.1370   28.8290 C   0  0  0  0  0  0  0  0  0  0  0  0
   51.4160  158.2450   29.6920 C   0  0  0  0  0  0  0  0  0  0  0  0
   50.0750  158.1320   30.0440 O   0  0  0  0  0  0  0  0  0  0  0  0
   49.5160  159.0940   30.8450 C   0  0  0  0  0  0  0  0  0  0  0  0
   48.1710  158.9330   31.1850 C   0  0  0  0  0  0  0  0  0  0  0  0
   47.5400  159.8780   31.9960 C   0  0  0  0  0  0  0  0  0  0  0  0
   48.2510  160.9850   32.4660 C   0  0  0  0  0  0  0  0  0  0  0  0
   49.5920  161.1420   32.1250 C   0  0  0  0  0  0  0  0  0  0  0  0
   50.2280  162.2490   32.6180 O   0  0  0  0  0  0  0  0  0  0  0  0
   50.2240  160.1960   31.3140 C   0  0  0  0  0  0  0  0  0  0  0  0
   51.6310  160.3250   30.9320 C   0  0  0  0  0  0  0  0  0  0  0  0
   52.3210  161.2730   31.3000 O   0  0  0  0  0  0  0  0  0  0  0  0
   52.2080  159.2630   30.0750 C   0  0  0  0  0  0  0  0  0  0  0  0
   53.5350  159.4030   29.7110 O   0  0  0  0  0  0  0  0  0  0  0  0
   51.6750  155.8080   29.2290 C   0  0  0  0  0  0  0  0  0  0  0  0
   52.1250  154.7230   28.4530 C   0  0  0  0  0  0  0  0  0  0  0  0
   51.8560  153.3250   28.9350 C   0  0  0  0  0  0  0  0  0  0  0  0
   54.6794  152.6968   24.6464 H   0  0  0  0  0  0  0  0  0  0  0  0
   53.4206  152.7032   23.3650 H   0  0  0  0  0  0  0  0  0  0  0  0
   54.7086  153.9553   23.3650 H   0  0  0  0  0  0  0  0  0  0  0  0
   53.4984  155.2783   24.7211 H   0  0  0  0  0  0  0  0  0  0  0  0
   52.1383  154.0948   24.5565 H   0  0  0  0  0  0  0  0  0  0  0  0
   52.7280  152.9574   26.5365 H   0  0  0  0  0  0  0  0  0  0  0  0
   54.3733  153.7203   26.5721 H   0  0  0  0  0  0  0  0  0  0  0  0
   53.5358  156.5165   25.9026 H   0  0  0  0  0  0  0  0  0  0  0  0
   52.7447  158.4070   27.3049 H   0  0  0  0  0  0  0  0  0  0  0  0
   47.6096  158.0627   30.8143 H   0  0  0  0  0  0  0  0  0  0  0  0
   46.4811  159.7508   32.2654 H   0  0  0  0  0  0  0  0  0  0  0  0
   47.7530  161.7304   33.1035 H   0  0  0  0  0  0  0  0  0  0  0  0
   50.2040  163.0550   32.1410 H   0  0  0  0  0  0  0  0  0  0  0  0
   53.7630  159.9160   28.9610 H   0  0  0  0  0  0  0  0  0  0  0  0
   51.1499  155.6081   30.1747 H   0  0  0  0  0  0  0  0  0  0  0  0
   51.8532  153.3105   30.0349 H   0  0  0  0  0  0  0  0  0  0  0  0
   50.8770  152.9904   28.5614 H   0  0  0  0  0  0  0  0  0  0  0  0
   52.6409  152.6510   28.5614 H   0  0  0  0  0  0  0  0  0  0  0  0
  1  2  1  0
  2  3  1  0
  3  4  1  0
  4  5  2  0
  5  6  1  0
  6  7  2  0
  7  8  1  0
  8  9  1  0
  9 10  1  0
 10 11  2  0
 11 12  1  0
 12 13  2  0
 13 14  1  0
 14 15  1  0
 14 16  2  0
 16 17  1  0
 17 18  2  0
 17 19  1  0
 19 20  1  0
  7 21  1  0
 21 22  2  0
 22 23  1  0
 22  4  1  0
 19  8  2  0
 16 10  1  0
  1 24  1  0
  1 25  1  0
  1 26  1  0
  2 27  1  0
  2 28  1  0
  3 29  1  0
  3 30  1  0
  5 31  1  0
  6 32  1  0
 11 33  1  0
 12 34  1  0
 13 35  1  0
 15 36  1  0
 20 37  1  0
 21 38  1  0
 23 39  1  0
 23 40  1  0
 23 41  1  0
M  END
>  <meeko>  (4) 
{"is_sidechain": [false], "free_energy": -9.54, "intermolecular_energy": -11.797, "internal_energy": -0.291}

$$$$
cand_055_out
     RDKit          3D

 41 43  0  0  0  0  0  0  0  0999 V2000
   53.3900  150.9740   25.5600 C   0  0  0  0  0  0  0  0  0  0  0  0
   52.6880  152.1380   26.2410 C   0  0  0  0  0  0  0  0  0  0  0  0
   53.6150  153.3480   26.3730 C   0  0  0  0  0  0  0  0  0  0  0  0
   52.9750  154.4620   27.1720 C   0  0  0  0  0  0  0  0  0  0  0  0
   52.2770  154.1260   28.3440 C   0  0  0  0  0  0  0  0  0  0  0  0
   51.6570  155.1090   29.1190 C   0  0  0  0  0  0  0  0  0  0  0  0
   51.7210  156.4550   28.7470 C   0  0  0  0  0  0  0  0  0  0  0  0
   51.0530  157.5130   29.5360 C   0  0  0  0  0  0  0  0  0  0  0  0
   51.8930  158.5820   29.8270 O   0  0  0  0  0  0  0  0  0  0  0  0
   51.4010  159.6340   30.5540 C   0  0  0  0  0  0  0  0  0  0  0  0
   52.2750  160.6920   30.8100 C   0  0  0  0  0  0  0  0  0  0  0  0
   51.8380  161.7950   31.5470 C   0  0  0  0  0  0  0  0  0  0  0  0
   50.5270  161.8400   32.0280 C   0  0  0  0  0  0  0  0  0  0  0  0
   49.6570  160.7830   31.7700 C   0  0  0  0  0  0  0  0  0  0  0  0
   48.3890  160.8920   32.2720 O   0  0  0  0  0  0  0  0  0  0  0  0
   50.0960  159.6800   31.0330 C   0  0  0  0  0  0  0  0  0  0  0  0
   49.2130  158.5490   30.7410 C   0  0  0  0  0  0  0  0  0  0  0  0
   48.0500  158.5130   31.1350 O   0  0  0  0  0  0  0  0  0  0  0  0
   49.7730  157.4320   29.9440 C   0  0  0  0  0  0  0  0  0  0  0  0
   48.9340  156.3640   29.6850 O   0  0  0  0  0  0  0  0  0  0  0  0
   52.4050  156.7890   27.5680 C   0  0  0  0  0  0  0  0  0  0  0  0
   53.0290  155.8110   26.7720 C   0  0  0  0  0  0  0  0  0  0  0  0
   53.7590  156.2440   25.5300 C   0  0  0  0  0  0  0  0  0  0  0  0
   53.7992  150.2955   26.3230 H   0  0  0  0  0  0  0  0  0  0  0  0
   52.6702  150.4283   24.9321 H   0  0  0  0  0  0  0  0  0  0  0  0
   54.2085  151.3560   24.9321 H   0  0  0  0  0  0  0  0  0  0  0  0
   51.8087  152.4239   25.6451 H   0  0  0  0  0  0  0  0  0  0  0  0
   52.3883  151.8194   27.2503 H   0  0  0  0  0  0  0  0  0  0  0  0
   54.5405  153.0341   26.8779 H   0  0  0  0  0  0  0  0  0  0  0  0
   53.8253  153.7292   25.3628 H   0  0  0  0  0  0  0  0  0  0  0  0
   52.2178  153.0729   28.6561 H   0  0  0  0  0  0  0  0  0  0  0  0
   51.1132  154.8211   30.0308 H   0  0  0  0  0  0  0  0  0  0  0  0
   53.3072  160.6570   30.4315 H   0  0  0  0  0  0  0  0  0  0  0  0
   52.5264  162.6288   31.7489 H   0  0  0  0  0  0  0  0  0  0  0  0
   50.1826  162.7081   32.6091 H   0  0  0  0  0  0  0  0  0  0  0  0
   48.0370  160.2070   32.8060 H   0  0  0  0  0  0  0  0  0  0  0  0
   49.2840  155.5680   29.3370 H   0  0  0  0  0  0  0  0  0  0  0  0
   52.4546  157.8433   27.2580 H   0  0  0  0  0  0  0  0  0  0  0  0
   54.6734  156.7864   25.8124 H   0  0  0  0  0  0  0  0  0  0  0  0
   54.0269  155.3587   24.9347 H   0  0  0  0  0  0  0  0  0  0  0  0
   53.1105  156.9036   24.9347 H   0  0  0  0  0  0  0  0  0  0  0  0
  1  2  1  0
  2  3  1  0
  3  4  1  0
  4  5  2  0
  5  6  1  0
  6  7  2  0
  7  8  1  0
  8  9  1  0
  9 10  1  0
 10 11  2  0
 11 12  1  0
 12 13  2  0
 13 14  1  0
 14 15  1  0
 14 16  2  0
 16 17  1  0
 17 18  2  0
 17 19  1  0
 19 20  1  0
  7 21  1  0
 21 22  2  0
 22 23  1  0
 22  4  1  0
 19  8  2  0
 16 10  1  0
  1 24  1  0
  1 25  1  0
  1 26  1  0
  2 27  1  0
  2 28  1  0
  3 29  1  0
  3 30  1  0
  5 31  1  0
  6 32  1  0
 11 33  1  0
 12 34  1  0
 13 35  1  0
 15 36  1  0
 20 37  1  0
 21 38  1  0
 23 39  1  0
 23 40  1  0
 23 41  1  0
M  END
>  <meeko>  (5) 
{"is_sidechain": [false], "free_energy": -9.041, "intermolecular_energy": -11.197, "internal_energy": -0.275}

$$$$
cand_055_out
     RDKit          3D

 41 43  0  0  0  0  0  0  0  0999 V2000
   48.9190  160.6670   29.7890 C   0  0  0  0  0  0  0  0  0  0  0  0
   48.3590  159.4470   30.5010 C   0  0  0  0  0  0  0  0  0  0  0  0
   49.4620  158.6600   31.2110 C   0  0  0  0  0  0  0  0  0  0  0  0
   50.2000  157.7430   30.2600 C   0  0  0  0  0  0  0  0  0  0  0  0
   49.6010  156.5220   29.9120 C   0  0  0  0  0  0  0  0  0  0  0  0
   50.2370  155.6290   29.0460 C   0  0  0  0  0  0  0  0  0  0  0  0
   51.4860  155.9340   28.5000 C   0  0  0  0  0  0  0  0  0  0  0  0
   52.1930  154.9970   27.5990 C   0  0  0  0  0  0  0  0  0  0  0  0
   52.9300  155.6450   26.6150 O   0  0  0  0  0  0  0  0  0  0  0  0
   53.6360  154.8940   25.7110 C   0  0  0  0  0  0  0  0  0  0  0  0
   54.3730  155.5870   24.7500 C   0  0  0  0  0  0  0  0  0  0  0  0
   55.1130  154.8820   23.7980 C   0  0  0  0  0  0  0  0  0  0  0  0
   55.1150  153.4850   23.8060 C   0  0  0  0  0  0  0  0  0  0  0  0
   54.3780  152.7970   24.7670 C   0  0  0  0  0  0  0  0  0  0  0  0
   54.4230  151.4310   24.7170 O   0  0  0  0  0  0  0  0  0  0  0  0
   53.6390  153.5030   25.7200 C   0  0  0  0  0  0  0  0  0  0  0  0
   52.8510  152.8180   26.7460 C   0  0  0  0  0  0  0  0  0  0  0  0
   52.7970  151.5920   26.8140 O   0  0  0  0  0  0  0  0  0  0  0  0
   52.1080  153.6590   27.7140 C   0  0  0  0  0  0  0  0  0  0  0  0
   51.3570  153.0000   28.6710 O   0  0  0  0  0  0  0  0  0  0  0  0
   52.0920  157.1480   28.8590 C   0  0  0  0  0  0  0  0  0  0  0  0
   51.4700  158.0560   29.7360 C   0  0  0  0  0  0  0  0  0  0  0  0
   52.1700  159.3450   30.0630 C   0  0  0  0  0  0  0  0  0  0  0  0
   49.2568  161.4030   30.5334 H   0  0  0  0  0  0  0  0  0  0  0  0
   49.7690  160.3659   29.1591 H   0  0  0  0  0  0  0  0  0  0  0  0
   48.1365  161.1153   29.1591 H   0  0  0  0  0  0  0  0  0  0  0  0
   47.6181  159.7754   31.2448 H   0  0  0  0  0  0  0  0  0  0  0  0
   47.8940  158.7911   29.7503 H   0  0  0  0  0  0  0  0  0  0  0  0
   50.1791  159.3692   31.6500 H   0  0  0  0  0  0  0  0  0  0  0  0
   48.9926  158.0396   31.9887 H   0  0  0  0  0  0  0  0  0  0  0  0
   48.6156  156.2644   30.3276 H   0  0  0  0  0  0  0  0  0  0  0  0
   49.7494  154.6764   28.7916 H   0  0  0  0  0  0  0  0  0  0  0  0
   54.3712  156.6870   24.7422 H   0  0  0  0  0  0  0  0  0  0  0  0
   55.6951  155.4276   23.0408 H   0  0  0  0  0  0  0  0  0  0  0  0
   55.6970  152.9300   23.0555 H   0  0  0  0  0  0  0  0  0  0  0  0
   54.4210  150.9330   25.5110 H   0  0  0  0  0  0  0  0  0  0  0  0
   50.6070  152.5000   28.4150 H   0  0  0  0  0  0  0  0  0  0  0  0
   53.0798  157.3964   28.4436 H   0  0  0  0  0  0  0  0  0  0  0  0
   52.2331  159.4612   31.1550 H   0  0  0  0  0  0  0  0  0  0  0  0
   53.1839  159.3300   29.6367 H   0  0  0  0  0  0  0  0  0  0  0  0
   51.6054  160.1873   29.6367 H   0  0  0  0  0  0  0  0  0  0  0  0
  1  2  1  0
  2  3  1  0
  3  4  1  0
  4  5  2  0
  5  6  1  0
  6  7  2  0
  7  8  1  0
  8  9  1  0
  9 10  1  0
 10 11  2  0
 11 12  1  0
 12 13  2  0
 13 14  1  0
 14 15  1  0
 14 16  2  0
 16 17  1  0
 17 18  2  0
 17 19  1  0
 19 20  1  0
  7 21  1  0
 21 22  2  0
 22 23  1  0
 22  4  1  0
 19  8  2  0
 16 10  1  0
  1 24  1  0
  1 25  1  0
  1 26  1  0
  2 27  1  0
  2 28  1  0
  3 29  1  0
  3 30  1  0
  5 31  1  0
  6 32  1  0
 11 33  1  0
 12 34  1  0
 13 35  1  0
 15 36  1  0
 20 37  1  0
 21 38  1  0
 23 39  1  0
 23 40  1  0
 23 41  1  0
M  END
>  <meeko>  (6) 
{"is_sidechain": [false], "free_energy": -8.977, "intermolecular_energy": -11.216, "internal_energy": -0.176}

$$$$
cand_055_out
     RDKit          3D

 41 43  0  0  0  0  0  0  0  0999 V2000
   48.7090  160.3990   30.1000 C   0  0  0  0  0  0  0  0  0  0  0  0
   48.3040  159.0030   30.5450 C   0  0  0  0  0  0  0  0  0  0  0  0
   49.4830  158.2500   31.1620 C   0  0  0  0  0  0  0  0  0  0  0  0
   50.2630  157.4770   30.1230 C   0  0  0  0  0  0  0  0  0  0  0  0
   49.7670  156.2300   29.7080 C   0  0  0  0  0  0  0  0  0  0  0  0
   50.4470  155.4640   28.7580 C   0  0  0  0  0  0  0  0  0  0  0  0
   51.6400  155.9250   28.1920 C   0  0  0  0  0  0  0  0  0  0  0  0
   52.3920  155.1240   27.2030 C   0  0  0  0  0  0  0  0  0  0  0  0
   52.1110  153.7650   27.2820 O   0  0  0  0  0  0  0  0  0  0  0  0
   52.7420  152.9050   26.4200 C   0  0  0  0  0  0  0  0  0  0  0  0
   52.4190  151.5510   26.5240 C   0  0  0  0  0  0  0  0  0  0  0  0
   53.0270  150.6220   25.6770 C   0  0  0  0  0  0  0  0  0  0  0  0
   53.9580  151.0460   24.7270 C   0  0  0  0  0  0  0  0  0  0  0  0
   54.2780  152.3980   24.6240 C   0  0  0  0  0  0  0  0  0  0  0  0
   55.1980  152.7440   23.6730 O   0  0  0  0  0  0  0  0  0  0  0  0
   53.6690  153.3270   25.4720 C   0  0  0  0  0  0  0  0  0  0  0  0
   53.9770  154.7560   25.3970 C   0  0  0  0  0  0  0  0  0  0  0  0
   54.7900  155.2050   24.5920 O   0  0  0  0  0  0  0  0  0  0  0  0
   53.2710  155.6590   26.3350 C   0  0  0  0  0  0  0  0  0  0  0  0
   53.5810  157.0050   26.2640 O   0  0  0  0  0  0  0  0  0  0  0  0
   52.1440  157.1630   28.6180 C   0  0  0  0  0  0  0  0  0  0  0  0
   51.4760  157.9450   29.5790 C   0  0  0  0  0  0  0  0  0  0  0  0
   52.0660  159.2700   29.9750 C   0  0  0  0  0  0  0  0  0  0  0  0
   48.8913  161.0273   30.9843 H   0  0  0  0  0  0  0  0  0  0  0  0
   49.6270  160.3397   29.4968 H   0  0  0  0  0  0  0  0  0  0  0  0
   47.9018  160.8402   29.4968 H   0  0  0  0  0  0  0  0  0  0  0  0
   47.5009  159.0845   31.2923 H   0  0  0  0  0  0  0  0  0  0  0  0
   47.9604  158.4443   29.6620 H   0  0  0  0  0  0  0  0  0  0  0  0
   50.1549  158.9750   31.6447 H   0  0  0  0  0  0  0  0  0  0  0  0
   49.0841  157.5318   31.8934 H   0  0  0  0  0  0  0  0  0  0  0  0
   48.8282  155.8506   30.1379 H   0  0  0  0  0  0  0  0  0  0  0  0
   50.0402  154.4888   28.4522 H   0  0  0  0  0  0  0  0  0  0  0  0
   51.6860  151.2160   27.2727 H   0  0  0  0  0  0  0  0  0  0  0  0
   52.7721  149.5550   25.7584 H   0  0  0  0  0  0  0  0  0  0  0  0
   54.4380  150.3139   24.0610 H   0  0  0  0  0  0  0  0  0  0  0  0
   55.1050  153.5490   23.2020 H   0  0  0  0  0  0  0  0  0  0  0  0
   54.4360  157.3020   26.5030 H   0  0  0  0  0  0  0  0  0  0  0  0
   53.0871  157.5327   28.1892 H   0  0  0  0  0  0  0  0  0  0  0  0
   52.0988  159.3436   31.0720 H   0  0  0  0  0  0  0  0  0  0  0  0
   53.0859  159.3526   29.5713 H   0  0  0  0  0  0  0  0  0  0  0  0
   51.4450  160.0833   29.5713 H   0  0  0  0  0  0  0  0  0  0  0  0
  1  2  1  0
  2  3  1  0
  3  4  1  0
  4  5  2  0
  5  6  1  0
  6  7  2  0
  7  8  1  0
  8  9  1  0
  9 10  1  0
 10 11  2  0
 11 12  1  0
 12 13  2  0
 13 14  1  0
 14 15  1  0
 14 16  2  0
 16 17  1  0
 17 18  2  0
 17 19  1  0
 19 20  1  0
  7 21  1  0
 21 22  2  0
 22 23  1  0
 22  4  1  0
 19  8  2  0
 16 10  1  0
  1 24  1  0
  1 25  1  0
  1 26  1  0
  2 27  1  0
  2 28  1  0
  3 29  1  0
  3 30  1  0
  5 31  1  0
  6 32  1  0
 11 33  1  0
 12 34  1  0
 13 35  1  0
 15 36  1  0
 20 37  1  0
 21 38  1  0
 23 39  1  0
 23 40  1  0
 23 41  1  0
M  END
>  <meeko>  (7) 
{"is_sidechain": [false], "free_energy": -8.882, "intermolecular_energy": -11.227, "internal_energy": -0.048}

$$$$
cand_055_out
     RDKit          3D

 41 43  0  0  0  0  0  0  0  0999 V2000
   54.1330  152.9240   23.6820 C   0  0  0  0  0  0  0  0  0  0  0  0
   53.4810  153.9690   24.5720 C   0  0  0  0  0  0  0  0  0  0  0  0
   53.6900  153.6490   26.0540 C   0  0  0  0  0  0  0  0  0  0  0  0
   52.9990  154.6530   26.9490 C   0  0  0  0  0  0  0  0  0  0  0  0
   53.2090  156.0200   26.7040 C   0  0  0  0  0  0  0  0  0  0  0  0
   52.6060  156.9950   27.5030 C   0  0  0  0  0  0  0  0  0  0  0  0
   51.7730  156.6310   28.5640 C   0  0  0  0  0  0  0  0  0  0  0  0
   51.1410  157.6420   29.4400 C   0  0  0  0  0  0  0  0  0  0  0  0
   51.9790  158.7170   29.7160 O   0  0  0  0  0  0  0  0  0  0  0  0
   51.5180  159.7290   30.5180 C   0  0  0  0  0  0  0  0  0  0  0  0
   52.3870  160.7950   30.7570 C   0  0  0  0  0  0  0  0  0  0  0  0
   51.9810  161.8570   31.5660 C   0  0  0  0  0  0  0  0  0  0  0  0
   50.7070  161.8540   32.1380 C   0  0  0  0  0  0  0  0  0  0  0  0
   49.8420  160.7900   31.8980 C   0  0  0  0  0  0  0  0  0  0  0  0
   48.6100  160.8500   32.4900 O   0  0  0  0  0  0  0  0  0  0  0  0
   50.2490  159.7270   31.0870 C   0  0  0  0  0  0  0  0  0  0  0  0
   49.3700  158.5890   30.8100 C   0  0  0  0  0  0  0  0  0  0  0  0
   48.2380  158.5110   31.2820 O   0  0  0  0  0  0  0  0  0  0  0  0
   49.8940  157.5170   29.9320 C   0  0  0  0  0  0  0  0  0  0  0  0
   49.0600  156.4410   29.6870 O   0  0  0  0  0  0  0  0  0  0  0  0
   51.5750  155.2660   28.8190 C   0  0  0  0  0  0  0  0  0  0  0  0
   52.1810  154.2700   28.0290 C   0  0  0  0  0  0  0  0  0  0  0  0
   51.9100  152.8260   28.3500 C   0  0  0  0  0  0  0  0  0  0  0  0
   54.6118  152.1565   24.3079 H   0  0  0  0  0  0  0  0  0  0  0  0
   53.3676  152.4541   23.0469 H   0  0  0  0  0  0  0  0  0  0  0  0
   54.8916  153.4049   23.0469 H   0  0  0  0  0  0  0  0  0  0  0  0
   53.9227  154.9522   24.3524 H   0  0  0  0  0  0  0  0  0  0  0  0
   52.4002  153.9723   24.3675 H   0  0  0  0  0  0  0  0  0  0  0  0
   53.2845  152.6480   26.2626 H   0  0  0  0  0  0  0  0  0  0  0  0
   54.7691  153.6905   26.2635 H   0  0  0  0  0  0  0  0  0  0  0  0
   53.8578  156.3277   25.8707 H   0  0  0  0  0  0  0  0  0  0  0  0
   52.7889  158.0595   27.2946 H   0  0  0  0  0  0  0  0  0  0  0  0
   53.3911  160.7978   30.3079 H   0  0  0  0  0  0  0  0  0  0  0  0
   52.6653  162.6976   31.7534 H   0  0  0  0  0  0  0  0  0  0  0  0
   50.3877  162.6906   32.7768 H   0  0  0  0  0  0  0  0  0  0  0  0
   47.8360  160.7290   31.9750 H   0  0  0  0  0  0  0  0  0  0  0  0
   48.3120  156.5460   29.1340 H   0  0  0  0  0  0  0  0  0  0  0  0
   50.9297  154.9657   29.6577 H   0  0  0  0  0  0  0  0  0  0  0  0
   51.8848  152.6915   29.4415 H   0  0  0  0  0  0  0  0  0  0  0  0
   50.9408  152.5308   27.9217 H   0  0  0  0  0  0  0  0  0  0  0  0
   52.7062  152.1995   27.9217 H   0  0  0  0  0  0  0  0  0  0  0  0
  1  2  1  0
  2  3  1  0
  3  4  1  0
  4  5  2  0
  5  6  1  0
  6  7  2  0
  7  8  1  0
  8  9  1  0
  9 10  1  0
 10 11  2  0
 11 12  1  0
 12 13  2  0
 13 14  1  0
 14 15  1  0
 14 16  2  0
 16 17  1  0
 17 18  2  0
 17 19  1  0
 19 20  1  0
  7 21  1  0
 21 22  2  0
 22 23  1  0
 22  4  1  0
 19  8  2  0
 16 10  1  0
  1 24  1  0
  1 25  1  0
  1 26  1  0
  2 27  1  0
  2 28  1  0
  3 29  1  0
  3 30  1  0
  5 31  1  0
  6 32  1  0
 11 33  1  0
 12 34  1  0
 13 35  1  0
 15 36  1  0
 20 37  1  0
 21 38  1  0
 23 39  1  0
 23 40  1  0
 23 41  1  0
M  END
>  <meeko>  (8) 
{"is_sidechain": [false], "free_energy": -8.723, "intermolecular_energy": -10.953, "internal_energy": -0.126}

$$$$
