cand_048_out
     RDKit          3D

 37 39  0  0  0  0  0  0  0  0999 V2000
   50.1020  161.3310   32.9720 C   0  0  0  0  0  0  0  0  0  0  0  0
   50.0740  161.2190   31.6380 C   0  0  0  0  0  0  0  0  0  0  0  0
   50.4840  160.0070   30.9070 C   0  0  0  0  0  0  0  0  0  0  0  0
   51.7650  159.9530   30.3330 C   0  0  0  0  0  0  0  0  0  0  0  0
   52.2070  158.8080   29.6660 C   0  0  0  0  0  0  0  0  0  0  0  0
   51.3870  157.6800   29.5640 C   0  0  0  0  0  0  0  0  0  0  0  0
   51.8600  156.4900   28.8260 C   0  0  0  0  0  0  0  0  0  0  0  0
   52.4510  156.8070   27.6090 O   0  0  0  0  0  0  0  0  0  0  0  0
   52.9340  155.7930   26.8220 C   0  0  0  0  0  0  0  0  0  0  0  0
   53.5040  156.1550   25.6010 C   0  0  0  0  0  0  0  0  0  0  0  0
   54.0160  155.1730   24.7520 C   0  0  0  0  0  0  0  0  0  0  0  0
   53.9600  153.8280   25.1240 C   0  0  0  0  0  0  0  0  0  0  0  0
   53.3890  153.4690   26.3430 C   0  0  0  0  0  0  0  0  0  0  0  0
   53.3670  152.1350   26.6440 O   0  0  0  0  0  0  0  0  0  0  0  0
   52.8760  154.4530   27.1920 C   0  0  0  0  0  0  0  0  0  0  0  0
   52.2690  154.1180   28.4800 C   0  0  0  0  0  0  0  0  0  0  0  0
   52.1880  152.9590   28.8810 O   0  0  0  0  0  0  0  0  0  0  0  0
   51.7470  155.2360   29.3020 C   0  0  0  0  0  0  0  0  0  0  0  0
   51.1880  154.9110   30.5240 O   0  0  0  0  0  0  0  0  0  0  0  0
   50.1070  157.7310   30.1360 C   0  0  0  0  0  0  0  0  0  0  0  0
   49.6500  158.8720   30.8240 C   0  0  0  0  0  0  0  0  0  0  0  0
   48.2840  158.8770   31.3780 C   0  0  0  0  0  0  0  0  0  0  0  0
   47.3050  159.6760   30.9350 C   0  0  0  0  0  0  0  0  0  0  0  0
   49.7809  162.2671   33.4522 H   0  0  0  0  0  0  0  0  0  0  0  0
   50.4461  160.4869   33.5877 H   0  0  0  0  0  0  0  0  0  0  0  0
   49.7243  162.0826   31.0533 H   0  0  0  0  0  0  0  0  0  0  0  0
   52.4302  160.8257   30.4099 H   0  0  0  0  0  0  0  0  0  0  0  0
   53.2108  158.7936   29.2162 H   0  0  0  0  0  0  0  0  0  0  0  0
   53.5498  157.2142   25.3077 H   0  0  0  0  0  0  0  0  0  0  0  0
   54.4641  155.4585   23.7889 H   0  0  0  0  0  0  0  0  0  0  0  0
   54.3658  153.0539   24.4561 H   0  0  0  0  0  0  0  0  0  0  0  0
   53.9520  151.7900   27.2890 H   0  0  0  0  0  0  0  0  0  0  0  0
   50.2980  155.1380   30.7060 H   0  0  0  0  0  0  0  0  0  0  0  0
   49.4437  156.8582   30.0449 H   0  0  0  0  0  0  0  0  0  0  0  0
   48.0559  158.1851   32.2021 H   0  0  0  0  0  0  0  0  0  0  0  0
   46.3064  159.6286   31.3939 H   0  0  0  0  0  0  0  0  0  0  0  0
   47.4994  160.3797   30.1122 H   0  0  0  0  0  0  0  0  0  0  0  0
  1  2  2  0
  2  3  1  0
  3  4  2  0
  4  5  1  0
  5  6  2  0
  6  7  1  0
  7  8  1  0
  8  9  1  0
  9 10  2  0
 10 11  1  0
 11 12  2  0
 12 13  1  0
 13 14  1  0
 13 15  2  0
 15 16  1  0
 16 17  2  0
 16 18  1  0
 18 19  1  0
  6 20  1  0
 20 21  2  0
 21 22  1  0
 22 23  2  0
 21  3  1  0
 18  7  2  0
 15  9  1  0
  1 24  1  0
  1 25  1  0
  2 26  1  0
  4 27  1  0
  5 28  1  0
 10 29  1  0
 11 30  1  0
 12 31  1  0
 14 32  1  0
 19 33  1  0
 20 34  1  0
 22 35  1  0
 23 36  1  0
 23 37  1  0
M  END
>  <meeko>  (1) 
{"is_sidechain": [false], "free_energy": -11.587, "intermolecular_energy": -14.296, "internal_energy": -0.03}

$$$$
cand_048_out
     RDKit          3D

 37 39  0  0  0  0  0  0  0  0999 V2000
   52.2870  152.7170   26.3200 C   0  0  0  0  0  0  0  0  0  0  0  0
   53.0250  153.4660   27.1490 C   0  0  0  0  0  0  0  0  0  0  0  0
   52.5360  154.6920   27.8040 C   0  0  0  0  0  0  0  0  0  0  0  0
   51.7650  154.5830   28.9740 C   0  0  0  0  0  0  0  0  0  0  0  0
   51.3160  155.7220   29.6470 C   0  0  0  0  0  0  0  0  0  0  0  0
   51.6330  157.0010   29.1790 C   0  0  0  0  0  0  0  0  0  0  0  0
   51.1210  158.1930   29.8870 C   0  0  0  0  0  0  0  0  0  0  0  0
   49.7920  158.0640   30.2720 O   0  0  0  0  0  0  0  0  0  0  0  0
   49.1910  159.1010   30.9390 C   0  0  0  0  0  0  0  0  0  0  0  0
   47.8510  158.9350   31.2930 C   0  0  0  0  0  0  0  0  0  0  0  0
   47.1800  159.9520   31.9750 C   0  0  0  0  0  0  0  0  0  0  0  0
   47.8480  161.1320   32.3040 C   0  0  0  0  0  0  0  0  0  0  0  0
   49.1850  161.2960   31.9500 C   0  0  0  0  0  0  0  0  0  0  0  0
   49.7780  162.4760   32.3040 O   0  0  0  0  0  0  0  0  0  0  0  0
   49.8560  160.2780   31.2670 C   0  0  0  0  0  0  0  0  0  0  0  0
   51.2600  160.4090   30.8760 C   0  0  0  0  0  0  0  0  0  0  0  0
   51.9180  161.4140   31.1360 O   0  0  0  0  0  0  0  0  0  0  0  0
   51.8770  159.2760   30.1470 C   0  0  0  0  0  0  0  0  0  0  0  0
   53.2070  159.4030   29.7950 O   0  0  0  0  0  0  0  0  0  0  0  0
   52.4020  157.1120   28.0110 C   0  0  0  0  0  0  0  0  0  0  0  0
   52.8760  155.9750   27.3270 C   0  0  0  0  0  0  0  0  0  0  0  0
   53.6540  156.1560   26.0880 C   0  0  0  0  0  0  0  0  0  0  0  0
   53.1010  156.3220   24.8790 C   0  0  0  0  0  0  0  0  0  0  0  0
   52.7175  151.8125   25.8656 H   0  0  0  0  0  0  0  0  0  0  0  0
   51.2502  153.0062   26.0934 H   0  0  0  0  0  0  0  0  0  0  0  0
   54.0578  153.1471   27.3532 H   0  0  0  0  0  0  0  0  0  0  0  0
   51.5115  153.5867   29.3654 H   0  0  0  0  0  0  0  0  0  0  0  0
   50.7060  155.6114   30.5557 H   0  0  0  0  0  0  0  0  0  0  0  0
   47.3244  158.0043   31.0351 H   0  0  0  0  0  0  0  0  0  0  0  0
   46.1236  159.8228   32.2532 H   0  0  0  0  0  0  0  0  0  0  0  0
   47.3191  161.9321   32.8425 H   0  0  0  0  0  0  0  0  0  0  0  0
   49.4360  163.2870   31.9830 H   0  0  0  0  0  0  0  0  0  0  0  0
   53.8060  159.8330   30.3730 H   0  0  0  0  0  0  0  0  0  0  0  0
   52.6409  158.1117   27.6193 H   0  0  0  0  0  0  0  0  0  0  0  0
   54.7516  156.1547   26.1602 H   0  0  0  0  0  0  0  0  0  0  0  0
   53.7417  156.4519   23.9943 H   0  0  0  0  0  0  0  0  0  0  0  0
   52.0063  156.3284   24.7711 H   0  0  0  0  0  0  0  0  0  0  0  0
  1  2  2  0
  2  3  1  0
  3  4  2  0
  4  5  1  0
  5  6  2  0
  6  7  1  0
  7  8  1  0
  8  9  1  0
  9 10  2  0
 10 11  1  0
 11 12  2  0
 12 13  1  0
 13 14  1  0
 13 15  2  0
 15 16  1  0
 16 17  2  0
 16 18  1  0
 18 19  1  0
  6 20  1  0
 20 21  2  0
 21 22  1  0
 22 23  2  0
 21  3  1  0
 18  7  2  0
 15  9  1  0
  1 24  1  0
  1 25  1  0
  2 26  1  0
  4 27  1  0
  5 28  1  0
 10 29  1  0
 11 30  1  0
 12 31  1  0
 14 32  1  0
 19 33  1  0
 20 34  1  0
 22 35  1  0
 23 36  1  0
 23 37  1  0
M  END
>  <meeko>  (2) 
{"is_sidechain": [false], "free_energy": -10.884, "intermolecular_energy": -13.093, "internal_energy": -0.366}

$$$$
cand_048_out
     RDKit          3D

 37 39  0  0  0  0  0  0  0  0999 V2000
   47.4050  159.9860   31.7960 C   0  0  0  0  0  0  0  0  0  0  0  0
   48.7110  160.1360   31.5430 C   0  0  0  0  0  0  0  0  0  0  0  0
   49.5260  159.1480   30.8140 C   0  0  0  0  0  0  0  0  0  0  0  0
   48.9760  157.8880   30.5220 C   0  0  0  0  0  0  0  0  0  0  0  0
   49.7020  156.9380   29.7980 C   0  0  0  0  0  0  0  0  0  0  0  0
   50.9910  157.2220   29.3370 C   0  0  0  0  0  0  0  0  0  0  0  0
   51.7530  156.1920   28.6010 C   0  0  0  0  0  0  0  0  0  0  0  0
   52.2990  156.6670   27.4150 O   0  0  0  0  0  0  0  0  0  0  0  0
   53.0320  155.8110   26.6320 C   0  0  0  0  0  0  0  0  0  0  0  0
   53.5480  156.3260   25.4420 C   0  0  0  0  0  0  0  0  0  0  0  0
   54.3050  155.5090   24.6000 C   0  0  0  0  0  0  0  0  0  0  0  0
   54.5470  154.1790   24.9490 C   0  0  0  0  0  0  0  0  0  0  0  0
   54.0300  153.6670   26.1370 C   0  0  0  0  0  0  0  0  0  0  0  0
   54.3060  152.3570   26.4160 O   0  0  0  0  0  0  0  0  0  0  0  0
   53.2720  154.4850   26.9790 C   0  0  0  0  0  0  0  0  0  0  0  0
   52.7120  153.9880   28.2360 C   0  0  0  0  0  0  0  0  0  0  0  0
   52.8860  152.8320   28.6140 O   0  0  0  0  0  0  0  0  0  0  0  0
   51.9160  154.9340   29.0520 C   0  0  0  0  0  0  0  0  0  0  0  0
   51.4020  154.4590   30.2440 O   0  0  0  0  0  0  0  0  0  0  0  0
   51.5410  158.4790   29.6280 C   0  0  0  0  0  0  0  0  0  0  0  0
   50.8200  159.4550   30.3430 C   0  0  0  0  0  0  0  0  0  0  0  0
   51.4640  160.7470   30.6440 C   0  0  0  0  0  0  0  0  0  0  0  0
   51.4850  161.3000   31.8630 C   0  0  0  0  0  0  0  0  0  0  0  0
   46.8584  160.7657   32.3467 H   0  0  0  0  0  0  0  0  0  0  0  0
   46.8785  159.0831   31.4532 H   0  0  0  0  0  0  0  0  0  0  0  0
   49.2053  161.0513   31.9006 H   0  0  0  0  0  0  0  0  0  0  0  0
   47.9602  157.6462   30.8680 H   0  0  0  0  0  0  0  0  0  0  0  0
   49.2540  155.9555   29.5885 H   0  0  0  0  0  0  0  0  0  0  0  0
   53.3586  157.3743   25.1677 H   0  0  0  0  0  0  0  0  0  0  0  0
   54.7110  155.9135   23.6611 H   0  0  0  0  0  0  0  0  0  0  0  0
   55.1453  153.5361   24.2866 H   0  0  0  0  0  0  0  0  0  0  0  0
   54.0960  152.0030   27.2580 H   0  0  0  0  0  0  0  0  0  0  0  0
   51.0290  155.0550   30.8640 H   0  0  0  0  0  0  0  0  0  0  0  0
   52.5620  158.7085   29.2890 H   0  0  0  0  0  0  0  0  0  0  0  0
   51.9547  161.2867   29.8206 H   0  0  0  0  0  0  0  0  0  0  0  0
   51.9836  162.2680   32.0193 H   0  0  0  0  0  0  0  0  0  0  0  0
   51.0036  160.7864   32.7083 H   0  0  0  0  0  0  0  0  0  0  0  0
  1  2  2  0
  2  3  1  0
  3  4  2  0
  4  5  1  0
  5  6  2  0
  6  7  1  0
  7  8  1  0
  8  9  1  0
  9 10  2  0
 10 11  1  0
 11 12  2  0
 12 13  1  0
 13 14  1  0
 13 15  2  0
 15 16  1  0
 16 17  2  0
 16 18  1  0
 18 19  1  0
  6 20  1  0
 20 21  2  0
 21 22  1  0
 22 23  2  0
 21  3  1  0
 18  7  2  0
 15  9  1  0
  1 24  1  0
  1 25  1  0
  2 26  1  0
  4 27  1  0
  5 28  1  0
 10 29  1  0
 11 30  1  0
 12 31  1  0
 14 32  1  0
 19 33  1  0
 20 34  1  0
 22 35  1  0
 23 36  1  0
 23 37  1  0
M  END
>  <meeko>  (3) 
{"is_sidechain": [false], "free_energy": -10.587, "intermolecular_energy": -13.233, "internal_energy": 0.14}

$$$$
cand_048_out
     RDKit          3D

 37 39  0  0  0  0  0  0  0  0999 V2000
   53.2780  154.2730   25.0180 C   0  0  0  0  0  0  0  0  0  0  0  0
   53.3550  154.2020   26.3530 C   0  0  0  0  0  0  0  0  0  0  0  0
   52.8290  155.2350   27.2630 C   0  0  0  0  0  0  0  0  0  0  0  0
   52.9440  156.5880   26.9030 C   0  0  0  0  0  0  0  0  0  0  0  0
   52.4220  157.5960   27.7190 C   0  0  0  0  0  0  0  0  0  0  0  0
   51.7630  157.2810   28.9110 C   0  0  0  0  0  0  0  0  0  0  0  0
   51.2470  158.3620   29.7750 C   0  0  0  0  0  0  0  0  0  0  0  0
   49.9190  158.1770   30.1400 O   0  0  0  0  0  0  0  0  0  0  0  0
   49.3150  159.1110   30.9420 C   0  0  0  0  0  0  0  0  0  0  0  0
   47.9760  158.8930   31.2700 C   0  0  0  0  0  0  0  0  0  0  0  0
   47.3010  159.8040   32.0850 C   0  0  0  0  0  0  0  0  0  0  0  0
   47.9650  160.9310   32.5730 C   0  0  0  0  0  0  0  0  0  0  0  0
   49.3010  161.1470   32.2440 C   0  0  0  0  0  0  0  0  0  0  0  0
   49.8900  162.2700   32.7550 O   0  0  0  0  0  0  0  0  0  0  0  0
   49.9760  160.2350   31.4270 C   0  0  0  0  0  0  0  0  0  0  0  0
   51.3790  160.4230   31.0580 C   0  0  0  0  0  0  0  0  0  0  0  0
   52.0330  161.3860   31.4530 O   0  0  0  0  0  0  0  0  0  0  0  0
   51.9990  159.4020   30.1810 C   0  0  0  0  0  0  0  0  0  0  0  0
   53.3290  159.5810   29.8490 O   0  0  0  0  0  0  0  0  0  0  0  0
   51.6480  155.9300   29.2720 C   0  0  0  0  0  0  0  0  0  0  0  0
   52.1540  154.9000   28.4560 C   0  0  0  0  0  0  0  0  0  0  0  0
   52.0290  153.5010   28.9040 C   0  0  0  0  0  0  0  0  0  0  0  0
   51.6600  152.4940   28.1020 C   0  0  0  0  0  0  0  0  0  0  0  0
   53.6929  153.4636   24.3993 H   0  0  0  0  0  0  0  0  0  0  0  0
   52.7999  155.1407   24.5400 H   0  0  0  0  0  0  0  0  0  0  0  0
   53.8398  153.3200   26.7969 H   0  0  0  0  0  0  0  0  0  0  0  0
   53.4521  156.8582   25.9655 H   0  0  0  0  0  0  0  0  0  0  0  0
   52.5310  158.6489   27.4198 H   0  0  0  0  0  0  0  0  0  0  0  0
   47.4530  158.0044   30.8868 H   0  0  0  0  0  0  0  0  0  0  0  0
   46.2453  159.6336   32.3427 H   0  0  0  0  0  0  0  0  0  0  0  0
   47.4336  161.6475   33.2166 H   0  0  0  0  0  0  0  0  0  0  0  0
   50.0950  162.3180   33.6680 H   0  0  0  0  0  0  0  0  0  0  0  0
   53.6070  159.4820   28.9590 H   0  0  0  0  0  0  0  0  0  0  0  0
   51.1496  155.6687   30.2171 H   0  0  0  0  0  0  0  0  0  0  0  0
   52.2514  153.2713   29.9565 H   0  0  0  0  0  0  0  0  0  0  0  0
   51.5865  151.4716   28.5012 H   0  0  0  0  0  0  0  0  0  0  0  0
   51.4304  152.6892   27.0441 H   0  0  0  0  0  0  0  0  0  0  0  0
  1  2  2  0
  2  3  1  0
  3  4  2  0
  4  5  1  0
  5  6  2  0
  6  7  1  0
  7  8  1  0
  8  9  1  0
  9 10  2  0
 10 11  1  0
 11 12  2  0
 12 13  1  0
 13 14  1  0
 13 15  2  0
 15 16  1  0
 16 17  2  0
 16 18  1  0
 18 19  1  0
  6 20  1  0
 20 21  2  0
 21 22  1  0
 22 23  2  0
 21  3  1  0
 18  7  2  0
 15  9  1  0
  1 24  1  0
  1 25  1  0
  2 26  1  0
  4 27  1  0
  5 28  1  0
 10 29  1  0
 11 30  1  0
 12 31  1  0
 14 32  1  0
 19 33  1  0
 20 34  1  0
 22 35  1  0
 23 36  1  0
 23 37  1  0
M  END
>  <meeko>  (4) 
{"is_sidechain": [false], "free_energy": -9.668, "intermolecular_energy": -12.14, "internal_energy": 0.18}

$$$$
cand_048_out
     RDKit          3D

 37 39  0  0  0  0  0  0  0  0999 V2000
   52.9350  152.5340   25.8610 C   0  0  0  0  0  0  0  0  0  0  0  0
   53.4910  153.2740   26.8290 C   0  0  0  0  0  0  0  0  0  0  0  0
   52.8010  154.3800   27.5160 C   0  0  0  0  0  0  0  0  0  0  0  0
   52.0020  154.0980   28.6370 C   0  0  0  0  0  0  0  0  0  0  0  0
   51.3640  155.1230   29.3410 C   0  0  0  0  0  0  0  0  0  0  0  0
   51.5140  156.4570   28.9530 C   0  0  0  0  0  0  0  0  0  0  0  0
   50.8040  157.5230   29.6910 C   0  0  0  0  0  0  0  0  0  0  0  0
   51.6270  158.5950   30.0170 O   0  0  0  0  0  0  0  0  0  0  0  0
   51.0930  159.6550   30.7060 C   0  0  0  0  0  0  0  0  0  0  0  0
   51.9580  160.7020   31.0270 C   0  0  0  0  0  0  0  0  0  0  0  0
   51.4800  161.8110   31.7250 C   0  0  0  0  0  0  0  0  0  0  0  0
   50.1370  161.8750   32.1020 C   0  0  0  0  0  0  0  0  0  0  0  0
   49.2760  160.8290   31.7810 C   0  0  0  0  0  0  0  0  0  0  0  0
   47.9740  160.9570   32.1790 O   0  0  0  0  0  0  0  0  0  0  0  0
   49.7560  159.7180   31.0820 C   0  0  0  0  0  0  0  0  0  0  0  0
   48.8840  158.5980   30.7250 C   0  0  0  0  0  0  0  0  0  0  0  0
   47.6900  158.5830   31.0150 O   0  0  0  0  0  0  0  0  0  0  0  0
   49.4940  157.4630   29.9910 C   0  0  0  0  0  0  0  0  0  0  0  0
   48.6600  156.4160   29.6460 O   0  0  0  0  0  0  0  0  0  0  0  0
   52.3110  156.7410   27.8340 C   0  0  0  0  0  0  0  0  0  0  0  0
   52.9740  155.7230   27.1210 C   0  0  0  0  0  0  0  0  0  0  0  0
   53.7740  156.0820   25.9350 C   0  0  0  0  0  0  0  0  0  0  0  0
   53.2490  156.2980   24.7220 C   0  0  0  0  0  0  0  0  0  0  0  0
   53.5093  151.7222   25.3907 H   0  0  0  0  0  0  0  0  0  0  0  0
   51.9040  152.7380   25.5363 H   0  0  0  0  0  0  0  0  0  0  0  0
   54.5237  153.0425   27.1289 H   0  0  0  0  0  0  0  0  0  0  0  0
   51.8769  153.0556   28.9651 H   0  0  0  0  0  0  0  0  0  0  0  0
   50.7367  154.8768   30.2104 H   0  0  0  0  0  0  0  0  0  0  0  0
   53.0159  160.6527   30.7298 H   0  0  0  0  0  0  0  0  0  0  0  0
   52.1618  162.6361   31.9788 H   0  0  0  0  0  0  0  0  0  0  0  0
   49.7600  162.7501   32.6515 H   0  0  0  0  0  0  0  0  0  0  0  0
   47.4220  160.2020   32.2270 H   0  0  0  0  0  0  0  0  0  0  0  0
   48.9720  155.7350   29.0830 H   0  0  0  0  0  0  0  0  0  0  0  0
   52.4210  157.7849   27.5051 H   0  0  0  0  0  0  0  0  0  0  0  0
   54.8634  156.1777   26.0535 H   0  0  0  0  0  0  0  0  0  0  0  0
   53.9036  156.5629   23.8786 H   0  0  0  0  0  0  0  0  0  0  0  0
   52.1632  156.2105   24.5691 H   0  0  0  0  0  0  0  0  0  0  0  0
  1  2  2  0
  2  3  1  0
  3  4  2  0
  4  5  1  0
  5  6  2  0
  6  7  1  0
  7  8  1  0
  8  9  1  0
  9 10  2  0
 10 11  1  0
 11 12  2  0
 12 13  1  0
 13 14  1  0
 13 15  2  0
 15 16  1  0
 16 17  2  0
 16 18  1  0
 18 19  1  0
  6 20  1  0
 20 21  2  0
 21 22  1  0
 22 23  2  0
 21  3  1  0
 18  7  2  0
 15  9  1  0
  1 24  1  0
  1 25  1  0
  2 26  1  0
  4 27  1  0
  5 28  1  0
 10 29  1  0
 11 30  1  0
 12 31  1  0
 14 32  1  0
 19 33  1  0
 20 34  1  0
 22 35  1  0
 23 36  1  0
 23 37  1  0
M  END
>  <meeko>  (5) 
{"is_sidechain": [false], "free_energy": -9.05, "intermolecular_energy": -10.83, "internal_energy": -0.367}

$$$$
