cand_011_out
     RDKit          3D

 35 37  0  0  0  0  0  0  0  0999 V2000
   52.9750  152.6200   26.6750 C   0  0  0  0  0  0  0  0  0  0  0  0
   52.5820  153.9060   27.3510 C   0  0  0  0  0  0  0  0  0  0  0  0
   51.9840  153.8570   28.6190 C   0  0  0  0  0  0  0  0  0  0  0  0
   51.6100  155.0290   29.2790 C   0  0  0  0  0  0  0  0  0  0  0  0
   51.8180  156.2820   28.6910 C   0  0  0  0  0  0  0  0  0  0  0  0
   51.4310  157.5100   29.4170 C   0  0  0  0  0  0  0  0  0  0  0  0
   50.0970  157.5110   29.8060 O   0  0  0  0  0  0  0  0  0  0  0  0
   49.6070  158.5950   30.4890 C   0  0  0  0  0  0  0  0  0  0  0  0
   48.2660  158.5480   30.8730 C   0  0  0  0  0  0  0  0  0  0  0  0
   47.7030  159.6200   31.5710 C   0  0  0  0  0  0  0  0  0  0  0  0
   48.4810  160.7370   31.8820 C   0  0  0  0  0  0  0  0  0  0  0  0
   49.8180  160.7810   31.4980 C   0  0  0  0  0  0  0  0  0  0  0  0
   50.5210  161.9060   31.8340 O   0  0  0  0  0  0  0  0  0  0  0  0
   50.3810  159.7080   30.8010 C   0  0  0  0  0  0  0  0  0  0  0  0
   51.7820  159.7150   30.3780 C   0  0  0  0  0  0  0  0  0  0  0  0
   52.5290  160.6640   30.6080 O   0  0  0  0  0  0  0  0  0  0  0  0
   52.2830  158.5250   29.6520 C   0  0  0  0  0  0  0  0  0  0  0  0
   53.6040  158.5440   29.2450 O   0  0  0  0  0  0  0  0  0  0  0  0
   52.4320  156.3320   27.4310 C   0  0  0  0  0  0  0  0  0  0  0  0
   52.8180  155.1600   26.7480 C   0  0  0  0  0  0  0  0  0  0  0  0
   53.4680  155.2770   25.3860 C   0  0  0  0  0  0  0  0  0  0  0  0
   53.6290  156.5710   24.9920 F   0  0  0  0  0  0  0  0  0  0  0  0
   54.7080  154.7150   25.3190 F   0  0  0  0  0  0  0  0  0  0  0  0
   52.7430  154.6730   24.4020 F   0  0  0  0  0  0  0  0  0  0  0  0
   53.2069  151.8612   27.4369 H   0  0  0  0  0  0  0  0  0  0  0  0
   52.1437  152.2669   26.0470 H   0  0  0  0  0  0  0  0  0  0  0  0
   53.8616  152.7919   26.0470 H   0  0  0  0  0  0  0  0  0  0  0  0
   51.8076  152.8832   29.0992 H   0  0  0  0  0  0  0  0  0  0  0  0
   51.1457  154.9669   30.2743 H   0  0  0  0  0  0  0  0  0  0  0  0
   47.6531  157.6685   30.6266 H   0  0  0  0  0  0  0  0  0  0  0  0
   46.6466  159.5837   31.8755 H   0  0  0  0  0  0  0  0  0  0  0  0
   48.0376  161.5814   32.4300 H   0  0  0  0  0  0  0  0  0  0  0  0
   50.8490  162.4710   31.1630 H   0  0  0  0  0  0  0  0  0  0  0  0
   54.0960  159.3400   29.2860 H   0  0  0  0  0  0  0  0  0  0  0  0
   52.6172  157.3103   26.9635 H   0  0  0  0  0  0  0  0  0  0  0  0
  1  2  1  0
  2  3  2  0
  3  4  1  0
  4  5  2  0
  5  6  1  0
  6  7  1  0
  7  8  1  0
  8  9  2  0
  9 10  1  0
 10 11  2  0
 11 12  1  0
 12 13  1  0
 12 14  2  0
 14 15  1  0
 15 16  2  0
 15 17  1  0
 17 18  1  0
  5 19  1  0
 19 20  2  0
 20 21  1  0
 21 22  1  0
 21 23  1  0
 21 24  1  0
 20  2  1  0
 17  6  2  0
 14  8  1  0
  1 25  1  0
  1 26  1  0
  1 27  1  0
  3 28  1  0
  4 29  1  0
  9 30  1  0
 10 31  1  0
 11 32  1  0
 13 33  1  0
 18 34  1  0
 19 35  1  0
M  END
>  <meeko>  (1) 
{"is_sidechain": [false], "free_energy": -10.817, "intermolecular_energy": -12.714, "internal_energy": -0.212}

$$$$
cand_011_out
     RDKit          3D

 35 37  0  0  0  0  0  0  0  0999 V2000
   50.3630  161.3510   31.5660 C   0  0  0  0  0  0  0  0  0  0  0  0
   50.7540  160.1070   30.8140 C   0  0  0  0  0  0  0  0  0  0  0  0
   52.0940  159.9260   30.4420 C   0  0  0  0  0  0  0  0  0  0  0  0
   52.4960  158.7840   29.7470 C   0  0  0  0  0  0  0  0  0  0  0  0
   51.5720  157.7920   29.4020 C   0  0  0  0  0  0  0  0  0  0  0  0
   52.0230  156.5820   28.6830 C   0  0  0  0  0  0  0  0  0  0  0  0
   52.5710  156.8650   27.4380 O   0  0  0  0  0  0  0  0  0  0  0  0
   53.0290  155.8290   26.6640 C   0  0  0  0  0  0  0  0  0  0  0  0
   53.5850  156.1590   25.4270 C   0  0  0  0  0  0  0  0  0  0  0  0
   54.0700  155.1510   24.5900 C   0  0  0  0  0  0  0  0  0  0  0  0
   53.9980  153.8150   24.9900 C   0  0  0  0  0  0  0  0  0  0  0  0
   53.4440  153.4880   26.2250 C   0  0  0  0  0  0  0  0  0  0  0  0
   53.4040  152.1610   26.5520 O   0  0  0  0  0  0  0  0  0  0  0  0
   52.9590  154.4970   27.0620 C   0  0  0  0  0  0  0  0  0  0  0  0
   52.3680  154.1970   28.3670 C   0  0  0  0  0  0  0  0  0  0  0  0
   52.2630  153.0450   28.7860 O   0  0  0  0  0  0  0  0  0  0  0  0
   51.8930  155.3380   29.1820 C   0  0  0  0  0  0  0  0  0  0  0  0
   51.3250  155.0460   30.4070 O   0  0  0  0  0  0  0  0  0  0  0  0
   50.2340  157.9640   29.7890 C   0  0  0  0  0  0  0  0  0  0  0  0
   49.8090  159.1110   30.4920 C   0  0  0  0  0  0  0  0  0  0  0  0
   48.3510  159.2450   30.8750 C   0  0  0  0  0  0  0  0  0  0  0  0
   48.1070  158.8460   32.1560 F   0  0  0  0  0  0  0  0  0  0  0  0
   47.8760  160.5200   30.7910 F   0  0  0  0  0  0  0  0  0  0  0  0
   47.5270  158.4970   30.0870 F   0  0  0  0  0  0  0  0  0  0  0  0
   50.4231  161.1598   32.6476 H   0  0  0  0  0  0  0  0  0  0  0  0
   51.0469  162.1705   31.3000 H   0  0  0  0  0  0  0  0  0  0  0  0
   49.3333  161.6318   31.3000 H   0  0  0  0  0  0  0  0  0  0  0  0
   52.8379  160.6938   30.7012 H   0  0  0  0  0  0  0  0  0  0  0  0
   53.5528  158.6626   29.4671 H   0  0  0  0  0  0  0  0  0  0  0  0
   53.6412  157.2113   25.1116 H   0  0  0  0  0  0  0  0  0  0  0  0
   54.5089  155.4099   23.6152 H   0  0  0  0  0  0  0  0  0  0  0  0
   54.3786  153.0216   24.3300 H   0  0  0  0  0  0  0  0  0  0  0  0
   53.9600  151.8290   27.2290 H   0  0  0  0  0  0  0  0  0  0  0  0
   50.3920  155.0110   30.4950 H   0  0  0  0  0  0  0  0  0  0  0  0
   49.4986  157.1854   29.5380 H   0  0  0  0  0  0  0  0  0  0  0  0
  1  2  1  0
  2  3  2  0
  3  4  1  0
  4  5  2  0
  5  6  1  0
  6  7  1  0
  7  8  1  0
  8  9  2  0
  9 10  1  0
 10 11  2  0
 11 12  1  0
 12 13  1  0
 12 14  2  0
 14 15  1  0
 15 16  2  0
 15 17  1  0
 17 18  1  0
  5 19  1  0
 19 20  2  0
 20 21  1  0
 21 22  1  0
 21 23  1  0
 21 24  1  0
 20  2  1  0
 17  6  2  0
 14  8  1  0
  1 25  1  0
  1 26  1  0
  1 27  1  0
  3 28  1  0
  4 29  1  0
  9 30  1  0
 10 31  1  0
 11 32  1  0
 13 33  1  0
 18 34  1  0
 19 35  1  0
M  END
>  <meeko>  (2) 
{"is_sidechain": [false], "free_energy": -10.722, "intermolecular_energy": -12.702, "internal_energy": -0.114}

$$$$
cand_011_out
     RDKit          3D

 35 37  0  0  0  0  0  0  0  0999 V2000
   49.1880  160.4240   31.6550 C   0  0  0  0  0  0  0  0  0  0  0  0
   49.9150  159.3530   30.8870 C   0  0  0  0  0  0  0  0  0  0  0  0
   49.2490  158.1560   30.5860 C   0  0  0  0  0  0  0  0  0  0  0  0
   49.8890  157.1420   29.8710 C   0  0  0  0  0  0  0  0  0  0  0  0
   51.2110  157.2920   29.4390 C   0  0  0  0  0  0  0  0  0  0  0  0
   51.8620  156.2130   28.6680 C   0  0  0  0  0  0  0  0  0  0  0  0
   52.3790  156.6510   27.4540 O   0  0  0  0  0  0  0  0  0  0  0  0
   53.0100  155.7460   26.6380 C   0  0  0  0  0  0  0  0  0  0  0  0
   53.5270  156.2310   25.4360 C   0  0  0  0  0  0  0  0  0  0  0  0
   54.1810  155.3630   24.5580 C   0  0  0  0  0  0  0  0  0  0  0  0
   54.3170  154.0110   24.8830 C   0  0  0  0  0  0  0  0  0  0  0  0
   53.8000  153.5300   26.0830 C   0  0  0  0  0  0  0  0  0  0  0  0
   53.9670  152.1970   26.3370 O   0  0  0  0  0  0  0  0  0  0  0  0
   53.1470  154.3990   26.9610 C   0  0  0  0  0  0  0  0  0  0  0  0
   52.5890  153.9350   28.2320 C   0  0  0  0  0  0  0  0  0  0  0  0
   52.6620  152.7590   28.5850 O   0  0  0  0  0  0  0  0  0  0  0  0
   51.9240  154.9370   29.0950 C   0  0  0  0  0  0  0  0  0  0  0  0
   51.3880  154.4890   30.2880 O   0  0  0  0  0  0  0  0  0  0  0  0
   51.8710  158.4970   29.7250 C   0  0  0  0  0  0  0  0  0  0  0  0
   51.2430  159.5340   30.4450 C   0  0  0  0  0  0  0  0  0  0  0  0
   52.0090  160.8070   30.7300 C   0  0  0  0  0  0  0  0  0  0  0  0
   51.4540  161.8980   30.1320 F   0  0  0  0  0  0  0  0  0  0  0  0
   52.0880  161.1160   32.0560 F   0  0  0  0  0  0  0  0  0  0  0  0
   53.2990  160.7560   30.2920 F   0  0  0  0  0  0  0  0  0  0  0  0
   49.3081  160.2471   32.7340 H   0  0  0  0  0  0  0  0  0  0  0  0
   49.6054  161.4083   31.3961 H   0  0  0  0  0  0  0  0  0  0  0  0
   48.1192  160.3994   31.3961 H   0  0  0  0  0  0  0  0  0  0  0  0
   48.2097  158.0144   30.9173 H   0  0  0  0  0  0  0  0  0  0  0  0
   49.3463  156.2124   29.6443 H   0  0  0  0  0  0  0  0  0  0  0  0
   53.4198  157.2954   25.1801 H   0  0  0  0  0  0  0  0  0  0  0  0
   54.5891  155.7443   23.6103 H   0  0  0  0  0  0  0  0  0  0  0  0
   54.8318  153.3275   24.1918 H   0  0  0  0  0  0  0  0  0  0  0  0
   53.2700  151.7020   26.7200 H   0  0  0  0  0  0  0  0  0  0  0  0
   51.8880  153.9210   30.8410 H   0  0  0  0  0  0  0  0  0  0  0  0
   52.9056  158.6362   29.3783 H   0  0  0  0  0  0  0  0  0  0  0  0
  1  2  1  0
  2  3  2  0
  3  4  1  0
  4  5  2  0
  5  6  1  0
  6  7  1  0
  7  8  1  0
  8  9  2  0
  9 10  1  0
 10 11  2  0
 11 12  1  0
 12 13  1  0
 12 14  2  0
 14 15  1  0
 15 16  2  0
 15 17  1  0
 17 18  1  0
  5 19  1  0
 19 20  2  0
 20 21  1  0
 21 22  1  0
 21 23  1  0
 21 24  1  0
 20  2  1  0
 17  6  2  0
 14  8  1  0
  1 25  1  0
  1 26  1  0
  1 27  1  0
  3 28  1  0
  4 29  1  0
  9 30  1  0
 10 31  1  0
 11 32  1  0
 13 33  1  0
 18 34  1  0
 19 35  1  0
M  END
>  <meeko>  (3) 
{"is_sidechain": [false], "free_energy": -10.518, "intermolecular_energy": -12.37, "internal_energy": -0.205}

$$$$
cand_011_out
     RDKit          3D

 35 37  0  0  0  0  0  0  0  0999 V2000
   53.6210  152.6890   26.5030 C   0  0  0  0  0  0  0  0  0  0  0  0
   52.9770  153.8570   27.2010 C   0  0  0  0  0  0  0  0  0  0  0  0
   52.4220  153.6700   28.4760 C   0  0  0  0  0  0  0  0  0  0  0  0
   51.8210  154.7310   29.1560 C   0  0  0  0  0  0  0  0  0  0  0  0
   51.7530  156.0050   28.5820 C   0  0  0  0  0  0  0  0  0  0  0  0
   51.1280  157.1180   29.3290 C   0  0  0  0  0  0  0  0  0  0  0  0
   52.0140  158.1530   29.5990 O   0  0  0  0  0  0  0  0  0  0  0  0
   51.5620  159.2490   30.2890 C   0  0  0  0  0  0  0  0  0  0  0  0
   52.4810  160.2720   30.5270 C   0  0  0  0  0  0  0  0  0  0  0  0
   52.0850  161.4160   31.2240 C   0  0  0  0  0  0  0  0  0  0  0  0
   50.7720  161.5360   31.6840 C   0  0  0  0  0  0  0  0  0  0  0  0
   49.8570  160.5140   31.4450 C   0  0  0  0  0  0  0  0  0  0  0  0
   48.5890  160.6960   31.9250 O   0  0  0  0  0  0  0  0  0  0  0  0
   50.2530  159.3700   30.7470 C   0  0  0  0  0  0  0  0  0  0  0  0
   49.3230  158.2730   30.4750 C   0  0  0  0  0  0  0  0  0  0  0  0
   48.1530  158.3000   30.8540 O   0  0  0  0  0  0  0  0  0  0  0  0
   49.8400  157.1090   29.7200 C   0  0  0  0  0  0  0  0  0  0  0  0
   48.9590  156.0710   29.4780 O   0  0  0  0  0  0  0  0  0  0  0  0
   52.3230  156.1960   27.3150 C   0  0  0  0  0  0  0  0  0  0  0  0
   52.9360  155.1380   26.6110 C   0  0  0  0  0  0  0  0  0  0  0  0
   53.5250  155.4030   25.2430 C   0  0  0  0  0  0  0  0  0  0  0  0
   53.3550  156.6930   24.8400 F   0  0  0  0  0  0  0  0  0  0  0  0
   54.8670  155.1690   25.1690 F   0  0  0  0  0  0  0  0  0  0  0  0
   52.9670  154.6290   24.2690 F   0  0  0  0  0  0  0  0  0  0  0  0
   54.0100  151.9834   27.2519 H   0  0  0  0  0  0  0  0  0  0  0  0
   52.8753  152.1814   25.8736 H   0  0  0  0  0  0  0  0  0  0  0  0
   54.4483  153.0487   25.8736 H   0  0  0  0  0  0  0  0  0  0  0  0
   52.4608  152.6759   28.9453 H   0  0  0  0  0  0  0  0  0  0  0  0
   51.3953  154.5630   30.1563 H   0  0  0  0  0  0  0  0  0  0  0  0
   53.5158  160.1776   30.1662 H   0  0  0  0  0  0  0  0  0  0  0  0
   52.8084  162.2234   31.4107 H   0  0  0  0  0  0  0  0  0  0  0  0
   50.4611  162.4363   32.2342 H   0  0  0  0  0  0  0  0  0  0  0  0
   47.8720  160.2310   31.5410 H   0  0  0  0  0  0  0  0  0  0  0  0
   49.2860  155.2220   29.2570 H   0  0  0  0  0  0  0  0  0  0  0  0
   52.2914  157.1962   26.8584 H   0  0  0  0  0  0  0  0  0  0  0  0
  1  2  1  0
  2  3  2  0
  3  4  1  0
  4  5  2  0
  5  6  1  0
  6  7  1  0
  7  8  1  0
  8  9  2  0
  9 10  1  0
 10 11  2  0
 11 12  1  0
 12 13  1  0
 12 14  2  0
 14 15  1  0
 15 16  2  0
 15 17  1  0
 17 18  1  0
  5 19  1  0
 19 20  2  0
 20 21  1  0
 21 22  1  0
 21 23  1  0
 21 24  1  0
 20  2  1  0
 17  6  2  0
 14  8  1  0
  1 25  1  0
  1 26  1  0
  1 27  1  0
  3 28  1  0
  4 29  1  0
  9 30  1  0
 10 31  1  0
 11 32  1  0
 13 33  1  0
 18 34  1  0
 19 35  1  0
M  END
>  <meeko>  (4) 
{"is_sidechain": [false], "free_energy": -9.634, "intermolecular_energy": -11.254, "internal_energy": -0.283}

$$$$
cand_011_out
     RDKit          3D

 35 37  0  0  0  0  0  0  0  0999 V2000
   53.3990  154.2540   26.0490 C   0  0  0  0  0  0  0  0  0  0  0  0
   52.8950  155.2860   27.0230 C   0  0  0  0  0  0  0  0  0  0  0  0
   52.9680  156.6430   26.6790 C   0  0  0  0  0  0  0  0  0  0  0  0
   52.5070  157.6280   27.5540 C   0  0  0  0  0  0  0  0  0  0  0  0
   51.9620  157.2870   28.7960 C   0  0  0  0  0  0  0  0  0  0  0  0
   51.4620  158.3460   29.6980 C   0  0  0  0  0  0  0  0  0  0  0  0
   50.1200  158.1900   30.0250 O   0  0  0  0  0  0  0  0  0  0  0  0
   49.5290  159.1070   30.8560 C   0  0  0  0  0  0  0  0  0  0  0  0
   48.1850  158.9050   31.1700 C   0  0  0  0  0  0  0  0  0  0  0  0
   47.5230  159.8020   32.0110 C   0  0  0  0  0  0  0  0  0  0  0  0
   48.2050  160.9020   32.5370 C   0  0  0  0  0  0  0  0  0  0  0  0
   49.5470  161.1010   32.2220 C   0  0  0  0  0  0  0  0  0  0  0  0
   50.1530  162.1990   32.7700 O   0  0  0  0  0  0  0  0  0  0  0  0
   50.2090  160.2030   31.3810 C   0  0  0  0  0  0  0  0  0  0  0  0
   51.6180  160.3760   31.0260 C   0  0  0  0  0  0  0  0  0  0  0  0
   52.2840  161.3220   31.4420 O   0  0  0  0  0  0  0  0  0  0  0  0
   52.2280  159.3630   30.1350 C   0  0  0  0  0  0  0  0  0  0  0  0
   53.5560  159.5400   29.7930 O   0  0  0  0  0  0  0  0  0  0  0  0
   51.8730  155.9280   29.1330 C   0  0  0  0  0  0  0  0  0  0  0  0
   52.3330  154.9180   28.2630 C   0  0  0  0  0  0  0  0  0  0  0  0
   52.2180  153.4690   28.6860 C   0  0  0  0  0  0  0  0  0  0  0  0
   51.5930  153.3220   29.8880 F   0  0  0  0  0  0  0  0  0  0  0  0
   51.5150  152.6950   27.8100 F   0  0  0  0  0  0  0  0  0  0  0  0
   53.4300  152.8590   28.8160 F   0  0  0  0  0  0  0  0  0  0  0  0
   53.8161  153.4000   26.6028 H   0  0  0  0  0  0  0  0  0  0  0  0
   52.5675  153.9100   25.4164 H   0  0  0  0  0  0  0  0  0  0  0  0
   54.1816  154.6982   25.4164 H   0  0  0  0  0  0  0  0  0  0  0  0
   53.3937  156.9351   25.7077 H   0  0  0  0  0  0  0  0  0  0  0  0
   52.5733  158.6867   27.2628 H   0  0  0  0  0  0  0  0  0  0  0  0
   47.6470  158.0397   30.7555 H   0  0  0  0  0  0  0  0  0  0  0  0
   46.4634  159.6423   32.2596 H   0  0  0  0  0  0  0  0  0  0  0  0
   47.6833  161.6093   33.1984 H   0  0  0  0  0  0  0  0  0  0  0  0
   50.5430  162.8440   32.2150 H   0  0  0  0  0  0  0  0  0  0  0  0
   54.1970  159.6800   30.4620 H   0  0  0  0  0  0  0  0  0  0  0  0
   51.4333  155.6431   30.1002 H   0  0  0  0  0  0  0  0  0  0  0  0
  1  2  1  0
  2  3  2  0
  3  4  1  0
  4  5  2  0
  5  6  1  0
  6  7  1  0
  7  8  1  0
  8  9  2  0
  9 10  1  0
 10 11  2  0
 11 12  1  0
 12 13  1  0
 12 14  2  0
 14 15  1  0
 15 16  2  0
 15 17  1  0
 17 18  1  0
  5 19  1  0
 19 20  2  0
 20 21  1  0
 21 22  1  0
 21 23  1  0
 21 24  1  0
 20  2  1  0
 17  6  2  0
 14  8  1  0
  1 25  1  0
  1 26  1  0
  1 27  1  0
  3 28  1  0
  4 29  1  0
  9 30  1  0
 10 31  1  0
 11 32  1  0
 13 33  1  0
 18 34  1  0
 19 35  1  0
M  END
>  <meeko>  (5) 
{"is_sidechain": [false], "free_energy": -8.992, "intermolecular_energy": -10.533, "internal_energy": -0.248}

$$$$
cand_011_out
     RDKit          3D

 35 37  0  0  0  0  0  0  0  0999 V2000
   48.9520  158.2740   31.1830 C   0  0  0  0  0  0  0  0  0  0  0  0
   49.8090  157.4960   30.2210 C   0  0  0  0  0  0  0  0  0  0  0  0
   49.3920  156.2230   29.8090 C   0  0  0  0  0  0  0  0  0  0  0  0
   50.1590  155.4730   28.9140 C   0  0  0  0  0  0  0  0  0  0  0  0
   51.3640  155.9720   28.4090 C   0  0  0  0  0  0  0  0  0  0  0  0
   52.1490  155.1690   27.4490 C   0  0  0  0  0  0  0  0  0  0  0  0
   51.8650  153.8100   27.5200 O   0  0  0  0  0  0  0  0  0  0  0  0
   52.5270  152.9500   26.6810 C   0  0  0  0  0  0  0  0  0  0  0  0
   52.2010  151.5960   26.7760 C   0  0  0  0  0  0  0  0  0  0  0  0
   52.8390  150.6670   25.9510 C   0  0  0  0  0  0  0  0  0  0  0  0
   53.8030  151.0910   25.0330 C   0  0  0  0  0  0  0  0  0  0  0  0
   54.1260  152.4420   24.9410 C   0  0  0  0  0  0  0  0  0  0  0  0
   55.0790  152.7870   24.0220 O   0  0  0  0  0  0  0  0  0  0  0  0
   53.4870  153.3720   25.7660 C   0  0  0  0  0  0  0  0  0  0  0  0
   53.7980  154.8000   25.7010 C   0  0  0  0  0  0  0  0  0  0  0  0
   54.6390  155.2510   24.9250 O   0  0  0  0  0  0  0  0  0  0  0  0
   53.0580  155.7040   26.6120 C   0  0  0  0  0  0  0  0  0  0  0  0
   53.3660  157.0500   26.5540 O   0  0  0  0  0  0  0  0  0  0  0  0
   51.7730  157.2530   28.8080 C   0  0  0  0  0  0  0  0  0  0  0  0
   51.0130  158.0260   29.7100 C   0  0  0  0  0  0  0  0  0  0  0  0
   51.5110  159.3980   30.1100 C   0  0  0  0  0  0  0  0  0  0  0  0
   50.7860  160.4040   29.5440 F   0  0  0  0  0  0  0  0  0  0  0  0
   51.4690  159.6270   31.4540 F   0  0  0  0  0  0  0  0  0  0  0  0
   52.8050  159.6180   29.7440 F   0  0  0  0  0  0  0  0  0  0  0  0
   49.2340  158.0180   32.2149 H   0  0  0  0  0  0  0  0  0  0  0  0
   49.1015  159.3513   31.0186 H   0  0  0  0  0  0  0  0  0  0  0  0
   47.8941  158.0213   31.0186 H   0  0  0  0  0  0  0  0  0  0  0  0
   48.4488  155.8091   30.1952 H   0  0  0  0  0  0  0  0  0  0  0  0
   49.8107  154.4772   28.6025 H   0  0  0  0  0  0  0  0  0  0  0  0
   51.4429  151.2613   27.4994 H   0  0  0  0  0  0  0  0  0  0  0  0
   52.5821  149.5999   26.0241 H   0  0  0  0  0  0  0  0  0  0  0  0
   54.3058  150.3588   24.3842 H   0  0  0  0  0  0  0  0  0  0  0  0
   54.9250  153.5000   23.4340 H   0  0  0  0  0  0  0  0  0  0  0  0
   53.5920  157.5130   27.3370 H   0  0  0  0  0  0  0  0  0  0  0  0
   52.7107  157.6653   28.4070 H   0  0  0  0  0  0  0  0  0  0  0  0
  1  2  1  0
  2  3  2  0
  3  4  1  0
  4  5  2  0
  5  6  1  0
  6  7  1  0
  7  8  1  0
  8  9  2  0
  9 10  1  0
 10 11  2  0
 11 12  1  0
 12 13  1  0
 12 14  2  0
 14 15  1  0
 15 16  2  0
 15 17  1  0
 17 18  1  0
  5 19  1  0
 19 20  2  0
 20 21  1  0
 21 22  1  0
 21 23  1  0
 21 24  1  0
 20  2  1  0
 17  6  2  0
 14  8  1  0
  1 25  1  0
  1 26  1  0
  1 27  1  0
  3 28  1  0
  4 29  1  0
  9 30  1  0
 10 31  1  0
 11 32  1  0
 13 33  1  0
 18 34  1  0
 19 35  1  0
M  END
>  <meeko>  (6) 
{"is_sidechain": [false], "free_energy": -8.498, "intermolecular_energy": -10.388, "internal_energy": 0.187}

$$$$
cand_011_out
     RDKit          3D

 35 37  0  0  0  0  0  0  0  0999 V2000
   53.0350  151.7340   25.3560 C   0  0  0  0  0  0  0  0  0  0  0  0
   52.7340  152.9820   26.1430 C   0  0  0  0  0  0  0  0  0  0  0  0
   51.8860  152.8990   27.2570 C   0  0  0  0  0  0  0  0  0  0  0  0
   51.5870  154.0340   28.0140 C   0  0  0  0  0  0  0  0  0  0  0  0
   52.1230  155.2820   27.6790 C   0  0  0  0  0  0  0  0  0  0  0  0
   51.8070  156.4650   28.5060 C   0  0  0  0  0  0  0  0  0  0  0  0
   50.5240  156.4260   29.0400 O   0  0  0  0  0  0  0  0  0  0  0  0
   50.1030  157.4670   29.8280 C   0  0  0  0  0  0  0  0  0  0  0  0
   48.8130  157.3800   30.3550 C   0  0  0  0  0  0  0  0  0  0  0  0
   48.3220  158.4060   31.1660 C   0  0  0  0  0  0  0  0  0  0  0  0
   49.1190  159.5180   31.4470 C   0  0  0  0  0  0  0  0  0  0  0  0
   50.4050  159.6020   30.9200 C   0  0  0  0  0  0  0  0  0  0  0  0
   51.1300  160.7180   31.2350 O   0  0  0  0  0  0  0  0  0  0  0  0
   50.8970  158.5750   30.1100 C   0  0  0  0  0  0  0  0  0  0  0  0
   52.2420  158.6240   29.5360 C   0  0  0  0  0  0  0  0  0  0  0  0
   53.0000  159.5710   29.7310 O   0  0  0  0  0  0  0  0  0  0  0  0
   52.6700  157.4800   28.6980 C   0  0  0  0  0  0  0  0  0  0  0  0
   53.9370  157.5390   28.1490 O   0  0  0  0  0  0  0  0  0  0  0  0
   52.9850  155.3610   26.5750 C   0  0  0  0  0  0  0  0  0  0  0  0
   53.3000  154.2270   25.7980 C   0  0  0  0  0  0  0  0  0  0  0  0
   54.2290  154.3770   24.6130 C   0  0  0  0  0  0  0  0  0  0  0  0
   53.6410  154.0210   23.4370 F   0  0  0  0  0  0  0  0  0  0  0  0
   54.6820  155.6500   24.4270 F   0  0  0  0  0  0  0  0  0  0  0  0
   55.3490  153.6060   24.7200 F   0  0  0  0  0  0  0  0  0  0  0  0
   53.2354  150.9032   26.0485 H   0  0  0  0  0  0  0  0  0  0  0  0
   52.1716  151.4830   24.7223 H   0  0  0  0  0  0  0  0  0  0  0  0
   53.9179  151.9041   24.7223 H   0  0  0  0  0  0  0  0  0  0  0  0
   51.4512  151.9284   27.5379 H   0  0  0  0  0  0  0  0  0  0  0  0
   50.9212  153.9454   28.8852 H   0  0  0  0  0  0  0  0  0  0  0  0
   48.1845  156.5052   30.1320 H   0  0  0  0  0  0  0  0  0  0  0  0
   47.3067  158.3380   31.5837 H   0  0  0  0  0  0  0  0  0  0  0  0
   48.7311  160.3266   32.0840 H   0  0  0  0  0  0  0  0  0  0  0  0
   50.9540  161.1820   32.0300 H   0  0  0  0  0  0  0  0  0  0  0  0
   54.0750  157.9830   27.3350 H   0  0  0  0  0  0  0  0  0  0  0  0
   53.4266  156.3326   26.3085 H   0  0  0  0  0  0  0  0  0  0  0  0
  1  2  1  0
  2  3  2  0
  3  4  1  0
  4  5  2  0
  5  6  1  0
  6  7  1  0
  7  8  1  0
  8  9  2  0
  9 10  1  0
 10 11  2  0
 11 12  1  0
 12 13  1  0
 12 14  2  0
 14 15  1  0
 15 16  2  0
 15 17  1  0
 17 18  1  0
  5 19  1  0
 19 20  2  0
 20 21  1  0
 21 22  1  0
 21 23  1  0
 21 24  1  0
 20  2  1  0
 17  6  2  0
 14  8  1  0
  1 25  1  0
  1 26  1  0
  1 27  1  0
  3 28  1  0
  4 29  1  0
  9 30  1  0
 10 31  1  0
 11 32  1  0
 13 33  1  0
 18 34  1  0
 19 35  1  0
M  END
>  <meeko>  (7) 
{"is_sidechain": [false], "free_energy": -8.396, "intermolecular_energy": -10.128, "internal_energy": 0.047}

$$$$
cand_011_out
     RDKit          3D

 35 37  0  0  0  0  0  0  0  0999 V2000
   53.8600  154.2470   25.6070 C   0  0  0  0  0  0  0  0  0  0  0  0
   53.1720  155.1300   26.6140 C   0  0  0  0  0  0  0  0  0  0  0  0
   53.2860  156.5220   26.4940 C   0  0  0  0  0  0  0  0  0  0  0  0
   52.6590  157.3730   27.4060 C   0  0  0  0  0  0  0  0  0  0  0  0
   51.9020  156.8580   28.4640 C   0  0  0  0  0  0  0  0  0  0  0  0
   51.2310  157.7780   29.4070 C   0  0  0  0  0  0  0  0  0  0  0  0
   51.9900  158.9070   29.6930 O   0  0  0  0  0  0  0  0  0  0  0  0
   51.4830  159.8440   30.5580 C   0  0  0  0  0  0  0  0  0  0  0  0
   52.2700  160.9680   30.8070 C   0  0  0  0  0  0  0  0  0  0  0  0
   51.8130  161.9600   31.6770 C   0  0  0  0  0  0  0  0  0  0  0  0
   50.5700  161.8260   32.3000 C   0  0  0  0  0  0  0  0  0  0  0  0
   49.7860  160.7030   32.0490 C   0  0  0  0  0  0  0  0  0  0  0  0
   48.5800  160.6360   32.6930 O   0  0  0  0  0  0  0  0  0  0  0  0
   50.2430  159.7110   31.1770 C   0  0  0  0  0  0  0  0  0  0  0  0
   49.4510  158.5160   30.8870 C   0  0  0  0  0  0  0  0  0  0  0  0
   48.3510  158.3220   31.4010 O   0  0  0  0  0  0  0  0  0  0  0  0
   50.0220  157.5290   29.9420 C   0  0  0  0  0  0  0  0  0  0  0  0
   49.2740  156.3960   29.6840 O   0  0  0  0  0  0  0  0  0  0  0  0
   51.7740  155.4650   28.5750 C   0  0  0  0  0  0  0  0  0  0  0  0
   52.3990  154.5890   27.6630 C   0  0  0  0  0  0  0  0  0  0  0  0
   52.2310  153.0960   27.8390 C   0  0  0  0  0  0  0  0  0  0  0  0
   51.5560  152.7750   28.9780 F   0  0  0  0  0  0  0  0  0  0  0  0
   51.5440  152.4970   26.8240 F   0  0  0  0  0  0  0  0  0  0  0  0
   53.4210  152.4350   27.9100 F   0  0  0  0  0  0  0  0  0  0  0  0
   54.4538  153.4848   26.1328 H   0  0  0  0  0  0  0  0  0  0  0  0
   53.1059  153.7535   24.9763 H   0  0  0  0  0  0  0  0  0  0  0  0
   54.5229  154.8575   24.9763 H   0  0  0  0  0  0  0  0  0  0  0  0
   53.8771  156.9493   25.6706 H   0  0  0  0  0  0  0  0  0  0  0  0
   52.7614  158.4622   27.2913 H   0  0  0  0  0  0  0  0  0  0  0  0
   53.2500  161.0731   30.3185 H   0  0  0  0  0  0  0  0  0  0  0  0
   52.4325  162.8479   31.8719 H   0  0  0  0  0  0  0  0  0  0  0  0
   50.2112  162.6061   32.9875 H   0  0  0  0  0  0  0  0  0  0  0  0
   47.9080  160.0690   32.3690 H   0  0  0  0  0  0  0  0  0  0  0  0
   48.4060  156.3180   30.0300 H   0  0  0  0  0  0  0  0  0  0  0  0
   51.1711  155.0456   29.3939 H   0  0  0  0  0  0  0  0  0  0  0  0
  1  2  1  0
  2  3  2  0
  3  4  1  0
  4  5  2  0
  5  6  1  0
  6  7  1  0
  7  8  1  0
  8  9  2  0
  9 10  1  0
 10 11  2  0
 11 12  1  0
 12 13  1  0
 12 14  2  0
 14 15  1  0
 15 16  2  0
 15 17  1  0
 17 18  1  0
  5 19  1  0
 19 20  2  0
 20 21  1  0
 21 22  1  0
 21 23  1  0
 21 24  1  0
 20  2  1  0
 17  6  2  0
 14  8  1  0
  1 25  1  0
  1 26  1  0
  1 27  1  0
  3 28  1  0
  4 29  1  0
  9 30  1  0
 10 31  1  0
 11 32  1  0
 13 33  1  0
 18 34  1  0
 19 35  1  0
M  END
>  <meeko>  (8) 
{"is_sidechain": [false], "free_energy": -8.142, "intermolecular_energy": -9.781, "internal_energy": -0.001}

$$$$
