cand_002_out
     RDKit          3D

 45 48  0  0  0  0  0  0  0  0999 V2000
   51.4090  153.1800   29.5170 C   0  0  0  0  0  0  0  0  0  0  0  0
   51.7420  154.5060   28.8920 C   0  0  0  0  0  0  0  0  0  0  0  0
   51.3990  155.6820   29.5860 C   0  0  0  0  0  0  0  0  0  0  0  0
   51.6630  156.9560   29.0600 C   0  0  0  0  0  0  0  0  0  0  0  0
   51.2630  158.1630   29.8160 C   0  0  0  0  0  0  0  0  0  0  0  0
   49.9440  158.1150   30.2500 O   0  0  0  0  0  0  0  0  0  0  0  0
   49.4420  159.1720   30.9650 C   0  0  0  0  0  0  0  0  0  0  0  0
   48.1090  159.0880   31.3690 C   0  0  0  0  0  0  0  0  0  0  0  0
   47.5360  160.1300   32.1020 C   0  0  0  0  0  0  0  0  0  0  0  0
   48.2960  161.2540   32.4310 C   0  0  0  0  0  0  0  0  0  0  0  0
   49.6260  161.3350   32.0270 C   0  0  0  0  0  0  0  0  0  0  0  0
   50.3120  162.4640   32.3840 O   0  0  0  0  0  0  0  0  0  0  0  0
   50.1980  160.2930   31.2930 C   0  0  0  0  0  0  0  0  0  0  0  0
   51.5920  160.3380   30.8490 C   0  0  0  0  0  0  0  0  0  0  0  0
   52.3260  161.2910   31.1060 O   0  0  0  0  0  0  0  0  0  0  0  0
   52.1010  159.1860   30.0700 C   0  0  0  0  0  0  0  0  0  0  0  0
   53.4230  159.2330   29.6670 O   0  0  0  0  0  0  0  0  0  0  0  0
   52.2650  157.0420   27.8020 C   0  0  0  0  0  0  0  0  0  0  0  0
   52.6020  155.8870   27.0940 C   0  0  0  0  0  0  0  0  0  0  0  0
   52.3450  154.6090   27.6210 C   0  0  0  0  0  0  0  0  0  0  0  0
   52.7260  153.3940   26.7940 C   0  0  0  0  0  0  0  0  0  0  0  0
   53.5290  153.6890   25.5450 C   0  0  0  0  0  0  0  0  0  0  0  0
   53.6270  152.7260   24.5290 C   0  0  0  0  0  0  0  0  0  0  0  0
   54.3850  152.9750   23.3840 C   0  0  0  0  0  0  0  0  0  0  0  0
   55.0600  154.1850   23.2420 C   0  0  0  0  0  0  0  0  0  0  0  0
   54.9820  155.1450   24.2490 C   0  0  0  0  0  0  0  0  0  0  0  0
   54.2250  154.8970   25.3960 C   0  0  0  0  0  0  0  0  0  0  0  0
   51.4328  153.2748   30.6127 H   0  0  0  0  0  0  0  0  0  0  0  0
   50.4042  152.8662   29.1978 H   0  0  0  0  0  0  0  0  0  0  0  0
   52.1464  152.4287   29.1978 H   0  0  0  0  0  0  0  0  0  0  0  0
   50.9104  155.5999   30.5681 H   0  0  0  0  0  0  0  0  0  0  0  0
   47.5101  158.2023   31.1106 H   0  0  0  0  0  0  0  0  0  0  0  0
   46.4851  160.0649   32.4203 H   0  0  0  0  0  0  0  0  0  0  0  0
   47.8448  162.0743   33.0085 H   0  0  0  0  0  0  0  0  0  0  0  0
   49.8510  163.2680   32.5230 H   0  0  0  0  0  0  0  0  0  0  0  0
   53.6340  159.4390   28.7780 H   0  0  0  0  0  0  0  0  0  0  0  0
   52.4754  158.0294   27.3653 H   0  0  0  0  0  0  0  0  0  0  0  0
   53.0771  155.9783   26.1061 H   0  0  0  0  0  0  0  0  0  0  0  0
   53.3213  152.7226   27.4303 H   0  0  0  0  0  0  0  0  0  0  0  0
   51.7799  152.9505   26.4503 H   0  0  0  0  0  0  0  0  0  0  0  0
   53.1013  151.7657   24.6361 H   0  0  0  0  0  0  0  0  0  0  0  0
   54.4495  152.2142   22.5921 H   0  0  0  0  0  0  0  0  0  0  0  0
   55.6533  154.3823   22.3370 H   0  0  0  0  0  0  0  0  0  0  0  0
   55.5175  156.0997   24.1403 H   0  0  0  0  0  0  0  0  0  0  0  0
   54.1743  155.6565   26.1901 H   0  0  0  0  0  0  0  0  0  0  0  0
  1  2  1  0
  2  3  2  0
  3  4  1  0
  4  5  1  0
  5  6  1  0
  6  7  1  0
  7  8  2  0
  8  9  1  0
  9 10  2  0
 10 11  1  0
 11 12  1  0
 11 13  2  0
 13 14  1  0
 14 15  2  0
 14 16  1  0
 16 17  1  0
  4 18  2  0
 18 19  1  0
 19 20  2  0
 20 21  1  0
 21 22  1  0
 22 23  2  0
 23 24  1  0
 24 25  2  0
 25 26  1  0
 26 27  2  0
 20  2  1  0
 27 22  1  0
 16  5  2  0
 13  7  1  0
  1 28  1  0
  1 29  1  0
  1 30  1  0
  3 31  1  0
  8 32  1  0
  9 33  1  0
 10 34  1  0
 12 35  1  0
 17 36  1  0
 18 37  1  0
 19 38  1  0
 21 39  1  0
 21 40  1  0
 23 41  1  0
 24 42  1  0
 25 43  1  0
 26 44  1  0
 27 45  1  0
M  END
>  <meeko>  (1) 
{"is_sidechain": [false], "free_energy": -10.495, "intermolecular_energy": -12.949, "internal_energy": 0.54}

$$$$
cand_002_out
     RDKit          3D

 45 48  0  0  0  0  0  0  0  0999 V2000
   54.0190  156.6170   24.8360 C   0  0  0  0  0  0  0  0  0  0  0  0
   53.4240  156.0060   26.0750 C   0  0  0  0  0  0  0  0  0  0  0  0
   52.7330  156.8430   26.9720 C   0  0  0  0  0  0  0  0  0  0  0  0
   52.1640  156.3500   28.1560 C   0  0  0  0  0  0  0  0  0  0  0  0
   51.4660  157.2720   29.0780 C   0  0  0  0  0  0  0  0  0  0  0  0
   52.1990  158.4210   29.3490 O   0  0  0  0  0  0  0  0  0  0  0  0
   51.6670  159.3640   30.1910 C   0  0  0  0  0  0  0  0  0  0  0  0
   52.4430  160.4960   30.4460 C   0  0  0  0  0  0  0  0  0  0  0  0
   51.9600  161.4950   31.2940 C   0  0  0  0  0  0  0  0  0  0  0  0
   50.7020  161.3630   31.8860 C   0  0  0  0  0  0  0  0  0  0  0  0
   49.9300  160.2320   31.6290 C   0  0  0  0  0  0  0  0  0  0  0  0
   48.7080  160.1680   32.2420 O   0  0  0  0  0  0  0  0  0  0  0  0
   50.4150  159.2330   30.7820 C   0  0  0  0  0  0  0  0  0  0  0  0
   49.6360  158.0300   30.4860 C   0  0  0  0  0  0  0  0  0  0  0  0
   48.5180  157.8440   30.9640 O   0  0  0  0  0  0  0  0  0  0  0  0
   50.2420  157.0260   29.5810 C   0  0  0  0  0  0  0  0  0  0  0  0
   49.4920  155.8990   29.2980 O   0  0  0  0  0  0  0  0  0  0  0  0
   52.3170  154.9920   28.4490 C   0  0  0  0  0  0  0  0  0  0  0  0
   53.0100  154.1490   27.5770 C   0  0  0  0  0  0  0  0  0  0  0  0
   53.5740  154.6400   26.3860 C   0  0  0  0  0  0  0  0  0  0  0  0
   54.3250  153.6710   25.4890 C   0  0  0  0  0  0  0  0  0  0  0  0
   53.8350  152.2400   25.5300 C   0  0  0  0  0  0  0  0  0  0  0  0
   54.5010  151.2470   24.7960 C   0  0  0  0  0  0  0  0  0  0  0  0
   54.0450  149.9280   24.8050 C   0  0  0  0  0  0  0  0  0  0  0  0
   52.9130  149.5860   25.5410 C   0  0  0  0  0  0  0  0  0  0  0  0
   52.2340  150.5640   26.2650 C   0  0  0  0  0  0  0  0  0  0  0  0
   52.6890  151.8840   26.2560 C   0  0  0  0  0  0  0  0  0  0  0  0
   54.7600  157.3780   25.1220 H   0  0  0  0  0  0  0  0  0  0  0  0
   54.5095  155.8333   24.2400 H   0  0  0  0  0  0  0  0  0  0  0  0
   53.2226  157.0865   24.2400 H   0  0  0  0  0  0  0  0  0  0  0  0
   52.6366  157.9135   26.7379 H   0  0  0  0  0  0  0  0  0  0  0  0
   53.4337  160.6010   29.9796 H   0  0  0  0  0  0  0  0  0  0  0  0
   52.5712  162.3870   31.4959 H   0  0  0  0  0  0  0  0  0  0  0  0
   50.3216  162.1501   32.5536 H   0  0  0  0  0  0  0  0  0  0  0  0
   48.3730  159.3420   32.5330 H   0  0  0  0  0  0  0  0  0  0  0  0
   49.6080  155.4520   28.4830 H   0  0  0  0  0  0  0  0  0  0  0  0
   51.8875  154.5830   29.3754 H   0  0  0  0  0  0  0  0  0  0  0  0
   53.1164  153.0829   27.8262 H   0  0  0  0  0  0  0  0  0  0  0  0
   54.2386  154.0303   24.4529 H   0  0  0  0  0  0  0  0  0  0  0  0
   55.3592  153.6493   25.8630 H   0  0  0  0  0  0  0  0  0  0  0  0
   55.3919  151.5108   24.2072 H   0  0  0  0  0  0  0  0  0  0  0  0
   54.5801  149.1577   24.2303 H   0  0  0  0  0  0  0  0  0  0  0  0
   52.5557  148.5457   25.5507 H   0  0  0  0  0  0  0  0  0  0  0  0
   51.3383  150.2957   26.8444 H   0  0  0  0  0  0  0  0  0  0  0  0
   52.1434  152.6521   26.8238 H   0  0  0  0  0  0  0  0  0  0  0  0
  1  2  1  0
  2  3  2  0
  3  4  1  0
  4  5  1  0
  5  6  1  0
  6  7  1  0
  7  8  2  0
  8  9  1  0
  9 10  2  0
 10 11  1  0
 11 12  1  0
 11 13  2  0
 13 14  1  0
 14 15  2  0
 14 16  1  0
 16 17  1  0
  4 18  2  0
 18 19  1  0
 19 20  2  0
 20 21  1  0
 21 22  1  0
 22 23  2  0
 23 24  1  0
 24 25  2  0
 25 26  1  0
 26 27  2  0
 20  2  1  0
 27 22  1  0
 16  5  2  0
 13  7  1  0
  1 28  1  0
  1 29  1  0
  1 30  1  0
  3 31  1  0
  8 32  1  0
  9 33  1  0
 10 34  1  0
 12 35  1  0
 17 36  1  0
 18 37  1  0
 19 38  1  0
 21 39  1  0
 21 40  1  0
 23 41  1  0
 24 42  1  0
 25 43  1  0
 26 44  1  0
 27 45  1  0
M  END
>  <meeko>  (2) 
{"is_sidechain": [false], "free_energy": -10.404, "intermolecular_energy": -12.648, "internal_energy": 0.351}

$$$$
cand_002_out
     RDKit          3D

 45 48  0  0  0  0  0  0  0  0999 V2000
   49.5480  157.6880   30.6160 C   0  0  0  0  0  0  0  0  0  0  0  0
   50.8170  157.5830   29.8150 C   0  0  0  0  0  0  0  0  0  0  0  0
   51.0690  156.3920   29.1080 C   0  0  0  0  0  0  0  0  0  0  0  0
   52.2380  156.2130   28.3520 C   0  0  0  0  0  0  0  0  0  0  0  0
   52.4690  154.9360   27.6440 C   0  0  0  0  0  0  0  0  0  0  0  0
   53.1870  155.0940   26.4650 O   0  0  0  0  0  0  0  0  0  0  0  0
   53.4720  153.9870   25.7070 C   0  0  0  0  0  0  0  0  0  0  0  0
   54.1830  154.1950   24.5240 C   0  0  0  0  0  0  0  0  0  0  0  0
   54.5070  153.1100   23.7070 C   0  0  0  0  0  0  0  0  0  0  0  0
   54.1220  151.8190   24.0720 C   0  0  0  0  0  0  0  0  0  0  0  0
   53.4130  151.6150   25.2530 C   0  0  0  0  0  0  0  0  0  0  0  0
   53.0660  150.3240   25.5500 O   0  0  0  0  0  0  0  0  0  0  0  0
   53.0870  152.7010   26.0700 C   0  0  0  0  0  0  0  0  0  0  0  0
   52.3430  152.5300   27.3180 C   0  0  0  0  0  0  0  0  0  0  0  0
   51.9750  151.4240   27.7100 O   0  0  0  0  0  0  0  0  0  0  0  0
   52.0420  153.7460   28.1080 C   0  0  0  0  0  0  0  0  0  0  0  0
   51.3510  153.5710   29.2930 O   0  0  0  0  0  0  0  0  0  0  0  0
   53.1760  157.2480   28.3280 C   0  0  0  0  0  0  0  0  0  0  0  0
   52.9490  158.4310   29.0340 C   0  0  0  0  0  0  0  0  0  0  0  0
   51.7760  158.6160   29.7860 C   0  0  0  0  0  0  0  0  0  0  0  0
   51.5960  159.9230   30.5380 C   0  0  0  0  0  0  0  0  0  0  0  0
   50.1820  160.2220   30.9850 C   0  0  0  0  0  0  0  0  0  0  0  0
   49.2350  160.6850   30.0590 C   0  0  0  0  0  0  0  0  0  0  0  0
   47.9340  160.9890   30.4620 C   0  0  0  0  0  0  0  0  0  0  0  0
   47.5640  160.8420   31.7970 C   0  0  0  0  0  0  0  0  0  0  0  0
   48.4980  160.3960   32.7310 C   0  0  0  0  0  0  0  0  0  0  0  0
   49.8000  160.0920   32.3290 C   0  0  0  0  0  0  0  0  0  0  0  0
   49.7890  157.6681   31.6891 H   0  0  0  0  0  0  0  0  0  0  0  0
   49.0376  158.6315   30.3723 H   0  0  0  0  0  0  0  0  0  0  0  0
   48.8895  156.8413   30.3723 H   0  0  0  0  0  0  0  0  0  0  0  0
   50.3292  155.5790   29.1492 H   0  0  0  0  0  0  0  0  0  0  0  0
   54.4876  155.2120   24.2358 H   0  0  0  0  0  0  0  0  0  0  0  0
   55.0666  153.2730   22.7741 H   0  0  0  0  0  0  0  0  0  0  0  0
   54.3781  150.9646   23.4282 H   0  0  0  0  0  0  0  0  0  0  0  0
   53.0530  149.6760   24.8740 H   0  0  0  0  0  0  0  0  0  0  0  0
   50.6550  152.9450   29.3420 H   0  0  0  0  0  0  0  0  0  0  0  0
   54.1026  157.1298   27.7471 H   0  0  0  0  0  0  0  0  0  0  0  0
   53.7016  159.2326   29.0011 H   0  0  0  0  0  0  0  0  0  0  0  0
   52.2357  159.8914   31.4323 H   0  0  0  0  0  0  0  0  0  0  0  0
   51.8666  160.7208   29.8307 H   0  0  0  0  0  0  0  0  0  0  0  0
   49.5211  160.8097   29.0042 H   0  0  0  0  0  0  0  0  0  0  0  0
   47.1996  161.3452   29.7245 H   0  0  0  0  0  0  0  0  0  0  0  0
   46.5371  161.0773   32.1135 H   0  0  0  0  0  0  0  0  0  0  0  0
   48.2087  160.2834   33.7863 H   0  0  0  0  0  0  0  0  0  0  0  0
   50.5334  159.7473   33.0729 H   0  0  0  0  0  0  0  0  0  0  0  0
  1  2  1  0
  2  3  2  0
  3  4  1  0
  4  5  1  0
  5  6  1  0
  6  7  1  0
  7  8  2  0
  8  9  1  0
  9 10  2  0
 10 11  1  0
 11 12  1  0
 11 13  2  0
 13 14  1  0
 14 15  2  0
 14 16  1  0
 16 17  1  0
  4 18  2  0
 18 19  1  0
 19 20  2  0
 20 21  1  0
 21 22  1  0
 22 23  2  0
 23 24  1  0
 24 25  2  0
 25 26  1  0
 26 27  2  0
 20  2  1  0
 27 22  1  0
 16  5  2  0
 13  7  1  0
  1 28  1  0
  1 29  1  0
  1 30  1  0
  3 31  1  0
  8 32  1  0
  9 33  1  0
 10 34  1  0
 12 35  1  0
 17 36  1  0
 18 37  1  0
 19 38  1  0
 21 39  1  0
 21 40  1  0
 23 41  1  0
 24 42  1  0
 25 43  1  0
 26 44  1  0
 27 45  1  0
M  END
>  <meeko>  (3) 
{"is_sidechain": [false], "free_energy": -10.314, "intermolecular_energy": -13.831, "internal_energy": 1.645}

$$$$
cand_002_out
     RDKit          3D

 45 48  0  0  0  0  0  0  0  0999 V2000
   54.2980  156.0560   24.4330 C   0  0  0  0  0  0  0  0  0  0  0  0
   53.6780  155.5980   25.7240 C   0  0  0  0  0  0  0  0  0  0  0  0
   53.1520  156.5680   26.5980 C   0  0  0  0  0  0  0  0  0  0  0  0
   52.5720  156.2200   27.8280 C   0  0  0  0  0  0  0  0  0  0  0  0
   52.0520  157.2770   28.7220 C   0  0  0  0  0  0  0  0  0  0  0  0
   50.7110  157.1040   29.0400 O   0  0  0  0  0  0  0  0  0  0  0  0
   50.1010  158.0140   29.8650 C   0  0  0  0  0  0  0  0  0  0  0  0
   48.7500  157.8100   30.1460 C   0  0  0  0  0  0  0  0  0  0  0  0
   48.0690  158.6990   30.9800 C   0  0  0  0  0  0  0  0  0  0  0  0
   48.7390  159.7920   31.5330 C   0  0  0  0  0  0  0  0  0  0  0  0
   50.0870  159.9940   31.2500 C   0  0  0  0  0  0  0  0  0  0  0  0
   50.6820  161.0850   31.8250 O   0  0  0  0  0  0  0  0  0  0  0  0
   50.7680  159.1050   30.4150 C   0  0  0  0  0  0  0  0  0  0  0  0
   52.1840  159.2800   30.0930 C   0  0  0  0  0  0  0  0  0  0  0  0
   52.8440  160.2140   30.5460 O   0  0  0  0  0  0  0  0  0  0  0  0
   52.8110  158.2860   29.1920 C   0  0  0  0  0  0  0  0  0  0  0  0
   54.1530  158.4540   28.9050 O   0  0  0  0  0  0  0  0  0  0  0  0
   52.5420  154.8710   28.1880 C   0  0  0  0  0  0  0  0  0  0  0  0
   53.0700  153.8960   27.3390 C   0  0  0  0  0  0  0  0  0  0  0  0
   53.6450  154.2410   26.1030 C   0  0  0  0  0  0  0  0  0  0  0  0
   54.2110  153.1320   25.2330 C   0  0  0  0  0  0  0  0  0  0  0  0
   53.6230  151.7580   25.4740 C   0  0  0  0  0  0  0  0  0  0  0  0
   54.1520  150.6410   24.8110 C   0  0  0  0  0  0  0  0  0  0  0  0
   53.6040  149.3720   25.0050 C   0  0  0  0  0  0  0  0  0  0  0  0
   52.5140  149.2050   25.8560 C   0  0  0  0  0  0  0  0  0  0  0  0
   51.9690  150.3080   26.5110 C   0  0  0  0  0  0  0  0  0  0  0  0
   52.5170  151.5780   26.3180 C   0  0  0  0  0  0  0  0  0  0  0  0
   55.1654  156.6968   24.6498 H   0  0  0  0  0  0  0  0  0  0  0  0
   54.6247  155.1807   23.8523 H   0  0  0  0  0  0  0  0  0  0  0  0
   53.5574  156.6256   23.8523 H   0  0  0  0  0  0  0  0  0  0  0  0
   53.1967  157.6284   26.3090 H   0  0  0  0  0  0  0  0  0  0  0  0
   48.2213  156.9491   29.7108 H   0  0  0  0  0  0  0  0  0  0  0  0
   47.0036  158.5381   31.2015 H   0  0  0  0  0  0  0  0  0  0  0  0
   48.2029  160.4919   32.1908 H   0  0  0  0  0  0  0  0  0  0  0  0
   51.5480  161.3350   31.5700 H   0  0  0  0  0  0  0  0  0  0  0  0
   54.5260  159.3140   28.8960 H   0  0  0  0  0  0  0  0  0  0  0  0
   52.0982  154.5736   29.1496 H   0  0  0  0  0  0  0  0  0  0  0  0
   53.0355  152.8393   27.6425 H   0  0  0  0  0  0  0  0  0  0  0  0
   54.0307  153.3993   24.1813 H   0  0  0  0  0  0  0  0  0  0  0  0
   55.2775  153.0565   25.4914 H   0  0  0  0  0  0  0  0  0  0  0  0
   55.0076  150.7663   24.1311 H   0  0  0  0  0  0  0  0  0  0  0  0
   54.0334  148.5028   24.4852 H   0  0  0  0  0  0  0  0  0  0  0  0
   52.0841  148.2044   26.0108 H   0  0  0  0  0  0  0  0  0  0  0  0
   51.1062  150.1780   27.1808 H   0  0  0  0  0  0  0  0  0  0  0  0
   52.0773  152.4452   26.8325 H   0  0  0  0  0  0  0  0  0  0  0  0
  1  2  1  0
  2  3  2  0
  3  4  1  0
  4  5  1  0
  5  6  1  0
  6  7  1  0
  7  8  2  0
  8  9  1  0
  9 10  2  0
 10 11  1  0
 11 12  1  0
 11 13  2  0
 13 14  1  0
 14 15  2  0
 14 16  1  0
 16 17  1  0
  4 18  2  0
 18 19  1  0
 19 20  2  0
 20 21  1  0
 21 22  1  0
 22 23  2  0
 23 24  1  0
 24 25  2  0
 25 26  1  0
 26 27  2  0
 20  2  1  0
 27 22  1  0
 16  5  2  0
 13  7  1  0
  1 28  1  0
  1 29  1  0
  1 30  1  0
  3 31  1  0
  8 32  1  0
  9 33  1  0
 10 34  1  0
 12 35  1  0
 17 36  1  0
 18 37  1  0
 19 38  1  0
 21 39  1  0
 21 40  1  0
 23 41  1  0
 24 42  1  0
 25 43  1  0
 26 44  1  0
 27 45  1  0
M  END
>  <meeko>  (4) 
{"is_sidechain": [false], "free_energy": -9.871, "intermolecular_energy": -12.045, "internal_energy": 0.405}

$$$$
cand_002_out
     RDKit          3D

 45 48  0  0  0  0  0  0  0  0999 V2000
   51.8010  158.9430   30.1810 C   0  0  0  0  0  0  0  0  0  0  0  0
   51.3260  157.5990   29.7020 C   0  0  0  0  0  0  0  0  0  0  0  0
   52.0570  156.9490   28.6880 C   0  0  0  0  0  0  0  0  0  0  0  0
   51.6690  155.7010   28.1790 C   0  0  0  0  0  0  0  0  0  0  0  0
   52.4560  155.0690   27.0990 C   0  0  0  0  0  0  0  0  0  0  0  0
   52.2990  153.6880   27.0540 O   0  0  0  0  0  0  0  0  0  0  0  0
   52.9750  152.9740   26.0980 C   0  0  0  0  0  0  0  0  0  0  0  0
   52.7990  151.5900   26.0980 C   0  0  0  0  0  0  0  0  0  0  0  0
   53.4570  150.8040   25.1500 C   0  0  0  0  0  0  0  0  0  0  0  0
   54.2900  151.4010   24.2020 C   0  0  0  0  0  0  0  0  0  0  0  0
   54.4640  152.7830   24.2040 C   0  0  0  0  0  0  0  0  0  0  0  0
   55.2930  153.3020   23.2470 O   0  0  0  0  0  0  0  0  0  0  0  0
   53.8060  153.5690   25.1540 C   0  0  0  0  0  0  0  0  0  0  0  0
   53.9610  155.0230   25.1900 C   0  0  0  0  0  0  0  0  0  0  0  0
   54.6710  155.6230   24.3860 O   0  0  0  0  0  0  0  0  0  0  0  0
   53.2260  155.7650   26.2410 C   0  0  0  0  0  0  0  0  0  0  0  0
   53.3690  157.1400   26.2580 O   0  0  0  0  0  0  0  0  0  0  0  0
   50.5100  155.1100   28.6870 C   0  0  0  0  0  0  0  0  0  0  0  0
   49.7650  155.7440   29.6840 C   0  0  0  0  0  0  0  0  0  0  0  0
   50.1560  156.9920   30.2010 C   0  0  0  0  0  0  0  0  0  0  0  0
   49.2950  157.6320   31.2760 C   0  0  0  0  0  0  0  0  0  0  0  0
   49.1390  159.1340   31.1690 C   0  0  0  0  0  0  0  0  0  0  0  0
   49.3560  159.9450   32.2930 C   0  0  0  0  0  0  0  0  0  0  0  0
   49.1910  161.3290   32.2150 C   0  0  0  0  0  0  0  0  0  0  0  0
   48.7990  161.9190   31.0150 C   0  0  0  0  0  0  0  0  0  0  0  0
   48.5660  161.1240   29.8940 C   0  0  0  0  0  0  0  0  0  0  0  0
   48.7310  159.7400   29.9710 C   0  0  0  0  0  0  0  0  0  0  0  0
   51.8067  158.9592   31.2809 H   0  0  0  0  0  0  0  0  0  0  0  0
   52.8187  159.1271   29.8063 H   0  0  0  0  0  0  0  0  0  0  0  0
   51.1250  159.7257   29.8063 H   0  0  0  0  0  0  0  0  0  0  0  0
   52.9578  157.4342   28.2840 H   0  0  0  0  0  0  0  0  0  0  0  0
   52.1425  151.1185   26.8441 H   0  0  0  0  0  0  0  0  0  0  0  0
   53.3188  149.7127   25.1501 H   0  0  0  0  0  0  0  0  0  0  0  0
   54.8078  150.7813   23.4551 H   0  0  0  0  0  0  0  0  0  0  0  0
   54.9450  153.8510   22.5730 H   0  0  0  0  0  0  0  0  0  0  0  0
   52.6100  157.6900   26.2430 H   0  0  0  0  0  0  0  0  0  0  0  0
   50.1805  154.1353   28.2980 H   0  0  0  0  0  0  0  0  0  0  0  0
   48.8570  155.2588   30.0714 H   0  0  0  0  0  0  0  0  0  0  0  0
   48.2930  157.1813   31.2222 H   0  0  0  0  0  0  0  0  0  0  0  0
   49.8104  157.4463   32.2299 H   0  0  0  0  0  0  0  0  0  0  0  0
   49.6592  159.4857   33.2454 H   0  0  0  0  0  0  0  0  0  0  0  0
   49.3706  161.9545   33.1018 H   0  0  0  0  0  0  0  0  0  0  0  0
   48.6737  163.0101   30.9525 H   0  0  0  0  0  0  0  0  0  0  0  0
   48.2517  161.5878   28.9474 H   0  0  0  0  0  0  0  0  0  0  0  0
   48.5393  159.1184   29.0839 H   0  0  0  0  0  0  0  0  0  0  0  0
  1  2  1  0
  2  3  2  0
  3  4  1  0
  4  5  1  0
  5  6  1  0
  6  7  1  0
  7  8  2  0
  8  9  1  0
  9 10  2  0
 10 11  1  0
 11 12  1  0
 11 13  2  0
 13 14  1  0
 14 15  2  0
 14 16  1  0
 16 17  1  0
  4 18  2  0
 18 19  1  0
 19 20  2  0
 20 21  1  0
 21 22  1  0
 22 23  2  0
 23 24  1  0
 24 25  2  0
 25 26  1  0
 26 27  2  0
 20  2  1  0
 27 22  1  0
 16  5  2  0
 13  7  1  0
  1 28  1  0
  1 29  1  0
  1 30  1  0
  3 31  1  0
  8 32  1  0
  9 33  1  0
 10 34  1  0
 12 35  1  0
 17 36  1  0
 18 37  1  0
 19 38  1  0
 21 39  1  0
 21 40  1  0
 23 41  1  0
 24 42  1  0
 25 43  1  0
 26 44  1  0
 27 45  1  0
M  END
>  <meeko>  (5) 
{"is_sidechain": [false], "free_energy": -9.678, "intermolecular_energy": -12.191, "internal_energy": 0.79}

$$$$
cand_002_out
     RDKit          3D

 45 48  0  0  0  0  0  0  0  0999 V2000
   53.9870  156.5000   24.7200 C   0  0  0  0  0  0  0  0  0  0  0  0
   53.4070  156.0250   26.0240 C   0  0  0  0  0  0  0  0  0  0  0  0
   52.8790  156.9810   26.9120 C   0  0  0  0  0  0  0  0  0  0  0  0
   52.3360  156.6180   28.1540 C   0  0  0  0  0  0  0  0  0  0  0  0
   51.8140  157.6600   29.0630 C   0  0  0  0  0  0  0  0  0  0  0  0
   50.4670  157.4900   29.3620 O   0  0  0  0  0  0  0  0  0  0  0  0
   49.8530  158.3890   30.1970 C   0  0  0  0  0  0  0  0  0  0  0  0
   48.4980  158.1880   30.4580 C   0  0  0  0  0  0  0  0  0  0  0  0
   47.8130  159.0660   31.3010 C   0  0  0  0  0  0  0  0  0  0  0  0
   48.4840  160.1430   31.8830 C   0  0  0  0  0  0  0  0  0  0  0  0
   49.8370  160.3410   31.6210 C   0  0  0  0  0  0  0  0  0  0  0  0
   50.4330  161.4160   32.2240 O   0  0  0  0  0  0  0  0  0  0  0  0
   50.5210  159.4630   30.7760 C   0  0  0  0  0  0  0  0  0  0  0  0
   51.9430  159.6350   30.4750 C   0  0  0  0  0  0  0  0  0  0  0  0
   52.6040  160.5550   30.9540 O   0  0  0  0  0  0  0  0  0  0  0  0
   52.5730  158.6540   29.5620 C   0  0  0  0  0  0  0  0  0  0  0  0
   53.9200  158.8180   29.2940 O   0  0  0  0  0  0  0  0  0  0  0  0
   52.3460  155.2670   28.5110 C   0  0  0  0  0  0  0  0  0  0  0  0
   52.8760  154.3060   27.6480 C   0  0  0  0  0  0  0  0  0  0  0  0
   53.4150  154.6670   26.4000 C   0  0  0  0  0  0  0  0  0  0  0  0
   53.9850  153.5730   25.5140 C   0  0  0  0  0  0  0  0  0  0  0  0
   53.3920  152.1970   25.7230 C   0  0  0  0  0  0  0  0  0  0  0  0
   52.3260  152.0200   26.6190 C   0  0  0  0  0  0  0  0  0  0  0  0
   51.7860  150.7520   26.8400 C   0  0  0  0  0  0  0  0  0  0  0  0
   52.3080  149.6450   26.1760 C   0  0  0  0  0  0  0  0  0  0  0  0
   53.3750  149.8040   25.2940 C   0  0  0  0  0  0  0  0  0  0  0  0
   53.9160  151.0710   25.0710 C   0  0  0  0  0  0  0  0  0  0  0  0
   54.8240  157.1855   24.9190 H   0  0  0  0  0  0  0  0  0  0  0  0
   54.3497  155.6361   24.1437 H   0  0  0  0  0  0  0  0  0  0  0  0
   53.2115  157.0258   24.1437 H   0  0  0  0  0  0  0  0  0  0  0  0
   52.8924  158.0426   26.6243 H   0  0  0  0  0  0  0  0  0  0  0  0
   47.9692  157.3389   30.0005 H   0  0  0  0  0  0  0  0  0  0  0  0
   46.7439  158.9087   31.5065 H   0  0  0  0  0  0  0  0  0  0  0  0
   47.9446  160.8341   32.5475 H   0  0  0  0  0  0  0  0  0  0  0  0
   51.1190  161.8790   31.7850 H   0  0  0  0  0  0  0  0  0  0  0  0
   54.2100  158.9540   28.4130 H   0  0  0  0  0  0  0  0  0  0  0  0
   51.9320  154.9575   29.4820 H   0  0  0  0  0  0  0  0  0  0  0  0
   52.8720  153.2481   27.9493 H   0  0  0  0  0  0  0  0  0  0  0  0
   53.8144  153.8610   24.4662 H   0  0  0  0  0  0  0  0  0  0  0  0
   55.0489  153.4893   25.7805 H   0  0  0  0  0  0  0  0  0  0  0  0
   51.9123  152.8888   27.1520 H   0  0  0  0  0  0  0  0  0  0  0  0
   50.9466  150.6270   27.5399 H   0  0  0  0  0  0  0  0  0  0  0  0
   51.8789  148.6468   26.3474 H   0  0  0  0  0  0  0  0  0  0  0  0
   53.7915  148.9295   24.7727 H   0  0  0  0  0  0  0  0  0  0  0  0
   54.7616  151.1878   24.3772 H   0  0  0  0  0  0  0  0  0  0  0  0
  1  2  1  0
  2  3  2  0
  3  4  1  0
  4  5  1  0
  5  6  1  0
  6  7  1  0
  7  8  2  0
  8  9  1  0
  9 10  2  0
 10 11  1  0
 11 12  1  0
 11 13  2  0
 13 14  1  0
 14 15  2  0
 14 16  1  0
 16 17  1  0
  4 18  2  0
 18 19  1  0
 19 20  2  0
 20 21  1  0
 21 22  1  0
 22 23  2  0
 23 24  1  0
 24 25  2  0
 25 26  1  0
 26 27  2  0
 20  2  1  0
 27 22  1  0
 16  5  2  0
 13  7  1  0
  1 28  1  0
  1 29  1  0
  1 30  1  0
  3 31  1  0
  8 32  1  0
  9 33  1  0
 10 34  1  0
 12 35  1  0
 17 36  1  0
 18 37  1  0
 19 38  1  0
 21 39  1  0
 21 40  1  0
 23 41  1  0
 24 42  1  0
 25 43  1  0
 26 44  1  0
 27 45  1  0
M  END
>  <meeko>  (6) 
{"is_sidechain": [false], "free_energy": -9.626, "intermolecular_energy": -11.764, "internal_energy": 0.427}

$$$$
cand_002_out
     RDKit          3D

 45 48  0  0  0  0  0  0  0  0999 V2000
   50.7450  160.1070   30.0780 C   0  0  0  0  0  0  0  0  0  0  0  0
   50.3760  158.6650   29.8640 C   0  0  0  0  0  0  0  0  0  0  0  0
   51.2660  157.8440   29.1460 C   0  0  0  0  0  0  0  0  0  0  0  0
   50.9840  156.4920   28.8920 C   0  0  0  0  0  0  0  0  0  0  0  0
   51.9390  155.6750   28.1140 C   0  0  0  0  0  0  0  0  0  0  0  0
   52.4350  156.3390   26.9980 O   0  0  0  0  0  0  0  0  0  0  0  0
   53.3330  155.6940   26.1850 C   0  0  0  0  0  0  0  0  0  0  0  0
   53.7930  156.3930   25.0690 C   0  0  0  0  0  0  0  0  0  0  0  0
   54.7090  155.7950   24.2010 C   0  0  0  0  0  0  0  0  0  0  0  0
   55.1650  154.4990   24.4510 C   0  0  0  0  0  0  0  0  0  0  0  0
   54.7050  153.8040   25.5660 C   0  0  0  0  0  0  0  0  0  0  0  0
   55.1930  152.5390   25.7500 O   0  0  0  0  0  0  0  0  0  0  0  0
   53.7870  154.4020   26.4330 C   0  0  0  0  0  0  0  0  0  0  0  0
   53.2770  153.7070   27.6150 C   0  0  0  0  0  0  0  0  0  0  0  0
   53.6370  152.5670   27.9050 O   0  0  0  0  0  0  0  0  0  0  0  0
   52.3020  154.4260   28.4660 C   0  0  0  0  0  0  0  0  0  0  0  0
   51.8370  153.7650   29.5880 O   0  0  0  0  0  0  0  0  0  0  0  0
   49.7740  155.9700   29.3530 C   0  0  0  0  0  0  0  0  0  0  0  0
   48.8740  156.7730   30.0570 C   0  0  0  0  0  0  0  0  0  0  0  0
   49.1570  158.1250   30.3190 C   0  0  0  0  0  0  0  0  0  0  0  0
   48.1300  158.9450   31.0800 C   0  0  0  0  0  0  0  0  0  0  0  0
   48.6970  160.0580   31.9350 C   0  0  0  0  0  0  0  0  0  0  0  0
   48.5050  161.3970   31.5640 C   0  0  0  0  0  0  0  0  0  0  0  0
   49.0440  162.4320   32.3290 C   0  0  0  0  0  0  0  0  0  0  0  0
   49.7880  162.1420   33.4710 C   0  0  0  0  0  0  0  0  0  0  0  0
   49.9970  160.8160   33.8450 C   0  0  0  0  0  0  0  0  0  0  0  0
   49.4590  159.7800   33.0800 C   0  0  0  0  0  0  0  0  0  0  0  0
   50.7984  160.3156   31.1567 H   0  0  0  0  0  0  0  0  0  0  0  0
   51.7234  160.3074   29.6169 H   0  0  0  0  0  0  0  0  0  0  0  0
   49.9832  160.7527   29.6169 H   0  0  0  0  0  0  0  0  0  0  0  0
   52.2079  158.2732   28.7738 H   0  0  0  0  0  0  0  0  0  0  0  0
   53.4346  157.4143   24.8728 H   0  0  0  0  0  0  0  0  0  0  0  0
   55.0715  156.3450   23.3200 H   0  0  0  0  0  0  0  0  0  0  0  0
   55.8868  154.0278   23.7677 H   0  0  0  0  0  0  0  0  0  0  0  0
   55.9120  152.2340   25.2320 H   0  0  0  0  0  0  0  0  0  0  0  0
   52.4320  153.5330   30.2750 H   0  0  0  0  0  0  0  0  0  0  0  0
   49.5270  154.9156   29.1598 H   0  0  0  0  0  0  0  0  0  0  0  0
   47.9273  156.3402   30.4127 H   0  0  0  0  0  0  0  0  0  0  0  0
   47.4437  159.3949   30.3475 H   0  0  0  0  0  0  0  0  0  0  0  0
   47.6377  158.2482   31.7743 H   0  0  0  0  0  0  0  0  0  0  0  0
   47.9236  161.6336   30.6607 H   0  0  0  0  0  0  0  0  0  0  0  0
   48.8814  163.4781   32.0302 H   0  0  0  0  0  0  0  0  0  0  0  0
   50.2095  162.9582   34.0761 H   0  0  0  0  0  0  0  0  0  0  0  0
   50.5868  160.5855   34.7444 H   0  0  0  0  0  0  0  0  0  0  0  0
   49.6340  158.7356   33.3775 H   0  0  0  0  0  0  0  0  0  0  0  0
  1  2  1  0
  2  3  2  0
  3  4  1  0
  4  5  1  0
  5  6  1  0
  6  7  1  0
  7  8  2  0
  8  9  1  0
  9 10  2  0
 10 11  1  0
 11 12  1  0
 11 13  2  0
 13 14  1  0
 14 15  2  0
 14 16  1  0
 16 17  1  0
  4 18  2  0
 18 19  1  0
 19 20  2  0
 20 21  1  0
 21 22  1  0
 22 23  2  0
 23 24  1  0
 24 25  2  0
 25 26  1  0
 26 27  2  0
 20  2  1  0
 27 22  1  0
 16  5  2  0
 13  7  1  0
  1 28  1  0
  1 29  1  0
  1 30  1  0
  3 31  1  0
  8 32  1  0
  9 33  1  0
 10 34  1  0
 12 35  1  0
 17 36  1  0
 18 37  1  0
 19 38  1  0
 21 39  1  0
 21 40  1  0
 23 41  1  0
 24 42  1  0
 25 43  1  0
 26 44  1  0
 27 45  1  0
M  END
>  <meeko>  (7) 
{"is_sidechain": [false], "free_energy": -9.273, "intermolecular_energy": -11.779, "internal_energy": 0.878}

$$$$
cand_002_out
     RDKit          3D

 45 48  0  0  0  0  0  0  0  0999 V2000
   51.5790  152.6770   29.2550 C   0  0  0  0  0  0  0  0  0  0  0  0
   51.9130  154.0650   28.7830 C   0  0  0  0  0  0  0  0  0  0  0  0
   51.3050  155.1600   29.4270 C   0  0  0  0  0  0  0  0  0  0  0  0
   51.5540  156.4830   29.0330 C   0  0  0  0  0  0  0  0  0  0  0  0
   50.8750  157.5990   29.7260 C   0  0  0  0  0  0  0  0  0  0  0  0
   51.7360  158.6420   30.0430 O   0  0  0  0  0  0  0  0  0  0  0  0
   51.2360  159.7440   30.6900 C   0  0  0  0  0  0  0  0  0  0  0  0
   52.1390  160.7600   31.0010 C   0  0  0  0  0  0  0  0  0  0  0  0
   51.6950  161.9100   31.6580 C   0  0  0  0  0  0  0  0  0  0  0  0
   50.3480  162.0420   32.0020 C   0  0  0  0  0  0  0  0  0  0  0  0
   49.4490  161.0260   31.6910 C   0  0  0  0  0  0  0  0  0  0  0  0
   48.1450  161.2210   32.0570 O   0  0  0  0  0  0  0  0  0  0  0  0
   49.8950  159.8760   31.0350 C   0  0  0  0  0  0  0  0  0  0  0  0
   48.9830  158.7840   30.6890 C   0  0  0  0  0  0  0  0  0  0  0  0
   47.7830  158.8300   30.9530 O   0  0  0  0  0  0  0  0  0  0  0  0
   49.5560  157.6050   30.0000 C   0  0  0  0  0  0  0  0  0  0  0  0
   48.6830  156.5860   29.6660 O   0  0  0  0  0  0  0  0  0  0  0  0
   52.4160  156.7020   27.9560 C   0  0  0  0  0  0  0  0  0  0  0  0
   53.0190  155.6290   27.2960 C   0  0  0  0  0  0  0  0  0  0  0  0
   52.7760  154.3020   27.6940 C   0  0  0  0  0  0  0  0  0  0  0  0
   53.4550  153.1810   26.9270 C   0  0  0  0  0  0  0  0  0  0  0  0
   53.9230  153.5420   25.5340 C   0  0  0  0  0  0  0  0  0  0  0  0
   53.7870  152.6200   24.4850 C   0  0  0  0  0  0  0  0  0  0  0  0
   54.2380  152.9310   23.2010 C   0  0  0  0  0  0  0  0  0  0  0  0
   54.8370  154.1630   22.9500 C   0  0  0  0  0  0  0  0  0  0  0  0
   54.9910  155.0840   23.9850 C   0  0  0  0  0  0  0  0  0  0  0  0
   54.5410  154.7740   25.2700 C   0  0  0  0  0  0  0  0  0  0  0  0
   51.5737  152.6550   30.3548 H   0  0  0  0  0  0  0  0  0  0  0  0
   50.5862  152.3904   28.8778 H   0  0  0  0  0  0  0  0  0  0  0  0
   52.3327  151.9701   28.8778 H   0  0  0  0  0  0  0  0  0  0  0  0
   50.6151  154.9724   30.2629 H   0  0  0  0  0  0  0  0  0  0  0  0
   53.1998  160.6560   30.7293 H   0  0  0  0  0  0  0  0  0  0  0  0
   52.4066  162.7118   31.9045 H   0  0  0  0  0  0  0  0  0  0  0  0
   49.9978  162.9480   32.5182 H   0  0  0  0  0  0  0  0  0  0  0  0
   47.8280  162.0880   32.2170 H   0  0  0  0  0  0  0  0  0  0  0  0
   47.8670  156.5000   30.1190 H   0  0  0  0  0  0  0  0  0  0  0  0
   52.6221  157.7303   27.6242 H   0  0  0  0  0  0  0  0  0  0  0  0
   53.6952  155.8249   26.4508 H   0  0  0  0  0  0  0  0  0  0  0  0
   54.3315  152.8552   27.5063 H   0  0  0  0  0  0  0  0  0  0  0  0
   52.6950  152.3961   26.7988 H   0  0  0  0  0  0  0  0  0  0  0  0
   53.3204  151.6424   24.6763 H   0  0  0  0  0  0  0  0  0  0  0  0
   54.1201  152.2017   22.3860 H   0  0  0  0  0  0  0  0  0  0  0  0
   55.1879  154.4088   21.9369 H   0  0  0  0  0  0  0  0  0  0  0  0
   55.4675  156.0559   23.7893 H   0  0  0  0  0  0  0  0  0  0  0  0
   54.6722  155.5027   26.0835 H   0  0  0  0  0  0  0  0  0  0  0  0
  1  2  1  0
  2  3  2  0
  3  4  1  0
  4  5  1  0
  5  6  1  0
  6  7  1  0
  7  8  2  0
  8  9  1  0
  9 10  2  0
 10 11  1  0
 11 12  1  0
 11 13  2  0
 13 14  1  0
 14 15  2  0
 14 16  1  0
 16 17  1  0
  4 18  2  0
 18 19  1  0
 19 20  2  0
 20 21  1  0
 21 22  1  0
 22 23  2  0
 23 24  1  0
 24 25  2  0
 25 26  1  0
 26 27  2  0
 20  2  1  0
 27 22  1  0
 16  5  2  0
 13  7  1  0
  1 28  1  0
  1 29  1  0
  1 30  1  0
  3 31  1  0
  8 32  1  0
  9 33  1  0
 10 34  1  0
 12 35  1  0
 17 36  1  0
 18 37  1  0
 19 38  1  0
 21 39  1  0
 21 40  1  0
 23 41  1  0
 24 42  1  0
 25 43  1  0
 26 44  1  0
 27 45  1  0
M  END
>  <meeko>  (8) 
{"is_sidechain": [false], "free_energy": -9.213, "intermolecular_energy": -11.255, "internal_energy": 0.427}

$$$$
cand_002_out
     RDKit          3D

 45 48  0  0  0  0  0  0  0  0999 V2000
   49.0080  158.2510   30.6780 C   0  0  0  0  0  0  0  0  0  0  0  0
   50.3680  158.0980   30.0570 C   0  0  0  0  0  0  0  0  0  0  0  0
   50.6620  156.9050   29.3680 C   0  0  0  0  0  0  0  0  0  0  0  0
   51.9140  156.6820   28.7750 C   0  0  0  0  0  0  0  0  0  0  0  0
   52.1830  155.4050   28.0810 C   0  0  0  0  0  0  0  0  0  0  0  0
   52.7810  155.5810   26.8390 O   0  0  0  0  0  0  0  0  0  0  0  0
   53.0860  154.4760   26.0850 C   0  0  0  0  0  0  0  0  0  0  0  0
   53.6730  154.7000   24.8400 C   0  0  0  0  0  0  0  0  0  0  0  0
   54.0100  153.6190   24.0230 C   0  0  0  0  0  0  0  0  0  0  0  0
   53.7610  152.3140   24.4530 C   0  0  0  0  0  0  0  0  0  0  0  0
   53.1750  152.0930   25.6970 C   0  0  0  0  0  0  0  0  0  0  0  0
   52.9600  150.7890   26.0550 O   0  0  0  0  0  0  0  0  0  0  0  0
   52.8370  153.1750   26.5120 C   0  0  0  0  0  0  0  0  0  0  0  0
   52.2210  152.9870   27.8260 C   0  0  0  0  0  0  0  0  0  0  0  0
   51.9770  151.8690   28.2770 O   0  0  0  0  0  0  0  0  0  0  0  0
   51.8950  154.2000   28.6100 C   0  0  0  0  0  0  0  0  0  0  0  0
   51.3250  154.0110   29.8560 O   0  0  0  0  0  0  0  0  0  0  0  0
   52.8920  157.6710   28.9010 C   0  0  0  0  0  0  0  0  0  0  0  0
   52.6230  158.8550   29.5910 C   0  0  0  0  0  0  0  0  0  0  0  0
   51.3670  159.0850   30.1790 C   0  0  0  0  0  0  0  0  0  0  0  0
   51.1440  160.3890   30.9250 C   0  0  0  0  0  0  0  0  0  0  0  0
   52.3610  161.2810   31.0430 C   0  0  0  0  0  0  0  0  0  0  0  0
   52.6340  162.2320   30.0480 C   0  0  0  0  0  0  0  0  0  0  0  0
   53.7660  163.0440   30.1310 C   0  0  0  0  0  0  0  0  0  0  0  0
   54.6440  162.9120   31.2050 C   0  0  0  0  0  0  0  0  0  0  0  0
   54.3920  161.9620   32.1940 C   0  0  0  0  0  0  0  0  0  0  0  0
   53.2600  161.1490   32.1120 C   0  0  0  0  0  0  0  0  0  0  0  0
   49.1020  158.2404   31.7739 H   0  0  0  0  0  0  0  0  0  0  0  0
   48.5637  159.2048   30.3573 H   0  0  0  0  0  0  0  0  0  0  0  0
   48.3629  157.4198   30.3573 H   0  0  0  0  0  0  0  0  0  0  0  0
   49.8885  156.1265   29.2928 H   0  0  0  0  0  0  0  0  0  0  0  0
   53.8705  155.7279   24.5017 H   0  0  0  0  0  0  0  0  0  0  0  0
   54.4718  153.7954   23.0403 H   0  0  0  0  0  0  0  0  0  0  0  0
   54.0272  151.4619   23.8103 H   0  0  0  0  0  0  0  0  0  0  0  0
   52.7970  150.1440   25.3960 H   0  0  0  0  0  0  0  0  0  0  0  0
   51.1250  154.7490   30.3970 H   0  0  0  0  0  0  0  0  0  0  0  0
   53.8842  157.5158   28.4522 H   0  0  0  0  0  0  0  0  0  0  0  0
   53.4078  159.6211   29.6759 H   0  0  0  0  0  0  0  0  0  0  0  0
   50.3593  160.9521   30.3986 H   0  0  0  0  0  0  0  0  0  0  0  0
   50.8702  160.1092   31.9530 H   0  0  0  0  0  0  0  0  0  0  0  0
   51.9489  162.3385   29.1940 H   0  0  0  0  0  0  0  0  0  0  0  0
   53.9655  163.7896   29.3472 H   0  0  0  0  0  0  0  0  0  0  0  0
   55.5335  163.5556   31.2724 H   0  0  0  0  0  0  0  0  0  0  0  0
   55.0862  161.8529   33.0402 H   0  0  0  0  0  0  0  0  0  0  0  0
   53.0711  160.3978   32.8930 H   0  0  0  0  0  0  0  0  0  0  0  0
  1  2  1  0
  2  3  2  0
  3  4  1  0
  4  5  1  0
  5  6  1  0
  6  7  1  0
  7  8  2  0
  8  9  1  0
  9 10  2  0
 10 11  1  0
 11 12  1  0
 11 13  2  0
 13 14  1  0
 14 15  2  0
 14 16  1  0
 16 17  1  0
  4 18  2  0
 18 19  1  0
 19 20  2  0
 20 21  1  0
 21 22  1  0
 22 23  2  0
 23 24  1  0
 24 25  2  0
 25 26  1  0
 26 27  2  0
 20  2  1  0
 27 22  1  0
 16  5  2  0
 13  7  1  0
  1 28  1  0
  1 29  1  0
  1 30  1  0
  3 31  1  0
  8 32  1  0
  9 33  1  0
 10 34  1  0
 12 35  1  0
 17 36  1  0
 18 37  1  0
 19 38  1  0
 21 39  1  0
 21 40  1  0
 23 41  1  0
 24 42  1  0
 25 43  1  0
 26 44  1  0
 27 45  1  0
M  END
>  <meeko>  (9) 
{"is_sidechain": [false], "free_energy": -9.181, "intermolecular_energy": -10.388, "internal_energy": -0.4}

$$$$
