cand_034_out
     RDKit          3D

 40 42  0  0  0  0  0  0  0  0999 V2000
   48.1870  161.3540   31.2100 C   0  0  0  0  0  0  0  0  0  0  0  0
   49.4130  160.7730   31.7680 N   0  0  0  0  0  0  0  0  0  0  0  0
   49.3030  160.4260   33.1930 C   0  0  0  0  0  0  0  0  0  0  0  0
   49.9470  159.6960   31.0280 C   0  0  0  0  0  0  0  0  0  0  0  0
   49.2210  158.5190   30.7900 C   0  0  0  0  0  0  0  0  0  0  0  0
   49.7790  157.4540   30.0720 C   0  0  0  0  0  0  0  0  0  0  0  0
   51.0800  157.5330   29.5700 C   0  0  0  0  0  0  0  0  0  0  0  0
   51.7050  156.4100   28.8380 C   0  0  0  0  0  0  0  0  0  0  0  0
   52.2590  156.7990   27.6240 O   0  0  0  0  0  0  0  0  0  0  0  0
   52.8670  155.8530   26.8390 C   0  0  0  0  0  0  0  0  0  0  0  0
   53.4180  156.2900   25.6330 C   0  0  0  0  0  0  0  0  0  0  0  0
   54.0510  155.3790   24.7860 C   0  0  0  0  0  0  0  0  0  0  0  0
   54.1340  154.0320   25.1440 C   0  0  0  0  0  0  0  0  0  0  0  0
   53.5830  153.5980   26.3470 C   0  0  0  0  0  0  0  0  0  0  0  0
   53.6990  152.2650   26.6350 O   0  0  0  0  0  0  0  0  0  0  0  0
   52.9490  154.5110   27.1950 C   0  0  0  0  0  0  0  0  0  0  0  0
   52.3560  154.0980   28.4670 C   0  0  0  0  0  0  0  0  0  0  0  0
   52.3820  152.9300   28.8490 O   0  0  0  0  0  0  0  0  0  0  0  0
   51.7120  155.1430   29.2940 C   0  0  0  0  0  0  0  0  0  0  0  0
   51.1410  154.7390   30.4870 O   0  0  0  0  0  0  0  0  0  0  0  0
   51.8150  158.7000   29.8190 C   0  0  0  0  0  0  0  0  0  0  0  0
   51.2610  159.7830   30.5300 C   0  0  0  0  0  0  0  0  0  0  0  0
   52.0990  161.0130   30.7670 C   0  0  0  0  0  0  0  0  0  0  0  0
   53.3060  160.9610   30.1240 F   0  0  0  0  0  0  0  0  0  0  0  0
   52.4080  161.1880   32.0850 F   0  0  0  0  0  0  0  0  0  0  0  0
   47.5241  161.6682   32.0297 H   0  0  0  0  0  0  0  0  0  0  0  0
   48.4434  162.2264   30.5910 H   0  0  0  0  0  0  0  0  0  0  0  0
   47.6742  160.6031   30.5910 H   0  0  0  0  0  0  0  0  0  0  0  0
   49.5792  161.2973   33.8049 H   0  0  0  0  0  0  0  0  0  0  0  0
   48.2676  160.1320   33.4199 H   0  0  0  0  0  0  0  0  0  0  0  0
   49.9799  159.5892   33.4199 H   0  0  0  0  0  0  0  0  0  0  0  0
   48.1942  158.4312   31.1747 H   0  0  0  0  0  0  0  0  0  0  0  0
   49.1853  156.5439   29.9012 H   0  0  0  0  0  0  0  0  0  0  0  0
   53.3533  157.3512   25.3506 H   0  0  0  0  0  0  0  0  0  0  0  0
   54.4850  155.7226   23.8354 H   0  0  0  0  0  0  0  0  0  0  0  0
   54.6340  153.3146   24.4767 H   0  0  0  0  0  0  0  0  0  0  0  0
   53.2550  151.9070   27.3790 H   0  0  0  0  0  0  0  0  0  0  0  0
   51.6820  154.5800   31.2350 H   0  0  0  0  0  0  0  0  0  0  0  0
   52.8490  158.7722   29.4506 H   0  0  0  0  0  0  0  0  0  0  0  0
   51.4746  161.8338   30.3843 H   0  0  0  0  0  0  0  0  0  0  0  0
  1  2  1  0
  2  3  1  0
  2  4  1  0
  4  5  2  0
  5  6  1  0
  6  7  2  0
  7  8  1  0
  8  9  1  0
  9 10  1  0
 10 11  2  0
 11 12  1  0
 12 13  2  0
 13 14  1  0
 14 15  1  0
 14 16  2  0
 16 17  1  0
 17 18  2  0
 17 19  1  0
 19 20  1  0
  7 21  1  0
 21 22  2  0
 22 23  1  0
 23 24  1  0
 23 25  1  0
 22  4  1  0
 19  8  2  0
 16 10  1  0
  1 26  1  0
  1 27  1  0
  1 28  1  0
  3 29  1  0
  3 30  1  0
  3 31  1  0
  5 32  1  0
  6 33  1  0
 11 34  1  0
 12 35  1  0
 13 36  1  0
 15 37  1  0
 20 38  1  0
 21 39  1  0
 23 40  1  0
M  END
>  <meeko>  (1) 
{"is_sidechain": [false], "free_energy": -10.304, "intermolecular_energy": -12.714, "internal_energy": -0.37}

$$$$
cand_034_out
     RDKit          3D

 40 42  0  0  0  0  0  0  0  0999 V2000
   54.3280  152.4980   26.3410 C   0  0  0  0  0  0  0  0  0  0  0  0
   52.9030  152.8410   26.3510 N   0  0  0  0  0  0  0  0  0  0  0  0
   52.0270  151.7080   26.6860 C   0  0  0  0  0  0  0  0  0  0  0  0
   52.5730  153.9750   27.1250 C   0  0  0  0  0  0  0  0  0  0  0  0
   52.0280  153.8690   28.4140 C   0  0  0  0  0  0  0  0  0  0  0  0
   51.6880  155.0080   29.1550 C   0  0  0  0  0  0  0  0  0  0  0  0
   51.8830  156.2870   28.6310 C   0  0  0  0  0  0  0  0  0  0  0  0
   51.5020  157.5050   29.3790 C   0  0  0  0  0  0  0  0  0  0  0  0
   50.1670  157.5040   29.7690 O   0  0  0  0  0  0  0  0  0  0  0  0
   49.6790  158.5780   30.4670 C   0  0  0  0  0  0  0  0  0  0  0  0
   48.3360  158.5300   30.8460 C   0  0  0  0  0  0  0  0  0  0  0  0
   47.7750  159.5910   31.5590 C   0  0  0  0  0  0  0  0  0  0  0  0
   48.5550  160.7000   31.8920 C   0  0  0  0  0  0  0  0  0  0  0  0
   49.8940  160.7470   31.5120 C   0  0  0  0  0  0  0  0  0  0  0  0
   50.6010  161.8630   31.8700 O   0  0  0  0  0  0  0  0  0  0  0  0
   50.4560  159.6830   30.7990 C   0  0  0  0  0  0  0  0  0  0  0  0
   51.8570  159.6910   30.3790 C   0  0  0  0  0  0  0  0  0  0  0  0
   52.6060  160.6340   30.6280 O   0  0  0  0  0  0  0  0  0  0  0  0
   52.3560  158.5140   29.6320 C   0  0  0  0  0  0  0  0  0  0  0  0
   53.6780  158.5400   29.2260 O   0  0  0  0  0  0  0  0  0  0  0  0
   52.4130  156.3990   27.3380 C   0  0  0  0  0  0  0  0  0  0  0  0
   52.7690  155.2610   26.5860 C   0  0  0  0  0  0  0  0  0  0  0  0
   53.3340  155.4430   25.2010 C   0  0  0  0  0  0  0  0  0  0  0  0
   54.7010  155.3850   25.1770 F   0  0  0  0  0  0  0  0  0  0  0  0
   53.0210  156.6580   24.6650 F   0  0  0  0  0  0  0  0  0  0  0  0
   54.6914  152.4105   27.3756 H   0  0  0  0  0  0  0  0  0  0  0  0
   54.4709  151.5398   25.8200 H   0  0  0  0  0  0  0  0  0  0  0  0
   54.8912  153.2862   25.8200 H   0  0  0  0  0  0  0  0  0  0  0  0
   51.9531  151.6124   27.7793 H   0  0  0  0  0  0  0  0  0  0  0  0
   51.0258  151.8815   26.2646 H   0  0  0  0  0  0  0  0  0  0  0  0
   52.4469  150.7827   26.2646 H   0  0  0  0  0  0  0  0  0  0  0  0
   51.8648  152.8726   28.8506 H   0  0  0  0  0  0  0  0  0  0  0  0
   51.2619  154.8931   30.1626 H   0  0  0  0  0  0  0  0  0  0  0  0
   47.7206  157.6570   30.5830 H   0  0  0  0  0  0  0  0  0  0  0  0
   46.7173  159.5532   31.8588 H   0  0  0  0  0  0  0  0  0  0  0  0
   48.1124  161.5357   32.4539 H   0  0  0  0  0  0  0  0  0  0  0  0
   50.1660  162.5760   32.2950 H   0  0  0  0  0  0  0  0  0  0  0  0
   54.2600  159.1870   29.5730 H   0  0  0  0  0  0  0  0  0  0  0  0
   52.5544  157.3981   26.9000 H   0  0  0  0  0  0  0  0  0  0  0  0
   52.8872  154.6193   24.6249 H   0  0  0  0  0  0  0  0  0  0  0  0
  1  2  1  0
  2  3  1  0
  2  4  1  0
  4  5  2  0
  5  6  1  0
  6  7  2  0
  7  8  1  0
  8  9  1  0
  9 10  1  0
 10 11  2  0
 11 12  1  0
 12 13  2  0
 13 14  1  0
 14 15  1  0
 14 16  2  0
 16 17  1  0
 17 18  2  0
 17 19  1  0
 19 20  1  0
  7 21  1  0
 21 22  2  0
 22 23  1  0
 23 24  1  0
 23 25  1  0
 22  4  1  0
 19  8  2  0
 16 10  1  0
  1 26  1  0
  1 27  1  0
  1 28  1  0
  3 29  1  0
  3 30  1  0
  3 31  1  0
  5 32  1  0
  6 33  1  0
 11 34  1  0
 12 35  1  0
 13 36  1  0
 15 37  1  0
 20 38  1  0
 21 39  1  0
 23 40  1  0
M  END
>  <meeko>  (2) 
{"is_sidechain": [false], "free_energy": -9.841, "intermolecular_energy": -12.332, "internal_energy": -0.181}

$$$$
cand_034_out
     RDKit          3D

 40 42  0  0  0  0  0  0  0  0999 V2000
   51.5950  161.0000   31.7030 C   0  0  0  0  0  0  0  0  0  0  0  0
   50.5350  160.3000   30.9690 N   0  0  0  0  0  0  0  0  0  0  0  0
   49.7790  161.1680   30.0560 C   0  0  0  0  0  0  0  0  0  0  0  0
   50.9500  159.1210   30.3130 C   0  0  0  0  0  0  0  0  0  0  0  0
   52.2200  158.9980   29.7270 C   0  0  0  0  0  0  0  0  0  0  0  0
   52.6030  157.8280   29.0610 C   0  0  0  0  0  0  0  0  0  0  0  0
   51.7290  156.7430   28.9600 C   0  0  0  0  0  0  0  0  0  0  0  0
   52.0970  155.5080   28.2340 C   0  0  0  0  0  0  0  0  0  0  0  0
   52.6470  155.7610   26.9820 O   0  0  0  0  0  0  0  0  0  0  0  0
   53.0280  154.7020   26.1990 C   0  0  0  0  0  0  0  0  0  0  0  0
   53.5840  155.0030   24.9550 C   0  0  0  0  0  0  0  0  0  0  0  0
   53.9930  153.9720   24.1070 C   0  0  0  0  0  0  0  0  0  0  0  0
   53.8450  152.6410   24.5020 C   0  0  0  0  0  0  0  0  0  0  0  0
   53.2890  152.3430   25.7430 C   0  0  0  0  0  0  0  0  0  0  0  0
   53.1730  151.0190   26.0670 O   0  0  0  0  0  0  0  0  0  0  0  0
   52.8810  153.3760   26.5920 C   0  0  0  0  0  0  0  0  0  0  0  0
   52.2910  153.1080   27.9040 C   0  0  0  0  0  0  0  0  0  0  0  0
   52.1220  151.9640   28.3200 O   0  0  0  0  0  0  0  0  0  0  0  0
   51.8950  154.2730   28.7290 C   0  0  0  0  0  0  0  0  0  0  0  0
   51.3240  154.0070   29.9600 O   0  0  0  0  0  0  0  0  0  0  0  0
   50.4550  156.8660   29.5300 C   0  0  0  0  0  0  0  0  0  0  0  0
   50.0610  158.0340   30.2120 C   0  0  0  0  0  0  0  0  0  0  0  0
   48.6770  158.1090   30.8040 C   0  0  0  0  0  0  0  0  0  0  0  0
   47.8130  158.8410   30.0360 F   0  0  0  0  0  0  0  0  0  0  0  0
   48.6650  158.7160   32.0270 F   0  0  0  0  0  0  0  0  0  0  0  0
   51.4269  160.8890   32.7844 H   0  0  0  0  0  0  0  0  0  0  0  0
   52.5713  160.5684   31.4375 H   0  0  0  0  0  0  0  0  0  0  0  0
   51.5815  162.0674   31.4375 H   0  0  0  0  0  0  0  0  0  0  0  0
   49.1670  161.8706   30.6407 H   0  0  0  0  0  0  0  0  0  0  0  0
   50.4792  161.7315   29.4219 H   0  0  0  0  0  0  0  0  0  0  0  0
   49.1247  160.5517   29.4219 H   0  0  0  0  0  0  0  0  0  0  0  0
   52.9278  159.8375   29.7926 H   0  0  0  0  0  0  0  0  0  0  0  0
   53.6048  157.7621   28.6115 H   0  0  0  0  0  0  0  0  0  0  0  0
   53.6999  156.0514   24.6428 H   0  0  0  0  0  0  0  0  0  0  0  0
   54.4323  154.2086   23.1267 H   0  0  0  0  0  0  0  0  0  0  0  0
   54.1673  151.8290   23.8336 H   0  0  0  0  0  0  0  0  0  0  0  0
   52.4900  150.7360   26.6430 H   0  0  0  0  0  0  0  0  0  0  0  0
   50.3960  153.9030   30.0320 H   0  0  0  0  0  0  0  0  0  0  0  0
   49.7452  156.0302   29.4429 H   0  0  0  0  0  0  0  0  0  0  0  0
   48.3624  157.0570   30.8701 H   0  0  0  0  0  0  0  0  0  0  0  0
  1  2  1  0
  2  3  1  0
  2  4  1  0
  4  5  2  0
  5  6  1  0
  6  7  2  0
  7  8  1  0
  8  9  1  0
  9 10  1  0
 10 11  2  0
 11 12  1  0
 12 13  2  0
 13 14  1  0
 14 15  1  0
 14 16  2  0
 16 17  1  0
 17 18  2  0
 17 19  1  0
 19 20  1  0
  7 21  1  0
 21 22  2  0
 22 23  1  0
 23 24  1  0
 23 25  1  0
 22  4  1  0
 19  8  2  0
 16 10  1  0
  1 26  1  0
  1 27  1  0
  1 28  1  0
  3 29  1  0
  3 30  1  0
  3 31  1  0
  5 32  1  0
  6 33  1  0
 11 34  1  0
 12 35  1  0
 13 36  1  0
 15 37  1  0
 20 38  1  0
 21 39  1  0
 23 40  1  0
M  END
>  <meeko>  (3) 
{"is_sidechain": [false], "free_energy": -9.76, "intermolecular_energy": -12.664, "internal_energy": 0.251}

$$$$
cand_034_out
     RDKit          3D

 40 42  0  0  0  0  0  0  0  0999 V2000
   54.7470  152.6430   26.4720 C   0  0  0  0  0  0  0  0  0  0  0  0
   53.3260  152.9290   26.2510 N   0  0  0  0  0  0  0  0  0  0  0  0
   52.4670  151.7380   26.3210 C   0  0  0  0  0  0  0  0  0  0  0  0
   52.8020  153.9720   27.0470 C   0  0  0  0  0  0  0  0  0  0  0  0
   52.2320  153.7370   28.3070 C   0  0  0  0  0  0  0  0  0  0  0  0
   51.6990  154.7830   29.0700 C   0  0  0  0  0  0  0  0  0  0  0  0
   51.7200  156.0970   28.5960 C   0  0  0  0  0  0  0  0  0  0  0  0
   51.1340  157.2160   29.3670 C   0  0  0  0  0  0  0  0  0  0  0  0
   52.0460  158.2340   29.6190 O   0  0  0  0  0  0  0  0  0  0  0  0
   51.6350  159.3320   30.3300 C   0  0  0  0  0  0  0  0  0  0  0  0
   52.5810  160.3340   30.5510 C   0  0  0  0  0  0  0  0  0  0  0  0
   52.2290  161.4780   31.2690 C   0  0  0  0  0  0  0  0  0  0  0  0
   50.9320  161.6210   31.7660 C   0  0  0  0  0  0  0  0  0  0  0  0
   49.9900  160.6200   31.5450 C   0  0  0  0  0  0  0  0  0  0  0  0
   48.7390  160.8230   32.0600 O   0  0  0  0  0  0  0  0  0  0  0  0
   50.3430  159.4740   30.8250 C   0  0  0  0  0  0  0  0  0  0  0  0
   49.3850  158.3980   30.5710 C   0  0  0  0  0  0  0  0  0  0  0  0
   48.2270  158.4470   30.9810 O   0  0  0  0  0  0  0  0  0  0  0  0
   49.8580  157.2290   29.7950 C   0  0  0  0  0  0  0  0  0  0  0  0
   48.9480  156.2100   29.5750 O   0  0  0  0  0  0  0  0  0  0  0  0
   52.2750  156.3350   27.3310 C   0  0  0  0  0  0  0  0  0  0  0  0
   52.8250  155.2920   26.5590 C   0  0  0  0  0  0  0  0  0  0  0  0
   53.4070  155.6080   25.2060 C   0  0  0  0  0  0  0  0  0  0  0  0
   54.7750  155.6610   25.2190 F   0  0  0  0  0  0  0  0  0  0  0  0
   53.0110  156.8280   24.7390 F   0  0  0  0  0  0  0  0  0  0  0  0
   54.9491  152.6023   27.5525 H   0  0  0  0  0  0  0  0  0  0  0  0
   55.0018  151.6756   26.0146 H   0  0  0  0  0  0  0  0  0  0  0  0
   55.3562  153.4366   26.0146 H   0  0  0  0  0  0  0  0  0  0  0  0
   52.2816  151.4810   27.3744 H   0  0  0  0  0  0  0  0  0  0  0  0
   51.5099  151.9463   25.8205 H   0  0  0  0  0  0  0  0  0  0  0  0
   52.9668  150.8955   25.8205 H   0  0  0  0  0  0  0  0  0  0  0  0
   52.2032  152.7112   28.7032 H   0  0  0  0  0  0  0  0  0  0  0  0
   51.2584  154.5676   30.0546 H   0  0  0  0  0  0  0  0  0  0  0  0
   53.6030  160.2223   30.1597 H   0  0  0  0  0  0  0  0  0  0  0  0
   52.9743  162.2679   31.4435 H   0  0  0  0  0  0  0  0  0  0  0  0
   50.6550  162.5231   32.3312 H   0  0  0  0  0  0  0  0  0  0  0  0
   48.0150  160.9790   31.4850 H   0  0  0  0  0  0  0  0  0  0  0  0
   48.6660  156.0160   28.7030 H   0  0  0  0  0  0  0  0  0  0  0  0
   52.2814  157.3599   26.9315 H   0  0  0  0  0  0  0  0  0  0  0  0
   53.0420  154.7908   24.5665 H   0  0  0  0  0  0  0  0  0  0  0  0
  1  2  1  0
  2  3  1  0
  2  4  1  0
  4  5  2  0
  5  6  1  0
  6  7  2  0
  7  8  1  0
  8  9  1  0
  9 10  1  0
 10 11  2  0
 11 12  1  0
 12 13  2  0
 13 14  1  0
 14 15  1  0
 14 16  2  0
 16 17  1  0
 17 18  2  0
 17 19  1  0
 19 20  1  0
  7 21  1  0
 21 22  2  0
 22 23  1  0
 23 24  1  0
 23 25  1  0
 22  4  1  0
 19  8  2  0
 16 10  1  0
  1 26  1  0
  1 27  1  0
  1 28  1  0
  3 29  1  0
  3 30  1  0
  3 31  1  0
  5 32  1  0
  6 33  1  0
 11 34  1  0
 12 35  1  0
 13 36  1  0
 15 37  1  0
 20 38  1  0
 21 39  1  0
 23 40  1  0
M  END
>  <meeko>  (4) 
{"is_sidechain": [false], "free_energy": -8.535, "intermolecular_energy": -10.518, "internal_energy": -0.383}

$$$$
cand_034_out
     RDKit          3D

 40 42  0  0  0  0  0  0  0  0999 V2000
   53.7160  153.4720   23.9880 C   0  0  0  0  0  0  0  0  0  0  0  0
   53.6160  153.1460   25.4140 N   0  0  0  0  0  0  0  0  0  0  0  0
   54.8340  152.5300   25.9630 C   0  0  0  0  0  0  0  0  0  0  0  0
   53.1770  154.2080   26.2340 C   0  0  0  0  0  0  0  0  0  0  0  0
   53.4310  155.5520   25.9180 C   0  0  0  0  0  0  0  0  0  0  0  0
   53.0050  156.5880   26.7570 C   0  0  0  0  0  0  0  0  0  0  0  0
   52.3110  156.3140   27.9380 C   0  0  0  0  0  0  0  0  0  0  0  0
   51.8790  157.3880   28.8580 C   0  0  0  0  0  0  0  0  0  0  0  0
   50.5360  157.2940   29.2060 O   0  0  0  0  0  0  0  0  0  0  0  0
   50.0030  158.2320   30.0520 C   0  0  0  0  0  0  0  0  0  0  0  0
   48.6530  158.0920   30.3810 C   0  0  0  0  0  0  0  0  0  0  0  0
   48.0470  159.0140   31.2370 C   0  0  0  0  0  0  0  0  0  0  0  0
   48.7880  160.0740   31.7630 C   0  0  0  0  0  0  0  0  0  0  0  0
   50.1340  160.2120   31.4320 C   0  0  0  0  0  0  0  0  0  0  0  0
   50.8000  161.2730   31.9810 O   0  0  0  0  0  0  0  0  0  0  0  0
   50.7410  159.2880   30.5750 C   0  0  0  0  0  0  0  0  0  0  0  0
   52.1510  159.3960   30.2010 C   0  0  0  0  0  0  0  0  0  0  0  0
   52.8670  160.3040   30.6170 O   0  0  0  0  0  0  0  0  0  0  0  0
   52.6990  158.3650   29.2910 C   0  0  0  0  0  0  0  0  0  0  0  0
   54.0290  158.4850   28.9310 O   0  0  0  0  0  0  0  0  0  0  0  0
   52.0680  154.9730   28.2650 C   0  0  0  0  0  0  0  0  0  0  0  0
   52.4820  153.9210   27.4240 C   0  0  0  0  0  0  0  0  0  0  0  0
   52.1920  152.4990   27.8280 C   0  0  0  0  0  0  0  0  0  0  0  0
   51.4690  151.8190   26.8870 F   0  0  0  0  0  0  0  0  0  0  0  0
   51.4480  152.4220   28.9700 F   0  0  0  0  0  0  0  0  0  0  0  0
   54.0368  154.5178   23.8726 H   0  0  0  0  0  0  0  0  0  0  0  0
   54.4518  152.8080   23.5108 H   0  0  0  0  0  0  0  0  0  0  0  0
   52.7345  153.3348   23.5108 H   0  0  0  0  0  0  0  0  0  0  0  0
   54.7922  152.5511   27.0620 H   0  0  0  0  0  0  0  0  0  0  0  0
   54.9049  151.4877   25.6187 H   0  0  0  0  0  0  0  0  0  0  0  0
   55.7156  153.0906   25.6187 H   0  0  0  0  0  0  0  0  0  0  0  0
   53.9751  155.7955   24.9935 H   0  0  0  0  0  0  0  0  0  0  0  0
   53.2194  157.6315   26.4829 H   0  0  0  0  0  0  0  0  0  0  0  0
   48.0684  157.2574   29.9668 H   0  0  0  0  0  0  0  0  0  0  0  0
   46.9838  158.9050   31.4974 H   0  0  0  0  0  0  0  0  0  0  0  0
   48.3096  160.7991   32.4378 H   0  0  0  0  0  0  0  0  0  0  0  0
   51.5280  161.1240   32.5520 H   0  0  0  0  0  0  0  0  0  0  0  0
   54.3410  158.0720   28.1510 H   0  0  0  0  0  0  0  0  0  0  0  0
   51.5412  154.7360   29.2011 H   0  0  0  0  0  0  0  0  0  0  0  0
   53.1901  152.0568   27.9635 H   0  0  0  0  0  0  0  0  0  0  0  0
  1  2  1  0
  2  3  1  0
  2  4  1  0
  4  5  2  0
  5  6  1  0
  6  7  2  0
  7  8  1  0
  8  9  1  0
  9 10  1  0
 10 11  2  0
 11 12  1  0
 12 13  2  0
 13 14  1  0
 14 15  1  0
 14 16  2  0
 16 17  1  0
 17 18  2  0
 17 19  1  0
 19 20  1  0
  7 21  1  0
 21 22  2  0
 22 23  1  0
 23 24  1  0
 23 25  1  0
 22  4  1  0
 19  8  2  0
 16 10  1  0
  1 26  1  0
  1 27  1  0
  1 28  1  0
  3 29  1  0
  3 30  1  0
  3 31  1  0
  5 32  1  0
  6 33  1  0
 11 34  1  0
 12 35  1  0
 13 36  1  0
 15 37  1  0
 20 38  1  0
 21 39  1  0
 23 40  1  0
M  END
>  <meeko>  (5) 
{"is_sidechain": [false], "free_energy": -8.102, "intermolecular_energy": -10.371, "internal_energy": 0.004}

$$$$
cand_034_out
     RDKit          3D

 40 42  0  0  0  0  0  0  0  0999 V2000
   54.1730  154.0510   24.2360 C   0  0  0  0  0  0  0  0  0  0  0  0
   53.8190  153.5590   25.5710 N   0  0  0  0  0  0  0  0  0  0  0  0
   54.9280  152.8860   26.2640 C   0  0  0  0  0  0  0  0  0  0  0  0
   53.2090  154.5160   26.4110 C   0  0  0  0  0  0  0  0  0  0  0  0
   53.3960  155.8950   26.2320 C   0  0  0  0  0  0  0  0  0  0  0  0
   52.7990  156.8260   27.0910 C   0  0  0  0  0  0  0  0  0  0  0  0
   51.9960  156.4080   28.1540 C   0  0  0  0  0  0  0  0  0  0  0  0
   51.3810  157.3680   29.0950 C   0  0  0  0  0  0  0  0  0  0  0  0
   52.1990  158.4600   29.3650 O   0  0  0  0  0  0  0  0  0  0  0  0
   51.7520  159.4270   30.2280 C   0  0  0  0  0  0  0  0  0  0  0  0
   52.6030  160.5080   30.4620 C   0  0  0  0  0  0  0  0  0  0  0  0
   52.2100  161.5280   31.3310 C   0  0  0  0  0  0  0  0  0  0  0  0
   50.9680  161.4670   31.9660 C   0  0  0  0  0  0  0  0  0  0  0  0
   50.1210  160.3860   31.7320 C   0  0  0  0  0  0  0  0  0  0  0  0
   48.9200  160.3880   32.3870 O   0  0  0  0  0  0  0  0  0  0  0  0
   50.5150  159.3650   30.8610 C   0  0  0  0  0  0  0  0  0  0  0  0
   49.6580  158.2120   30.5880 C   0  0  0  0  0  0  0  0  0  0  0  0
   48.5540  158.0820   31.1130 O   0  0  0  0  0  0  0  0  0  0  0  0
   50.1660  157.1880   29.6470 C   0  0  0  0  0  0  0  0  0  0  0  0
   49.3540  156.0940   29.4080 O   0  0  0  0  0  0  0  0  0  0  0  0
   51.8180  155.0300   28.3450 C   0  0  0  0  0  0  0  0  0  0  0  0
   52.4050  154.0840   27.4820 C   0  0  0  0  0  0  0  0  0  0  0  0
   52.1780  152.6160   27.7380 C   0  0  0  0  0  0  0  0  0  0  0  0
   51.4820  152.0060   26.7300 F   0  0  0  0  0  0  0  0  0  0  0  0
   51.4420  152.3900   28.8640 F   0  0  0  0  0  0  0  0  0  0  0  0
   54.8131  154.9406   24.3309 H   0  0  0  0  0  0  0  0  0  0  0  0
   54.7148  153.2662   23.6878 H   0  0  0  0  0  0  0  0  0  0  0  0
   53.2567  154.3153   23.6878 H   0  0  0  0  0  0  0  0  0  0  0  0
   54.7867  152.9717   27.3515 H   0  0  0  0  0  0  0  0  0  0  0  0
   54.9474  151.8236   25.9794 H   0  0  0  0  0  0  0  0  0  0  0  0
   55.8793  153.3593   25.9794 H   0  0  0  0  0  0  0  0  0  0  0  0
   54.0232  156.2514   25.4016 H   0  0  0  0  0  0  0  0  0  0  0  0
   52.9649  157.9009   26.9261 H   0  0  0  0  0  0  0  0  0  0  0  0
   53.5819  160.5565   29.9626 H   0  0  0  0  0  0  0  0  0  0  0  0
   52.8799  162.3808   31.5155 H   0  0  0  0  0  0  0  0  0  0  0  0
   50.6588  162.2712   32.6499 H   0  0  0  0  0  0  0  0  0  0  0  0
   48.3530  159.6440   32.3280 H   0  0  0  0  0  0  0  0  0  0  0  0
   49.6850  155.3620   28.9260 H   0  0  0  0  0  0  0  0  0  0  0  0
   51.2054  154.6796   29.1888 H   0  0  0  0  0  0  0  0  0  0  0  0
   53.1944  152.2056   27.8297 H   0  0  0  0  0  0  0  0  0  0  0  0
  1  2  1  0
  2  3  1  0
  2  4  1  0
  4  5  2  0
  5  6  1  0
  6  7  2  0
  7  8  1  0
  8  9  1  0
  9 10  1  0
 10 11  2  0
 11 12  1  0
 12 13  2  0
 13 14  1  0
 14 15  1  0
 14 16  2  0
 16 17  1  0
 17 18  2  0
 17 19  1  0
 19 20  1  0
  7 21  1  0
 21 22  2  0
 22 23  1  0
 23 24  1  0
 23 25  1  0
 22  4  1  0
 19  8  2  0
 16 10  1  0
  1 26  1  0
  1 27  1  0
  1 28  1  0
  3 29  1  0
  3 30  1  0
  3 31  1  0
  5 32  1  0
  6 33  1  0
 11 34  1  0
 12 35  1  0
 13 36  1  0
 15 37  1  0
 20 38  1  0
 21 39  1  0
 23 40  1  0
M  END
>  <meeko>  (6) 
{"is_sidechain": [false], "free_energy": -7.386, "intermolecular_energy": -9.731, "internal_energy": 0.248}

$$$$
