cand_028_out
     RDKit          3D

 38 40  0  0  0  0  0  0  0  0999 V2000
   47.3480  159.7270   30.8210 C   0  0  0  0  0  0  0  0  0  0  0  0
   48.3500  158.8420   31.5480 C   0  0  0  0  0  0  0  0  0  0  0  0
   49.7150  158.8860   30.8980 C   0  0  0  0  0  0  0  0  0  0  0  0
   50.1610  157.7410   30.2070 C   0  0  0  0  0  0  0  0  0  0  0  0
   51.4220  157.6940   29.5950 C   0  0  0  0  0  0  0  0  0  0  0  0
   51.8800  156.5040   28.8470 C   0  0  0  0  0  0  0  0  0  0  0  0
   52.4650  156.8260   27.6270 O   0  0  0  0  0  0  0  0  0  0  0  0
   52.9350  155.8140   26.8290 C   0  0  0  0  0  0  0  0  0  0  0  0
   53.4990  156.1820   25.6070 C   0  0  0  0  0  0  0  0  0  0  0  0
   53.9990  155.2020   24.7470 C   0  0  0  0  0  0  0  0  0  0  0  0
   53.9330  153.8540   25.1080 C   0  0  0  0  0  0  0  0  0  0  0  0
   53.3690  153.4900   26.3280 C   0  0  0  0  0  0  0  0  0  0  0  0
   53.3370  152.1540   26.6200 O   0  0  0  0  0  0  0  0  0  0  0  0
   52.8680  154.4720   27.1880 C   0  0  0  0  0  0  0  0  0  0  0  0
   52.2670  154.1320   28.4790 C   0  0  0  0  0  0  0  0  0  0  0  0
   52.1810  152.9710   28.8700 O   0  0  0  0  0  0  0  0  0  0  0  0
   51.7600  155.2470   29.3120 C   0  0  0  0  0  0  0  0  0  0  0  0
   51.2060  154.9150   30.5350 O   0  0  0  0  0  0  0  0  0  0  0  0
   52.2390  158.8260   29.6710 C   0  0  0  0  0  0  0  0  0  0  0  0
   51.8150  159.9670   30.3580 C   0  0  0  0  0  0  0  0  0  0  0  0
   50.5610  160.0080   30.9850 C   0  0  0  0  0  0  0  0  0  0  0  0
   50.1500  161.2630   31.7060 C   0  0  0  0  0  0  0  0  0  0  0  0
   46.7352  160.2682   31.5569 H   0  0  0  0  0  0  0  0  0  0  0  0
   47.8868  160.4494   30.1903 H   0  0  0  0  0  0  0  0  0  0  0  0
   46.6977  159.1031   30.1903 H   0  0  0  0  0  0  0  0  0  0  0  0
   48.4401  159.1869   32.5886 H   0  0  0  0  0  0  0  0  0  0  0  0
   47.9844  157.8054   31.5048 H   0  0  0  0  0  0  0  0  0  0  0  0
   49.5029  156.8617   30.1463 H   0  0  0  0  0  0  0  0  0  0  0  0
   53.5497  157.2431   25.3213 H   0  0  0  0  0  0  0  0  0  0  0  0
   54.4453  155.4917   23.7843 H   0  0  0  0  0  0  0  0  0  0  0  0
   54.3257  153.0819   24.4300 H   0  0  0  0  0  0  0  0  0  0  0  0
   53.5660  151.5250   25.9640 H   0  0  0  0  0  0  0  0  0  0  0  0
   51.6900  154.3900   31.1420 H   0  0  0  0  0  0  0  0  0  0  0  0
   53.2258  158.8186   29.1850 H   0  0  0  0  0  0  0  0  0  0  0  0
   52.4746  160.8459   30.4077 H   0  0  0  0  0  0  0  0  0  0  0  0
   50.2045  161.0965   32.7920 H   0  0  0  0  0  0  0  0  0  0  0  0
   50.8260  162.0845   31.4266 H   0  0  0  0  0  0  0  0  0  0  0  0
   49.1190  161.5255   31.4266 H   0  0  0  0  0  0  0  0  0  0  0  0
  1  2  1  0
  2  3  1  0
  3  4  2  0
  4  5  1  0
  5  6  1  0
  6  7  1  0
  7  8  1  0
  8  9  2  0
  9 10  1  0
 10 11  2  0
 11 12  1  0
 12 13  1  0
 12 14  2  0
 14 15  1  0
 15 16  2  0
 15 17  1  0
 17 18  1  0
  5 19  2  0
 19 20  1  0
 20 21  2  0
 21 22  1  0
 21  3  1  0
 17  6  2  0
 14  8  1  0
  1 23  1  0
  1 24  1  0
  1 25  1  0
  2 26  1  0
  2 27  1  0
  4 28  1  0
  9 29  1  0
 10 30  1  0
 11 31  1  0
 13 32  1  0
 18 33  1  0
 19 34  1  0
 20 35  1  0
 22 36  1  0
 22 37  1  0
 22 38  1  0
M  END
>  <meeko>  (1) 
{"is_sidechain": [false], "free_energy": -11.422, "intermolecular_energy": -13.425, "internal_energy": 0.018}

$$$$
cand_028_out
     RDKit          3D

 38 40  0  0  0  0  0  0  0  0999 V2000
   53.9350  156.5040   25.2210 C   0  0  0  0  0  0  0  0  0  0  0  0
   53.2580  155.1600   25.4440 C   0  0  0  0  0  0  0  0  0  0  0  0
   52.6500  155.0560   26.8240 C   0  0  0  0  0  0  0  0  0  0  0  0
   52.2920  156.2470   27.4870 C   0  0  0  0  0  0  0  0  0  0  0  0
   51.7420  156.2380   28.7760 C   0  0  0  0  0  0  0  0  0  0  0  0
   51.3410  157.4850   29.4610 C   0  0  0  0  0  0  0  0  0  0  0  0
   50.0150  157.4680   29.8810 O   0  0  0  0  0  0  0  0  0  0  0  0
   49.5110  158.5650   30.5320 C   0  0  0  0  0  0  0  0  0  0  0  0
   48.1730  158.5110   30.9210 C   0  0  0  0  0  0  0  0  0  0  0  0
   47.5970  159.5940   31.5900 C   0  0  0  0  0  0  0  0  0  0  0  0
   48.3600  160.7300   31.8690 C   0  0  0  0  0  0  0  0  0  0  0  0
   49.6960  160.7800   31.4800 C   0  0  0  0  0  0  0  0  0  0  0  0
   50.3860  161.9220   31.7850 O   0  0  0  0  0  0  0  0  0  0  0  0
   50.2710  159.6970   30.8090 C   0  0  0  0  0  0  0  0  0  0  0  0
   51.6720  159.7100   30.3820 C   0  0  0  0  0  0  0  0  0  0  0  0
   52.4080  160.6690   30.5980 O   0  0  0  0  0  0  0  0  0  0  0  0
   52.1810  158.5140   29.6720 C   0  0  0  0  0  0  0  0  0  0  0  0
   53.5090  158.5330   29.2850 O   0  0  0  0  0  0  0  0  0  0  0  0
   51.5360  155.0030   29.4000 C   0  0  0  0  0  0  0  0  0  0  0  0
   51.8910  153.8120   28.7600 C   0  0  0  0  0  0  0  0  0  0  0  0
   52.4580  153.8230   27.4770 C   0  0  0  0  0  0  0  0  0  0  0  0
   52.8160  152.5130   26.8300 C   0  0  0  0  0  0  0  0  0  0  0  0
   54.1666  156.9637   26.1931 H   0  0  0  0  0  0  0  0  0  0  0  0
   54.8661  156.3560   24.6543 H   0  0  0  0  0  0  0  0  0  0  0  0
   53.2619  157.1641   24.6543 H   0  0  0  0  0  0  0  0  0  0  0  0
   52.4625  155.0341   24.6947 H   0  0  0  0  0  0  0  0  0  0  0  0
   54.0217  154.3741   25.3483 H   0  0  0  0  0  0  0  0  0  0  0  0
   52.4485  157.2100   26.9789 H   0  0  0  0  0  0  0  0  0  0  0  0
   47.5715  157.6166   30.7014 H   0  0  0  0  0  0  0  0  0  0  0  0
   46.5416  159.5518   31.8972 H   0  0  0  0  0  0  0  0  0  0  0  0
   47.9066  161.5832   32.3948 H   0  0  0  0  0  0  0  0  0  0  0  0
   50.8490  162.3830   31.1130 H   0  0  0  0  0  0  0  0  0  0  0  0
   54.1350  159.0230   29.7810 H   0  0  0  0  0  0  0  0  0  0  0  0
   51.0899  154.9687   30.4049 H   0  0  0  0  0  0  0  0  0  0  0  0
   51.7232  152.8519   29.2700 H   0  0  0  0  0  0  0  0  0  0  0  0
   53.0209  151.7634   27.6086 H   0  0  0  0  0  0  0  0  0  0  0  0
   51.9781  152.1721   26.2042 H   0  0  0  0  0  0  0  0  0  0  0  0
   53.7108  152.6456   26.2042 H   0  0  0  0  0  0  0  0  0  0  0  0
  1  2  1  0
  2  3  1  0
  3  4  2  0
  4  5  1  0
  5  6  1  0
  6  7  1  0
  7  8  1  0
  8  9  2  0
  9 10  1  0
 10 11  2  0
 11 12  1  0
 12 13  1  0
 12 14  2  0
 14 15  1  0
 15 16  2  0
 15 17  1  0
 17 18  1  0
  5 19  2  0
 19 20  1  0
 20 21  2  0
 21 22  1  0
 21  3  1  0
 17  6  2  0
 14  8  1  0
  1 23  1  0
  1 24  1  0
  1 25  1  0
  2 26  1  0
  2 27  1  0
  4 28  1  0
  9 29  1  0
 10 30  1  0
 11 31  1  0
 13 32  1  0
 18 33  1  0
 19 34  1  0
 20 35  1  0
 22 36  1  0
 22 37  1  0
 22 38  1  0
M  END
>  <meeko>  (2) 
{"is_sidechain": [false], "free_energy": -10.677, "intermolecular_energy": -12.238, "internal_energy": -0.293}

$$$$
cand_028_out
     RDKit          3D

 38 40  0  0  0  0  0  0  0  0999 V2000
   51.4280  161.4290   32.1080 C   0  0  0  0  0  0  0  0  0  0  0  0
   51.5300  160.9820   30.6570 C   0  0  0  0  0  0  0  0  0  0  0  0
   50.8180  159.6700   30.4190 C   0  0  0  0  0  0  0  0  0  0  0  0
   51.5070  158.6530   29.7280 C   0  0  0  0  0  0  0  0  0  0  0  0
   50.9100  157.4160   29.4490 C   0  0  0  0  0  0  0  0  0  0  0  0
   51.6400  156.3390   28.7480 C   0  0  0  0  0  0  0  0  0  0  0  0
   52.1970  156.7590   27.5450 O   0  0  0  0  0  0  0  0  0  0  0  0
   52.9030  155.8570   26.7900 C   0  0  0  0  0  0  0  0  0  0  0  0
   53.4310  156.3180   25.5830 C   0  0  0  0  0  0  0  0  0  0  0  0
   54.1630  155.4520   24.7670 C   0  0  0  0  0  0  0  0  0  0  0  0
   54.3650  154.1260   25.1570 C   0  0  0  0  0  0  0  0  0  0  0  0
   53.8380  153.6700   26.3620 C   0  0  0  0  0  0  0  0  0  0  0  0
   54.0740  152.3610   26.6840 O   0  0  0  0  0  0  0  0  0  0  0  0
   53.1050  154.5370   27.1780 C   0  0  0  0  0  0  0  0  0  0  0  0
   52.5330  154.0970   28.4520 C   0  0  0  0  0  0  0  0  0  0  0  0
   52.6750  152.9490   28.8670 O   0  0  0  0  0  0  0  0  0  0  0  0
   51.7670  155.0920   29.2370 C   0  0  0  0  0  0  0  0  0  0  0  0
   51.2420  154.6680   30.4450 O   0  0  0  0  0  0  0  0  0  0  0  0
   49.6000  157.1970   29.8890 C   0  0  0  0  0  0  0  0  0  0  0  0
   48.9000  158.1970   30.5710 C   0  0  0  0  0  0  0  0  0  0  0  0
   49.4920  159.4410   30.8340 C   0  0  0  0  0  0  0  0  0  0  0  0
   48.6970  160.4800   31.5770 C   0  0  0  0  0  0  0  0  0  0  0  0
   51.6234  160.5726   32.7701 H   0  0  0  0  0  0  0  0  0  0  0  0
   52.1691  162.2186   32.3014 H   0  0  0  0  0  0  0  0  0  0  0  0
   50.4178  161.8190   32.3014 H   0  0  0  0  0  0  0  0  0  0  0  0
   51.0787  161.7529   30.0150 H   0  0  0  0  0  0  0  0  0  0  0  0
   52.5944  160.8399   30.4185 H   0  0  0  0  0  0  0  0  0  0  0  0
   52.5407  158.8349   29.3989 H   0  0  0  0  0  0  0  0  0  0  0  0
   53.2710  157.3617   25.2747 H   0  0  0  0  0  0  0  0  0  0  0  0
   54.5808  155.8147   23.8163 H   0  0  0  0  0  0  0  0  0  0  0  0
   54.9393  153.4436   24.5132 H   0  0  0  0  0  0  0  0  0  0  0  0
   54.6320  152.1510   27.4070 H   0  0  0  0  0  0  0  0  0  0  0  0
   50.9480  153.7840   30.5450 H   0  0  0  0  0  0  0  0  0  0  0  0
   49.1158  156.2282   29.6964 H   0  0  0  0  0  0  0  0  0  0  0  0
   47.8700  158.0053   30.9061 H   0  0  0  0  0  0  0  0  0  0  0  0
   48.8145  160.3265   32.6599 H   0  0  0  0  0  0  0  0  0  0  0  0
   49.0609  161.4824   31.3072 H   0  0  0  0  0  0  0  0  0  0  0  0
   47.6343  160.3908   31.3072 H   0  0  0  0  0  0  0  0  0  0  0  0
  1  2  1  0
  2  3  1  0
  3  4  2  0
  4  5  1  0
  5  6  1  0
  6  7  1  0
  7  8  1  0
  8  9  2  0
  9 10  1  0
 10 11  2  0
 11 12  1  0
 12 13  1  0
 12 14  2  0
 14 15  1  0
 15 16  2  0
 15 17  1  0
 17 18  1  0
  5 19  2  0
 19 20  1  0
 20 21  2  0
 21 22  1  0
 21  3  1  0
 17  6  2  0
 14  8  1  0
  1 23  1  0
  1 24  1  0
  1 25  1  0
  2 26  1  0
  2 27  1  0
  4 28  1  0
  9 29  1  0
 10 30  1  0
 11 31  1  0
 13 32  1  0
 18 33  1  0
 19 34  1  0
 20 35  1  0
 22 36  1  0
 22 37  1  0
 22 38  1  0
M  END
>  <meeko>  (3) 
{"is_sidechain": [false], "free_energy": -10.175, "intermolecular_energy": -12.369, "internal_energy": 0.428}

$$$$
cand_028_out
     RDKit          3D

 38 40  0  0  0  0  0  0  0  0999 V2000
   51.5760  152.5100   27.7430 C   0  0  0  0  0  0  0  0  0  0  0  0
   51.9750  153.4140   28.9000 C   0  0  0  0  0  0  0  0  0  0  0  0
   52.1920  154.8410   28.4520 C   0  0  0  0  0  0  0  0  0  0  0  0
   51.6730  155.8780   29.2540 C   0  0  0  0  0  0  0  0  0  0  0  0
   51.8140  157.2270   28.8980 C   0  0  0  0  0  0  0  0  0  0  0  0
   51.2930  158.3160   29.7510 C   0  0  0  0  0  0  0  0  0  0  0  0
   49.9590  158.1350   30.1020 O   0  0  0  0  0  0  0  0  0  0  0  0
   49.3480  159.0750   30.8930 C   0  0  0  0  0  0  0  0  0  0  0  0
   48.0060  158.8620   31.2070 C   0  0  0  0  0  0  0  0  0  0  0  0
   47.3240  159.7790   32.0100 C   0  0  0  0  0  0  0  0  0  0  0  0
   47.9850  160.9100   32.4980 C   0  0  0  0  0  0  0  0  0  0  0  0
   49.3240  161.1190   32.1820 C   0  0  0  0  0  0  0  0  0  0  0  0
   49.9110  162.2460   32.6930 O   0  0  0  0  0  0  0  0  0  0  0  0
   50.0060  160.2010   31.3770 C   0  0  0  0  0  0  0  0  0  0  0  0
   51.4150  160.3850   31.0220 C   0  0  0  0  0  0  0  0  0  0  0  0
   52.0650  161.3490   31.4180 O   0  0  0  0  0  0  0  0  0  0  0  0
   52.0410  159.3580   30.1580 C   0  0  0  0  0  0  0  0  0  0  0  0
   53.3750  159.5350   29.8390 O   0  0  0  0  0  0  0  0  0  0  0  0
   52.5040  157.5330   27.7200 C   0  0  0  0  0  0  0  0  0  0  0  0
   53.0210  156.5180   26.9110 C   0  0  0  0  0  0  0  0  0  0  0  0
   52.8640  155.1680   27.2590 C   0  0  0  0  0  0  0  0  0  0  0  0
   53.4440  154.1140   26.3560 C   0  0  0  0  0  0  0  0  0  0  0  0
   51.1614  151.5707   28.1377 H   0  0  0  0  0  0  0  0  0  0  0  0
   50.8174  153.0155   27.1274 H   0  0  0  0  0  0  0  0  0  0  0  0
   52.4607  152.2902   27.1274 H   0  0  0  0  0  0  0  0  0  0  0  0
   51.1767  153.3964   29.6566 H   0  0  0  0  0  0  0  0  0  0  0  0
   52.9226  153.0391   29.3141 H   0  0  0  0  0  0  0  0  0  0  0  0
   51.1435  155.6221   30.1836 H   0  0  0  0  0  0  0  0  0  0  0  0
   47.4851  157.9727   30.8226 H   0  0  0  0  0  0  0  0  0  0  0  0
   46.2657  159.6111   32.2587 H   0  0  0  0  0  0  0  0  0  0  0  0
   47.4482  161.6327   33.1300 H   0  0  0  0  0  0  0  0  0  0  0  0
   49.6500  163.0910   32.3830 H   0  0  0  0  0  0  0  0  0  0  0  0
   53.6180  160.1020   29.1350 H   0  0  0  0  0  0  0  0  0  0  0  0
   52.6410  158.5845   27.4275 H   0  0  0  0  0  0  0  0  0  0  0  0
   53.5587  156.7811   25.9882 H   0  0  0  0  0  0  0  0  0  0  0  0
   53.8855  153.3116   26.9653 H   0  0  0  0  0  0  0  0  0  0  0  0
   52.6484  153.6968   25.7212 H   0  0  0  0  0  0  0  0  0  0  0  0
   54.2222  154.5628   25.7212 H   0  0  0  0  0  0  0  0  0  0  0  0
  1  2  1  0
  2  3  1  0
  3  4  2  0
  4  5  1  0
  5  6  1  0
  6  7  1  0
  7  8  1  0
  8  9  2  0
  9 10  1  0
 10 11  2  0
 11 12  1  0
 12 13  1  0
 12 14  2  0
 14 15  1  0
 15 16  2  0
 15 17  1  0
 17 18  1  0
  5 19  2  0
 19 20  1  0
 20 21  2  0
 21 22  1  0
 21  3  1  0
 17  6  2  0
 14  8  1  0
  1 23  1  0
  1 24  1  0
  1 25  1  0
  2 26  1  0
  2 27  1  0
  4 28  1  0
  9 29  1  0
 10 30  1  0
 11 31  1  0
 13 32  1  0
 18 33  1  0
 19 34  1  0
 20 35  1  0
 22 36  1  0
 22 37  1  0
 22 38  1  0
M  END
>  <meeko>  (4) 
{"is_sidechain": [false], "free_energy": -9.177, "intermolecular_energy": -11.389, "internal_energy": 0.62}

$$$$
cand_028_out
     RDKit          3D

 38 40  0  0  0  0  0  0  0  0999 V2000
   54.1130  156.6370   25.2030 C   0  0  0  0  0  0  0  0  0  0  0  0
   53.4680  155.2600   25.2650 C   0  0  0  0  0  0  0  0  0  0  0  0
   52.8780  154.9730   26.6270 C   0  0  0  0  0  0  0  0  0  0  0  0
   52.2650  156.0340   27.3250 C   0  0  0  0  0  0  0  0  0  0  0  0
   51.7120  155.8560   28.6000 C   0  0  0  0  0  0  0  0  0  0  0  0
   51.0460  156.9600   29.3220 C   0  0  0  0  0  0  0  0  0  0  0  0
   51.8980  158.0300   29.5770 O   0  0  0  0  0  0  0  0  0  0  0  0
   51.4080  159.1240   30.2430 C   0  0  0  0  0  0  0  0  0  0  0  0
   52.3010  160.1660   30.4910 C   0  0  0  0  0  0  0  0  0  0  0  0
   51.8670  161.3110   31.1630 C   0  0  0  0  0  0  0  0  0  0  0  0
   50.5400  161.4130   31.5870 C   0  0  0  0  0  0  0  0  0  0  0  0
   49.6510  160.3710   31.3370 C   0  0  0  0  0  0  0  0  0  0  0  0
   48.3660  160.5360   31.7780 O   0  0  0  0  0  0  0  0  0  0  0  0
   50.0870  159.2250   30.6660 C   0  0  0  0  0  0  0  0  0  0  0  0
   49.1840  158.1070   30.3840 C   0  0  0  0  0  0  0  0  0  0  0  0
   48.0020  158.1260   30.7180 O   0  0  0  0  0  0  0  0  0  0  0  0
   49.7470  156.9370   29.6730 C   0  0  0  0  0  0  0  0  0  0  0  0
   48.8820  155.8920   29.4010 O   0  0  0  0  0  0  0  0  0  0  0  0
   51.7660  154.5810   29.1740 C   0  0  0  0  0  0  0  0  0  0  0  0
   52.3750  153.5200   28.4980 C   0  0  0  0  0  0  0  0  0  0  0  0
   52.9430  153.7030   27.2290 C   0  0  0  0  0  0  0  0  0  0  0  0
   53.5810  152.5260   26.5430 C   0  0  0  0  0  0  0  0  0  0  0  0
   54.2863  157.0070   26.2243 H   0  0  0  0  0  0  0  0  0  0  0  0
   55.0728  156.5687   24.6699 H   0  0  0  0  0  0  0  0  0  0  0  0
   53.4461  157.3306   24.6699 H   0  0  0  0  0  0  0  0  0  0  0  0
   52.6670  155.2086   24.5128 H   0  0  0  0  0  0  0  0  0  0  0  0
   54.2477  154.5098   25.0670 H   0  0  0  0  0  0  0  0  0  0  0  0
   52.2198  157.0279   26.8559 H   0  0  0  0  0  0  0  0  0  0  0  0
   53.3463  160.0863   30.1577 H   0  0  0  0  0  0  0  0  0  0  0  0
   52.5710  162.1333   31.3585 H   0  0  0  0  0  0  0  0  0  0  0  0
   50.1982  162.3142   32.1171 H   0  0  0  0  0  0  0  0  0  0  0  0
   48.1360  160.2910   32.6530 H   0  0  0  0  0  0  0  0  0  0  0  0
   48.2070  155.6710   30.0120 H   0  0  0  0  0  0  0  0  0  0  0  0
   51.3247  154.4120   30.1673 H   0  0  0  0  0  0  0  0  0  0  0  0
   52.4093  152.5263   28.9686 H   0  0  0  0  0  0  0  0  0  0  0  0
   53.9619  151.8233   27.2988 H   0  0  0  0  0  0  0  0  0  0  0  0
   52.8342  152.0190   25.9143 H   0  0  0  0  0  0  0  0  0  0  0  0
   54.4134  152.8750   25.9143 H   0  0  0  0  0  0  0  0  0  0  0  0
  1  2  1  0
  2  3  1  0
  3  4  2  0
  4  5  1  0
  5  6  1  0
  6  7  1  0
  7  8  1  0
  8  9  2  0
  9 10  1  0
 10 11  2  0
 11 12  1  0
 12 13  1  0
 12 14  2  0
 14 15  1  0
 15 16  2  0
 15 17  1  0
 17 18  1  0
  5 19  2  0
 19 20  1  0
 20 21  2  0
 21 22  1  0
 21  3  1  0
 17  6  2  0
 14  8  1  0
  1 23  1  0
  1 24  1  0
  1 25  1  0
  2 26  1  0
  2 27  1  0
  4 28  1  0
  9 29  1  0
 10 30  1  0
 11 31  1  0
 13 32  1  0
 18 33  1  0
 19 34  1  0
 20 35  1  0
 22 36  1  0
 22 37  1  0
 22 38  1  0
M  END
>  <meeko>  (5) 
{"is_sidechain": [false], "free_energy": -8.845, "intermolecular_energy": -10.06, "internal_energy": -0.319}

$$$$
