cand_008_out
     RDKit          3D

 35 37  0  0  0  0  0  0  0  0999 V2000
   52.2630  152.6090   28.5780 O   0  0  0  0  0  0  0  0  0  0  0  0
   52.3610  153.7680   28.1810 C   0  0  0  0  0  0  0  0  0  0  0  0
   51.8800  154.8920   29.0170 C   0  0  0  0  0  0  0  0  0  0  0  0
   51.3130  154.5710   30.2380 O   0  0  0  0  0  0  0  0  0  0  0  0
   52.0040  156.1460   28.5440 C   0  0  0  0  0  0  0  0  0  0  0  0
   51.5480  157.3400   29.2860 C   0  0  0  0  0  0  0  0  0  0  0  0
   52.3630  158.4670   29.4400 C   0  0  0  0  0  0  0  0  0  0  0  0
   51.9040  159.5940   30.1260 C   0  0  0  0  0  0  0  0  0  0  0  0
   50.6130  159.6280   30.6750 C   0  0  0  0  0  0  0  0  0  0  0  0
   50.1430  160.8650   31.4080 C   0  0  0  0  0  0  0  0  0  0  0  0
   49.2910  161.6340   30.6710 F   0  0  0  0  0  0  0  0  0  0  0  0
   51.1760  161.6880   31.7400 F   0  0  0  0  0  0  0  0  0  0  0  0
   49.7680  158.5080   30.5070 C   0  0  0  0  0  0  0  0  0  0  0  0
   48.3660  158.4900   31.0740 C   0  0  0  0  0  0  0  0  0  0  0  0
   48.3390  158.8530   32.3880 F   0  0  0  0  0  0  0  0  0  0  0  0
   47.5230  159.3580   30.4450 F   0  0  0  0  0  0  0  0  0  0  0  0
   50.2510  157.3770   29.8200 C   0  0  0  0  0  0  0  0  0  0  0  0
   52.5500  156.4560   27.3040 O   0  0  0  0  0  0  0  0  0  0  0  0
   53.0110  155.4360   26.5090 C   0  0  0  0  0  0  0  0  0  0  0  0
   53.5610  155.7940   25.2770 C   0  0  0  0  0  0  0  0  0  0  0  0
   54.0480  154.8060   24.4200 C   0  0  0  0  0  0  0  0  0  0  0  0
   53.9850  153.4610   24.7930 C   0  0  0  0  0  0  0  0  0  0  0  0
   53.4350  153.1070   26.0220 C   0  0  0  0  0  0  0  0  0  0  0  0
   53.4030  151.7740   26.3240 O   0  0  0  0  0  0  0  0  0  0  0  0
   52.9480  154.0970   26.8810 C   0  0  0  0  0  0  0  0  0  0  0  0
   51.0140  153.6990   30.4000 H   0  0  0  0  0  0  0  0  0  0  0  0
   53.3778  158.4655   29.0156 H   0  0  0  0  0  0  0  0  0  0  0  0
   52.5638  160.4671   30.2374 H   0  0  0  0  0  0  0  0  0  0  0  0
   49.6360  160.4655   32.2987 H   0  0  0  0  0  0  0  0  0  0  0  0
   48.0374  157.4503   30.9290 H   0  0  0  0  0  0  0  0  0  0  0  0
   49.5956  156.5018   29.6993 H   0  0  0  0  0  0  0  0  0  0  0  0
   53.6105  156.8526   24.9822 H   0  0  0  0  0  0  0  0  0  0  0  0
   54.4822  155.0867   23.4491 H   0  0  0  0  0  0  0  0  0  0  0  0
   54.3693  152.6831   24.1168 H   0  0  0  0  0  0  0  0  0  0  0  0
   53.1110  151.4930   27.1690 H   0  0  0  0  0  0  0  0  0  0  0  0
  1  2  2  0
  2  3  1  0
  3  4  1  0
  3  5  2  0
  5  6  1  0
  6  7  2  0
  7  8  1  0
  8  9  2  0
  9 10  1  0
 10 11  1  0
 10 12  1  0
  9 13  1  0
 13 14  1  0
 14 15  1  0
 14 16  1  0
 13 17  2  0
  5 18  1  0
 18 19  1  0
 19 20  2  0
 20 21  1  0
 21 22  2  0
 22 23  1  0
 23 24  1  0
 23 25  2  0
 25  2  1  0
 17  6  1  0
 25 19  1  0
  4 26  1  0
  7 27  1  0
  8 28  1  0
 10 29  1  0
 14 30  1  0
 17 31  1  0
 20 32  1  0
 21 33  1  0
 22 34  1  0
 24 35  1  0
M  END
>  <meeko>  (1) 
{"is_sidechain": [false], "free_energy": -11.04, "intermolecular_energy": -13.621, "internal_energy": -0.187}

$$$$
cand_008_out
     RDKit          3D

 35 37  0  0  0  0  0  0  0  0999 V2000
   52.4760  153.0470   28.8070 O   0  0  0  0  0  0  0  0  0  0  0  0
   52.4280  154.2190   28.4410 C   0  0  0  0  0  0  0  0  0  0  0  0
   51.7420  155.2380   29.2690 C   0  0  0  0  0  0  0  0  0  0  0  0
   51.1570  154.8040   30.4450 O   0  0  0  0  0  0  0  0  0  0  0  0
   51.7120  156.5100   28.8300 C   0  0  0  0  0  0  0  0  0  0  0  0
   51.0460  157.6050   29.5660 C   0  0  0  0  0  0  0  0  0  0  0  0
   49.7310  157.4890   30.0290 C   0  0  0  0  0  0  0  0  0  0  0  0
   49.1280  158.5280   30.7430 C   0  0  0  0  0  0  0  0  0  0  0  0
   49.8270  159.7140   31.0180 C   0  0  0  0  0  0  0  0  0  0  0  0
   49.1490  160.8190   31.7970 C   0  0  0  0  0  0  0  0  0  0  0  0
   48.1390  160.3690   32.5960 F   0  0  0  0  0  0  0  0  0  0  0  0
   48.5770  161.7460   30.9790 F   0  0  0  0  0  0  0  0  0  0  0  0
   51.1650  159.8380   30.5790 C   0  0  0  0  0  0  0  0  0  0  0  0
   51.9670  161.0910   30.8510 C   0  0  0  0  0  0  0  0  0  0  0  0
   52.3430  161.1850   32.1580 F   0  0  0  0  0  0  0  0  0  0  0  0
   53.1280  161.1490   30.1380 F   0  0  0  0  0  0  0  0  0  0  0  0
   51.7530  158.7830   29.8530 C   0  0  0  0  0  0  0  0  0  0  0  0
   52.2780  156.9300   27.6320 O   0  0  0  0  0  0  0  0  0  0  0  0
   52.9270  156.0110   26.8470 C   0  0  0  0  0  0  0  0  0  0  0  0
   53.4910  156.4800   25.6590 C   0  0  0  0  0  0  0  0  0  0  0  0
   54.1650  155.5960   24.8140 C   0  0  0  0  0  0  0  0  0  0  0  0
   54.2740  154.2460   25.1550 C   0  0  0  0  0  0  0  0  0  0  0  0
   53.7100  153.7820   26.3400 C   0  0  0  0  0  0  0  0  0  0  0  0
   53.8530  152.4490   26.6120 O   0  0  0  0  0  0  0  0  0  0  0  0
   53.0360  154.6660   27.1870 C   0  0  0  0  0  0  0  0  0  0  0  0
   51.6510  154.2890   31.0510 H   0  0  0  0  0  0  0  0  0  0  0  0
   49.1642  156.5679   29.8284 H   0  0  0  0  0  0  0  0  0  0  0  0
   48.0917  158.4150   31.0943 H   0  0  0  0  0  0  0  0  0  0  0  0
   49.9602  161.2519   32.4007 H   0  0  0  0  0  0  0  0  0  0  0  0
   51.2883  161.9063   30.5599 H   0  0  0  0  0  0  0  0  0  0  0  0
   52.7908  158.8852   29.5029 H   0  0  0  0  0  0  0  0  0  0  0  0
   53.4046  157.5430   25.3895 H   0  0  0  0  0  0  0  0  0  0  0  0
   54.6109  155.9635   23.8780 H   0  0  0  0  0  0  0  0  0  0  0  0
   54.8047  153.5505   24.4882 H   0  0  0  0  0  0  0  0  0  0  0  0
   53.1370  151.9660   26.9750 H   0  0  0  0  0  0  0  0  0  0  0  0
  1  2  2  0
  2  3  1  0
  3  4  1  0
  3  5  2  0
  5  6  1  0
  6  7  2  0
  7  8  1  0
  8  9  2  0
  9 10  1  0
 10 11  1  0
 10 12  1  0
  9 13  1  0
 13 14  1  0
 14 15  1  0
 14 16  1  0
 13 17  2  0
  5 18  1  0
 18 19  1  0
 19 20  2  0
 20 21  1  0
 21 22  2  0
 22 23  1  0
 23 24  1  0
 23 25  2  0
 25  2  1  0
 17  6  1  0
 25 19  1  0
  4 26  1  0
  7 27  1  0
  8 28  1  0
 10 29  1  0
 14 30  1  0
 17 31  1  0
 20 32  1  0
 21 33  1  0
 22 34  1  0
 24 35  1  0
M  END
>  <meeko>  (2) 
{"is_sidechain": [false], "free_energy": -10.955, "intermolecular_energy": -13.293, "internal_energy": -0.412}

$$$$
cand_008_out
     RDKit          3D

 35 37  0  0  0  0  0  0  0  0999 V2000
   52.5690  160.6400   30.6030 O   0  0  0  0  0  0  0  0  0  0  0  0
   51.8210  159.6930   30.3710 C   0  0  0  0  0  0  0  0  0  0  0  0
   52.3160  158.5070   29.6340 C   0  0  0  0  0  0  0  0  0  0  0  0
   53.6360  158.5300   29.2170 O   0  0  0  0  0  0  0  0  0  0  0  0
   51.4640  157.4930   29.3980 C   0  0  0  0  0  0  0  0  0  0  0  0
   51.8450  156.2690   28.6630 C   0  0  0  0  0  0  0  0  0  0  0  0
   51.6150  154.9930   29.1880 C   0  0  0  0  0  0  0  0  0  0  0  0
   51.9630  153.8480   28.4670 C   0  0  0  0  0  0  0  0  0  0  0  0
   52.5470  153.9480   27.1950 C   0  0  0  0  0  0  0  0  0  0  0  0
   52.9080  152.6900   26.4360 C   0  0  0  0  0  0  0  0  0  0  0  0
   52.1750  151.6050   26.8170 F   0  0  0  0  0  0  0  0  0  0  0  0
   54.2090  152.3310   26.6270 F   0  0  0  0  0  0  0  0  0  0  0  0
   52.7640  155.2290   26.6390 C   0  0  0  0  0  0  0  0  0  0  0  0
   53.3860  155.3950   25.2700 C   0  0  0  0  0  0  0  0  0  0  0  0
   53.2400  156.6640   24.7920 F   0  0  0  0  0  0  0  0  0  0  0  0
   54.7290  155.1600   25.2600 F   0  0  0  0  0  0  0  0  0  0  0  0
   52.4140  156.3710   27.3850 C   0  0  0  0  0  0  0  0  0  0  0  0
   50.1320  157.4920   29.7960 O   0  0  0  0  0  0  0  0  0  0  0  0
   49.6460  158.5730   30.4870 C   0  0  0  0  0  0  0  0  0  0  0  0
   48.3060  158.5250   30.8770 C   0  0  0  0  0  0  0  0  0  0  0  0
   47.7480  159.5920   31.5820 C   0  0  0  0  0  0  0  0  0  0  0  0
   48.5280  160.7080   31.8980 C   0  0  0  0  0  0  0  0  0  0  0  0
   49.8640  160.7540   31.5070 C   0  0  0  0  0  0  0  0  0  0  0  0
   50.5690  161.8750   31.8470 O   0  0  0  0  0  0  0  0  0  0  0  0
   50.4230  159.6840   30.8010 C   0  0  0  0  0  0  0  0  0  0  0  0
   53.8460  158.7940   28.3440 H   0  0  0  0  0  0  0  0  0  0  0  0
   51.1541  154.8897   30.1815 H   0  0  0  0  0  0  0  0  0  0  0  0
   51.7767  152.8551   28.9022 H   0  0  0  0  0  0  0  0  0  0  0  0
   52.7048  152.9492   25.3865 H   0  0  0  0  0  0  0  0  0  0  0  0
   52.8557  154.6585   24.6485 H   0  0  0  0  0  0  0  0  0  0  0  0
   52.5912  157.3678   26.9548 H   0  0  0  0  0  0  0  0  0  0  0  0
   47.6912  157.6472   30.6288 H   0  0  0  0  0  0  0  0  0  0  0  0
   46.6925  159.5548   31.8896 H   0  0  0  0  0  0  0  0  0  0  0  0
   48.0875  161.5484   32.4545 H   0  0  0  0  0  0  0  0  0  0  0  0
   51.4440  161.7960   32.1720 H   0  0  0  0  0  0  0  0  0  0  0  0
  1  2  2  0
  2  3  1  0
  3  4  1  0
  3  5  2  0
  5  6  1  0
  6  7  2  0
  7  8  1  0
  8  9  2  0
  9 10  1  0
 10 11  1  0
 10 12  1  0
  9 13  1  0
 13 14  1  0
 14 15  1  0
 14 16  1  0
 13 17  2  0
  5 18  1  0
 18 19  1  0
 19 20  2  0
 20 21  1  0
 21 22  2  0
 22 23  1  0
 23 24  1  0
 23 25  2  0
 25  2  1  0
 17  6  1  0
 25 19  1  0
  4 26  1  0
  7 27  1  0
  8 28  1  0
 10 29  1  0
 14 30  1  0
 17 31  1  0
 20 32  1  0
 21 33  1  0
 22 34  1  0
 24 35  1  0
M  END
>  <meeko>  (3) 
{"is_sidechain": [false], "free_energy": -10.876, "intermolecular_energy": -13.14, "internal_energy": -0.467}

$$$$
cand_008_out
     RDKit          3D

 35 37  0  0  0  0  0  0  0  0999 V2000
   48.1340  158.5370   30.9910 O   0  0  0  0  0  0  0  0  0  0  0  0
   49.2980  158.4740   30.6000 C   0  0  0  0  0  0  0  0  0  0  0  0
   49.7780  157.2860   29.8580 C   0  0  0  0  0  0  0  0  0  0  0  0
   48.8680  156.2650   29.6470 O   0  0  0  0  0  0  0  0  0  0  0  0
   51.0600  157.2560   29.4500 C   0  0  0  0  0  0  0  0  0  0  0  0
   51.6500  156.1180   28.7140 C   0  0  0  0  0  0  0  0  0  0  0  0
   51.4840  154.7980   29.1440 C   0  0  0  0  0  0  0  0  0  0  0  0
   52.0320  153.7350   28.4210 C   0  0  0  0  0  0  0  0  0  0  0  0
   52.7590  153.9640   27.2420 C   0  0  0  0  0  0  0  0  0  0  0  0
   53.3350  152.7920   26.4790 C   0  0  0  0  0  0  0  0  0  0  0  0
   52.5710  151.6660   26.5680 F   0  0  0  0  0  0  0  0  0  0  0  0
   54.5640  152.4310   26.9430 F   0  0  0  0  0  0  0  0  0  0  0  0
   52.9150  155.2900   26.7800 C   0  0  0  0  0  0  0  0  0  0  0  0
   53.6840  155.5950   25.5140 C   0  0  0  0  0  0  0  0  0  0  0  0
   52.9240  155.4150   24.3970 F   0  0  0  0  0  0  0  0  0  0  0  0
   54.1190  156.8860   25.4490 F   0  0  0  0  0  0  0  0  0  0  0  0
   52.3630  156.3490   27.5270 C   0  0  0  0  0  0  0  0  0  0  0  0
   51.9740  158.2750   29.6930 O   0  0  0  0  0  0  0  0  0  0  0  0
   51.5570  159.3920   30.3710 C   0  0  0  0  0  0  0  0  0  0  0  0
   52.5050  160.3950   30.5820 C   0  0  0  0  0  0  0  0  0  0  0  0
   52.1460  161.5580   31.2670 C   0  0  0  0  0  0  0  0  0  0  0  0
   50.8420  161.7180   31.7400 C   0  0  0  0  0  0  0  0  0  0  0  0
   49.8990  160.7160   31.5290 C   0  0  0  0  0  0  0  0  0  0  0  0
   48.6420  160.9370   32.0190 O   0  0  0  0  0  0  0  0  0  0  0  0
   50.2580  159.5520   30.8420 C   0  0  0  0  0  0  0  0  0  0  0  0
   48.5020  155.8060   30.3760 H   0  0  0  0  0  0  0  0  0  0  0  0
   50.9149  154.5936   30.0629 H   0  0  0  0  0  0  0  0  0  0  0  0
   51.8918  152.7049   28.7805 H   0  0  0  0  0  0  0  0  0  0  0  0
   53.3795  153.1523   25.4406 H   0  0  0  0  0  0  0  0  0  0  0  0
   54.5341  154.8977   25.5482 H   0  0  0  0  0  0  0  0  0  0  0  0
   52.4938  157.3818   27.1717 H   0  0  0  0  0  0  0  0  0  0  0  0
   53.5324  160.2696   30.2096 H   0  0  0  0  0  0  0  0  0  0  0  0
   52.8917  162.3492   31.4342 H   0  0  0  0  0  0  0  0  0  0  0  0
   50.5602  162.6347   32.2787 H   0  0  0  0  0  0  0  0  0  0  0  0
   48.5050  160.9990   32.9440 H   0  0  0  0  0  0  0  0  0  0  0  0
  1  2  2  0
  2  3  1  0
  3  4  1  0
  3  5  2  0
  5  6  1  0
  6  7  2  0
  7  8  1  0
  8  9  2  0
  9 10  1  0
 10 11  1  0
 10 12  1  0
  9 13  1  0
 13 14  1  0
 14 15  1  0
 14 16  1  0
 13 17  2  0
  5 18  1  0
 18 19  1  0
 19 20  2  0
 20 21  1  0
 21 22  2  0
 22 23  1  0
 23 24  1  0
 23 25  2  0
 25  2  1  0
 17  6  1  0
 25 19  1  0
  4 26  1  0
  7 27  1  0
  8 28  1  0
 10 29  1  0
 14 30  1  0
 17 31  1  0
 20 32  1  0
 21 33  1  0
 22 34  1  0
 24 35  1  0
M  END
>  <meeko>  (4) 
{"is_sidechain": [false], "free_energy": -9.58, "intermolecular_energy": -11.609, "internal_energy": -0.399}

$$$$
cand_008_out
     RDKit          3D

 35 37  0  0  0  0  0  0  0  0999 V2000
   48.4770  158.1630   31.2580 O   0  0  0  0  0  0  0  0  0  0  0  0
   49.5750  158.3480   30.7380 C   0  0  0  0  0  0  0  0  0  0  0  0
   50.1270  157.3640   29.7780 C   0  0  0  0  0  0  0  0  0  0  0  0
   49.3600  156.2420   29.5150 O   0  0  0  0  0  0  0  0  0  0  0  0
   51.3340  157.6030   29.2330 C   0  0  0  0  0  0  0  0  0  0  0  0
   51.9860  156.6860   28.2740 C   0  0  0  0  0  0  0  0  0  0  0  0
   52.8010  157.1600   27.2410 C   0  0  0  0  0  0  0  0  0  0  0  0
   53.4260  156.2750   26.3590 C   0  0  0  0  0  0  0  0  0  0  0  0
   53.2550  154.8870   26.4880 C   0  0  0  0  0  0  0  0  0  0  0  0
   53.9480  153.9540   25.5210 C   0  0  0  0  0  0  0  0  0  0  0  0
   55.0360  154.5160   24.9200 F   0  0  0  0  0  0  0  0  0  0  0  0
   53.1300  153.5720   24.5010 F   0  0  0  0  0  0  0  0  0  0  0  0
   52.4540  154.3910   27.5410 C   0  0  0  0  0  0  0  0  0  0  0  0
   52.2390  152.9060   27.7310 C   0  0  0  0  0  0  0  0  0  0  0  0
   51.5410  152.6310   28.8700 F   0  0  0  0  0  0  0  0  0  0  0  0
   51.5190  152.3360   26.7230 F   0  0  0  0  0  0  0  0  0  0  0  0
   51.8260  155.2990   28.4150 C   0  0  0  0  0  0  0  0  0  0  0  0
   52.1080  158.7190   29.5250 O   0  0  0  0  0  0  0  0  0  0  0  0
   51.6210  159.6520   30.4060 C   0  0  0  0  0  0  0  0  0  0  0  0
   52.4280  160.7630   30.6610 C   0  0  0  0  0  0  0  0  0  0  0  0
   51.9920  161.7490   31.5490 C   0  0  0  0  0  0  0  0  0  0  0  0
   50.7520  161.6250   32.1800 C   0  0  0  0  0  0  0  0  0  0  0  0
   49.9500  160.5160   31.9230 C   0  0  0  0  0  0  0  0  0  0  0  0
   48.7500  160.4570   32.5750 O   0  0  0  0  0  0  0  0  0  0  0  0
   50.3860  159.5290   31.0340 C   0  0  0  0  0  0  0  0  0  0  0  0
   48.6970  155.9770   30.1200 H   0  0  0  0  0  0  0  0  0  0  0  0
   52.9518  158.2430   27.1215 H   0  0  0  0  0  0  0  0  0  0  0  0
   54.0607  156.6707   25.5525 H   0  0  0  0  0  0  0  0  0  0  0  0
   54.2459  153.1005   26.1478 H   0  0  0  0  0  0  0  0  0  0  0  0
   53.2586  152.4946   27.7648 H   0  0  0  0  0  0  0  0  0  0  0  0
   51.1946  154.9116   29.2282 H   0  0  0  0  0  0  0  0  0  0  0  0
   53.4043  160.8612   30.1638 H   0  0  0  0  0  0  0  0  0  0  0  0
   52.6262  162.6246   31.7518 H   0  0  0  0  0  0  0  0  0  0  0  0
   50.4095  162.4023   32.8789 H   0  0  0  0  0  0  0  0  0  0  0  0
   48.6860  160.7440   33.4650 H   0  0  0  0  0  0  0  0  0  0  0  0
  1  2  2  0
  2  3  1  0
  3  4  1  0
  3  5  2  0
  5  6  1  0
  6  7  2  0
  7  8  1  0
  8  9  2  0
  9 10  1  0
 10 11  1  0
 10 12  1  0
  9 13  1  0
 13 14  1  0
 14 15  1  0
 14 16  1  0
 13 17  2  0
  5 18  1  0
 18 19  1  0
 19 20  2  0
 20 21  1  0
 21 22  2  0
 22 23  1  0
 23 24  1  0
 23 25  2  0
 25  2  1  0
 17  6  1  0
 25 19  1  0
  4 26  1  0
  7 27  1  0
  8 28  1  0
 10 29  1  0
 14 30  1  0
 17 31  1  0
 20 32  1  0
 21 33  1  0
 22 34  1  0
 24 35  1  0
M  END
>  <meeko>  (5) 
{"is_sidechain": [false], "free_energy": -8.917, "intermolecular_energy": -10.996, "internal_energy": -0.193}

$$$$
cand_008_out
     RDKit          3D

 35 37  0  0  0  0  0  0  0  0999 V2000
   52.6330  160.7540   30.9770 O   0  0  0  0  0  0  0  0  0  0  0  0
   51.9280  159.8360   30.5650 C   0  0  0  0  0  0  0  0  0  0  0  0
   52.4900  158.8010   29.6670 C   0  0  0  0  0  0  0  0  0  0  0  0
   53.8210  158.9310   29.3120 O   0  0  0  0  0  0  0  0  0  0  0  0
   51.6830  157.8140   29.2370 C   0  0  0  0  0  0  0  0  0  0  0  0
   52.1330  156.7380   28.3290 C   0  0  0  0  0  0  0  0  0  0  0  0
   52.7450  157.0160   27.1030 C   0  0  0  0  0  0  0  0  0  0  0  0
   53.1830  155.9840   26.2700 C   0  0  0  0  0  0  0  0  0  0  0  0
   53.0240  154.6400   26.6430 C   0  0  0  0  0  0  0  0  0  0  0  0
   53.5120  153.5440   25.7220 C   0  0  0  0  0  0  0  0  0  0  0  0
   54.8720  153.4850   25.6330 F   0  0  0  0  0  0  0  0  0  0  0  0
   53.0730  153.7140   24.4440 F   0  0  0  0  0  0  0  0  0  0  0  0
   52.4290  154.3410   27.8900 C   0  0  0  0  0  0  0  0  0  0  0  0
   52.2360  152.9120   28.3450 C   0  0  0  0  0  0  0  0  0  0  0  0
   51.5290  152.8360   29.5090 F   0  0  0  0  0  0  0  0  0  0  0  0
   51.5380  152.1540   27.4520 F   0  0  0  0  0  0  0  0  0  0  0  0
   51.9860  155.3960   28.7120 C   0  0  0  0  0  0  0  0  0  0  0  0
   50.3390  157.7090   29.5760 O   0  0  0  0  0  0  0  0  0  0  0  0
   49.7910  158.6480   30.4120 C   0  0  0  0  0  0  0  0  0  0  0  0
   48.4420  158.4970   30.7360 C   0  0  0  0  0  0  0  0  0  0  0  0
   47.8220  159.4180   31.5820 C   0  0  0  0  0  0  0  0  0  0  0  0
   48.5500  160.4910   32.1040 C   0  0  0  0  0  0  0  0  0  0  0  0
   49.8950  160.6390   31.7790 C   0  0  0  0  0  0  0  0  0  0  0  0
   50.5480  161.7100   32.3230 O   0  0  0  0  0  0  0  0  0  0  0  0
   50.5160  159.7160   30.9330 C   0  0  0  0  0  0  0  0  0  0  0  0
   54.4690  158.3910   29.7190 H   0  0  0  0  0  0  0  0  0  0  0  0
   52.8834  158.0615   26.7903 H   0  0  0  0  0  0  0  0  0  0  0  0
   53.6590  156.2276   25.3087 H   0  0  0  0  0  0  0  0  0  0  0  0
   53.1105  152.6242   26.1723 H   0  0  0  0  0  0  0  0  0  0  0  0
   53.2620  152.5330   28.4615 H   0  0  0  0  0  0  0  0  0  0  0  0
   51.5134  155.1621   29.6774 H   0  0  0  0  0  0  0  0  0  0  0  0
   47.8681  157.6533   30.3252 H   0  0  0  0  0  0  0  0  0  0  0  0
   46.7589  159.2992   31.8383 H   0  0  0  0  0  0  0  0  0  0  0  0
   48.0608  161.2168   32.7702 H   0  0  0  0  0  0  0  0  0  0  0  0
   51.4250  161.9080   32.0590 H   0  0  0  0  0  0  0  0  0  0  0  0
  1  2  2  0
  2  3  1  0
  3  4  1  0
  3  5  2  0
  5  6  1  0
  6  7  2  0
  7  8  1  0
  8  9  2  0
  9 10  1  0
 10 11  1  0
 10 12  1  0
  9 13  1  0
 13 14  1  0
 14 15  1  0
 14 16  1  0
 13 17  2  0
  5 18  1  0
 18 19  1  0
 19 20  2  0
 20 21  1  0
 21 22  2  0
 22 23  1  0
 23 24  1  0
 23 25  2  0
 25  2  1  0
 17  6  1  0
 25 19  1  0
  4 26  1  0
  7 27  1  0
  8 28  1  0
 10 29  1  0
 14 30  1  0
 17 31  1  0
 20 32  1  0
 21 33  1  0
 22 34  1  0
 24 35  1  0
M  END
>  <meeko>  (6) 
{"is_sidechain": [false], "free_energy": -8.832, "intermolecular_energy": -10.771, "internal_energy": -0.314}

$$$$
cand_008_out
     RDKit          3D

 35 37  0  0  0  0  0  0  0  0999 V2000
   54.5860  155.2760   25.1900 O   0  0  0  0  0  0  0  0  0  0  0  0
   53.7070  154.9010   25.9630 C   0  0  0  0  0  0  0  0  0  0  0  0
   53.0040  155.8750   26.8310 C   0  0  0  0  0  0  0  0  0  0  0  0
   53.3930  157.1990   26.7350 O   0  0  0  0  0  0  0  0  0  0  0  0
   52.0500  155.4220   27.6650 C   0  0  0  0  0  0  0  0  0  0  0  0
   51.2930  156.3000   28.5820 C   0  0  0  0  0  0  0  0  0  0  0  0
   50.1050  155.8820   29.1890 C   0  0  0  0  0  0  0  0  0  0  0  0
   49.4170  156.7190   30.0710 C   0  0  0  0  0  0  0  0  0  0  0  0
   49.9030  158.0010   30.3750 C   0  0  0  0  0  0  0  0  0  0  0  0
   49.1390  158.8830   31.3360 C   0  0  0  0  0  0  0  0  0  0  0  0
   48.5090  158.1810   32.3220 F   0  0  0  0  0  0  0  0  0  0  0  0
   48.1550  159.5910   30.7130 F   0  0  0  0  0  0  0  0  0  0  0  0
   51.1150  158.4300   29.7890 C   0  0  0  0  0  0  0  0  0  0  0  0
   51.6870  159.7990   30.0830 C   0  0  0  0  0  0  0  0  0  0  0  0
   50.8500  160.8000   29.6870 F   0  0  0  0  0  0  0  0  0  0  0  0
   51.9030  160.0160   31.4120 F   0  0  0  0  0  0  0  0  0  0  0  0
   51.7900  157.5750   28.8960 C   0  0  0  0  0  0  0  0  0  0  0  0
   51.6860  154.0850   27.7740 O   0  0  0  0  0  0  0  0  0  0  0  0
   52.3140  153.1600   26.9780 C   0  0  0  0  0  0  0  0  0  0  0  0
   51.9090  151.8310   27.1130 C   0  0  0  0  0  0  0  0  0  0  0  0
   52.5090  150.8400   26.3340 C   0  0  0  0  0  0  0  0  0  0  0  0
   53.5120  151.1760   25.4210 C   0  0  0  0  0  0  0  0  0  0  0  0
   53.9140  152.5030   25.2900 C   0  0  0  0  0  0  0  0  0  0  0  0
   54.9000  152.7620   24.3800 O   0  0  0  0  0  0  0  0  0  0  0  0
   53.3130  153.4960   26.0690 C   0  0  0  0  0  0  0  0  0  0  0  0
   53.2340  157.7860   27.4470 H   0  0  0  0  0  0  0  0  0  0  0  0
   49.7066  154.8805   28.9692 H   0  0  0  0  0  0  0  0  0  0  0  0
   48.4822  156.3692   30.5335 H   0  0  0  0  0  0  0  0  0  0  0  0
   49.9119  159.5422   31.7579 H   0  0  0  0  0  0  0  0  0  0  0  0
   52.6354  159.8125   29.5259 H   0  0  0  0  0  0  0  0  0  0  0  0
   52.7287  157.9143   28.4337 H   0  0  0  0  0  0  0  0  0  0  0  0
   51.1193  151.5653   27.8312 H   0  0  0  0  0  0  0  0  0  0  0  0
   52.1914  149.7921   26.4392 H   0  0  0  0  0  0  0  0  0  0  0  0
   53.9830  150.3942   24.8071 H   0  0  0  0  0  0  0  0  0  0  0  0
   54.8040  153.4700   23.7740 H   0  0  0  0  0  0  0  0  0  0  0  0
  1  2  2  0
  2  3  1  0
  3  4  1  0
  3  5  2  0
  5  6  1  0
  6  7  2  0
  7  8  1  0
  8  9  2  0
  9 10  1  0
 10 11  1  0
 10 12  1  0
  9 13  1  0
 13 14  1  0
 14 15  1  0
 14 16  1  0
 13 17  2  0
  5 18  1  0
 18 19  1  0
 19 20  2  0
 20 21  1  0
 21 22  2  0
 22 23  1  0
 23 24  1  0
 23 25  2  0
 25  2  1  0
 17  6  1  0
 25 19  1  0
  4 26  1  0
  7 27  1  0
  8 28  1  0
 10 29  1  0
 14 30  1  0
 17 31  1  0
 20 32  1  0
 21 33  1  0
 22 34  1  0
 24 35  1  0
M  END
>  <meeko>  (7) 
{"is_sidechain": [false], "free_energy": -8.215, "intermolecular_energy": -10.473, "internal_energy": 0.15}

$$$$
cand_008_out
     RDKit          3D

 35 37  0  0  0  0  0  0  0  0999 V2000
   54.0030  154.6620   24.9080 O   0  0  0  0  0  0  0  0  0  0  0  0
   53.3340  154.5840   25.9370 C   0  0  0  0  0  0  0  0  0  0  0  0
   53.0100  155.8010   26.7170 C   0  0  0  0  0  0  0  0  0  0  0  0
   53.5030  157.0040   26.2420 O   0  0  0  0  0  0  0  0  0  0  0  0
   52.2770  155.6710   27.8380 C   0  0  0  0  0  0  0  0  0  0  0  0
   51.9050  156.8130   28.6990 C   0  0  0  0  0  0  0  0  0  0  0  0
   52.7920  157.8640   28.9540 C   0  0  0  0  0  0  0  0  0  0  0  0
   52.4120  158.9450   29.7530 C   0  0  0  0  0  0  0  0  0  0  0  0
   51.1290  159.0080   30.3170 C   0  0  0  0  0  0  0  0  0  0  0  0
   50.7450  160.1930   31.1750 C   0  0  0  0  0  0  0  0  0  0  0  0
   50.0320  161.1370   30.4960 F   0  0  0  0  0  0  0  0  0  0  0  0
   51.8360  160.8470   31.6640 F   0  0  0  0  0  0  0  0  0  0  0  0
   50.2110  157.9670   30.0500 C   0  0  0  0  0  0  0  0  0  0  0  0
   48.8140  157.9840   30.6290 C   0  0  0  0  0  0  0  0  0  0  0  0
   48.7860  158.5140   31.8850 F   0  0  0  0  0  0  0  0  0  0  0  0
   47.9420  158.7400   29.9010 F   0  0  0  0  0  0  0  0  0  0  0  0
   50.6150  156.8810   29.2490 C   0  0  0  0  0  0  0  0  0  0  0  0
   51.8100  154.4550   28.3210 O   0  0  0  0  0  0  0  0  0  0  0  0
   52.0880  153.3100   27.6170 C   0  0  0  0  0  0  0  0  0  0  0  0
   51.5900  152.1130   28.1330 C   0  0  0  0  0  0  0  0  0  0  0  0
   51.8370  150.9120   27.4660 C   0  0  0  0  0  0  0  0  0  0  0  0
   52.5830  150.9070   26.2840 C   0  0  0  0  0  0  0  0  0  0  0  0
   53.0790  152.1030   25.7720 C   0  0  0  0  0  0  0  0  0  0  0  0
   53.8000  152.0270   24.6140 O   0  0  0  0  0  0  0  0  0  0  0  0
   52.8300  153.3060   26.4400 C   0  0  0  0  0  0  0  0  0  0  0  0
   53.2440  157.8080   26.6450 H   0  0  0  0  0  0  0  0  0  0  0  0
   53.8023  157.8390   28.5196 H   0  0  0  0  0  0  0  0  0  0  0  0
   53.1285  159.7579   29.9425 H   0  0  0  0  0  0  0  0  0  0  0  0
   50.1393  159.7504   31.9795 H   0  0  0  0  0  0  0  0  0  0  0  0
   48.5139  156.9257   30.6236 H   0  0  0  0  0  0  0  0  0  0  0  0
   49.9028  156.0667   29.0496 H   0  0  0  0  0  0  0  0  0  0  0  0
   51.0038  152.1159   29.0638 H   0  0  0  0  0  0  0  0  0  0  0  0
   51.4439  149.9679   27.8712 H   0  0  0  0  0  0  0  0  0  0  0  0
   52.7778  149.9600   25.7593 H   0  0  0  0  0  0  0  0  0  0  0  0
   53.9160  152.7910   24.0830 H   0  0  0  0  0  0  0  0  0  0  0  0
  1  2  2  0
  2  3  1  0
  3  4  1  0
  3  5  2  0
  5  6  1  0
  6  7  2  0
  7  8  1  0
  8  9  2  0
  9 10  1  0
 10 11  1  0
 10 12  1  0
  9 13  1  0
 13 14  1  0
 14 15  1  0
 14 16  1  0
 13 17  2  0
  5 18  1  0
 18 19  1  0
 19 20  2  0
 20 21  1  0
 21 22  2  0
 22 23  1  0
 23 24  1  0
 23 25  2  0
 25  2  1  0
 17  6  1  0
 25 19  1  0
  4 26  1  0
  7 27  1  0
  8 28  1  0
 10 29  1  0
 14 30  1  0
 17 31  1  0
 20 32  1  0
 21 33  1  0
 22 34  1  0
 24 35  1  0
M  END
>  <meeko>  (8) 
{"is_sidechain": [false], "free_energy": -8.152, "intermolecular_energy": -10.267, "internal_energy": 0.021}

$$$$
