cand_036_out
     RDKit          3D

 35 37  0  0  0  0  0  0  0  0999 V2000
   50.0300  161.1940   31.6720 C   0  0  0  0  0  0  0  0  0  0  0  0
   50.4920  159.9760   30.9200 C   0  0  0  0  0  0  0  0  0  0  0  0
   51.7960  159.9380   30.4080 C   0  0  0  0  0  0  0  0  0  0  0  0
   52.2590  158.8230   29.7050 C   0  0  0  0  0  0  0  0  0  0  0  0
   51.4280  157.7190   29.4870 C   0  0  0  0  0  0  0  0  0  0  0  0
   51.9020  156.5170   28.7700 C   0  0  0  0  0  0  0  0  0  0  0  0
   52.4860  156.8150   27.5440 O   0  0  0  0  0  0  0  0  0  0  0  0
   52.9700  155.7900   26.7720 C   0  0  0  0  0  0  0  0  0  0  0  0
   53.5330  156.1340   25.5420 C   0  0  0  0  0  0  0  0  0  0  0  0
   54.0470  155.1380   24.7080 C   0  0  0  0  0  0  0  0  0  0  0  0
   53.9970  153.8000   25.1040 C   0  0  0  0  0  0  0  0  0  0  0  0
   53.4350  153.4600   26.3320 C   0  0  0  0  0  0  0  0  0  0  0  0
   53.4180  152.1310   26.6570 O   0  0  0  0  0  0  0  0  0  0  0  0
   52.9200  154.4570   27.1650 C   0  0  0  0  0  0  0  0  0  0  0  0
   52.3200  154.1420   28.4630 C   0  0  0  0  0  0  0  0  0  0  0  0
   52.2450  152.9890   28.8830 O   0  0  0  0  0  0  0  0  0  0  0  0
   51.7960  155.2710   29.2670 C   0  0  0  0  0  0  0  0  0  0  0  0
   51.2440  154.9640   30.4960 O   0  0  0  0  0  0  0  0  0  0  0  0
   50.1250  157.7550   30.0090 C   0  0  0  0  0  0  0  0  0  0  0  0
   49.6450  158.8680   30.7210 C   0  0  0  0  0  0  0  0  0  0  0  0
   48.2370  158.8530   31.2490 C   0  0  0  0  0  0  0  0  0  0  0  0
   50.1013  161.0061   32.7535 H   0  0  0  0  0  0  0  0  0  0  0  0
   50.6652  162.0518   31.4062 H   0  0  0  0  0  0  0  0  0  0  0  0
   48.9857  161.4148   31.4062 H   0  0  0  0  0  0  0  0  0  0  0  0
   52.4643  160.7981   30.5618 H   0  0  0  0  0  0  0  0  0  0  0  0
   53.2888  158.8131   29.3185 H   0  0  0  0  0  0  0  0  0  0  0  0
   53.5719  157.1880   25.2297 H   0  0  0  0  0  0  0  0  0  0  0  0
   54.4914  155.4081   23.7387 H   0  0  0  0  0  0  0  0  0  0  0  0
   54.4009  153.0156   24.4470 H   0  0  0  0  0  0  0  0  0  0  0  0
   52.7660  151.5670   26.2910 H   0  0  0  0  0  0  0  0  0  0  0  0
   51.0940  155.6420   31.1250 H   0  0  0  0  0  0  0  0  0  0  0  0
   49.4627  156.8900   29.8569 H   0  0  0  0  0  0  0  0  0  0  0  0
   48.2578  158.8532   32.3488 H   0  0  0  0  0  0  0  0  0  0  0  0
   47.7021  159.7455   30.8922 H   0  0  0  0  0  0  0  0  0  0  0  0
   47.7212  157.9493   30.8922 H   0  0  0  0  0  0  0  0  0  0  0  0
  1  2  1  0
  2  3  2  0
  3  4  1  0
  4  5  2  0
  5  6  1  0
  6  7  1  0
  7  8  1  0
  8  9  2  0
  9 10  1  0
 10 11  2  0
 11 12  1  0
 12 13  1  0
 12 14  2  0
 14 15  1  0
 15 16  2  0
 15 17  1  0
 17 18  1  0
  5 19  1  0
 19 20  2  0
 20 21  1  0
 20  2  1  0
 17  6  2  0
 14  8  1  0
  1 22  1  0
  1 23  1  0
  1 24  1  0
  3 25  1  0
  4 26  1  0
  9 27  1  0
 10 28  1  0
 11 29  1  0
 13 30  1  0
 18 31  1  0
 19 32  1  0
 21 33  1  0
 21 34  1  0
 21 35  1  0
M  END
>  <meeko>  (1) 
{"is_sidechain": [false], "free_energy": -11.419, "intermolecular_energy": -12.754, "internal_energy": -0.042}

$$$$
cand_036_out
     RDKit          3D

 35 37  0  0  0  0  0  0  0  0999 V2000
   49.0500  160.7710   31.5930 C   0  0  0  0  0  0  0  0  0  0  0  0
   49.7470  159.6400   30.8880 C   0  0  0  0  0  0  0  0  0  0  0  0
   49.0510  158.4490   30.6430 C   0  0  0  0  0  0  0  0  0  0  0  0
   49.6680  157.3780   29.9910 C   0  0  0  0  0  0  0  0  0  0  0  0
   50.9990  157.4670   29.5730 C   0  0  0  0  0  0  0  0  0  0  0  0
   51.6670  156.3580   28.8580 C   0  0  0  0  0  0  0  0  0  0  0  0
   52.2460  156.7600   27.6610 O   0  0  0  0  0  0  0  0  0  0  0  0
   52.9000  155.8300   26.8940 C   0  0  0  0  0  0  0  0  0  0  0  0
   53.4530  156.2730   25.6920 C   0  0  0  0  0  0  0  0  0  0  0  0
   54.1340  155.3770   24.8650 C   0  0  0  0  0  0  0  0  0  0  0  0
   54.2620  154.0380   25.2400 C   0  0  0  0  0  0  0  0  0  0  0  0
   53.7090  153.5980   26.4410 C   0  0  0  0  0  0  0  0  0  0  0  0
   53.8710  152.2740   26.7470 O   0  0  0  0  0  0  0  0  0  0  0  0
   53.0270  154.4950   27.2670 C   0  0  0  0  0  0  0  0  0  0  0  0
   52.4310  154.0730   28.5360 C   0  0  0  0  0  0  0  0  0  0  0  0
   52.5070  152.9140   28.9370 O   0  0  0  0  0  0  0  0  0  0  0  0
   51.7220  155.1000   29.3340 C   0  0  0  0  0  0  0  0  0  0  0  0
   51.1750  154.6940   30.5360 O   0  0  0  0  0  0  0  0  0  0  0  0
   51.6930  158.6640   29.8110 C   0  0  0  0  0  0  0  0  0  0  0  0
   51.0860  159.7510   30.4640 C   0  0  0  0  0  0  0  0  0  0  0  0
   51.8810  161.0060   30.6990 C   0  0  0  0  0  0  0  0  0  0  0  0
   49.1351  160.6329   32.6810 H   0  0  0  0  0  0  0  0  0  0  0  0
   49.5172  161.7249   31.3068 H   0  0  0  0  0  0  0  0  0  0  0  0
   47.9879  160.7825   31.3068 H   0  0  0  0  0  0  0  0  0  0  0  0
   48.0044  158.3557   30.9684 H   0  0  0  0  0  0  0  0  0  0  0  0
   49.1000  156.4546   29.8046 H   0  0  0  0  0  0  0  0  0  0  0  0
   53.3526  157.3276   25.3958 H   0  0  0  0  0  0  0  0  0  0  0  0
   54.5699  155.7264   23.9174 H   0  0  0  0  0  0  0  0  0  0  0  0
   54.7982  153.3321   24.5888 H   0  0  0  0  0  0  0  0  0  0  0  0
   53.9840  152.0100   27.6380 H   0  0  0  0  0  0  0  0  0  0  0  0
   50.3970  155.1050   30.8600 H   0  0  0  0  0  0  0  0  0  0  0  0
   52.7376  158.7536   29.4783 H   0  0  0  0  0  0  0  0  0  0  0  0
   51.9881  161.1751   31.7806 H   0  0  0  0  0  0  0  0  0  0  0  0
   52.8769  160.8998   30.2441 H   0  0  0  0  0  0  0  0  0  0  0  0
   51.3594  161.8610   30.2441 H   0  0  0  0  0  0  0  0  0  0  0  0
  1  2  1  0
  2  3  2  0
  3  4  1  0
  4  5  2  0
  5  6  1  0
  6  7  1  0
  7  8  1  0
  8  9  2  0
  9 10  1  0
 10 11  2  0
 11 12  1  0
 12 13  1  0
 12 14  2  0
 14 15  1  0
 15 16  2  0
 15 17  1  0
 17 18  1  0
  5 19  1  0
 19 20  2  0
 20 21  1  0
 20  2  1  0
 17  6  2  0
 14  8  1  0
  1 22  1  0
  1 23  1  0
  1 24  1  0
  3 25  1  0
  4 26  1  0
  9 27  1  0
 10 28  1  0
 11 29  1  0
 13 30  1  0
 18 31  1  0
 19 32  1  0
 21 33  1  0
 21 34  1  0
 21 35  1  0
M  END
>  <meeko>  (2) 
{"is_sidechain": [false], "free_energy": -11.104, "intermolecular_energy": -12.325, "internal_energy": -0.119}

$$$$
cand_036_out
     RDKit          3D

 35 37  0  0  0  0  0  0  0  0999 V2000
   52.8710  153.5580   27.0050 C   0  0  0  0  0  0  0  0  0  0  0  0
   52.4250  154.7880   27.7470 C   0  0  0  0  0  0  0  0  0  0  0  0
   51.6910  154.6470   28.9330 C   0  0  0  0  0  0  0  0  0  0  0  0
   51.2600  155.7660   29.6480 C   0  0  0  0  0  0  0  0  0  0  0  0
   51.5450  157.0580   29.1940 C   0  0  0  0  0  0  0  0  0  0  0  0
   51.1230  158.2590   29.9460 C   0  0  0  0  0  0  0  0  0  0  0  0
   49.8110  158.1800   30.3960 O   0  0  0  0  0  0  0  0  0  0  0  0
   49.2900  159.2290   31.1100 C   0  0  0  0  0  0  0  0  0  0  0  0
   47.9630  159.1150   31.5290 C   0  0  0  0  0  0  0  0  0  0  0  0
   47.3730  160.1470   32.2620 C   0  0  0  0  0  0  0  0  0  0  0  0
   48.1080  161.2910   32.5770 C   0  0  0  0  0  0  0  0  0  0  0  0
   49.4320  161.4030   32.1570 C   0  0  0  0  0  0  0  0  0  0  0  0
   50.0930  162.5510   32.4990 O   0  0  0  0  0  0  0  0  0  0  0  0
   50.0220  160.3710   31.4230 C   0  0  0  0  0  0  0  0  0  0  0  0
   51.4090  160.4480   30.9620 C   0  0  0  0  0  0  0  0  0  0  0  0
   52.1220  161.4200   31.2050 O   0  0  0  0  0  0  0  0  0  0  0  0
   51.9370  159.3040   30.1840 C   0  0  0  0  0  0  0  0  0  0  0  0
   53.2520  159.3820   29.7670 O   0  0  0  0  0  0  0  0  0  0  0  0
   52.2880  157.1980   28.0110 C   0  0  0  0  0  0  0  0  0  0  0  0
   52.7310  156.0810   27.2810 C   0  0  0  0  0  0  0  0  0  0  0  0
   53.5170  156.2930   26.0160 C   0  0  0  0  0  0  0  0  0  0  0  0
   53.1541  152.7772   27.7262 H   0  0  0  0  0  0  0  0  0  0  0  0
   52.0482  153.1925   26.3731 H   0  0  0  0  0  0  0  0  0  0  0  0
   53.7369  153.8048   26.3731 H   0  0  0  0  0  0  0  0  0  0  0  0
   51.4512  153.6402   29.3056 H   0  0  0  0  0  0  0  0  0  0  0  0
   50.6899  155.6301   30.5789 H   0  0  0  0  0  0  0  0  0  0  0  0
   47.3830  158.2135   31.2821 H   0  0  0  0  0  0  0  0  0  0  0  0
   46.3273  160.0581   32.5916 H   0  0  0  0  0  0  0  0  0  0  0  0
   47.6430  162.1027   33.1557 H   0  0  0  0  0  0  0  0  0  0  0  0
   50.6900  162.9450   31.8940 H   0  0  0  0  0  0  0  0  0  0  0  0
   53.4990  159.0430   28.9280 H   0  0  0  0  0  0  0  0  0  0  0  0
   52.5297  158.2071   27.6460 H   0  0  0  0  0  0  0  0  0  0  0  0
   54.5506  156.5718   26.2689 H   0  0  0  0  0  0  0  0  0  0  0  0
   53.5215  155.3640   25.4270 H   0  0  0  0  0  0  0  0  0  0  0  0
   53.0537  157.0983   25.4270 H   0  0  0  0  0  0  0  0  0  0  0  0
  1  2  1  0
  2  3  2  0
  3  4  1  0
  4  5  2  0
  5  6  1  0
  6  7  1  0
  7  8  1  0
  8  9  2  0
  9 10  1  0
 10 11  2  0
 11 12  1  0
 12 13  1  0
 12 14  2  0
 14 15  1  0
 15 16  2  0
 15 17  1  0
 17 18  1  0
  5 19  1  0
 19 20  2  0
 20 21  1  0
 20  2  1  0
 17  6  2  0
 14  8  1  0
  1 22  1  0
  1 23  1  0
  1 24  1  0
  3 25  1  0
  4 26  1  0
  9 27  1  0
 10 28  1  0
 11 29  1  0
 13 30  1  0
 18 31  1  0
 19 32  1  0
 21 33  1  0
 21 34  1  0
 21 35  1  0
M  END
>  <meeko>  (3) 
{"is_sidechain": [false], "free_energy": -10.654, "intermolecular_energy": -11.982, "internal_energy": 0.041}

$$$$
cand_036_out
     RDKit          3D

 35 37  0  0  0  0  0  0  0  0999 V2000
   53.2630  153.8830   26.5590 C   0  0  0  0  0  0  0  0  0  0  0  0
   52.7480  155.0110   27.4100 C   0  0  0  0  0  0  0  0  0  0  0  0
   52.9730  156.3340   27.0070 C   0  0  0  0  0  0  0  0  0  0  0  0
   52.5080  157.4060   27.7740 C   0  0  0  0  0  0  0  0  0  0  0  0
   51.8130  157.1840   28.9660 C   0  0  0  0  0  0  0  0  0  0  0  0
   51.2880  158.3000   29.7810 C   0  0  0  0  0  0  0  0  0  0  0  0
   49.9560  158.1280   30.1370 O   0  0  0  0  0  0  0  0  0  0  0  0
   49.3410  159.0920   30.8960 C   0  0  0  0  0  0  0  0  0  0  0  0
   47.9990  158.8860   31.2170 C   0  0  0  0  0  0  0  0  0  0  0  0
   47.3150  159.8280   31.9890 C   0  0  0  0  0  0  0  0  0  0  0  0
   47.9720  160.9740   32.4390 C   0  0  0  0  0  0  0  0  0  0  0  0
   49.3120  161.1770   32.1170 C   0  0  0  0  0  0  0  0  0  0  0  0
   49.8950  162.3210   32.5900 O   0  0  0  0  0  0  0  0  0  0  0  0
   49.9960  160.2350   31.3440 C   0  0  0  0  0  0  0  0  0  0  0  0
   51.4040  160.4100   30.9820 C   0  0  0  0  0  0  0  0  0  0  0  0
   52.0520  161.3890   31.3460 O   0  0  0  0  0  0  0  0  0  0  0  0
   52.0340  159.3570   30.1530 C   0  0  0  0  0  0  0  0  0  0  0  0
   53.3670  159.5260   29.8300 O   0  0  0  0  0  0  0  0  0  0  0  0
   51.5800  155.8580   29.3630 C   0  0  0  0  0  0  0  0  0  0  0  0
   52.0390  154.7680   28.6020 C   0  0  0  0  0  0  0  0  0  0  0  0
   51.7670  153.3690   29.0820 C   0  0  0  0  0  0  0  0  0  0  0  0
   53.6323  153.0742   27.2066 H   0  0  0  0  0  0  0  0  0  0  0  0
   52.4497  153.5019   25.9240 H   0  0  0  0  0  0  0  0  0  0  0  0
   54.0837  154.2479   25.9240 H   0  0  0  0  0  0  0  0  0  0  0  0
   53.5227  156.5315   26.0749 H   0  0  0  0  0  0  0  0  0  0  0  0
   52.6912  158.4364   27.4354 H   0  0  0  0  0  0  0  0  0  0  0  0
   47.4803  157.9830   30.8626 H   0  0  0  0  0  0  0  0  0  0  0  0
   46.2569  159.6663   32.2426 H   0  0  0  0  0  0  0  0  0  0  0  0
   47.4328  161.7155   33.0468 H   0  0  0  0  0  0  0  0  0  0  0  0
   49.7750  162.5730   33.4840 H   0  0  0  0  0  0  0  0  0  0  0  0
   53.6090  160.0940   29.1250 H   0  0  0  0  0  0  0  0  0  0  0  0
   51.0244  155.6665   30.2928 H   0  0  0  0  0  0  0  0  0  0  0  0
   51.7639  153.3528   30.1819 H   0  0  0  0  0  0  0  0  0  0  0  0
   50.7875  153.0368   28.7076 H   0  0  0  0  0  0  0  0  0  0  0  0
   52.5507  152.6940   28.7076 H   0  0  0  0  0  0  0  0  0  0  0  0
  1  2  1  0
  2  3  2  0
  3  4  1  0
  4  5  2  0
  5  6  1  0
  6  7  1  0
  7  8  1  0
  8  9  2  0
  9 10  1  0
 10 11  2  0
 11 12  1  0
 12 13  1  0
 12 14  2  0
 14 15  1  0
 15 16  2  0
 15 17  1  0
 17 18  1  0
  5 19  1  0
 19 20  2  0
 20 21  1  0
 20  2  1  0
 17  6  2  0
 14  8  1  0
  1 22  1  0
  1 23  1  0
  1 24  1  0
  3 25  1  0
  4 26  1  0
  9 27  1  0
 10 28  1  0
 11 29  1  0
 13 30  1  0
 18 31  1  0
 19 32  1  0
 21 33  1  0
 21 34  1  0
 21 35  1  0
M  END
>  <meeko>  (4) 
{"is_sidechain": [false], "free_energy": -10.08, "intermolecular_energy": -11.224, "internal_energy": -0.076}

$$$$
cand_036_out
     RDKit          3D

 35 37  0  0  0  0  0  0  0  0999 V2000
   53.5730  153.2640   26.6700 C   0  0  0  0  0  0  0  0  0  0  0  0
   52.8690  154.3640   27.4170 C   0  0  0  0  0  0  0  0  0  0  0  0
   52.1560  154.0560   28.5830 C   0  0  0  0  0  0  0  0  0  0  0  0
   51.4910  155.0530   29.3020 C   0  0  0  0  0  0  0  0  0  0  0  0
   51.5140  156.3820   28.8690 C   0  0  0  0  0  0  0  0  0  0  0  0
   50.8410  157.4590   29.6260 C   0  0  0  0  0  0  0  0  0  0  0  0
   51.6920  158.5120   29.9390 O   0  0  0  0  0  0  0  0  0  0  0  0
   51.1970  159.5810   30.6410 C   0  0  0  0  0  0  0  0  0  0  0  0
   52.0900  160.6080   30.9480 C   0  0  0  0  0  0  0  0  0  0  0  0
   51.6490  161.7270   31.6590 C   0  0  0  0  0  0  0  0  0  0  0  0
   50.3150  161.8170   32.0630 C   0  0  0  0  0  0  0  0  0  0  0  0
   49.4260  160.7900   31.7560 C   0  0  0  0  0  0  0  0  0  0  0  0
   48.1350  160.9430   32.1820 O   0  0  0  0  0  0  0  0  0  0  0  0
   49.8680  159.6710   31.0450 C   0  0  0  0  0  0  0  0  0  0  0  0
   48.9660  158.5700   30.7030 C   0  0  0  0  0  0  0  0  0  0  0  0
   47.7780  158.5800   31.0180 O   0  0  0  0  0  0  0  0  0  0  0  0
   49.5360  157.4260   29.9540 C   0  0  0  0  0  0  0  0  0  0  0  0
   48.6730  156.3990   29.6240 O   0  0  0  0  0  0  0  0  0  0  0  0
   52.2370  156.6910   27.7060 C   0  0  0  0  0  0  0  0  0  0  0  0
   52.9140  155.7000   26.9730 C   0  0  0  0  0  0  0  0  0  0  0  0
   53.6650  156.0880   25.7290 C   0  0  0  0  0  0  0  0  0  0  0  0
   54.0221  152.5622   27.3882 H   0  0  0  0  0  0  0  0  0  0  0  0
   52.8493  152.7286   26.0378 H   0  0  0  0  0  0  0  0  0  0  0  0
   54.3623  153.6969   26.0378 H   0  0  0  0  0  0  0  0  0  0  0  0
   52.1191  153.0153   28.9374 H   0  0  0  0  0  0  0  0  0  0  0  0
   50.9434  154.7890   30.2188 H   0  0  0  0  0  0  0  0  0  0  0  0
   53.1408  160.5368   30.6304 H   0  0  0  0  0  0  0  0  0  0  0  0
   52.3526  162.5373   31.9007 H   0  0  0  0  0  0  0  0  0  0  0  0
   49.9672  162.6977   32.6228 H   0  0  0  0  0  0  0  0  0  0  0  0
   47.9410  160.9430   33.0990 H   0  0  0  0  0  0  0  0  0  0  0  0
   47.9350  156.2120   30.1720 H   0  0  0  0  0  0  0  0  0  0  0  0
   52.2749  157.7343   27.3594 H   0  0  0  0  0  0  0  0  0  0  0  0
   54.6102  156.5763   26.0086 H   0  0  0  0  0  0  0  0  0  0  0  0
   53.8793  155.1878   25.1343 H   0  0  0  0  0  0  0  0  0  0  0  0
   53.0548  156.7837   25.1343 H   0  0  0  0  0  0  0  0  0  0  0  0
  1  2  1  0
  2  3  2  0
  3  4  1  0
  4  5  2  0
  5  6  1  0
  6  7  1  0
  7  8  1  0
  8  9  2  0
  9 10  1  0
 10 11  2  0
 11 12  1  0
 12 13  1  0
 12 14  2  0
 14 15  1  0
 15 16  2  0
 15 17  1  0
 17 18  1  0
  5 19  1  0
 19 20  2  0
 20 21  1  0
 20  2  1  0
 17  6  2  0
 14  8  1  0
  1 22  1  0
  1 23  1  0
  1 24  1  0
  3 25  1  0
  4 26  1  0
  9 27  1  0
 10 28  1  0
 11 29  1  0
 13 30  1  0
 18 31  1  0
 19 32  1  0
 21 33  1  0
 21 34  1  0
 21 35  1  0
M  END
>  <meeko>  (5) 
{"is_sidechain": [false], "free_energy": -8.694, "intermolecular_energy": -9.622, "internal_energy": -0.13}

$$$$
