cand_034_out
     RDKit          3D

 40 42  0  0  0  0  0  0  0  0999 V2000
   48.1370  160.9890   30.9270 C   0  0  0  0  0  0  0  0  0  0  0  0
   49.2700  160.3250   31.5790 N   0  0  0  0  0  0  0  0  0  0  0  0
   48.9780  159.8710   32.9470 C   0  0  0  0  0  0  0  0  0  0  0  0
   49.8640  159.2910   30.8230 C   0  0  0  0  0  0  0  0  0  0  0  0
   49.1780  158.1100   30.5020 C   0  0  0  0  0  0  0  0  0  0  0  0
   49.7950  157.0880   29.7700 C   0  0  0  0  0  0  0  0  0  0  0  0
   51.1160  157.2150   29.3360 C   0  0  0  0  0  0  0  0  0  0  0  0
   51.8020  156.1380   28.5900 C   0  0  0  0  0  0  0  0  0  0  0  0
   52.3350  156.5720   27.3820 O   0  0  0  0  0  0  0  0  0  0  0  0
   52.9950  155.6710   26.5860 C   0  0  0  0  0  0  0  0  0  0  0  0
   53.5220  156.1530   25.3870 C   0  0  0  0  0  0  0  0  0  0  0  0
   54.2050  155.2880   24.5290 C   0  0  0  0  0  0  0  0  0  0  0  0
   54.3600  153.9430   24.8690 C   0  0  0  0  0  0  0  0  0  0  0  0
   53.8330  153.4640   26.0660 C   0  0  0  0  0  0  0  0  0  0  0  0
   54.0200  152.1370   26.3370 O   0  0  0  0  0  0  0  0  0  0  0  0
   53.1490  154.3310   26.9250 C   0  0  0  0  0  0  0  0  0  0  0  0
   52.5780  153.8700   28.1910 C   0  0  0  0  0  0  0  0  0  0  0  0
   52.6670  152.7000   28.5570 O   0  0  0  0  0  0  0  0  0  0  0  0
   51.8770  154.8680   29.0300 C   0  0  0  0  0  0  0  0  0  0  0  0
   51.3280  154.4170   30.2170 O   0  0  0  0  0  0  0  0  0  0  0  0
   51.8110  158.3870   29.6680 C   0  0  0  0  0  0  0  0  0  0  0  0
   51.1980  159.4270   30.3950 C   0  0  0  0  0  0  0  0  0  0  0  0
   51.9950  160.6630   30.7220 C   0  0  0  0  0  0  0  0  0  0  0  0
   51.9440  160.9870   32.0510 F   0  0  0  0  0  0  0  0  0  0  0  0
   51.5330  161.7700   30.0700 F   0  0  0  0  0  0  0  0  0  0  0  0
   47.4558  161.3882   31.6929 H   0  0  0  0  0  0  0  0  0  0  0  0
   48.5067  161.8133   30.2995 H   0  0  0  0  0  0  0  0  0  0  0  0
   47.5985  160.2636   30.2995 H   0  0  0  0  0  0  0  0  0  0  0  0
   49.4271  160.5692   33.6687 H   0  0  0  0  0  0  0  0  0  0  0  0
   47.8889  159.8380   33.0977 H   0  0  0  0  0  0  0  0  0  0  0  0
   49.3997  158.8663   33.0977 H   0  0  0  0  0  0  0  0  0  0  0  0
   48.1360  157.9845   30.8315 H   0  0  0  0  0  0  0  0  0  0  0  0
   49.2316  156.1732   29.5338 H   0  0  0  0  0  0  0  0  0  0  0  0
   53.3997  157.2126   25.1181 H   0  0  0  0  0  0  0  0  0  0  0  0
   54.6213  155.6671   23.5841 H   0  0  0  0  0  0  0  0  0  0  0  0
   54.8976  153.2623   24.1925 H   0  0  0  0  0  0  0  0  0  0  0  0
   53.6540  151.7610   27.1140 H   0  0  0  0  0  0  0  0  0  0  0  0
   51.2610  153.4970   30.3810 H   0  0  0  0  0  0  0  0  0  0  0  0
   52.8593  158.4970   29.3535 H   0  0  0  0  0  0  0  0  0  0  0  0
   53.0180  160.4062   30.4096 H   0  0  0  0  0  0  0  0  0  0  0  0
  1  2  1  0
  2  3  1  0
  2  4  1  0
  4  5  2  0
  5  6  1  0
  6  7  2  0
  7  8  1  0
  8  9  1  0
  9 10  1  0
 10 11  2  0
 11 12  1  0
 12 13  2  0
 13 14  1  0
 14 15  1  0
 14 16  2  0
 16 17  1  0
 17 18  2  0
 17 19  1  0
 19 20  1  0
  7 21  1  0
 21 22  2  0
 22 23  1  0
 23 24  1  0
 23 25  1  0
 22  4  1  0
 19  8  2  0
 16 10  1  0
  1 26  1  0
  1 27  1  0
  1 28  1  0
  3 29  1  0
  3 30  1  0
  3 31  1  0
  5 32  1  0
  6 33  1  0
 11 34  1  0
 12 35  1  0
 13 36  1  0
 15 37  1  0
 20 38  1  0
 21 39  1  0
 23 40  1  0
M  END
>  <meeko>  (1) 
{"is_sidechain": [false], "free_energy": -10.589, "intermolecular_energy": -13.066, "internal_energy": -0.235}

$$$$
cand_034_out
     RDKit          3D

 40 42  0  0  0  0  0  0  0  0999 V2000
   50.9960  161.4390   32.0410 C   0  0  0  0  0  0  0  0  0  0  0  0
   50.0090  160.6400   31.3070 N   0  0  0  0  0  0  0  0  0  0  0  0
   49.1600  161.4350   30.4070 C   0  0  0  0  0  0  0  0  0  0  0  0
   50.5390  159.5170   30.6350 C   0  0  0  0  0  0  0  0  0  0  0  0
   51.8210  159.5240   30.0620 C   0  0  0  0  0  0  0  0  0  0  0  0
   52.3180  158.4070   29.3810 C   0  0  0  0  0  0  0  0  0  0  0  0
   51.5500  157.2470   29.2510 C   0  0  0  0  0  0  0  0  0  0  0  0
   52.0380  156.0650   28.5080 C   0  0  0  0  0  0  0  0  0  0  0  0
   52.5550  156.3880   27.2590 O   0  0  0  0  0  0  0  0  0  0  0  0
   53.0390  155.3830   26.4610 C   0  0  0  0  0  0  0  0  0  0  0  0
   53.5570  155.7550   25.2200 C   0  0  0  0  0  0  0  0  0  0  0  0
   54.0660  154.7810   24.3580 C   0  0  0  0  0  0  0  0  0  0  0  0
   54.0550  153.4370   24.7360 C   0  0  0  0  0  0  0  0  0  0  0  0
   53.5370  153.0690   25.9750 C   0  0  0  0  0  0  0  0  0  0  0  0
   53.5570  151.7360   26.2830 O   0  0  0  0  0  0  0  0  0  0  0  0
   53.0290  154.0440   26.8380 C   0  0  0  0  0  0  0  0  0  0  0  0
   52.4740  153.7010   28.1480 C   0  0  0  0  0  0  0  0  0  0  0  0
   52.4230  152.5410   28.5500 O   0  0  0  0  0  0  0  0  0  0  0  0
   51.9650  154.8100   28.9880 C   0  0  0  0  0  0  0  0  0  0  0  0
   51.4280  154.4720   30.2170 O   0  0  0  0  0  0  0  0  0  0  0  0
   50.2640  157.2410   29.8080 C   0  0  0  0  0  0  0  0  0  0  0  0
   49.7560  158.3550   30.5060 C   0  0  0  0  0  0  0  0  0  0  0  0
   48.3660  158.2900   31.0830 C   0  0  0  0  0  0  0  0  0  0  0  0
   47.4590  159.0140   30.3580 F   0  0  0  0  0  0  0  0  0  0  0  0
   48.3010  158.8040   32.3450 F   0  0  0  0  0  0  0  0  0  0  0  0
   50.8393  161.3122   33.1224 H   0  0  0  0  0  0  0  0  0  0  0  0
   52.0095  161.1039   31.7755 H   0  0  0  0  0  0  0  0  0  0  0  0
   50.8793  162.5001   31.7755 H   0  0  0  0  0  0  0  0  0  0  0  0
   48.4851  162.0670   31.0028 H   0  0  0  0  0  0  0  0  0  0  0  0
   49.7939  162.0719   29.7725 H   0  0  0  0  0  0  0  0  0  0  0  0
   48.5661  160.7607   29.7725 H   0  0  0  0  0  0  0  0  0  0  0  0
   52.4465  160.4246   30.1501 H   0  0  0  0  0  0  0  0  0  0  0  0
   53.3262  158.4427   28.9425 H   0  0  0  0  0  0  0  0  0  0  0  0
   53.5645  156.8136   24.9210 H   0  0  0  0  0  0  0  0  0  0  0  0
   54.4761  155.0732   23.3800 H   0  0  0  0  0  0  0  0  0  0  0  0
   54.4548  152.6702   24.0562 H   0  0  0  0  0  0  0  0  0  0  0  0
   54.0080  151.4380   27.0480 H   0  0  0  0  0  0  0  0  0  0  0  0
   51.9890  154.1780   30.9070 H   0  0  0  0  0  0  0  0  0  0  0  0
   49.6357  156.3448   29.6977 H   0  0  0  0  0  0  0  0  0  0  0  0
   48.1259  157.2166   31.0692 H   0  0  0  0  0  0  0  0  0  0  0  0
  1  2  1  0
  2  3  1  0
  2  4  1  0
  4  5  2  0
  5  6  1  0
  6  7  2  0
  7  8  1  0
  8  9  1  0
  9 10  1  0
 10 11  2  0
 11 12  1  0
 12 13  2  0
 13 14  1  0
 14 15  1  0
 14 16  2  0
 16 17  1  0
 17 18  2  0
 17 19  1  0
 19 20  1  0
  7 21  1  0
 21 22  2  0
 22 23  1  0
 23 24  1  0
 23 25  1  0
 22  4  1  0
 19  8  2  0
 16 10  1  0
  1 26  1  0
  1 27  1  0
  1 28  1  0
  3 29  1  0
  3 30  1  0
  3 31  1  0
  5 32  1  0
  6 33  1  0
 11 34  1  0
 12 35  1  0
 13 36  1  0
 15 37  1  0
 20 38  1  0
 21 39  1  0
 23 40  1  0
M  END
>  <meeko>  (2) 
{"is_sidechain": [false], "free_energy": -10.56, "intermolecular_energy": -13.543, "internal_energy": 0.279}

$$$$
cand_034_out
     RDKit          3D

 40 42  0  0  0  0  0  0  0  0999 V2000
   54.0620  153.2170   26.5500 C   0  0  0  0  0  0  0  0  0  0  0  0
   52.6320  153.5390   26.5720 N   0  0  0  0  0  0  0  0  0  0  0  0
   51.7720  152.3800   26.8540 C   0  0  0  0  0  0  0  0  0  0  0  0
   52.2850  154.6330   27.3940 C   0  0  0  0  0  0  0  0  0  0  0  0
   51.5440  154.4760   28.5760 C   0  0  0  0  0  0  0  0  0  0  0  0
   51.1930  155.5780   29.3640 C   0  0  0  0  0  0  0  0  0  0  0  0
   51.5700  156.8720   28.9960 C   0  0  0  0  0  0  0  0  0  0  0  0
   51.1830  158.0560   29.7930 C   0  0  0  0  0  0  0  0  0  0  0  0
   49.8620  158.0100   30.2220 O   0  0  0  0  0  0  0  0  0  0  0  0
   49.3700  159.0500   30.9680 C   0  0  0  0  0  0  0  0  0  0  0  0
   48.0410  158.9570   31.3840 C   0  0  0  0  0  0  0  0  0  0  0  0
   47.4770  159.9820   32.1470 C   0  0  0  0  0  0  0  0  0  0  0  0
   48.2400  161.0990   32.4910 C   0  0  0  0  0  0  0  0  0  0  0  0
   49.5650  161.1900   32.0740 C   0  0  0  0  0  0  0  0  0  0  0  0
   50.2560  162.3110   32.4460 O   0  0  0  0  0  0  0  0  0  0  0  0
   50.1300  160.1630   31.3110 C   0  0  0  0  0  0  0  0  0  0  0  0
   51.5180  160.2180   30.8510 C   0  0  0  0  0  0  0  0  0  0  0  0
   52.2510  161.1710   31.1080 O   0  0  0  0  0  0  0  0  0  0  0  0
   52.0210  159.0780   30.0520 C   0  0  0  0  0  0  0  0  0  0  0  0
   53.3290  159.1480   29.6090 O   0  0  0  0  0  0  0  0  0  0  0  0
   52.2970  157.0350   27.8090 C   0  0  0  0  0  0  0  0  0  0  0  0
   52.6670  155.9330   27.0120 C   0  0  0  0  0  0  0  0  0  0  0  0
   53.4480  156.1710   25.7460 C   0  0  0  0  0  0  0  0  0  0  0  0
   54.4420  157.0980   25.9040 F   0  0  0  0  0  0  0  0  0  0  0  0
   52.6690  156.6560   24.7360 F   0  0  0  0  0  0  0  0  0  0  0  0
   54.4349  153.1330   27.5815 H   0  0  0  0  0  0  0  0  0  0  0  0
   54.2148  152.2620   26.0260 H   0  0  0  0  0  0  0  0  0  0  0  0
   54.6094  154.0144   26.0260 H   0  0  0  0  0  0  0  0  0  0  0  0
   51.6761  152.2507   27.9422 H   0  0  0  0  0  0  0  0  0  0  0  0
   50.7770  152.5464   26.4154 H   0  0  0  0  0  0  0  0  0  0  0  0
   52.2196  151.4760   26.4154 H   0  0  0  0  0  0  0  0  0  0  0  0
   51.2335  153.4681   28.8886 H   0  0  0  0  0  0  0  0  0  0  0  0
   50.6125  155.4233   30.2855 H   0  0  0  0  0  0  0  0  0  0  0  0
   47.4387  158.0779   31.1114 H   0  0  0  0  0  0  0  0  0  0  0  0
   46.4303  159.9088   32.4772 H   0  0  0  0  0  0  0  0  0  0  0  0
   47.7948  161.9064   33.0909 H   0  0  0  0  0  0  0  0  0  0  0  0
   49.8830  163.1590   32.3050 H   0  0  0  0  0  0  0  0  0  0  0  0
   53.8010  159.9540   29.6730 H   0  0  0  0  0  0  0  0  0  0  0  0
   52.5859  158.0478   27.4916 H   0  0  0  0  0  0  0  0  0  0  0  0
   53.8589  155.1803   25.5017 H   0  0  0  0  0  0  0  0  0  0  0  0
  1  2  1  0
  2  3  1  0
  2  4  1  0
  4  5  2  0
  5  6  1  0
  6  7  2  0
  7  8  1  0
  8  9  1  0
  9 10  1  0
 10 11  2  0
 11 12  1  0
 12 13  2  0
 13 14  1  0
 14 15  1  0
 14 16  2  0
 16 17  1  0
 17 18  2  0
 17 19  1  0
 19 20  1  0
  7 21  1  0
 21 22  2  0
 22 23  1  0
 23 24  1  0
 23 25  1  0
 22  4  1  0
 19  8  2  0
 16 10  1  0
  1 26  1  0
  1 27  1  0
  1 28  1  0
  3 29  1  0
  3 30  1  0
  3 31  1  0
  5 32  1  0
  6 33  1  0
 11 34  1  0
 12 35  1  0
 13 36  1  0
 15 37  1  0
 20 38  1  0
 21 39  1  0
 23 40  1  0
M  END
>  <meeko>  (3) 
{"is_sidechain": [false], "free_energy": -9.899, "intermolecular_energy": -12.577, "internal_energy": 0.129}

$$$$
cand_034_out
     RDKit          3D

 40 42  0  0  0  0  0  0  0  0999 V2000
   52.4160  153.3640   25.6270 C   0  0  0  0  0  0  0  0  0  0  0  0
   53.4280  154.2050   26.2740 N   0  0  0  0  0  0  0  0  0  0  0  0
   54.4460  154.7200   25.3460 C   0  0  0  0  0  0  0  0  0  0  0  0
   52.9090  155.2450   27.0750 C   0  0  0  0  0  0  0  0  0  0  0  0
   53.0160  156.5960   26.7110 C   0  0  0  0  0  0  0  0  0  0  0  0
   52.5130  157.6120   27.5320 C   0  0  0  0  0  0  0  0  0  0  0  0
   51.8860  157.3100   28.7430 C   0  0  0  0  0  0  0  0  0  0  0  0
   51.3760  158.3660   29.6440 C   0  0  0  0  0  0  0  0  0  0  0  0
   50.0350  158.1960   29.9690 O   0  0  0  0  0  0  0  0  0  0  0  0
   49.4320  159.1090   30.7960 C   0  0  0  0  0  0  0  0  0  0  0  0
   48.0870  158.8940   31.1030 C   0  0  0  0  0  0  0  0  0  0  0  0
   47.4130  159.7870   31.9390 C   0  0  0  0  0  0  0  0  0  0  0  0
   48.0810  160.8930   32.4660 C   0  0  0  0  0  0  0  0  0  0  0  0
   49.4220  161.1060   32.1570 C   0  0  0  0  0  0  0  0  0  0  0  0
   50.0160  162.2100   32.7070 O   0  0  0  0  0  0  0  0  0  0  0  0
   50.0980  160.2120   31.3210 C   0  0  0  0  0  0  0  0  0  0  0  0
   51.5060  160.3980   30.9700 C   0  0  0  0  0  0  0  0  0  0  0  0
   52.1600  161.3510   31.3890 O   0  0  0  0  0  0  0  0  0  0  0  0
   52.1290  159.3920   30.0810 C   0  0  0  0  0  0  0  0  0  0  0  0
   53.4560  159.5870   29.7430 O   0  0  0  0  0  0  0  0  0  0  0  0
   51.7890  155.9630   29.1180 C   0  0  0  0  0  0  0  0  0  0  0  0
   52.2820  154.9300   28.2960 C   0  0  0  0  0  0  0  0  0  0  0  0
   52.1500  153.5000   28.7530 C   0  0  0  0  0  0  0  0  0  0  0  0
   51.1430  152.8320   28.1110 F   0  0  0  0  0  0  0  0  0  0  0  0
   51.8490  153.4020   30.0800 F   0  0  0  0  0  0  0  0  0  0  0  0
   51.8110  152.8612   26.3959 H   0  0  0  0  0  0  0  0  0  0  0  0
   51.7649  153.9907   24.9999 H   0  0  0  0  0  0  0  0  0  0  0  0
   52.9129  152.6092   24.9999 H   0  0  0  0  0  0  0  0  0  0  0  0
   55.2838  155.1438   25.9192 H   0  0  0  0  0  0  0  0  0  0  0  0
   54.8133  153.8993   24.7124 H   0  0  0  0  0  0  0  0  0  0  0  0
   54.0024  155.5021   24.7124 H   0  0  0  0  0  0  0  0  0  0  0  0
   53.5047  156.8618   25.7620 H   0  0  0  0  0  0  0  0  0  0  0  0
   52.6128  158.6619   27.2194 H   0  0  0  0  0  0  0  0  0  0  0  0
   47.5593  158.0230   30.6873 H   0  0  0  0  0  0  0  0  0  0  0  0
   46.3536  159.6182   32.1824 H   0  0  0  0  0  0  0  0  0  0  0  0
   47.5491  161.5955   33.1245 H   0  0  0  0  0  0  0  0  0  0  0  0
   50.9190  162.1810   32.9560 H   0  0  0  0  0  0  0  0  0  0  0  0
   53.9900  160.1590   30.2580 H   0  0  0  0  0  0  0  0  0  0  0  0
   51.3165  155.7059   30.0775 H   0  0  0  0  0  0  0  0  0  0  0  0
   53.1325  153.0603   28.5265 H   0  0  0  0  0  0  0  0  0  0  0  0
  1  2  1  0
  2  3  1  0
  2  4  1  0
  4  5  2  0
  5  6  1  0
  6  7  2  0
  7  8  1  0
  8  9  1  0
  9 10  1  0
 10 11  2  0
 11 12  1  0
 12 13  2  0
 13 14  1  0
 14 15  1  0
 14 16  2  0
 16 17  1  0
 17 18  2  0
 17 19  1  0
 19 20  1  0
  7 21  1  0
 21 22  2  0
 22 23  1  0
 23 24  1  0
 23 25  1  0
 22  4  1  0
 19  8  2  0
 16 10  1  0
  1 26  1  0
  1 27  1  0
  1 28  1  0
  3 29  1  0
  3 30  1  0
  3 31  1  0
  5 32  1  0
  6 33  1  0
 11 34  1  0
 12 35  1  0
 13 36  1  0
 15 37  1  0
 20 38  1  0
 21 39  1  0
 23 40  1  0
M  END
>  <meeko>  (4) 
{"is_sidechain": [false], "free_energy": -8.729, "intermolecular_energy": -11.223, "internal_energy": 0.219}

$$$$
cand_034_out
     RDKit          3D

 40 42  0  0  0  0  0  0  0  0999 V2000
   53.5260  153.2850   23.8610 C   0  0  0  0  0  0  0  0  0  0  0  0
   53.2860  152.8410   25.2370 N   0  0  0  0  0  0  0  0  0  0  0  0
   54.3710  152.0170   25.7880 C   0  0  0  0  0  0  0  0  0  0  0  0
   52.9300  153.8700   26.1370 C   0  0  0  0  0  0  0  0  0  0  0  0
   52.0660  153.6510   27.2200 C   0  0  0  0  0  0  0  0  0  0  0  0
   51.7090  154.6910   28.0870 C   0  0  0  0  0  0  0  0  0  0  0  0
   52.2060  155.9830   27.8980 C   0  0  0  0  0  0  0  0  0  0  0  0
   51.8200  157.1060   28.7780 C   0  0  0  0  0  0  0  0  0  0  0  0
   50.4990  157.0290   29.2040 O   0  0  0  0  0  0  0  0  0  0  0  0
   50.0070  158.0120   30.0240 C   0  0  0  0  0  0  0  0  0  0  0  0
   48.6790  157.8880   30.4350 C   0  0  0  0  0  0  0  0  0  0  0  0
   48.1150  158.8550   31.2700 C   0  0  0  0  0  0  0  0  0  0  0  0
   48.8780  159.9450   31.6930 C   0  0  0  0  0  0  0  0  0  0  0  0
   50.2020  160.0670   31.2810 C   0  0  0  0  0  0  0  0  0  0  0  0
   50.8930  161.1590   31.7310 O   0  0  0  0  0  0  0  0  0  0  0  0
   50.7670  159.0980   30.4450 C   0  0  0  0  0  0  0  0  0  0  0  0
   52.1540  159.1880   29.9880 C   0  0  0  0  0  0  0  0  0  0  0  0
   52.8870  160.1200   30.3110 O   0  0  0  0  0  0  0  0  0  0  0  0
   52.6570  158.1070   29.1090 C   0  0  0  0  0  0  0  0  0  0  0  0
   53.9640  158.2110   28.6700 O   0  0  0  0  0  0  0  0  0  0  0  0
   53.0590  156.2100   26.8080 C   0  0  0  0  0  0  0  0  0  0  0  0
   53.4330  155.1690   25.9350 C   0  0  0  0  0  0  0  0  0  0  0  0
   54.3520  155.4730   24.7800 C   0  0  0  0  0  0  0  0  0  0  0  0
   55.6290  155.0300   24.9910 F   0  0  0  0  0  0  0  0  0  0  0  0
   54.4760  156.8130   24.5510 F   0  0  0  0  0  0  0  0  0  0  0  0
   54.0490  154.2526   23.8739 H   0  0  0  0  0  0  0  0  0  0  0  0
   54.1446  152.5407   23.3382 H   0  0  0  0  0  0  0  0  0  0  0  0
   52.5644  153.3949   23.3382 H   0  0  0  0  0  0  0  0  0  0  0  0
   54.3320  152.0466   26.8869 H   0  0  0  0  0  0  0  0  0  0  0  0
   54.2533  150.9786   25.4448 H   0  0  0  0  0  0  0  0  0  0  0  0
   55.3397  152.4091   25.4448 H   0  0  0  0  0  0  0  0  0  0  0  0
   51.6610  152.6428   27.3916 H   0  0  0  0  0  0  0  0  0  0  0  0
   51.0288  154.4882   28.9274 H   0  0  0  0  0  0  0  0  0  0  0  0
   48.0773  157.0296   30.1016 H   0  0  0  0  0  0  0  0  0  0  0  0
   47.0685  158.7577   31.5947 H   0  0  0  0  0  0  0  0  0  0  0  0
   48.4335  160.7063   32.3509 H   0  0  0  0  0  0  0  0  0  0  0  0
   51.3040  161.7380   31.1200 H   0  0  0  0  0  0  0  0  0  0  0  0
   54.5620  158.7800   29.1120 H   0  0  0  0  0  0  0  0  0  0  0  0
   53.4451  157.2246   26.6304 H   0  0  0  0  0  0  0  0  0  0  0  0
   53.8834  154.9574   23.9288 H   0  0  0  0  0  0  0  0  0  0  0  0
  1  2  1  0
  2  3  1  0
  2  4  1  0
  4  5  2  0
  5  6  1  0
  6  7  2  0
  7  8  1  0
  8  9  1  0
  9 10  1  0
 10 11  2  0
 11 12  1  0
 12 13  2  0
 13 14  1  0
 14 15  1  0
 14 16  2  0
 16 17  1  0
 17 18  2  0
 17 19  1  0
 19 20  1  0
  7 21  1  0
 21 22  2  0
 22 23  1  0
 23 24  1  0
 23 25  1  0
 22  4  1  0
 19  8  2  0
 16 10  1  0
  1 26  1  0
  1 27  1  0
  1 28  1  0
  3 29  1  0
  3 30  1  0
  3 31  1  0
  5 32  1  0
  6 33  1  0
 11 34  1  0
 12 35  1  0
 13 36  1  0
 15 37  1  0
 20 38  1  0
 21 39  1  0
 23 40  1  0
M  END
>  <meeko>  (5) 
{"is_sidechain": [false], "free_energy": -8.231, "intermolecular_energy": -11.744, "internal_energy": 1.353}

$$$$
cand_034_out
     RDKit          3D

 40 42  0  0  0  0  0  0  0  0999 V2000
   55.7990  152.6440   25.7390 C   0  0  0  0  0  0  0  0  0  0  0  0
   54.4930  153.0870   25.2430 N   0  0  0  0  0  0  0  0  0  0  0  0
   53.6390  151.9880   24.7690 C   0  0  0  0  0  0  0  0  0  0  0  0
   53.7820  153.9310   26.1230 C   0  0  0  0  0  0  0  0  0  0  0  0
   53.1490  153.4460   27.2780 C   0  0  0  0  0  0  0  0  0  0  0  0
   52.4310  154.2970   28.1260 C   0  0  0  0  0  0  0  0  0  0  0  0
   52.3220  155.6610   27.8460 C   0  0  0  0  0  0  0  0  0  0  0  0
   51.5420  156.5770   28.7060 C   0  0  0  0  0  0  0  0  0  0  0  0
   52.2350  157.7380   29.0280 O   0  0  0  0  0  0  0  0  0  0  0  0
   51.6290  158.6730   29.8270 C   0  0  0  0  0  0  0  0  0  0  0  0
   52.3580  159.8270   30.1160 C   0  0  0  0  0  0  0  0  0  0  0  0
   51.8000  160.8200   30.9240 C   0  0  0  0  0  0  0  0  0  0  0  0
   50.5140  160.6580   31.4430 C   0  0  0  0  0  0  0  0  0  0  0  0
   49.7880  159.5060   31.1540 C   0  0  0  0  0  0  0  0  0  0  0  0
   48.5350  159.4110   31.6940 O   0  0  0  0  0  0  0  0  0  0  0  0
   50.3470  158.5120   30.3440 C   0  0  0  0  0  0  0  0  0  0  0  0
   49.6210  157.2860   30.0160 C   0  0  0  0  0  0  0  0  0  0  0  0
   48.4880  157.0670   30.4390 O   0  0  0  0  0  0  0  0  0  0  0  0
   50.3010  156.2980   29.1470 C   0  0  0  0  0  0  0  0  0  0  0  0
   49.6110  155.1350   28.8560 O   0  0  0  0  0  0  0  0  0  0  0  0
   52.9400  156.1490   26.6860 C   0  0  0  0  0  0  0  0  0  0  0  0
   53.6740  155.3040   25.8300 C   0  0  0  0  0  0  0  0  0  0  0  0
   54.3160  155.8850   24.5960 C   0  0  0  0  0  0  0  0  0  0  0  0
   55.6800  155.7810   24.6120 F   0  0  0  0  0  0  0  0  0  0  0  0
   54.0640  157.2190   24.4560 F   0  0  0  0  0  0  0  0  0  0  0  0
   55.7934  152.6459   26.8390 H   0  0  0  0  0  0  0  0  0  0  0  0
   56.0034  151.6262   25.3751 H   0  0  0  0  0  0  0  0  0  0  0  0
   56.5805  153.3273   25.3751 H   0  0  0  0  0  0  0  0  0  0  0  0
   53.2209  151.4499   25.6325 H   0  0  0  0  0  0  0  0  0  0  0  0
   52.8194  152.3970   24.1599 H   0  0  0  0  0  0  0  0  0  0  0  0
   54.2378  151.2948   24.1599 H   0  0  0  0  0  0  0  0  0  0  0  0
   53.2186  152.3756   27.5216 H   0  0  0  0  0  0  0  0  0  0  0  0
   51.9465  153.8865   29.0242 H   0  0  0  0  0  0  0  0  0  0  0  0
   53.3714  159.9545   29.7077 H   0  0  0  0  0  0  0  0  0  0  0  0
   52.3740  161.7303   31.1517 H   0  0  0  0  0  0  0  0  0  0  0  0
   50.0749  161.4401   32.0798 H   0  0  0  0  0  0  0  0  0  0  0  0
   47.9850  160.1690   31.7390 H   0  0  0  0  0  0  0  0  0  0  0  0
   49.9110  154.5720   28.1710 H   0  0  0  0  0  0  0  0  0  0  0  0
   52.8497  157.2169   26.4382 H   0  0  0  0  0  0  0  0  0  0  0  0
   53.8787  155.3012   23.7727 H   0  0  0  0  0  0  0  0  0  0  0  0
  1  2  1  0
  2  3  1  0
  2  4  1  0
  4  5  2  0
  5  6  1  0
  6  7  2  0
  7  8  1  0
  8  9  1  0
  9 10  1  0
 10 11  2  0
 11 12  1  0
 12 13  2  0
 13 14  1  0
 14 15  1  0
 14 16  2  0
 16 17  1  0
 17 18  2  0
 17 19  1  0
 19 20  1  0
  7 21  1  0
 21 22  2  0
 22 23  1  0
 23 24  1  0
 23 25  1  0
 22  4  1  0
 19  8  2  0
 16 10  1  0
  1 26  1  0
  1 27  1  0
  1 28  1  0
  3 29  1  0
  3 30  1  0
  3 31  1  0
  5 32  1  0
  6 33  1  0
 11 34  1  0
 12 35  1  0
 13 36  1  0
 15 37  1  0
 20 38  1  0
 21 39  1  0
 23 40  1  0
M  END
>  <meeko>  (6) 
{"is_sidechain": [false], "free_energy": -7.917, "intermolecular_energy": -9.678, "internal_energy": -0.324}

$$$$
