cand_052_out
     RDKit          3D

 44 46  0  0  0  0  0  0  0  0999 V2000
   48.1580  161.5620   33.2180 C   0  0  0  0  0  0  0  0  0  0  0  0
   49.5230  161.1370   33.7340 C   0  0  0  0  0  0  0  0  0  0  0  0
   50.5920  161.2440   32.6460 C   0  0  0  0  0  0  0  0  0  0  0  0
   49.9820  161.0790   31.2510 C   0  0  0  0  0  0  0  0  0  0  0  0
   50.4580  159.8090   30.5780 C   0  0  0  0  0  0  0  0  0  0  0  0
   51.7860  159.7490   30.1290 C   0  0  0  0  0  0  0  0  0  0  0  0
   52.2800  158.6080   29.4930 C   0  0  0  0  0  0  0  0  0  0  0  0
   51.4620  157.4930   29.2920 C   0  0  0  0  0  0  0  0  0  0  0  0
   51.9520  156.2810   28.6010 C   0  0  0  0  0  0  0  0  0  0  0  0
   52.4650  156.5520   27.3370 O   0  0  0  0  0  0  0  0  0  0  0  0
   52.9560  155.5160   26.5840 C   0  0  0  0  0  0  0  0  0  0  0  0
   53.4730  155.8350   25.3290 C   0  0  0  0  0  0  0  0  0  0  0  0
   53.9880  154.8260   24.5100 C   0  0  0  0  0  0  0  0  0  0  0  0
   53.9840  153.5000   24.9470 C   0  0  0  0  0  0  0  0  0  0  0  0
   53.4660  153.1850   26.2010 C   0  0  0  0  0  0  0  0  0  0  0  0
   53.4930  151.8660   26.5660 O   0  0  0  0  0  0  0  0  0  0  0  0
   52.9520  154.1950   27.0190 C   0  0  0  0  0  0  0  0  0  0  0  0
   52.4000  153.9060   28.3440 C   0  0  0  0  0  0  0  0  0  0  0  0
   52.3550  152.7630   28.7960 O   0  0  0  0  0  0  0  0  0  0  0  0
   51.8880  155.0490   29.1360 C   0  0  0  0  0  0  0  0  0  0  0  0
   51.3550  154.7630   30.3800 O   0  0  0  0  0  0  0  0  0  0  0  0
   50.1300  157.5590   29.7280 C   0  0  0  0  0  0  0  0  0  0  0  0
   49.6130  158.7030   30.3640 C   0  0  0  0  0  0  0  0  0  0  0  0
   48.1800  158.6950   30.8210 C   0  0  0  0  0  0  0  0  0  0  0  0
   47.4925  161.7692   34.0690 H   0  0  0  0  0  0  0  0  0  0  0  0
   48.2638  162.4697   32.6058 H   0  0  0  0  0  0  0  0  0  0  0  0
   47.7298  160.7547   32.6058 H   0  0  0  0  0  0  0  0  0  0  0  0
   49.8044  161.7858   34.5765 H   0  0  0  0  0  0  0  0  0  0  0  0
   49.4594  160.0862   34.0529 H   0  0  0  0  0  0  0  0  0  0  0  0
   51.0738  162.2307   32.7124 H   0  0  0  0  0  0  0  0  0  0  0  0
   51.3280  160.4413   32.8011 H   0  0  0  0  0  0  0  0  0  0  0  0
   48.8864  161.0446   31.3429 H   0  0  0  0  0  0  0  0  0  0  0  0
   50.2994  161.9332   30.6348 H   0  0  0  0  0  0  0  0  0  0  0  0
   52.4483  160.6141   30.2803 H   0  0  0  0  0  0  0  0  0  0  0  0
   53.3238  158.5868   29.1467 H   0  0  0  0  0  0  0  0  0  0  0  0
   53.4756  156.8794   24.9838 H   0  0  0  0  0  0  0  0  0  0  0  0
   54.3969  155.0770   23.5201 H   0  0  0  0  0  0  0  0  0  0  0  0
   54.3890  152.7059   24.3025 H   0  0  0  0  0  0  0  0  0  0  0  0
   54.1030  151.2810   26.1640 H   0  0  0  0  0  0  0  0  0  0  0  0
   50.4410  154.8930   30.5390 H   0  0  0  0  0  0  0  0  0  0  0  0
   49.4715  156.6925   29.5683 H   0  0  0  0  0  0  0  0  0  0  0  0
   48.1458  158.6948   31.9205 H   0  0  0  0  0  0  0  0  0  0  0  0
   47.6681  159.5903   30.4384 H   0  0  0  0  0  0  0  0  0  0  0  0
   47.6781  157.7940   30.4384 H   0  0  0  0  0  0  0  0  0  0  0  0
  1  2  1  0
  2  3  1  0
  3  4  1  0
  4  5  1  0
  5  6  2  0
  6  7  1  0
  7  8  2  0
  8  9  1  0
  9 10  1  0
 10 11  1  0
 11 12  2  0
 12 13  1  0
 13 14  2  0
 14 15  1  0
 15 16  1  0
 15 17  2  0
 17 18  1  0
 18 19  2  0
 18 20  1  0
 20 21  1  0
  8 22  1  0
 22 23  2  0
 23 24  1  0
 23  5  1  0
 20  9  2  0
 17 11  1  0
  1 25  1  0
  1 26  1  0
  1 27  1  0
  2 28  1  0
  2 29  1  0
  3 30  1  0
  3 31  1  0
  4 32  1  0
  4 33  1  0
  6 34  1  0
  7 35  1  0
 12 36  1  0
 13 37  1  0
 14 38  1  0
 16 39  1  0
 21 40  1  0
 22 41  1  0
 24 42  1  0
 24 43  1  0
 24 44  1  0
M  END
>  <meeko>  (1) 
{"is_sidechain": [false], "free_energy": -11.246, "intermolecular_energy": -14.533, "internal_energy": -0.66}

$$$$
cand_052_out
     RDKit          3D

 44 46  0  0  0  0  0  0  0  0999 V2000
   48.5370  162.4510   32.8200 C   0  0  0  0  0  0  0  0  0  0  0  0
   49.0620  161.3810   33.7640 C   0  0  0  0  0  0  0  0  0  0  0  0
   49.3050  160.0600   33.0340 C   0  0  0  0  0  0  0  0  0  0  0  0
   49.0580  160.2040   31.5290 C   0  0  0  0  0  0  0  0  0  0  0  0
   49.8160  159.1630   30.7340 C   0  0  0  0  0  0  0  0  0  0  0  0
   49.1790  157.9440   30.4530 C   0  0  0  0  0  0  0  0  0  0  0  0
   49.8290  156.9400   29.7320 C   0  0  0  0  0  0  0  0  0  0  0  0
   51.1330  157.1290   29.2650 C   0  0  0  0  0  0  0  0  0  0  0  0
   51.8540  156.0750   28.5190 C   0  0  0  0  0  0  0  0  0  0  0  0
   52.3930  156.5350   27.3230 O   0  0  0  0  0  0  0  0  0  0  0  0
   53.0900  155.6600   26.5290 C   0  0  0  0  0  0  0  0  0  0  0  0
   53.6250  156.1670   25.3450 C   0  0  0  0  0  0  0  0  0  0  0  0
   54.3450  155.3280   24.4900 C   0  0  0  0  0  0  0  0  0  0  0  0
   54.5270  153.9840   24.8190 C   0  0  0  0  0  0  0  0  0  0  0  0
   53.9910  153.4800   26.0020 C   0  0  0  0  0  0  0  0  0  0  0  0
   54.2070  152.1540   26.2630 O   0  0  0  0  0  0  0  0  0  0  0  0
   53.2720  154.3200   26.8570 C   0  0  0  0  0  0  0  0  0  0  0  0
   52.6930  153.8310   28.1090 C   0  0  0  0  0  0  0  0  0  0  0  0
   52.8050  152.6590   28.4650 O   0  0  0  0  0  0  0  0  0  0  0  0
   51.9560  154.8040   28.9490 C   0  0  0  0  0  0  0  0  0  0  0  0
   51.4010  154.3280   30.1230 O   0  0  0  0  0  0  0  0  0  0  0  0
   51.7750  158.3420   29.5590 C   0  0  0  0  0  0  0  0  0  0  0  0
   51.1380  159.3600   30.2910 C   0  0  0  0  0  0  0  0  0  0  0  0
   51.8820  160.6420   30.5520 C   0  0  0  0  0  0  0  0  0  0  0  0
   48.1268  163.2871   33.4053 H   0  0  0  0  0  0  0  0  0  0  0  0
   49.3585  162.8156   32.1859 H   0  0  0  0  0  0  0  0  0  0  0  0
   47.7459  162.0244   32.1859 H   0  0  0  0  0  0  0  0  0  0  0  0
   50.0095  161.7259   34.2037 H   0  0  0  0  0  0  0  0  0  0  0  0
   48.3070  161.2096   34.5455 H   0  0  0  0  0  0  0  0  0  0  0  0
   50.3463  159.7459   33.1981 H   0  0  0  0  0  0  0  0  0  0  0  0
   48.6058  159.3094   33.4310 H   0  0  0  0  0  0  0  0  0  0  0  0
   47.9819  160.0888   31.3320 H   0  0  0  0  0  0  0  0  0  0  0  0
   49.4123  161.1977   31.2174 H   0  0  0  0  0  0  0  0  0  0  0  0
   48.1509  157.7769   30.8066 H   0  0  0  0  0  0  0  0  0  0  0  0
   49.3100  155.9915   29.5297 H   0  0  0  0  0  0  0  0  0  0  0  0
   53.4805  157.2259   25.0844 H   0  0  0  0  0  0  0  0  0  0  0  0
   54.7687  155.7274   23.5568 H   0  0  0  0  0  0  0  0  0  0  0  0
   55.0928  153.3237   24.1453 H   0  0  0  0  0  0  0  0  0  0  0  0
   54.8310  151.6730   25.7580 H   0  0  0  0  0  0  0  0  0  0  0  0
   51.3830  153.4070   30.2920 H   0  0  0  0  0  0  0  0  0  0  0  0
   52.8050  158.5008   29.2071 H   0  0  0  0  0  0  0  0  0  0  0  0
   51.9730  160.7988   31.6370 H   0  0  0  0  0  0  0  0  0  0  0  0
   52.8852  160.5813   30.1049 H   0  0  0  0  0  0  0  0  0  0  0  0
   51.3316  161.4829   30.1049 H   0  0  0  0  0  0  0  0  0  0  0  0
  1  2  1  0
  2  3  1  0
  3  4  1  0
  4  5  1  0
  5  6  2  0
  6  7  1  0
  7  8  2  0
  8  9  1  0
  9 10  1  0
 10 11  1  0
 11 12  2  0
 12 13  1  0
 13 14  2  0
 14 15  1  0
 15 16  1  0
 15 17  2  0
 17 18  1  0
 18 19  2  0
 18 20  1  0
 20 21  1  0
  8 22  1  0
 22 23  2  0
 23 24  1  0
 23  5  1  0
 20  9  2  0
 17 11  1  0
  1 25  1  0
  1 26  1  0
  1 27  1  0
  2 28  1  0
  2 29  1  0
  3 30  1  0
  3 31  1  0
  4 32  1  0
  4 33  1  0
  6 34  1  0
  7 35  1  0
 12 36  1  0
 13 37  1  0
 14 38  1  0
 16 39  1  0
 21 40  1  0
 22 41  1  0
 24 42  1  0
 24 43  1  0
 24 44  1  0
M  END
>  <meeko>  (2) 
{"is_sidechain": [false], "free_energy": -10.723, "intermolecular_energy": -14.052, "internal_energy": -0.466}

$$$$
cand_052_out
     RDKit          3D

 44 46  0  0  0  0  0  0  0  0999 V2000
   54.1120  152.5050   23.7940 C   0  0  0  0  0  0  0  0  0  0  0  0
   54.5900  151.7940   25.0500 C   0  0  0  0  0  0  0  0  0  0  0  0
   54.1090  152.5060   26.3140 C   0  0  0  0  0  0  0  0  0  0  0  0
   52.6360  152.9070   26.1980 C   0  0  0  0  0  0  0  0  0  0  0  0
   52.3270  154.1500   27.0050 C   0  0  0  0  0  0  0  0  0  0  0  0
   51.5670  154.0130   28.1770 C   0  0  0  0  0  0  0  0  0  0  0  0
   51.2430  155.1240   28.9590 C   0  0  0  0  0  0  0  0  0  0  0  0
   51.6730  156.4030   28.5950 C   0  0  0  0  0  0  0  0  0  0  0  0
   51.3250  157.5980   29.3910 C   0  0  0  0  0  0  0  0  0  0  0  0
   49.9930  157.6120   29.7890 O   0  0  0  0  0  0  0  0  0  0  0  0
   49.5340  158.6660   30.5380 C   0  0  0  0  0  0  0  0  0  0  0  0
   48.1950  158.6310   30.9260 C   0  0  0  0  0  0  0  0  0  0  0  0
   47.6630  159.6750   31.6880 C   0  0  0  0  0  0  0  0  0  0  0  0
   48.4700  160.7520   32.0590 C   0  0  0  0  0  0  0  0  0  0  0  0
   49.8070  160.7840   31.6690 C   0  0  0  0  0  0  0  0  0  0  0  0
   50.5400  161.8690   32.0660 O   0  0  0  0  0  0  0  0  0  0  0  0
   50.3380  159.7390   30.9070 C   0  0  0  0  0  0  0  0  0  0  0  0
   51.7370  159.7340   30.4770 C   0  0  0  0  0  0  0  0  0  0  0  0
   52.5080  160.6490   30.7580 O   0  0  0  0  0  0  0  0  0  0  0  0
   52.2040  158.5750   29.6800 C   0  0  0  0  0  0  0  0  0  0  0  0
   53.5240  158.5880   29.2670 O   0  0  0  0  0  0  0  0  0  0  0  0
   52.4210  156.5410   27.4160 C   0  0  0  0  0  0  0  0  0  0  0  0
   52.7510  155.4340   26.6120 C   0  0  0  0  0  0  0  0  0  0  0  0
   53.5710  155.6570   25.3700 C   0  0  0  0  0  0  0  0  0  0  0  0
   53.5187  153.3875   24.0755 H   0  0  0  0  0  0  0  0  0  0  0  0
   54.9811  152.8221   23.1989 H   0  0  0  0  0  0  0  0  0  0  0  0
   53.4904  151.8199   23.1989 H   0  0  0  0  0  0  0  0  0  0  0  0
   54.2001  150.7654   25.0488 H   0  0  0  0  0  0  0  0  0  0  0  0
   55.6900  151.7958   25.0502 H   0  0  0  0  0  0  0  0  0  0  0  0
   54.2303  151.8310   27.1740 H   0  0  0  0  0  0  0  0  0  0  0  0
   54.7084  153.4184   26.4489 H   0  0  0  0  0  0  0  0  0  0  0  0
   52.4020  153.1014   25.1409 H   0  0  0  0  0  0  0  0  0  0  0  0
   52.0247  152.0821   26.5928 H   0  0  0  0  0  0  0  0  0  0  0  0
   51.2211  153.0151   28.4845 H   0  0  0  0  0  0  0  0  0  0  0  0
   50.6429  154.9909   29.8712 H   0  0  0  0  0  0  0  0  0  0  0  0
   47.5585  157.7831   30.6328 H   0  0  0  0  0  0  0  0  0  0  0  0
   46.6073  159.6480   31.9957 H   0  0  0  0  0  0  0  0  0  0  0  0
   48.0510  161.5738   32.6582 H   0  0  0  0  0  0  0  0  0  0  0  0
   50.7380  161.9940   32.9720 H   0  0  0  0  0  0  0  0  0  0  0  0
   53.8810  157.8460   28.8190 H   0  0  0  0  0  0  0  0  0  0  0  0
   52.7590  157.5425   27.1115 H   0  0  0  0  0  0  0  0  0  0  0  0
   54.5967  155.9359   25.6530 H   0  0  0  0  0  0  0  0  0  0  0  0
   53.5935  154.7324   24.7746 H   0  0  0  0  0  0  0  0  0  0  0  0
   53.1221  156.4657   24.7746 H   0  0  0  0  0  0  0  0  0  0  0  0
  1  2  1  0
  2  3  1  0
  3  4  1  0
  4  5  1  0
  5  6  2  0
  6  7  1  0
  7  8  2  0
  8  9  1  0
  9 10  1  0
 10 11  1  0
 11 12  2  0
 12 13  1  0
 13 14  2  0
 14 15  1  0
 15 16  1  0
 15 17  2  0
 17 18  1  0
 18 19  2  0
 18 20  1  0
 20 21  1  0
  8 22  1  0
 22 23  2  0
 23 24  1  0
 23  5  1  0
 20  9  2  0
 17 11  1  0
  1 25  1  0
  1 26  1  0
  1 27  1  0
  2 28  1  0
  2 29  1  0
  3 30  1  0
  3 31  1  0
  4 32  1  0
  4 33  1  0
  6 34  1  0
  7 35  1  0
 12 36  1  0
 13 37  1  0
 14 38  1  0
 16 39  1  0
 21 40  1  0
 22 41  1  0
 24 42  1  0
 24 43  1  0
 24 44  1  0
M  END
>  <meeko>  (3) 
{"is_sidechain": [false], "free_energy": -10.271, "intermolecular_energy": -13.717, "internal_energy": -0.216}

$$$$
cand_052_out
     RDKit          3D

 44 46  0  0  0  0  0  0  0  0999 V2000
   54.2430  153.2860   23.4640 C   0  0  0  0  0  0  0  0  0  0  0  0
   53.8200  152.2170   24.4590 C   0  0  0  0  0  0  0  0  0  0  0  0
   52.8880  152.7860   25.5300 C   0  0  0  0  0  0  0  0  0  0  0  0
   53.6750  153.2600   26.7550 C   0  0  0  0  0  0  0  0  0  0  0  0
   52.9660  154.3870   27.4750 C   0  0  0  0  0  0  0  0  0  0  0  0
   52.2170  154.0790   28.6220 C   0  0  0  0  0  0  0  0  0  0  0  0
   51.5340  155.0740   29.3250 C   0  0  0  0  0  0  0  0  0  0  0  0
   51.5820  156.4060   28.9040 C   0  0  0  0  0  0  0  0  0  0  0  0
   50.8490  157.4750   29.6150 C   0  0  0  0  0  0  0  0  0  0  0  0
   51.6660  158.5410   29.9750 O   0  0  0  0  0  0  0  0  0  0  0  0
   51.1140  159.6050   30.6410 C   0  0  0  0  0  0  0  0  0  0  0  0
   51.9680  160.6580   30.9700 C   0  0  0  0  0  0  0  0  0  0  0  0
   51.4700  161.7720   31.6520 C   0  0  0  0  0  0  0  0  0  0  0  0
   50.1200  161.8310   32.0040 C   0  0  0  0  0  0  0  0  0  0  0  0
   49.2700  160.7770   31.6740 C   0  0  0  0  0  0  0  0  0  0  0  0
   47.9600  160.9000   32.0490 O   0  0  0  0  0  0  0  0  0  0  0  0
   49.7690  159.6640   30.9920 C   0  0  0  0  0  0  0  0  0  0  0  0
   48.9110  158.5360   30.6260 C   0  0  0  0  0  0  0  0  0  0  0  0
   47.7140  158.5110   30.9070 O   0  0  0  0  0  0  0  0  0  0  0  0
   49.5360  157.4080   29.8970 C   0  0  0  0  0  0  0  0  0  0  0  0
   48.7180  156.3420   29.5690 O   0  0  0  0  0  0  0  0  0  0  0  0
   52.3180  156.7110   27.7490 C   0  0  0  0  0  0  0  0  0  0  0  0
   53.0070  155.7200   27.0240 C   0  0  0  0  0  0  0  0  0  0  0  0
   53.7910  156.1250   25.8050 C   0  0  0  0  0  0  0  0  0  0  0  0
   54.5947  154.1749   24.0082 H   0  0  0  0  0  0  0  0  0  0  0  0
   55.0553  152.8978   22.8320 H   0  0  0  0  0  0  0  0  0  0  0  0
   53.3850  153.5587   22.8320 H   0  0  0  0  0  0  0  0  0  0  0  0
   53.2966  151.4137   23.9198 H   0  0  0  0  0  0  0  0  0  0  0  0
   54.7224  151.8314   24.9560 H   0  0  0  0  0  0  0  0  0  0  0  0
   52.3343  153.6376   25.1079 H   0  0  0  0  0  0  0  0  0  0  0  0
   52.1961  151.9917   25.8469 H   0  0  0  0  0  0  0  0  0  0  0  0
   53.7974  152.4152   27.4487 H   0  0  0  0  0  0  0  0  0  0  0  0
   54.6512  153.6332   26.4117 H   0  0  0  0  0  0  0  0  0  0  0  0
   52.1673  153.0375   28.9725 H   0  0  0  0  0  0  0  0  0  0  0  0
   50.9522  154.8066   30.2194 H   0  0  0  0  0  0  0  0  0  0  0  0
   53.0316  160.6117   30.6932 H   0  0  0  0  0  0  0  0  0  0  0  0
   52.1423  162.6030   31.9117 H   0  0  0  0  0  0  0  0  0  0  0  0
   49.7282  162.7076   32.5407 H   0  0  0  0  0  0  0  0  0  0  0  0
   47.3060  161.0940   31.4090 H   0  0  0  0  0  0  0  0  0  0  0  0
   48.5540  156.1370   28.6700 H   0  0  0  0  0  0  0  0  0  0  0  0
   52.3578  157.7535   27.4002 H   0  0  0  0  0  0  0  0  0  0  0  0
   54.7284  156.6092   26.1161 H   0  0  0  0  0  0  0  0  0  0  0  0
   54.0210  155.2329   25.2039 H   0  0  0  0  0  0  0  0  0  0  0  0
   53.1966  156.8289   25.2039 H   0  0  0  0  0  0  0  0  0  0  0  0
  1  2  1  0
  2  3  1  0
  3  4  1  0
  4  5  1  0
  5  6  2  0
  6  7  1  0
  7  8  2  0
  8  9  1  0
  9 10  1  0
 10 11  1  0
 11 12  2  0
 12 13  1  0
 13 14  2  0
 14 15  1  0
 15 16  1  0
 15 17  2  0
 17 18  1  0
 18 19  2  0
 18 20  1  0
 20 21  1  0
  8 22  1  0
 22 23  2  0
 23 24  1  0
 23  5  1  0
 20  9  2  0
 17 11  1  0
  1 25  1  0
  1 26  1  0
  1 27  1  0
  2 28  1  0
  2 29  1  0
  3 30  1  0
  3 31  1  0
  4 32  1  0
  4 33  1  0
  6 34  1  0
  7 35  1  0
 12 36  1  0
 13 37  1  0
 14 38  1  0
 16 39  1  0
 21 40  1  0
 22 41  1  0
 24 42  1  0
 24 43  1  0
 24 44  1  0
M  END
>  <meeko>  (4) 
{"is_sidechain": [false], "free_energy": -9.131, "intermolecular_energy": -12.017, "internal_energy": -0.442}

$$$$
