cand_053_out
     RDKit          3D

 44 46  0  0  0  0  0  0  0  0999 V2000
   48.6950  161.5090   33.8280 C   0  0  0  0  0  0  0  0  0  0  0  0
   50.0200  161.1680   33.1640 C   0  0  0  0  0  0  0  0  0  0  0  0
   49.9400  161.3260   31.6450 C   0  0  0  0  0  0  0  0  0  0  0  0
   50.3660  160.0640   30.9260 C   0  0  0  0  0  0  0  0  0  0  0  0
   51.6520  160.0270   30.3610 C   0  0  0  0  0  0  0  0  0  0  0  0
   52.1160  158.8910   29.6960 C   0  0  0  0  0  0  0  0  0  0  0  0
   51.3130  157.7520   29.5820 C   0  0  0  0  0  0  0  0  0  0  0  0
   51.8100  156.5700   28.8470 C   0  0  0  0  0  0  0  0  0  0  0  0
   52.4050  156.8990   27.6340 O   0  0  0  0  0  0  0  0  0  0  0  0
   52.9100  155.8950   26.8480 C   0  0  0  0  0  0  0  0  0  0  0  0
   53.4840  156.2710   25.6330 C   0  0  0  0  0  0  0  0  0  0  0  0
   54.0190  155.2970   24.7850 C   0  0  0  0  0  0  0  0  0  0  0  0
   53.9810  153.9510   25.1540 C   0  0  0  0  0  0  0  0  0  0  0  0
   53.4070  153.5800   26.3670 C   0  0  0  0  0  0  0  0  0  0  0  0
   53.4020  152.2450   26.6660 O   0  0  0  0  0  0  0  0  0  0  0  0
   52.8710  154.5540   27.2140 C   0  0  0  0  0  0  0  0  0  0  0  0
   52.2590  154.2070   28.4980 C   0  0  0  0  0  0  0  0  0  0  0  0
   52.1950  153.0450   28.8950 O   0  0  0  0  0  0  0  0  0  0  0  0
   51.7130  155.3130   29.3170 C   0  0  0  0  0  0  0  0  0  0  0  0
   51.1490  154.9750   30.5350 O   0  0  0  0  0  0  0  0  0  0  0  0
   50.0290  157.7880   30.1420 C   0  0  0  0  0  0  0  0  0  0  0  0
   49.5450  158.9240   30.8260 C   0  0  0  0  0  0  0  0  0  0  0  0
   48.1440  158.8650   31.3910 C   0  0  0  0  0  0  0  0  0  0  0  0
   47.2360  159.9170   30.7720 C   0  0  0  0  0  0  0  0  0  0  0  0
   48.8141  161.4784   34.9211 H   0  0  0  0  0  0  0  0  0  0  0  0
   48.3801  162.5175   33.5216 H   0  0  0  0  0  0  0  0  0  0  0  0
   47.9324  160.7778   33.5216 H   0  0  0  0  0  0  0  0  0  0  0  0
   50.7988  161.8403   33.5532 H   0  0  0  0  0  0  0  0  0  0  0  0
   50.2609  160.1189   33.3907 H   0  0  0  0  0  0  0  0  0  0  0  0
   48.9026  161.5622   31.3656 H   0  0  0  0  0  0  0  0  0  0  0  0
   50.6230  162.1358   31.3488 H   0  0  0  0  0  0  0  0  0  0  0  0
   52.3044  160.9087   30.4443 H   0  0  0  0  0  0  0  0  0  0  0  0
   53.1245  158.8918   29.2567 H   0  0  0  0  0  0  0  0  0  0  0  0
   53.5154  157.3316   25.3431 H   0  0  0  0  0  0  0  0  0  0  0  0
   54.4704  155.5913   23.8260 H   0  0  0  0  0  0  0  0  0  0  0  0
   54.4039  153.1849   24.4875 H   0  0  0  0  0  0  0  0  0  0  0  0
   53.6330  151.9570   27.5270 H   0  0  0  0  0  0  0  0  0  0  0  0
   50.8960  155.6460   31.1360 H   0  0  0  0  0  0  0  0  0  0  0  0
   49.3794  156.9055   30.0458 H   0  0  0  0  0  0  0  0  0  0  0  0
   47.7219  157.8691   31.1909 H   0  0  0  0  0  0  0  0  0  0  0  0
   48.2045  159.0613   32.4717 H   0  0  0  0  0  0  0  0  0  0  0  0
   46.7414  160.4900   31.5702 H   0  0  0  0  0  0  0  0  0  0  0  0
   47.8349  160.5977   30.1491 H   0  0  0  0  0  0  0  0  0  0  0  0
   46.4751  159.4240   30.1491 H   0  0  0  0  0  0  0  0  0  0  0  0
  1  2  1  0
  2  3  1  0
  3  4  1  0
  4  5  2  0
  5  6  1  0
  6  7  2  0
  7  8  1  0
  8  9  1  0
  9 10  1  0
 10 11  2  0
 11 12  1  0
 12 13  2  0
 13 14  1  0
 14 15  1  0
 14 16  2  0
 16 17  1  0
 17 18  2  0
 17 19  1  0
 19 20  1  0
  7 21  1  0
 21 22  2  0
 22 23  1  0
 23 24  1  0
 22  4  1  0
 19  8  2  0
 16 10  1  0
  1 25  1  0
  1 26  1  0
  1 27  1  0
  2 28  1  0
  2 29  1  0
  3 30  1  0
  3 31  1  0
  5 32  1  0
  6 33  1  0
 11 34  1  0
 12 35  1  0
 13 36  1  0
 15 37  1  0
 20 38  1  0
 21 39  1  0
 23 40  1  0
 23 41  1  0
 24 42  1  0
 24 43  1  0
 24 44  1  0
M  END
>  <meeko>  (1) 
{"is_sidechain": [false], "free_energy": -10.832, "intermolecular_energy": -13.998, "internal_energy": -0.197}

$$$$
cand_053_out
     RDKit          3D

 44 46  0  0  0  0  0  0  0  0999 V2000
   49.6060  161.7520   33.8170 C   0  0  0  0  0  0  0  0  0  0  0  0
   49.1980  160.4440   33.1580 C   0  0  0  0  0  0  0  0  0  0  0  0
   49.0240  160.6120   31.6470 C   0  0  0  0  0  0  0  0  0  0  0  0
   49.7850  159.5560   30.8750 C   0  0  0  0  0  0  0  0  0  0  0  0
   49.1840  158.2950   30.7110 C   0  0  0  0  0  0  0  0  0  0  0  0
   49.8230  157.2780   29.9980 C   0  0  0  0  0  0  0  0  0  0  0  0
   51.0770  157.4920   29.4190 C   0  0  0  0  0  0  0  0  0  0  0  0
   51.7510  156.3940   28.6950 C   0  0  0  0  0  0  0  0  0  0  0  0
   52.2780  156.7960   27.4730 O   0  0  0  0  0  0  0  0  0  0  0  0
   52.9310  155.8740   26.6950 C   0  0  0  0  0  0  0  0  0  0  0  0
   53.4290  156.3180   25.4700 C   0  0  0  0  0  0  0  0  0  0  0  0
   54.1070  155.4310   24.6300 C   0  0  0  0  0  0  0  0  0  0  0  0
   54.2860  154.1000   25.0170 C   0  0  0  0  0  0  0  0  0  0  0  0
   53.7860  153.6610   26.2400 C   0  0  0  0  0  0  0  0  0  0  0  0
   53.9970  152.3460   26.5560 O   0  0  0  0  0  0  0  0  0  0  0  0
   53.1080  154.5490   27.0790 C   0  0  0  0  0  0  0  0  0  0  0  0
   52.5680  154.1280   28.3730 C   0  0  0  0  0  0  0  0  0  0  0  0
   52.6930  152.9760   28.7850 O   0  0  0  0  0  0  0  0  0  0  0  0
   51.8590  155.1440   29.1830 C   0  0  0  0  0  0  0  0  0  0  0  0
   51.3650  154.7380   30.4090 O   0  0  0  0  0  0  0  0  0  0  0  0
   51.6790  158.7470   29.5850 C   0  0  0  0  0  0  0  0  0  0  0  0
   51.0470  159.7900   30.2940 C   0  0  0  0  0  0  0  0  0  0  0  0
   51.7800  161.1060   30.4200 C   0  0  0  0  0  0  0  0  0  0  0  0
   52.6410  161.1600   31.6730 C   0  0  0  0  0  0  0  0  0  0  0  0
   49.5705  161.6383   34.9105 H   0  0  0  0  0  0  0  0  0  0  0  0
   50.6287  162.0146   33.5086 H   0  0  0  0  0  0  0  0  0  0  0  0
   48.9139  162.5495   33.5086 H   0  0  0  0  0  0  0  0  0  0  0  0
   49.9760  159.6897   33.3472 H   0  0  0  0  0  0  0  0  0  0  0  0
   48.2352  160.1263   33.5847 H   0  0  0  0  0  0  0  0  0  0  0  0
   47.9549  160.5328   31.4003 H   0  0  0  0  0  0  0  0  0  0  0  0
   49.4221  161.5975   31.3635 H   0  0  0  0  0  0  0  0  0  0  0  0
   48.1939  158.1065   31.1517 H   0  0  0  0  0  0  0  0  0  0  0  0
   49.3342  156.2984   29.8910 H   0  0  0  0  0  0  0  0  0  0  0  0
   53.2880  157.3656   25.1656 H   0  0  0  0  0  0  0  0  0  0  0  0
   54.5000  155.7803   23.6638 H   0  0  0  0  0  0  0  0  0  0  0  0
   54.8206  153.4010   24.3570 H   0  0  0  0  0  0  0  0  0  0  0  0
   53.2720  151.7960   26.7780 H   0  0  0  0  0  0  0  0  0  0  0  0
   51.2680  155.3580   31.1040 H   0  0  0  0  0  0  0  0  0  0  0  0
   52.6736  158.9237   29.1496 H   0  0  0  0  0  0  0  0  0  0  0  0
   52.4255  161.2389   29.5393 H   0  0  0  0  0  0  0  0  0  0  0  0
   51.0301  161.9079   30.4877 H   0  0  0  0  0  0  0  0  0  0  0  0
   51.9960  161.1195   32.5631 H   0  0  0  0  0  0  0  0  0  0  0  0
   53.3310  160.3034   31.6809 H   0  0  0  0  0  0  0  0  0  0  0  0
   53.2186  162.0961   31.6809 H   0  0  0  0  0  0  0  0  0  0  0  0
  1  2  1  0
  2  3  1  0
  3  4  1  0
  4  5  2  0
  5  6  1  0
  6  7  2  0
  7  8  1  0
  8  9  1  0
  9 10  1  0
 10 11  2  0
 11 12  1  0
 12 13  2  0
 13 14  1  0
 14 15  1  0
 14 16  2  0
 16 17  1  0
 17 18  2  0
 17 19  1  0
 19 20  1  0
  7 21  1  0
 21 22  2  0
 22 23  1  0
 23 24  1  0
 22  4  1  0
 19  8  2  0
 16 10  1  0
  1 25  1  0
  1 26  1  0
  1 27  1  0
  2 28  1  0
  2 29  1  0
  3 30  1  0
  3 31  1  0
  5 32  1  0
  6 33  1  0
 11 34  1  0
 12 35  1  0
 13 36  1  0
 15 37  1  0
 20 38  1  0
 21 39  1  0
 23 40  1  0
 23 41  1  0
 24 42  1  0
 24 43  1  0
 24 44  1  0
M  END
>  <meeko>  (2) 
{"is_sidechain": [false], "free_energy": -10.428, "intermolecular_energy": -13.059, "internal_energy": -0.615}

$$$$
cand_053_out
     RDKit          3D

 44 46  0  0  0  0  0  0  0  0999 V2000
   54.3110  151.0480   24.7930 C   0  0  0  0  0  0  0  0  0  0  0  0
   54.1410  152.0600   25.9150 C   0  0  0  0  0  0  0  0  0  0  0  0
   52.6740  152.1980   26.3240 C   0  0  0  0  0  0  0  0  0  0  0  0
   52.4030  153.5230   27.0050 C   0  0  0  0  0  0  0  0  0  0  0  0
   51.9720  153.5020   28.3430 C   0  0  0  0  0  0  0  0  0  0  0  0
   51.7170  154.6870   29.0370 C   0  0  0  0  0  0  0  0  0  0  0  0
   51.8940  155.9280   28.4190 C   0  0  0  0  0  0  0  0  0  0  0  0
   51.5890  157.1700   29.1600 C   0  0  0  0  0  0  0  0  0  0  0  0
   50.2900  157.1990   29.6550 O   0  0  0  0  0  0  0  0  0  0  0  0
   49.8730  158.2960   30.3640 C   0  0  0  0  0  0  0  0  0  0  0  0
   48.5570  158.2880   30.8270 C   0  0  0  0  0  0  0  0  0  0  0  0
   48.0690  159.3750   31.5580 C   0  0  0  0  0  0  0  0  0  0  0  0
   48.8970  160.4670   31.8250 C   0  0  0  0  0  0  0  0  0  0  0  0
   50.2100  160.4710   31.3600 C   0  0  0  0  0  0  0  0  0  0  0  0
   50.9660  161.5720   31.6580 O   0  0  0  0  0  0  0  0  0  0  0  0
   50.6970  159.3850   30.6290 C   0  0  0  0  0  0  0  0  0  0  0  0
   52.0700  159.3490   30.1230 C   0  0  0  0  0  0  0  0  0  0  0  0
   52.8610  160.2690   30.3240 O   0  0  0  0  0  0  0  0  0  0  0  0
   52.4850  158.1550   29.3520 C   0  0  0  0  0  0  0  0  0  0  0  0
   53.7890  158.1270   28.8910 O   0  0  0  0  0  0  0  0  0  0  0  0
   52.3200  155.9500   27.0840 C   0  0  0  0  0  0  0  0  0  0  0  0
   52.5910  154.7650   26.3680 C   0  0  0  0  0  0  0  0  0  0  0  0
   53.0430  154.8950   24.9310 C   0  0  0  0  0  0  0  0  0  0  0  0
   54.3730  155.6240   24.8160 C   0  0  0  0  0  0  0  0  0  0  0  0
   54.4788  150.0493   25.2224 H   0  0  0  0  0  0  0  0  0  0  0  0
   53.4029  151.0325   24.1725 H   0  0  0  0  0  0  0  0  0  0  0  0
   55.1743  151.3301   24.1725 H   0  0  0  0  0  0  0  0  0  0  0  0
   54.7260  151.7302   26.7862 H   0  0  0  0  0  0  0  0  0  0  0  0
   54.4938  153.0380   25.5557 H   0  0  0  0  0  0  0  0  0  0  0  0
   52.0451  152.1246   25.4245 H   0  0  0  0  0  0  0  0  0  0  0  0
   52.4402  151.3930   27.0363 H   0  0  0  0  0  0  0  0  0  0  0  0
   51.8333  152.5366   28.8516 H   0  0  0  0  0  0  0  0  0  0  0  0
   51.3732  154.6430   30.0810 H   0  0  0  0  0  0  0  0  0  0  0  0
   47.9044  157.4277   30.6172 H   0  0  0  0  0  0  0  0  0  0  0  0
   47.0314  159.3700   31.9233 H   0  0  0  0  0  0  0  0  0  0  0  0
   48.5134  161.3220   32.4011 H   0  0  0  0  0  0  0  0  0  0  0  0
   51.8390  161.6450   31.3240 H   0  0  0  0  0  0  0  0  0  0  0  0
   54.0630  157.4510   28.3040 H   0  0  0  0  0  0  0  0  0  0  0  0
   52.4467  156.9194   26.5798 H   0  0  0  0  0  0  0  0  0  0  0  0
   53.1512  153.8886   24.5003 H   0  0  0  0  0  0  0  0  0  0  0  0
   52.2864  155.4807   24.3884 H   0  0  0  0  0  0  0  0  0  0  0  0
   54.7624  155.8374   25.8224 H   0  0  0  0  0  0  0  0  0  0  0  0
   55.0909  154.9933   24.2712 H   0  0  0  0  0  0  0  0  0  0  0  0
   54.2275  156.5685   24.2712 H   0  0  0  0  0  0  0  0  0  0  0  0
  1  2  1  0
  2  3  1  0
  3  4  1  0
  4  5  2  0
  5  6  1  0
  6  7  2  0
  7  8  1  0
  8  9  1  0
  9 10  1  0
 10 11  2  0
 11 12  1  0
 12 13  2  0
 13 14  1  0
 14 15  1  0
 14 16  2  0
 16 17  1  0
 17 18  2  0
 17 19  1  0
 19 20  1  0
  7 21  1  0
 21 22  2  0
 22 23  1  0
 23 24  1  0
 22  4  1  0
 19  8  2  0
 16 10  1  0
  1 25  1  0
  1 26  1  0
  1 27  1  0
  2 28  1  0
  2 29  1  0
  3 30  1  0
  3 31  1  0
  5 32  1  0
  6 33  1  0
 11 34  1  0
 12 35  1  0
 13 36  1  0
 15 37  1  0
 20 38  1  0
 21 39  1  0
 23 40  1  0
 23 41  1  0
 24 42  1  0
 24 43  1  0
 24 44  1  0
M  END
>  <meeko>  (3) 
{"is_sidechain": [false], "free_energy": -10.357, "intermolecular_energy": -13.191, "internal_energy": -0.391}

$$$$
cand_053_out
     RDKit          3D

 44 46  0  0  0  0  0  0  0  0999 V2000
   53.5020  150.5490   25.2500 C   0  0  0  0  0  0  0  0  0  0  0  0
   52.8160  151.6880   25.9870 C   0  0  0  0  0  0  0  0  0  0  0  0
   53.8350  152.6780   26.5550 C   0  0  0  0  0  0  0  0  0  0  0  0
   53.1590  153.8560   27.2240 C   0  0  0  0  0  0  0  0  0  0  0  0
   52.7010  153.6920   28.5430 C   0  0  0  0  0  0  0  0  0  0  0  0
   52.0810  154.7400   29.2270 C   0  0  0  0  0  0  0  0  0  0  0  0
   51.9080  155.9860   28.6170 C   0  0  0  0  0  0  0  0  0  0  0  0
   51.2220  157.0740   29.3460 C   0  0  0  0  0  0  0  0  0  0  0  0
   52.0540  158.1570   29.6090 O   0  0  0  0  0  0  0  0  0  0  0  0
   51.5440  159.2380   30.2820 C   0  0  0  0  0  0  0  0  0  0  0  0
   52.4190  160.2940   30.5380 C   0  0  0  0  0  0  0  0  0  0  0  0
   51.9630  161.4270   31.2170 C   0  0  0  0  0  0  0  0  0  0  0  0
   50.6340  161.5020   31.6390 C   0  0  0  0  0  0  0  0  0  0  0  0
   49.7640  160.4460   31.3820 C   0  0  0  0  0  0  0  0  0  0  0  0
   48.4760  160.5860   31.8230 O   0  0  0  0  0  0  0  0  0  0  0  0
   50.2200  159.3130   30.7030 C   0  0  0  0  0  0  0  0  0  0  0  0
   49.3390  158.1810   30.4130 C   0  0  0  0  0  0  0  0  0  0  0  0
   48.1550  158.1770   30.7450 O   0  0  0  0  0  0  0  0  0  0  0  0
   49.9230  157.0250   29.6950 C   0  0  0  0  0  0  0  0  0  0  0  0
   49.0770  155.9670   29.4140 O   0  0  0  0  0  0  0  0  0  0  0  0
   52.3610  156.1500   27.3010 C   0  0  0  0  0  0  0  0  0  0  0  0
   52.9970  155.1060   26.5970 C   0  0  0  0  0  0  0  0  0  0  0  0
   53.4460  155.3810   25.1790 C   0  0  0  0  0  0  0  0  0  0  0  0
   54.2690  156.6570   25.0800 C   0  0  0  0  0  0  0  0  0  0  0  0
   53.9269  149.8436   25.9793 H   0  0  0  0  0  0  0  0  0  0  0  0
   52.7684  150.0262   24.6187 H   0  0  0  0  0  0  0  0  0  0  0  0
   54.3071  150.9530   24.6187 H   0  0  0  0  0  0  0  0  0  0  0  0
   52.1525  152.2185   25.2882 H   0  0  0  0  0  0  0  0  0  0  0  0
   52.2417  151.2634   26.8236 H   0  0  0  0  0  0  0  0  0  0  0  0
   54.4616  152.1591   27.2953 H   0  0  0  0  0  0  0  0  0  0  0  0
   54.4432  153.0597   25.7217 H   0  0  0  0  0  0  0  0  0  0  0  0
   52.8332  152.7220   29.0447 H   0  0  0  0  0  0  0  0  0  0  0  0
   51.7252  154.5835   30.2560 H   0  0  0  0  0  0  0  0  0  0  0  0
   53.4660  160.2349   30.2059 H   0  0  0  0  0  0  0  0  0  0  0  0
   52.6516  162.2606   31.4193 H   0  0  0  0  0  0  0  0  0  0  0  0
   50.2752  162.3939   32.1736 H   0  0  0  0  0  0  0  0  0  0  0  0
   48.3090  160.8540   32.7050 H   0  0  0  0  0  0  0  0  0  0  0  0
   48.6350  155.5230   30.1110 H   0  0  0  0  0  0  0  0  0  0  0  0
   52.2166  157.1201   26.8030 H   0  0  0  0  0  0  0  0  0  0  0  0
   54.0574  154.5359   24.8297 H   0  0  0  0  0  0  0  0  0  0  0  0
   52.5481  155.5062   24.5561 H   0  0  0  0  0  0  0  0  0  0  0  0
   54.5039  157.0212   26.0910 H   0  0  0  0  0  0  0  0  0  0  0  0
   55.2038  156.4493   24.5387 H   0  0  0  0  0  0  0  0  0  0  0  0
   53.6943  157.4229   24.5387 H   0  0  0  0  0  0  0  0  0  0  0  0
  1  2  1  0
  2  3  1  0
  3  4  1  0
  4  5  2  0
  5  6  1  0
  6  7  2  0
  7  8  1  0
  8  9  1  0
  9 10  1  0
 10 11  2  0
 11 12  1  0
 12 13  2  0
 13 14  1  0
 14 15  1  0
 14 16  2  0
 16 17  1  0
 17 18  2  0
 17 19  1  0
 19 20  1  0
  7 21  1  0
 21 22  2  0
 22 23  1  0
 23 24  1  0
 22  4  1  0
 19  8  2  0
 16 10  1  0
  1 25  1  0
  1 26  1  0
  1 27  1  0
  2 28  1  0
  2 29  1  0
  3 30  1  0
  3 31  1  0
  5 32  1  0
  6 33  1  0
 11 34  1  0
 12 35  1  0
 13 36  1  0
 15 37  1  0
 20 38  1  0
 21 39  1  0
 23 40  1  0
 23 41  1  0
 24 42  1  0
 24 43  1  0
 24 44  1  0
M  END
>  <meeko>  (4) 
{"is_sidechain": [false], "free_energy": -9.106, "intermolecular_energy": -11.344, "internal_energy": -0.621}

$$$$
cand_053_out
     RDKit          3D

 44 46  0  0  0  0  0  0  0  0999 V2000
   54.1490  153.4860   23.9290 C   0  0  0  0  0  0  0  0  0  0  0  0
   53.2650  154.3420   24.8230 C   0  0  0  0  0  0  0  0  0  0  0  0
   53.4080  153.9430   26.2930 C   0  0  0  0  0  0  0  0  0  0  0  0
   52.8520  155.0040   27.2180 C   0  0  0  0  0  0  0  0  0  0  0  0
   52.9980  156.3510   26.8430 C   0  0  0  0  0  0  0  0  0  0  0  0
   52.4980  157.3810   27.6410 C   0  0  0  0  0  0  0  0  0  0  0  0
   51.8280  157.0970   28.8350 C   0  0  0  0  0  0  0  0  0  0  0  0
   51.3330  158.2030   29.6820 C   0  0  0  0  0  0  0  0  0  0  0  0
   49.9960  158.0550   30.0360 O   0  0  0  0  0  0  0  0  0  0  0  0
   49.4070  159.0130   30.8220 C   0  0  0  0  0  0  0  0  0  0  0  0
   48.0610  158.8310   31.1400 C   0  0  0  0  0  0  0  0  0  0  0  0
   47.4010  159.7680   31.9390 C   0  0  0  0  0  0  0  0  0  0  0  0
   48.0880  160.8850   32.4200 C   0  0  0  0  0  0  0  0  0  0  0  0
   49.4320  161.0630   32.1010 C   0  0  0  0  0  0  0  0  0  0  0  0
   50.0440  162.1780   32.6050 O   0  0  0  0  0  0  0  0  0  0  0  0
   50.0910  160.1250   31.3010 C   0  0  0  0  0  0  0  0  0  0  0  0
   51.5020  160.2740   30.9430 C   0  0  0  0  0  0  0  0  0  0  0  0
   52.1760  161.2260   31.3340 O   0  0  0  0  0  0  0  0  0  0  0  0
   52.1050  159.2300   30.0830 C   0  0  0  0  0  0  0  0  0  0  0  0
   53.4430  159.3740   29.7620 O   0  0  0  0  0  0  0  0  0  0  0  0
   51.6840  155.7560   29.2120 C   0  0  0  0  0  0  0  0  0  0  0  0
   52.1750  154.7000   28.4160 C   0  0  0  0  0  0  0  0  0  0  0  0
   51.9730  153.2860   28.9120 C   0  0  0  0  0  0  0  0  0  0  0  0
   51.5640  152.3420   27.7910 C   0  0  0  0  0  0  0  0  0  0  0  0
   54.8000  152.8556   24.5525 H   0  0  0  0  0  0  0  0  0  0  0  0
   53.5184  152.8464   23.2940 H   0  0  0  0  0  0  0  0  0  0  0  0
   54.7679  154.1369   23.2940 H   0  0  0  0  0  0  0  0  0  0  0  0
   53.5544  155.3970   24.7084 H   0  0  0  0  0  0  0  0  0  0  0  0
   52.2177  154.1906   24.5227 H   0  0  0  0  0  0  0  0  0  0  0  0
   52.8634  153.0022   26.4616 H   0  0  0  0  0  0  0  0  0  0  0  0
   54.4791  153.8235   26.5131 H   0  0  0  0  0  0  0  0  0  0  0  0
   53.5154  156.5975   25.9041 H   0  0  0  0  0  0  0  0  0  0  0  0
   52.6323  158.4268   27.3275 H   0  0  0  0  0  0  0  0  0  0  0  0
   47.5200  157.9509   30.7622 H   0  0  0  0  0  0  0  0  0  0  0  0
   46.3394  159.6260   32.1895 H   0  0  0  0  0  0  0  0  0  0  0  0
   47.5686  161.6226   33.0495 H   0  0  0  0  0  0  0  0  0  0  0  0
   49.7070  163.0280   32.4030 H   0  0  0  0  0  0  0  0  0  0  0  0
   54.0080  159.8650   30.3240 H   0  0  0  0  0  0  0  0  0  0  0  0
   51.1729  155.5191   30.1568 H   0  0  0  0  0  0  0  0  0  0  0  0
   52.9143  152.9265   29.3534 H   0  0  0  0  0  0  0  0  0  0  0  0
   51.1639  153.2995   29.6571 H   0  0  0  0  0  0  0  0  0  0  0  0
   51.1617  151.4134   28.2221 H   0  0  0  0  0  0  0  0  0  0  0  0
   50.7932  152.8221   27.1702 H   0  0  0  0  0  0  0  0  0  0  0  0
   52.4414  152.1080   27.1702 H   0  0  0  0  0  0  0  0  0  0  0  0
  1  2  1  0
  2  3  1  0
  3  4  1  0
  4  5  2  0
  5  6  1  0
  6  7  2  0
  7  8  1  0
  8  9  1  0
  9 10  1  0
 10 11  2  0
 11 12  1  0
 12 13  2  0
 13 14  1  0
 14 15  1  0
 14 16  2  0
 16 17  1  0
 17 18  2  0
 17 19  1  0
 19 20  1  0
  7 21  1  0
 21 22  2  0
 22 23  1  0
 23 24  1  0
 22  4  1  0
 19  8  2  0
 16 10  1  0
  1 25  1  0
  1 26  1  0
  1 27  1  0
  2 28  1  0
  2 29  1  0
  3 30  1  0
  3 31  1  0
  5 32  1  0
  6 33  1  0
 11 34  1  0
 12 35  1  0
 13 36  1  0
 15 37  1  0
 20 38  1  0
 21 39  1  0
 23 40  1  0
 23 41  1  0
 24 42  1  0
 24 43  1  0
 24 44  1  0
M  END
>  <meeko>  (5) 
{"is_sidechain": [false], "free_energy": -8.96, "intermolecular_energy": -12.01, "internal_energy": 0.234}

$$$$
cand_053_out
     RDKit          3D

 44 46  0  0  0  0  0  0  0  0999 V2000
   47.3780  159.9620   31.4810 C   0  0  0  0  0  0  0  0  0  0  0  0
   48.0040  158.8940   30.5980 C   0  0  0  0  0  0  0  0  0  0  0  0
   49.2670  158.3130   31.2370 C   0  0  0  0  0  0  0  0  0  0  0  0
   50.1040  157.5520   30.2330 C   0  0  0  0  0  0  0  0  0  0  0  0
   49.6310  156.3060   29.7860 C   0  0  0  0  0  0  0  0  0  0  0  0
   50.3450  155.5550   28.8500 C   0  0  0  0  0  0  0  0  0  0  0  0
   51.5490  156.0300   28.3240 C   0  0  0  0  0  0  0  0  0  0  0  0
   52.3060  155.2070   27.3570 C   0  0  0  0  0  0  0  0  0  0  0  0
   51.9870  153.8550   27.4320 O   0  0  0  0  0  0  0  0  0  0  0  0
   52.6180  152.9760   26.5900 C   0  0  0  0  0  0  0  0  0  0  0  0
   52.2770  151.6280   26.7100 C   0  0  0  0  0  0  0  0  0  0  0  0
   52.8820  150.6800   25.8810 C   0  0  0  0  0  0  0  0  0  0  0  0
   53.8250  151.0810   24.9320 C   0  0  0  0  0  0  0  0  0  0  0  0
   54.1620  152.4270   24.8150 C   0  0  0  0  0  0  0  0  0  0  0  0
   55.0920  152.7490   23.8650 O   0  0  0  0  0  0  0  0  0  0  0  0
   53.5580  153.3740   25.6450 C   0  0  0  0  0  0  0  0  0  0  0  0
   53.8840  154.7980   25.5540 C   0  0  0  0  0  0  0  0  0  0  0  0
   54.6980  155.2280   24.7390 O   0  0  0  0  0  0  0  0  0  0  0  0
   53.1940  155.7200   26.4850 C   0  0  0  0  0  0  0  0  0  0  0  0
   53.5000  157.0650   26.3810 O   0  0  0  0  0  0  0  0  0  0  0  0
   52.0250  157.2700   28.7700 C   0  0  0  0  0  0  0  0  0  0  0  0
   51.3150  158.0480   29.7090 C   0  0  0  0  0  0  0  0  0  0  0  0
   51.9140  159.3700   30.1300 C   0  0  0  0  0  0  0  0  0  0  0  0
   50.9600  160.5300   29.8860 C   0  0  0  0  0  0  0  0  0  0  0  0
   47.5316  159.7000   32.5382 H   0  0  0  0  0  0  0  0  0  0  0  0
   47.8496  160.9335   31.2718 H   0  0  0  0  0  0  0  0  0  0  0  0
   46.2999  160.0251   31.2718 H   0  0  0  0  0  0  0  0  0  0  0  0
   47.2755  158.0843   30.4442 H   0  0  0  0  0  0  0  0  0  0  0  0
   48.2816  159.3559   29.6390 H   0  0  0  0  0  0  0  0  0  0  0  0
   49.8680  159.1362   31.6507 H   0  0  0  0  0  0  0  0  0  0  0  0
   48.9596  157.6126   32.0275 H   0  0  0  0  0  0  0  0  0  0  0  0
   48.6814  155.9156   30.1806 H   0  0  0  0  0  0  0  0  0  0  0  0
   49.9555  154.5794   28.5235 H   0  0  0  0  0  0  0  0  0  0  0  0
   51.5330  151.3124   27.4562 H   0  0  0  0  0  0  0  0  0  0  0  0
   52.6154  149.6170   25.9758 H   0  0  0  0  0  0  0  0  0  0  0  0
   54.3006  150.3350   24.2783 H   0  0  0  0  0  0  0  0  0  0  0  0
   55.4970  153.5940   23.8730 H   0  0  0  0  0  0  0  0  0  0  0  0
   52.8130  157.7010   26.3670 H   0  0  0  0  0  0  0  0  0  0  0  0
   52.9802  157.6481   28.3766 H   0  0  0  0  0  0  0  0  0  0  0  0
   52.1532  159.3262   31.2028 H   0  0  0  0  0  0  0  0  0  0  0  0
   52.8186  159.5409   29.5280 H   0  0  0  0  0  0  0  0  0  0  0  0
   50.6245  160.9380   30.8509 H   0  0  0  0  0  0  0  0  0  0  0  0
   51.4766  161.3158   29.3154 H   0  0  0  0  0  0  0  0  0  0  0  0
   50.0892  160.1748   29.3154 H   0  0  0  0  0  0  0  0  0  0  0  0
  1  2  1  0
  2  3  1  0
  3  4  1  0
  4  5  2  0
  5  6  1  0
  6  7  2  0
  7  8  1  0
  8  9  1  0
  9 10  1  0
 10 11  2  0
 11 12  1  0
 12 13  2  0
 13 14  1  0
 14 15  1  0
 14 16  2  0
 16 17  1  0
 17 18  2  0
 17 19  1  0
 19 20  1  0
  7 21  1  0
 21 22  2  0
 22 23  1  0
 23 24  1  0
 22  4  1  0
 19  8  2  0
 16 10  1  0
  1 25  1  0
  1 26  1  0
  1 27  1  0
  2 28  1  0
  2 29  1  0
  3 30  1  0
  3 31  1  0
  5 32  1  0
  6 33  1  0
 11 34  1  0
 12 35  1  0
 13 36  1  0
 15 37  1  0
 20 38  1  0
 21 39  1  0
 23 40  1  0
 23 41  1  0
 24 42  1  0
 24 43  1  0
 24 44  1  0
M  END
>  <meeko>  (6) 
{"is_sidechain": [false], "free_energy": -8.843, "intermolecular_energy": -11.836, "internal_energy": 0.211}

$$$$
cand_053_out
     RDKit          3D

 44 46  0  0  0  0  0  0  0  0999 V2000
   51.9570  162.1710   31.8160 C   0  0  0  0  0  0  0  0  0  0  0  0
   52.2250  160.8680   31.0800 C   0  0  0  0  0  0  0  0  0  0  0  0
   50.9290  160.2500   30.5520 C   0  0  0  0  0  0  0  0  0  0  0  0
   51.1760  158.9110   29.8900 C   0  0  0  0  0  0  0  0  0  0  0  0
   52.4330  158.6850   29.3030 C   0  0  0  0  0  0  0  0  0  0  0  0
   52.7340  157.4680   28.6880 C   0  0  0  0  0  0  0  0  0  0  0  0
   51.7920  156.4360   28.6480 C   0  0  0  0  0  0  0  0  0  0  0  0
   52.1190  155.1670   27.9650 C   0  0  0  0  0  0  0  0  0  0  0  0
   52.7910  155.3580   26.7630 O   0  0  0  0  0  0  0  0  0  0  0  0
   53.1550  154.2610   26.0240 C   0  0  0  0  0  0  0  0  0  0  0  0
   53.8140  154.5010   24.8170 C   0  0  0  0  0  0  0  0  0  0  0  0
   54.2140  153.4280   24.0170 C   0  0  0  0  0  0  0  0  0  0  0  0
   53.9550  152.1170   24.4240 C   0  0  0  0  0  0  0  0  0  0  0  0
   53.2970  151.8820   25.6280 C   0  0  0  0  0  0  0  0  0  0  0  0
   53.0770  150.5750   25.9660 O   0  0  0  0  0  0  0  0  0  0  0  0
   52.8970  152.9550   26.4280 C   0  0  0  0  0  0  0  0  0  0  0  0
   52.2040  152.7520   27.7010 C   0  0  0  0  0  0  0  0  0  0  0  0
   51.9480  151.6280   28.1300 O   0  0  0  0  0  0  0  0  0  0  0  0
   51.8140  153.9570   28.4690 C   0  0  0  0  0  0  0  0  0  0  0  0
   51.1720  153.7520   29.6770 O   0  0  0  0  0  0  0  0  0  0  0  0
   50.5370  156.6610   29.2300 C   0  0  0  0  0  0  0  0  0  0  0  0
   50.2160  157.8800   29.8640 C   0  0  0  0  0  0  0  0  0  0  0  0
   48.8340  158.0260   30.4580 C   0  0  0  0  0  0  0  0  0  0  0  0
   48.8590  158.7740   31.7820 C   0  0  0  0  0  0  0  0  0  0  0  0
   51.9935  161.9935   32.9010 H   0  0  0  0  0  0  0  0  0  0  0  0
   52.7215  162.9121   31.5398 H   0  0  0  0  0  0  0  0  0  0  0  0
   50.9621  162.5502   31.5398 H   0  0  0  0  0  0  0  0  0  0  0  0
   52.8980  161.0670   30.2329 H   0  0  0  0  0  0  0  0  0  0  0  0
   52.6848  160.1598   31.7850 H   0  0  0  0  0  0  0  0  0  0  0  0
   50.2331  160.1093   31.3922 H   0  0  0  0  0  0  0  0  0  0  0  0
   50.5059  160.9316   29.7994 H   0  0  0  0  0  0  0  0  0  0  0  0
   53.1925  159.4803   29.3285 H   0  0  0  0  0  0  0  0  0  0  0  0
   53.7231  157.3198   28.2301 H   0  0  0  0  0  0  0  0  0  0  0  0
   54.0179  155.5333   24.4964 H   0  0  0  0  0  0  0  0  0  0  0  0
   54.7334  153.6155   23.0657 H   0  0  0  0  0  0  0  0  0  0  0  0
   54.2704  151.2720   23.7943 H   0  0  0  0  0  0  0  0  0  0  0  0
   52.6320  150.0050   25.3690 H   0  0  0  0  0  0  0  0  0  0  0  0
   50.5580  154.3840   29.9930 H   0  0  0  0  0  0  0  0  0  0  0  0
   49.7800  155.8638   29.1914 H   0  0  0  0  0  0  0  0  0  0  0  0
   48.1996  158.5790   29.7496 H   0  0  0  0  0  0  0  0  0  0  0  0
   48.4363  157.0176   30.6449 H   0  0  0  0  0  0  0  0  0  0  0  0
   48.8349  158.0520   32.6115 H   0  0  0  0  0  0  0  0  0  0  0  0
   49.7778  159.3755   31.8460 H   0  0  0  0  0  0  0  0  0  0  0  0
   47.9825  159.4355   31.8460 H   0  0  0  0  0  0  0  0  0  0  0  0
  1  2  1  0
  2  3  1  0
  3  4  1  0
  4  5  2  0
  5  6  1  0
  6  7  2  0
  7  8  1  0
  8  9  1  0
  9 10  1  0
 10 11  2  0
 11 12  1  0
 12 13  2  0
 13 14  1  0
 14 15  1  0
 14 16  2  0
 16 17  1  0
 17 18  2  0
 17 19  1  0
 19 20  1  0
  7 21  1  0
 21 22  2  0
 22 23  1  0
 23 24  1  0
 22  4  1  0
 19  8  2  0
 16 10  1  0
  1 25  1  0
  1 26  1  0
  1 27  1  0
  2 28  1  0
  2 29  1  0
  3 30  1  0
  3 31  1  0
  5 32  1  0
  6 33  1  0
 11 34  1  0
 12 35  1  0
 13 36  1  0
 15 37  1  0
 20 38  1  0
 21 39  1  0
 23 40  1  0
 23 41  1  0
 24 42  1  0
 24 43  1  0
 24 44  1  0
M  END
>  <meeko>  (7) 
{"is_sidechain": [false], "free_energy": -8.427, "intermolecular_energy": -11.432, "internal_energy": 0.343}

$$$$
cand_053_out
     RDKit          3D

 44 46  0  0  0  0  0  0  0  0999 V2000
   54.1650  153.2520   23.5640 C   0  0  0  0  0  0  0  0  0  0  0  0
   53.5110  154.2430   24.5150 C   0  0  0  0  0  0  0  0  0  0  0  0
   53.7580  153.8600   25.9750 C   0  0  0  0  0  0  0  0  0  0  0  0
   53.0480  154.7980   26.9280 C   0  0  0  0  0  0  0  0  0  0  0  0
   53.1840  156.1810   26.7180 C   0  0  0  0  0  0  0  0  0  0  0  0
   52.5450  157.1040   27.5500 C   0  0  0  0  0  0  0  0  0  0  0  0
   51.7440  156.6720   28.6110 C   0  0  0  0  0  0  0  0  0  0  0  0
   51.1020  157.6640   29.4990 C   0  0  0  0  0  0  0  0  0  0  0  0
   51.9200  158.7550   29.7710 O   0  0  0  0  0  0  0  0  0  0  0  0
   51.4480  159.7530   30.5860 C   0  0  0  0  0  0  0  0  0  0  0  0
   52.3090  160.8200   30.8440 C   0  0  0  0  0  0  0  0  0  0  0  0
   51.8890  161.8710   31.6640 C   0  0  0  0  0  0  0  0  0  0  0  0
   50.6100  161.8530   32.2240 C   0  0  0  0  0  0  0  0  0  0  0  0
   49.7540  160.7860   31.9640 C   0  0  0  0  0  0  0  0  0  0  0  0
   48.5150  160.8330   32.5440 O   0  0  0  0  0  0  0  0  0  0  0  0
   50.1740  159.7360   31.1450 C   0  0  0  0  0  0  0  0  0  0  0  0
   49.3060  158.5960   30.8460 C   0  0  0  0  0  0  0  0  0  0  0  0
   48.1640  158.5130   31.2950 O   0  0  0  0  0  0  0  0  0  0  0  0
   49.8500  157.5300   29.9730 C   0  0  0  0  0  0  0  0  0  0  0  0
   49.0150  156.4650   29.6870 O   0  0  0  0  0  0  0  0  0  0  0  0
   51.6100  155.2940   28.8240 C   0  0  0  0  0  0  0  0  0  0  0  0
   52.2400  154.3460   27.9900 C   0  0  0  0  0  0  0  0  0  0  0  0
   52.0370  152.8810   28.3050 C   0  0  0  0  0  0  0  0  0  0  0  0
   51.8150  152.0540   27.0470 C   0  0  0  0  0  0  0  0  0  0  0  0
   54.6797  152.4720   24.1442 H   0  0  0  0  0  0  0  0  0  0  0  0
   53.3945  152.7890   22.9300 H   0  0  0  0  0  0  0  0  0  0  0  0
   54.8937  153.7784   22.9300 H   0  0  0  0  0  0  0  0  0  0  0  0
   53.9286  155.2440   24.3318 H   0  0  0  0  0  0  0  0  0  0  0  0
   52.4262  154.2339   24.3330 H   0  0  0  0  0  0  0  0  0  0  0  0
   53.3906  152.8367   26.1421 H   0  0  0  0  0  0  0  0  0  0  0  0
   54.8386  153.9275   26.1690 H   0  0  0  0  0  0  0  0  0  0  0  0
   53.8040  156.5429   25.8846 H   0  0  0  0  0  0  0  0  0  0  0  0
   52.6736  158.1812   27.3682 H   0  0  0  0  0  0  0  0  0  0  0  0
   53.3166  160.8341   30.4029 H   0  0  0  0  0  0  0  0  0  0  0  0
   52.5666  162.7131   31.8684 H   0  0  0  0  0  0  0  0  0  0  0  0
   50.2793  162.6802   32.8693 H   0  0  0  0  0  0  0  0  0  0  0  0
   48.1380  160.0560   32.9060 H   0  0  0  0  0  0  0  0  0  0  0  0
   48.8990  155.7790   30.3150 H   0  0  0  0  0  0  0  0  0  0  0  0
   50.9960  154.9408   29.6656 H   0  0  0  0  0  0  0  0  0  0  0  0
   52.9288  152.5027   28.8262 H   0  0  0  0  0  0  0  0  0  0  0  0
   51.1399  152.7896   28.9350 H   0  0  0  0  0  0  0  0  0  0  0  0
   51.5392  151.0267   27.3274 H   0  0  0  0  0  0  0  0  0  0  0  0
   51.0052  152.5016   26.4521 H   0  0  0  0  0  0  0  0  0  0  0  0
   52.7401  152.0359   26.4521 H   0  0  0  0  0  0  0  0  0  0  0  0
  1  2  1  0
  2  3  1  0
  3  4  1  0
  4  5  2  0
  5  6  1  0
  6  7  2  0
  7  8  1  0
  8  9  1  0
  9 10  1  0
 10 11  2  0
 11 12  1  0
 12 13  2  0
 13 14  1  0
 14 15  1  0
 14 16  2  0
 16 17  1  0
 17 18  2  0
 17 19  1  0
 19 20  1  0
  7 21  1  0
 21 22  2  0
 22 23  1  0
 23 24  1  0
 22  4  1  0
 19  8  2  0
 16 10  1  0
  1 25  1  0
  1 26  1  0
  1 27  1  0
  2 28  1  0
  2 29  1  0
  3 30  1  0
  3 31  1  0
  5 32  1  0
  6 33  1  0
 11 34  1  0
 12 35  1  0
 13 36  1  0
 15 37  1  0
 20 38  1  0
 21 39  1  0
 23 40  1  0
 23 41  1  0
 24 42  1  0
 24 43  1  0
 24 44  1  0
M  END
>  <meeko>  (8) 
{"is_sidechain": [false], "free_energy": -8.427, "intermolecular_energy": -11.377, "internal_energy": 0.29}

$$$$
