cand_017_out
     RDKit          3D

 38 40  0  0  0  0  0  0  0  0999 V2000
   47.3300  159.5540   30.6650 C   0  0  0  0  0  0  0  0  0  0  0  0
   48.3710  158.8570   31.5310 C   0  0  0  0  0  0  0  0  0  0  0  0
   49.7470  158.8950   30.9030 C   0  0  0  0  0  0  0  0  0  0  0  0
   50.1860  157.7570   30.1950 C   0  0  0  0  0  0  0  0  0  0  0  0
   51.4440  157.7110   29.5780 C   0  0  0  0  0  0  0  0  0  0  0  0
   51.8920  156.5270   28.8150 C   0  0  0  0  0  0  0  0  0  0  0  0
   52.4890  156.8590   27.6040 O   0  0  0  0  0  0  0  0  0  0  0  0
   52.9510  155.8520   26.7950 C   0  0  0  0  0  0  0  0  0  0  0  0
   53.5280  156.2290   25.5820 C   0  0  0  0  0  0  0  0  0  0  0  0
   54.0210  155.2540   24.7110 C   0  0  0  0  0  0  0  0  0  0  0  0
   53.9350  153.9040   25.0540 C   0  0  0  0  0  0  0  0  0  0  0  0
   53.3590  153.5300   26.2650 C   0  0  0  0  0  0  0  0  0  0  0  0
   53.3100  152.1900   26.5380 O   0  0  0  0  0  0  0  0  0  0  0  0
   52.8660  154.5060   27.1360 C   0  0  0  0  0  0  0  0  0  0  0  0
   52.2520  154.1570   28.4170 C   0  0  0  0  0  0  0  0  0  0  0  0
   52.1480  152.9900   28.7940 O   0  0  0  0  0  0  0  0  0  0  0  0
   51.7540  155.2660   29.2640 C   0  0  0  0  0  0  0  0  0  0  0  0
   51.1880  154.9250   30.4780 O   0  0  0  0  0  0  0  0  0  0  0  0
   52.2650  158.8390   29.6620 C   0  0  0  0  0  0  0  0  0  0  0  0
   51.8460  159.9770   30.3560 C   0  0  0  0  0  0  0  0  0  0  0  0
   50.5890  160.0250   30.9810 C   0  0  0  0  0  0  0  0  0  0  0  0
   50.1960  161.2730   31.7380 C   0  0  0  0  0  0  0  0  0  0  0  0
   49.8950  161.0360   33.0450 F   0  0  0  0  0  0  0  0  0  0  0  0
   49.0980  161.9000   31.2240 F   0  0  0  0  0  0  0  0  0  0  0  0
   46.5894  160.0499   31.3096 H   0  0  0  0  0  0  0  0  0  0  0  0
   47.8241  160.3041   30.0299 H   0  0  0  0  0  0  0  0  0  0  0  0
   46.8247  158.8115   30.0299 H   0  0  0  0  0  0  0  0  0  0  0  0
   48.4129  159.3585   32.5091 H   0  0  0  0  0  0  0  0  0  0  0  0
   48.0746  157.8030   31.6371 H   0  0  0  0  0  0  0  0  0  0  0  0
   49.5234  156.8818   30.1250 H   0  0  0  0  0  0  0  0  0  0  0  0
   53.5948  157.2931   25.3115 H   0  0  0  0  0  0  0  0  0  0  0  0
   54.4769  155.5505   23.7549 H   0  0  0  0  0  0  0  0  0  0  0  0
   54.3220  153.1361   24.3681 H   0  0  0  0  0  0  0  0  0  0  0  0
   53.9470  151.6120   26.1680 H   0  0  0  0  0  0  0  0  0  0  0  0
   51.6170  154.3080   31.0380 H   0  0  0  0  0  0  0  0  0  0  0  0
   53.2520  158.8308   29.1764 H   0  0  0  0  0  0  0  0  0  0  0  0
   52.5121  160.8505   30.4139 H   0  0  0  0  0  0  0  0  0  0  0  0
   51.0913  161.9048   31.6418 H   0  0  0  0  0  0  0  0  0  0  0  0
  1  2  1  0
  2  3  1  0
  3  4  2  0
  4  5  1  0
  5  6  1  0
  6  7  1  0
  7  8  1  0
  8  9  2  0
  9 10  1  0
 10 11  2  0
 11 12  1  0
 12 13  1  0
 12 14  2  0
 14 15  1  0
 15 16  2  0
 15 17  1  0
 17 18  1  0
  5 19  2  0
 19 20  1  0
 20 21  2  0
 21 22  1  0
 22 23  1  0
 22 24  1  0
 21  3  1  0
 17  6  2  0
 14  8  1  0
  1 25  1  0
  1 26  1  0
  1 27  1  0
  2 28  1  0
  2 29  1  0
  4 30  1  0
  9 31  1  0
 10 32  1  0
 11 33  1  0
 13 34  1  0
 18 35  1  0
 19 36  1  0
 20 37  1  0
 22 38  1  0
M  END
>  <meeko>  (1) 
{"is_sidechain": [false], "free_energy": -10.787, "intermolecular_energy": -13.31, "internal_energy": -0.115}

$$$$
cand_017_out
     RDKit          3D

 38 40  0  0  0  0  0  0  0  0999 V2000
   54.0440  156.5440   25.1240 C   0  0  0  0  0  0  0  0  0  0  0  0
   53.2260  155.2690   25.2800 C   0  0  0  0  0  0  0  0  0  0  0  0
   52.6410  155.1370   26.6690 C   0  0  0  0  0  0  0  0  0  0  0  0
   52.3240  156.3190   27.3700 C   0  0  0  0  0  0  0  0  0  0  0  0
   51.7730  156.2870   28.6590 C   0  0  0  0  0  0  0  0  0  0  0  0
   51.4180  157.5260   29.3830 C   0  0  0  0  0  0  0  0  0  0  0  0
   50.0980  157.5380   29.8190 O   0  0  0  0  0  0  0  0  0  0  0  0
   49.6370  158.6320   30.5060 C   0  0  0  0  0  0  0  0  0  0  0  0
   48.3020  158.6090   30.9100 C   0  0  0  0  0  0  0  0  0  0  0  0
   47.7690  159.6910   31.6170 C   0  0  0  0  0  0  0  0  0  0  0  0
   48.5710  160.7930   31.9170 C   0  0  0  0  0  0  0  0  0  0  0  0
   49.9030  160.8130   31.5130 C   0  0  0  0  0  0  0  0  0  0  0  0
   50.6320  161.9230   31.8420 O   0  0  0  0  0  0  0  0  0  0  0  0
   50.4360  159.7310   30.8070 C   0  0  0  0  0  0  0  0  0  0  0  0
   51.8300  159.7120   30.3620 C   0  0  0  0  0  0  0  0  0  0  0  0
   52.6010  160.6410   30.5950 O   0  0  0  0  0  0  0  0  0  0  0  0
   52.2940  158.5210   29.6130 C   0  0  0  0  0  0  0  0  0  0  0  0
   53.6170  158.5080   29.2100 O   0  0  0  0  0  0  0  0  0  0  0  0
   51.5190  155.0420   29.2410 C   0  0  0  0  0  0  0  0  0  0  0  0
   51.8230  153.8600   28.5590 C   0  0  0  0  0  0  0  0  0  0  0  0
   52.3820  153.8880   27.2700 C   0  0  0  0  0  0  0  0  0  0  0  0
   52.7110  152.5790   26.5880 C   0  0  0  0  0  0  0  0  0  0  0  0
   52.0210  151.5200   27.0980 F   0  0  0  0  0  0  0  0  0  0  0  0
   54.0270  152.2310   26.6850 F   0  0  0  0  0  0  0  0  0  0  0  0
   54.2983  156.9404   26.1181 H   0  0  0  0  0  0  0  0  0  0  0  0
   54.9682  156.3213   24.5706 H   0  0  0  0  0  0  0  0  0  0  0  0
   53.4563  157.2913   24.5706 H   0  0  0  0  0  0  0  0  0  0  0  0
   52.4045  155.2824   24.5485 H   0  0  0  0  0  0  0  0  0  0  0  0
   53.8957  154.4129   25.1108 H   0  0  0  0  0  0  0  0  0  0  0  0
   52.5140  157.2918   26.8929 H   0  0  0  0  0  0  0  0  0  0  0  0
   47.6696  157.7408   30.6727 H   0  0  0  0  0  0  0  0  0  0  0  0
   46.7167  159.6737   31.9370 H   0  0  0  0  0  0  0  0  0  0  0  0
   48.1511  161.6448   32.4721 H   0  0  0  0  0  0  0  0  0  0  0  0
   51.0070  162.4540   31.1680 H   0  0  0  0  0  0  0  0  0  0  0  0
   53.8680  158.0280   28.4460 H   0  0  0  0  0  0  0  0  0  0  0  0
   51.0752  154.9916   30.2462 H   0  0  0  0  0  0  0  0  0  0  0  0
   51.6211  152.8914   29.0397 H   0  0  0  0  0  0  0  0  0  0  0  0
   52.4304  152.7731   25.5423 H   0  0  0  0  0  0  0  0  0  0  0  0
  1  2  1  0
  2  3  1  0
  3  4  2  0
  4  5  1  0
  5  6  1  0
  6  7  1  0
  7  8  1  0
  8  9  2  0
  9 10  1  0
 10 11  2  0
 11 12  1  0
 12 13  1  0
 12 14  2  0
 14 15  1  0
 15 16  2  0
 15 17  1  0
 17 18  1  0
  5 19  2  0
 19 20  1  0
 20 21  2  0
 21 22  1  0
 22 23  1  0
 22 24  1  0
 21  3  1  0
 17  6  2  0
 14  8  1  0
  1 25  1  0
  1 26  1  0
  1 27  1  0
  2 28  1  0
  2 29  1  0
  4 30  1  0
  9 31  1  0
 10 32  1  0
 11 33  1  0
 13 34  1  0
 18 35  1  0
 19 36  1  0
 20 37  1  0
 22 38  1  0
M  END
>  <meeko>  (2) 
{"is_sidechain": [false], "free_energy": -10.545, "intermolecular_energy": -12.652, "internal_energy": -0.473}

$$$$
cand_017_out
     RDKit          3D

 38 40  0  0  0  0  0  0  0  0999 V2000
   52.7480  161.2130   31.7140 C   0  0  0  0  0  0  0  0  0  0  0  0
   51.9110  161.1550   30.4440 C   0  0  0  0  0  0  0  0  0  0  0  0
   51.1310  159.8630   30.3370 C   0  0  0  0  0  0  0  0  0  0  0  0
   51.7190  158.7890   29.6370 C   0  0  0  0  0  0  0  0  0  0  0  0
   51.0690  157.5550   29.4960 C   0  0  0  0  0  0  0  0  0  0  0  0
   51.6960  156.4220   28.7830 C   0  0  0  0  0  0  0  0  0  0  0  0
   52.2600  156.7940   27.5690 O   0  0  0  0  0  0  0  0  0  0  0  0
   52.8760  155.8370   26.8040 C   0  0  0  0  0  0  0  0  0  0  0  0
   53.4150  156.2510   25.5840 C   0  0  0  0  0  0  0  0  0  0  0  0
   54.0580  155.3260   24.7570 C   0  0  0  0  0  0  0  0  0  0  0  0
   54.1620  153.9910   25.1490 C   0  0  0  0  0  0  0  0  0  0  0  0
   53.6250  153.5810   26.3670 C   0  0  0  0  0  0  0  0  0  0  0  0
   53.7640  152.2580   26.6890 O   0  0  0  0  0  0  0  0  0  0  0  0
   52.9810  154.5050   27.1930 C   0  0  0  0  0  0  0  0  0  0  0  0
   52.4010  154.1170   28.4800 C   0  0  0  0  0  0  0  0  0  0  0  0
   52.4590  152.9610   28.8980 O   0  0  0  0  0  0  0  0  0  0  0  0
   51.7340  155.1710   29.2780 C   0  0  0  0  0  0  0  0  0  0  0  0
   51.2010  154.7950   30.4970 O   0  0  0  0  0  0  0  0  0  0  0  0
   49.8120  157.3960   30.0880 C   0  0  0  0  0  0  0  0  0  0  0  0
   49.2160  158.4480   30.7890 C   0  0  0  0  0  0  0  0  0  0  0  0
   49.8620  159.6880   30.9270 C   0  0  0  0  0  0  0  0  0  0  0  0
   49.1600  160.7980   31.6770 C   0  0  0  0  0  0  0  0  0  0  0  0
   48.3860  160.3470   32.7030 F   0  0  0  0  0  0  0  0  0  0  0  0
   48.3230  161.5400   30.8940 F   0  0  0  0  0  0  0  0  0  0  0  0
   52.0864  161.1672   32.5916 H   0  0  0  0  0  0  0  0  0  0  0  0
   53.4433  160.3609   31.7341 H   0  0  0  0  0  0  0  0  0  0  0  0
   53.3192  162.1529   31.7341 H   0  0  0  0  0  0  0  0  0  0  0  0
   51.2038  161.9975   30.4461 H   0  0  0  0  0  0  0  0  0  0  0  0
   52.5946  161.2111   29.5840 H   0  0  0  0  0  0  0  0  0  0  0  0
   52.7148  158.9233   29.1895 H   0  0  0  0  0  0  0  0  0  0  0  0
   53.3336  157.3034   25.2745 H   0  0  0  0  0  0  0  0  0  0  0  0
   54.4827  155.6509   23.7957 H   0  0  0  0  0  0  0  0  0  0  0  0
   54.6674  153.2633   24.4970 H   0  0  0  0  0  0  0  0  0  0  0  0
   53.4580  151.9430   27.5160 H   0  0  0  0  0  0  0  0  0  0  0  0
   50.2860  154.9090   30.6630 H   0  0  0  0  0  0  0  0  0  0  0  0
   49.2871  156.4332   30.0010 H   0  0  0  0  0  0  0  0  0  0  0  0
   48.2236  158.3026   31.2407 H   0  0  0  0  0  0  0  0  0  0  0  0
   49.9979  161.4075   32.0463 H   0  0  0  0  0  0  0  0  0  0  0  0
  1  2  1  0
  2  3  1  0
  3  4  2  0
  4  5  1  0
  5  6  1  0
  6  7  1  0
  7  8  1  0
  8  9  2  0
  9 10  1  0
 10 11  2  0
 11 12  1  0
 12 13  1  0
 12 14  2  0
 14 15  1  0
 15 16  2  0
 15 17  1  0
 17 18  1  0
  5 19  2  0
 19 20  1  0
 20 21  2  0
 21 22  1  0
 22 23  1  0
 22 24  1  0
 21  3  1  0
 17  6  2  0
 14  8  1  0
  1 25  1  0
  1 26  1  0
  1 27  1  0
  2 28  1  0
  2 29  1  0
  4 30  1  0
  9 31  1  0
 10 32  1  0
 11 33  1  0
 13 34  1  0
 18 35  1  0
 19 36  1  0
 20 37  1  0
 22 38  1  0
M  END
>  <meeko>  (3) 
{"is_sidechain": [false], "free_energy": -10.458, "intermolecular_energy": -12.706, "internal_energy": -0.312}

$$$$
cand_017_out
     RDKit          3D

 38 40  0  0  0  0  0  0  0  0999 V2000
   48.0670  158.8230   29.8820 C   0  0  0  0  0  0  0  0  0  0  0  0
   49.0850  158.1390   30.7840 C   0  0  0  0  0  0  0  0  0  0  0  0
   50.4320  157.9940   30.1100 C   0  0  0  0  0  0  0  0  0  0  0  0
   50.7120  156.7850   29.4410 C   0  0  0  0  0  0  0  0  0  0  0  0
   51.9330  156.5690   28.7860 C   0  0  0  0  0  0  0  0  0  0  0  0
   52.2160  155.3100   28.0640 C   0  0  0  0  0  0  0  0  0  0  0  0
   52.8820  155.5150   26.8620 O   0  0  0  0  0  0  0  0  0  0  0  0
   53.2060  154.4290   26.0910 C   0  0  0  0  0  0  0  0  0  0  0  0
   53.8600  154.6810   24.8840 C   0  0  0  0  0  0  0  0  0  0  0  0
   54.2210  153.6190   24.0510 C   0  0  0  0  0  0  0  0  0  0  0  0
   53.9270  152.3070   24.4250 C   0  0  0  0  0  0  0  0  0  0  0  0
   53.2750  152.0570   25.6290 C   0  0  0  0  0  0  0  0  0  0  0  0
   53.0190  150.7480   25.9340 O   0  0  0  0  0  0  0  0  0  0  0  0
   52.9140  153.1200   26.4620 C   0  0  0  0  0  0  0  0  0  0  0  0
   52.2260  152.9030   27.7350 C   0  0  0  0  0  0  0  0  0  0  0  0
   51.9400  151.7760   28.1370 O   0  0  0  0  0  0  0  0  0  0  0  0
   51.8810  154.0970   28.5400 C   0  0  0  0  0  0  0  0  0  0  0  0
   51.2430  153.8790   29.7480 O   0  0  0  0  0  0  0  0  0  0  0  0
   52.8790  157.5990   28.7900 C   0  0  0  0  0  0  0  0  0  0  0  0
   52.6170  158.8050   29.4440 C   0  0  0  0  0  0  0  0  0  0  0  0
   51.3970  159.0230   30.1080 C   0  0  0  0  0  0  0  0  0  0  0  0
   51.1770  160.3390   30.8180 C   0  0  0  0  0  0  0  0  0  0  0  0
   50.6660  160.1930   32.0730 F   0  0  0  0  0  0  0  0  0  0  0  0
   50.3070  161.1690   30.1710 F   0  0  0  0  0  0  0  0  0  0  0  0
   47.3118  159.3304   30.5002 H   0  0  0  0  0  0  0  0  0  0  0  0
   48.5777  159.5619   29.2470 H   0  0  0  0  0  0  0  0  0  0  0  0
   47.5759  158.0709   29.2470 H   0  0  0  0  0  0  0  0  0  0  0  0
   49.2081  158.7377   31.6986 H   0  0  0  0  0  0  0  0  0  0  0  0
   48.7106  157.1310   31.0158 H   0  0  0  0  0  0  0  0  0  0  0  0
   49.9522  155.9896   29.4326 H   0  0  0  0  0  0  0  0  0  0  0  0
   54.0911  155.7151   24.5887 H   0  0  0  0  0  0  0  0  0  0  0  0
   54.7371  153.8171   23.1000 H   0  0  0  0  0  0  0  0  0  0  0  0
   54.2104  151.4710   23.7687 H   0  0  0  0  0  0  0  0  0  0  0  0
   52.1710  150.4960   26.2410 H   0  0  0  0  0  0  0  0  0  0  0  0
   51.6560  154.1370   30.5480 H   0  0  0  0  0  0  0  0  0  0  0  0
   53.8394  157.4579   28.2727 H   0  0  0  0  0  0  0  0  0  0  0  0
   53.3788  159.5985   29.4395 H   0  0  0  0  0  0  0  0  0  0  0  0
   52.1884  160.7708   30.8446 H   0  0  0  0  0  0  0  0  0  0  0  0
  1  2  1  0
  2  3  1  0
  3  4  2  0
  4  5  1  0
  5  6  1  0
  6  7  1  0
  7  8  1  0
  8  9  2  0
  9 10  1  0
 10 11  2  0
 11 12  1  0
 12 13  1  0
 12 14  2  0
 14 15  1  0
 15 16  2  0
 15 17  1  0
 17 18  1  0
  5 19  2  0
 19 20  1  0
 20 21  2  0
 21 22  1  0
 22 23  1  0
 22 24  1  0
 21  3  1  0
 17  6  2  0
 14  8  1  0
  1 25  1  0
  1 26  1  0
  1 27  1  0
  2 28  1  0
  2 29  1  0
  4 30  1  0
  9 31  1  0
 10 32  1  0
 11 33  1  0
 13 34  1  0
 18 35  1  0
 19 36  1  0
 20 37  1  0
 22 38  1  0
M  END
>  <meeko>  (4) 
{"is_sidechain": [false], "free_energy": -9.986, "intermolecular_energy": -12.256, "internal_energy": -0.18}

$$$$
cand_017_out
     RDKit          3D

 38 40  0  0  0  0  0  0  0  0999 V2000
   54.1450  156.6280   25.1240 C   0  0  0  0  0  0  0  0  0  0  0  0
   53.3860  155.3110   25.2010 C   0  0  0  0  0  0  0  0  0  0  0  0
   52.8610  155.0400   26.5940 C   0  0  0  0  0  0  0  0  0  0  0  0
   52.2910  156.1140   27.3090 C   0  0  0  0  0  0  0  0  0  0  0  0
   51.7760  155.9490   28.6020 C   0  0  0  0  0  0  0  0  0  0  0  0
   51.1560  157.0700   29.3400 C   0  0  0  0  0  0  0  0  0  0  0  0
   52.0370  158.1220   29.5630 O   0  0  0  0  0  0  0  0  0  0  0  0
   51.5900  159.2280   30.2390 C   0  0  0  0  0  0  0  0  0  0  0  0
   52.5110  160.2540   30.4550 C   0  0  0  0  0  0  0  0  0  0  0  0
   52.1200  161.4100   31.1360 C   0  0  0  0  0  0  0  0  0  0  0  0
   50.8100  161.5390   31.6000 C   0  0  0  0  0  0  0  0  0  0  0  0
   49.8930  160.5140   31.3830 C   0  0  0  0  0  0  0  0  0  0  0  0
   48.6260  160.7070   31.8640 O   0  0  0  0  0  0  0  0  0  0  0  0
   50.2840  159.3590   30.7030 C   0  0  0  0  0  0  0  0  0  0  0  0
   49.3530  158.2570   30.4550 C   0  0  0  0  0  0  0  0  0  0  0  0
   48.1800  158.2990   30.8260 O   0  0  0  0  0  0  0  0  0  0  0  0
   49.8680  157.0730   29.7310 C   0  0  0  0  0  0  0  0  0  0  0  0
   48.9760  156.0440   29.4900 O   0  0  0  0  0  0  0  0  0  0  0  0
   51.8190  154.6750   29.1760 C   0  0  0  0  0  0  0  0  0  0  0  0
   52.3760  153.5980   28.4810 C   0  0  0  0  0  0  0  0  0  0  0  0
   52.9000  153.7600   27.1870 C   0  0  0  0  0  0  0  0  0  0  0  0
   53.5110  152.5660   26.4910 C   0  0  0  0  0  0  0  0  0  0  0  0
   54.8580  152.6790   26.3140 F   0  0  0  0  0  0  0  0  0  0  0  0
   53.0020  152.3420   25.2450 F   0  0  0  0  0  0  0  0  0  0  0  0
   54.3540  156.9907   26.1412 H   0  0  0  0  0  0  0  0  0  0  0  0
   55.0929  156.4741   24.5876 H   0  0  0  0  0  0  0  0  0  0  0  0
   53.5366  157.3710   24.5876 H   0  0  0  0  0  0  0  0  0  0  0  0
   52.5370  155.3491   24.5026 H   0  0  0  0  0  0  0  0  0  0  0  0
   54.0824  154.5015   24.9369 H   0  0  0  0  0  0  0  0  0  0  0  0
   52.2496  157.1077   26.8392 H   0  0  0  0  0  0  0  0  0  0  0  0
   53.5436  160.1529   30.0896 H   0  0  0  0  0  0  0  0  0  0  0  0
   52.8454  162.2191   31.3065 H   0  0  0  0  0  0  0  0  0  0  0  0
   50.5025  162.4489   32.1362 H   0  0  0  0  0  0  0  0  0  0  0  0
   47.9930  160.0200   31.8050 H   0  0  0  0  0  0  0  0  0  0  0  0
   48.8400  155.3820   30.1390 H   0  0  0  0  0  0  0  0  0  0  0  0
   51.4102  154.5186   30.1852 H   0  0  0  0  0  0  0  0  0  0  0  0
   52.4048  152.6059   28.9552 H   0  0  0  0  0  0  0  0  0  0  0  0
   53.2648  151.7376   27.1716 H   0  0  0  0  0  0  0  0  0  0  0  0
  1  2  1  0
  2  3  1  0
  3  4  2  0
  4  5  1  0
  5  6  1  0
  6  7  1  0
  7  8  1  0
  8  9  2  0
  9 10  1  0
 10 11  2  0
 11 12  1  0
 12 13  1  0
 12 14  2  0
 14 15  1  0
 15 16  2  0
 15 17  1  0
 17 18  1  0
  5 19  2  0
 19 20  1  0
 20 21  2  0
 21 22  1  0
 22 23  1  0
 22 24  1  0
 21  3  1  0
 17  6  2  0
 14  8  1  0
  1 25  1  0
  1 26  1  0
  1 27  1  0
  2 28  1  0
  2 29  1  0
  4 30  1  0
  9 31  1  0
 10 32  1  0
 11 33  1  0
 13 34  1  0
 18 35  1  0
 19 36  1  0
 20 37  1  0
 22 38  1  0
M  END
>  <meeko>  (5) 
{"is_sidechain": [false], "free_energy": -9.254, "intermolecular_energy": -11.148, "internal_energy": -0.385}

$$$$
cand_017_out
     RDKit          3D

 38 40  0  0  0  0  0  0  0  0999 V2000
   51.4830  152.4060   27.8000 C   0  0  0  0  0  0  0  0  0  0  0  0
   52.2190  153.2990   28.7900 C   0  0  0  0  0  0  0  0  0  0  0  0
   52.3330  154.7230   28.2920 C   0  0  0  0  0  0  0  0  0  0  0  0
   51.8490  155.7560   29.1200 C   0  0  0  0  0  0  0  0  0  0  0  0
   51.9210  157.1030   28.7390 C   0  0  0  0  0  0  0  0  0  0  0  0
   51.4350  158.1870   29.6190 C   0  0  0  0  0  0  0  0  0  0  0  0
   50.1040  158.0280   29.9870 O   0  0  0  0  0  0  0  0  0  0  0  0
   49.5260  158.9660   30.8040 C   0  0  0  0  0  0  0  0  0  0  0  0
   48.1840  158.7770   31.1360 C   0  0  0  0  0  0  0  0  0  0  0  0
   47.5350  159.6940   31.9660 C   0  0  0  0  0  0  0  0  0  0  0  0
   48.2270  160.7990   32.4620 C   0  0  0  0  0  0  0  0  0  0  0  0
   49.5660  160.9870   32.1300 C   0  0  0  0  0  0  0  0  0  0  0  0
   50.1840  162.0900   32.6520 O   0  0  0  0  0  0  0  0  0  0  0  0
   50.2150  160.0690   31.3000 C   0  0  0  0  0  0  0  0  0  0  0  0
   51.6210  160.2280   30.9250 C   0  0  0  0  0  0  0  0  0  0  0  0
   52.3000  161.1710   31.3280 O   0  0  0  0  0  0  0  0  0  0  0  0
   52.2130  159.2040   30.0340 C   0  0  0  0  0  0  0  0  0  0  0  0
   53.5450  159.3580   29.6970 O   0  0  0  0  0  0  0  0  0  0  0  0
   52.5100  157.4140   27.5100 C   0  0  0  0  0  0  0  0  0  0  0  0
   52.9990  156.4040   26.6780 C   0  0  0  0  0  0  0  0  0  0  0  0
   52.9230  155.0520   27.0530 C   0  0  0  0  0  0  0  0  0  0  0  0
   53.4480  153.9990   26.1040 C   0  0  0  0  0  0  0  0  0  0  0  0
   54.5740  154.3870   25.4420 F   0  0  0  0  0  0  0  0  0  0  0  0
   52.5590  153.6530   25.1280 F   0  0  0  0  0  0  0  0  0  0  0  0
   50.8770  151.6707   28.3497 H   0  0  0  0  0  0  0  0  0  0  0  0
   50.8271  153.0224   27.1676 H   0  0  0  0  0  0  0  0  0  0  0  0
   52.2133  151.8799   27.1676 H   0  0  0  0  0  0  0  0  0  0  0  0
   51.6710  153.2990   29.7438 H   0  0  0  0  0  0  0  0  0  0  0  0
   53.2365  152.9004   28.9160 H   0  0  0  0  0  0  0  0  0  0  0  0
   51.4026  155.4980   30.0917 H   0  0  0  0  0  0  0  0  0  0  0  0
   47.6375  157.9064   30.7443 H   0  0  0  0  0  0  0  0  0  0  0  0
   46.4773  159.5447   32.2287 H   0  0  0  0  0  0  0  0  0  0  0  0
   47.7152  161.5213   33.1149 H   0  0  0  0  0  0  0  0  0  0  0  0
   50.5100  162.0730   33.5300 H   0  0  0  0  0  0  0  0  0  0  0  0
   53.9220  158.8260   29.0240 H   0  0  0  0  0  0  0  0  0  0  0  0
   52.5892  158.4649   27.1948 H   0  0  0  0  0  0  0  0  0  0  0  0
   53.4517  156.6719   25.7119 H   0  0  0  0  0  0  0  0  0  0  0  0
   53.6492  153.1494   26.7731 H   0  0  0  0  0  0  0  0  0  0  0  0
  1  2  1  0
  2  3  1  0
  3  4  2  0
  4  5  1  0
  5  6  1  0
  6  7  1  0
  7  8  1  0
  8  9  2  0
  9 10  1  0
 10 11  2  0
 11 12  1  0
 12 13  1  0
 12 14  2  0
 14 15  1  0
 15 16  2  0
 15 17  1  0
 17 18  1  0
  5 19  2  0
 19 20  1  0
 20 21  2  0
 21 22  1  0
 22 23  1  0
 22 24  1  0
 21  3  1  0
 17  6  2  0
 14  8  1  0
  1 25  1  0
  1 26  1  0
  1 27  1  0
  2 28  1  0
  2 29  1  0
  4 30  1  0
  9 31  1  0
 10 32  1  0
 11 33  1  0
 13 34  1  0
 18 35  1  0
 19 36  1  0
 20 37  1  0
 22 38  1  0
M  END
>  <meeko>  (6) 
{"is_sidechain": [false], "free_energy": -8.798, "intermolecular_energy": -11.028, "internal_energy": 0.057}

$$$$
cand_017_out
     RDKit          3D

 38 40  0  0  0  0  0  0  0  0999 V2000
   51.8440  152.0650   26.9560 C   0  0  0  0  0  0  0  0  0  0  0  0
   52.8150  152.8470   27.8300 C   0  0  0  0  0  0  0  0  0  0  0  0
   52.7970  154.3260   27.5140 C   0  0  0  0  0  0  0  0  0  0  0  0
   52.1400  155.1890   28.4150 C   0  0  0  0  0  0  0  0  0  0  0  0
   52.0810  156.5730   28.2020 C   0  0  0  0  0  0  0  0  0  0  0  0
   51.4140  157.4800   29.1600 C   0  0  0  0  0  0  0  0  0  0  0  0
   52.1500  158.6300   29.4180 O   0  0  0  0  0  0  0  0  0  0  0  0
   51.6440  159.5580   30.2920 C   0  0  0  0  0  0  0  0  0  0  0  0
   52.4240  160.6900   30.5350 C   0  0  0  0  0  0  0  0  0  0  0  0
   51.9670  161.6760   31.4130 C   0  0  0  0  0  0  0  0  0  0  0  0
   50.7320  161.5290   32.0470 C   0  0  0  0  0  0  0  0  0  0  0  0
   49.9560  160.3990   31.8030 C   0  0  0  0  0  0  0  0  0  0  0  0
   48.7560  160.3210   32.4570 O   0  0  0  0  0  0  0  0  0  0  0  0
   50.4130  159.4140   30.9250 C   0  0  0  0  0  0  0  0  0  0  0  0
   49.6310  158.2100   30.6410 C   0  0  0  0  0  0  0  0  0  0  0  0
   48.5300  158.0120   31.1540 O   0  0  0  0  0  0  0  0  0  0  0  0
   50.2090  157.2220   29.7010 C   0  0  0  0  0  0  0  0  0  0  0  0
   49.4540  156.0950   29.4300 O   0  0  0  0  0  0  0  0  0  0  0  0
   52.7120  157.0980   27.0700 C   0  0  0  0  0  0  0  0  0  0  0  0
   53.3710  156.2580   26.1680 C   0  0  0  0  0  0  0  0  0  0  0  0
   53.4270  154.8690   26.3750 C   0  0  0  0  0  0  0  0  0  0  0  0
   54.1350  154.0060   25.3550 C   0  0  0  0  0  0  0  0  0  0  0  0
   55.2860  154.5640   24.8850 F   0  0  0  0  0  0  0  0  0  0  0  0
   53.3820  153.7460   24.2460 F   0  0  0  0  0  0  0  0  0  0  0  0
   51.1465  151.5033   27.5947 H   0  0  0  0  0  0  0  0  0  0  0  0
   51.2786  152.7629   26.3209 H   0  0  0  0  0  0  0  0  0  0  0  0
   52.4053  151.3639   26.3209 H   0  0  0  0  0  0  0  0  0  0  0  0
   52.5362  152.7058   28.8847 H   0  0  0  0  0  0  0  0  0  0  0  0
   53.8292  152.4698   27.6325 H   0  0  0  0  0  0  0  0  0  0  0  0
   51.6607  154.7644   29.3094 H   0  0  0  0  0  0  0  0  0  0  0  0
   53.3973  160.8055   30.0357 H   0  0  0  0  0  0  0  0  0  0  0  0
   52.5806  162.5686   31.6048 H   0  0  0  0  0  0  0  0  0  0  0  0
   50.3723  162.3051   32.7386 H   0  0  0  0  0  0  0  0  0  0  0  0
   48.0340  159.8780   32.0580 H   0  0  0  0  0  0  0  0  0  0  0  0
   48.5260  156.1120   29.5540 H   0  0  0  0  0  0  0  0  0  0  0  0
   52.6895  158.1826   26.8876 H   0  0  0  0  0  0  0  0  0  0  0  0
   53.8544  156.6918   25.2802 H   0  0  0  0  0  0  0  0  0  0  0  0
   54.3394  153.0837   25.9185 H   0  0  0  0  0  0  0  0  0  0  0  0
  1  2  1  0
  2  3  1  0
  3  4  2  0
  4  5  1  0
  5  6  1  0
  6  7  1  0
  7  8  1  0
  8  9  2  0
  9 10  1  0
 10 11  2  0
 11 12  1  0
 12 13  1  0
 12 14  2  0
 14 15  1  0
 15 16  2  0
 15 17  1  0
 17 18  1  0
  5 19  2  0
 19 20  1  0
 20 21  2  0
 21 22  1  0
 22 23  1  0
 22 24  1  0
 21  3  1  0
 17  6  2  0
 14  8  1  0
  1 25  1  0
  1 26  1  0
  1 27  1  0
  2 28  1  0
  2 29  1  0
  4 30  1  0
  9 31  1  0
 10 32  1  0
 11 33  1  0
 13 34  1  0
 18 35  1  0
 19 36  1  0
 20 37  1  0
 22 38  1  0
M  END
>  <meeko>  (7) 
{"is_sidechain": [false], "free_energy": -8.424, "intermolecular_energy": -10.243, "internal_energy": -0.266}

$$$$
cand_017_out
     RDKit          3D

 38 40  0  0  0  0  0  0  0  0999 V2000
   50.7670  160.8430   29.9780 C   0  0  0  0  0  0  0  0  0  0  0  0
   51.6960  159.6730   30.2690 C   0  0  0  0  0  0  0  0  0  0  0  0
   51.0780  158.3480   29.8790 C   0  0  0  0  0  0  0  0  0  0  0  0
   51.7950  157.5160   28.9950 C   0  0  0  0  0  0  0  0  0  0  0  0
   51.2990  156.2700   28.5870 C   0  0  0  0  0  0  0  0  0  0  0  0
   52.0630  155.3880   27.6790 C   0  0  0  0  0  0  0  0  0  0  0  0
   51.6820  154.0550   27.7750 O   0  0  0  0  0  0  0  0  0  0  0  0
   52.3130  153.1270   26.9860 C   0  0  0  0  0  0  0  0  0  0  0  0
   51.9110  151.7980   27.1260 C   0  0  0  0  0  0  0  0  0  0  0  0
   52.5110  150.8030   26.3510 C   0  0  0  0  0  0  0  0  0  0  0  0
   53.5130  151.1370   25.4380 C   0  0  0  0  0  0  0  0  0  0  0  0
   53.9120  152.4640   25.3000 C   0  0  0  0  0  0  0  0  0  0  0  0
   54.8980  152.7200   24.3860 O   0  0  0  0  0  0  0  0  0  0  0  0
   53.3120  153.4590   26.0750 C   0  0  0  0  0  0  0  0  0  0  0  0
   53.7020  154.8650   25.9630 C   0  0  0  0  0  0  0  0  0  0  0  0
   54.5710  155.2390   25.1770 O   0  0  0  0  0  0  0  0  0  0  0  0
   53.0090  155.8400   26.8360 C   0  0  0  0  0  0  0  0  0  0  0  0
   53.3770  157.1680   26.7120 O   0  0  0  0  0  0  0  0  0  0  0  0
   50.0660  155.8490   29.0940 C   0  0  0  0  0  0  0  0  0  0  0  0
   49.3430  156.6590   29.9740 C   0  0  0  0  0  0  0  0  0  0  0  0
   49.8340  157.9110   30.3810 C   0  0  0  0  0  0  0  0  0  0  0  0
   48.9990  158.7540   31.3170 C   0  0  0  0  0  0  0  0  0  0  0  0
   48.8580  158.2030   32.5550 F   0  0  0  0  0  0  0  0  0  0  0  0
   47.7270  158.9670   30.8710 F   0  0  0  0  0  0  0  0  0  0  0  0
   50.4199  161.2801   30.9259 H   0  0  0  0  0  0  0  0  0  0  0  0
   51.3082  161.6057   29.3989 H   0  0  0  0  0  0  0  0  0  0  0  0
   49.9015  160.4887   29.3989 H   0  0  0  0  0  0  0  0  0  0  0  0
   52.6286  159.8105   29.7021 H   0  0  0  0  0  0  0  0  0  0  0  0
   51.8880  159.6528   31.3519 H   0  0  0  0  0  0  0  0  0  0  0  0
   52.7704  157.8539   28.6150 H   0  0  0  0  0  0  0  0  0  0  0  0
   51.1223  151.5343   27.8460 H   0  0  0  0  0  0  0  0  0  0  0  0
   52.1938  149.7554   26.4601 H   0  0  0  0  0  0  0  0  0  0  0  0
   53.9866  150.3532   24.8286 H   0  0  0  0  0  0  0  0  0  0  0  0
   55.4060  153.5050   24.4530 H   0  0  0  0  0  0  0  0  0  0  0  0
   53.0050  157.8110   27.2820 H   0  0  0  0  0  0  0  0  0  0  0  0
   49.6608  154.8703   28.7973 H   0  0  0  0  0  0  0  0  0  0  0  0
   48.3719  156.3100   30.3549 H   0  0  0  0  0  0  0  0  0  0  0  0
   49.5640  159.6968   31.3608 H   0  0  0  0  0  0  0  0  0  0  0  0
  1  2  1  0
  2  3  1  0
  3  4  2  0
  4  5  1  0
  5  6  1  0
  6  7  1  0
  7  8  1  0
  8  9  2  0
  9 10  1  0
 10 11  2  0
 11 12  1  0
 12 13  1  0
 12 14  2  0
 14 15  1  0
 15 16  2  0
 15 17  1  0
 17 18  1  0
  5 19  2  0
 19 20  1  0
 20 21  2  0
 21 22  1  0
 22 23  1  0
 22 24  1  0
 21  3  1  0
 17  6  2  0
 14  8  1  0
  1 25  1  0
  1 26  1  0
  1 27  1  0
  2 28  1  0
  2 29  1  0
  4 30  1  0
  9 31  1  0
 10 32  1  0
 11 33  1  0
 13 34  1  0
 18 35  1  0
 19 36  1  0
 20 37  1  0
 22 38  1  0
M  END
>  <meeko>  (8) 
{"is_sidechain": [false], "free_energy": -8.043, "intermolecular_energy": -10.364, "internal_energy": 0.325}

$$$$
cand_017_out
     RDKit          3D

 38 40  0  0  0  0  0  0  0  0999 V2000
   47.9530  158.8790   30.0100 C   0  0  0  0  0  0  0  0  0  0  0  0
   48.8890  157.9110   30.7210 C   0  0  0  0  0  0  0  0  0  0  0  0
   50.2760  157.9180   30.1160 C   0  0  0  0  0  0  0  0  0  0  0  0
   50.6530  156.8260   29.3080 C   0  0  0  0  0  0  0  0  0  0  0  0
   51.9170  156.7550   28.7050 C   0  0  0  0  0  0  0  0  0  0  0  0
   52.3020  155.6210   27.8380 C   0  0  0  0  0  0  0  0  0  0  0  0
   51.8010  154.4050   28.2850 O   0  0  0  0  0  0  0  0  0  0  0  0
   52.0850  153.2690   27.5720 C   0  0  0  0  0  0  0  0  0  0  0  0
   51.5760  152.0670   28.0650 C   0  0  0  0  0  0  0  0  0  0  0  0
   51.8260  150.8720   27.3850 C   0  0  0  0  0  0  0  0  0  0  0  0
   52.5850  150.8800   26.2140 C   0  0  0  0  0  0  0  0  0  0  0  0
   53.0910  152.0810   25.7230 C   0  0  0  0  0  0  0  0  0  0  0  0
   53.8250  152.0160   24.5700 O   0  0  0  0  0  0  0  0  0  0  0  0
   52.8410  153.2750   26.4040 C   0  0  0  0  0  0  0  0  0  0  0  0
   53.3560  154.5590   25.9240 C   0  0  0  0  0  0  0  0  0  0  0  0
   54.0250  154.6490   24.8960 O   0  0  0  0  0  0  0  0  0  0  0  0
   53.0400  155.7650   26.7220 C   0  0  0  0  0  0  0  0  0  0  0  0
   53.5210  156.9740   26.2520 O   0  0  0  0  0  0  0  0  0  0  0  0
   52.8070  157.8140   28.9060 C   0  0  0  0  0  0  0  0  0  0  0  0
   52.4490  158.9060   29.7000 C   0  0  0  0  0  0  0  0  0  0  0  0
   51.1860  158.9780   30.3120 C   0  0  0  0  0  0  0  0  0  0  0  0
   50.8610  160.1730   31.1790 C   0  0  0  0  0  0  0  0  0  0  0  0
   50.2300  161.1720   30.5010 F   0  0  0  0  0  0  0  0  0  0  0  0
   51.9610  160.7560   31.7380 F   0  0  0  0  0  0  0  0  0  0  0  0
   47.3910  159.4602   30.7559 H   0  0  0  0  0  0  0  0  0  0  0  0
   48.5416  159.5624   29.3802 H   0  0  0  0  0  0  0  0  0  0  0  0
   47.2502  158.3137   29.3802 H   0  0  0  0  0  0  0  0  0  0  0  0
   48.9617  158.2000   31.7799 H   0  0  0  0  0  0  0  0  0  0  0  0
   48.4759  156.8972   30.6134 H   0  0  0  0  0  0  0  0  0  0  0  0
   49.9362  156.0075   29.1462 H   0  0  0  0  0  0  0  0  0  0  0  0
   50.9783  152.0600   28.9884 H   0  0  0  0  0  0  0  0  0  0  0  0
   51.4242  149.9244   27.7731 H   0  0  0  0  0  0  0  0  0  0  0  0
   52.7833  149.9392   25.6796 H   0  0  0  0  0  0  0  0  0  0  0  0
   53.4320  151.6990   23.7820 H   0  0  0  0  0  0  0  0  0  0  0  0
   54.4440  157.1200   26.1940 H   0  0  0  0  0  0  0  0  0  0  0  0
   53.8001  157.7871   28.4337 H   0  0  0  0  0  0  0  0  0  0  0  0
   53.1687  159.7244   29.8489 H   0  0  0  0  0  0  0  0  0  0  0  0
   50.2090  159.7405   31.9522 H   0  0  0  0  0  0  0  0  0  0  0  0
  1  2  1  0
  2  3  1  0
  3  4  2  0
  4  5  1  0
  5  6  1  0
  6  7  1  0
  7  8  1  0
  8  9  2  0
  9 10  1  0
 10 11  2  0
 11 12  1  0
 12 13  1  0
 12 14  2  0
 14 15  1  0
 15 16  2  0
 15 17  1  0
 17 18  1  0
  5 19  2  0
 19 20  1  0
 20 21  2  0
 21 22  1  0
 22 23  1  0
 22 24  1  0
 21  3  1  0
 17  6  2  0
 14  8  1  0
  1 25  1  0
  1 26  1  0
  1 27  1  0
  2 28  1  0
  2 29  1  0
  4 30  1  0
  9 31  1  0
 10 32  1  0
 11 33  1  0
 13 34  1  0
 18 35  1  0
 19 36  1  0
 20 37  1  0
 22 38  1  0
M  END
>  <meeko>  (9) 
{"is_sidechain": [false], "free_energy": -7.93, "intermolecular_energy": -9.791, "internal_energy": -0.108}

$$$$
