cand_035_out
     RDKit          3D

 36 38  0  0  0  0  0  0  0  0999 V2000
   47.3550  159.5830   30.9410 C   0  0  0  0  0  0  0  0  0  0  0  0
   48.3570  158.8300   31.4100 C   0  0  0  0  0  0  0  0  0  0  0  0
   49.7070  158.8970   30.8420 C   0  0  0  0  0  0  0  0  0  0  0  0
   50.1660  157.7880   30.1110 C   0  0  0  0  0  0  0  0  0  0  0  0
   51.4460  157.7730   29.5360 C   0  0  0  0  0  0  0  0  0  0  0  0
   51.9060  156.5790   28.7970 C   0  0  0  0  0  0  0  0  0  0  0  0
   52.5040  156.8930   27.5820 O   0  0  0  0  0  0  0  0  0  0  0  0
   52.9780  155.8760   26.7930 C   0  0  0  0  0  0  0  0  0  0  0  0
   53.5580  156.2360   25.5760 C   0  0  0  0  0  0  0  0  0  0  0  0
   54.0620  155.2480   24.7260 C   0  0  0  0  0  0  0  0  0  0  0  0
   53.9850  153.9030   25.0930 C   0  0  0  0  0  0  0  0  0  0  0  0
   53.4050  153.5470   26.3080 C   0  0  0  0  0  0  0  0  0  0  0  0
   53.3650  152.2120   26.6050 O   0  0  0  0  0  0  0  0  0  0  0  0
   52.9010  154.5350   27.1580 C   0  0  0  0  0  0  0  0  0  0  0  0
   52.2850  154.2040   28.4430 C   0  0  0  0  0  0  0  0  0  0  0  0
   52.1880  153.0450   28.8400 O   0  0  0  0  0  0  0  0  0  0  0  0
   51.7750  155.3250   29.2670 C   0  0  0  0  0  0  0  0  0  0  0  0
   51.2080  155.0040   30.4860 O   0  0  0  0  0  0  0  0  0  0  0  0
   52.2700  158.8880   29.7190 C   0  0  0  0  0  0  0  0  0  0  0  0
   51.8230  159.9960   30.4440 C   0  0  0  0  0  0  0  0  0  0  0  0
   50.5400  160.0160   31.0110 C   0  0  0  0  0  0  0  0  0  0  0  0
   50.0890  161.2270   31.7890 C   0  0  0  0  0  0  0  0  0  0  0  0
   50.1000  161.0390   33.1410 F   0  0  0  0  0  0  0  0  0  0  0  0
   46.3538  159.5080   31.3903 H   0  0  0  0  0  0  0  0  0  0  0  0
   47.5326  160.2769   30.1062 H   0  0  0  0  0  0  0  0  0  0  0  0
   48.1622  158.1413   32.2453 H   0  0  0  0  0  0  0  0  0  0  0  0
   49.5090  156.9145   29.9871 H   0  0  0  0  0  0  0  0  0  0  0  0
   53.6184  157.2954   25.2863 H   0  0  0  0  0  0  0  0  0  0  0  0
   54.5200  155.5302   23.7665 H   0  0  0  0  0  0  0  0  0  0  0  0
   54.3819  153.1258   24.4234 H   0  0  0  0  0  0  0  0  0  0  0  0
   52.9960  151.6060   25.9920 H   0  0  0  0  0  0  0  0  0  0  0  0
   50.3560  154.6150   30.5180 H   0  0  0  0  0  0  0  0  0  0  0  0
   53.2817  158.8930   29.2873 H   0  0  0  0  0  0  0  0  0  0  0  0
   52.4862  160.8642   30.5718 H   0  0  0  0  0  0  0  0  0  0  0  0
   50.7593  162.0653   31.5483 H   0  0  0  0  0  0  0  0  0  0  0  0
   49.0477  161.4298   31.4983 H   0  0  0  0  0  0  0  0  0  0  0  0
  1  2  2  0
  2  3  1  0
  3  4  2  0
  4  5  1  0
  5  6  1  0
  6  7  1  0
  7  8  1  0
  8  9  2  0
  9 10  1  0
 10 11  2  0
 11 12  1  0
 12 13  1  0
 12 14  2  0
 14 15  1  0
 15 16  2  0
 15 17  1  0
 17 18  1  0
  5 19  2  0
 19 20  1  0
 20 21  2  0
 21 22  1  0
 22 23  1  0
 21  3  1  0
 17  6  2  0
 14  8  1  0
  1 24  1  0
  1 25  1  0
  2 26  1  0
  4 27  1  0
  9 28  1  0
 10 29  1  0
 11 30  1  0
 13 31  1  0
 18 32  1  0
 19 33  1  0
 20 34  1  0
 22 35  1  0
 22 36  1  0
M  END
>  <meeko>  (1) 
{"is_sidechain": [false], "free_energy": -11.184, "intermolecular_energy": -13.799, "internal_energy": -0.065}

$$$$
cand_035_out
     RDKit          3D

 36 38  0  0  0  0  0  0  0  0999 V2000
   54.0440  156.3250   25.1490 C   0  0  0  0  0  0  0  0  0  0  0  0
   53.2210  155.3140   25.4520 C   0  0  0  0  0  0  0  0  0  0  0  0
   52.6430  155.1610   26.7910 C   0  0  0  0  0  0  0  0  0  0  0  0
   52.2470  156.3250   27.4710 C   0  0  0  0  0  0  0  0  0  0  0  0
   51.6860  156.2640   28.7560 C   0  0  0  0  0  0  0  0  0  0  0  0
   51.3060  157.5110   29.4520 C   0  0  0  0  0  0  0  0  0  0  0  0
   49.9820  157.5100   29.8760 O   0  0  0  0  0  0  0  0  0  0  0  0
   49.4970  158.6090   30.5380 C   0  0  0  0  0  0  0  0  0  0  0  0
   48.1590  158.5710   30.9340 C   0  0  0  0  0  0  0  0  0  0  0  0
   47.6030  159.6570   31.6140 C   0  0  0  0  0  0  0  0  0  0  0  0
   48.3850  160.7790   31.8980 C   0  0  0  0  0  0  0  0  0  0  0  0
   49.7190  160.8140   31.5020 C   0  0  0  0  0  0  0  0  0  0  0  0
   50.4260  161.9430   31.8150 O   0  0  0  0  0  0  0  0  0  0  0  0
   50.2750  159.7270   30.8220 C   0  0  0  0  0  0  0  0  0  0  0  0
   51.6740  159.7240   30.3890 C   0  0  0  0  0  0  0  0  0  0  0  0
   52.4260  160.6690   30.6090 O   0  0  0  0  0  0  0  0  0  0  0  0
   52.1630  158.5260   29.6680 C   0  0  0  0  0  0  0  0  0  0  0  0
   53.4890  158.5250   29.2760 O   0  0  0  0  0  0  0  0  0  0  0  0
   51.5430  155.0100   29.3590 C   0  0  0  0  0  0  0  0  0  0  0  0
   51.9330  153.8460   28.6910 C   0  0  0  0  0  0  0  0  0  0  0  0
   52.4850  153.9060   27.4020 C   0  0  0  0  0  0  0  0  0  0  0  0
   52.8970  152.6320   26.7100 C   0  0  0  0  0  0  0  0  0  0  0  0
   54.2510  152.4620   26.6450 F   0  0  0  0  0  0  0  0  0  0  0  0
   54.4602  156.4102   24.1343 H   0  0  0  0  0  0  0  0  0  0  0  0
   54.3042  157.0707   25.9146 H   0  0  0  0  0  0  0  0  0  0  0  0
   52.9711  154.5770   24.6746 H   0  0  0  0  0  0  0  0  0  0  0  0
   52.3793  157.3037   26.9865 H   0  0  0  0  0  0  0  0  0  0  0  0
   47.5434  157.6871   30.7109 H   0  0  0  0  0  0  0  0  0  0  0  0
   46.5486  159.6287   31.9261 H   0  0  0  0  0  0  0  0  0  0  0  0
   47.9471  161.6340   32.4340 H   0  0  0  0  0  0  0  0  0  0  0  0
   50.0260  162.7860   31.7310 H   0  0  0  0  0  0  0  0  0  0  0  0
   53.7200  158.7820   28.4050 H   0  0  0  0  0  0  0  0  0  0  0  0
   51.1184  154.9391   30.3713 H   0  0  0  0  0  0  0  0  0  0  0  0
   51.8056  152.8699   29.1820 H   0  0  0  0  0  0  0  0  0  0  0  0
   52.4650  151.7821   27.2587 H   0  0  0  0  0  0  0  0  0  0  0  0
   52.5276  152.6909   25.6755 H   0  0  0  0  0  0  0  0  0  0  0  0
  1  2  2  0
  2  3  1  0
  3  4  2  0
  4  5  1  0
  5  6  1  0
  6  7  1  0
  7  8  1  0
  8  9  2  0
  9 10  1  0
 10 11  2  0
 11 12  1  0
 12 13  1  0
 12 14  2  0
 14 15  1  0
 15 16  2  0
 15 17  1  0
 17 18  1  0
  5 19  2  0
 19 20  1  0
 20 21  2  0
 21 22  1  0
 22 23  1  0
 21  3  1  0
 17  6  2  0
 14  8  1  0
  1 24  1  0
  1 25  1  0
  2 26  1  0
  4 27  1  0
  9 28  1  0
 10 29  1  0
 11 30  1  0
 13 31  1  0
 18 32  1  0
 19 33  1  0
 20 34  1  0
 22 35  1  0
 22 36  1  0
M  END
>  <meeko>  (2) 
{"is_sidechain": [false], "free_energy": -10.714, "intermolecular_energy": -12.919, "internal_energy": -0.365}

$$$$
cand_035_out
     RDKit          3D

 36 38  0  0  0  0  0  0  0  0999 V2000
   51.5160  161.4700   31.8580 C   0  0  0  0  0  0  0  0  0  0  0  0
   51.5330  160.8630   30.6660 C   0  0  0  0  0  0  0  0  0  0  0  0
   50.8180  159.6050   30.4280 C   0  0  0  0  0  0  0  0  0  0  0  0
   51.5050  158.5740   29.7650 C   0  0  0  0  0  0  0  0  0  0  0  0
   50.8910  157.3410   29.4990 C   0  0  0  0  0  0  0  0  0  0  0  0
   51.6360  156.2900   28.7760 C   0  0  0  0  0  0  0  0  0  0  0  0
   52.1760  156.7390   27.5760 O   0  0  0  0  0  0  0  0  0  0  0  0
   52.8930  155.8630   26.8020 C   0  0  0  0  0  0  0  0  0  0  0  0
   53.4050  156.3520   25.5990 C   0  0  0  0  0  0  0  0  0  0  0  0
   54.1470  155.5120   24.7650 C   0  0  0  0  0  0  0  0  0  0  0  0
   54.3760  154.1850   25.1340 C   0  0  0  0  0  0  0  0  0  0  0  0
   53.8640  153.7000   26.3350 C   0  0  0  0  0  0  0  0  0  0  0  0
   54.1280  152.3910   26.6340 O   0  0  0  0  0  0  0  0  0  0  0  0
   53.1220  154.5400   27.1690 C   0  0  0  0  0  0  0  0  0  0  0  0
   52.5670  154.0690   28.4380 C   0  0  0  0  0  0  0  0  0  0  0  0
   52.7320  152.9190   28.8350 O   0  0  0  0  0  0  0  0  0  0  0  0
   51.7890  155.0380   29.2450 C   0  0  0  0  0  0  0  0  0  0  0  0
   51.2800  154.5890   30.4500 O   0  0  0  0  0  0  0  0  0  0  0  0
   49.5620  157.1610   29.8970 C   0  0  0  0  0  0  0  0  0  0  0  0
   48.8690  158.1800   30.5570 C   0  0  0  0  0  0  0  0  0  0  0  0
   49.4850  159.4100   30.8320 C   0  0  0  0  0  0  0  0  0  0  0  0
   48.7100  160.4880   31.5450 C   0  0  0  0  0  0  0  0  0  0  0  0
   48.2380  161.4600   30.7090 F   0  0  0  0  0  0  0  0  0  0  0  0
   52.0633  162.4131   32.0028 H   0  0  0  0  0  0  0  0  0  0  0  0
   50.9547  161.0260   32.6933 H   0  0  0  0  0  0  0  0  0  0  0  0
   52.0992  161.3204   29.8412 H   0  0  0  0  0  0  0  0  0  0  0  0
   52.5456  158.7371   29.4480 H   0  0  0  0  0  0  0  0  0  0  0  0
   53.2245  157.3974   25.3081 H   0  0  0  0  0  0  0  0  0  0  0  0
   54.5511  155.8963   23.8169 H   0  0  0  0  0  0  0  0  0  0  0  0
   54.9599  153.5236   24.4771 H   0  0  0  0  0  0  0  0  0  0  0  0
   54.4850  152.1640   27.4700 H   0  0  0  0  0  0  0  0  0  0  0  0
   50.5870  153.9590   30.4610 H   0  0  0  0  0  0  0  0  0  0  0  0
   49.0565  156.2066   29.6882 H   0  0  0  0  0  0  0  0  0  0  0  0
   47.8260  158.0150   30.8650 H   0  0  0  0  0  0  0  0  0  0  0  0
   47.8546  160.0223   32.0563 H   0  0  0  0  0  0  0  0  0  0  0  0
   49.4016  160.9733   32.2495 H   0  0  0  0  0  0  0  0  0  0  0  0
  1  2  2  0
  2  3  1  0
  3  4  2  0
  4  5  1  0
  5  6  1  0
  6  7  1  0
  7  8  1  0
  8  9  2  0
  9 10  1  0
 10 11  2  0
 11 12  1  0
 12 13  1  0
 12 14  2  0
 14 15  1  0
 15 16  2  0
 15 17  1  0
 17 18  1  0
  5 19  2  0
 19 20  1  0
 20 21  2  0
 21 22  1  0
 22 23  1  0
 21  3  1  0
 17  6  2  0
 14  8  1  0
  1 24  1  0
  1 25  1  0
  2 26  1  0
  4 27  1  0
  9 28  1  0
 10 29  1  0
 11 30  1  0
 13 31  1  0
 18 32  1  0
 19 33  1  0
 20 34  1  0
 22 35  1  0
 22 36  1  0
M  END
>  <meeko>  (3) 
{"is_sidechain": [false], "free_energy": -10.386, "intermolecular_energy": -13.006, "internal_energy": 0.126}

$$$$
cand_035_out
     RDKit          3D

 36 38  0  0  0  0  0  0  0  0999 V2000
   51.6220  152.4990   28.1190 C   0  0  0  0  0  0  0  0  0  0  0  0
   51.9680  153.4870   28.9530 C   0  0  0  0  0  0  0  0  0  0  0  0
   52.1850  154.8580   28.4810 C   0  0  0  0  0  0  0  0  0  0  0  0
   51.7040  155.9100   29.2780 C   0  0  0  0  0  0  0  0  0  0  0  0
   51.8710  157.2500   28.8970 C   0  0  0  0  0  0  0  0  0  0  0  0
   51.3280  158.3300   29.7470 C   0  0  0  0  0  0  0  0  0  0  0  0
   49.9950  158.1310   30.0880 O   0  0  0  0  0  0  0  0  0  0  0  0
   49.3660  159.0600   30.8760 C   0  0  0  0  0  0  0  0  0  0  0  0
   48.0240  158.8280   31.1820 C   0  0  0  0  0  0  0  0  0  0  0  0
   47.3250  159.7350   31.9810 C   0  0  0  0  0  0  0  0  0  0  0  0
   47.9680  160.8730   32.4750 C   0  0  0  0  0  0  0  0  0  0  0  0
   49.3060  161.1020   32.1680 C   0  0  0  0  0  0  0  0  0  0  0  0
   49.8730  162.2350   32.6860 O   0  0  0  0  0  0  0  0  0  0  0  0
   50.0060  160.1940   31.3670 C   0  0  0  0  0  0  0  0  0  0  0  0
   51.4130  160.3980   31.0220 C   0  0  0  0  0  0  0  0  0  0  0  0
   52.0490  161.3690   31.4240 O   0  0  0  0  0  0  0  0  0  0  0  0
   52.0600  159.3810   30.1610 C   0  0  0  0  0  0  0  0  0  0  0  0
   53.3930  159.5730   29.8520 O   0  0  0  0  0  0  0  0  0  0  0  0
   52.5170  157.5210   27.6860 C   0  0  0  0  0  0  0  0  0  0  0  0
   52.9990  156.4810   26.8850 C   0  0  0  0  0  0  0  0  0  0  0  0
   52.8420  155.1420   27.2710 C   0  0  0  0  0  0  0  0  0  0  0  0
   53.3720  154.0440   26.3830 C   0  0  0  0  0  0  0  0  0  0  0  0
   52.6520  153.8790   25.2350 F   0  0  0  0  0  0  0  0  0  0  0  0
   51.4669  151.4812   28.5064 H   0  0  0  0  0  0  0  0  0  0  0  0
   51.4928  152.7048   27.0462 H   0  0  0  0  0  0  0  0  0  0  0  0
   52.0931  153.2640   30.0229 H   0  0  0  0  0  0  0  0  0  0  0  0
   51.1857  155.6785   30.2202 H   0  0  0  0  0  0  0  0  0  0  0  0
   47.5177  157.9317   30.7942 H   0  0  0  0  0  0  0  0  0  0  0  0
   46.2671  159.5535   32.2218 H   0  0  0  0  0  0  0  0  0  0  0  0
   47.4175  161.5867   33.1055 H   0  0  0  0  0  0  0  0  0  0  0  0
   50.3800  162.1880   33.4730 H   0  0  0  0  0  0  0  0  0  0  0  0
   53.9720  158.8380   29.7940 H   0  0  0  0  0  0  0  0  0  0  0  0
   52.6472  158.5636   27.3603 H   0  0  0  0  0  0  0  0  0  0  0  0
   53.5084  156.7165   25.9389 H   0  0  0  0  0  0  0  0  0  0  0  0
   54.4102  154.2859   26.1115 H   0  0  0  0  0  0  0  0  0  0  0  0
   53.2982  153.1043   26.9500 H   0  0  0  0  0  0  0  0  0  0  0  0
  1  2  2  0
  2  3  1  0
  3  4  2  0
  4  5  1  0
  5  6  1  0
  6  7  1  0
  7  8  1  0
  8  9  2  0
  9 10  1  0
 10 11  2  0
 11 12  1  0
 12 13  1  0
 12 14  2  0
 14 15  1  0
 15 16  2  0
 15 17  1  0
 17 18  1  0
  5 19  2  0
 19 20  1  0
 20 21  2  0
 21 22  1  0
 22 23  1  0
 21  3  1  0
 17  6  2  0
 14  8  1  0
  1 24  1  0
  1 25  1  0
  2 26  1  0
  4 27  1  0
  9 28  1  0
 10 29  1  0
 11 30  1  0
 13 31  1  0
 18 32  1  0
 19 33  1  0
 20 34  1  0
 22 35  1  0
 22 36  1  0
M  END
>  <meeko>  (4) 
{"is_sidechain": [false], "free_energy": -9.353, "intermolecular_energy": -11.891, "internal_energy": 0.286}

$$$$
cand_035_out
     RDKit          3D

 36 38  0  0  0  0  0  0  0  0999 V2000
   54.1390  156.6560   25.1910 C   0  0  0  0  0  0  0  0  0  0  0  0
   53.6360  155.4390   25.4230 C   0  0  0  0  0  0  0  0  0  0  0  0
   52.9910  155.0970   26.6950 C   0  0  0  0  0  0  0  0  0  0  0  0
   52.3290  156.1220   27.3910 C   0  0  0  0  0  0  0  0  0  0  0  0
   51.6880  155.8770   28.6150 C   0  0  0  0  0  0  0  0  0  0  0  0
   51.0240  156.9850   29.3320 C   0  0  0  0  0  0  0  0  0  0  0  0
   51.8810  158.0500   29.5910 O   0  0  0  0  0  0  0  0  0  0  0  0
   51.3930  159.1470   30.2530 C   0  0  0  0  0  0  0  0  0  0  0  0
   52.2890  160.1870   30.5040 C   0  0  0  0  0  0  0  0  0  0  0  0
   51.8560  161.3340   31.1730 C   0  0  0  0  0  0  0  0  0  0  0  0
   50.5280  161.4420   31.5900 C   0  0  0  0  0  0  0  0  0  0  0  0
   49.6350  160.4030   31.3380 C   0  0  0  0  0  0  0  0  0  0  0  0
   48.3490  160.5750   31.7720 O   0  0  0  0  0  0  0  0  0  0  0  0
   50.0690  159.2550   30.6690 C   0  0  0  0  0  0  0  0  0  0  0  0
   49.1630  158.1410   30.3850 C   0  0  0  0  0  0  0  0  0  0  0  0
   47.9790  158.1640   30.7120 O   0  0  0  0  0  0  0  0  0  0  0  0
   49.7240  156.9670   29.6770 C   0  0  0  0  0  0  0  0  0  0  0  0
   48.8580  155.9260   29.3990 O   0  0  0  0  0  0  0  0  0  0  0  0
   51.7350  154.5820   29.1420 C   0  0  0  0  0  0  0  0  0  0  0  0
   52.3910  153.5550   28.4580 C   0  0  0  0  0  0  0  0  0  0  0  0
   53.0240  153.7970   27.2290 C   0  0  0  0  0  0  0  0  0  0  0  0
   53.7240  152.6670   26.5170 C   0  0  0  0  0  0  0  0  0  0  0  0
   53.0030  152.1500   25.4790 F   0  0  0  0  0  0  0  0  0  0  0  0
   54.6164  156.8789   24.2254 H   0  0  0  0  0  0  0  0  0  0  0  0
   54.0754  157.4343   25.9658 H   0  0  0  0  0  0  0  0  0  0  0  0
   53.7080  154.6724   24.6374 H   0  0  0  0  0  0  0  0  0  0  0  0
   52.3128  157.1373   26.9679 H   0  0  0  0  0  0  0  0  0  0  0  0
   53.3354  160.1035   30.1752 H   0  0  0  0  0  0  0  0  0  0  0  0
   52.5624  162.1535   31.3716 H   0  0  0  0  0  0  0  0  0  0  0  0
   50.1875  162.3458   32.1165 H   0  0  0  0  0  0  0  0  0  0  0  0
   47.8100  161.2390   31.3900 H   0  0  0  0  0  0  0  0  0  0  0  0
   47.9360  156.0340   29.5340 H   0  0  0  0  0  0  0  0  0  0  0  0
   51.2499  154.3696   30.1061 H   0  0  0  0  0  0  0  0  0  0  0  0
   52.4115  152.5431   28.8888 H   0  0  0  0  0  0  0  0  0  0  0  0
   54.6807  153.0419   26.1243 H   0  0  0  0  0  0  0  0  0  0  0  0
   53.8632  151.8585   27.2498 H   0  0  0  0  0  0  0  0  0  0  0  0
  1  2  2  0
  2  3  1  0
  3  4  2  0
  4  5  1  0
  5  6  1  0
  6  7  1  0
  7  8  1  0
  8  9  2  0
  9 10  1  0
 10 11  2  0
 11 12  1  0
 12 13  1  0
 12 14  2  0
 14 15  1  0
 15 16  2  0
 15 17  1  0
 17 18  1  0
  5 19  2  0
 19 20  1  0
 20 21  2  0
 21 22  1  0
 22 23  1  0
 21  3  1  0
 17  6  2  0
 14  8  1  0
  1 24  1  0
  1 25  1  0
  2 26  1  0
  4 27  1  0
  9 28  1  0
 10 29  1  0
 11 30  1  0
 13 31  1  0
 18 32  1  0
 19 33  1  0
 20 34  1  0
 22 35  1  0
 22 36  1  0
M  END
>  <meeko>  (5) 
{"is_sidechain": [false], "free_energy": -8.99, "intermolecular_energy": -10.723, "internal_energy": -0.434}

$$$$
