cand_042_out
     RDKit          3D

 38 40  0  0  0  0  0  0  0  0999 V2000
   49.9400  161.0750   33.1240 C   0  0  0  0  0  0  0  0  0  0  0  0
   49.8560  161.2130   31.6110 C   0  0  0  0  0  0  0  0  0  0  0  0
   50.3480  159.9720   30.9000 C   0  0  0  0  0  0  0  0  0  0  0  0
   51.6680  159.9560   30.4230 C   0  0  0  0  0  0  0  0  0  0  0  0
   52.1770  158.8430   29.7490 C   0  0  0  0  0  0  0  0  0  0  0  0
   51.3840  157.7120   29.5390 C   0  0  0  0  0  0  0  0  0  0  0  0
   51.8880  156.5300   28.8090 C   0  0  0  0  0  0  0  0  0  0  0  0
   52.4500  156.8530   27.5790 O   0  0  0  0  0  0  0  0  0  0  0  0
   52.9580  155.8490   26.7970 C   0  0  0  0  0  0  0  0  0  0  0  0
   53.5250  156.2200   25.5770 C   0  0  0  0  0  0  0  0  0  0  0  0
   54.0600  155.2460   24.7320 C   0  0  0  0  0  0  0  0  0  0  0  0
   54.0270  153.9000   25.1050 C   0  0  0  0  0  0  0  0  0  0  0  0
   53.4600  153.5330   26.3230 C   0  0  0  0  0  0  0  0  0  0  0  0
   53.4600  152.1980   26.6260 O   0  0  0  0  0  0  0  0  0  0  0  0
   52.9260  154.5080   27.1700 C   0  0  0  0  0  0  0  0  0  0  0  0
   52.3220  154.1650   28.4570 C   0  0  0  0  0  0  0  0  0  0  0  0
   52.2490  153.0020   28.8520 O   0  0  0  0  0  0  0  0  0  0  0  0
   51.7920  155.2740   29.2820 C   0  0  0  0  0  0  0  0  0  0  0  0
   51.2120  154.9350   30.4910 O   0  0  0  0  0  0  0  0  0  0  0  0
   50.0580  157.7340   30.0030 C   0  0  0  0  0  0  0  0  0  0  0  0
   49.5270  158.8500   30.6760 C   0  0  0  0  0  0  0  0  0  0  0  0
   48.1040  158.7950   31.1600 C   0  0  0  0  0  0  0  0  0  0  0  0
   49.4241  161.9226   33.5987 H   0  0  0  0  0  0  0  0  0  0  0  0
   49.4611  160.1343   33.4335 H   0  0  0  0  0  0  0  0  0  0  0  0
   50.9955  161.0683   33.4335 H   0  0  0  0  0  0  0  0  0  0  0  0
   48.8081  161.3921   31.3285 H   0  0  0  0  0  0  0  0  0  0  0  0
   50.4987  162.0537   31.3106 H   0  0  0  0  0  0  0  0  0  0  0  0
   52.3119  160.8335   30.5823 H   0  0  0  0  0  0  0  0  0  0  0  0
   53.2131  158.8573   29.3798 H   0  0  0  0  0  0  0  0  0  0  0  0
   53.5504  157.2792   25.2814 H   0  0  0  0  0  0  0  0  0  0  0  0
   54.5082  155.5387   23.7711 H   0  0  0  0  0  0  0  0  0  0  0  0
   54.4476  153.1324   24.4387 H   0  0  0  0  0  0  0  0  0  0  0  0
   54.2710  151.7360   26.7070 H   0  0  0  0  0  0  0  0  0  0  0  0
   51.7440  154.6230   31.1950 H   0  0  0  0  0  0  0  0  0  0  0  0
   49.4178  156.8553   29.8357 H   0  0  0  0  0  0  0  0  0  0  0  0
   48.0906  158.7945   32.2599 H   0  0  0  0  0  0  0  0  0  0  0  0
   47.5557  159.6726   30.7870 H   0  0  0  0  0  0  0  0  0  0  0  0
   47.6250  157.8777   30.7870 H   0  0  0  0  0  0  0  0  0  0  0  0
  1  2  1  0
  2  3  1  0
  3  4  2  0
  4  5  1  0
  5  6  2  0
  6  7  1  0
  7  8  1  0
  8  9  1  0
  9 10  2  0
 10 11  1  0
 11 12  2  0
 12 13  1  0
 13 14  1  0
 13 15  2  0
 15 16  1  0
 16 17  2  0
 16 18  1  0
 18 19  1  0
  6 20  1  0
 20 21  2  0
 21 22  1  0
 21  3  1  0
 18  7  2  0
 15  9  1  0
  1 23  1  0
  1 24  1  0
  1 25  1  0
  2 26  1  0
  2 27  1  0
  4 28  1  0
  5 29  1  0
 10 30  1  0
 11 31  1  0
 12 32  1  0
 14 33  1  0
 19 34  1  0
 20 35  1  0
 22 36  1  0
 22 37  1  0
 22 38  1  0
M  END
>  <meeko>  (1) 
{"is_sidechain": [false], "free_energy": -11.406, "intermolecular_energy": -13.406, "internal_energy": -0.143}

$$$$
cand_042_out
     RDKit          3D

 38 40  0  0  0  0  0  0  0  0999 V2000
   49.2100  160.4720   33.2470 C   0  0  0  0  0  0  0  0  0  0  0  0
   49.0610  160.6550   31.7440 C   0  0  0  0  0  0  0  0  0  0  0  0
   49.7750  159.5700   30.9680 C   0  0  0  0  0  0  0  0  0  0  0  0
   49.1070  158.3540   30.7520 C   0  0  0  0  0  0  0  0  0  0  0  0
   49.7170  157.3110   30.0520 C   0  0  0  0  0  0  0  0  0  0  0  0
   51.0100  157.4550   29.5420 C   0  0  0  0  0  0  0  0  0  0  0  0
   51.6900  156.3590   28.8190 C   0  0  0  0  0  0  0  0  0  0  0  0
   52.2250  156.7660   27.6020 O   0  0  0  0  0  0  0  0  0  0  0  0
   52.8840  155.8470   26.8270 C   0  0  0  0  0  0  0  0  0  0  0  0
   53.4180  156.3020   25.6210 C   0  0  0  0  0  0  0  0  0  0  0  0
   54.1010  155.4170   24.7830 C   0  0  0  0  0  0  0  0  0  0  0  0
   54.2480  154.0770   25.1510 C   0  0  0  0  0  0  0  0  0  0  0  0
   53.7150  153.6270   26.3560 C   0  0  0  0  0  0  0  0  0  0  0  0
   53.8950  152.3030   26.6540 O   0  0  0  0  0  0  0  0  0  0  0  0
   53.0320  154.5130   27.1940 C   0  0  0  0  0  0  0  0  0  0  0  0
   52.4560  154.0800   28.4670 C   0  0  0  0  0  0  0  0  0  0  0  0
   52.5390  152.9160   28.8570 O   0  0  0  0  0  0  0  0  0  0  0  0
   51.7600  155.0990   29.2850 C   0  0  0  0  0  0  0  0  0  0  0  0
   51.2090  154.6750   30.4810 O   0  0  0  0  0  0  0  0  0  0  0  0
   51.6840  158.6650   29.7720 C   0  0  0  0  0  0  0  0  0  0  0  0
   51.0880  159.7230   30.4820 C   0  0  0  0  0  0  0  0  0  0  0  0
   51.8640  160.9980   30.6730 C   0  0  0  0  0  0  0  0  0  0  0  0
   48.5990  161.2224   33.7701 H   0  0  0  0  0  0  0  0  0  0  0  0
   48.8729  159.4636   33.5288 H   0  0  0  0  0  0  0  0  0  0  0  0
   50.2658  160.5977   33.5288 H   0  0  0  0  0  0  0  0  0  0  0  0
   47.9916  160.6302   31.4874 H   0  0  0  0  0  0  0  0  0  0  0  0
   49.5127  161.6205   31.4726 H   0  0  0  0  0  0  0  0  0  0  0  0
   48.0866  158.2208   31.1405 H   0  0  0  0  0  0  0  0  0  0  0  0
   49.1741  156.3664   29.9005 H   0  0  0  0  0  0  0  0  0  0  0  0
   53.3014  157.3565   25.3303 H   0  0  0  0  0  0  0  0  0  0  0  0
   54.5234  155.7754   23.8327 H   0  0  0  0  0  0  0  0  0  0  0  0
   54.7835  153.3794   24.4903 H   0  0  0  0  0  0  0  0  0  0  0  0
   54.3710  152.0570   27.4210 H   0  0  0  0  0  0  0  0  0  0  0  0
   51.3560  153.8010   30.7810 H   0  0  0  0  0  0  0  0  0  0  0  0
   52.7066  158.7891   29.3862 H   0  0  0  0  0  0  0  0  0  0  0  0
   51.9846  161.1962   31.7482 H   0  0  0  0  0  0  0  0  0  0  0  0
   52.8545  160.8980   30.2052 H   0  0  0  0  0  0  0  0  0  0  0  0
   51.3201  161.8319   30.2052 H   0  0  0  0  0  0  0  0  0  0  0  0
  1  2  1  0
  2  3  1  0
  3  4  2  0
  4  5  1  0
  5  6  2  0
  6  7  1  0
  7  8  1  0
  8  9  1  0
  9 10  2  0
 10 11  1  0
 11 12  2  0
 12 13  1  0
 13 14  1  0
 13 15  2  0
 15 16  1  0
 16 17  2  0
 16 18  1  0
 18 19  1  0
  6 20  1  0
 20 21  2  0
 21 22  1  0
 21  3  1  0
 18  7  2  0
 15  9  1  0
  1 23  1  0
  1 24  1  0
  1 25  1  0
  2 26  1  0
  2 27  1  0
  4 28  1  0
  5 29  1  0
 10 30  1  0
 11 31  1  0
 12 32  1  0
 14 33  1  0
 19 34  1  0
 20 35  1  0
 22 36  1  0
 22 37  1  0
 22 38  1  0
M  END
>  <meeko>  (2) 
{"is_sidechain": [false], "free_energy": -11.251, "intermolecular_energy": -13.151, "internal_energy": -0.217}

$$$$
cand_042_out
     RDKit          3D

 38 40  0  0  0  0  0  0  0  0999 V2000
   51.9030  152.6330   26.5320 C   0  0  0  0  0  0  0  0  0  0  0  0
   53.0580  153.5560   26.8880 C   0  0  0  0  0  0  0  0  0  0  0  0
   52.5920  154.7850   27.6350 C   0  0  0  0  0  0  0  0  0  0  0  0
   51.8870  154.6090   28.8370 C   0  0  0  0  0  0  0  0  0  0  0  0
   51.4210  155.7040   29.5670 C   0  0  0  0  0  0  0  0  0  0  0  0
   51.6510  157.0080   29.1210 C   0  0  0  0  0  0  0  0  0  0  0  0
   51.1490  158.1860   29.8610 C   0  0  0  0  0  0  0  0  0  0  0  0
   49.8150  158.0630   30.2320 O   0  0  0  0  0  0  0  0  0  0  0  0
   49.2220  159.0860   30.9250 C   0  0  0  0  0  0  0  0  0  0  0  0
   47.8860  158.9130   31.2900 C   0  0  0  0  0  0  0  0  0  0  0  0
   47.2220  159.9180   31.9970 C   0  0  0  0  0  0  0  0  0  0  0  0
   47.8920  161.0950   32.3390 C   0  0  0  0  0  0  0  0  0  0  0  0
   49.2260  161.2630   31.9740 C   0  0  0  0  0  0  0  0  0  0  0  0
   49.8210  162.4400   32.3390 O   0  0  0  0  0  0  0  0  0  0  0  0
   49.8910  160.2570   31.2670 C   0  0  0  0  0  0  0  0  0  0  0  0
   51.2900  160.3950   30.8640 C   0  0  0  0  0  0  0  0  0  0  0  0
   51.9460  161.4030   31.1220 O   0  0  0  0  0  0  0  0  0  0  0  0
   51.9040  159.2680   30.1250 C   0  0  0  0  0  0  0  0  0  0  0  0
   53.2240  159.4150   29.7390 O   0  0  0  0  0  0  0  0  0  0  0  0
   52.3420  157.1850   27.9110 C   0  0  0  0  0  0  0  0  0  0  0  0
   52.8110  156.0920   27.1590 C   0  0  0  0  0  0  0  0  0  0  0  0
   53.5600  156.3590   25.8820 C   0  0  0  0  0  0  0  0  0  0  0  0
   51.4349  152.2589   27.4544 H   0  0  0  0  0  0  0  0  0  0  0  0
   51.1586  153.1879   25.9420 H   0  0  0  0  0  0  0  0  0  0  0  0
   52.2800  151.7846   25.9420 H   0  0  0  0  0  0  0  0  0  0  0  0
   53.7707  153.0055   27.5197 H   0  0  0  0  0  0  0  0  0  0  0  0
   53.5296  153.8867   25.9509 H   0  0  0  0  0  0  0  0  0  0  0  0
   51.6989  153.5912   29.2095 H   0  0  0  0  0  0  0  0  0  0  0  0
   50.8671  155.5385   30.5028 H   0  0  0  0  0  0  0  0  0  0  0  0
   47.3569  157.9868   31.0213 H   0  0  0  0  0  0  0  0  0  0  0  0
   46.1691  159.7823   32.2851 H   0  0  0  0  0  0  0  0  0  0  0  0
   47.3681  161.8866   32.8947 H   0  0  0  0  0  0  0  0  0  0  0  0
   50.5130  162.7960   31.8180 H   0  0  0  0  0  0  0  0  0  0  0  0
   53.8760  159.6400   30.3730 H   0  0  0  0  0  0  0  0  0  0  0  0
   52.5213  158.2054   27.5413 H   0  0  0  0  0  0  0  0  0  0  0  0
   54.5718  156.7197   26.1189 H   0  0  0  0  0  0  0  0  0  0  0  0
   53.6295  155.4303   25.2966 H   0  0  0  0  0  0  0  0  0  0  0  0
   53.0264  157.1223   25.2966 H   0  0  0  0  0  0  0  0  0  0  0  0
  1  2  1  0
  2  3  1  0
  3  4  2  0
  4  5  1  0
  5  6  2  0
  6  7  1  0
  7  8  1  0
  8  9  1  0
  9 10  2  0
 10 11  1  0
 11 12  2  0
 12 13  1  0
 13 14  1  0
 13 15  2  0
 15 16  1  0
 16 17  2  0
 16 18  1  0
 18 19  1  0
  6 20  1  0
 20 21  2  0
 21 22  1  0
 21  3  1  0
 18  7  2  0
 15  9  1  0
  1 23  1  0
  1 24  1  0
  1 25  1  0
  2 26  1  0
  2 27  1  0
  4 28  1  0
  5 29  1  0
 10 30  1  0
 11 31  1  0
 12 32  1  0
 14 33  1  0
 19 34  1  0
 20 35  1  0
 22 36  1  0
 22 37  1  0
 22 38  1  0
M  END
>  <meeko>  (3) 
{"is_sidechain": [false], "free_energy": -10.647, "intermolecular_energy": -12.493, "internal_energy": -0.165}

$$$$
cand_042_out
     RDKit          3D

 38 40  0  0  0  0  0  0  0  0999 V2000
   53.1100  154.1390   24.9960 C   0  0  0  0  0  0  0  0  0  0  0  0
   53.3200  153.8720   26.4790 C   0  0  0  0  0  0  0  0  0  0  0  0
   52.7670  154.9860   27.3390 C   0  0  0  0  0  0  0  0  0  0  0  0
   53.0180  156.3130   26.9550 C   0  0  0  0  0  0  0  0  0  0  0  0
   52.5430  157.3850   27.7140 C   0  0  0  0  0  0  0  0  0  0  0  0
   51.7980  157.1620   28.8750 C   0  0  0  0  0  0  0  0  0  0  0  0
   51.3030  158.2770   29.7100 C   0  0  0  0  0  0  0  0  0  0  0  0
   49.9640  158.1400   30.0570 O   0  0  0  0  0  0  0  0  0  0  0  0
   49.3770  159.1060   30.8310 C   0  0  0  0  0  0  0  0  0  0  0  0
   48.0350  158.9210   31.1670 C   0  0  0  0  0  0  0  0  0  0  0  0
   47.3760  159.8690   31.9530 C   0  0  0  0  0  0  0  0  0  0  0  0
   48.0580  161.0020   32.4030 C   0  0  0  0  0  0  0  0  0  0  0  0
   49.3970  161.1840   32.0670 C   0  0  0  0  0  0  0  0  0  0  0  0
   50.0040  162.3150   32.5390 O   0  0  0  0  0  0  0  0  0  0  0  0
   50.0570  160.2350   31.2810 C   0  0  0  0  0  0  0  0  0  0  0  0
   51.4620  160.3880   30.9050 C   0  0  0  0  0  0  0  0  0  0  0  0
   52.1270  161.3610   31.2560 O   0  0  0  0  0  0  0  0  0  0  0  0
   52.0690  159.3220   30.0760 C   0  0  0  0  0  0  0  0  0  0  0  0
   53.3950  159.4840   29.7160 O   0  0  0  0  0  0  0  0  0  0  0  0
   51.5600  155.8350   29.2680 C   0  0  0  0  0  0  0  0  0  0  0  0
   52.0380  154.7440   28.5190 C   0  0  0  0  0  0  0  0  0  0  0  0
   51.7280  153.3490   28.9910 C   0  0  0  0  0  0  0  0  0  0  0  0
   52.4345  154.9980   24.8702 H   0  0  0  0  0  0  0  0  0  0  0  0
   54.0778  154.3613   24.5228 H   0  0  0  0  0  0  0  0  0  0  0  0
   52.6659  153.2508   24.5228 H   0  0  0  0  0  0  0  0  0  0  0  0
   52.8137  152.9326   26.7459 H   0  0  0  0  0  0  0  0  0  0  0  0
   54.4026  153.8066   26.6625 H   0  0  0  0  0  0  0  0  0  0  0  0
   53.5981  156.5116   26.0417 H   0  0  0  0  0  0  0  0  0  0  0  0
   52.7576  158.4155   27.3945 H   0  0  0  0  0  0  0  0  0  0  0  0
   47.4968  158.0293   30.8131 H   0  0  0  0  0  0  0  0  0  0  0  0
   46.3184  159.7232   32.2181 H   0  0  0  0  0  0  0  0  0  0  0  0
   47.5384  161.7487   33.0214 H   0  0  0  0  0  0  0  0  0  0  0  0
   50.9280  162.4290   32.4370 H   0  0  0  0  0  0  0  0  0  0  0  0
   53.6910  160.3040   29.3770 H   0  0  0  0  0  0  0  0  0  0  0  0
   50.9846  155.6434   30.1857 H   0  0  0  0  0  0  0  0  0  0  0  0
   51.7230  153.3266   30.0908 H   0  0  0  0  0  0  0  0  0  0  0  0
   50.7404  153.0452   28.6136 H   0  0  0  0  0  0  0  0  0  0  0  0
   52.4940  152.6555   28.6136 H   0  0  0  0  0  0  0  0  0  0  0  0
  1  2  1  0
  2  3  1  0
  3  4  2  0
  4  5  1  0
  5  6  2  0
  6  7  1  0
  7  8  1  0
  8  9  1  0
  9 10  2  0
 10 11  1  0
 11 12  2  0
 12 13  1  0
 13 14  1  0
 13 15  2  0
 15 16  1  0
 16 17  2  0
 16 18  1  0
 18 19  1  0
  6 20  1  0
 20 21  2  0
 21 22  1  0
 21  3  1  0
 18  7  2  0
 15  9  1  0
  1 23  1  0
  1 24  1  0
  1 25  1  0
  2 26  1  0
  2 27  1  0
  4 28  1  0
  5 29  1  0
 10 30  1  0
 11 31  1  0
 12 32  1  0
 14 33  1  0
 19 34  1  0
 20 35  1  0
 22 36  1  0
 22 37  1  0
 22 38  1  0
M  END
>  <meeko>  (4) 
{"is_sidechain": [false], "free_energy": -10.106, "intermolecular_energy": -11.847, "internal_energy": -0.175}

$$$$
cand_042_out
     RDKit          3D

 38 40  0  0  0  0  0  0  0  0999 V2000
   48.1100  159.3140   30.5700 C   0  0  0  0  0  0  0  0  0  0  0  0
   49.2580  158.5980   31.2650 C   0  0  0  0  0  0  0  0  0  0  0  0
   50.0460  157.7300   30.3090 C   0  0  0  0  0  0  0  0  0  0  0  0
   49.5360  156.4650   29.9800 C   0  0  0  0  0  0  0  0  0  0  0  0
   50.2230  155.6140   29.1120 C   0  0  0  0  0  0  0  0  0  0  0  0
   51.4370  156.0050   28.5420 C   0  0  0  0  0  0  0  0  0  0  0  0
   52.1970  155.1160   27.6380 C   0  0  0  0  0  0  0  0  0  0  0  0
   52.8880  155.8100   26.6520 O   0  0  0  0  0  0  0  0  0  0  0  0
   53.6350  155.1050   25.7440 C   0  0  0  0  0  0  0  0  0  0  0  0
   54.3230  155.8430   24.7800 C   0  0  0  0  0  0  0  0  0  0  0  0
   55.1020  155.1860   23.8250 C   0  0  0  0  0  0  0  0  0  0  0  0
   55.1940  153.7920   23.8330 C   0  0  0  0  0  0  0  0  0  0  0  0
   54.5060  153.0590   24.7970 C   0  0  0  0  0  0  0  0  0  0  0  0
   54.6380  151.6980   24.7470 O   0  0  0  0  0  0  0  0  0  0  0  0
   53.7270  153.7160   25.7540 C   0  0  0  0  0  0  0  0  0  0  0  0
   52.9890  152.9830   26.7820 C   0  0  0  0  0  0  0  0  0  0  0  0
   53.0140  151.7550   26.8510 O   0  0  0  0  0  0  0  0  0  0  0  0
   52.1990  153.7750   27.7530 C   0  0  0  0  0  0  0  0  0  0  0  0
   51.4960  153.0700   28.7130 O   0  0  0  0  0  0  0  0  0  0  0  0
   51.9560  157.2650   28.8830 C   0  0  0  0  0  0  0  0  0  0  0  0
   51.2810  158.1310   29.7620 C   0  0  0  0  0  0  0  0  0  0  0  0
   51.8880  159.4730   30.0670 C   0  0  0  0  0  0  0  0  0  0  0  0
   47.4312  159.7374   31.3250 H   0  0  0  0  0  0  0  0  0  0  0  0
   48.5096  160.1233   29.9412 H   0  0  0  0  0  0  0  0  0  0  0  0
   47.5590  158.5991   29.9412 H   0  0  0  0  0  0  0  0  0  0  0  0
   49.9329  159.3491   31.7013 H   0  0  0  0  0  0  0  0  0  0  0  0
   48.8316  157.9470   32.0424 H   0  0  0  0  0  0  0  0  0  0  0  0
   48.5791  156.1382   30.4131 H   0  0  0  0  0  0  0  0  0  0  0  0
   49.8038  154.6251   28.8745 H   0  0  0  0  0  0  0  0  0  0  0  0
   54.2519  156.9407   24.7723 H   0  0  0  0  0  0  0  0  0  0  0  0
   55.6443  155.7674   23.0648 H   0  0  0  0  0  0  0  0  0  0  0  0
   55.8077  153.2751   23.0805 H   0  0  0  0  0  0  0  0  0  0  0  0
   54.3560  151.2270   23.9880 H   0  0  0  0  0  0  0  0  0  0  0  0
   51.7880  153.0710   29.6030 H   0  0  0  0  0  0  0  0  0  0  0  0
   52.9163  157.5830   28.4509 H   0  0  0  0  0  0  0  0  0  0  0  0
   51.9493  159.6085   31.1569 H   0  0  0  0  0  0  0  0  0  0  0  0
   52.8976  159.5258   29.6336 H   0  0  0  0  0  0  0  0  0  0  0  0
   51.2610  160.2661   29.6336 H   0  0  0  0  0  0  0  0  0  0  0  0
  1  2  1  0
  2  3  1  0
  3  4  2  0
  4  5  1  0
  5  6  2  0
  6  7  1  0
  7  8  1  0
  8  9  1  0
  9 10  2  0
 10 11  1  0
 11 12  2  0
 12 13  1  0
 13 14  1  0
 13 15  2  0
 15 16  1  0
 16 17  2  0
 16 18  1  0
 18 19  1  0
  6 20  1  0
 20 21  2  0
 21 22  1  0
 21  3  1  0
 18  7  2  0
 15  9  1  0
  1 23  1  0
  1 24  1  0
  1 25  1  0
  2 26  1  0
  2 27  1  0
  4 28  1  0
  5 29  1  0
 10 30  1  0
 11 31  1  0
 12 32  1  0
 14 33  1  0
 19 34  1  0
 20 35  1  0
 22 36  1  0
 22 37  1  0
 22 38  1  0
M  END
>  <meeko>  (5) 
{"is_sidechain": [false], "free_energy": -9.811, "intermolecular_energy": -11.651, "internal_energy": -0.024}

$$$$
cand_042_out
     RDKit          3D

 38 40  0  0  0  0  0  0  0  0999 V2000
   52.5930  152.4820   25.9470 C   0  0  0  0  0  0  0  0  0  0  0  0
   53.5830  153.3490   26.7100 C   0  0  0  0  0  0  0  0  0  0  0  0
   52.8950  154.4700   27.4560 C   0  0  0  0  0  0  0  0  0  0  0  0
   52.1810  154.1560   28.6240 C   0  0  0  0  0  0  0  0  0  0  0  0
   51.5160  155.1470   29.3510 C   0  0  0  0  0  0  0  0  0  0  0  0
   51.5500  156.4800   28.9350 C   0  0  0  0  0  0  0  0  0  0  0  0
   50.8360  157.5450   29.6710 C   0  0  0  0  0  0  0  0  0  0  0  0
   51.6600  158.6080   30.0190 O   0  0  0  0  0  0  0  0  0  0  0  0
   51.1240  159.6660   30.7070 C   0  0  0  0  0  0  0  0  0  0  0  0
   51.9850  160.7180   31.0230 C   0  0  0  0  0  0  0  0  0  0  0  0
   51.5040  161.8260   31.7230 C   0  0  0  0  0  0  0  0  0  0  0  0
   50.1620  161.8830   32.1080 C   0  0  0  0  0  0  0  0  0  0  0  0
   49.3060  160.8310   31.7910 C   0  0  0  0  0  0  0  0  0  0  0  0
   48.0050  160.9510   32.1990 O   0  0  0  0  0  0  0  0  0  0  0  0
   49.7870  159.7230   31.0890 C   0  0  0  0  0  0  0  0  0  0  0  0
   48.9220  158.5980   30.7370 C   0  0  0  0  0  0  0  0  0  0  0  0
   47.7320  158.5700   31.0460 O   0  0  0  0  0  0  0  0  0  0  0  0
   49.5290  157.4760   29.9850 C   0  0  0  0  0  0  0  0  0  0  0  0
   48.7030  156.4120   29.6680 O   0  0  0  0  0  0  0  0  0  0  0  0
   52.2510  156.7930   27.7590 C   0  0  0  0  0  0  0  0  0  0  0  0
   52.9190  155.8060   27.0100 C   0  0  0  0  0  0  0  0  0  0  0  0
   53.6650  156.2180   25.7700 C   0  0  0  0  0  0  0  0  0  0  0  0
   51.9630  151.9303   26.6603 H   0  0  0  0  0  0  0  0  0  0  0  0
   51.9583  153.1200   25.3145 H   0  0  0  0  0  0  0  0  0  0  0  0
   53.1418  151.7687   25.3145 H   0  0  0  0  0  0  0  0  0  0  0  0
   54.1228  152.7198   27.4330 H   0  0  0  0  0  0  0  0  0  0  0  0
   54.2735  153.7987   25.9814 H   0  0  0  0  0  0  0  0  0  0  0  0
   52.1447  153.1132   28.9721 H   0  0  0  0  0  0  0  0  0  0  0  0
   50.9600  154.8745   30.2602 H   0  0  0  0  0  0  0  0  0  0  0  0
   53.0418  160.6742   30.7208 H   0  0  0  0  0  0  0  0  0  0  0  0
   52.1824  162.6553   31.9718 H   0  0  0  0  0  0  0  0  0  0  0  0
   49.7828  162.7559   32.6597 H   0  0  0  0  0  0  0  0  0  0  0  0
   47.3260  161.0820   31.5670 H   0  0  0  0  0  0  0  0  0  0  0  0
   48.3710  156.3190   28.7980 H   0  0  0  0  0  0  0  0  0  0  0  0
   52.2788  157.8371   27.4141 H   0  0  0  0  0  0  0  0  0  0  0  0
   54.5950  156.7316   26.0552 H   0  0  0  0  0  0  0  0  0  0  0  0
   53.9069  155.3256   25.1741 H   0  0  0  0  0  0  0  0  0  0  0  0
   53.0385  156.8980   25.1741 H   0  0  0  0  0  0  0  0  0  0  0  0
  1  2  1  0
  2  3  1  0
  3  4  2  0
  4  5  1  0
  5  6  2  0
  6  7  1  0
  7  8  1  0
  8  9  1  0
  9 10  2  0
 10 11  1  0
 11 12  2  0
 12 13  1  0
 13 14  1  0
 13 15  2  0
 15 16  1  0
 16 17  2  0
 16 18  1  0
 18 19  1  0
  6 20  1  0
 20 21  2  0
 21 22  1  0
 21  3  1  0
 18  7  2  0
 15  9  1  0
  1 23  1  0
  1 24  1  0
  1 25  1  0
  2 26  1  0
  2 27  1  0
  4 28  1  0
  5 29  1  0
 10 30  1  0
 11 31  1  0
 12 32  1  0
 14 33  1  0
 19 34  1  0
 20 35  1  0
 22 36  1  0
 22 37  1  0
 22 38  1  0
M  END
>  <meeko>  (6) 
{"is_sidechain": [false], "free_energy": -8.777, "intermolecular_energy": -10.203, "internal_energy": -0.257}

$$$$
