cand_010_out
     RDKit          3D

 35 37  0  0  0  0  0  0  0  0999 V2000
   17.5200  -25.7110   39.6910 O   0  0  0  0  0  0  0  0  0  0  0  0
   18.3430  -26.6090   39.8620 C   0  0  0  0  0  0  0  0  0  0  0  0
   18.3730  -27.7810   38.9580 C   0  0  0  0  0  0  0  0  0  0  0  0
   17.4560  -27.8040   37.9230 O   0  0  0  0  0  0  0  0  0  0  0  0
   19.2920  -28.7390   39.1790 C   0  0  0  0  0  0  0  0  0  0  0  0
   19.4210  -29.9460   38.3340 C   0  0  0  0  0  0  0  0  0  0  0  0
   19.7900  -29.8660   36.9880 C   0  0  0  0  0  0  0  0  0  0  0  0
   19.8800  -31.0180   36.2000 C   0  0  0  0  0  0  0  0  0  0  0  0
   19.5940  -32.2820   36.7370 C   0  0  0  0  0  0  0  0  0  0  0  0
   19.7100  -33.5040   35.8550 C   0  0  0  0  0  0  0  0  0  0  0  0
   20.1780  -33.2240   34.6040 F   0  0  0  0  0  0  0  0  0  0  0  0
   19.2170  -32.3820   38.0940 C   0  0  0  0  0  0  0  0  0  0  0  0
   18.8950  -33.7180   38.7240 C   0  0  0  0  0  0  0  0  0  0  0  0
   19.9180  -34.6150   38.6700 F   0  0  0  0  0  0  0  0  0  0  0  0
   18.5690  -33.6030   40.0410 F   0  0  0  0  0  0  0  0  0  0  0  0
   17.8330  -34.3300   38.1300 F   0  0  0  0  0  0  0  0  0  0  0  0
   19.1290  -31.2080   38.8720 C   0  0  0  0  0  0  0  0  0  0  0  0
   20.2310  -28.6930   40.2030 O   0  0  0  0  0  0  0  0  0  0  0  0
   20.2210  -27.6240   41.0620 C   0  0  0  0  0  0  0  0  0  0  0  0
   21.1710  -27.6250   42.0840 C   0  0  0  0  0  0  0  0  0  0  0  0
   21.2170  -26.5660   42.9930 C   0  0  0  0  0  0  0  0  0  0  0  0
   20.3150  -25.5070   42.8790 C   0  0  0  0  0  0  0  0  0  0  0  0
   19.3680  -25.5080   41.8590 C   0  0  0  0  0  0  0  0  0  0  0  0
   18.5150  -24.4390   41.8050 O   0  0  0  0  0  0  0  0  0  0  0  0
   19.3220  -26.5680   40.9490 C   0  0  0  0  0  0  0  0  0  0  0  0
   17.6430  -28.2860   37.1410 H   0  0  0  0  0  0  0  0  0  0  0  0
   20.0123  -28.8849   36.5431 H   0  0  0  0  0  0  0  0  0  0  0  0
   20.1791  -30.9317   35.1450 H   0  0  0  0  0  0  0  0  0  0  0  0
   20.3980  -34.2163   36.3339 H   0  0  0  0  0  0  0  0  0  0  0  0
   18.6981  -33.9195   35.7390 H   0  0  0  0  0  0  0  0  0  0  0  0
   18.8240  -31.2844   39.9261 H   0  0  0  0  0  0  0  0  0  0  0  0
   21.8827  -28.4589   42.1735 H   0  0  0  0  0  0  0  0  0  0  0  0
   21.9648  -26.5664   43.7997 H   0  0  0  0  0  0  0  0  0  0  0  0
   20.3525  -24.6724   43.5946 H   0  0  0  0  0  0  0  0  0  0  0  0
   18.7640  -23.6650   41.3380 H   0  0  0  0  0  0  0  0  0  0  0  0
  1  2  2  0
  2  3  1  0
  3  4  1  0
  3  5  2  0
  5  6  1  0
  6  7  2  0
  7  8  1  0
  8  9  2  0
  9 10  1  0
 10 11  1  0
  9 12  1  0
 12 13  1  0
 13 14  1  0
 13 15  1  0
 13 16  1  0
 12 17  2  0
  5 18  1  0
 18 19  1  0
 19 20  2  0
 20 21  1  0
 21 22  2  0
 22 23  1  0
 23 24  1  0
 23 25  2  0
 25  2  1  0
 17  6  1  0
 25 19  1  0
  4 26  1  0
  7 27  1  0
  8 28  1  0
 10 29  1  0
 10 30  1  0
 17 31  1  0
 20 32  1  0
 21 33  1  0
 22 34  1  0
 24 35  1  0
M  END
>  <meeko>  (1) 
{"is_sidechain": [false], "free_energy": -8.355, "intermolecular_energy": -10.309, "internal_energy": -0.333}

$$$$
cand_010_out
     RDKit          3D

 35 37  0  0  0  0  0  0  0  0999 V2000
   20.0010  -32.3230   35.4220 O   0  0  0  0  0  0  0  0  0  0  0  0
   19.6510  -32.0880   36.5770 C   0  0  0  0  0  0  0  0  0  0  0  0
   19.6480  -30.6990   37.0920 C   0  0  0  0  0  0  0  0  0  0  0  0
   20.0370  -29.7010   36.2180 O   0  0  0  0  0  0  0  0  0  0  0  0
   19.2540  -30.4860   38.3610 C   0  0  0  0  0  0  0  0  0  0  0  0
   19.2000  -29.1420   38.9760 C   0  0  0  0  0  0  0  0  0  0  0  0
   18.2260  -28.2060   38.6150 C   0  0  0  0  0  0  0  0  0  0  0  0
   18.2100  -26.9320   39.1900 C   0  0  0  0  0  0  0  0  0  0  0  0
   19.1750  -26.5550   40.1360 C   0  0  0  0  0  0  0  0  0  0  0  0
   19.1190  -25.1710   40.7390 C   0  0  0  0  0  0  0  0  0  0  0  0
   19.9920  -24.2950   40.1630 F   0  0  0  0  0  0  0  0  0  0  0  0
   20.1690  -27.4870   40.5100 C   0  0  0  0  0  0  0  0  0  0  0  0
   21.2350  -27.1330   41.5210 C   0  0  0  0  0  0  0  0  0  0  0  0
   20.7480  -26.5800   42.6670 F   0  0  0  0  0  0  0  0  0  0  0  0
   21.9580  -28.2200   41.9110 F   0  0  0  0  0  0  0  0  0  0  0  0
   22.1400  -26.2410   41.0330 F   0  0  0  0  0  0  0  0  0  0  0  0
   20.1710  -28.7660   39.9170 C   0  0  0  0  0  0  0  0  0  0  0  0
   18.8350  -31.4920   39.2230 O   0  0  0  0  0  0  0  0  0  0  0  0
   18.8360  -32.7890   38.7770 C   0  0  0  0  0  0  0  0  0  0  0  0
   18.4210  -33.7690   39.6800 C   0  0  0  0  0  0  0  0  0  0  0  0
   18.3970  -35.1100   39.2900 C   0  0  0  0  0  0  0  0  0  0  0  0
   18.7870  -35.4700   37.9980 C   0  0  0  0  0  0  0  0  0  0  0  0
   19.2000  -34.4900   37.0990 C   0  0  0  0  0  0  0  0  0  0  0  0
   19.5670  -34.9120   35.8500 O   0  0  0  0  0  0  0  0  0  0  0  0
   19.2240  -33.1490   37.4900 C   0  0  0  0  0  0  0  0  0  0  0  0
   20.5690  -28.9920   36.5240 H   0  0  0  0  0  0  0  0  0  0  0  0
   17.4632  -28.4754   37.8696 H   0  0  0  0  0  0  0  0  0  0  0  0
   17.4295  -26.2146   38.8965 H   0  0  0  0  0  0  0  0  0  0  0  0
   18.0988  -24.7781   40.6169 H   0  0  0  0  0  0  0  0  0  0  0  0
   19.4033  -25.2653   41.7974 H   0  0  0  0  0  0  0  0  0  0  0  0
   20.9527  -29.4868   40.1987 H   0  0  0  0  0  0  0  0  0  0  0  0
   18.1133  -33.4857   40.6974 H   0  0  0  0  0  0  0  0  0  0  0  0
   18.0707  -35.8833   40.0010 H   0  0  0  0  0  0  0  0  0  0  0  0
   18.7679  -36.5261   37.6911 H   0  0  0  0  0  0  0  0  0  0  0  0
   19.1550  -35.6640   35.4710 H   0  0  0  0  0  0  0  0  0  0  0  0
  1  2  2  0
  2  3  1  0
  3  4  1  0
  3  5  2  0
  5  6  1  0
  6  7  2  0
  7  8  1  0
  8  9  2  0
  9 10  1  0
 10 11  1  0
  9 12  1  0
 12 13  1  0
 13 14  1  0
 13 15  1  0
 13 16  1  0
 12 17  2  0
  5 18  1  0
 18 19  1  0
 19 20  2  0
 20 21  1  0
 21 22  2  0
 22 23  1  0
 23 24  1  0
 23 25  2  0
 25  2  1  0
 17  6  1  0
 25 19  1  0
  4 26  1  0
  7 27  1  0
  8 28  1  0
 10 29  1  0
 10 30  1  0
 17 31  1  0
 20 32  1  0
 21 33  1  0
 22 34  1  0
 24 35  1  0
M  END
>  <meeko>  (2) 
{"is_sidechain": [false], "free_energy": -8.084, "intermolecular_energy": -9.827, "internal_energy": -0.48}

$$$$
cand_010_out
     RDKit          3D

 35 37  0  0  0  0  0  0  0  0999 V2000
   17.5130  -25.7110   39.6800 O   0  0  0  0  0  0  0  0  0  0  0  0
   18.3370  -26.6170   39.7940 C   0  0  0  0  0  0  0  0  0  0  0  0
   18.3580  -27.7400   38.8290 C   0  0  0  0  0  0  0  0  0  0  0  0
   17.4290  -27.7080   37.8040 O   0  0  0  0  0  0  0  0  0  0  0  0
   19.2780  -28.7080   38.9890 C   0  0  0  0  0  0  0  0  0  0  0  0
   19.3980  -29.8680   38.0810 C   0  0  0  0  0  0  0  0  0  0  0  0
   19.1230  -31.1700   38.5100 C   0  0  0  0  0  0  0  0  0  0  0  0
   19.2680  -32.2560   37.6410 C   0  0  0  0  0  0  0  0  0  0  0  0
   19.7020  -32.0700   36.3200 C   0  0  0  0  0  0  0  0  0  0  0  0
   19.8400  -33.2680   35.4100 C   0  0  0  0  0  0  0  0  0  0  0  0
   19.0330  -34.3100   35.7640 F   0  0  0  0  0  0  0  0  0  0  0  0
   19.9870  -30.7610   35.8700 C   0  0  0  0  0  0  0  0  0  0  0  0
   20.4610  -30.5030   34.4580 C   0  0  0  0  0  0  0  0  0  0  0  0
   20.7530  -29.1960   34.2040 F   0  0  0  0  0  0  0  0  0  0  0  0
   21.5900  -31.2020   34.1560 F   0  0  0  0  0  0  0  0  0  0  0  0
   19.5390  -30.8660   33.5250 F   0  0  0  0  0  0  0  0  0  0  0  0
   19.8380  -29.6790   36.7620 C   0  0  0  0  0  0  0  0  0  0  0  0
   20.2270  -28.7160   40.0050 O   0  0  0  0  0  0  0  0  0  0  0  0
   20.2270  -27.6950   40.9200 C   0  0  0  0  0  0  0  0  0  0  0  0
   21.1880  -27.7500   41.9300 C   0  0  0  0  0  0  0  0  0  0  0  0
   21.2440  -26.7400   42.8930 C   0  0  0  0  0  0  0  0  0  0  0  0
   20.3410  -25.6760   42.8460 C   0  0  0  0  0  0  0  0  0  0  0  0
   19.3830  -25.6230   41.8360 C   0  0  0  0  0  0  0  0  0  0  0  0
   18.5310  -24.5530   41.8480 O   0  0  0  0  0  0  0  0  0  0  0  0
   19.3270  -26.6340   40.8720 C   0  0  0  0  0  0  0  0  0  0  0  0
   16.7470  -27.0650   37.8110 H   0  0  0  0  0  0  0  0  0  0  0  0
   18.7885  -31.3422   39.5437 H   0  0  0  0  0  0  0  0  0  0  0  0
   19.0385  -33.2707   37.9984 H   0  0  0  0  0  0  0  0  0  0  0  0
   19.5834  -32.9599   34.3857 H   0  0  0  0  0  0  0  0  0  0  0  0
   20.8794  -33.6193   35.4888 H   0  0  0  0  0  0  0  0  0  0  0  0
   20.0725  -28.6617   36.4153 H   0  0  0  0  0  0  0  0  0  0  0  0
   21.9003  -28.5874   41.9678 H   0  0  0  0  0  0  0  0  0  0  0  0
   22.0009  -26.7828   43.6900 H   0  0  0  0  0  0  0  0  0  0  0  0
   20.3860  -24.8811   43.6051 H   0  0  0  0  0  0  0  0  0  0  0  0
   17.6640  -24.6410   41.5020 H   0  0  0  0  0  0  0  0  0  0  0  0
  1  2  2  0
  2  3  1  0
  3  4  1  0
  3  5  2  0
  5  6  1  0
  6  7  2  0
  7  8  1  0
  8  9  2  0
  9 10  1  0
 10 11  1  0
  9 12  1  0
 12 13  1  0
 13 14  1  0
 13 15  1  0
 13 16  1  0
 12 17  2  0
  5 18  1  0
 18 19  1  0
 19 20  2  0
 20 21  1  0
 21 22  2  0
 22 23  1  0
 23 24  1  0
 23 25  2  0
 25  2  1  0
 17  6  1  0
 25 19  1  0
  4 26  1  0
  7 27  1  0
  8 28  1  0
 10 29  1  0
 10 30  1  0
 17 31  1  0
 20 32  1  0
 21 33  1  0
 22 34  1  0
 24 35  1  0
M  END
>  <meeko>  (3) 
{"is_sidechain": [false], "free_energy": -7.874, "intermolecular_energy": -9.729, "internal_energy": -0.32}

$$$$
cand_010_out
     RDKit          3D

 35 37  0  0  0  0  0  0  0  0999 V2000
   19.9180  -32.0530   35.2970 O   0  0  0  0  0  0  0  0  0  0  0  0
   19.6670  -31.7560   36.4640 C   0  0  0  0  0  0  0  0  0  0  0  0
   19.7860  -30.3530   36.9240 C   0  0  0  0  0  0  0  0  0  0  0  0
   20.1710  -29.4120   35.9860 O   0  0  0  0  0  0  0  0  0  0  0  0
   19.4990  -30.0720   38.2080 C   0  0  0  0  0  0  0  0  0  0  0  0
   19.5710  -28.7070   38.7730 C   0  0  0  0  0  0  0  0  0  0  0  0
   20.0110  -28.4730   40.0790 C   0  0  0  0  0  0  0  0  0  0  0  0
   20.0460  -27.1770   40.6020 C   0  0  0  0  0  0  0  0  0  0  0  0
   19.6340  -26.0780   39.8330 C   0  0  0  0  0  0  0  0  0  0  0  0
   19.6950  -24.6920   40.4320 C   0  0  0  0  0  0  0  0  0  0  0  0
   18.8670  -24.5310   41.5050 F   0  0  0  0  0  0  0  0  0  0  0  0
   19.1850  -26.2960   38.5120 C   0  0  0  0  0  0  0  0  0  0  0  0
   18.7260  -25.1490   37.6400 C   0  0  0  0  0  0  0  0  0  0  0  0
   19.6420  -24.1480   37.5170 F   0  0  0  0  0  0  0  0  0  0  0  0
   18.4390  -25.5480   36.3700 F   0  0  0  0  0  0  0  0  0  0  0  0
   17.5920  -24.5600   38.1090 F   0  0  0  0  0  0  0  0  0  0  0  0
   19.1530  -27.6110   38.0030 C   0  0  0  0  0  0  0  0  0  0  0  0
   19.0830  -31.0190   39.1360 O   0  0  0  0  0  0  0  0  0  0  0  0
   18.9730  -32.3280   38.7430 C   0  0  0  0  0  0  0  0  0  0  0  0
   18.5670  -33.2480   39.7100 C   0  0  0  0  0  0  0  0  0  0  0  0
   18.4330  -34.5970   39.3740 C   0  0  0  0  0  0  0  0  0  0  0  0
   18.7050  -35.0260   38.0740 C   0  0  0  0  0  0  0  0  0  0  0  0
   19.1110  -34.1060   37.1100 C   0  0  0  0  0  0  0  0  0  0  0  0
   19.3590  -34.5930   35.8560 O   0  0  0  0  0  0  0  0  0  0  0  0
   19.2440  -32.7560   37.4460 C   0  0  0  0  0  0  0  0  0  0  0  0
   20.1680  -29.6320   35.0750 H   0  0  0  0  0  0  0  0  0  0  0  0
   20.3338  -29.3193   40.7031 H   0  0  0  0  0  0  0  0  0  0  0  0
   20.4014  -27.0166   41.6306 H   0  0  0  0  0  0  0  0  0  0  0  0
   20.7280  -24.4966   40.7556 H   0  0  0  0  0  0  0  0  0  0  0  0
   19.3635  -23.9866   39.6558 H   0  0  0  0  0  0  0  0  0  0  0  0
   18.7918  -27.7814   36.9781 H   0  0  0  0  0  0  0  0  0  0  0  0
   18.3528  -32.9116   40.7352 H   0  0  0  0  0  0  0  0  0  0  0  0
   18.1124  -35.3230   40.1357 H   0  0  0  0  0  0  0  0  0  0  0  0
   18.5989  -36.0888   37.8111 H   0  0  0  0  0  0  0  0  0  0  0  0
   19.1620  -34.0700   35.1040 H   0  0  0  0  0  0  0  0  0  0  0  0
  1  2  2  0
  2  3  1  0
  3  4  1  0
  3  5  2  0
  5  6  1  0
  6  7  2  0
  7  8  1  0
  8  9  2  0
  9 10  1  0
 10 11  1  0
  9 12  1  0
 12 13  1  0
 13 14  1  0
 13 15  1  0
 13 16  1  0
 12 17  2  0
  5 18  1  0
 18 19  1  0
 19 20  2  0
 20 21  1  0
 21 22  2  0
 22 23  1  0
 23 24  1  0
 23 25  2  0
 25  2  1  0
 17  6  1  0
 25 19  1  0
  4 26  1  0
  7 27  1  0
  8 28  1  0
 10 29  1  0
 10 30  1  0
 17 31  1  0
 20 32  1  0
 21 33  1  0
 22 34  1  0
 24 35  1  0
M  END
>  <meeko>  (4) 
{"is_sidechain": [false], "free_energy": -7.434, "intermolecular_energy": -9.472, "internal_energy": -0.034}

$$$$
cand_010_out
     RDKit          3D

 35 37  0  0  0  0  0  0  0  0999 V2000
   21.6860  -25.8130   44.5200 O   0  0  0  0  0  0  0  0  0  0  0  0
   21.7970  -26.5610   43.5500 C   0  0  0  0  0  0  0  0  0  0  0  0
   20.8440  -26.4720   42.4200 C   0  0  0  0  0  0  0  0  0  0  0  0
   19.8510  -25.5130   42.5060 O   0  0  0  0  0  0  0  0  0  0  0  0
   21.0040  -27.3070   41.3770 C   0  0  0  0  0  0  0  0  0  0  0  0
   20.1200  -27.3000   40.1920 C   0  0  0  0  0  0  0  0  0  0  0  0
   19.5210  -28.4700   39.7140 C   0  0  0  0  0  0  0  0  0  0  0  0
   18.7100  -28.4440   38.5760 C   0  0  0  0  0  0  0  0  0  0  0  0
   18.4830  -27.2490   37.8780 C   0  0  0  0  0  0  0  0  0  0  0  0
   17.5930  -27.2620   36.6560 C   0  0  0  0  0  0  0  0  0  0  0  0
   18.2480  -27.6260   35.5160 F   0  0  0  0  0  0  0  0  0  0  0  0
   19.0820  -26.0580   38.3450 C   0  0  0  0  0  0  0  0  0  0  0  0
   18.8740  -24.7420   37.6310 C   0  0  0  0  0  0  0  0  0  0  0  0
   18.9940  -24.8230   36.2770 F   0  0  0  0  0  0  0  0  0  0  0  0
   17.6400  -24.2170   37.8640 F   0  0  0  0  0  0  0  0  0  0  0  0
   19.7630  -23.7890   38.0260 F   0  0  0  0  0  0  0  0  0  0  0  0
   19.9000  -26.1040   39.4930 C   0  0  0  0  0  0  0  0  0  0  0  0
   22.0240  -28.2480   41.2860 O   0  0  0  0  0  0  0  0  0  0  0  0
   22.9160  -28.3600   42.3200 C   0  0  0  0  0  0  0  0  0  0  0  0
   23.9150  -29.3260   42.1940 C   0  0  0  0  0  0  0  0  0  0  0  0
   24.8570  -29.4910   43.2110 C   0  0  0  0  0  0  0  0  0  0  0  0
   24.8020  -28.6900   44.3530 C   0  0  0  0  0  0  0  0  0  0  0  0
   23.8040  -27.7270   44.4780 C   0  0  0  0  0  0  0  0  0  0  0  0
   23.8090  -26.9760   45.6220 O   0  0  0  0  0  0  0  0  0  0  0  0
   22.8610  -27.5620   43.4600 C   0  0  0  0  0  0  0  0  0  0  0  0
   19.9480  -24.6980   42.0540 H   0  0  0  0  0  0  0  0  0  0  0  0
   19.6901  -29.4214   40.2396 H   0  0  0  0  0  0  0  0  0  0  0  0
   18.2427  -29.3749   38.2225 H   0  0  0  0  0  0  0  0  0  0  0  0
   16.7720  -27.9733   36.8294 H   0  0  0  0  0  0  0  0  0  0  0  0
   17.2271  -26.2352   36.5082 H   0  0  0  0  0  0  0  0  0  0  0  0
   20.3773  -25.1791   39.8490 H   0  0  0  0  0  0  0  0  0  0  0  0
   23.9602  -29.9570   41.2941 H   0  0  0  0  0  0  0  0  0  0  0  0
   25.6438  -30.2534   43.1123 H   0  0  0  0  0  0  0  0  0  0  0  0
   25.5459  -28.8194   45.1529 H   0  0  0  0  0  0  0  0  0  0  0  0
   23.3620  -26.1530   45.6430 H   0  0  0  0  0  0  0  0  0  0  0  0
  1  2  2  0
  2  3  1  0
  3  4  1  0
  3  5  2  0
  5  6  1  0
  6  7  2  0
  7  8  1  0
  8  9  2  0
  9 10  1  0
 10 11  1  0
  9 12  1  0
 12 13  1  0
 13 14  1  0
 13 15  1  0
 13 16  1  0
 12 17  2  0
  5 18  1  0
 18 19  1  0
 19 20  2  0
 20 21  1  0
 21 22  2  0
 22 23  1  0
 23 24  1  0
 23 25  2  0
 25  2  1  0
 17  6  1  0
 25 19  1  0
  4 26  1  0
  7 27  1  0
  8 28  1  0
 10 29  1  0
 10 30  1  0
 17 31  1  0
 20 32  1  0
 21 33  1  0
 22 34  1  0
 24 35  1  0
M  END
>  <meeko>  (5) 
{"is_sidechain": [false], "free_energy": -7.165, "intermolecular_energy": -8.979, "internal_energy": -0.194}

$$$$
cand_010_out
     RDKit          3D

 35 37  0  0  0  0  0  0  0  0999 V2000
   18.6770  -33.9150   38.0530 O   0  0  0  0  0  0  0  0  0  0  0  0
   19.0270  -32.8090   37.6440 C   0  0  0  0  0  0  0  0  0  0  0  0
   18.9180  -31.6170   38.5160 C   0  0  0  0  0  0  0  0  0  0  0  0
   18.4270  -31.8120   39.7940 O   0  0  0  0  0  0  0  0  0  0  0  0
   19.3150  -30.4260   38.0300 C   0  0  0  0  0  0  0  0  0  0  0  0
   19.2630  -29.1740   38.8140 C   0  0  0  0  0  0  0  0  0  0  0  0
   18.2630  -28.2180   38.6080 C   0  0  0  0  0  0  0  0  0  0  0  0
   18.2470  -27.0290   39.3420 C   0  0  0  0  0  0  0  0  0  0  0  0
   19.2380  -26.7580   40.2980 C   0  0  0  0  0  0  0  0  0  0  0  0
   19.1820  -25.4640   41.0760 C   0  0  0  0  0  0  0  0  0  0  0  0
   20.0340  -24.5110   40.6000 F   0  0  0  0  0  0  0  0  0  0  0  0
   20.2570  -27.7110   40.5170 C   0  0  0  0  0  0  0  0  0  0  0  0
   21.3520  -27.4710   41.5320 C   0  0  0  0  0  0  0  0  0  0  0  0
   20.8930  -27.1220   42.7670 F   0  0  0  0  0  0  0  0  0  0  0  0
   22.1310  -28.5710   41.7220 F   0  0  0  0  0  0  0  0  0  0  0  0
   22.2010  -26.4750   41.1560 F   0  0  0  0  0  0  0  0  0  0  0  0
   20.2580  -28.9040   39.7650 C   0  0  0  0  0  0  0  0  0  0  0  0
   19.8370  -30.2440   36.7540 O   0  0  0  0  0  0  0  0  0  0  0  0
   19.9410  -31.3280   35.9200 C   0  0  0  0  0  0  0  0  0  0  0  0
   20.4560  -31.0970   34.6440 C   0  0  0  0  0  0  0  0  0  0  0  0
   20.5900  -32.1580   33.7460 C   0  0  0  0  0  0  0  0  0  0  0  0
   20.2100  -33.4470   34.1230 C   0  0  0  0  0  0  0  0  0  0  0  0
   19.6960  -33.6750   35.3970 C   0  0  0  0  0  0  0  0  0  0  0  0
   19.3450  -34.9620   35.7010 O   0  0  0  0  0  0  0  0  0  0  0  0
   19.5620  -32.6130   36.2960 C   0  0  0  0  0  0  0  0  0  0  0  0
   19.0050  -32.0810   40.4820 H   0  0  0  0  0  0  0  0  0  0  0  0
   17.4794  -28.4044   37.8589 H   0  0  0  0  0  0  0  0  0  0  0  0
   17.4463  -26.2951   39.1680 H   0  0  0  0  0  0  0  0  0  0  0  0
   18.1558  -25.0710   41.0266 H   0  0  0  0  0  0  0  0  0  0  0  0
   19.4899  -25.6904   42.1075 H   0  0  0  0  0  0  0  0  0  0  0  0
   21.0585  -29.6406   39.9282 H   0  0  0  0  0  0  0  0  0  0  0  0
   20.7558  -30.0814   34.3461 H   0  0  0  0  0  0  0  0  0  0  0  0
   20.9958  -31.9775   32.7396 H   0  0  0  0  0  0  0  0  0  0  0  0
   20.3164  -34.2818   33.4146 H   0  0  0  0  0  0  0  0  0  0  0  0
   19.9510  -35.6600   35.5490 H   0  0  0  0  0  0  0  0  0  0  0  0
  1  2  2  0
  2  3  1  0
  3  4  1  0
  3  5  2  0
  5  6  1  0
  6  7  2  0
  7  8  1  0
  8  9  2  0
  9 10  1  0
 10 11  1  0
  9 12  1  0
 12 13  1  0
 13 14  1  0
 13 15  1  0
 13 16  1  0
 12 17  2  0
  5 18  1  0
 18 19  1  0
 19 20  2  0
 20 21  1  0
 21 22  2  0
 22 23  1  0
 23 24  1  0
 23 25  2  0
 25  2  1  0
 17  6  1  0
 25 19  1  0
  4 26  1  0
  7 27  1  0
  8 28  1  0
 10 29  1  0
 10 30  1  0
 17 31  1  0
 20 32  1  0
 21 33  1  0
 22 34  1  0
 24 35  1  0
M  END
>  <meeko>  (6) 
{"is_sidechain": [false], "free_energy": -7.049, "intermolecular_energy": -8.505, "internal_energy": -0.525}

$$$$
cand_010_out
     RDKit          3D

 35 37  0  0  0  0  0  0  0  0999 V2000
   20.7850  -25.2760   40.4800 O   0  0  0  0  0  0  0  0  0  0  0  0
   20.1350  -25.7400   39.5450 C   0  0  0  0  0  0  0  0  0  0  0  0
   20.2690  -27.1670   39.1710 C   0  0  0  0  0  0  0  0  0  0  0  0
   21.1360  -27.9370   39.9250 O   0  0  0  0  0  0  0  0  0  0  0  0
   19.5360  -27.6340   38.1440 C   0  0  0  0  0  0  0  0  0  0  0  0
   19.5820  -29.0420   37.6920 C   0  0  0  0  0  0  0  0  0  0  0  0
   19.8090  -29.3780   36.3540 C   0  0  0  0  0  0  0  0  0  0  0  0
   19.8220  -30.7140   35.9440 C   0  0  0  0  0  0  0  0  0  0  0  0
   19.5970  -31.7520   36.8610 C   0  0  0  0  0  0  0  0  0  0  0  0
   19.6260  -33.1840   36.3800 C   0  0  0  0  0  0  0  0  0  0  0  0
   18.3860  -33.7440   36.2750 F   0  0  0  0  0  0  0  0  0  0  0  0
   19.3630  -31.4310   38.2160 C   0  0  0  0  0  0  0  0  0  0  0  0
   19.1120  -32.5080   39.2470 C   0  0  0  0  0  0  0  0  0  0  0  0
   19.6700  -33.7110   38.9350 F   0  0  0  0  0  0  0  0  0  0  0  0
   19.6040  -32.1760   40.4720 F   0  0  0  0  0  0  0  0  0  0  0  0
   17.7850  -32.7510   39.4330 F   0  0  0  0  0  0  0  0  0  0  0  0
   19.3510  -30.0770   38.6110 C   0  0  0  0  0  0  0  0  0  0  0  0
   18.6440  -26.8600   37.4110 O   0  0  0  0  0  0  0  0  0  0  0  0
   18.5050  -25.5330   37.7270 C   0  0  0  0  0  0  0  0  0  0  0  0
   17.6100  -24.7890   36.9570 C   0  0  0  0  0  0  0  0  0  0  0  0
   17.4200  -23.4320   37.2280 C   0  0  0  0  0  0  0  0  0  0  0  0
   18.1240  -22.8200   38.2660 C   0  0  0  0  0  0  0  0  0  0  0  0
   19.0170  -23.5640   39.0330 C   0  0  0  0  0  0  0  0  0  0  0  0
   19.6720  -22.9020   40.0360 O   0  0  0  0  0  0  0  0  0  0  0  0
   19.2070  -24.9220   38.7630 C   0  0  0  0  0  0  0  0  0  0  0  0
   20.8350  -28.7350   40.3150 H   0  0  0  0  0  0  0  0  0  0  0  0
   19.9794  -28.5812   35.6151 H   0  0  0  0  0  0  0  0  0  0  0  0
   20.0113  -30.9552   34.8876 H   0  0  0  0  0  0  0  0  0  0  0  0
   20.1057  -33.2101   35.3904 H   0  0  0  0  0  0  0  0  0  0  0  0
   20.1843  -33.7671   37.1272 H   0  0  0  0  0  0  0  0  0  0  0  0
   19.1560  -29.8265   39.6642 H   0  0  0  0  0  0  0  0  0  0  0  0
   17.0552  -25.2703   36.1382 H   0  0  0  0  0  0  0  0  0  0  0  0
   16.7142  -22.8447   36.6222 H   0  0  0  0  0  0  0  0  0  0  0  0
   17.9737  -21.7512   38.4781 H   0  0  0  0  0  0  0  0  0  0  0  0
   20.5960  -23.0140   40.1440 H   0  0  0  0  0  0  0  0  0  0  0  0
  1  2  2  0
  2  3  1  0
  3  4  1  0
  3  5  2  0
  5  6  1  0
  6  7  2  0
  7  8  1  0
  8  9  2  0
  9 10  1  0
 10 11  1  0
  9 12  1  0
 12 13  1  0
 13 14  1  0
 13 15  1  0
 13 16  1  0
 12 17  2  0
  5 18  1  0
 18 19  1  0
 19 20  2  0
 20 21  1  0
 21 22  2  0
 22 23  1  0
 23 24  1  0
 23 25  2  0
 25  2  1  0
 17  6  1  0
 25 19  1  0
  4 26  1  0
  7 27  1  0
  8 28  1  0
 10 29  1  0
 10 30  1  0
 17 31  1  0
 20 32  1  0
 21 33  1  0
 22 34  1  0
 24 35  1  0
M  END
>  <meeko>  (7) 
{"is_sidechain": [false], "free_energy": -6.878, "intermolecular_energy": -8.834, "internal_energy": 0.015}

$$$$
cand_010_out
     RDKit          3D

 35 37  0  0  0  0  0  0  0  0999 V2000
   18.8860  -28.8220   37.4590 O   0  0  0  0  0  0  0  0  0  0  0  0
   19.1920  -27.8150   38.0960 C   0  0  0  0  0  0  0  0  0  0  0  0
   19.8090  -27.9330   39.4370 C   0  0  0  0  0  0  0  0  0  0  0  0
   20.0330  -29.2110   39.9180 O   0  0  0  0  0  0  0  0  0  0  0  0
   20.1310  -26.8060   40.0980 C   0  0  0  0  0  0  0  0  0  0  0  0
   20.7600  -26.8050   41.4360 C   0  0  0  0  0  0  0  0  0  0  0  0
   20.2690  -26.0150   42.4800 C   0  0  0  0  0  0  0  0  0  0  0  0
   20.8960  -26.0090   43.7290 C   0  0  0  0  0  0  0  0  0  0  0  0
   22.0390  -26.7870   43.9660 C   0  0  0  0  0  0  0  0  0  0  0  0
   22.6840  -26.7580   45.3320 C   0  0  0  0  0  0  0  0  0  0  0  0
   22.3090  -25.6830   46.0830 F   0  0  0  0  0  0  0  0  0  0  0  0
   22.5520  -27.5890   42.9220 C   0  0  0  0  0  0  0  0  0  0  0  0
   23.7820  -28.4440   43.1200 C   0  0  0  0  0  0  0  0  0  0  0  0
   23.6450  -29.3920   44.0880 F   0  0  0  0  0  0  0  0  0  0  0  0
   24.1320  -29.1160   41.9880 F   0  0  0  0  0  0  0  0  0  0  0  0
   24.8750  -27.7110   43.4700 F   0  0  0  0  0  0  0  0  0  0  0  0
   21.9070  -27.5790   41.6670 C   0  0  0  0  0  0  0  0  0  0  0  0
   19.9300  -25.5270   39.5930 O   0  0  0  0  0  0  0  0  0  0  0  0
   19.3510  -25.3850   38.3580 C   0  0  0  0  0  0  0  0  0  0  0  0
   19.1550  -24.0830   37.8960 C   0  0  0  0  0  0  0  0  0  0  0  0
   18.5730  -23.8680   36.6450 C   0  0  0  0  0  0  0  0  0  0  0  0
   18.1870  -24.9540   35.8570 C   0  0  0  0  0  0  0  0  0  0  0  0
   18.3830  -26.2530   36.3200 C   0  0  0  0  0  0  0  0  0  0  0  0
   17.9840  -27.2700   35.4970 O   0  0  0  0  0  0  0  0  0  0  0  0
   18.9660  -26.4670   37.5720 C   0  0  0  0  0  0  0  0  0  0  0  0
   20.3850  -29.3320   40.7780 H   0  0  0  0  0  0  0  0  0  0  0  0
   19.3783  -25.3906   42.3162 H   0  0  0  0  0  0  0  0  0  0  0  0
   20.4874  -25.3853   44.5378 H   0  0  0  0  0  0  0  0  0  0  0  0
   22.4029  -27.6751   45.8704 H   0  0  0  0  0  0  0  0  0  0  0  0
   23.7706  -26.6845   45.1777 H   0  0  0  0  0  0  0  0  0  0  0  0
   22.3135  -28.1931   40.8499 H   0  0  0  0  0  0  0  0  0  0  0  0
   19.4586  -23.2270   38.5165 H   0  0  0  0  0  0  0  0  0  0  0  0
   18.4185  -22.8419   36.2800 H   0  0  0  0  0  0  0  0  0  0  0  0
   17.7286  -24.7840   34.8716 H   0  0  0  0  0  0  0  0  0  0  0  0
   17.5750  -27.0740   34.6760 H   0  0  0  0  0  0  0  0  0  0  0  0
  1  2  2  0
  2  3  1  0
  3  4  1  0
  3  5  2  0
  5  6  1  0
  6  7  2  0
  7  8  1  0
  8  9  2  0
  9 10  1  0
 10 11  1  0
  9 12  1  0
 12 13  1  0
 13 14  1  0
 13 15  1  0
 13 16  1  0
 12 17  2  0
  5 18  1  0
 18 19  1  0
 19 20  2  0
 20 21  1  0
 21 22  2  0
 22 23  1  0
 23 24  1  0
 23 25  2  0
 25  2  1  0
 17  6  1  0
 25 19  1  0
  4 26  1  0
  7 27  1  0
  8 28  1  0
 10 29  1  0
 10 30  1  0
 17 31  1  0
 20 32  1  0
 21 33  1  0
 22 34  1  0
 24 35  1  0
M  END
>  <meeko>  (8) 
{"is_sidechain": [false], "free_energy": -6.86, "intermolecular_energy": -8.644, "internal_energy": -0.153}

$$$$
cand_010_out
     RDKit          3D

 35 37  0  0  0  0  0  0  0  0999 V2000
   19.7110  -26.4690   41.9500 O   0  0  0  0  0  0  0  0  0  0  0  0
   20.4700  -26.2230   42.8870 C   0  0  0  0  0  0  0  0  0  0  0  0
   20.1230  -25.1840   43.8830 C   0  0  0  0  0  0  0  0  0  0  0  0
   18.9170  -24.5280   43.7150 O   0  0  0  0  0  0  0  0  0  0  0  0
   20.9800  -24.9500   44.8930 C   0  0  0  0  0  0  0  0  0  0  0  0
   20.7310  -23.9450   45.9490 C   0  0  0  0  0  0  0  0  0  0  0  0
   19.9750  -24.2450   47.0860 C   0  0  0  0  0  0  0  0  0  0  0  0
   19.7300  -23.2720   48.0600 C   0  0  0  0  0  0  0  0  0  0  0  0
   20.2260  -21.9680   47.9170 C   0  0  0  0  0  0  0  0  0  0  0  0
   19.9450  -20.9470   48.9950 C   0  0  0  0  0  0  0  0  0  0  0  0
   20.9920  -20.7630   49.8500 F   0  0  0  0  0  0  0  0  0  0  0  0
   20.9890  -21.6460   46.7730 C   0  0  0  0  0  0  0  0  0  0  0  0
   21.5460  -20.2560   46.5660 C   0  0  0  0  0  0  0  0  0  0  0  0
   20.6640  -19.2590   46.8550 F   0  0  0  0  0  0  0  0  0  0  0  0
   22.6420  -20.0180   47.3390 F   0  0  0  0  0  0  0  0  0  0  0  0
   21.9440  -20.0400   45.2820 F   0  0  0  0  0  0  0  0  0  0  0  0
   21.2240  -22.6400   45.8000 C   0  0  0  0  0  0  0  0  0  0  0  0
   22.1760  -25.6350   45.0700 O   0  0  0  0  0  0  0  0  0  0  0  0
   22.5300  -26.5970   44.1590 C   0  0  0  0  0  0  0  0  0  0  0  0
   23.7450  -27.2500   44.3670 C   0  0  0  0  0  0  0  0  0  0  0  0
   24.1640  -28.2420   43.4770 C   0  0  0  0  0  0  0  0  0  0  0  0
   23.3680  -28.5800   42.3800 C   0  0  0  0  0  0  0  0  0  0  0  0
   22.1560  -27.9260   42.1750 C   0  0  0  0  0  0  0  0  0  0  0  0
   21.4260  -28.3070   41.0820 O   0  0  0  0  0  0  0  0  0  0  0  0
   21.7370  -26.9340   43.0650 C   0  0  0  0  0  0  0  0  0  0  0  0
   18.1140  -25.0120   43.7300 H   0  0  0  0  0  0  0  0  0  0  0  0
   19.5680  -25.2586   47.2160 H   0  0  0  0  0  0  0  0  0  0  0  0
   19.1399  -23.5331   48.9509 H   0  0  0  0  0  0  0  0  0  0  0  0
   19.7143  -19.9853   48.5134 H   0  0  0  0  0  0  0  0  0  0  0  0
   19.1009  -21.3255   49.5902 H   0  0  0  0  0  0  0  0  0  0  0  0
   21.8078  -22.3858   44.9030 H   0  0  0  0  0  0  0  0  0  0  0  0
   24.3723  -26.9842   45.2306 H   0  0  0  0  0  0  0  0  0  0  0  0
   25.1219  -28.7575   43.6403 H   0  0  0  0  0  0  0  0  0  0  0  0
   23.6980  -29.3613   41.6795 H   0  0  0  0  0  0  0  0  0  0  0  0
   20.9410  -29.1080   41.1000 H   0  0  0  0  0  0  0  0  0  0  0  0
  1  2  2  0
  2  3  1  0
  3  4  1  0
  3  5  2  0
  5  6  1  0
  6  7  2  0
  7  8  1  0
  8  9  2  0
  9 10  1  0
 10 11  1  0
  9 12  1  0
 12 13  1  0
 13 14  1  0
 13 15  1  0
 13 16  1  0
 12 17  2  0
  5 18  1  0
 18 19  1  0
 19 20  2  0
 20 21  1  0
 21 22  2  0
 22 23  1  0
 23 24  1  0
 23 25  2  0
 25  2  1  0
 17  6  1  0
 25 19  1  0
  4 26  1  0
  7 27  1  0
  8 28  1  0
 10 29  1  0
 10 30  1  0
 17 31  1  0
 20 32  1  0
 21 33  1  0
 22 34  1  0
 24 35  1  0
M  END
>  <meeko>  (9) 
{"is_sidechain": [false], "free_energy": -6.839, "intermolecular_energy": -8.278, "internal_energy": -0.493}

$$$$
