cand_018_out
     RDKit          3D

 44 47  0  0  0  0  0  0  0  0999 V2000
   19.0590  -24.9780   40.6290 C   0  0  0  0  0  0  0  0  0  0  0  0
   19.1520  -26.3680   40.0590 C   0  0  0  0  0  0  0  0  0  0  0  0
   18.1990  -26.7920   39.1200 C   0  0  0  0  0  0  0  0  0  0  0  0
   18.2600  -28.0730   38.5720 C   0  0  0  0  0  0  0  0  0  0  0  0
   19.2810  -28.9560   38.9380 C   0  0  0  0  0  0  0  0  0  0  0  0
   19.3220  -30.3160   38.3590 C   0  0  0  0  0  0  0  0  0  0  0  0
   18.8960  -31.2940   39.2520 O   0  0  0  0  0  0  0  0  0  0  0  0
   18.8840  -32.6040   38.8440 C   0  0  0  0  0  0  0  0  0  0  0  0
   18.4650  -33.5530   39.7770 C   0  0  0  0  0  0  0  0  0  0  0  0
   18.4260  -34.9040   39.4260 C   0  0  0  0  0  0  0  0  0  0  0  0
   18.8050  -35.3050   38.1430 C   0  0  0  0  0  0  0  0  0  0  0  0
   19.2210  -34.3560   37.2140 C   0  0  0  0  0  0  0  0  0  0  0  0
   19.5770  -34.8160   35.9760 O   0  0  0  0  0  0  0  0  0  0  0  0
   19.2600  -33.0030   37.5660 C   0  0  0  0  0  0  0  0  0  0  0  0
   19.6930  -31.9730   36.6210 C   0  0  0  0  0  0  0  0  0  0  0  0
   20.0340  -32.2460   35.4710 O   0  0  0  0  0  0  0  0  0  0  0  0
   19.7060  -30.5700   37.0950 C   0  0  0  0  0  0  0  0  0  0  0  0
   20.1040  -29.6040   36.1880 O   0  0  0  0  0  0  0  0  0  0  0  0
   20.2290  -28.5290   39.8810 C   0  0  0  0  0  0  0  0  0  0  0  0
   20.1830  -27.2440   40.4520 C   0  0  0  0  0  0  0  0  0  0  0  0
   21.1530  -26.7980   41.3670 N   0  0  0  0  0  0  0  0  0  0  0  0
   22.4290  -27.5290   41.2260 C   0  0  0  0  0  0  0  0  0  0  0  0
   23.0140  -27.5300   42.6340 C   0  0  0  0  0  0  0  0  0  0  0  0
   21.7740  -27.6680   43.4970 C   0  0  0  0  0  0  0  0  0  0  0  0
   20.7710  -26.7620   42.7900 C   0  0  0  0  0  0  0  0  0  0  0  0
   19.0626  -25.0313   41.7277 H   0  0  0  0  0  0  0  0  0  0  0  0
   19.9194  -24.3835   40.2879 H   0  0  0  0  0  0  0  0  0  0  0  0
   18.1271  -24.5034   40.2879 H   0  0  0  0  0  0  0  0  0  0  0  0
   17.3953  -26.1066   38.8130 H   0  0  0  0  0  0  0  0  0  0  0  0
   17.4982  -28.3918   37.8453 H   0  0  0  0  0  0  0  0  0  0  0  0
   18.1659  -33.2375   40.7874 H   0  0  0  0  0  0  0  0  0  0  0  0
   18.0964  -35.6532   40.1608 H   0  0  0  0  0  0  0  0  0  0  0  0
   18.7747  -36.3694   37.8672 H   0  0  0  0  0  0  0  0  0  0  0  0
   18.9240  -34.9360   35.3150 H   0  0  0  0  0  0  0  0  0  0  0  0
   19.4620  -29.0770   35.7550 H   0  0  0  0  0  0  0  0  0  0  0  0
   21.0310  -29.2190   40.1822 H   0  0  0  0  0  0  0  0  0  0  0  0
   22.2537  -28.5567   40.8752 H   0  0  0  0  0  0  0  0  0  0  0  0
   23.1019  -27.0658   40.4894 H   0  0  0  0  0  0  0  0  0  0  0  0
   23.6984  -28.3786   42.7808 H   0  0  0  0  0  0  0  0  0  0  0  0
   23.6139  -26.6369   42.8632 H   0  0  0  0  0  0  0  0  0  0  0  0
   21.4205  -28.7094   43.5198 H   0  0  0  0  0  0  0  0  0  0  0  0
   21.9421  -27.3956   44.5494 H   0  0  0  0  0  0  0  0  0  0  0  0
   19.7473  -27.1414   42.9242 H   0  0  0  0  0  0  0  0  0  0  0  0
   20.7858  -25.7388   43.1937 H   0  0  0  0  0  0  0  0  0  0  0  0
  1  2  1  0
  2  3  2  0
  3  4  1  0
  4  5  2  0
  5  6  1  0
  6  7  1  0
  7  8  1  0
  8  9  2  0
  9 10  1  0
 10 11  2  0
 11 12  1  0
 12 13  1  0
 12 14  2  0
 14 15  1  0
 15 16  2  0
 15 17  1  0
 17 18  1  0
  5 19  1  0
 19 20  2  0
 20 21  1  0
 21 22  1  0
 22 23  1  0
 23 24  1  0
 24 25  1  0
 20  2  1  0
 25 21  1  0
 17  6  2  0
 14  8  1  0
  1 26  1  0
  1 27  1  0
  1 28  1  0
  3 29  1  0
  4 30  1  0
  9 31  1  0
 10 32  1  0
 11 33  1  0
 13 34  1  0
 18 35  1  0
 19 36  1  0
 22 37  1  0
 22 38  1  0
 23 39  1  0
 23 40  1  0
 24 41  1  0
 24 42  1  0
 25 43  1  0
 25 44  1  0
M  END
>  <meeko>  (1) 
{"is_sidechain": [false], "free_energy": -8.307, "intermolecular_energy": -9.764, "internal_energy": -0.47}

$$$$
cand_018_out
     RDKit          3D

 44 47  0  0  0  0  0  0  0  0999 V2000
   19.9080  -33.3030   35.0730 C   0  0  0  0  0  0  0  0  0  0  0  0
   19.7280  -32.1630   36.0390 C   0  0  0  0  0  0  0  0  0  0  0  0
   20.1830  -30.8830   35.6840 C   0  0  0  0  0  0  0  0  0  0  0  0
   20.0280  -29.8060   36.5560 C   0  0  0  0  0  0  0  0  0  0  0  0
   19.4050  -29.9770   37.7970 C   0  0  0  0  0  0  0  0  0  0  0  0
   19.2640  -28.8270   38.7150 C   0  0  0  0  0  0  0  0  0  0  0  0
   20.1750  -28.8620   39.7660 O   0  0  0  0  0  0  0  0  0  0  0  0
   20.1540  -27.8540   40.6950 C   0  0  0  0  0  0  0  0  0  0  0  0
   21.0750  -27.9380   41.7410 C   0  0  0  0  0  0  0  0  0  0  0  0
   21.1090  -26.9430   42.7190 C   0  0  0  0  0  0  0  0  0  0  0  0
   20.2250  -25.8640   42.6530 C   0  0  0  0  0  0  0  0  0  0  0  0
   19.3080  -25.7830   41.6080 C   0  0  0  0  0  0  0  0  0  0  0  0
   18.4710  -24.7010   41.6030 O   0  0  0  0  0  0  0  0  0  0  0  0
   19.2740  -26.7800   40.6290 C   0  0  0  0  0  0  0  0  0  0  0  0
   18.3250  -26.7330   39.5150 C   0  0  0  0  0  0  0  0  0  0  0  0
   17.5200  -25.8130   39.3830 O   0  0  0  0  0  0  0  0  0  0  0  0
   18.3650  -27.8430   38.5350 C   0  0  0  0  0  0  0  0  0  0  0  0
   17.4730  -27.7810   37.4790 O   0  0  0  0  0  0  0  0  0  0  0  0
   18.9560  -31.2600   38.1490 C   0  0  0  0  0  0  0  0  0  0  0  0
   19.1070  -32.3630   37.2870 C   0  0  0  0  0  0  0  0  0  0  0  0
   18.6230  -33.6410   37.6190 N   0  0  0  0  0  0  0  0  0  0  0  0
   18.1340  -33.7070   39.0110 C   0  0  0  0  0  0  0  0  0  0  0  0
   18.3960  -35.1490   39.4280 C   0  0  0  0  0  0  0  0  0  0  0  0
   19.7030  -35.4560   38.7220 C   0  0  0  0  0  0  0  0  0  0  0  0
   19.5150  -34.7850   37.3650 C   0  0  0  0  0  0  0  0  0  0  0  0
   20.0557  -34.2382   35.6329 H   0  0  0  0  0  0  0  0  0  0  0  0
   19.0128  -33.3921   34.4400 H   0  0  0  0  0  0  0  0  0  0  0  0
   20.7871  -33.1119   34.4400 H   0  0  0  0  0  0  0  0  0  0  0  0
   20.6666  -30.7283   34.7082 H   0  0  0  0  0  0  0  0  0  0  0  0
   20.3992  -28.8122   36.2653 H   0  0  0  0  0  0  0  0  0  0  0  0
   21.7725  -28.7869   41.7941 H   0  0  0  0  0  0  0  0  0  0  0  0
   21.8338  -27.0088   43.5438 H   0  0  0  0  0  0  0  0  0  0  0  0
   20.2529  -25.0802   43.4243 H   0  0  0  0  0  0  0  0  0  0  0  0
   18.5600  -24.0370   42.2590 H   0  0  0  0  0  0  0  0  0  0  0  0
   16.5750  -28.0130   37.6100 H   0  0  0  0  0  0  0  0  0  0  0  0
   18.4725  -31.4076   39.1260 H   0  0  0  0  0  0  0  0  0  0  0  0
   18.6889  -33.0076   39.6536 H   0  0  0  0  0  0  0  0  0  0  0  0
   17.0739  -33.4273   39.1002 H   0  0  0  0  0  0  0  0  0  0  0  0
   18.5027  -35.2352   40.5194 H   0  0  0  0  0  0  0  0  0  0  0  0
   17.5805  -35.8390   39.1656 H   0  0  0  0  0  0  0  0  0  0  0  0
   20.5576  -35.0240   39.2634 H   0  0  0  0  0  0  0  0  0  0  0  0
   19.9193  -36.5322   38.6512 H   0  0  0  0  0  0  0  0  0  0  0  0
   20.4812  -34.4399   36.9684 H   0  0  0  0  0  0  0  0  0  0  0  0
   19.0944  -35.4762   36.6198 H   0  0  0  0  0  0  0  0  0  0  0  0
  1  2  1  0
  2  3  2  0
  3  4  1  0
  4  5  2  0
  5  6  1  0
  6  7  1  0
  7  8  1  0
  8  9  2  0
  9 10  1  0
 10 11  2  0
 11 12  1  0
 12 13  1  0
 12 14  2  0
 14 15  1  0
 15 16  2  0
 15 17  1  0
 17 18  1  0
  5 19  1  0
 19 20  2  0
 20 21  1  0
 21 22  1  0
 22 23  1  0
 23 24  1  0
 24 25  1  0
 20  2  1  0
 25 21  1  0
 17  6  2  0
 14  8  1  0
  1 26  1  0
  1 27  1  0
  1 28  1  0
  3 29  1  0
  4 30  1  0
  9 31  1  0
 10 32  1  0
 11 33  1  0
 13 34  1  0
 18 35  1  0
 19 36  1  0
 22 37  1  0
 22 38  1  0
 23 39  1  0
 23 40  1  0
 24 41  1  0
 24 42  1  0
 25 43  1  0
 25 44  1  0
M  END
>  <meeko>  (2) 
{"is_sidechain": [false], "free_energy": -7.947, "intermolecular_energy": -10.005, "internal_energy": 0.195}

$$$$
cand_018_out
     RDKit          3D

 44 47  0  0  0  0  0  0  0  0999 V2000
   17.4930  -27.2110   36.5040 C   0  0  0  0  0  0  0  0  0  0  0  0
   18.3390  -27.1370   37.7470 C   0  0  0  0  0  0  0  0  0  0  0  0
   18.6310  -28.3150   38.4510 C   0  0  0  0  0  0  0  0  0  0  0  0
   19.4140  -28.2780   39.6050 C   0  0  0  0  0  0  0  0  0  0  0  0
   19.9360  -27.0680   40.0740 C   0  0  0  0  0  0  0  0  0  0  0  0
   20.7500  -27.0460   41.3080 C   0  0  0  0  0  0  0  0  0  0  0  0
   21.8100  -27.9460   41.2700 O   0  0  0  0  0  0  0  0  0  0  0  0
   22.6480  -28.0290   42.3520 C   0  0  0  0  0  0  0  0  0  0  0  0
   23.6890  -28.9570   42.2770 C   0  0  0  0  0  0  0  0  0  0  0  0
   24.5800  -29.0910   43.3430 C   0  0  0  0  0  0  0  0  0  0  0  0
   24.4320  -28.2980   44.4840 C   0  0  0  0  0  0  0  0  0  0  0  0
   23.3940  -27.3730   44.5550 C   0  0  0  0  0  0  0  0  0  0  0  0
   23.3060  -26.6290   45.7000 O   0  0  0  0  0  0  0  0  0  0  0  0
   22.5010  -27.2400   43.4870 C   0  0  0  0  0  0  0  0  0  0  0  0
   21.3960  -26.2810   43.5220 C   0  0  0  0  0  0  0  0  0  0  0  0
   21.2040  -25.5430   44.4870 O   0  0  0  0  0  0  0  0  0  0  0  0
   20.5020  -26.2230   42.3430 C   0  0  0  0  0  0  0  0  0  0  0  0
   19.4690  -25.3040   42.3820 O   0  0  0  0  0  0  0  0  0  0  0  0
   19.6370  -25.8920   39.3680 C   0  0  0  0  0  0  0  0  0  0  0  0
   18.8430  -25.9040   38.2060 C   0  0  0  0  0  0  0  0  0  0  0  0
   18.5740  -24.7340   37.4740 N   0  0  0  0  0  0  0  0  0  0  0  0
   19.7280  -23.8120   37.4530 C   0  0  0  0  0  0  0  0  0  0  0  0
   19.0960  -22.4290   37.3630 C   0  0  0  0  0  0  0  0  0  0  0  0
   17.8500  -22.5880   38.2140 C   0  0  0  0  0  0  0  0  0  0  0  0
   17.3590  -23.9810   37.8300 C   0  0  0  0  0  0  0  0  0  0  0  0
   16.4339  -27.3036   36.7863 H   0  0  0  0  0  0  0  0  0  0  0  0
   17.6352  -26.2970   35.9087 H   0  0  0  0  0  0  0  0  0  0  0  0
   17.7917  -28.0864   35.9087 H   0  0  0  0  0  0  0  0  0  0  0  0
   18.2387  -29.2770   38.0895 H   0  0  0  0  0  0  0  0  0  0  0  0
   19.6229  -29.2095   40.1515 H   0  0  0  0  0  0  0  0  0  0  0  0
   23.8066  -29.5814   41.3791 H   0  0  0  0  0  0  0  0  0  0  0  0
   25.3999  -29.8220   43.2848 H   0  0  0  0  0  0  0  0  0  0  0  0
   25.1340  -28.4044   45.3241 H   0  0  0  0  0  0  0  0  0  0  0  0
   24.0020  -26.0460   45.9330 H   0  0  0  0  0  0  0  0  0  0  0  0
   19.5150  -24.5250   41.8630 H   0  0  0  0  0  0  0  0  0  0  0  0
   20.0347  -24.9337   39.7335 H   0  0  0  0  0  0  0  0  0  0  0  0
   20.3233  -23.9103   38.3727 H   0  0  0  0  0  0  0  0  0  0  0  0
   20.4171  -24.0166   36.6204 H   0  0  0  0  0  0  0  0  0  0  0  0
   19.7640  -21.6580   37.7746 H   0  0  0  0  0  0  0  0  0  0  0  0
   18.8877  -22.1057   36.3324 H   0  0  0  0  0  0  0  0  0  0  0  0
   18.0917  -22.5338   39.2857 H   0  0  0  0  0  0  0  0  0  0  0  0
   17.1021  -21.7991   38.0458 H   0  0  0  0  0  0  0  0  0  0  0  0
   16.8452  -24.4565   38.6785 H   0  0  0  0  0  0  0  0  0  0  0  0
   16.6375  -23.9485   37.0003 H   0  0  0  0  0  0  0  0  0  0  0  0
  1  2  1  0
  2  3  2  0
  3  4  1  0
  4  5  2  0
  5  6  1  0
  6  7  1  0
  7  8  1  0
  8  9  2  0
  9 10  1  0
 10 11  2  0
 11 12  1  0
 12 13  1  0
 12 14  2  0
 14 15  1  0
 15 16  2  0
 15 17  1  0
 17 18  1  0
  5 19  1  0
 19 20  2  0
 20 21  1  0
 21 22  1  0
 22 23  1  0
 23 24  1  0
 24 25  1  0
 20  2  1  0
 25 21  1  0
 17  6  2  0
 14  8  1  0
  1 26  1  0
  1 27  1  0
  1 28  1  0
  3 29  1  0
  4 30  1  0
  9 31  1  0
 10 32  1  0
 11 33  1  0
 13 34  1  0
 18 35  1  0
 19 36  1  0
 22 37  1  0
 22 38  1  0
 23 39  1  0
 23 40  1  0
 24 41  1  0
 24 42  1  0
 25 43  1  0
 25 44  1  0
M  END
>  <meeko>  (3) 
{"is_sidechain": [false], "free_energy": -7.367, "intermolecular_energy": -8.715, "internal_energy": -0.413}

$$$$
cand_018_out
     RDKit          3D

 44 47  0  0  0  0  0  0  0  0999 V2000
   19.6850  -24.4950   38.0070 C   0  0  0  0  0  0  0  0  0  0  0  0
   19.6710  -25.9830   37.7830 C   0  0  0  0  0  0  0  0  0  0  0  0
   19.3550  -26.4840   36.5110 C   0  0  0  0  0  0  0  0  0  0  0  0
   19.3360  -27.8590   36.2720 C   0  0  0  0  0  0  0  0  0  0  0  0
   19.6460  -28.7630   37.2930 C   0  0  0  0  0  0  0  0  0  0  0  0
   19.6050  -30.2170   37.0250 C   0  0  0  0  0  0  0  0  0  0  0  0
   19.9250  -30.5320   35.7090 O   0  0  0  0  0  0  0  0  0  0  0  0
   19.9250  -31.8490   35.3240 C   0  0  0  0  0  0  0  0  0  0  0  0
   20.2370  -32.1180   33.9900 C   0  0  0  0  0  0  0  0  0  0  0  0
   20.2570  -33.4370   33.5330 C   0  0  0  0  0  0  0  0  0  0  0  0
   19.9680  -34.4860   34.4080 C   0  0  0  0  0  0  0  0  0  0  0  0
   19.6580  -34.2140   35.7380 C   0  0  0  0  0  0  0  0  0  0  0  0
   19.3850  -35.2880   36.5400 O   0  0  0  0  0  0  0  0  0  0  0  0
   19.6370  -32.8930   36.1950 C   0  0  0  0  0  0  0  0  0  0  0  0
   19.3160  -32.5640   37.5840 C   0  0  0  0  0  0  0  0  0  0  0  0
   19.0570  -33.4320   38.4160 O   0  0  0  0  0  0  0  0  0  0  0  0
   19.3130  -31.1330   37.9670 C   0  0  0  0  0  0  0  0  0  0  0  0
   19.0210  -30.8360   39.2850 O   0  0  0  0  0  0  0  0  0  0  0  0
   19.9560  -28.2570   38.5650 C   0  0  0  0  0  0  0  0  0  0  0  0
   19.9750  -26.8750   38.8310 C   0  0  0  0  0  0  0  0  0  0  0  0
   20.3240  -26.3620   40.0920 N   0  0  0  0  0  0  0  0  0  0  0  0
   21.4770  -27.0720   40.6820 C   0  0  0  0  0  0  0  0  0  0  0  0
   21.2360  -26.9880   42.1840 C   0  0  0  0  0  0  0  0  0  0  0  0
   19.7260  -27.1070   42.2750 C   0  0  0  0  0  0  0  0  0  0  0  0
   19.2520  -26.2600   41.0980 C   0  0  0  0  0  0  0  0  0  0  0  0
   19.6870  -24.2868   39.0871 H   0  0  0  0  0  0  0  0  0  0  0  0
   20.5872  -24.0637   37.5488 H   0  0  0  0  0  0  0  0  0  0  0  0
   18.7910  -24.0468   37.5488 H   0  0  0  0  0  0  0  0  0  0  0  0
   19.1199  -25.7861   35.6939 H   0  0  0  0  0  0  0  0  0  0  0  0
   19.0749  -28.2349   35.2717 H   0  0  0  0  0  0  0  0  0  0  0  0
   20.4666  -31.2923   33.3004 H   0  0  0  0  0  0  0  0  0  0  0  0
   20.5009  -33.6502   32.4818 H   0  0  0  0  0  0  0  0  0  0  0  0
   19.9852  -35.5251   34.0475 H   0  0  0  0  0  0  0  0  0  0  0  0
   18.5040  -35.4620   36.8050 H   0  0  0  0  0  0  0  0  0  0  0  0
   18.1330  -30.8450   39.5820 H   0  0  0  0  0  0  0  0  0  0  0  0
   20.1908  -28.9607   39.3772 H   0  0  0  0  0  0  0  0  0  0  0  0
   21.5025  -28.1199   40.3486 H   0  0  0  0  0  0  0  0  0  0  0  0
   22.4406  -26.6333   40.3838 H   0  0  0  0  0  0  0  0  0  0  0  0
   21.7335  -27.8134   42.7143 H   0  0  0  0  0  0  0  0  0  0  0  0
   21.6347  -26.0718   42.6440 H   0  0  0  0  0  0  0  0  0  0  0  0
   19.4032  -28.1530   42.1666 H   0  0  0  0  0  0  0  0  0  0  0  0
   19.3194  -26.7770   43.2424 H   0  0  0  0  0  0  0  0  0  0  0  0
   18.3068  -26.6533   40.6957 H   0  0  0  0  0  0  0  0  0  0  0  0
   19.0621  -25.2172   41.3921 H   0  0  0  0  0  0  0  0  0  0  0  0
  1  2  1  0
  2  3  2  0
  3  4  1  0
  4  5  2  0
  5  6  1  0
  6  7  1  0
  7  8  1  0
  8  9  2  0
  9 10  1  0
 10 11  2  0
 11 12  1  0
 12 13  1  0
 12 14  2  0
 14 15  1  0
 15 16  2  0
 15 17  1  0
 17 18  1  0
  5 19  1  0
 19 20  2  0
 20 21  1  0
 21 22  1  0
 22 23  1  0
 23 24  1  0
 24 25  1  0
 20  2  1  0
 25 21  1  0
 17  6  2  0
 14  8  1  0
  1 26  1  0
  1 27  1  0
  1 28  1  0
  3 29  1  0
  4 30  1  0
  9 31  1  0
 10 32  1  0
 11 33  1  0
 13 34  1  0
 18 35  1  0
 19 36  1  0
 22 37  1  0
 22 38  1  0
 23 39  1  0
 23 40  1  0
 24 41  1  0
 24 42  1  0
 25 43  1  0
 25 44  1  0
M  END
>  <meeko>  (4) 
{"is_sidechain": [false], "free_energy": -7.341, "intermolecular_energy": -8.886, "internal_energy": -0.212}

$$$$
cand_018_out
     RDKit          3D

 44 47  0  0  0  0  0  0  0  0999 V2000
   19.7130  -24.5660   40.0020 C   0  0  0  0  0  0  0  0  0  0  0  0
   19.6390  -25.9740   39.4740 C   0  0  0  0  0  0  0  0  0  0  0  0
   20.0730  -27.0360   40.2820 C   0  0  0  0  0  0  0  0  0  0  0  0
   20.0150  -28.3510   39.8210 C   0  0  0  0  0  0  0  0  0  0  0  0
   19.5090  -28.6380   38.5490 C   0  0  0  0  0  0  0  0  0  0  0  0
   19.4690  -30.0370   38.0710 C   0  0  0  0  0  0  0  0  0  0  0  0
   19.0650  -30.9320   39.0560 O   0  0  0  0  0  0  0  0  0  0  0  0
   18.9850  -32.2660   38.7470 C   0  0  0  0  0  0  0  0  0  0  0  0
   18.5910  -33.1300   39.7700 C   0  0  0  0  0  0  0  0  0  0  0  0
   18.4870  -34.5000   39.5220 C   0  0  0  0  0  0  0  0  0  0  0  0
   18.7740  -35.0060   38.2520 C   0  0  0  0  0  0  0  0  0  0  0  0
   19.1660  -34.1410   37.2340 C   0  0  0  0  0  0  0  0  0  0  0  0
   19.4320  -34.7020   36.0150 O   0  0  0  0  0  0  0  0  0  0  0  0
   19.2710  -32.7690   37.4830 C   0  0  0  0  0  0  0  0  0  0  0  0
   19.6800  -31.8270   36.4410 C   0  0  0  0  0  0  0  0  0  0  0  0
   19.9430  -32.1940   35.2970 O   0  0  0  0  0  0  0  0  0  0  0  0
   19.7690  -30.3950   36.8090 C   0  0  0  0  0  0  0  0  0  0  0  0
   20.1430  -29.5120   35.8120 O   0  0  0  0  0  0  0  0  0  0  0  0
   19.0800  -27.5720   37.7430 C   0  0  0  0  0  0  0  0  0  0  0  0
   19.1360  -26.2370   38.1840 C   0  0  0  0  0  0  0  0  0  0  0  0
   18.6710  -25.1700   37.3960 N   0  0  0  0  0  0  0  0  0  0  0  0
   17.4260  -24.5830   37.9310 C   0  0  0  0  0  0  0  0  0  0  0  0
   16.6920  -24.0790   36.6940 C   0  0  0  0  0  0  0  0  0  0  0  0
   17.0370  -25.1360   35.6610 C   0  0  0  0  0  0  0  0  0  0  0  0
   18.5080  -25.4200   35.9530 C   0  0  0  0  0  0  0  0  0  0  0  0
   19.7119  -24.5863   41.1018 H   0  0  0  0  0  0  0  0  0  0  0  0
   20.6375  -24.0886   39.6450 H   0  0  0  0  0  0  0  0  0  0  0  0
   18.8437  -23.9944   39.6450 H   0  0  0  0  0  0  0  0  0  0  0  0
   20.4630  -26.8292   41.2895 H   0  0  0  0  0  0  0  0  0  0  0  0
   20.3704  -29.1699   40.4636 H   0  0  0  0  0  0  0  0  0  0  0  0
   18.3628  -32.7322   40.7698 H   0  0  0  0  0  0  0  0  0  0  0  0
   18.1786  -35.1821   40.3280 H   0  0  0  0  0  0  0  0  0  0  0  0
   18.6905  -36.0853   38.0567 H   0  0  0  0  0  0  0  0  0  0  0  0
   19.8950  -35.5150   35.9640 H   0  0  0  0  0  0  0  0  0  0  0  0
   20.9200  -28.9970   35.9100 H   0  0  0  0  0  0  0  0  0  0  0  0
   18.6887  -27.7864   36.7376 H   0  0  0  0  0  0  0  0  0  0  0  0
   16.8297  -25.3437   38.4562 H   0  0  0  0  0  0  0  0  0  0  0  0
   17.6161  -23.7850   38.6639 H   0  0  0  0  0  0  0  0  0  0  0  0
   15.6068  -24.0300   36.8669 H   0  0  0  0  0  0  0  0  0  0  0  0
   16.9799  -23.0602   36.3952 H   0  0  0  0  0  0  0  0  0  0  0  0
   16.4237  -26.0390   35.7969 H   0  0  0  0  0  0  0  0  0  0  0  0
   16.8510  -24.8131   34.6260 H   0  0  0  0  0  0  0  0  0  0  0  0
   18.7543  -26.4647   35.7123 H   0  0  0  0  0  0  0  0  0  0  0  0
   19.1763  -24.7891   35.3485 H   0  0  0  0  0  0  0  0  0  0  0  0
  1  2  1  0
  2  3  2  0
  3  4  1  0
  4  5  2  0
  5  6  1  0
  6  7  1  0
  7  8  1  0
  8  9  2  0
  9 10  1  0
 10 11  2  0
 11 12  1  0
 12 13  1  0
 12 14  2  0
 14 15  1  0
 15 16  2  0
 15 17  1  0
 17 18  1  0
  5 19  1  0
 19 20  2  0
 20 21  1  0
 21 22  1  0
 22 23  1  0
 23 24  1  0
 24 25  1  0
 20  2  1  0
 25 21  1  0
 17  6  2  0
 14  8  1  0
  1 26  1  0
  1 27  1  0
  1 28  1  0
  3 29  1  0
  4 30  1  0
  9 31  1  0
 10 32  1  0
 11 33  1  0
 13 34  1  0
 18 35  1  0
 19 36  1  0
 22 37  1  0
 22 38  1  0
 23 39  1  0
 23 40  1  0
 24 41  1  0
 24 42  1  0
 25 43  1  0
 25 44  1  0
M  END
>  <meeko>  (5) 
{"is_sidechain": [false], "free_energy": -7.334, "intermolecular_energy": -9.171, "internal_energy": 0.082}

$$$$
cand_018_out
     RDKit          3D

 44 47  0  0  0  0  0  0  0  0999 V2000
   19.3290  -23.7320   37.4500 C   0  0  0  0  0  0  0  0  0  0  0  0
   19.3200  -23.7900   38.9540 C   0  0  0  0  0  0  0  0  0  0  0  0
   19.2890  -22.5940   39.6880 C   0  0  0  0  0  0  0  0  0  0  0  0
   19.2770  -22.6150   41.0830 C   0  0  0  0  0  0  0  0  0  0  0  0
   19.2800  -23.8290   41.7770 C   0  0  0  0  0  0  0  0  0  0  0  0
   19.2830  -23.8330   43.2560 C   0  0  0  0  0  0  0  0  0  0  0  0
   20.4880  -24.2760   43.7910 O   0  0  0  0  0  0  0  0  0  0  0  0
   20.6270  -24.3300   45.1550 C   0  0  0  0  0  0  0  0  0  0  0  0
   21.8470  -24.7960   45.6480 C   0  0  0  0  0  0  0  0  0  0  0  0
   22.0560  -24.8730   47.0260 C   0  0  0  0  0  0  0  0  0  0  0  0
   21.0480  -24.4850   47.9110 C   0  0  0  0  0  0  0  0  0  0  0  0
   19.8330  -24.0190   47.4150 C   0  0  0  0  0  0  0  0  0  0  0  0
   18.8890  -23.6550   48.3360 O   0  0  0  0  0  0  0  0  0  0  0  0
   19.6230  -23.9420   46.0350 C   0  0  0  0  0  0  0  0  0  0  0  0
   18.3610  -23.4600   45.4730 C   0  0  0  0  0  0  0  0  0  0  0  0
   17.4290  -23.0940   46.1860 O   0  0  0  0  0  0  0  0  0  0  0  0
   18.2370  -23.4250   43.9970 C   0  0  0  0  0  0  0  0  0  0  0  0
   17.0450  -22.9550   43.4780 O   0  0  0  0  0  0  0  0  0  0  0  0
   19.3150  -25.0230   41.0380 C   0  0  0  0  0  0  0  0  0  0  0  0
   19.3350  -25.0260   39.6310 C   0  0  0  0  0  0  0  0  0  0  0  0
   19.3300  -26.2180   38.8870 N   0  0  0  0  0  0  0  0  0  0  0  0
   18.0080  -26.8770   38.8990 C   0  0  0  0  0  0  0  0  0  0  0  0
   18.3320  -28.3610   38.7850 C   0  0  0  0  0  0  0  0  0  0  0  0
   19.6090  -28.4760   39.5970 C   0  0  0  0  0  0  0  0  0  0  0  0
   20.3700  -27.2140   39.2030 C   0  0  0  0  0  0  0  0  0  0  0  0
   19.4901  -22.6938   37.1241 H   0  0  0  0  0  0  0  0  0  0  0  0
   20.1393  -24.3676   37.0634 H   0  0  0  0  0  0  0  0  0  0  0  0
   18.3642  -24.0922   37.0634 H   0  0  0  0  0  0  0  0  0  0  0  0
   19.2740  -21.6302   39.1579 H   0  0  0  0  0  0  0  0  0  0  0  0
   19.2651  -21.6678   41.6421 H   0  0  0  0  0  0  0  0  0  0  0  0
   22.6420  -25.1019   44.9520 H   0  0  0  0  0  0  0  0  0  0  0  0
   23.0169  -25.2402   47.4156 H   0  0  0  0  0  0  0  0  0  0  0  0
   21.2132  -24.5473   48.9967 H   0  0  0  0  0  0  0  0  0  0  0  0
   18.3130  -24.3000   48.6980 H   0  0  0  0  0  0  0  0  0  0  0  0
   16.2460  -23.4150   43.6480 H   0  0  0  0  0  0  0  0  0  0  0  0
   19.3271  -25.9832   41.5745 H   0  0  0  0  0  0  0  0  0  0  0  0
   17.4743  -26.6647   39.8371 H   0  0  0  0  0  0  0  0  0  0  0  0
   17.3529  -26.5243   38.0888 H   0  0  0  0  0  0  0  0  0  0  0  0
   17.5294  -28.9782   39.2150 H   0  0  0  0  0  0  0  0  0  0  0  0
   18.4366  -28.7108   37.7473 H   0  0  0  0  0  0  0  0  0  0  0  0
   19.3936  -28.4891   40.6756 H   0  0  0  0  0  0  0  0  0  0  0  0
   20.1688  -29.4027   39.4023 H   0  0  0  0  0  0  0  0  0  0  0  0
   20.9971  -26.8656   40.0369 H   0  0  0  0  0  0  0  0  0  0  0  0
   21.0436  -27.3893   38.3512 H   0  0  0  0  0  0  0  0  0  0  0  0
  1  2  1  0
  2  3  2  0
  3  4  1  0
  4  5  2  0
  5  6  1  0
  6  7  1  0
  7  8  1  0
  8  9  2  0
  9 10  1  0
 10 11  2  0
 11 12  1  0
 12 13  1  0
 12 14  2  0
 14 15  1  0
 15 16  2  0
 15 17  1  0
 17 18  1  0
  5 19  1  0
 19 20  2  0
 20 21  1  0
 21 22  1  0
 22 23  1  0
 23 24  1  0
 24 25  1  0
 20  2  1  0
 25 21  1  0
 17  6  2  0
 14  8  1  0
  1 26  1  0
  1 27  1  0
  1 28  1  0
  3 29  1  0
  4 30  1  0
  9 31  1  0
 10 32  1  0
 11 33  1  0
 13 34  1  0
 18 35  1  0
 19 36  1  0
 22 37  1  0
 22 38  1  0
 23 39  1  0
 23 40  1  0
 24 41  1  0
 24 42  1  0
 25 43  1  0
 25 44  1  0
M  END
>  <meeko>  (6) 
{"is_sidechain": [false], "free_energy": -7.2, "intermolecular_energy": -8.262, "internal_energy": -0.67}

$$$$
cand_018_out
     RDKit          3D

 44 47  0  0  0  0  0  0  0  0999 V2000
   19.0080  -20.6860   48.2910 C   0  0  0  0  0  0  0  0  0  0  0  0
   19.4630  -21.7400   47.3180 C   0  0  0  0  0  0  0  0  0  0  0  0
   19.3890  -23.0930   47.6860 C   0  0  0  0  0  0  0  0  0  0  0  0
   19.8010  -24.0930   46.8050 C   0  0  0  0  0  0  0  0  0  0  0  0
   20.2830  -23.7680   45.5320 C   0  0  0  0  0  0  0  0  0  0  0  0
   20.7300  -24.8400   44.6180 C   0  0  0  0  0  0  0  0  0  0  0  0
   21.9350  -25.4130   45.0090 O   0  0  0  0  0  0  0  0  0  0  0  0
   22.4670  -26.4230   44.2470 C   0  0  0  0  0  0  0  0  0  0  0  0
   23.6850  -26.9580   44.6680 C   0  0  0  0  0  0  0  0  0  0  0  0
   24.2800  -27.9900   43.9390 C   0  0  0  0  0  0  0  0  0  0  0  0
   23.6580  -28.4870   42.7920 C   0  0  0  0  0  0  0  0  0  0  0  0
   22.4420  -27.9520   42.3760 C   0  0  0  0  0  0  0  0  0  0  0  0
   21.8870  -28.4850   41.2450 O   0  0  0  0  0  0  0  0  0  0  0  0
   21.8470  -26.9180   43.1050 C   0  0  0  0  0  0  0  0  0  0  0  0
   20.5710  -26.3260   42.7020 C   0  0  0  0  0  0  0  0  0  0  0  0
   19.9580  -26.7140   41.7080 O   0  0  0  0  0  0  0  0  0  0  0  0
   20.0290  -25.2300   43.5380 C   0  0  0  0  0  0  0  0  0  0  0  0
   18.8150  -24.6880   43.1540 O   0  0  0  0  0  0  0  0  0  0  0  0
   20.3590  -22.4130   45.1710 C   0  0  0  0  0  0  0  0  0  0  0  0
   19.9550  -21.3870   46.0460 C   0  0  0  0  0  0  0  0  0  0  0  0
   19.9920  -20.0320   45.6740 N   0  0  0  0  0  0  0  0  0  0  0  0
   18.9710  -19.7040   44.6590 C   0  0  0  0  0  0  0  0  0  0  0  0
   19.5980  -18.5750   43.8510 C   0  0  0  0  0  0  0  0  0  0  0  0
   21.0630  -18.9710   43.8290 C   0  0  0  0  0  0  0  0  0  0  0  0
   21.2920  -19.4860   45.2460 C   0  0  0  0  0  0  0  0  0  0  0  0
   19.1629  -21.0448   49.3192 H   0  0  0  0  0  0  0  0  0  0  0  0
   19.5888  -19.7654   48.1325 H   0  0  0  0  0  0  0  0  0  0  0  0
   17.9397  -20.4773   48.1325 H   0  0  0  0  0  0  0  0  0  0  0  0
   19.0024  -23.3671   48.6787 H   0  0  0  0  0  0  0  0  0  0  0  0
   19.7465  -25.1473   47.1139 H   0  0  0  0  0  0  0  0  0  0  0  0
   24.1754  -26.5678   45.5720 H   0  0  0  0  0  0  0  0  0  0  0  0
   25.2406  -28.4121   44.2691 H   0  0  0  0  0  0  0  0  0  0  0  0
   24.1278  -29.2995   42.2183 H   0  0  0  0  0  0  0  0  0  0  0  0
   22.4380  -28.8360   40.5740 H   0  0  0  0  0  0  0  0  0  0  0  0
   18.2320  -25.1820   42.6120 H   0  0  0  0  0  0  0  0  0  0  0  0
   20.7452  -22.1458   44.1763 H   0  0  0  0  0  0  0  0  0  0  0  0
   18.7638  -20.5740   44.0185 H   0  0  0  0  0  0  0  0  0  0  0  0
   18.0079  -19.4177   45.1068 H   0  0  0  0  0  0  0  0  0  0  0  0
   19.1809  -18.5332   42.8340 H   0  0  0  0  0  0  0  0  0  0  0  0
   19.4172  -17.5760   44.2745 H   0  0  0  0  0  0  0  0  0  0  0  0
   21.2496  -19.7597   43.0853 H   0  0  0  0  0  0  0  0  0  0  0  0
   21.7344  -18.1453   43.5507 H   0  0  0  0  0  0  0  0  0  0  0  0
   22.0611  -20.2725   45.2509 H   0  0  0  0  0  0  0  0  0  0  0  0
   21.6460  -18.6917   45.9197 H   0  0  0  0  0  0  0  0  0  0  0  0
  1  2  1  0
  2  3  2  0
  3  4  1  0
  4  5  2  0
  5  6  1  0
  6  7  1  0
  7  8  1  0
  8  9  2  0
  9 10  1  0
 10 11  2  0
 11 12  1  0
 12 13  1  0
 12 14  2  0
 14 15  1  0
 15 16  2  0
 15 17  1  0
 17 18  1  0
  5 19  1  0
 19 20  2  0
 20 21  1  0
 21 22  1  0
 22 23  1  0
 23 24  1  0
 24 25  1  0
 20  2  1  0
 25 21  1  0
 17  6  2  0
 14  8  1  0
  1 26  1  0
  1 27  1  0
  1 28  1  0
  3 29  1  0
  4 30  1  0
  9 31  1  0
 10 32  1  0
 11 33  1  0
 13 34  1  0
 18 35  1  0
 19 36  1  0
 22 37  1  0
 22 38  1  0
 23 39  1  0
 23 40  1  0
 24 41  1  0
 24 42  1  0
 25 43  1  0
 25 44  1  0
M  END
>  <meeko>  (7) 
{"is_sidechain": [false], "free_energy": -7.082, "intermolecular_energy": -8.06, "internal_energy": -0.734}

$$$$
cand_018_out
     RDKit          3D

 44 47  0  0  0  0  0  0  0  0999 V2000
   18.4900  -21.9230   46.4790 C   0  0  0  0  0  0  0  0  0  0  0  0
   19.3100  -23.0140   45.8440 C   0  0  0  0  0  0  0  0  0  0  0  0
   18.8870  -23.5740   44.6290 C   0  0  0  0  0  0  0  0  0  0  0  0
   19.6270  -24.5850   44.0150 C   0  0  0  0  0  0  0  0  0  0  0  0
   20.8130  -25.0510   44.5930 C   0  0  0  0  0  0  0  0  0  0  0  0
   21.5760  -26.1340   43.9370 C   0  0  0  0  0  0  0  0  0  0  0  0
   22.5090  -26.7250   44.7830 O   0  0  0  0  0  0  0  0  0  0  0  0
   23.2870  -27.7460   44.3010 C   0  0  0  0  0  0  0  0  0  0  0  0
   24.2210  -28.2990   45.1800 C   0  0  0  0  0  0  0  0  0  0  0  0
   25.0430  -29.3430   44.7540 C   0  0  0  0  0  0  0  0  0  0  0  0
   24.9330  -29.8350   43.4520 C   0  0  0  0  0  0  0  0  0  0  0  0
   24.0010  -29.2830   42.5780 C   0  0  0  0  0  0  0  0  0  0  0  0
   23.9450  -29.8120   41.3180 O   0  0  0  0  0  0  0  0  0  0  0  0
   23.1780  -28.2360   43.0050 C   0  0  0  0  0  0  0  0  0  0  0  0
   22.1860  -27.6260   42.1180 C   0  0  0  0  0  0  0  0  0  0  0  0
   22.0240  -28.0090   40.9610 O   0  0  0  0  0  0  0  0  0  0  0  0
   21.3680  -26.5180   42.6650 C   0  0  0  0  0  0  0  0  0  0  0  0
   20.4250  -25.9590   41.8220 O   0  0  0  0  0  0  0  0  0  0  0  0
   21.2290  -24.4900   45.8110 C   0  0  0  0  0  0  0  0  0  0  0  0
   20.4950  -23.4740   46.4520 C   0  0  0  0  0  0  0  0  0  0  0  0
   20.9290  -22.8830   47.6510 N   0  0  0  0  0  0  0  0  0  0  0  0
   22.2840  -22.3100   47.5310 C   0  0  0  0  0  0  0  0  0  0  0  0
   22.8700  -22.4440   48.9310 C   0  0  0  0  0  0  0  0  0  0  0  0
   22.2880  -23.7650   49.3980 C   0  0  0  0  0  0  0  0  0  0  0  0
   20.8570  -23.7050   48.8720 C   0  0  0  0  0  0  0  0  0  0  0  0
   18.5531  -22.0070   47.5740 H   0  0  0  0  0  0  0  0  0  0  0  0
   18.8768  -20.9428   46.1635 H   0  0  0  0  0  0  0  0  0  0  0  0
   17.4409  -22.0220   46.1635 H   0  0  0  0  0  0  0  0  0  0  0  0
   17.9623  -23.2122   44.1556 H   0  0  0  0  0  0  0  0  0  0  0  0
   19.2748  -25.0197   43.0679 H   0  0  0  0  0  0  0  0  0  0  0  0
   24.3084  -27.9123   46.2061 H   0  0  0  0  0  0  0  0  0  0  0  0
   25.7791  -29.7792   45.4453 H   0  0  0  0  0  0  0  0  0  0  0  0
   25.5820  -30.6577   43.1174 H   0  0  0  0  0  0  0  0  0  0  0  0
   23.3090  -30.4690   41.1140 H   0  0  0  0  0  0  0  0  0  0  0  0
   20.0870  -26.4550   41.1020 H   0  0  0  0  0  0  0  0  0  0  0  0
   22.1556  -24.8550   46.2781 H   0  0  0  0  0  0  0  0  0  0  0  0
   22.8833  -22.8743   46.8013 H   0  0  0  0  0  0  0  0  0  0  0  0
   22.2720  -21.2688   47.1765 H   0  0  0  0  0  0  0  0  0  0  0  0
   23.9690  -22.4808   48.9013 H   0  0  0  0  0  0  0  0  0  0  0  0
   22.6307  -21.5981   49.5922 H   0  0  0  0  0  0  0  0  0  0  0  0
   22.8349  -24.6150   48.9640 H   0  0  0  0  0  0  0  0  0  0  0  0
   22.3474  -23.9078   50.4871 H   0  0  0  0  0  0  0  0  0  0  0  0
   20.4899  -24.7148   48.6363 H   0  0  0  0  0  0  0  0  0  0  0  0
   20.1637  -23.2808   49.6132 H   0  0  0  0  0  0  0  0  0  0  0  0
  1  2  1  0
  2  3  2  0
  3  4  1  0
  4  5  2  0
  5  6  1  0
  6  7  1  0
  7  8  1  0
  8  9  2  0
  9 10  1  0
 10 11  2  0
 11 12  1  0
 12 13  1  0
 12 14  2  0
 14 15  1  0
 15 16  2  0
 15 17  1  0
 17 18  1  0
  5 19  1  0
 19 20  2  0
 20 21  1  0
 21 22  1  0
 22 23  1  0
 23 24  1  0
 24 25  1  0
 20  2  1  0
 25 21  1  0
 17  6  2  0
 14  8  1  0
  1 26  1  0
  1 27  1  0
  1 28  1  0
  3 29  1  0
  4 30  1  0
  9 31  1  0
 10 32  1  0
 11 33  1  0
 13 34  1  0
 18 35  1  0
 19 36  1  0
 22 37  1  0
 22 38  1  0
 23 39  1  0
 23 40  1  0
 24 41  1  0
 24 42  1  0
 25 43  1  0
 25 44  1  0
M  END
>  <meeko>  (8) 
{"is_sidechain": [false], "free_energy": -6.933, "intermolecular_energy": -8.508, "internal_energy": -0.11}

$$$$
cand_018_out
     RDKit          3D

 44 47  0  0  0  0  0  0  0  0999 V2000
   20.0450  -32.3300   34.9840 C   0  0  0  0  0  0  0  0  0  0  0  0
   19.9190  -31.0000   35.6790 C   0  0  0  0  0  0  0  0  0  0  0  0
   19.9440  -29.8220   34.9170 C   0  0  0  0  0  0  0  0  0  0  0  0
   19.8270  -28.5740   35.5320 C   0  0  0  0  0  0  0  0  0  0  0  0
   19.6690  -28.4760   36.9180 C   0  0  0  0  0  0  0  0  0  0  0  0
   19.5640  -27.1450   37.5550 C   0  0  0  0  0  0  0  0  0  0  0  0
   18.6830  -26.2990   36.8900 O   0  0  0  0  0  0  0  0  0  0  0  0
   18.4900  -25.0300   37.3750 C   0  0  0  0  0  0  0  0  0  0  0  0
   17.6100  -24.2100   36.6670 C   0  0  0  0  0  0  0  0  0  0  0  0
   17.3670  -22.9070   37.1080 C   0  0  0  0  0  0  0  0  0  0  0  0
   18.0010  -22.4260   38.2550 C   0  0  0  0  0  0  0  0  0  0  0  0
   18.8780  -23.2470   38.9590 C   0  0  0  0  0  0  0  0  0  0  0  0
   19.4650  -22.7130   40.0730 O   0  0  0  0  0  0  0  0  0  0  0  0
   19.1220  -24.5510   38.5170 C   0  0  0  0  0  0  0  0  0  0  0  0
   20.0360  -25.4460   39.2260 C   0  0  0  0  0  0  0  0  0  0  0  0
   20.6270  -25.0980   40.2470 O   0  0  0  0  0  0  0  0  0  0  0  0
   20.2320  -26.8060   38.6720 C   0  0  0  0  0  0  0  0  0  0  0  0
   21.0880  -27.6470   39.3590 O   0  0  0  0  0  0  0  0  0  0  0  0
   19.6500  -29.6580   37.6760 C   0  0  0  0  0  0  0  0  0  0  0  0
   19.7730  -30.9260   37.0780 C   0  0  0  0  0  0  0  0  0  0  0  0
   19.7140  -32.1140   37.8280 N   0  0  0  0  0  0  0  0  0  0  0  0
   18.6130  -32.9950   37.3910 C   0  0  0  0  0  0  0  0  0  0  0  0
   18.2040  -33.7350   38.6580 C   0  0  0  0  0  0  0  0  0  0  0  0
   18.3840  -32.6720   39.7250 C   0  0  0  0  0  0  0  0  0  0  0  0
   19.6760  -31.9820   39.2950 C   0  0  0  0  0  0  0  0  0  0  0  0
   20.1208  -33.1303   35.7348 H   0  0  0  0  0  0  0  0  0  0  0  0
   19.1590  -32.5003   34.3548 H   0  0  0  0  0  0  0  0  0  0  0  0
   20.9472  -32.3309   34.3548 H   0  0  0  0  0  0  0  0  0  0  0  0
   20.0569  -29.8824   33.8245 H   0  0  0  0  0  0  0  0  0  0  0  0
   19.8594  -27.6599   34.9210 H   0  0  0  0  0  0  0  0  0  0  0  0
   17.1090  -24.5889   35.7640 H   0  0  0  0  0  0  0  0  0  0  0  0
   16.6749  -22.2588   36.5505 H   0  0  0  0  0  0  0  0  0  0  0  0
   17.8081  -21.4002   38.6020 H   0  0  0  0  0  0  0  0  0  0  0  0
   19.2620  -21.8370   40.3350 H   0  0  0  0  0  0  0  0  0  0  0  0
   22.0110  -27.4820   39.3550 H   0  0  0  0  0  0  0  0  0  0  0  0
   19.5357  -29.5909   38.7680 H   0  0  0  0  0  0  0  0  0  0  0  0
   17.7736  -32.4042   36.9957 H   0  0  0  0  0  0  0  0  0  0  0  0
   18.9138  -33.6771   36.5822 H   0  0  0  0  0  0  0  0  0  0  0  0
   17.1581  -34.0712   38.6030 H   0  0  0  0  0  0  0  0  0  0  0  0
   18.7884  -34.6484   38.8429 H   0  0  0  0  0  0  0  0  0  0  0  0
   17.5398  -31.9668   39.7290 H   0  0  0  0  0  0  0  0  0  0  0  0
   18.4253  -33.0800   40.7457 H   0  0  0  0  0  0  0  0  0  0  0  0
   19.6626  -30.9215   39.5868 H   0  0  0  0  0  0  0  0  0  0  0  0
   20.5602  -32.4306   39.7714 H   0  0  0  0  0  0  0  0  0  0  0  0
  1  2  1  0
  2  3  2  0
  3  4  1  0
  4  5  2  0
  5  6  1  0
  6  7  1  0
  7  8  1  0
  8  9  2  0
  9 10  1  0
 10 11  2  0
 11 12  1  0
 12 13  1  0
 12 14  2  0
 14 15  1  0
 15 16  2  0
 15 17  1  0
 17 18  1  0
  5 19  1  0
 19 20  2  0
 20 21  1  0
 21 22  1  0
 22 23  1  0
 23 24  1  0
 24 25  1  0
 20  2  1  0
 25 21  1  0
 17  6  2  0
 14  8  1  0
  1 26  1  0
  1 27  1  0
  1 28  1  0
  3 29  1  0
  4 30  1  0
  9 31  1  0
 10 32  1  0
 11 33  1  0
 13 34  1  0
 18 35  1  0
 19 36  1  0
 22 37  1  0
 22 38  1  0
 23 39  1  0
 23 40  1  0
 24 41  1  0
 24 42  1  0
 25 43  1  0
 25 44  1  0
M  END
>  <meeko>  (9) 
{"is_sidechain": [false], "free_energy": -6.874, "intermolecular_energy": -8.834, "internal_energy": 0.285}

$$$$
