cand_001_out
     RDKit          3D

 45 48  0  0  0  0  0  0  0  0999 V2000
   19.7270  -24.5280   40.2150 C   0  0  0  0  0  0  0  0  0  0  0  0
   19.6480  -25.9550   39.7460 C   0  0  0  0  0  0  0  0  0  0  0  0
   19.5090  -26.2040   38.3720 C   0  0  0  0  0  0  0  0  0  0  0  0
   19.4610  -27.5110   37.8790 C   0  0  0  0  0  0  0  0  0  0  0  0
   19.5630  -28.6050   38.7450 C   0  0  0  0  0  0  0  0  0  0  0  0
   19.4960  -29.9800   38.2060 C   0  0  0  0  0  0  0  0  0  0  0  0
   19.0870  -30.9120   39.1540 O   0  0  0  0  0  0  0  0  0  0  0  0
   18.9810  -32.2290   38.7860 C   0  0  0  0  0  0  0  0  0  0  0  0
   18.5830  -33.1320   39.7720 C   0  0  0  0  0  0  0  0  0  0  0  0
   18.4530  -34.4880   39.4640 C   0  0  0  0  0  0  0  0  0  0  0  0
   18.7220  -34.9400   38.1710 C   0  0  0  0  0  0  0  0  0  0  0  0
   19.1190  -34.0370   37.1880 C   0  0  0  0  0  0  0  0  0  0  0  0
   19.3650  -34.5480   35.9430 O   0  0  0  0  0  0  0  0  0  0  0  0
   19.2490  -32.6800   37.4980 C   0  0  0  0  0  0  0  0  0  0  0  0
   19.6640  -31.6980   36.4950 C   0  0  0  0  0  0  0  0  0  0  0  0
   19.9110  -32.0170   35.3340 O   0  0  0  0  0  0  0  0  0  0  0  0
   19.7790  -30.2860   36.9270 C   0  0  0  0  0  0  0  0  0  0  0  0
   20.1590  -29.3640   35.9680 O   0  0  0  0  0  0  0  0  0  0  0  0
   19.6960  -28.3570   40.1170 C   0  0  0  0  0  0  0  0  0  0  0  0
   19.7510  -27.0450   40.6340 C   0  0  0  0  0  0  0  0  0  0  0  0
   19.9320  -26.8680   42.1310 C   0  0  0  0  0  0  0  0  0  0  0  0
   21.3180  -27.1860   42.6500 C   0  0  0  0  0  0  0  0  0  0  0  0
   21.6800  -26.8260   43.9570 C   0  0  0  0  0  0  0  0  0  0  0  0
   22.9480  -27.1360   44.4540 C   0  0  0  0  0  0  0  0  0  0  0  0
   23.8650  -27.8140   43.6550 C   0  0  0  0  0  0  0  0  0  0  0  0
   23.5140  -28.1880   42.3590 C   0  0  0  0  0  0  0  0  0  0  0  0
   22.2470  -27.8810   41.8610 C   0  0  0  0  0  0  0  0  0  0  0  0
   19.7284  -24.5030   41.3147 H   0  0  0  0  0  0  0  0  0  0  0  0
   20.6520  -24.0684   39.8366 H   0  0  0  0  0  0  0  0  0  0  0  0
   18.8584  -23.9691   39.8366 H   0  0  0  0  0  0  0  0  0  0  0  0
   19.4367  -25.3581   37.6726 H   0  0  0  0  0  0  0  0  0  0  0  0
   19.3418  -27.6812   36.7988 H   0  0  0  0  0  0  0  0  0  0  0  0
   18.3717  -32.7763   40.7912 H   0  0  0  0  0  0  0  0  0  0  0  0
   18.1384  -35.2004   40.2409 H   0  0  0  0  0  0  0  0  0  0  0  0
   18.6205  -36.0082   37.9288 H   0  0  0  0  0  0  0  0  0  0  0  0
   19.5430  -35.4610   35.8380 H   0  0  0  0  0  0  0  0  0  0  0  0
   20.6140  -28.5850   36.2200 H   0  0  0  0  0  0  0  0  0  0  0  0
   19.7593  -29.2083   40.8107 H   0  0  0  0  0  0  0  0  0  0  0  0
   19.7062  -25.8207   42.3805 H   0  0  0  0  0  0  0  0  0  0  0  0
   19.2518  -27.5876   42.6100 H   0  0  0  0  0  0  0  0  0  0  0  0
   20.9589  -26.2950   44.5958 H   0  0  0  0  0  0  0  0  0  0  0  0
   23.2227  -26.8440   45.4784 H   0  0  0  0  0  0  0  0  0  0  0  0
   24.8648  -28.0540   44.0460 H   0  0  0  0  0  0  0  0  0  0  0  0
   24.2367  -28.7259   41.7278 H   0  0  0  0  0  0  0  0  0  0  0  0
   21.9741  -28.1868   40.8402 H   0  0  0  0  0  0  0  0  0  0  0  0
  1  2  1  0
  2  3  2  0
  3  4  1  0
  4  5  2  0
  5  6  1  0
  6  7  1  0
  7  8  1  0
  8  9  2  0
  9 10  1  0
 10 11  2  0
 11 12  1  0
 12 13  1  0
 12 14  2  0
 14 15  1  0
 15 16  2  0
 15 17  1  0
 17 18  1  0
  5 19  1  0
 19 20  2  0
 20 21  1  0
 21 22  1  0
 22 23  2  0
 23 24  1  0
 24 25  2  0
 25 26  1  0
 26 27  2  0
 20  2  1  0
 27 22  1  0
 17  6  2  0
 14  8  1  0
  1 28  1  0
  1 29  1  0
  1 30  1  0
  3 31  1  0
  4 32  1  0
  9 33  1  0
 10 34  1  0
 11 35  1  0
 13 36  1  0
 18 37  1  0
 19 38  1  0
 21 39  1  0
 21 40  1  0
 23 41  1  0
 24 42  1  0
 25 43  1  0
 26 44  1  0
 27 45  1  0
M  END
>  <meeko>  (1) 
{"is_sidechain": [false], "free_energy": -9.707, "intermolecular_energy": -11.977, "internal_energy": -0.124}

$$$$
cand_001_out
     RDKit          3D

 45 48  0  0  0  0  0  0  0  0999 V2000
   19.4290  -24.2510   40.7860 C   0  0  0  0  0  0  0  0  0  0  0  0
   19.4910  -25.5660   40.0580 C   0  0  0  0  0  0  0  0  0  0  0  0
   19.3690  -25.5660   38.6600 C   0  0  0  0  0  0  0  0  0  0  0  0
   19.4500  -26.7560   37.9310 C   0  0  0  0  0  0  0  0  0  0  0  0
   19.6670  -27.9770   38.5780 C   0  0  0  0  0  0  0  0  0  0  0  0
   19.7350  -29.2260   37.7910 C   0  0  0  0  0  0  0  0  0  0  0  0
   19.9560  -29.0000   36.4360 O   0  0  0  0  0  0  0  0  0  0  0  0
   20.0410  -30.0760   35.5900 C   0  0  0  0  0  0  0  0  0  0  0  0
   20.2490  -29.8040   34.2370 C   0  0  0  0  0  0  0  0  0  0  0  0
   20.3480  -30.8530   33.3220 C   0  0  0  0  0  0  0  0  0  0  0  0
   20.2390  -32.1750   33.7590 C   0  0  0  0  0  0  0  0  0  0  0  0
   20.0320  -32.4450   35.1090 C   0  0  0  0  0  0  0  0  0  0  0  0
   19.9360  -33.7610   35.4680 O   0  0  0  0  0  0  0  0  0  0  0  0
   19.9330  -31.3930   36.0250 C   0  0  0  0  0  0  0  0  0  0  0  0
   19.7160  -31.6330   37.4520 C   0  0  0  0  0  0  0  0  0  0  0  0
   19.6180  -32.7680   37.9150 O   0  0  0  0  0  0  0  0  0  0  0  0
   19.6180  -30.4490   38.3380 C   0  0  0  0  0  0  0  0  0  0  0  0
   19.4260  -30.6880   39.6870 O   0  0  0  0  0  0  0  0  0  0  0  0
   19.7830  -27.9780   39.9740 C   0  0  0  0  0  0  0  0  0  0  0  0
   19.7090  -26.7870   40.7270 C   0  0  0  0  0  0  0  0  0  0  0  0
   19.8820  -26.8760   42.2330 C   0  0  0  0  0  0  0  0  0  0  0  0
   21.2820  -27.2100   42.6980 C   0  0  0  0  0  0  0  0  0  0  0  0
   21.7000  -26.8510   43.9890 C   0  0  0  0  0  0  0  0  0  0  0  0
   22.9830  -27.1760   44.4370 C   0  0  0  0  0  0  0  0  0  0  0  0
   23.8590  -27.8680   43.6050 C   0  0  0  0  0  0  0  0  0  0  0  0
   23.4520  -28.2410   42.3250 C   0  0  0  0  0  0  0  0  0  0  0  0
   22.1710  -27.9200   41.8760 C   0  0  0  0  0  0  0  0  0  0  0  0
   19.4375  -24.4318   41.8710 H   0  0  0  0  0  0  0  0  0  0  0  0
   20.2992  -23.6375   40.5097 H   0  0  0  0  0  0  0  0  0  0  0  0
   18.5049  -23.7221   40.5097 H   0  0  0  0  0  0  0  0  0  0  0  0
   19.2073  -24.6157   38.1301 H   0  0  0  0  0  0  0  0  0  0  0  0
   19.3419  -26.7319   36.8366 H   0  0  0  0  0  0  0  0  0  0  0  0
   20.3349  -28.7631   33.8920 H   0  0  0  0  0  0  0  0  0  0  0  0
   20.5120  -30.6385   32.2557 H   0  0  0  0  0  0  0  0  0  0  0  0
   20.3166  -33.0017   33.0376 H   0  0  0  0  0  0  0  0  0  0  0  0
   19.0950  -34.1680   35.5350 H   0  0  0  0  0  0  0  0  0  0  0  0
   20.0680  -30.4080   40.3080 H   0  0  0  0  0  0  0  0  0  0  0  0
   19.9359  -28.9333   40.4975 H   0  0  0  0  0  0  0  0  0  0  0  0
   19.6013  -25.9048   42.6665 H   0  0  0  0  0  0  0  0  0  0  0  0
   19.2415  -27.7056   42.5671 H   0  0  0  0  0  0  0  0  0  0  0  0
   21.0114  -26.3090   44.6539 H   0  0  0  0  0  0  0  0  0  0  0  0
   23.3015  -26.8846   45.4488 H   0  0  0  0  0  0  0  0  0  0  0  0
   24.8703  -28.1199   43.9570 H   0  0  0  0  0  0  0  0  0  0  0  0
   24.1425  -28.7897   41.6676 H   0  0  0  0  0  0  0  0  0  0  0  0
   21.8544  -28.2262   40.8680 H   0  0  0  0  0  0  0  0  0  0  0  0
  1  2  1  0
  2  3  2  0
  3  4  1  0
  4  5  2  0
  5  6  1  0
  6  7  1  0
  7  8  1  0
  8  9  2  0
  9 10  1  0
 10 11  2  0
 11 12  1  0
 12 13  1  0
 12 14  2  0
 14 15  1  0
 15 16  2  0
 15 17  1  0
 17 18  1  0
  5 19  1  0
 19 20  2  0
 20 21  1  0
 21 22  1  0
 22 23  2  0
 23 24  1  0
 24 25  2  0
 25 26  1  0
 26 27  2  0
 20  2  1  0
 27 22  1  0
 17  6  2  0
 14  8  1  0
  1 28  1  0
  1 29  1  0
  1 30  1  0
  3 31  1  0
  4 32  1  0
  9 33  1  0
 10 34  1  0
 11 35  1  0
 13 36  1  0
 18 37  1  0
 19 38  1  0
 21 39  1  0
 21 40  1  0
 23 41  1  0
 24 42  1  0
 25 43  1  0
 26 44  1  0
 27 45  1  0
M  END
>  <meeko>  (2) 
{"is_sidechain": [false], "free_energy": -8.928, "intermolecular_energy": -11.124, "internal_energy": -0.015}

$$$$
cand_001_out
     RDKit          3D

 45 48  0  0  0  0  0  0  0  0999 V2000
   19.6560  -24.0690   42.4140 C   0  0  0  0  0  0  0  0  0  0  0  0
   19.6470  -24.9690   41.2080 C   0  0  0  0  0  0  0  0  0  0  0  0
   19.4670  -24.3930   39.9410 C   0  0  0  0  0  0  0  0  0  0  0  0
   19.4810  -25.1780   38.7850 C   0  0  0  0  0  0  0  0  0  0  0  0
   19.6870  -26.5590   38.8630 C   0  0  0  0  0  0  0  0  0  0  0  0
   19.6840  -27.3750   37.6300 C   0  0  0  0  0  0  0  0  0  0  0  0
   19.8590  -28.7320   37.8810 O   0  0  0  0  0  0  0  0  0  0  0  0
   19.8760  -29.6040   36.8220 C   0  0  0  0  0  0  0  0  0  0  0  0
   20.0700  -30.9550   37.1170 C   0  0  0  0  0  0  0  0  0  0  0  0
   20.0950  -31.8960   36.0870 C   0  0  0  0  0  0  0  0  0  0  0  0
   19.9270  -31.4880   34.7620 C   0  0  0  0  0  0  0  0  0  0  0  0
   19.7330  -30.1410   34.4700 C   0  0  0  0  0  0  0  0  0  0  0  0
   19.5750  -29.8110   33.1520 O   0  0  0  0  0  0  0  0  0  0  0  0
   19.7080  -29.1990   35.5030 C   0  0  0  0  0  0  0  0  0  0  0  0
   19.5070  -27.7730   35.2390 C   0  0  0  0  0  0  0  0  0  0  0  0
   19.3450  -27.3370   34.1010 O   0  0  0  0  0  0  0  0  0  0  0  0
   19.5060  -26.8560   36.4020 C   0  0  0  0  0  0  0  0  0  0  0  0
   19.3020  -25.5120   36.1430 O   0  0  0  0  0  0  0  0  0  0  0  0
   19.8610  -27.1360   40.1280 C   0  0  0  0  0  0  0  0  0  0  0  0
   19.8550  -26.3600   41.3060 C   0  0  0  0  0  0  0  0  0  0  0  0
   20.0870  -27.0620   42.6320 C   0  0  0  0  0  0  0  0  0  0  0  0
   21.5390  -27.2250   43.0240 C   0  0  0  0  0  0  0  0  0  0  0  0
   22.0130  -26.6650   44.2210 C   0  0  0  0  0  0  0  0  0  0  0  0
   23.3450  -26.8300   44.6050 C   0  0  0  0  0  0  0  0  0  0  0  0
   24.2180  -27.5610   43.8020 C   0  0  0  0  0  0  0  0  0  0  0  0
   23.7580  -28.1330   42.6180 C   0  0  0  0  0  0  0  0  0  0  0  0
   22.4260  -27.9700   42.2330 C   0  0  0  0  0  0  0  0  0  0  0  0
   19.6499  -24.6808   43.3281 H   0  0  0  0  0  0  0  0  0  0  0  0
   20.5604  -23.4431   42.3977 H   0  0  0  0  0  0  0  0  0  0  0  0
   18.7642  -23.4252   42.3977 H   0  0  0  0  0  0  0  0  0  0  0  0
   19.3126  -23.3072   39.8566 H   0  0  0  0  0  0  0  0  0  0  0  0
   19.3284  -24.7049   37.8037 H   0  0  0  0  0  0  0  0  0  0  0  0
   20.2030  -31.2771   38.1603 H   0  0  0  0  0  0  0  0  0  0  0  0
   20.2472  -32.9604   36.3189 H   0  0  0  0  0  0  0  0  0  0  0  0
   19.9480  -32.2301   33.9503 H   0  0  0  0  0  0  0  0  0  0  0  0
   20.3180  -29.5640   32.6380 H   0  0  0  0  0  0  0  0  0  0  0  0
   19.4440  -24.8780   36.8170 H   0  0  0  0  0  0  0  0  0  0  0  0
   20.0062  -28.2237   40.2045 H   0  0  0  0  0  0  0  0  0  0  0  0
   19.5845  -26.4800   43.4186 H   0  0  0  0  0  0  0  0  0  0  0  0
   19.6840  -28.0789   42.5160 H   0  0  0  0  0  0  0  0  0  0  0  0
   21.3283  -26.0907   44.8624 H   0  0  0  0  0  0  0  0  0  0  0  0
   23.7058  -26.3823   45.5428 H   0  0  0  0  0  0  0  0  0  0  0  0
   25.2687  -27.6862   44.1025 H   0  0  0  0  0  0  0  0  0  0  0  0
   24.4453  -28.7140   41.9855 H   0  0  0  0  0  0  0  0  0  0  0  0
   22.0686  -28.4304   41.3001 H   0  0  0  0  0  0  0  0  0  0  0  0
  1  2  1  0
  2  3  2  0
  3  4  1  0
  4  5  2  0
  5  6  1  0
  6  7  1  0
  7  8  1  0
  8  9  2  0
  9 10  1  0
 10 11  2  0
 11 12  1  0
 12 13  1  0
 12 14  2  0
 14 15  1  0
 15 16  2  0
 15 17  1  0
 17 18  1  0
  5 19  1  0
 19 20  2  0
 20 21  1  0
 21 22  1  0
 22 23  2  0
 23 24  1  0
 24 25  2  0
 25 26  1  0
 26 27  2  0
 20  2  1  0
 27 22  1  0
 17  6  2  0
 14  8  1  0
  1 28  1  0
  1 29  1  0
  1 30  1  0
  3 31  1  0
  4 32  1  0
  9 33  1  0
 10 34  1  0
 11 35  1  0
 13 36  1  0
 18 37  1  0
 19 38  1  0
 21 39  1  0
 21 40  1  0
 23 41  1  0
 24 42  1  0
 25 43  1  0
 26 44  1  0
 27 45  1  0
M  END
>  <meeko>  (3) 
{"is_sidechain": [false], "free_energy": -8.642, "intermolecular_energy": -10.557, "internal_energy": -0.23}

$$$$
cand_001_out
     RDKit          3D

 45 48  0  0  0  0  0  0  0  0999 V2000
   20.2170  -31.0960   33.2690 C   0  0  0  0  0  0  0  0  0  0  0  0
   20.0270  -30.3110   34.5380 C   0  0  0  0  0  0  0  0  0  0  0  0
   20.0060  -28.9100   34.4660 C   0  0  0  0  0  0  0  0  0  0  0  0
   19.8020  -28.1330   35.6100 C   0  0  0  0  0  0  0  0  0  0  0  0
   19.6010  -28.7360   36.8550 C   0  0  0  0  0  0  0  0  0  0  0  0
   19.4010  -27.8970   38.0560 C   0  0  0  0  0  0  0  0  0  0  0  0
   20.3110  -28.1800   39.0690 O   0  0  0  0  0  0  0  0  0  0  0  0
   20.2370  -27.4720   40.2420 C   0  0  0  0  0  0  0  0  0  0  0  0
   21.1600  -27.7970   41.2380 C   0  0  0  0  0  0  0  0  0  0  0  0
   21.1420  -27.1140   42.4540 C   0  0  0  0  0  0  0  0  0  0  0  0
   20.2020  -26.1060   42.6770 C   0  0  0  0  0  0  0  0  0  0  0  0
   19.2830  -25.7820   41.6830 C   0  0  0  0  0  0  0  0  0  0  0  0
   18.3910  -24.7850   41.9670 O   0  0  0  0  0  0  0  0  0  0  0  0
   19.3010  -26.4670   40.4640 C   0  0  0  0  0  0  0  0  0  0  0  0
   18.3530  -26.1580   39.3930 C   0  0  0  0  0  0  0  0  0  0  0  0
   17.5010  -25.2800   39.5100 O   0  0  0  0  0  0  0  0  0  0  0  0
   18.4520  -26.9480   38.1430 C   0  0  0  0  0  0  0  0  0  0  0  0
   17.5590  -26.6390   37.1320 O   0  0  0  0  0  0  0  0  0  0  0  0
   19.6270  -30.1350   36.9290 C   0  0  0  0  0  0  0  0  0  0  0  0
   19.8270  -30.9370   35.7860 C   0  0  0  0  0  0  0  0  0  0  0  0
   19.8040  -32.4450   35.9510 C   0  0  0  0  0  0  0  0  0  0  0  0
   19.3540  -32.9330   37.3110 C   0  0  0  0  0  0  0  0  0  0  0  0
   18.6530  -34.1440   37.4290 C   0  0  0  0  0  0  0  0  0  0  0  0
   18.2540  -34.6160   38.6810 C   0  0  0  0  0  0  0  0  0  0  0  0
   18.5560  -33.8890   39.8300 C   0  0  0  0  0  0  0  0  0  0  0  0
   19.2620  -32.6910   39.7290 C   0  0  0  0  0  0  0  0  0  0  0  0
   19.6630  -32.2190   38.4780 C   0  0  0  0  0  0  0  0  0  0  0  0
   20.4691  -32.1377   33.5165 H   0  0  0  0  0  0  0  0  0  0  0  0
   19.2875  -31.0735   32.6812 H   0  0  0  0  0  0  0  0  0  0  0  0
   21.0333  -30.6509   32.6812 H   0  0  0  0  0  0  0  0  0  0  0  0
   20.1523  -28.4154   33.4944 H   0  0  0  0  0  0  0  0  0  0  0  0
   19.7996  -27.0359   35.5297 H   0  0  0  0  0  0  0  0  0  0  0  0
   21.9009  -28.5912   41.0638 H   0  0  0  0  0  0  0  0  0  0  0  0
   21.8694  -27.3699   43.2384 H   0  0  0  0  0  0  0  0  0  0  0  0
   20.1877  -25.5687   43.6367 H   0  0  0  0  0  0  0  0  0  0  0  0
   18.3970  -23.9940   41.4640 H   0  0  0  0  0  0  0  0  0  0  0  0
   17.2040  -27.3200   36.5960 H   0  0  0  0  0  0  0  0  0  0  0  0
   19.4876  -30.6214   37.9057 H   0  0  0  0  0  0  0  0  0  0  0  0
   19.1203  -32.8604   35.1960 H   0  0  0  0  0  0  0  0  0  0  0  0
   20.8439  -32.7831   35.8318 H   0  0  0  0  0  0  0  0  0  0  0  0
   18.4159  -34.7264   36.5264 H   0  0  0  0  0  0  0  0  0  0  0  0
   17.7004  -35.5633   38.7600 H   0  0  0  0  0  0  0  0  0  0  0  0
   18.2380  -34.2595   40.8157 H   0  0  0  0  0  0  0  0  0  0  0  0
   19.5032  -32.1172   40.6360 H   0  0  0  0  0  0  0  0  0  0  0  0
   20.2272  -31.2774   38.4067 H   0  0  0  0  0  0  0  0  0  0  0  0
  1  2  1  0
  2  3  2  0
  3  4  1  0
  4  5  2  0
  5  6  1  0
  6  7  1  0
  7  8  1  0
  8  9  2  0
  9 10  1  0
 10 11  2  0
 11 12  1  0
 12 13  1  0
 12 14  2  0
 14 15  1  0
 15 16  2  0
 15 17  1  0
 17 18  1  0
  5 19  1  0
 19 20  2  0
 20 21  1  0
 21 22  1  0
 22 23  2  0
 23 24  1  0
 24 25  2  0
 25 26  1  0
 26 27  2  0
 20  2  1  0
 27 22  1  0
 17  6  2  0
 14  8  1  0
  1 28  1  0
  1 29  1  0
  1 30  1  0
  3 31  1  0
  4 32  1  0
  9 33  1  0
 10 34  1  0
 11 35  1  0
 13 36  1  0
 18 37  1  0
 19 38  1  0
 21 39  1  0
 21 40  1  0
 23 41  1  0
 24 42  1  0
 25 43  1  0
 26 44  1  0
 27 45  1  0
M  END
>  <meeko>  (4) 
{"is_sidechain": [false], "free_energy": -8.601, "intermolecular_energy": -11.001, "internal_energy": 0.264}

$$$$
cand_001_out
     RDKit          3D

 45 48  0  0  0  0  0  0  0  0999 V2000
   20.0410  -23.4720   43.9640 C   0  0  0  0  0  0  0  0  0  0  0  0
   19.8020  -23.9850   42.5710 C   0  0  0  0  0  0  0  0  0  0  0  0
   19.5770  -23.0580   41.5420 C   0  0  0  0  0  0  0  0  0  0  0  0
   19.3800  -23.4780   40.2240 C   0  0  0  0  0  0  0  0  0  0  0  0
   19.4150  -24.8370   39.8950 C   0  0  0  0  0  0  0  0  0  0  0  0
   19.1900  -25.2640   38.4980 C   0  0  0  0  0  0  0  0  0  0  0  0
   18.0380  -24.7150   37.9450 O   0  0  0  0  0  0  0  0  0  0  0  0
   17.7110  -25.0290   36.6500 C   0  0  0  0  0  0  0  0  0  0  0  0
   16.5390  -24.4690   36.1390 C   0  0  0  0  0  0  0  0  0  0  0  0
   16.1490  -24.7460   34.8280 C   0  0  0  0  0  0  0  0  0  0  0  0
   16.9290  -25.5820   34.0270 C   0  0  0  0  0  0  0  0  0  0  0  0
   18.0980  -26.1400   34.5390 C   0  0  0  0  0  0  0  0  0  0  0  0
   18.8140  -26.9490   33.7000 O   0  0  0  0  0  0  0  0  0  0  0  0
   18.4880  -25.8630   35.8520 C   0  0  0  0  0  0  0  0  0  0  0  0
   19.7090  -26.4280   36.4280 C   0  0  0  0  0  0  0  0  0  0  0  0
   20.4510  -27.1660   35.7850 O   0  0  0  0  0  0  0  0  0  0  0  0
   20.0290  -26.0780   37.8320 C   0  0  0  0  0  0  0  0  0  0  0  0
   21.1920  -26.6080   38.3620 O   0  0  0  0  0  0  0  0  0  0  0  0
   19.6350  -25.7640   40.9230 C   0  0  0  0  0  0  0  0  0  0  0  0
   19.8400  -25.3600   42.2590 C   0  0  0  0  0  0  0  0  0  0  0  0
   20.1070  -26.4290   43.3020 C   0  0  0  0  0  0  0  0  0  0  0  0
   21.5370  -26.9190   43.3660 C   0  0  0  0  0  0  0  0  0  0  0  0
   22.3370  -26.6160   44.4790 C   0  0  0  0  0  0  0  0  0  0  0  0
   23.6510  -27.0830   44.5590 C   0  0  0  0  0  0  0  0  0  0  0  0
   24.1780  -27.8640   43.5330 C   0  0  0  0  0  0  0  0  0  0  0  0
   23.3910  -28.1820   42.4280 C   0  0  0  0  0  0  0  0  0  0  0  0
   22.0780  -27.7180   42.3460 C   0  0  0  0  0  0  0  0  0  0  0  0
   19.6935  -24.2178   44.6941 H   0  0  0  0  0  0  0  0  0  0  0  0
   21.1163  -23.2907   44.1085 H   0  0  0  0  0  0  0  0  0  0  0  0
   19.4880  -22.5321   44.1085 H   0  0  0  0  0  0  0  0  0  0  0  0
   19.5554  -21.9835   41.7766 H   0  0  0  0  0  0  0  0  0  0  0  0
   19.1955  -22.7321   39.4369 H   0  0  0  0  0  0  0  0  0  0  0  0
   15.9234  -23.8100   36.7690 H   0  0  0  0  0  0  0  0  0  0  0  0
   15.2254  -24.3048   34.4251 H   0  0  0  0  0  0  0  0  0  0  0  0
   16.6210  -25.7996   32.9937 H   0  0  0  0  0  0  0  0  0  0  0  0
   19.2760  -27.6880   34.0440 H   0  0  0  0  0  0  0  0  0  0  0  0
   21.2020  -27.4870   38.6850 H   0  0  0  0  0  0  0  0  0  0  0  0
   19.6482  -26.8370   40.6812 H   0  0  0  0  0  0  0  0  0  0  0  0
   19.8432  -26.0174   44.2874 H   0  0  0  0  0  0  0  0  0  0  0  0
   19.4976  -27.2981   43.0134 H   0  0  0  0  0  0  0  0  0  0  0  0
   21.9252  -26.0051   45.2958 H   0  0  0  0  0  0  0  0  0  0  0  0
   24.2703  -26.8337   45.4332 H   0  0  0  0  0  0  0  0  0  0  0  0
   25.2138  -28.2291   43.5950 H   0  0  0  0  0  0  0  0  0  0  0  0
   23.8060  -28.8004   41.6184 H   0  0  0  0  0  0  0  0  0  0  0  0
   21.4608  -27.9805   41.4742 H   0  0  0  0  0  0  0  0  0  0  0  0
  1  2  1  0
  2  3  2  0
  3  4  1  0
  4  5  2  0
  5  6  1  0
  6  7  1  0
  7  8  1  0
  8  9  2  0
  9 10  1  0
 10 11  2  0
 11 12  1  0
 12 13  1  0
 12 14  2  0
 14 15  1  0
 15 16  2  0
 15 17  1  0
 17 18  1  0
  5 19  1  0
 19 20  2  0
 20 21  1  0
 21 22  1  0
 22 23  2  0
 23 24  1  0
 24 25  2  0
 25 26  1  0
 26 27  2  0
 20  2  1  0
 27 22  1  0
 17  6  2  0
 14  8  1  0
  1 28  1  0
  1 29  1  0
  1 30  1  0
  3 31  1  0
  4 32  1  0
  9 33  1  0
 10 34  1  0
 11 35  1  0
 13 36  1  0
 18 37  1  0
 19 38  1  0
 21 39  1  0
 21 40  1  0
 23 41  1  0
 24 42  1  0
 25 43  1  0
 26 44  1  0
 27 45  1  0
M  END
>  <meeko>  (5) 
{"is_sidechain": [false], "free_energy": -8.534, "intermolecular_energy": -9.907, "internal_energy": -0.746}

$$$$
cand_001_out
     RDKit          3D

 45 48  0  0  0  0  0  0  0  0999 V2000
   18.0710  -27.6000   36.4360 C   0  0  0  0  0  0  0  0  0  0  0  0
   18.8870  -27.4900   37.6960 C   0  0  0  0  0  0  0  0  0  0  0  0
   18.9120  -28.5820   38.5770 C   0  0  0  0  0  0  0  0  0  0  0  0
   19.6780  -28.5460   39.7460 C   0  0  0  0  0  0  0  0  0  0  0  0
   20.4490  -27.4220   40.0600 C   0  0  0  0  0  0  0  0  0  0  0  0
   21.2410  -27.3970   41.3080 C   0  0  0  0  0  0  0  0  0  0  0  0
   22.2570  -28.3470   41.3210 O   0  0  0  0  0  0  0  0  0  0  0  0
   23.0700  -28.4310   42.4230 C   0  0  0  0  0  0  0  0  0  0  0  0
   24.0670  -29.4070   42.4010 C   0  0  0  0  0  0  0  0  0  0  0  0
   24.9310  -29.5450   43.4890 C   0  0  0  0  0  0  0  0  0  0  0  0
   24.7980  -28.7080   44.5990 C   0  0  0  0  0  0  0  0  0  0  0  0
   23.8030  -27.7340   44.6180 C   0  0  0  0  0  0  0  0  0  0  0  0
   23.7300  -26.9480   45.7350 O   0  0  0  0  0  0  0  0  0  0  0  0
   22.9380  -27.5970   43.5280 C   0  0  0  0  0  0  0  0  0  0  0  0
   21.8790  -26.5870   43.5090 C   0  0  0  0  0  0  0  0  0  0  0  0
   21.7040  -25.8080   44.4430 O   0  0  0  0  0  0  0  0  0  0  0  0
   21.0120  -26.5290   42.3090 C   0  0  0  0  0  0  0  0  0  0  0  0
   20.0220  -25.5610   42.2950 O   0  0  0  0  0  0  0  0  0  0  0  0
   20.4200  -26.3300   39.1830 C   0  0  0  0  0  0  0  0  0  0  0  0
   19.6580  -26.3490   37.9960 C   0  0  0  0  0  0  0  0  0  0  0  0
   19.7130  -25.1350   37.0850 C   0  0  0  0  0  0  0  0  0  0  0  0
   18.6930  -24.0590   37.3900 C   0  0  0  0  0  0  0  0  0  0  0  0
   19.0110  -23.0190   38.2760 C   0  0  0  0  0  0  0  0  0  0  0  0
   18.0860  -22.0070   38.5460 C   0  0  0  0  0  0  0  0  0  0  0  0
   16.8380  -22.0200   37.9290 C   0  0  0  0  0  0  0  0  0  0  0  0
   16.5140  -23.0400   37.0370 C   0  0  0  0  0  0  0  0  0  0  0  0
   17.4370  -24.0510   36.7650 C   0  0  0  0  0  0  0  0  0  0  0  0
   17.0118  -27.7428   36.6964 H   0  0  0  0  0  0  0  0  0  0  0  0
   18.1824  -26.6787   35.8454 H   0  0  0  0  0  0  0  0  0  0  0  0
   18.4224  -28.4589   35.8454 H   0  0  0  0  0  0  0  0  0  0  0  0
   18.3202  -29.4796   38.3444 H   0  0  0  0  0  0  0  0  0  0  0  0
   19.6743  -29.4107   40.4259 H   0  0  0  0  0  0  0  0  0  0  0  0
   24.1721  -30.0670   41.5273 H   0  0  0  0  0  0  0  0  0  0  0  0
   25.7174  -30.3139   43.4719 H   0  0  0  0  0  0  0  0  0  0  0  0
   25.4779  -28.8179   45.4567 H   0  0  0  0  0  0  0  0  0  0  0  0
   24.1280  -26.1010   45.7380 H   0  0  0  0  0  0  0  0  0  0  0  0
   19.4700  -25.4460   43.0430 H   0  0  0  0  0  0  0  0  0  0  0  0
   21.0078  -25.4327   39.4267 H   0  0  0  0  0  0  0  0  0  0  0  0
   20.7150  -24.6893   37.1707 H   0  0  0  0  0  0  0  0  0  0  0  0
   19.4819  -25.4995   36.0732 H   0  0  0  0  0  0  0  0  0  0  0  0
   19.9973  -22.9999   38.7626 H   0  0  0  0  0  0  0  0  0  0  0  0
   18.3441  -21.1993   39.2467 H   0  0  0  0  0  0  0  0  0  0  0  0
   16.1085  -21.2257   38.1456 H   0  0  0  0  0  0  0  0  0  0  0  0
   15.5295  -23.0486   36.5465 H   0  0  0  0  0  0  0  0  0  0  0  0
   17.1772  -24.8490   36.0539 H   0  0  0  0  0  0  0  0  0  0  0  0
  1  2  1  0
  2  3  2  0
  3  4  1  0
  4  5  2  0
  5  6  1  0
  6  7  1  0
  7  8  1  0
  8  9  2  0
  9 10  1  0
 10 11  2  0
 11 12  1  0
 12 13  1  0
 12 14  2  0
 14 15  1  0
 15 16  2  0
 15 17  1  0
 17 18  1  0
  5 19  1  0
 19 20  2  0
 20 21  1  0
 21 22  1  0
 22 23  2  0
 23 24  1  0
 24 25  2  0
 25 26  1  0
 26 27  2  0
 20  2  1  0
 27 22  1  0
 17  6  2  0
 14  8  1  0
  1 28  1  0
  1 29  1  0
  1 30  1  0
  3 31  1  0
  4 32  1  0
  9 33  1  0
 10 34  1  0
 11 35  1  0
 13 36  1  0
 18 37  1  0
 19 38  1  0
 21 39  1  0
 21 40  1  0
 23 41  1  0
 24 42  1  0
 25 43  1  0
 26 44  1  0
 27 45  1  0
M  END
>  <meeko>  (6) 
{"is_sidechain": [false], "free_energy": -8.187, "intermolecular_energy": -9.316, "internal_energy": -0.908}

$$$$
cand_001_out
     RDKit          3D

 45 48  0  0  0  0  0  0  0  0999 V2000
   19.8170  -24.6720   40.4030 C   0  0  0  0  0  0  0  0  0  0  0  0
   19.7590  -26.0410   39.7810 C   0  0  0  0  0  0  0  0  0  0  0  0
   19.7550  -27.1620   40.6240 C   0  0  0  0  0  0  0  0  0  0  0  0
   19.6720  -28.4560   40.1010 C   0  0  0  0  0  0  0  0  0  0  0  0
   19.5770  -28.6630   38.7210 C   0  0  0  0  0  0  0  0  0  0  0  0
   19.5040  -30.0390   38.1850 C   0  0  0  0  0  0  0  0  0  0  0  0
   19.1010  -30.9680   39.1380 O   0  0  0  0  0  0  0  0  0  0  0  0
   18.9910  -32.2860   38.7730 C   0  0  0  0  0  0  0  0  0  0  0  0
   18.5980  -33.1870   39.7640 C   0  0  0  0  0  0  0  0  0  0  0  0
   18.4640  -34.5420   39.4590 C   0  0  0  0  0  0  0  0  0  0  0  0
   18.7220  -34.9980   38.1650 C   0  0  0  0  0  0  0  0  0  0  0  0
   19.1140  -34.0970   37.1780 C   0  0  0  0  0  0  0  0  0  0  0  0
   19.3500  -34.6100   35.9320 O   0  0  0  0  0  0  0  0  0  0  0  0
   19.2480  -32.7400   37.4840 C   0  0  0  0  0  0  0  0  0  0  0  0
   19.6570  -31.7600   36.4760 C   0  0  0  0  0  0  0  0  0  0  0  0
   19.8950  -32.0810   35.3140 O   0  0  0  0  0  0  0  0  0  0  0  0
   19.7770  -30.3470   36.9050 C   0  0  0  0  0  0  0  0  0  0  0  0
   20.1520  -29.4280   35.9410 O   0  0  0  0  0  0  0  0  0  0  0  0
   19.5860  -27.5440   37.8780 C   0  0  0  0  0  0  0  0  0  0  0  0
   19.6650  -26.2300   38.3870 C   0  0  0  0  0  0  0  0  0  0  0  0
   19.6330  -25.0740   37.4040 C   0  0  0  0  0  0  0  0  0  0  0  0
   18.2550  -24.7000   36.9010 C   0  0  0  0  0  0  0  0  0  0  0  0
   17.7560  -25.2740   35.7220 C   0  0  0  0  0  0  0  0  0  0  0  0
   16.4760  -24.9540   35.2620 C   0  0  0  0  0  0  0  0  0  0  0  0
   15.6790  -24.0640   35.9780 C   0  0  0  0  0  0  0  0  0  0  0  0
   16.1580  -23.4960   37.1570 C   0  0  0  0  0  0  0  0  0  0  0  0
   17.4350  -23.8160   37.6190 C   0  0  0  0  0  0  0  0  0  0  0  0
   19.8130  -24.7667   41.4989 H   0  0  0  0  0  0  0  0  0  0  0  0
   20.7375  -24.1623   40.0824 H   0  0  0  0  0  0  0  0  0  0  0  0
   18.9429  -24.0863   40.0824 H   0  0  0  0  0  0  0  0  0  0  0  0
   19.8181  -27.0210   41.7131 H   0  0  0  0  0  0  0  0  0  0  0  0
   19.6815  -29.3200   40.7817 H   0  0  0  0  0  0  0  0  0  0  0  0
   18.3942  -32.8293   40.7841 H   0  0  0  0  0  0  0  0  0  0  0  0
   18.1544  -35.2523   40.2398 H   0  0  0  0  0  0  0  0  0  0  0  0
   18.6159  -36.0664   37.9255 H   0  0  0  0  0  0  0  0  0  0  0  0
   18.7200  -34.4910   35.2490 H   0  0  0  0  0  0  0  0  0  0  0  0
   20.8880  -29.6020   35.3890 H   0  0  0  0  0  0  0  0  0  0  0  0
   19.5300  -27.6936   36.7897 H   0  0  0  0  0  0  0  0  0  0  0  0
   20.0662  -24.1926   37.8995 H   0  0  0  0  0  0  0  0  0  0  0  0
   20.2029  -25.4038   36.5228 H   0  0  0  0  0  0  0  0  0  0  0  0
   18.3779  -25.9822   35.1548 H   0  0  0  0  0  0  0  0  0  0  0  0
   16.0973  -25.4056   34.3332 H   0  0  0  0  0  0  0  0  0  0  0  0
   14.6728  -23.8098   35.6133 H   0  0  0  0  0  0  0  0  0  0  0  0
   15.5285  -22.7945   37.7241 H   0  0  0  0  0  0  0  0  0  0  0  0
   17.8027  -23.3710   38.5553 H   0  0  0  0  0  0  0  0  0  0  0  0
  1  2  1  0
  2  3  2  0
  3  4  1  0
  4  5  2  0
  5  6  1  0
  6  7  1  0
  7  8  1  0
  8  9  2  0
  9 10  1  0
 10 11  2  0
 11 12  1  0
 12 13  1  0
 12 14  2  0
 14 15  1  0
 15 16  2  0
 15 17  1  0
 17 18  1  0
  5 19  1  0
 19 20  2  0
 20 21  1  0
 21 22  1  0
 22 23  2  0
 23 24  1  0
 24 25  2  0
 25 26  1  0
 26 27  2  0
 20  2  1  0
 27 22  1  0
 17  6  2  0
 14  8  1  0
  1 28  1  0
  1 29  1  0
  1 30  1  0
  3 31  1  0
  4 32  1  0
  9 33  1  0
 10 34  1  0
 11 35  1  0
 13 36  1  0
 18 37  1  0
 19 38  1  0
 21 39  1  0
 21 40  1  0
 23 41  1  0
 24 42  1  0
 25 43  1  0
 26 44  1  0
 27 45  1  0
M  END
>  <meeko>  (7) 
{"is_sidechain": [false], "free_energy": -8.101, "intermolecular_energy": -9.644, "internal_energy": -0.474}

$$$$
cand_001_out
     RDKit          3D

 45 48  0  0  0  0  0  0  0  0999 V2000
   20.0980  -25.8730   39.7160 C   0  0  0  0  0  0  0  0  0  0  0  0
   19.9800  -25.1780   41.0450 C   0  0  0  0  0  0  0  0  0  0  0  0
   19.6080  -23.8250   41.0670 C   0  0  0  0  0  0  0  0  0  0  0  0
   19.4540  -23.1400   42.2750 C   0  0  0  0  0  0  0  0  0  0  0  0
   19.6540  -23.7910   43.4960 C   0  0  0  0  0  0  0  0  0  0  0  0
   19.5010  -23.0460   44.7630 C   0  0  0  0  0  0  0  0  0  0  0  0
   20.7010  -22.5230   45.2310 O   0  0  0  0  0  0  0  0  0  0  0  0
   20.7010  -21.8070   46.4010 C   0  0  0  0  0  0  0  0  0  0  0  0
   21.9290  -21.3130   46.8420 C   0  0  0  0  0  0  0  0  0  0  0  0
   21.9990  -20.5740   48.0240 C   0  0  0  0  0  0  0  0  0  0  0  0
   20.8420  -20.3280   48.7650 C   0  0  0  0  0  0  0  0  0  0  0  0
   19.6170  -20.8210   48.3230 C   0  0  0  0  0  0  0  0  0  0  0  0
   18.5240  -20.5420   49.0960 O   0  0  0  0  0  0  0  0  0  0  0  0
   19.5480  -21.5620   47.1390 C   0  0  0  0  0  0  0  0  0  0  0  0
   18.2810  -22.0980   46.6400 C   0  0  0  0  0  0  0  0  0  0  0  0
   17.2190  -21.9170   47.2310 O   0  0  0  0  0  0  0  0  0  0  0  0
   18.3170  -22.8760   45.3790 C   0  0  0  0  0  0  0  0  0  0  0  0
   17.1120  -23.3670   44.9090 O   0  0  0  0  0  0  0  0  0  0  0  0
   20.0300  -25.1410   43.4750 C   0  0  0  0  0  0  0  0  0  0  0  0
   20.1870  -25.8510   42.2670 C   0  0  0  0  0  0  0  0  0  0  0  0
   20.5610  -27.3210   42.3390 C   0  0  0  0  0  0  0  0  0  0  0  0
   21.9370  -27.6040   42.9020 C   0  0  0  0  0  0  0  0  0  0  0  0
   22.2740  -27.1650   44.1910 C   0  0  0  0  0  0  0  0  0  0  0  0
   23.5320  -27.4410   44.7300 C   0  0  0  0  0  0  0  0  0  0  0  0
   24.4640  -28.1660   43.9920 C   0  0  0  0  0  0  0  0  0  0  0  0
   24.1380  -28.6190   42.7150 C   0  0  0  0  0  0  0  0  0  0  0  0
   22.8810  -28.3450   42.1750 C   0  0  0  0  0  0  0  0  0  0  0  0
   20.2801  -26.9456   39.8781 H   0  0  0  0  0  0  0  0  0  0  0  0
   19.1646  -25.7411   39.1491 H   0  0  0  0  0  0  0  0  0  0  0  0
   20.9356  -25.4404   39.1491 H   0  0  0  0  0  0  0  0  0  0  0  0
   19.4350  -23.2955   40.1185 H   0  0  0  0  0  0  0  0  0  0  0  0
   19.1723  -22.0767   42.2653 H   0  0  0  0  0  0  0  0  0  0  0  0
   22.8414  -21.5058   46.2586 H   0  0  0  0  0  0  0  0  0  0  0  0
   22.9673  -20.1849   48.3720 H   0  0  0  0  0  0  0  0  0  0  0  0
   20.8978  -19.7457   49.6965 H   0  0  0  0  0  0  0  0  0  0  0  0
   18.0390  -19.7530   48.9550 H   0  0  0  0  0  0  0  0  0  0  0  0
   17.1000  -23.9720   44.1950 H   0  0  0  0  0  0  0  0  0  0  0  0
   20.2076  -25.6613   44.4278 H   0  0  0  0  0  0  0  0  0  0  0  0
   19.8212  -27.8307   42.9737 H   0  0  0  0  0  0  0  0  0  0  0  0
   20.5721  -27.6866   41.3016 H   0  0  0  0  0  0  0  0  0  0  0  0
   21.5402  -26.5980   44.7827 H   0  0  0  0  0  0  0  0  0  0  0  0
   23.7872  -27.0852   45.7391 H   0  0  0  0  0  0  0  0  0  0  0  0
   25.4559  -28.3808   44.4162 H   0  0  0  0  0  0  0  0  0  0  0  0
   24.8728  -29.1935   42.1319 H   0  0  0  0  0  0  0  0  0  0  0  0
   22.6277  -28.7133   41.1699 H   0  0  0  0  0  0  0  0  0  0  0  0
  1  2  1  0
  2  3  2  0
  3  4  1  0
  4  5  2  0
  5  6  1  0
  6  7  1  0
  7  8  1  0
  8  9  2  0
  9 10  1  0
 10 11  2  0
 11 12  1  0
 12 13  1  0
 12 14  2  0
 14 15  1  0
 15 16  2  0
 15 17  1  0
 17 18  1  0
  5 19  1  0
 19 20  2  0
 20 21  1  0
 21 22  1  0
 22 23  2  0
 23 24  1  0
 24 25  2  0
 25 26  1  0
 26 27  2  0
 20  2  1  0
 27 22  1  0
 17  6  2  0
 14  8  1  0
  1 28  1  0
  1 29  1  0
  1 30  1  0
  3 31  1  0
  4 32  1  0
  9 33  1  0
 10 34  1  0
 11 35  1  0
 13 36  1  0
 18 37  1  0
 19 38  1  0
 21 39  1  0
 21 40  1  0
 23 41  1  0
 24 42  1  0
 25 43  1  0
 26 44  1  0
 27 45  1  0
M  END
>  <meeko>  (8) 
{"is_sidechain": [false], "free_energy": -8.081, "intermolecular_energy": -9.449, "internal_energy": -0.645}

$$$$
cand_001_out
     RDKit          3D

 45 48  0  0  0  0  0  0  0  0999 V2000
   20.2290  -27.2510   39.6870 C   0  0  0  0  0  0  0  0  0  0  0  0
   20.0700  -25.9980   40.5030 C   0  0  0  0  0  0  0  0  0  0  0  0
   19.7890  -24.7940   39.8390 C   0  0  0  0  0  0  0  0  0  0  0  0
   19.6020  -23.6060   40.5500 C   0  0  0  0  0  0  0  0  0  0  0  0
   19.6780  -23.5900   41.9470 C   0  0  0  0  0  0  0  0  0  0  0  0
   19.4910  -22.3210   42.6810 C   0  0  0  0  0  0  0  0  0  0  0  0
   18.1530  -21.9610   42.8050 O   0  0  0  0  0  0  0  0  0  0  0  0
   17.8380  -20.8020   43.4680 C   0  0  0  0  0  0  0  0  0  0  0  0
   16.4850  -20.4710   43.5560 C   0  0  0  0  0  0  0  0  0  0  0  0
   16.0950  -19.3060   44.2180 C   0  0  0  0  0  0  0  0  0  0  0  0
   17.0560  -18.4720   44.7920 C   0  0  0  0  0  0  0  0  0  0  0  0
   18.4050  -18.8040   44.7030 C   0  0  0  0  0  0  0  0  0  0  0  0
   19.2930  -17.9430   45.2870 O   0  0  0  0  0  0  0  0  0  0  0  0
   18.7950  -19.9710   44.0390 C   0  0  0  0  0  0  0  0  0  0  0  0
   20.2020  -20.3560   43.9230 C   0  0  0  0  0  0  0  0  0  0  0  0
   21.1060  -19.6790   44.4080 O   0  0  0  0  0  0  0  0  0  0  0  0
   20.5100  -21.6080   43.1920 C   0  0  0  0  0  0  0  0  0  0  0  0
   21.8430  -21.9700   43.1000 O   0  0  0  0  0  0  0  0  0  0  0  0
   19.9630  -24.7910   42.6110 C   0  0  0  0  0  0  0  0  0  0  0  0
   20.1510  -26.0010   41.9110 C   0  0  0  0  0  0  0  0  0  0  0  0
   20.4200  -27.2620   42.7120 C   0  0  0  0  0  0  0  0  0  0  0  0
   21.8680  -27.4820   43.0920 C   0  0  0  0  0  0  0  0  0  0  0  0
   22.4010  -26.8560   44.2300 C   0  0  0  0  0  0  0  0  0  0  0  0
   23.7290  -27.0700   44.6030 C   0  0  0  0  0  0  0  0  0  0  0  0
   24.5380  -27.9180   43.8500 C   0  0  0  0  0  0  0  0  0  0  0  0
   24.0190  -28.5550   42.7250 C   0  0  0  0  0  0  0  0  0  0  0  0
   22.6910  -28.3430   42.3510 C   0  0  0  0  0  0  0  0  0  0  0  0
   20.3386  -28.1148   40.3591 H   0  0  0  0  0  0  0  0  0  0  0  0
   19.3413  -27.3904   39.0525 H   0  0  0  0  0  0  0  0  0  0  0  0
   21.1233  -27.1643   39.0525 H   0  0  0  0  0  0  0  0  0  0  0  0
   19.7148  -24.7855   38.7415 H   0  0  0  0  0  0  0  0  0  0  0  0
   19.3928  -22.6733   40.0057 H   0  0  0  0  0  0  0  0  0  0  0  0
   15.7269  -21.1276   43.1041 H   0  0  0  0  0  0  0  0  0  0  0  0
   15.0288  -19.0446   44.2876 H   0  0  0  0  0  0  0  0  0  0  0  0
   16.7479  -17.5540   45.3138 H   0  0  0  0  0  0  0  0  0  0  0  0
   20.1790  -17.9080   44.9860 H   0  0  0  0  0  0  0  0  0  0  0  0
   22.1850  -22.6430   43.6550 H   0  0  0  0  0  0  0  0  0  0  0  0
   20.0422  -24.7899   43.7081 H   0  0  0  0  0  0  0  0  0  0  0  0
   19.8283  -27.2107   43.6379 H   0  0  0  0  0  0  0  0  0  0  0  0
   20.1417  -28.1043   42.0616 H   0  0  0  0  0  0  0  0  0  0  0  0
   21.7661  -26.1906   44.8334 H   0  0  0  0  0  0  0  0  0  0  0  0
   24.1373  -26.5683   45.4928 H   0  0  0  0  0  0  0  0  0  0  0  0
   25.5850  -28.0844   44.1433 H   0  0  0  0  0  0  0  0  0  0  0  0
   24.6566  -29.2260   42.1306 H   0  0  0  0  0  0  0  0  0  0  0  0
   22.2858  -28.8562   41.4664 H   0  0  0  0  0  0  0  0  0  0  0  0
  1  2  1  0
  2  3  2  0
  3  4  1  0
  4  5  2  0
  5  6  1  0
  6  7  1  0
  7  8  1  0
  8  9  2  0
  9 10  1  0
 10 11  2  0
 11 12  1  0
 12 13  1  0
 12 14  2  0
 14 15  1  0
 15 16  2  0
 15 17  1  0
 17 18  1  0
  5 19  1  0
 19 20  2  0
 20 21  1  0
 21 22  1  0
 22 23  2  0
 23 24  1  0
 24 25  2  0
 25 26  1  0
 26 27  2  0
 20  2  1  0
 27 22  1  0
 17  6  2  0
 14  8  1  0
  1 28  1  0
  1 29  1  0
  1 30  1  0
  3 31  1  0
  4 32  1  0
  9 33  1  0
 10 34  1  0
 11 35  1  0
 13 36  1  0
 18 37  1  0
 19 38  1  0
 21 39  1  0
 21 40  1  0
 23 41  1  0
 24 42  1  0
 25 43  1  0
 26 44  1  0
 27 45  1  0
M  END
>  <meeko>  (9) 
{"is_sidechain": [false], "free_energy": -8.074, "intermolecular_energy": -9.077, "internal_energy": -1.01}

$$$$
