cand_037_out
     RDKit          3D

 35 37  0  0  0  0  0  0  0  0999 V2000
   21.0880  -27.1050   41.8240 C   0  0  0  0  0  0  0  0  0  0  0  0
   20.1040  -27.3870   40.7210 C   0  0  0  0  0  0  0  0  0  0  0  0
   20.1160  -28.6510   40.1040 C   0  0  0  0  0  0  0  0  0  0  0  0
   19.2260  -28.9740   39.0690 C   0  0  0  0  0  0  0  0  0  0  0  0
   19.2850  -30.3080   38.4340 C   0  0  0  0  0  0  0  0  0  0  0  0
   18.8540  -31.3260   39.2770 O   0  0  0  0  0  0  0  0  0  0  0  0
   18.8560  -32.6170   38.8130 C   0  0  0  0  0  0  0  0  0  0  0  0
   18.4290  -33.6090   39.6980 C   0  0  0  0  0  0  0  0  0  0  0  0
   18.4060  -34.9430   39.2880 C   0  0  0  0  0  0  0  0  0  0  0  0
   18.8080  -35.2870   37.9950 C   0  0  0  0  0  0  0  0  0  0  0  0
   19.2330  -34.2950   37.1140 C   0  0  0  0  0  0  0  0  0  0  0  0
   19.6120  -34.7010   35.8640 O   0  0  0  0  0  0  0  0  0  0  0  0
   19.2570  -32.9590   37.5250 C   0  0  0  0  0  0  0  0  0  0  0  0
   19.6970  -31.8870   36.6320 C   0  0  0  0  0  0  0  0  0  0  0  0
   20.0590  -32.1070   35.4790 O   0  0  0  0  0  0  0  0  0  0  0  0
   19.6930  -30.5050   37.1670 C   0  0  0  0  0  0  0  0  0  0  0  0
   20.0970  -29.4980   36.3100 O   0  0  0  0  0  0  0  0  0  0  0  0
   18.3270  -27.9930   38.6360 C   0  0  0  0  0  0  0  0  0  0  0  0
   18.3110  -26.7280   39.2310 C   0  0  0  0  0  0  0  0  0  0  0  0
   19.2010  -26.4050   40.2660 C   0  0  0  0  0  0  0  0  0  0  0  0
   19.1330  -25.0340   40.8890 C   0  0  0  0  0  0  0  0  0  0  0  0
   20.0810  -24.1750   40.4150 F   0  0  0  0  0  0  0  0  0  0  0  0
   20.5970  -27.2457   42.7982 H   0  0  0  0  0  0  0  0  0  0  0  0
   21.9406  -27.7950   41.7400 H   0  0  0  0  0  0  0  0  0  0  0  0
   21.4457  -26.0682   41.7400 H   0  0  0  0  0  0  0  0  0  0  0  0
   20.8418  -29.4054   40.4417 H   0  0  0  0  0  0  0  0  0  0  0  0
   18.1114  -33.3398   40.7162 H   0  0  0  0  0  0  0  0  0  0  0  0
   18.0705  -35.7254   39.9847 H   0  0  0  0  0  0  0  0  0  0  0  0
   18.7890  -36.3387   37.6733 H   0  0  0  0  0  0  0  0  0  0  0  0
   20.4700  -35.0510   35.7260 H   0  0  0  0  0  0  0  0  0  0  0  0
   19.5150  -28.7910   36.1110 H   0  0  0  0  0  0  0  0  0  0  0  0
   17.6258  -28.2194   37.8192 H   0  0  0  0  0  0  0  0  0  0  0  0
   17.5895  -25.9745   38.8822 H   0  0  0  0  0  0  0  0  0  0  0  0
   18.1408  -24.6063   40.6827 H   0  0  0  0  0  0  0  0  0  0  0  0
   19.3171  -25.1578   41.9664 H   0  0  0  0  0  0  0  0  0  0  0  0
  1  2  1  0
  2  3  2  0
  3  4  1  0
  4  5  1  0
  5  6  1  0
  6  7  1  0
  7  8  2  0
  8  9  1  0
  9 10  2  0
 10 11  1  0
 11 12  1  0
 11 13  2  0
 13 14  1  0
 14 15  2  0
 14 16  1  0
 16 17  1  0
  4 18  2  0
 18 19  1  0
 19 20  2  0
 20 21  1  0
 21 22  1  0
 20  2  1  0
 16  5  2  0
 13  7  1  0
  1 23  1  0
  1 24  1  0
  1 25  1  0
  3 26  1  0
  8 27  1  0
  9 28  1  0
 10 29  1  0
 12 30  1  0
 17 31  1  0
 18 32  1  0
 19 33  1  0
 21 34  1  0
 21 35  1  0
M  END
>  <meeko>  (1) 
{"is_sidechain": [false], "free_energy": -7.819, "intermolecular_energy": -9.19, "internal_energy": -0.351}

$$$$
cand_037_out
     RDKit          3D

 35 37  0  0  0  0  0  0  0  0999 V2000
   18.4320  -33.7440   39.0040 C   0  0  0  0  0  0  0  0  0  0  0  0
   18.9340  -32.4880   38.3460 C   0  0  0  0  0  0  0  0  0  0  0  0
   18.8660  -31.2730   39.0530 C   0  0  0  0  0  0  0  0  0  0  0  0
   19.3140  -30.0680   38.4930 C   0  0  0  0  0  0  0  0  0  0  0  0
   19.2060  -28.8110   39.2640 C   0  0  0  0  0  0  0  0  0  0  0  0
   20.1120  -28.7420   40.3160 O   0  0  0  0  0  0  0  0  0  0  0  0
   20.1200  -27.6270   41.1140 C   0  0  0  0  0  0  0  0  0  0  0  0
   21.0370  -27.6070   42.1670 C   0  0  0  0  0  0  0  0  0  0  0  0
   21.0970  -26.5010   43.0160 C   0  0  0  0  0  0  0  0  0  0  0  0
   20.2430  -25.4140   42.8130 C   0  0  0  0  0  0  0  0  0  0  0  0
   19.3300  -25.4360   41.7620 C   0  0  0  0  0  0  0  0  0  0  0  0
   18.5250  -24.3400   41.6200 O   0  0  0  0  0  0  0  0  0  0  0  0
   19.2690  -26.5450   40.9130 C   0  0  0  0  0  0  0  0  0  0  0  0
   18.3240  -26.6090   39.7960 C   0  0  0  0  0  0  0  0  0  0  0  0
   17.5460  -25.6910   39.5490 O   0  0  0  0  0  0  0  0  0  0  0  0
   18.3340  -27.8320   38.9600 C   0  0  0  0  0  0  0  0  0  0  0  0
   17.4470  -27.8760   37.9000 O   0  0  0  0  0  0  0  0  0  0  0  0
   19.8180  -30.0890   37.1890 C   0  0  0  0  0  0  0  0  0  0  0  0
   19.8830  -31.2850   36.4680 C   0  0  0  0  0  0  0  0  0  0  0  0
   19.4330  -32.4910   37.0280 C   0  0  0  0  0  0  0  0  0  0  0  0
   19.5400  -33.7590   36.2180 C   0  0  0  0  0  0  0  0  0  0  0  0
   20.1640  -33.5840   35.0190 F   0  0  0  0  0  0  0  0  0  0  0  0
   18.4780  -33.6289   40.0970 H   0  0  0  0  0  0  0  0  0  0  0  0
   17.3914  -33.9275   38.6981 H   0  0  0  0  0  0  0  0  0  0  0  0
   19.0594  -34.5941   38.6981 H   0  0  0  0  0  0  0  0  0  0  0  0
   18.4506  -31.2685   40.0715 H   0  0  0  0  0  0  0  0  0  0  0  0
   21.7109  -28.4616   42.3270 H   0  0  0  0  0  0  0  0  0  0  0  0
   21.8180  -26.4850   43.8466 H   0  0  0  0  0  0  0  0  0  0  0  0
   20.2918  -24.5424   43.4823 H   0  0  0  0  0  0  0  0  0  0  0  0
   17.8150  -24.3550   41.0080 H   0  0  0  0  0  0  0  0  0  0  0  0
   17.7270  -27.6170   37.0440 H   0  0  0  0  0  0  0  0  0  0  0  0
   20.1671  -29.1545   36.7254 H   0  0  0  0  0  0  0  0  0  0  0  0
   20.2927  -31.2809   35.4471 H   0  0  0  0  0  0  0  0  0  0  0  0
   20.1074  -34.4989   36.8017 H   0  0  0  0  0  0  0  0  0  0  0  0
   18.5148  -34.0956   36.0046 H   0  0  0  0  0  0  0  0  0  0  0  0
  1  2  1  0
  2  3  2  0
  3  4  1  0
  4  5  1  0
  5  6  1  0
  6  7  1  0
  7  8  2  0
  8  9  1  0
  9 10  2  0
 10 11  1  0
 11 12  1  0
 11 13  2  0
 13 14  1  0
 14 15  2  0
 14 16  1  0
 16 17  1  0
  4 18  2  0
 18 19  1  0
 19 20  2  0
 20 21  1  0
 21 22  1  0
 20  2  1  0
 16  5  2  0
 13  7  1  0
  1 23  1  0
  1 24  1  0
  1 25  1  0
  3 26  1  0
  8 27  1  0
  9 28  1  0
 10 29  1  0
 12 30  1  0
 17 31  1  0
 18 32  1  0
 19 33  1  0
 21 34  1  0
 21 35  1  0
M  END
>  <meeko>  (2) 
{"is_sidechain": [false], "free_energy": -7.491, "intermolecular_energy": -8.829, "internal_energy": -0.327}

$$$$
cand_037_out
     RDKit          3D

 35 37  0  0  0  0  0  0  0  0999 V2000
   19.4190  -24.7560   37.4250 C   0  0  0  0  0  0  0  0  0  0  0  0
   19.4910  -26.0530   38.1850 C   0  0  0  0  0  0  0  0  0  0  0  0
   20.2430  -26.1050   39.3740 C   0  0  0  0  0  0  0  0  0  0  0  0
   20.3500  -27.2850   40.1250 C   0  0  0  0  0  0  0  0  0  0  0  0
   21.1670  -27.3020   41.3580 C   0  0  0  0  0  0  0  0  0  0  0  0
   22.1750  -28.2580   41.3250 O   0  0  0  0  0  0  0  0  0  0  0  0
   23.0090  -28.3810   42.4070 C   0  0  0  0  0  0  0  0  0  0  0  0
   23.9990  -29.3640   42.3370 C   0  0  0  0  0  0  0  0  0  0  0  0
   24.8810  -29.5390   43.4040 C   0  0  0  0  0  0  0  0  0  0  0  0
   24.7780  -28.7340   44.5390 C   0  0  0  0  0  0  0  0  0  0  0  0
   23.7910  -27.7530   44.6070 C   0  0  0  0  0  0  0  0  0  0  0  0
   23.7460  -26.9990   45.7470 O   0  0  0  0  0  0  0  0  0  0  0  0
   22.9060  -27.5780   43.5390 C   0  0  0  0  0  0  0  0  0  0  0  0
   21.8540  -26.5600   43.5690 C   0  0  0  0  0  0  0  0  0  0  0  0
   21.7040  -25.8080   44.5290 O   0  0  0  0  0  0  0  0  0  0  0  0
   20.9630  -26.4610   42.3890 C   0  0  0  0  0  0  0  0  0  0  0  0
   19.9830  -25.4870   42.4220 O   0  0  0  0  0  0  0  0  0  0  0  0
   19.7070  -28.4340   39.6540 C   0  0  0  0  0  0  0  0  0  0  0  0
   18.9660  -28.4010   38.4690 C   0  0  0  0  0  0  0  0  0  0  0  0
   18.8580  -27.2210   37.7170 C   0  0  0  0  0  0  0  0  0  0  0  0
   18.0320  -27.2300   36.4550 C   0  0  0  0  0  0  0  0  0  0  0  0
   18.7690  -27.4360   35.3270 F   0  0  0  0  0  0  0  0  0  0  0  0
   19.3724  -23.9171   38.1350 H   0  0  0  0  0  0  0  0  0  0  0  0
   20.3127  -24.6517   36.7923 H   0  0  0  0  0  0  0  0  0  0  0  0
   18.5192  -24.7512   36.7923 H   0  0  0  0  0  0  0  0  0  0  0  0
   20.7592  -25.1983   39.7226 H   0  0  0  0  0  0  0  0  0  0  0  0
   24.0831  -29.9988   41.4426 H   0  0  0  0  0  0  0  0  0  0  0  0
   25.6598  -30.3139   43.3502 H   0  0  0  0  0  0  0  0  0  0  0  0
   25.4748  -28.8736   45.3786 H   0  0  0  0  0  0  0  0  0  0  0  0
   24.3510  -27.1660   46.4430 H   0  0  0  0  0  0  0  0  0  0  0  0
   19.4390  -25.3950   43.1800 H   0  0  0  0  0  0  0  0  0  0  0  0
   19.7850  -29.3731   40.2215 H   0  0  0  0  0  0  0  0  0  0  0  0
   18.4600  -29.3136   38.1208 H   0  0  0  0  0  0  0  0  0  0  0  0
   17.2836  -28.0323   36.5339 H   0  0  0  0  0  0  0  0  0  0  0  0
   17.5686  -26.2366   36.3632 H   0  0  0  0  0  0  0  0  0  0  0  0
  1  2  1  0
  2  3  2  0
  3  4  1  0
  4  5  1  0
  5  6  1  0
  6  7  1  0
  7  8  2  0
  8  9  1  0
  9 10  2  0
 10 11  1  0
 11 12  1  0
 11 13  2  0
 13 14  1  0
 14 15  2  0
 14 16  1  0
 16 17  1  0
  4 18  2  0
 18 19  1  0
 19 20  2  0
 20 21  1  0
 21 22  1  0
 20  2  1  0
 16  5  2  0
 13  7  1  0
  1 23  1  0
  1 24  1  0
  1 25  1  0
  3 26  1  0
  8 27  1  0
  9 28  1  0
 10 29  1  0
 12 30  1  0
 17 31  1  0
 18 32  1  0
 19 33  1  0
 21 34  1  0
 21 35  1  0
M  END
>  <meeko>  (3) 
{"is_sidechain": [false], "free_energy": -7.038, "intermolecular_energy": -8.395, "internal_energy": -0.229}

$$$$
cand_037_out
     RDKit          3D

 35 37  0  0  0  0  0  0  0  0999 V2000
   21.1640  -27.1960   42.1340 C   0  0  0  0  0  0  0  0  0  0  0  0
   20.2320  -27.2460   40.9530 C   0  0  0  0  0  0  0  0  0  0  0  0
   20.3120  -28.3360   40.0670 C   0  0  0  0  0  0  0  0  0  0  0  0
   19.4730  -28.4380   38.9480 C   0  0  0  0  0  0  0  0  0  0  0  0
   19.6030  -29.5910   38.0310 C   0  0  0  0  0  0  0  0  0  0  0  0
   19.9120  -29.2140   36.7290 O   0  0  0  0  0  0  0  0  0  0  0  0
   20.0630  -30.1870   35.7750 C   0  0  0  0  0  0  0  0  0  0  0  0
   20.3590  -29.7620   34.4780 C   0  0  0  0  0  0  0  0  0  0  0  0
   20.5270  -30.7020   33.4590 C   0  0  0  0  0  0  0  0  0  0  0  0
   20.4000  -32.0650   33.7360 C   0  0  0  0  0  0  0  0  0  0  0  0
   20.1060  -32.4860   35.0300 C   0  0  0  0  0  0  0  0  0  0  0  0
   19.9970  -33.8350   35.2310 O   0  0  0  0  0  0  0  0  0  0  0  0
   19.9370  -31.5450   36.0490 C   0  0  0  0  0  0  0  0  0  0  0  0
   19.6270  -31.9450   37.4230 C   0  0  0  0  0  0  0  0  0  0  0  0
   19.5070  -33.1240   37.7470 O   0  0  0  0  0  0  0  0  0  0  0  0
   19.4590  -30.8690   38.4280 C   0  0  0  0  0  0  0  0  0  0  0  0
   19.1800  -31.2580   39.7250 O   0  0  0  0  0  0  0  0  0  0  0  0
   18.5560  -27.4090   38.7090 C   0  0  0  0  0  0  0  0  0  0  0  0
   18.4730  -26.3130   39.5730 C   0  0  0  0  0  0  0  0  0  0  0  0
   19.3120  -26.2110   40.6930 C   0  0  0  0  0  0  0  0  0  0  0  0
   19.1720  -25.0190   41.6070 C   0  0  0  0  0  0  0  0  0  0  0  0
   19.9190  -23.9470   41.2170 F   0  0  0  0  0  0  0  0  0  0  0  0
   20.5785  -27.2274   43.0647 H   0  0  0  0  0  0  0  0  0  0  0  0
   21.8454  -28.0589   42.1002 H   0  0  0  0  0  0  0  0  0  0  0  0
   21.7492  -26.2652   42.1002 H   0  0  0  0  0  0  0  0  0  0  0  0
   21.0513  -29.1281   40.2568 H   0  0  0  0  0  0  0  0  0  0  0  0
   20.4596  -28.6886   34.2595 H   0  0  0  0  0  0  0  0  0  0  0  0
   20.7596  -30.3685   32.4369 H   0  0  0  0  0  0  0  0  0  0  0  0
   20.5321  -32.8049   32.9328 H   0  0  0  0  0  0  0  0  0  0  0  0
   19.5840  -34.3730   34.5850 H   0  0  0  0  0  0  0  0  0  0  0  0
   19.0050  -30.6120   40.3810 H   0  0  0  0  0  0  0  0  0  0  0  0
   17.8936  -27.4627   37.8325 H   0  0  0  0  0  0  0  0  0  0  0  0
   17.7390  -25.5188   39.3718 H   0  0  0  0  0  0  0  0  0  0  0  0
   18.1142  -24.7179   41.6278 H   0  0  0  0  0  0  0  0  0  0  0  0
   19.5366  -25.3254   42.5985 H   0  0  0  0  0  0  0  0  0  0  0  0
  1  2  1  0
  2  3  2  0
  3  4  1  0
  4  5  1  0
  5  6  1  0
  6  7  1  0
  7  8  2  0
  8  9  1  0
  9 10  2  0
 10 11  1  0
 11 12  1  0
 11 13  2  0
 13 14  1  0
 14 15  2  0
 14 16  1  0
 16 17  1  0
  4 18  2  0
 18 19  1  0
 19 20  2  0
 20 21  1  0
 21 22  1  0
 20  2  1  0
 16  5  2  0
 13  7  1  0
  1 23  1  0
  1 24  1  0
  1 25  1  0
  3 26  1  0
  8 27  1  0
  9 28  1  0
 10 29  1  0
 12 30  1  0
 17 31  1  0
 18 32  1  0
 19 33  1  0
 21 34  1  0
 21 35  1  0
M  END
>  <meeko>  (4) 
{"is_sidechain": [false], "free_energy": -6.877, "intermolecular_energy": -8.186, "internal_energy": -0.249}

$$$$
cand_037_out
     RDKit          3D

 35 37  0  0  0  0  0  0  0  0999 V2000
   23.8710  -28.7460   42.2770 C   0  0  0  0  0  0  0  0  0  0  0  0
   22.6430  -27.8770   42.2910 C   0  0  0  0  0  0  0  0  0  0  0  0
   21.9870  -27.6030   41.0770 C   0  0  0  0  0  0  0  0  0  0  0  0
   20.8400  -26.7970   41.0250 C   0  0  0  0  0  0  0  0  0  0  0  0
   20.1930  -26.5190   39.7250 C   0  0  0  0  0  0  0  0  0  0  0  0
   19.9990  -25.1610   39.4980 O   0  0  0  0  0  0  0  0  0  0  0  0
   19.4090  -24.7610   38.3270 C   0  0  0  0  0  0  0  0  0  0  0  0
   19.2200  -23.3900   38.1470 C   0  0  0  0  0  0  0  0  0  0  0  0
   18.6260  -22.9170   36.9760 C   0  0  0  0  0  0  0  0  0  0  0  0
   18.2210  -23.8120   35.9840 C   0  0  0  0  0  0  0  0  0  0  0  0
   18.4100  -25.1800   36.1650 C   0  0  0  0  0  0  0  0  0  0  0  0
   17.9910  -26.0010   35.1540 O   0  0  0  0  0  0  0  0  0  0  0  0
   19.0040  -25.6540   37.3380 C   0  0  0  0  0  0  0  0  0  0  0  0
   19.2210  -27.0830   37.5690 C   0  0  0  0  0  0  0  0  0  0  0  0
   18.8990  -27.9320   36.7420 O   0  0  0  0  0  0  0  0  0  0  0  0
   19.8520  -27.4820   38.8490 C   0  0  0  0  0  0  0  0  0  0  0  0
   20.0650  -28.8330   39.0500 O   0  0  0  0  0  0  0  0  0  0  0  0
   20.3640  -26.2420   42.2170 C   0  0  0  0  0  0  0  0  0  0  0  0
   21.0110  -26.4940   43.4300 C   0  0  0  0  0  0  0  0  0  0  0  0
   22.1590  -27.3000   43.4830 C   0  0  0  0  0  0  0  0  0  0  0  0
   22.8110  -27.5600   44.8170 C   0  0  0  0  0  0  0  0  0  0  0  0
   22.6230  -28.8310   45.2740 F   0  0  0  0  0  0  0  0  0  0  0  0
   24.1782  -28.9634   43.3106 H   0  0  0  0  0  0  0  0  0  0  0  0
   23.6475  -29.6882   41.7551 H   0  0  0  0  0  0  0  0  0  0  0  0
   24.6852  -28.2219   41.7551 H   0  0  0  0  0  0  0  0  0  0  0  0
   22.3836  -28.0317   40.1448 H   0  0  0  0  0  0  0  0  0  0  0  0
   19.5388  -22.6831   38.9271 H   0  0  0  0  0  0  0  0  0  0  0  0
   18.4766  -21.8364   36.8343 H   0  0  0  0  0  0  0  0  0  0  0  0
   17.7536  -23.4375   35.0613 H   0  0  0  0  0  0  0  0  0  0  0  0
   17.1020  -25.9660   34.8610 H   0  0  0  0  0  0  0  0  0  0  0  0
   20.7920  -29.1200   39.5680 H   0  0  0  0  0  0  0  0  0  0  0  0
   19.4708  -25.6002   42.1998 H   0  0  0  0  0  0  0  0  0  0  0  0
   20.6146  -26.0541   44.3570 H   0  0  0  0  0  0  0  0  0  0  0  0
   23.8919  -27.3818   44.7173 H   0  0  0  0  0  0  0  0  0  0  0  0
   22.3426  -26.8810   45.5448 H   0  0  0  0  0  0  0  0  0  0  0  0
  1  2  1  0
  2  3  2  0
  3  4  1  0
  4  5  1  0
  5  6  1  0
  6  7  1  0
  7  8  2  0
  8  9  1  0
  9 10  2  0
 10 11  1  0
 11 12  1  0
 11 13  2  0
 13 14  1  0
 14 15  2  0
 14 16  1  0
 16 17  1  0
  4 18  2  0
 18 19  1  0
 19 20  2  0
 20 21  1  0
 21 22  1  0
 20  2  1  0
 16  5  2  0
 13  7  1  0
  1 23  1  0
  1 24  1  0
  1 25  1  0
  3 26  1  0
  8 27  1  0
  9 28  1  0
 10 29  1  0
 12 30  1  0
 17 31  1  0
 18 32  1  0
 19 33  1  0
 21 34  1  0
 21 35  1  0
M  END
>  <meeko>  (5) 
{"is_sidechain": [false], "free_energy": -6.803, "intermolecular_energy": -8.195, "internal_energy": -0.153}

$$$$
cand_037_out
     RDKit          3D

 35 37  0  0  0  0  0  0  0  0999 V2000
   24.4030  -29.8640   42.1430 C   0  0  0  0  0  0  0  0  0  0  0  0
   23.4160  -28.8150   42.5780 C   0  0  0  0  0  0  0  0  0  0  0  0
   22.5030  -28.3050   41.6370 C   0  0  0  0  0  0  0  0  0  0  0  0
   21.5620  -27.3240   41.9810 C   0  0  0  0  0  0  0  0  0  0  0  0
   20.6340  -26.8000   40.9560 C   0  0  0  0  0  0  0  0  0  0  0  0
   20.5550  -25.4120   40.9560 O   0  0  0  0  0  0  0  0  0  0  0  0
   19.7300  -24.7940   40.0520 C   0  0  0  0  0  0  0  0  0  0  0  0
   19.6700  -23.4000   40.0980 C   0  0  0  0  0  0  0  0  0  0  0  0
   18.8510  -22.7090   39.2040 C   0  0  0  0  0  0  0  0  0  0  0  0
   18.0920  -23.4090   38.2640 C   0  0  0  0  0  0  0  0  0  0  0  0
   18.1530  -24.7990   38.2200 C   0  0  0  0  0  0  0  0  0  0  0  0
   17.3840  -25.4220   37.2750 O   0  0  0  0  0  0  0  0  0  0  0  0
   18.9720  -25.4920   39.1160 C   0  0  0  0  0  0  0  0  0  0  0  0
   19.0660  -26.9530   39.1040 C   0  0  0  0  0  0  0  0  0  0  0  0
   18.4350  -27.6390   38.3030 O   0  0  0  0  0  0  0  0  0  0  0  0
   19.9580  -27.5900   40.1000 C   0  0  0  0  0  0  0  0  0  0  0  0
   20.0500  -28.9700   40.0710 O   0  0  0  0  0  0  0  0  0  0  0  0
   21.5600  -26.8360   43.2920 C   0  0  0  0  0  0  0  0  0  0  0  0
   22.4670  -27.3240   44.2360 C   0  0  0  0  0  0  0  0  0  0  0  0
   23.4100  -28.3050   43.8920 C   0  0  0  0  0  0  0  0  0  0  0  0
   24.3570  -28.8140   44.9500 C   0  0  0  0  0  0  0  0  0  0  0  0
   25.6650  -28.7740   44.5710 F   0  0  0  0  0  0  0  0  0  0  0  0
   24.8490  -30.3380   43.0298 H   0  0  0  0  0  0  0  0  0  0  0  0
   23.8867  -30.6259   41.5406 H   0  0  0  0  0  0  0  0  0  0  0  0
   25.1949  -29.3950   41.5406 H   0  0  0  0  0  0  0  0  0  0  0  0
   22.5279  -28.6855   40.6052 H   0  0  0  0  0  0  0  0  0  0  0  0
   20.2674  -22.8471   40.8379 H   0  0  0  0  0  0  0  0  0  0  0  0
   18.8033  -21.6106   39.2399 H   0  0  0  0  0  0  0  0  0  0  0  0
   17.4471  -22.8631   37.5596 H   0  0  0  0  0  0  0  0  0  0  0  0
   17.7900  -25.8230   36.5320 H   0  0  0  0  0  0  0  0  0  0  0  0
   19.9560  -29.4270   39.2580 H   0  0  0  0  0  0  0  0  0  0  0  0
   20.8367  -26.0599   43.5827 H   0  0  0  0  0  0  0  0  0  0  0  0
   22.4417  -26.9336   45.2641 H   0  0  0  0  0  0  0  0  0  0  0  0
   24.2365  -28.1961   45.8520 H   0  0  0  0  0  0  0  0  0  0  0  0
   24.1040  -29.8690   45.1313 H   0  0  0  0  0  0  0  0  0  0  0  0
  1  2  1  0
  2  3  2  0
  3  4  1  0
  4  5  1  0
  5  6  1  0
  6  7  1  0
  7  8  2  0
  8  9  1  0
  9 10  2  0
 10 11  1  0
 11 12  1  0
 11 13  2  0
 13 14  1  0
 14 15  2  0
 14 16  1  0
 16 17  1  0
  4 18  2  0
 18 19  1  0
 19 20  2  0
 20 21  1  0
 21 22  1  0
 20  2  1  0
 16  5  2  0
 13  7  1  0
  1 23  1  0
  1 24  1  0
  1 25  1  0
  3 26  1  0
  8 27  1  0
  9 28  1  0
 10 29  1  0
 12 30  1  0
 17 31  1  0
 18 32  1  0
 19 33  1  0
 21 34  1  0
 21 35  1  0
M  END
>  <meeko>  (6) 
{"is_sidechain": [false], "free_energy": -6.778, "intermolecular_energy": -8.403, "internal_energy": 0.085}

$$$$
cand_037_out
     RDKit          3D

 35 37  0  0  0  0  0  0  0  0999 V2000
   20.0310  -25.3390   49.1160 C   0  0  0  0  0  0  0  0  0  0  0  0
   20.5830  -24.4410   48.0430 C   0  0  0  0  0  0  0  0  0  0  0  0
   20.1570  -24.6240   46.7140 C   0  0  0  0  0  0  0  0  0  0  0  0
   20.6380  -23.8210   45.6690 C   0  0  0  0  0  0  0  0  0  0  0  0
   20.1790  -24.0620   44.2840 C   0  0  0  0  0  0  0  0  0  0  0  0
   20.4410  -25.3550   43.8450 O   0  0  0  0  0  0  0  0  0  0  0  0
   20.0660  -25.7130   42.5760 C   0  0  0  0  0  0  0  0  0  0  0  0
   20.3620  -27.0170   42.1720 C   0  0  0  0  0  0  0  0  0  0  0  0
   20.0050  -27.4460   40.8920 C   0  0  0  0  0  0  0  0  0  0  0  0
   19.3530  -26.5750   40.0170 C   0  0  0  0  0  0  0  0  0  0  0  0
   19.0580  -25.2760   40.4220 C   0  0  0  0  0  0  0  0  0  0  0  0
   18.4180  -24.4760   39.5160 O   0  0  0  0  0  0  0  0  0  0  0  0
   19.4160  -24.8450   41.7030 C   0  0  0  0  0  0  0  0  0  0  0  0
   19.1260  -23.4880   42.1690 C   0  0  0  0  0  0  0  0  0  0  0  0
   18.5490  -22.6670   41.4610 O   0  0  0  0  0  0  0  0  0  0  0  0
   19.5540  -23.1290   43.5420 C   0  0  0  0  0  0  0  0  0  0  0  0
   19.2620  -21.8500   43.9760 O   0  0  0  0  0  0  0  0  0  0  0  0
   21.5790  -22.8330   45.9710 C   0  0  0  0  0  0  0  0  0  0  0  0
   22.0210  -22.6440   47.2830 C   0  0  0  0  0  0  0  0  0  0  0  0
   21.5420  -23.4480   48.3290 C   0  0  0  0  0  0  0  0  0  0  0  0
   22.0340  -23.1950   49.7320 C   0  0  0  0  0  0  0  0  0  0  0  0
   23.3840  -23.0210   49.8100 F   0  0  0  0  0  0  0  0  0  0  0  0
   20.2839  -24.9276   50.1044 H   0  0  0  0  0  0  0  0  0  0  0  0
   18.9376  -25.4027   49.0142 H   0  0  0  0  0  0  0  0  0  0  0  0
   20.4679  -26.3434   49.0142 H   0  0  0  0  0  0  0  0  0  0  0  0
   19.4284  -25.4168   46.4890 H   0  0  0  0  0  0  0  0  0  0  0  0
   20.8752  -27.7044   42.8606 H   0  0  0  0  0  0  0  0  0  0  0  0
   20.2380  -28.4724   40.5723 H   0  0  0  0  0  0  0  0  0  0  0  0
   19.0728  -26.9146   39.0090 H   0  0  0  0  0  0  0  0  0  0  0  0
   18.1720  -23.6040   39.7530 H   0  0  0  0  0  0  0  0  0  0  0  0
   19.6910  -21.5030   44.7340 H   0  0  0  0  0  0  0  0  0  0  0  0
   21.9764  -22.1967   45.1665 H   0  0  0  0  0  0  0  0  0  0  0  0
   22.7549  -21.8537   47.4992 H   0  0  0  0  0  0  0  0  0  0  0  0
   21.5430  -22.2884   50.1153 H   0  0  0  0  0  0  0  0  0  0  0  0
   21.7868  -24.0859   50.3280 H   0  0  0  0  0  0  0  0  0  0  0  0
  1  2  1  0
  2  3  2  0
  3  4  1  0
  4  5  1  0
  5  6  1  0
  6  7  1  0
  7  8  2  0
  8  9  1  0
  9 10  2  0
 10 11  1  0
 11 12  1  0
 11 13  2  0
 13 14  1  0
 14 15  2  0
 14 16  1  0
 16 17  1  0
  4 18  2  0
 18 19  1  0
 19 20  2  0
 20 21  1  0
 21 22  1  0
 20  2  1  0
 16  5  2  0
 13  7  1  0
  1 23  1  0
  1 24  1  0
  1 25  1  0
  3 26  1  0
  8 27  1  0
  9 28  1  0
 10 29  1  0
 12 30  1  0
 17 31  1  0
 18 32  1  0
 19 33  1  0
 21 34  1  0
 21 35  1  0
M  END
>  <meeko>  (7) 
{"is_sidechain": [false], "free_energy": -6.62, "intermolecular_energy": -7.861, "internal_energy": -0.272}

$$$$
cand_037_out
     RDKit          3D

 35 37  0  0  0  0  0  0  0  0999 V2000
   20.0690  -32.1770   35.5750 C   0  0  0  0  0  0  0  0  0  0  0  0
   19.6650  -31.6250   36.9150 C   0  0  0  0  0  0  0  0  0  0  0  0
   19.7010  -30.2320   37.1170 C   0  0  0  0  0  0  0  0  0  0  0  0
   19.3400  -29.6570   38.3440 C   0  0  0  0  0  0  0  0  0  0  0  0
   19.4110  -28.1910   38.5200 C   0  0  0  0  0  0  0  0  0  0  0  0
   18.6750  -27.4960   37.5660 O   0  0  0  0  0  0  0  0  0  0  0  0
   18.6540  -26.1260   37.6140 C   0  0  0  0  0  0  0  0  0  0  0  0
   17.9140  -25.4680   36.6280 C   0  0  0  0  0  0  0  0  0  0  0  0
   17.8500  -24.0740   36.6210 C   0  0  0  0  0  0  0  0  0  0  0  0
   18.5220  -23.3360   37.5970 C   0  0  0  0  0  0  0  0  0  0  0  0
   19.2580  -23.9930   38.5790 C   0  0  0  0  0  0  0  0  0  0  0  0
   19.8920  -23.2100   39.5040 O   0  0  0  0  0  0  0  0  0  0  0  0
   19.3240  -25.3890   38.5860 C   0  0  0  0  0  0  0  0  0  0  0  0
   20.0870  -26.1200   39.6000 C   0  0  0  0  0  0  0  0  0  0  0  0
   20.6990  -25.5430   40.4950 O   0  0  0  0  0  0  0  0  0  0  0  0
   20.0990  -27.5990   39.5150 C   0  0  0  0  0  0  0  0  0  0  0  0
   20.8110  -28.2790   40.4850 O   0  0  0  0  0  0  0  0  0  0  0  0
   18.9590  -30.5050   39.3890 C   0  0  0  0  0  0  0  0  0  0  0  0
   18.9290  -31.8910   39.2080 C   0  0  0  0  0  0  0  0  0  0  0  0
   19.2910  -32.4670   37.9810 C   0  0  0  0  0  0  0  0  0  0  0  0
   19.2250  -33.9660   37.8270 C   0  0  0  0  0  0  0  0  0  0  0  0
   19.6420  -34.6420   38.9350 F   0  0  0  0  0  0  0  0  0  0  0  0
   20.7130  -33.0569   35.7200 H   0  0  0  0  0  0  0  0  0  0  0  0
   19.1699  -32.4693   35.0127 H   0  0  0  0  0  0  0  0  0  0  0  0
   20.6195  -31.4084   35.0127 H   0  0  0  0  0  0  0  0  0  0  0  0
   20.0203  -29.5785   36.2918 H   0  0  0  0  0  0  0  0  0  0  0  0
   17.3829  -26.0478   35.8588 H   0  0  0  0  0  0  0  0  0  0  0  0
   17.2686  -23.5554   35.8445 H   0  0  0  0  0  0  0  0  0  0  0  0
   18.4700  -22.2373   37.5901 H   0  0  0  0  0  0  0  0  0  0  0  0
   20.7730  -23.4030   39.7580 H   0  0  0  0  0  0  0  0  0  0  0  0
   21.6370  -28.6660   40.2740 H   0  0  0  0  0  0  0  0  0  0  0  0
   18.6801  -30.0771   40.3632 H   0  0  0  0  0  0  0  0  0  0  0  0
   18.6170  -32.5395   40.0399 H   0  0  0  0  0  0  0  0  0  0  0  0
   18.1832  -34.2496   37.6168 H   0  0  0  0  0  0  0  0  0  0  0  0
   19.9034  -34.2387   37.0052 H   0  0  0  0  0  0  0  0  0  0  0  0
  1  2  1  0
  2  3  2  0
  3  4  1  0
  4  5  1  0
  5  6  1  0
  6  7  1  0
  7  8  2  0
  8  9  1  0
  9 10  2  0
 10 11  1  0
 11 12  1  0
 11 13  2  0
 13 14  1  0
 14 15  2  0
 14 16  1  0
 16 17  1  0
  4 18  2  0
 18 19  1  0
 19 20  2  0
 20 21  1  0
 21 22  1  0
 20  2  1  0
 16  5  2  0
 13  7  1  0
  1 23  1  0
  1 24  1  0
  1 25  1  0
  3 26  1  0
  8 27  1  0
  9 28  1  0
 10 29  1  0
 12 30  1  0
 17 31  1  0
 18 32  1  0
 19 33  1  0
 21 34  1  0
 21 35  1  0
M  END
>  <meeko>  (8) 
{"is_sidechain": [false], "free_energy": -6.572, "intermolecular_energy": -7.898, "internal_energy": -0.178}

$$$$
cand_037_out
     RDKit          3D

 35 37  0  0  0  0  0  0  0  0999 V2000
   19.7010  -22.1920   42.6590 C   0  0  0  0  0  0  0  0  0  0  0  0
   19.6500  -23.6290   42.2190 C   0  0  0  0  0  0  0  0  0  0  0  0
   19.4740  -23.9180   40.8530 C   0  0  0  0  0  0  0  0  0  0  0  0
   19.4150  -25.2370   40.3800 C   0  0  0  0  0  0  0  0  0  0  0  0
   19.2080  -25.4950   38.9390 C   0  0  0  0  0  0  0  0  0  0  0  0
   18.0920  -24.8430   38.4280 O   0  0  0  0  0  0  0  0  0  0  0  0
   17.7830  -24.9960   37.1010 C   0  0  0  0  0  0  0  0  0  0  0  0
   16.6450  -24.3350   36.6340 C   0  0  0  0  0  0  0  0  0  0  0  0
   16.2770  -24.4480   35.2920 C   0  0  0  0  0  0  0  0  0  0  0  0
   17.0440  -25.2190   34.4170 C   0  0  0  0  0  0  0  0  0  0  0  0
   18.1790  -25.8770   34.8840 C   0  0  0  0  0  0  0  0  0  0  0  0
   18.8850  -26.6140   33.9740 O   0  0  0  0  0  0  0  0  0  0  0  0
   18.5480  -25.7650   36.2280 C   0  0  0  0  0  0  0  0  0  0  0  0
   19.7320  -26.4400   36.7610 C   0  0  0  0  0  0  0  0  0  0  0  0
   20.4620  -27.1300   36.0530 O   0  0  0  0  0  0  0  0  0  0  0  0
   20.0320  -26.2630   38.2010 C   0  0  0  0  0  0  0  0  0  0  0  0
   21.1610  -26.8940   38.6910 O   0  0  0  0  0  0  0  0  0  0  0  0
   19.5140  -26.2790   41.3070 C   0  0  0  0  0  0  0  0  0  0  0  0
   19.6790  -26.0100   42.6690 C   0  0  0  0  0  0  0  0  0  0  0  0
   19.7360  -24.6900   43.1420 C   0  0  0  0  0  0  0  0  0  0  0  0
   19.9340  -24.4490   44.6180 C   0  0  0  0  0  0  0  0  0  0  0  0
   21.1420  -24.8780   45.0800 F   0  0  0  0  0  0  0  0  0  0  0  0
   19.7027  -22.1449   43.7580 H   0  0  0  0  0  0  0  0  0  0  0  0
   20.6164  -21.7218   42.2704 H   0  0  0  0  0  0  0  0  0  0  0  0
   18.8212  -21.6581   42.2704 H   0  0  0  0  0  0  0  0  0  0  0  0
   19.3803  -23.0877   40.1376 H   0  0  0  0  0  0  0  0  0  0  0  0
   16.0398  -23.7265   37.3221 H   0  0  0  0  0  0  0  0  0  0  0  0
   15.3804  -23.9282   34.9233 H   0  0  0  0  0  0  0  0  0  0  0  0
   16.7523  -25.3067   33.3600 H   0  0  0  0  0  0  0  0  0  0  0  0
   19.2810  -27.4230   34.2330 H   0  0  0  0  0  0  0  0  0  0  0  0
   21.0900  -27.4870   39.4130 H   0  0  0  0  0  0  0  0  0  0  0  0
   19.4615  -27.3218   40.9609 H   0  0  0  0  0  0  0  0  0  0  0  0
   19.7654  -26.8449   43.3800 H   0  0  0  0  0  0  0  0  0  0  0  0
   19.8515  -23.3688   44.8089 H   0  0  0  0  0  0  0  0  0  0  0  0
   19.1610  -25.0255   45.1473 H   0  0  0  0  0  0  0  0  0  0  0  0
  1  2  1  0
  2  3  2  0
  3  4  1  0
  4  5  1  0
  5  6  1  0
  6  7  1  0
  7  8  2  0
  8  9  1  0
  9 10  2  0
 10 11  1  0
 11 12  1  0
 11 13  2  0
 13 14  1  0
 14 15  2  0
 14 16  1  0
 16 17  1  0
  4 18  2  0
 18 19  1  0
 19 20  2  0
 20 21  1  0
 21 22  1  0
 20  2  1  0
 16  5  2  0
 13  7  1  0
  1 23  1  0
  1 24  1  0
  1 25  1  0
  3 26  1  0
  8 27  1  0
  9 28  1  0
 10 29  1  0
 12 30  1  0
 17 31  1  0
 18 32  1  0
 19 33  1  0
 21 34  1  0
 21 35  1  0
M  END
>  <meeko>  (9) 
{"is_sidechain": [false], "free_energy": -6.474, "intermolecular_energy": -7.718, "internal_energy": -0.243}

$$$$
