cand_048_out
     RDKit          3D

 37 39  0  0  0  0  0  0  0  0999 V2000
   19.6460  -24.0080   40.3500 C   0  0  0  0  0  0  0  0  0  0  0  0
   19.0420  -25.0850   40.8680 C   0  0  0  0  0  0  0  0  0  0  0  0
   19.1270  -26.4360   40.2840 C   0  0  0  0  0  0  0  0  0  0  0  0
   18.2700  -26.7810   39.2260 C   0  0  0  0  0  0  0  0  0  0  0  0
   18.3470  -28.0370   38.6190 C   0  0  0  0  0  0  0  0  0  0  0  0
   19.2890  -28.9790   39.0430 C   0  0  0  0  0  0  0  0  0  0  0  0
   19.3320  -30.3130   38.4090 C   0  0  0  0  0  0  0  0  0  0  0  0
   18.8790  -31.3260   39.2470 O   0  0  0  0  0  0  0  0  0  0  0  0
   18.8680  -32.6160   38.7820 C   0  0  0  0  0  0  0  0  0  0  0  0
   18.4200  -33.6020   39.6620 C   0  0  0  0  0  0  0  0  0  0  0  0
   18.3810  -34.9360   39.2520 C   0  0  0  0  0  0  0  0  0  0  0  0
   18.7890  -35.2840   37.9630 C   0  0  0  0  0  0  0  0  0  0  0  0
   19.2360  -34.2980   37.0870 C   0  0  0  0  0  0  0  0  0  0  0  0
   19.6190  -34.7080   35.8400 O   0  0  0  0  0  0  0  0  0  0  0  0
   19.2750  -32.9630   37.4980 C   0  0  0  0  0  0  0  0  0  0  0  0
   19.7370  -31.8970   36.6090 C   0  0  0  0  0  0  0  0  0  0  0  0
   20.1050  -32.1210   35.4580 O   0  0  0  0  0  0  0  0  0  0  0  0
   19.7480  -30.5150   37.1440 C   0  0  0  0  0  0  0  0  0  0  0  0
   20.1730  -29.5120   36.2930 O   0  0  0  0  0  0  0  0  0  0  0  0
   20.1460  -28.6370   40.0990 C   0  0  0  0  0  0  0  0  0  0  0  0
   20.0930  -27.3710   40.7140 C   0  0  0  0  0  0  0  0  0  0  0  0
   21.0000  -27.0810   41.8390 C   0  0  0  0  0  0  0  0  0  0  0  0
   22.2260  -27.6080   41.9610 C   0  0  0  0  0  0  0  0  0  0  0  0
   19.5391  -23.0288   40.8396 H   0  0  0  0  0  0  0  0  0  0  0  0
   20.2490  -24.1025   39.4349 H   0  0  0  0  0  0  0  0  0  0  0  0
   18.4470  -24.9539   41.7838 H   0  0  0  0  0  0  0  0  0  0  0  0
   17.5274  -26.0517   38.8702 H   0  0  0  0  0  0  0  0  0  0  0  0
   17.6587  -28.2875   37.7983 H   0  0  0  0  0  0  0  0  0  0  0  0
   18.0979  -33.3285   40.6776 H   0  0  0  0  0  0  0  0  0  0  0  0
   18.0284  -35.7138   39.9454 H   0  0  0  0  0  0  0  0  0  0  0  0
   18.7575  -36.3350   37.6399 H   0  0  0  0  0  0  0  0  0  0  0  0
   19.2900  -35.5110   35.4880 H   0  0  0  0  0  0  0  0  0  0  0  0
   19.7340  -28.6850   36.2880 H   0  0  0  0  0  0  0  0  0  0  0  0
   20.8782  -29.3762   40.4561 H   0  0  0  0  0  0  0  0  0  0  0  0
   20.6507  -26.3929   42.6229 H   0  0  0  0  0  0  0  0  0  0  0  0
   22.8523  -27.3489   42.8274 H   0  0  0  0  0  0  0  0  0  0  0  0
   22.6061  -28.2997   41.1948 H   0  0  0  0  0  0  0  0  0  0  0  0
  1  2  2  0
  2  3  1  0
  3  4  2  0
  4  5  1  0
  5  6  2  0
  6  7  1  0
  7  8  1  0
  8  9  1  0
  9 10  2  0
 10 11  1  0
 11 12  2  0
 12 13  1  0
 13 14  1  0
 13 15  2  0
 15 16  1  0
 16 17  2  0
 16 18  1  0
 18 19  1  0
  6 20  1  0
 20 21  2  0
 21 22  1  0
 22 23  2  0
 21  3  1  0
 18  7  2  0
 15  9  1  0
  1 24  1  0
  1 25  1  0
  2 26  1  0
  4 27  1  0
  5 28  1  0
 10 29  1  0
 11 30  1  0
 12 31  1  0
 14 32  1  0
 19 33  1  0
 20 34  1  0
 22 35  1  0
 23 36  1  0
 23 37  1  0
M  END
>  <meeko>  (1) 
{"is_sidechain": [false], "free_energy": -8.004, "intermolecular_energy": -9.876, "internal_energy": -0.558}

$$$$
cand_048_out
     RDKit          3D

 37 39  0  0  0  0  0  0  0  0999 V2000
   19.9810  -33.2160   34.2360 C   0  0  0  0  0  0  0  0  0  0  0  0
   19.7950  -33.3410   35.5550 C   0  0  0  0  0  0  0  0  0  0  0  0
   19.6720  -32.1990   36.4800 C   0  0  0  0  0  0  0  0  0  0  0  0
   19.8910  -30.8990   35.9960 C   0  0  0  0  0  0  0  0  0  0  0  0
   19.7460  -29.7870   36.8300 C   0  0  0  0  0  0  0  0  0  0  0  0
   19.3670  -29.9420   38.1670 C   0  0  0  0  0  0  0  0  0  0  0  0
   19.2510  -28.7560   39.0410 C   0  0  0  0  0  0  0  0  0  0  0  0
   20.1850  -28.7480   40.0700 O   0  0  0  0  0  0  0  0  0  0  0  0
   20.1860  -27.7020   40.9570 C   0  0  0  0  0  0  0  0  0  0  0  0
   21.1310  -27.7420   41.9830 C   0  0  0  0  0  0  0  0  0  0  0  0
   21.1880  -26.7080   42.9190 C   0  0  0  0  0  0  0  0  0  0  0  0
   20.3010  -25.6340   42.8290 C   0  0  0  0  0  0  0  0  0  0  0  0
   19.3590  -25.5950   41.8040 C   0  0  0  0  0  0  0  0  0  0  0  0
   18.5230  -24.5140   41.7740 O   0  0  0  0  0  0  0  0  0  0  0  0
   19.3020  -26.6310   40.8680 C   0  0  0  0  0  0  0  0  0  0  0  0
   18.3280  -26.6300   39.7760 C   0  0  0  0  0  0  0  0  0  0  0  0
   17.5200  -25.7170   39.6250 O   0  0  0  0  0  0  0  0  0  0  0  0
   18.3460  -27.7800   38.8410 C   0  0  0  0  0  0  0  0  0  0  0  0
   17.4310  -27.7630   37.8050 O   0  0  0  0  0  0  0  0  0  0  0  0
   19.1490  -31.2400   38.6520 C   0  0  0  0  0  0  0  0  0  0  0  0
   19.2760  -32.3710   37.8230 C   0  0  0  0  0  0  0  0  0  0  0  0
   19.0620  -33.7110   38.3990 C   0  0  0  0  0  0  0  0  0  0  0  0
   18.5100  -33.9240   39.6010 C   0  0  0  0  0  0  0  0  0  0  0  0
   20.0642  -34.1131   33.6048 H   0  0  0  0  0  0  0  0  0  0  0  0
   20.0507  -32.2162   33.7827 H   0  0  0  0  0  0  0  0  0  0  0  0
   19.7300  -34.3558   35.9744 H   0  0  0  0  0  0  0  0  0  0  0  0
   20.1810  -30.7538   34.9449 H   0  0  0  0  0  0  0  0  0  0  0  0
   19.9320  -28.7792   36.4304 H   0  0  0  0  0  0  0  0  0  0  0  0
   21.8306  -28.5879   42.0541 H   0  0  0  0  0  0  0  0  0  0  0  0
   21.9325  -26.7396   43.7281 H   0  0  0  0  0  0  0  0  0  0  0  0
   20.3460  -24.8194   43.5668 H   0  0  0  0  0  0  0  0  0  0  0  0
   17.6220  -24.6240   41.5420 H   0  0  0  0  0  0  0  0  0  0  0  0
   16.9250  -26.9920   37.6390 H   0  0  0  0  0  0  0  0  0  0  0  0
   18.8716  -31.3779   39.7075 H   0  0  0  0  0  0  0  0  0  0  0  0
   19.3731  -34.5854   37.8085 H   0  0  0  0  0  0  0  0  0  0  0  0
   18.3790  -34.9513   39.9718 H   0  0  0  0  0  0  0  0  0  0  0  0
   18.1878  -33.0716   40.2171 H   0  0  0  0  0  0  0  0  0  0  0  0
  1  2  2  0
  2  3  1  0
  3  4  2  0
  4  5  1  0
  5  6  2  0
  6  7  1  0
  7  8  1  0
  8  9  1  0
  9 10  2  0
 10 11  1  0
 11 12  2  0
 12 13  1  0
 13 14  1  0
 13 15  2  0
 15 16  1  0
 16 17  2  0
 16 18  1  0
 18 19  1  0
  6 20  1  0
 20 21  2  0
 21 22  1  0
 22 23  2  0
 21  3  1  0
 18  7  2  0
 15  9  1  0
  1 24  1  0
  1 25  1  0
  2 26  1  0
  4 27  1  0
  5 28  1  0
 10 29  1  0
 11 30  1  0
 12 31  1  0
 14 32  1  0
 19 33  1  0
 20 34  1  0
 22 35  1  0
 23 36  1  0
 23 37  1  0
M  END
>  <meeko>  (2) 
{"is_sidechain": [false], "free_energy": -7.676, "intermolecular_energy": -9.538, "internal_energy": -0.491}

$$$$
cand_048_out
     RDKit          3D

 37 39  0  0  0  0  0  0  0  0999 V2000
   18.9030  -34.7670   36.3210 C   0  0  0  0  0  0  0  0  0  0  0  0
   19.6510  -33.6850   36.0740 C   0  0  0  0  0  0  0  0  0  0  0  0
   19.5400  -32.4200   36.8230 C   0  0  0  0  0  0  0  0  0  0  0  0
   19.0150  -32.4380   38.1260 C   0  0  0  0  0  0  0  0  0  0  0  0
   18.9310  -31.2670   38.8840 C   0  0  0  0  0  0  0  0  0  0  0  0
   19.3780  -30.0480   38.3660 C   0  0  0  0  0  0  0  0  0  0  0  0
   19.2500  -28.8150   39.1710 C   0  0  0  0  0  0  0  0  0  0  0  0
   20.1630  -28.7550   40.2170 O   0  0  0  0  0  0  0  0  0  0  0  0
   20.1510  -27.6610   41.0460 C   0  0  0  0  0  0  0  0  0  0  0  0
   21.0750  -27.6490   42.0920 C   0  0  0  0  0  0  0  0  0  0  0  0
   21.1180  -26.5660   42.9710 C   0  0  0  0  0  0  0  0  0  0  0  0
   20.2390  -25.4940   42.8030 C   0  0  0  0  0  0  0  0  0  0  0  0
   19.3180  -25.5080   41.7580 C   0  0  0  0  0  0  0  0  0  0  0  0
   18.4890  -24.4260   41.6520 O   0  0  0  0  0  0  0  0  0  0  0  0
   19.2750  -26.5940   40.8790 C   0  0  0  0  0  0  0  0  0  0  0  0
   18.3240  -26.6480   39.7690 C   0  0  0  0  0  0  0  0  0  0  0  0
   17.5240  -25.7410   39.5510 O   0  0  0  0  0  0  0  0  0  0  0  0
   18.3540  -27.8480   38.8990 C   0  0  0  0  0  0  0  0  0  0  0  0
   17.4610  -27.8840   37.8450 O   0  0  0  0  0  0  0  0  0  0  0  0
   19.9020  -30.0270   37.0650 C   0  0  0  0  0  0  0  0  0  0  0  0
   20.0090  -31.1990   36.2920 C   0  0  0  0  0  0  0  0  0  0  0  0
   20.5410  -31.1080   34.9200 C   0  0  0  0  0  0  0  0  0  0  0  0
   20.0810  -30.2510   34.0000 C   0  0  0  0  0  0  0  0  0  0  0  0
   19.0399  -35.6789   35.7212 H   0  0  0  0  0  0  0  0  0  0  0  0
   18.1513  -34.7444   37.1238 H   0  0  0  0  0  0  0  0  0  0  0  0
   20.3928  -33.7430   35.2639 H   0  0  0  0  0  0  0  0  0  0  0  0
   18.6648  -33.3880   38.5560 H   0  0  0  0  0  0  0  0  0  0  0  0
   18.5087  -31.3049   39.8990 H   0  0  0  0  0  0  0  0  0  0  0  0
   21.7687  -28.4925   42.2234 H   0  0  0  0  0  0  0  0  0  0  0  0
   21.8447  -26.5567   43.7967 H   0  0  0  0  0  0  0  0  0  0  0  0
   20.2738  -24.6396   43.4950 H   0  0  0  0  0  0  0  0  0  0  0  0
   18.7560  -23.6770   41.1570 H   0  0  0  0  0  0  0  0  0  0  0  0
   17.7680  -28.0630   36.9780 H   0  0  0  0  0  0  0  0  0  0  0  0
   20.2379  -29.0706   36.6378 H   0  0  0  0  0  0  0  0  0  0  0  0
   21.3624  -31.7824   34.6362 H   0  0  0  0  0  0  0  0  0  0  0  0
   20.5236  -30.2351   32.9931 H   0  0  0  0  0  0  0  0  0  0  0  0
   19.2604  -29.5628   34.2510 H   0  0  0  0  0  0  0  0  0  0  0  0
  1  2  2  0
  2  3  1  0
  3  4  2  0
  4  5  1  0
  5  6  2  0
  6  7  1  0
  7  8  1  0
  8  9  1  0
  9 10  2  0
 10 11  1  0
 11 12  2  0
 12 13  1  0
 13 14  1  0
 13 15  2  0
 15 16  1  0
 16 17  2  0
 16 18  1  0
 18 19  1  0
  6 20  1  0
 20 21  2  0
 21 22  1  0
 22 23  2  0
 21  3  1  0
 18  7  2  0
 15  9  1  0
  1 24  1  0
  1 25  1  0
  2 26  1  0
  4 27  1  0
  5 28  1  0
 10 29  1  0
 11 30  1  0
 12 31  1  0
 14 32  1  0
 19 33  1  0
 20 34  1  0
 22 35  1  0
 23 36  1  0
 23 37  1  0
M  END
>  <meeko>  (3) 
{"is_sidechain": [false], "free_energy": -7.566, "intermolecular_energy": -9.321, "internal_energy": -0.572}

$$$$
cand_048_out
     RDKit          3D

 37 39  0  0  0  0  0  0  0  0999 V2000
   19.4490  -24.3570   41.7810 C   0  0  0  0  0  0  0  0  0  0  0  0
   19.3930  -24.5980   40.4650 C   0  0  0  0  0  0  0  0  0  0  0  0
   19.3960  -25.9490   39.8770 C   0  0  0  0  0  0  0  0  0  0  0  0
   20.0880  -26.9810   40.5330 C   0  0  0  0  0  0  0  0  0  0  0  0
   20.0820  -28.2840   40.0290 C   0  0  0  0  0  0  0  0  0  0  0  0
   19.3770  -28.5970   38.8630 C   0  0  0  0  0  0  0  0  0  0  0  0
   19.4090  -29.9740   38.3280 C   0  0  0  0  0  0  0  0  0  0  0  0
   18.9580  -30.9190   39.2410 O   0  0  0  0  0  0  0  0  0  0  0  0
   18.9370  -32.2410   38.8730 C   0  0  0  0  0  0  0  0  0  0  0  0
   18.4910  -33.1570   39.8260 C   0  0  0  0  0  0  0  0  0  0  0  0
   18.4440  -34.5170   39.5160 C   0  0  0  0  0  0  0  0  0  0  0  0
   18.8400  -34.9610   38.2530 C   0  0  0  0  0  0  0  0  0  0  0  0
   19.2850  -34.0440   37.3040 C   0  0  0  0  0  0  0  0  0  0  0  0
   19.6580  -34.5470   36.0880 O   0  0  0  0  0  0  0  0  0  0  0  0
   19.3340  -32.6830   37.6150 C   0  0  0  0  0  0  0  0  0  0  0  0
   19.7940  -31.6870   36.6470 C   0  0  0  0  0  0  0  0  0  0  0  0
   20.1530  -31.9980   35.5130 O   0  0  0  0  0  0  0  0  0  0  0  0
   19.8150  -30.2700   37.0790 C   0  0  0  0  0  0  0  0  0  0  0  0
   20.2380  -29.3350   36.1540 O   0  0  0  0  0  0  0  0  0  0  0  0
   18.6850  -27.5680   38.2060 C   0  0  0  0  0  0  0  0  0  0  0  0
   18.6680  -26.2510   38.7060 C   0  0  0  0  0  0  0  0  0  0  0  0
   17.9480  -25.2070   37.9540 C   0  0  0  0  0  0  0  0  0  0  0  0
   18.3350  -24.7550   36.7540 C   0  0  0  0  0  0  0  0  0  0  0  0
   19.4429  -23.3212   42.1512 H   0  0  0  0  0  0  0  0  0  0  0  0
   19.5011  -25.1948   42.4919 H   0  0  0  0  0  0  0  0  0  0  0  0
   19.3417  -23.7367   39.7828 H   0  0  0  0  0  0  0  0  0  0  0  0
   20.6426  -26.7598   41.4569 H   0  0  0  0  0  0  0  0  0  0  0  0
   20.6386  -29.0730   40.5559 H   0  0  0  0  0  0  0  0  0  0  0  0
   18.1767  -32.8078   40.8206 H   0  0  0  0  0  0  0  0  0  0  0  0
   18.0945  -35.2400   40.2678 H   0  0  0  0  0  0  0  0  0  0  0  0
   18.8006  -36.0326   38.0080 H   0  0  0  0  0  0  0  0  0  0  0  0
   20.3580  -35.1660   36.0300 H   0  0  0  0  0  0  0  0  0  0  0  0
   19.6230  -28.9540   35.5580 H   0  0  0  0  0  0  0  0  0  0  0  0
   18.1420  -27.7956   37.2768 H   0  0  0  0  0  0  0  0  0  0  0  0
   17.0419  -24.7749   38.4038 H   0  0  0  0  0  0  0  0  0  0  0  0
   17.7512  -23.9730   36.2464 H   0  0  0  0  0  0  0  0  0  0  0  0
   19.2366  -25.1658   36.2761 H   0  0  0  0  0  0  0  0  0  0  0  0
  1  2  2  0
  2  3  1  0
  3  4  2  0
  4  5  1  0
  5  6  2  0
  6  7  1  0
  7  8  1  0
  8  9  1  0
  9 10  2  0
 10 11  1  0
 11 12  2  0
 12 13  1  0
 13 14  1  0
 13 15  2  0
 15 16  1  0
 16 17  2  0
 16 18  1  0
 18 19  1  0
  6 20  1  0
 20 21  2  0
 21 22  1  0
 22 23  2  0
 21  3  1  0
 18  7  2  0
 15  9  1  0
  1 24  1  0
  1 25  1  0
  2 26  1  0
  4 27  1  0
  5 28  1  0
 10 29  1  0
 11 30  1  0
 12 31  1  0
 14 32  1  0
 19 33  1  0
 20 34  1  0
 22 35  1  0
 23 36  1  0
 23 37  1  0
M  END
>  <meeko>  (4) 
{"is_sidechain": [false], "free_energy": -7.248, "intermolecular_energy": -9.073, "internal_energy": -0.427}

$$$$
cand_048_out
     RDKit          3D

 37 39  0  0  0  0  0  0  0  0999 V2000
   19.5270  -23.8470   41.2110 C   0  0  0  0  0  0  0  0  0  0  0  0
   19.0660  -25.0640   41.5230 C   0  0  0  0  0  0  0  0  0  0  0  0
   19.2220  -26.2480   40.6590 C   0  0  0  0  0  0  0  0  0  0  0  0
   18.4330  -26.3610   39.5020 C   0  0  0  0  0  0  0  0  0  0  0  0
   18.5790  -27.4480   38.6360 C   0  0  0  0  0  0  0  0  0  0  0  0
   19.5230  -28.4470   38.8940 C   0  0  0  0  0  0  0  0  0  0  0  0
   19.6390  -29.6040   37.9830 C   0  0  0  0  0  0  0  0  0  0  0  0
   19.8840  -29.2340   36.6660 O   0  0  0  0  0  0  0  0  0  0  0  0
   20.0130  -30.2130   35.7150 C   0  0  0  0  0  0  0  0  0  0  0  0
   20.2420  -29.7960   34.4030 C   0  0  0  0  0  0  0  0  0  0  0  0
   20.3840  -30.7420   33.3860 C   0  0  0  0  0  0  0  0  0  0  0  0
   20.2990  -32.1040   33.6800 C   0  0  0  0  0  0  0  0  0  0  0  0
   20.0700  -32.5180   34.9900 C   0  0  0  0  0  0  0  0  0  0  0  0
   19.9970  -33.8660   35.2080 O   0  0  0  0  0  0  0  0  0  0  0  0
   19.9260  -31.5700   36.0080 C   0  0  0  0  0  0  0  0  0  0  0  0
   19.6850  -31.9630   37.3960 C   0  0  0  0  0  0  0  0  0  0  0  0
   19.6040  -33.1410   37.7360 O   0  0  0  0  0  0  0  0  0  0  0  0
   19.5400  -30.8810   38.3980 C   0  0  0  0  0  0  0  0  0  0  0  0
   19.3250  -31.2610   39.7100 O   0  0  0  0  0  0  0  0  0  0  0  0
   20.3120  -28.3360   40.0490 C   0  0  0  0  0  0  0  0  0  0  0  0
   20.1890  -27.2400   40.9260 C   0  0  0  0  0  0  0  0  0  0  0  0
   21.0250  -27.1960   42.1400 C   0  0  0  0  0  0  0  0  0  0  0  0
   22.3070  -27.5850   42.1750 C   0  0  0  0  0  0  0  0  0  0  0  0
   19.3747  -23.0068   41.9044 H   0  0  0  0  0  0  0  0  0  0  0  0
   20.0582  -23.6869   40.2611 H   0  0  0  0  0  0  0  0  0  0  0  0
   18.5395  -25.1881   42.4808 H   0  0  0  0  0  0  0  0  0  0  0  0
   17.6897  -25.5827   39.2746 H   0  0  0  0  0  0  0  0  0  0  0  0
   17.9438  -27.5187   37.7407 H   0  0  0  0  0  0  0  0  0  0  0  0
   20.3106  -28.7231   34.1704 H   0  0  0  0  0  0  0  0  0  0  0  0
   20.5631  -30.4136   32.3516 H   0  0  0  0  0  0  0  0  0  0  0  0
   20.4127  -32.8489   32.8786 H   0  0  0  0  0  0  0  0  0  0  0  0
   19.2680  -34.2280   35.6710 H   0  0  0  0  0  0  0  0  0  0  0  0
   18.4690  -31.1910   40.0840 H   0  0  0  0  0  0  0  0  0  0  0  0
   21.0449  -29.1244   40.2755 H   0  0  0  0  0  0  0  0  0  0  0  0
   20.5706  -26.8227   43.0696 H   0  0  0  0  0  0  0  0  0  0  0  0
   22.8742  -27.5259   43.1156 H   0  0  0  0  0  0  0  0  0  0  0  0
   22.7920  -27.9634   41.2631 H   0  0  0  0  0  0  0  0  0  0  0  0
  1  2  2  0
  2  3  1  0
  3  4  2  0
  4  5  1  0
  5  6  2  0
  6  7  1  0
  7  8  1  0
  8  9  1  0
  9 10  2  0
 10 11  1  0
 11 12  2  0
 12 13  1  0
 13 14  1  0
 13 15  2  0
 15 16  1  0
 16 17  2  0
 16 18  1  0
 18 19  1  0
  6 20  1  0
 20 21  2  0
 21 22  1  0
 22 23  2  0
 21  3  1  0
 18  7  2  0
 15  9  1  0
  1 24  1  0
  1 25  1  0
  2 26  1  0
  4 27  1  0
  5 28  1  0
 10 29  1  0
 11 30  1  0
 12 31  1  0
 14 32  1  0
 19 33  1  0
 20 34  1  0
 22 35  1  0
 23 36  1  0
 23 37  1  0
M  END
>  <meeko>  (5) 
{"is_sidechain": [false], "free_energy": -7.112, "intermolecular_energy": -8.9, "internal_energy": -0.433}

$$$$
cand_048_out
     RDKit          3D

 37 39  0  0  0  0  0  0  0  0999 V2000
   18.4110  -27.5720   35.3620 C   0  0  0  0  0  0  0  0  0  0  0  0
   17.9510  -27.1750   36.5550 C   0  0  0  0  0  0  0  0  0  0  0  0
   18.7640  -27.1520   37.7840 C   0  0  0  0  0  0  0  0  0  0  0  0
   18.8970  -28.3290   38.5390 C   0  0  0  0  0  0  0  0  0  0  0  0
   19.6920  -28.3590   39.6890 C   0  0  0  0  0  0  0  0  0  0  0  0
   20.3840  -27.2200   40.1100 C   0  0  0  0  0  0  0  0  0  0  0  0
   21.1930  -27.2640   41.3460 C   0  0  0  0  0  0  0  0  0  0  0  0
   22.1850  -28.2360   41.3080 O   0  0  0  0  0  0  0  0  0  0  0  0
   23.0090  -28.3850   42.3950 C   0  0  0  0  0  0  0  0  0  0  0  0
   23.9810  -29.3840   42.3210 C   0  0  0  0  0  0  0  0  0  0  0  0
   24.8530  -29.5870   43.3910 C   0  0  0  0  0  0  0  0  0  0  0  0
   24.7550  -28.7920   44.5350 C   0  0  0  0  0  0  0  0  0  0  0  0
   23.7840  -27.7960   44.6070 C   0  0  0  0  0  0  0  0  0  0  0  0
   23.7440  -27.0540   45.7540 O   0  0  0  0  0  0  0  0  0  0  0  0
   22.9110  -27.5930   43.5350 C   0  0  0  0  0  0  0  0  0  0  0  0
   21.8770  -26.5580   43.5690 C   0  0  0  0  0  0  0  0  0  0  0  0
   21.7320  -25.8140   44.5360 O   0  0  0  0  0  0  0  0  0  0  0  0
   20.9960  -26.4310   42.3840 C   0  0  0  0  0  0  0  0  0  0  0  0
   20.0310  -25.4410   42.4200 O   0  0  0  0  0  0  0  0  0  0  0  0
   20.2520  -26.0430   39.3570 C   0  0  0  0  0  0  0  0  0  0  0  0
   19.4670  -25.9970   38.1880 C   0  0  0  0  0  0  0  0  0  0  0  0
   19.3440  -24.7230   37.4560 C   0  0  0  0  0  0  0  0  0  0  0  0
   19.3350  -23.5230   38.0500 C   0  0  0  0  0  0  0  0  0  0  0  0
   17.7464  -27.5630   34.4855 H   0  0  0  0  0  0  0  0  0  0  0  0
   19.4535  -27.9072   35.2583 H   0  0  0  0  0  0  0  0  0  0  0  0
   16.9034  -26.8463   36.6219 H   0  0  0  0  0  0  0  0  0  0  0  0
   18.3684  -29.2398   38.2212 H   0  0  0  0  0  0  0  0  0  0  0  0
   19.7737  -29.2900   40.2691 H   0  0  0  0  0  0  0  0  0  0  0  0
   24.0594  -30.0104   41.4202 H   0  0  0  0  0  0  0  0  0  0  0  0
   25.6189  -30.3745   43.3335 H   0  0  0  0  0  0  0  0  0  0  0  0
   25.4435  -28.9521   45.3778 H   0  0  0  0  0  0  0  0  0  0  0  0
   24.5040  -26.9900   46.2980 H   0  0  0  0  0  0  0  0  0  0  0  0
   19.6200  -25.1600   41.6270 H   0  0  0  0  0  0  0  0  0  0  0  0
   20.7747  -25.1334   39.6879 H   0  0  0  0  0  0  0  0  0  0  0  0
   19.2546  -24.7605   36.3603 H   0  0  0  0  0  0  0  0  0  0  0  0
   19.2401  -22.6100   37.4439 H   0  0  0  0  0  0  0  0  0  0  0  0
   19.4225  -23.4502   39.1441 H   0  0  0  0  0  0  0  0  0  0  0  0
  1  2  2  0
  2  3  1  0
  3  4  2  0
  4  5  1  0
  5  6  2  0
  6  7  1  0
  7  8  1  0
  8  9  1  0
  9 10  2  0
 10 11  1  0
 11 12  2  0
 12 13  1  0
 13 14  1  0
 13 15  2  0
 15 16  1  0
 16 17  2  0
 16 18  1  0
 18 19  1  0
  6 20  1  0
 20 21  2  0
 21 22  1  0
 22 23  2  0
 21  3  1  0
 18  7  2  0
 15  9  1  0
  1 24  1  0
  1 25  1  0
  2 26  1  0
  4 27  1  0
  5 28  1  0
 10 29  1  0
 11 30  1  0
 12 31  1  0
 14 32  1  0
 19 33  1  0
 20 34  1  0
 22 35  1  0
 23 36  1  0
 23 37  1  0
M  END
>  <meeko>  (6) 
{"is_sidechain": [false], "free_energy": -7.022, "intermolecular_energy": -8.797, "internal_energy": -0.425}

$$$$
cand_048_out
     RDKit          3D

 37 39  0  0  0  0  0  0  0  0999 V2000
   25.3300  -29.3190   44.2500 C   0  0  0  0  0  0  0  0  0  0  0  0
   24.3580  -28.4550   44.5640 C   0  0  0  0  0  0  0  0  0  0  0  0
   23.3750  -27.9360   43.5960 C   0  0  0  0  0  0  0  0  0  0  0  0
   23.3620  -28.4510   42.2890 C   0  0  0  0  0  0  0  0  0  0  0  0
   22.4200  -28.0150   41.3540 C   0  0  0  0  0  0  0  0  0  0  0  0
   21.4580  -27.0610   41.6990 C   0  0  0  0  0  0  0  0  0  0  0  0
   20.4910  -26.5890   40.6860 C   0  0  0  0  0  0  0  0  0  0  0  0
   20.4000  -25.2030   40.6300 O   0  0  0  0  0  0  0  0  0  0  0  0
   19.5360  -24.6320   39.7310 C   0  0  0  0  0  0  0  0  0  0  0  0
   19.4640  -23.2380   39.7190 C   0  0  0  0  0  0  0  0  0  0  0  0
   18.6060  -22.5930   38.8270 C   0  0  0  0  0  0  0  0  0  0  0  0
   17.8210  -23.3390   37.9460 C   0  0  0  0  0  0  0  0  0  0  0  0
   17.8940  -24.7300   37.9600 C   0  0  0  0  0  0  0  0  0  0  0  0
   17.0990  -25.3990   37.0710 O   0  0  0  0  0  0  0  0  0  0  0  0
   18.7530  -25.3760   38.8540 C   0  0  0  0  0  0  0  0  0  0  0  0
   18.8600  -26.8350   38.9000 C   0  0  0  0  0  0  0  0  0  0  0  0
   18.2080  -27.5600   38.1530 O   0  0  0  0  0  0  0  0  0  0  0  0
   19.7940  -27.4210   39.8900 C   0  0  0  0  0  0  0  0  0  0  0  0
   19.8990  -28.7990   39.9180 O   0  0  0  0  0  0  0  0  0  0  0  0
   21.4690  -26.5450   43.0040 C   0  0  0  0  0  0  0  0  0  0  0  0
   22.4010  -26.9830   43.9650 C   0  0  0  0  0  0  0  0  0  0  0  0
   22.3820  -26.3810   45.3100 C   0  0  0  0  0  0  0  0  0  0  0  0
   22.0280  -25.1120   45.5520 C   0  0  0  0  0  0  0  0  0  0  0  0
   26.0299  -29.6649   45.0249 H   0  0  0  0  0  0  0  0  0  0  0  0
   25.4293  -29.6835   43.2169 H   0  0  0  0  0  0  0  0  0  0  0  0
   24.2882  -28.1115   45.6066 H   0  0  0  0  0  0  0  0  0  0  0  0
   24.1044  -29.2086   41.9976 H   0  0  0  0  0  0  0  0  0  0  0  0
   22.4354  -28.4272   40.3343 H   0  0  0  0  0  0  0  0  0  0  0  0
   20.0827  -22.6486   40.4117 H   0  0  0  0  0  0  0  0  0  0  0  0
   18.5482  -21.4946   38.8181 H   0  0  0  0  0  0  0  0  0  0  0  0
   17.1463  -22.8295   37.2423 H   0  0  0  0  0  0  0  0  0  0  0  0
   16.4170  -24.9440   36.6170 H   0  0  0  0  0  0  0  0  0  0  0  0
   19.6780  -29.3010   39.1580 H   0  0  0  0  0  0  0  0  0  0  0  0
   20.7309  -25.7789   43.2836 H   0  0  0  0  0  0  0  0  0  0  0  0
   22.6752  -27.0095   46.1638 H   0  0  0  0  0  0  0  0  0  0  0  0
   22.0360  -24.7256   46.5819 H   0  0  0  0  0  0  0  0  0  0  0  0
   21.7293  -24.4563   44.7209 H   0  0  0  0  0  0  0  0  0  0  0  0
  1  2  2  0
  2  3  1  0
  3  4  2  0
  4  5  1  0
  5  6  2  0
  6  7  1  0
  7  8  1  0
  8  9  1  0
  9 10  2  0
 10 11  1  0
 11 12  2  0
 12 13  1  0
 13 14  1  0
 13 15  2  0
 15 16  1  0
 16 17  2  0
 16 18  1  0
 18 19  1  0
  6 20  1  0
 20 21  2  0
 21 22  1  0
 22 23  2  0
 21  3  1  0
 18  7  2  0
 15  9  1  0
  1 24  1  0
  1 25  1  0
  2 26  1  0
  4 27  1  0
  5 28  1  0
 10 29  1  0
 11 30  1  0
 12 31  1  0
 14 32  1  0
 19 33  1  0
 20 34  1  0
 22 35  1  0
 23 36  1  0
 23 37  1  0
M  END
>  <meeko>  (7) 
{"is_sidechain": [false], "free_energy": -6.992, "intermolecular_energy": -8.865, "internal_energy": -0.32}

$$$$
cand_048_out
     RDKit          3D

 37 39  0  0  0  0  0  0  0  0999 V2000
   19.3140  -24.0480   43.5800 C   0  0  0  0  0  0  0  0  0  0  0  0
   19.8050  -25.2770   43.3760 C   0  0  0  0  0  0  0  0  0  0  0  0
   19.8090  -25.9530   42.0660 C   0  0  0  0  0  0  0  0  0  0  0  0
   18.8720  -25.5680   41.0930 C   0  0  0  0  0  0  0  0  0  0  0  0
   18.8690  -26.1560   39.8250 C   0  0  0  0  0  0  0  0  0  0  0  0
   19.8070  -27.1380   39.4900 C   0  0  0  0  0  0  0  0  0  0  0  0
   19.7650  -27.7710   38.1560 C   0  0  0  0  0  0  0  0  0  0  0  0
   19.9060  -29.1530   38.2080 O   0  0  0  0  0  0  0  0  0  0  0  0
   19.8870  -29.8660   37.0360 C   0  0  0  0  0  0  0  0  0  0  0  0
   20.0470  -31.2490   37.1340 C   0  0  0  0  0  0  0  0  0  0  0  0
   20.0360  -32.0340   35.9800 C   0  0  0  0  0  0  0  0  0  0  0  0
   19.8620  -31.4380   34.7290 C   0  0  0  0  0  0  0  0  0  0  0  0
   19.7030  -30.0580   34.6340 C   0  0  0  0  0  0  0  0  0  0  0  0
   19.5380  -29.5400   33.3800 O   0  0  0  0  0  0  0  0  0  0  0  0
   19.7150  -29.2720   35.7900 C   0  0  0  0  0  0  0  0  0  0  0  0
   19.5510  -27.8190   35.7340 C   0  0  0  0  0  0  0  0  0  0  0  0
   19.3870  -27.2220   34.6730 O   0  0  0  0  0  0  0  0  0  0  0  0
   19.5880  -27.0760   37.0160 C   0  0  0  0  0  0  0  0  0  0  0  0
   19.4180  -25.7060   36.9560 O   0  0  0  0  0  0  0  0  0  0  0  0
   20.7430  -27.5240   40.4610 C   0  0  0  0  0  0  0  0  0  0  0  0
   20.7710  -26.9320   41.7390 C   0  0  0  0  0  0  0  0  0  0  0  0
   21.7600  -27.4020   42.7260 C   0  0  0  0  0  0  0  0  0  0  0  0
   22.9440  -27.9350   42.3960 C   0  0  0  0  0  0  0  0  0  0  0  0
   19.3436  -23.6039   44.5859 H   0  0  0  0  0  0  0  0  0  0  0  0
   18.8810  -23.4826   42.7417 H   0  0  0  0  0  0  0  0  0  0  0  0
   20.2305  -25.8138   44.2367 H   0  0  0  0  0  0  0  0  0  0  0  0
   18.1297  -24.7924   41.3324 H   0  0  0  0  0  0  0  0  0  0  0  0
   18.1205  -25.8430   39.0822 H   0  0  0  0  0  0  0  0  0  0  0  0
   20.1816  -31.7196   38.1191 H   0  0  0  0  0  0  0  0  0  0  0  0
   20.1646  -33.1238   36.0560 H   0  0  0  0  0  0  0  0  0  0  0  0
   19.8506  -32.0577   33.8203 H   0  0  0  0  0  0  0  0  0  0  0  0
   18.9870  -29.9780   32.7600 H   0  0  0  0  0  0  0  0  0  0  0  0
   19.2730  -25.2170   37.7410 H   0  0  0  0  0  0  0  0  0  0  0  0
   21.4740  -28.3093   40.2182 H   0  0  0  0  0  0  0  0  0  0  0  0
   21.5118  -27.3099   43.7937 H   0  0  0  0  0  0  0  0  0  0  0  0
   23.6368  -28.2661   43.1836 H   0  0  0  0  0  0  0  0  0  0  0  0
   23.2233  -28.0415   41.3374 H   0  0  0  0  0  0  0  0  0  0  0  0
  1  2  2  0
  2  3  1  0
  3  4  2  0
  4  5  1  0
  5  6  2  0
  6  7  1  0
  7  8  1  0
  8  9  1  0
  9 10  2  0
 10 11  1  0
 11 12  2  0
 12 13  1  0
 13 14  1  0
 13 15  2  0
 15 16  1  0
 16 17  2  0
 16 18  1  0
 18 19  1  0
  6 20  1  0
 20 21  2  0
 21 22  1  0
 22 23  2  0
 21  3  1  0
 18  7  2  0
 15  9  1  0
  1 24  1  0
  1 25  1  0
  2 26  1  0
  4 27  1  0
  5 28  1  0
 10 29  1  0
 11 30  1  0
 12 31  1  0
 14 32  1  0
 19 33  1  0
 20 34  1  0
 22 35  1  0
 23 36  1  0
 23 37  1  0
M  END
>  <meeko>  (8) 
{"is_sidechain": [false], "free_energy": -6.928, "intermolecular_energy": -8.842, "internal_energy": -0.263}

$$$$
cand_048_out
     RDKit          3D

 37 39  0  0  0  0  0  0  0  0999 V2000
   18.5880  -34.6820   38.9910 C   0  0  0  0  0  0  0  0  0  0  0  0
   19.2170  -33.9370   38.0740 C   0  0  0  0  0  0  0  0  0  0  0  0
   19.2460  -32.4640   38.0920 C   0  0  0  0  0  0  0  0  0  0  0  0
   18.9200  -31.7860   39.2780 C   0  0  0  0  0  0  0  0  0  0  0  0
   18.9750  -30.3910   39.3480 C   0  0  0  0  0  0  0  0  0  0  0  0
   19.3670  -29.6350   38.2390 C   0  0  0  0  0  0  0  0  0  0  0  0
   19.3870  -28.1600   38.3230 C   0  0  0  0  0  0  0  0  0  0  0  0
   18.6030  -27.5520   37.3500 O   0  0  0  0  0  0  0  0  0  0  0  0
   18.5340  -26.1820   37.3150 C   0  0  0  0  0  0  0  0  0  0  0  0
   17.7480  -25.6130   36.3120 C   0  0  0  0  0  0  0  0  0  0  0  0
   17.6330  -24.2250   36.2200 C   0  0  0  0  0  0  0  0  0  0  0  0
   18.3020  -23.4060   37.1310 C   0  0  0  0  0  0  0  0  0  0  0  0
   19.0860  -23.9760   38.1310 C   0  0  0  0  0  0  0  0  0  0  0  0
   19.7130  -23.1160   38.9890 O   0  0  0  0  0  0  0  0  0  0  0  0
   19.2020  -25.3660   38.2220 C   0  0  0  0  0  0  0  0  0  0  0  0
   20.0150  -26.0050   39.2570 C   0  0  0  0  0  0  0  0  0  0  0  0
   20.6280  -25.3530   40.0990 O   0  0  0  0  0  0  0  0  0  0  0  0
   20.0770  -27.4850   39.2610 C   0  0  0  0  0  0  0  0  0  0  0  0
   20.8370  -28.0810   40.2510 O   0  0  0  0  0  0  0  0  0  0  0  0
   19.6930  -30.3100   37.0530 C   0  0  0  0  0  0  0  0  0  0  0  0
   19.6580  -31.7160   36.9680 C   0  0  0  0  0  0  0  0  0  0  0  0
   19.9820  -32.3660   35.6850 C   0  0  0  0  0  0  0  0  0  0  0  0
   20.3890  -31.7000   34.5960 C   0  0  0  0  0  0  0  0  0  0  0  0
   18.6074  -35.7792   38.9157 H   0  0  0  0  0  0  0  0  0  0  0  0
   18.0516  -34.1970   39.8199 H   0  0  0  0  0  0  0  0  0  0  0  0
   19.7434  -34.4551   37.2588 H   0  0  0  0  0  0  0  0  0  0  0  0
   18.6168  -32.3614   40.1651 H   0  0  0  0  0  0  0  0  0  0  0  0
   18.7070  -29.8824   40.2858 H   0  0  0  0  0  0  0  0  0  0  0  0
   17.2195  -26.2579   35.5945 H   0  0  0  0  0  0  0  0  0  0  0  0
   17.0145  -23.7761   35.4288 H   0  0  0  0  0  0  0  0  0  0  0  0
   18.2101  -22.3122   37.0592 H   0  0  0  0  0  0  0  0  0  0  0  0
   19.2120  -22.6270   39.6130 H   0  0  0  0  0  0  0  0  0  0  0  0
   21.0160  -27.6180   41.0460 H   0  0  0  0  0  0  0  0  0  0  0  0
   19.9834  -29.7266   36.1668 H   0  0  0  0  0  0  0  0  0  0  0  0
   19.8841  -33.4596   35.6180 H   0  0  0  0  0  0  0  0  0  0  0  0
   20.6147  -32.2474   33.6689 H   0  0  0  0  0  0  0  0  0  0  0  0
   20.4975  -30.6059   34.6290 H   0  0  0  0  0  0  0  0  0  0  0  0
  1  2  2  0
  2  3  1  0
  3  4  2  0
  4  5  1  0
  5  6  2  0
  6  7  1  0
  7  8  1  0
  8  9  1  0
  9 10  2  0
 10 11  1  0
 11 12  2  0
 12 13  1  0
 13 14  1  0
 13 15  2  0
 15 16  1  0
 16 17  2  0
 16 18  1  0
 18 19  1  0
  6 20  1  0
 20 21  2  0
 21 22  1  0
 22 23  2  0
 21  3  1  0
 18  7  2  0
 15  9  1  0
  1 24  1  0
  1 25  1  0
  2 26  1  0
  4 27  1  0
  5 28  1  0
 10 29  1  0
 11 30  1  0
 12 31  1  0
 14 32  1  0
 19 33  1  0
 20 34  1  0
 22 35  1  0
 23 36  1  0
 23 37  1  0
M  END
>  <meeko>  (9) 
{"is_sidechain": [false], "free_energy": -6.718, "intermolecular_energy": -8.452, "internal_energy": -0.396}

$$$$
