cand_015_out
     RDKit          3D

 36 38  0  0  0  0  0  0  0  0999 V2000
   19.6980  -23.9790   40.5120 C   0  0  0  0  0  0  0  0  0  0  0  0
   19.3730  -25.1420   41.0850 C   0  0  0  0  0  0  0  0  0  0  0  0
   19.0260  -25.1270   42.3920 F   0  0  0  0  0  0  0  0  0  0  0  0
   19.3980  -26.4470   40.4020 C   0  0  0  0  0  0  0  0  0  0  0  0
   18.4640  -26.7190   39.3880 C   0  0  0  0  0  0  0  0  0  0  0  0
   18.4400  -27.9570   38.7360 C   0  0  0  0  0  0  0  0  0  0  0  0
   19.3500  -28.9600   39.0780 C   0  0  0  0  0  0  0  0  0  0  0  0
   19.3260  -30.2870   38.4260 C   0  0  0  0  0  0  0  0  0  0  0  0
   18.9580  -31.3090   39.2940 O   0  0  0  0  0  0  0  0  0  0  0  0
   18.8960  -32.5930   38.8170 C   0  0  0  0  0  0  0  0  0  0  0  0
   18.5080  -33.5860   39.7200 C   0  0  0  0  0  0  0  0  0  0  0  0
   18.4270  -34.9160   39.3000 C   0  0  0  0  0  0  0  0  0  0  0  0
   18.7340  -35.2530   37.9800 C   0  0  0  0  0  0  0  0  0  0  0  0
   19.1200  -34.2610   37.0820 C   0  0  0  0  0  0  0  0  0  0  0  0
   19.4060  -34.6600   35.8050 O   0  0  0  0  0  0  0  0  0  0  0  0
   19.2010  -32.9300   37.5030 C   0  0  0  0  0  0  0  0  0  0  0  0
   19.6030  -31.8570   36.5920 C   0  0  0  0  0  0  0  0  0  0  0  0
   19.8960  -32.0750   35.4180 O   0  0  0  0  0  0  0  0  0  0  0  0
   19.6500  -30.4800   37.1350 C   0  0  0  0  0  0  0  0  0  0  0  0
   20.0440  -29.4760   36.2690 O   0  0  0  0  0  0  0  0  0  0  0  0
   20.2730  -28.7000   40.1020 C   0  0  0  0  0  0  0  0  0  0  0  0
   20.3170  -27.4560   40.7620 C   0  0  0  0  0  0  0  0  0  0  0  0
   21.3380  -27.2550   41.8510 C   0  0  0  0  0  0  0  0  0  0  0  0
   19.9858  -23.9502   39.4507 H   0  0  0  0  0  0  0  0  0  0  0  0
   19.6776  -23.0507   41.1017 H   0  0  0  0  0  0  0  0  0  0  0  0
   17.7379  -25.9440   39.1013 H   0  0  0  0  0  0  0  0  0  0  0  0
   17.6970  -28.1421   37.9462 H   0  0  0  0  0  0  0  0  0  0  0  0
   18.2667  -33.3211   40.7600 H   0  0  0  0  0  0  0  0  0  0  0  0
   18.1211  -35.6986   40.0099 H   0  0  0  0  0  0  0  0  0  0  0  0
   18.6710  -36.3005   37.6500 H   0  0  0  0  0  0  0  0  0  0  0  0
   19.5220  -35.5700   35.6140 H   0  0  0  0  0  0  0  0  0  0  0  0
   20.4910  -28.7220   36.5990 H   0  0  0  0  0  0  0  0  0  0  0  0
   20.9811  -29.4882   40.3974 H   0  0  0  0  0  0  0  0  0  0  0  0
   20.8509  -27.3509   42.8326 H   0  0  0  0  0  0  0  0  0  0  0  0
   22.1279  -28.0149   41.7579 H   0  0  0  0  0  0  0  0  0  0  0  0
   21.7809  -26.2524   41.7579 H   0  0  0  0  0  0  0  0  0  0  0  0
  1  2  2  0
  2  3  1  0
  2  4  1  0
  4  5  2  0
  5  6  1  0
  6  7  2  0
  7  8  1  0
  8  9  1  0
  9 10  1  0
 10 11  2  0
 11 12  1  0
 12 13  2  0
 13 14  1  0
 14 15  1  0
 14 16  2  0
 16 17  1  0
 17 18  2  0
 17 19  1  0
 19 20  1  0
  7 21  1  0
 21 22  2  0
 22 23  1  0
 22  4  1  0
 19  8  2  0
 16 10  1  0
  1 24  1  0
  1 25  1  0
  5 26  1  0
  6 27  1  0
 11 28  1  0
 12 29  1  0
 13 30  1  0
 15 31  1  0
 20 32  1  0
 21 33  1  0
 23 34  1  0
 23 35  1  0
 23 36  1  0
M  END
>  <meeko>  (1) 
{"is_sidechain": [false], "free_energy": -7.942, "intermolecular_energy": -9.335, "internal_energy": -0.469}

$$$$
cand_015_out
     RDKit          3D

 36 38  0  0  0  0  0  0  0  0999 V2000
   19.3780  -34.0170   35.1360 C   0  0  0  0  0  0  0  0  0  0  0  0
   19.5750  -33.8690   36.4510 C   0  0  0  0  0  0  0  0  0  0  0  0
   19.8940  -34.9680   37.1700 F   0  0  0  0  0  0  0  0  0  0  0  0
   19.4350  -32.5960   37.1790 C   0  0  0  0  0  0  0  0  0  0  0  0
   19.9230  -31.4100   36.6050 C   0  0  0  0  0  0  0  0  0  0  0  0
   19.8320  -30.1870   37.2780 C   0  0  0  0  0  0  0  0  0  0  0  0
   19.2500  -30.1120   38.5460 C   0  0  0  0  0  0  0  0  0  0  0  0
   19.1690  -28.8390   39.2930 C   0  0  0  0  0  0  0  0  0  0  0  0
   20.0580  -28.7800   40.3600 O   0  0  0  0  0  0  0  0  0  0  0  0
   20.0870  -27.6510   41.1370 C   0  0  0  0  0  0  0  0  0  0  0  0
   21.0050  -27.6300   42.1890 C   0  0  0  0  0  0  0  0  0  0  0  0
   21.0840  -26.5100   43.0220 C   0  0  0  0  0  0  0  0  0  0  0  0
   20.2460  -25.4150   42.8030 C   0  0  0  0  0  0  0  0  0  0  0  0
   19.3320  -25.4390   41.7530 C   0  0  0  0  0  0  0  0  0  0  0  0
   18.5420  -24.3330   41.5950 O   0  0  0  0  0  0  0  0  0  0  0  0
   19.2540  -26.5590   40.9200 C   0  0  0  0  0  0  0  0  0  0  0  0
   18.3070  -26.6250   39.8050 C   0  0  0  0  0  0  0  0  0  0  0  0
   17.5320  -25.7050   39.5530 O   0  0  0  0  0  0  0  0  0  0  0  0
   18.3080  -27.8540   38.9790 C   0  0  0  0  0  0  0  0  0  0  0  0
   17.4010  -27.9120   37.9360 O   0  0  0  0  0  0  0  0  0  0  0  0
   18.7770  -31.2970   39.1300 C   0  0  0  0  0  0  0  0  0  0  0  0
   18.8520  -32.5360   38.4620 C   0  0  0  0  0  0  0  0  0  0  0  0
   18.3220  -33.7620   39.1580 C   0  0  0  0  0  0  0  0  0  0  0  0
   19.1168  -33.1457   34.5175 H   0  0  0  0  0  0  0  0  0  0  0  0
   19.4772  -35.0100   34.6733 H   0  0  0  0  0  0  0  0  0  0  0  0
   20.3854  -31.4438   35.6075 H   0  0  0  0  0  0  0  0  0  0  0  0
   20.2228  -29.2746   36.8039 H   0  0  0  0  0  0  0  0  0  0  0  0
   21.6647  -28.4930   42.3620 H   0  0  0  0  0  0  0  0  0  0  0  0
   21.8071  -26.4915   43.8507 H   0  0  0  0  0  0  0  0  0  0  0  0
   20.3078  -24.5344   43.4592 H   0  0  0  0  0  0  0  0  0  0  0  0
   17.6240  -24.3840   41.7730 H   0  0  0  0  0  0  0  0  0  0  0  0
   17.3210  -28.6940   37.4270 H   0  0  0  0  0  0  0  0  0  0  0  0
   18.3355  -31.2580   40.1368 H   0  0  0  0  0  0  0  0  0  0  0  0
   18.3831  -33.6206   40.2472 H   0  0  0  0  0  0  0  0  0  0  0  0
   17.2735  -33.9240   38.8676 H   0  0  0  0  0  0  0  0  0  0  0  0
   18.9223  -34.6368   38.8676 H   0  0  0  0  0  0  0  0  0  0  0  0
  1  2  2  0
  2  3  1  0
  2  4  1  0
  4  5  2  0
  5  6  1  0
  6  7  2  0
  7  8  1  0
  8  9  1  0
  9 10  1  0
 10 11  2  0
 11 12  1  0
 12 13  2  0
 13 14  1  0
 14 15  1  0
 14 16  2  0
 16 17  1  0
 17 18  2  0
 17 19  1  0
 19 20  1  0
  7 21  1  0
 21 22  2  0
 22 23  1  0
 22  4  1  0
 19  8  2  0
 16 10  1  0
  1 24  1  0
  1 25  1  0
  5 26  1  0
  6 27  1  0
 11 28  1  0
 12 29  1  0
 13 30  1  0
 15 31  1  0
 20 32  1  0
 21 33  1  0
 23 34  1  0
 23 35  1  0
 23 36  1  0
M  END
>  <meeko>  (2) 
{"is_sidechain": [false], "free_energy": -7.73, "intermolecular_energy": -9.333, "internal_energy": -0.222}

$$$$
cand_015_out
     RDKit          3D

 36 38  0  0  0  0  0  0  0  0999 V2000
   19.3460  -24.3470   41.7940 C   0  0  0  0  0  0  0  0  0  0  0  0
   19.5950  -24.6620   40.5190 C   0  0  0  0  0  0  0  0  0  0  0  0
   19.9210  -23.6600   39.6720 F   0  0  0  0  0  0  0  0  0  0  0  0
   19.5060  -26.0230   39.9610 C   0  0  0  0  0  0  0  0  0  0  0  0
   20.2580  -27.0610   40.5380 C   0  0  0  0  0  0  0  0  0  0  0  0
   20.2190  -28.3600   40.0200 C   0  0  0  0  0  0  0  0  0  0  0  0
   19.4280  -28.6600   38.9080 C   0  0  0  0  0  0  0  0  0  0  0  0
   19.3930  -30.0170   38.3210 C   0  0  0  0  0  0  0  0  0  0  0  0
   19.0150  -30.9920   39.2360 O   0  0  0  0  0  0  0  0  0  0  0  0
   18.9410  -32.2970   38.8220 C   0  0  0  0  0  0  0  0  0  0  0  0
   18.5430  -33.2420   39.7700 C   0  0  0  0  0  0  0  0  0  0  0  0
   18.4500  -34.5890   39.4140 C   0  0  0  0  0  0  0  0  0  0  0  0
   18.7550  -34.9920   38.1120 C   0  0  0  0  0  0  0  0  0  0  0  0
   19.1520  -34.0480   37.1690 C   0  0  0  0  0  0  0  0  0  0  0  0
   19.4350  -34.5110   35.9130 O   0  0  0  0  0  0  0  0  0  0  0  0
   19.2440  -32.7000   37.5250 C   0  0  0  0  0  0  0  0  0  0  0  0
   19.6570  -31.6760   36.5640 C   0  0  0  0  0  0  0  0  0  0  0  0
   19.9490  -31.9520   35.4030 O   0  0  0  0  0  0  0  0  0  0  0  0
   19.7160  -30.2750   37.0410 C   0  0  0  0  0  0  0  0  0  0  0  0
   20.1200  -29.3170   36.1280 O   0  0  0  0  0  0  0  0  0  0  0  0
   18.6900  -27.6230   38.3180 C   0  0  0  0  0  0  0  0  0  0  0  0
   18.7090  -26.3120   38.8330 C   0  0  0  0  0  0  0  0  0  0  0  0
   17.8890  -25.2550   38.1420 C   0  0  0  0  0  0  0  0  0  0  0  0
   19.0776  -25.1351   42.5129 H   0  0  0  0  0  0  0  0  0  0  0  0
   19.4095  -23.2997   42.1243 H   0  0  0  0  0  0  0  0  0  0  0  0
   20.8891  -26.8479   41.4134 H   0  0  0  0  0  0  0  0  0  0  0  0
   20.8170  -29.1530   40.4928 H   0  0  0  0  0  0  0  0  0  0  0  0
   18.3031  -32.9257   40.7958 H   0  0  0  0  0  0  0  0  0  0  0  0
   18.1361  -35.3338   40.1601 H   0  0  0  0  0  0  0  0  0  0  0  0
   18.6817  -36.0533   37.8322 H   0  0  0  0  0  0  0  0  0  0  0  0
   19.8120  -33.9360   35.2760 H   0  0  0  0  0  0  0  0  0  0  0  0
   20.0850  -29.5000   35.2100 H   0  0  0  0  0  0  0  0  0  0  0  0
   18.0797  -27.8396   37.4288 H   0  0  0  0  0  0  0  0  0  0  0  0
   17.3976  -24.6215   38.8952 H   0  0  0  0  0  0  0  0  0  0  0  0
   18.5448  -24.6351   37.5130 H   0  0  0  0  0  0  0  0  0  0  0  0
   17.1255  -25.7361   37.5130 H   0  0  0  0  0  0  0  0  0  0  0  0
  1  2  2  0
  2  3  1  0
  2  4  1  0
  4  5  2  0
  5  6  1  0
  6  7  2  0
  7  8  1  0
  8  9  1  0
  9 10  1  0
 10 11  2  0
 11 12  1  0
 12 13  2  0
 13 14  1  0
 14 15  1  0
 14 16  2  0
 16 17  1  0
 17 18  2  0
 17 19  1  0
 19 20  1  0
  7 21  1  0
 21 22  2  0
 22 23  1  0
 22  4  1  0
 19  8  2  0
 16 10  1  0
  1 24  1  0
  1 25  1  0
  5 26  1  0
  6 27  1  0
 11 28  1  0
 12 29  1  0
 13 30  1  0
 15 31  1  0
 20 32  1  0
 21 33  1  0
 23 34  1  0
 23 35  1  0
 23 36  1  0
M  END
>  <meeko>  (3) 
{"is_sidechain": [false], "free_energy": -7.449, "intermolecular_energy": -9.003, "internal_energy": -0.222}

$$$$
cand_015_out
     RDKit          3D

 36 38  0  0  0  0  0  0  0  0999 V2000
   18.5840  -27.7910   35.0540 C   0  0  0  0  0  0  0  0  0  0  0  0
   18.1010  -27.4200   36.2440 C   0  0  0  0  0  0  0  0  0  0  0  0
   16.8040  -27.0450   36.3100 F   0  0  0  0  0  0  0  0  0  0  0  0
   18.8910  -27.3580   37.4860 C   0  0  0  0  0  0  0  0  0  0  0  0
   19.0390  -28.5140   38.2730 C   0  0  0  0  0  0  0  0  0  0  0  0
   19.7600  -28.4870   39.4720 C   0  0  0  0  0  0  0  0  0  0  0  0
   20.3540  -27.3050   39.9200 C   0  0  0  0  0  0  0  0  0  0  0  0
   21.0950  -27.2410   41.1990 C   0  0  0  0  0  0  0  0  0  0  0  0
   22.1310  -28.1650   41.2690 O   0  0  0  0  0  0  0  0  0  0  0  0
   22.9000  -28.2130   42.4030 C   0  0  0  0  0  0  0  0  0  0  0  0
   23.9390  -29.1460   42.4250 C   0  0  0  0  0  0  0  0  0  0  0  0
   24.7590  -29.2480   43.5510 C   0  0  0  0  0  0  0  0  0  0  0  0
   24.5410  -28.4200   44.6540 C   0  0  0  0  0  0  0  0  0  0  0  0
   23.5040  -27.4910   44.6300 C   0  0  0  0  0  0  0  0  0  0  0  0
   23.3460  -26.7120   45.7430 O   0  0  0  0  0  0  0  0  0  0  0  0
   22.6840  -27.3880   43.5020 C   0  0  0  0  0  0  0  0  0  0  0  0
   21.5840  -26.4250   43.4350 C   0  0  0  0  0  0  0  0  0  0  0  0
   21.3230  -25.6670   44.3670 O   0  0  0  0  0  0  0  0  0  0  0  0
   20.7790  -26.3920   42.1920 C   0  0  0  0  0  0  0  0  0  0  0  0
   19.7330  -25.4870   42.1450 O   0  0  0  0  0  0  0  0  0  0  0  0
   20.1940  -26.1450   39.1470 C   0  0  0  0  0  0  0  0  0  0  0  0
   19.4790  -26.1570   37.9320 C   0  0  0  0  0  0  0  0  0  0  0  0
   19.3520  -24.8700   37.1600 C   0  0  0  0  0  0  0  0  0  0  0  0
   19.6347  -28.1029   34.9598 H   0  0  0  0  0  0  0  0  0  0  0  0
   17.9308  -27.7844   34.1690 H   0  0  0  0  0  0  0  0  0  0  0  0
   18.5797  -29.4565   37.9401 H   0  0  0  0  0  0  0  0  0  0  0  0
   19.8600  -29.4062   40.0678 H   0  0  0  0  0  0  0  0  0  0  0  0
   24.1112  -29.7994   41.5570 H   0  0  0  0  0  0  0  0  0  0  0  0
   25.5781  -29.9820   43.5689 H   0  0  0  0  0  0  0  0  0  0  0  0
   25.1873  -28.5014   45.5404 H   0  0  0  0  0  0  0  0  0  0  0  0
   22.4930  -26.4100   45.9860 H   0  0  0  0  0  0  0  0  0  0  0  0
   19.2540  -25.2830   42.9240 H   0  0  0  0  0  0  0  0  0  0  0  0
   20.6379  -25.2018   39.4981 H   0  0  0  0  0  0  0  0  0  0  0  0
   19.2689  -24.0277   37.8626 H   0  0  0  0  0  0  0  0  0  0  0  0
   20.2410  -24.7330   36.5268 H   0  0  0  0  0  0  0  0  0  0  0  0
   18.4534  -24.9094   36.5268 H   0  0  0  0  0  0  0  0  0  0  0  0
  1  2  2  0
  2  3  1  0
  2  4  1  0
  4  5  2  0
  5  6  1  0
  6  7  2  0
  7  8  1  0
  8  9  1  0
  9 10  1  0
 10 11  2  0
 11 12  1  0
 12 13  2  0
 13 14  1  0
 14 15  1  0
 14 16  2  0
 16 17  1  0
 17 18  2  0
 17 19  1  0
 19 20  1  0
  7 21  1  0
 21 22  2  0
 22 23  1  0
 22  4  1  0
 19  8  2  0
 16 10  1  0
  1 24  1  0
  1 25  1  0
  5 26  1  0
  6 27  1  0
 11 28  1  0
 12 29  1  0
 13 30  1  0
 15 31  1  0
 20 32  1  0
 21 33  1  0
 23 34  1  0
 23 35  1  0
 23 36  1  0
M  END
>  <meeko>  (4) 
{"is_sidechain": [false], "free_energy": -7.069, "intermolecular_energy": -8.427, "internal_energy": -0.352}

$$$$
cand_015_out
     RDKit          3D

 36 38  0  0  0  0  0  0  0  0999 V2000
   19.4710  -24.4010   41.0250 C   0  0  0  0  0  0  0  0  0  0  0  0
   19.3760  -25.6640   41.4520 C   0  0  0  0  0  0  0  0  0  0  0  0
   19.2600  -25.8730   42.7830 F   0  0  0  0  0  0  0  0  0  0  0  0
   19.4220  -26.8490   40.5780 C   0  0  0  0  0  0  0  0  0  0  0  0
   18.3910  -27.0660   39.6480 C   0  0  0  0  0  0  0  0  0  0  0  0
   18.3870  -28.1940   38.8190 C   0  0  0  0  0  0  0  0  0  0  0  0
   19.4130  -29.1390   38.8960 C   0  0  0  0  0  0  0  0  0  0  0  0
   19.4170  -30.3540   38.0550 C   0  0  0  0  0  0  0  0  0  0  0  0
   19.9520  -30.1350   36.7910 O   0  0  0  0  0  0  0  0  0  0  0  0
   20.0150  -31.1820   35.9070 C   0  0  0  0  0  0  0  0  0  0  0  0
   20.5730  -30.9200   34.6540 C   0  0  0  0  0  0  0  0  0  0  0  0
   20.6650  -31.9420   33.7060 C   0  0  0  0  0  0  0  0  0  0  0  0
   20.2010  -33.2230   34.0100 C   0  0  0  0  0  0  0  0  0  0  0  0
   19.6450  -33.4810   35.2610 C   0  0  0  0  0  0  0  0  0  0  0  0
   19.2100  -34.7570   35.4920 O   0  0  0  0  0  0  0  0  0  0  0  0
   19.5530  -32.4580   36.2090 C   0  0  0  0  0  0  0  0  0  0  0  0
   18.9770  -32.6880   37.5350 C   0  0  0  0  0  0  0  0  0  0  0  0
   18.5390  -33.7850   37.8750 O   0  0  0  0  0  0  0  0  0  0  0  0
   18.9320  -31.5390   38.4690 C   0  0  0  0  0  0  0  0  0  0  0  0
   18.3730  -31.7630   39.7150 O   0  0  0  0  0  0  0  0  0  0  0  0
   20.4350  -28.9350   39.8360 C   0  0  0  0  0  0  0  0  0  0  0  0
   20.4600  -27.8000   40.6710 C   0  0  0  0  0  0  0  0  0  0  0  0
   21.5910  -27.6540   41.6540 C   0  0  0  0  0  0  0  0  0  0  0  0
   19.5668  -24.1897   39.9497 H   0  0  0  0  0  0  0  0  0  0  0  0
   19.4534  -23.5729   41.7488 H   0  0  0  0  0  0  0  0  0  0  0  0
   17.5719  -26.3359   39.5700 H   0  0  0  0  0  0  0  0  0  0  0  0
   17.5675  -28.3378   38.0995 H   0  0  0  0  0  0  0  0  0  0  0  0
   20.9394  -29.9110   34.4139 H   0  0  0  0  0  0  0  0  0  0  0  0
   21.1038  -31.7370   32.7184 H   0  0  0  0  0  0  0  0  0  0  0  0
   20.2743  -34.0272   33.2631 H   0  0  0  0  0  0  0  0  0  0  0  0
   19.7010  -35.3250   36.0530 H   0  0  0  0  0  0  0  0  0  0  0  0
   18.8640  -31.5730   40.4900 H   0  0  0  0  0  0  0  0  0  0  0  0
   21.2384  -29.6813   39.9234 H   0  0  0  0  0  0  0  0  0  0  0  0
   21.1949  -27.7051   42.6789 H   0  0  0  0  0  0  0  0  0  0  0  0
   22.3172  -28.4659   41.5006 H   0  0  0  0  0  0  0  0  0  0  0  0
   22.0872  -26.6843   41.5006 H   0  0  0  0  0  0  0  0  0  0  0  0
  1  2  2  0
  2  3  1  0
  2  4  1  0
  4  5  2  0
  5  6  1  0
  6  7  2  0
  7  8  1  0
  8  9  1  0
  9 10  1  0
 10 11  2  0
 11 12  1  0
 12 13  2  0
 13 14  1  0
 14 15  1  0
 14 16  2  0
 16 17  1  0
 17 18  2  0
 17 19  1  0
 19 20  1  0
  7 21  1  0
 21 22  2  0
 22 23  1  0
 22  4  1  0
 19  8  2  0
 16 10  1  0
  1 24  1  0
  1 25  1  0
  5 26  1  0
  6 27  1  0
 11 28  1  0
 12 29  1  0
 13 30  1  0
 15 31  1  0
 20 32  1  0
 21 33  1  0
 23 34  1  0
 23 35  1  0
 23 36  1  0
M  END
>  <meeko>  (5) 
{"is_sidechain": [false], "free_energy": -7.017, "intermolecular_energy": -8.198, "internal_energy": -0.519}

$$$$
cand_015_out
     RDKit          3D

 36 38  0  0  0  0  0  0  0  0999 V2000
   19.7080  -34.8990   38.3980 C   0  0  0  0  0  0  0  0  0  0  0  0
   19.0420  -33.9770   37.6950 C   0  0  0  0  0  0  0  0  0  0  0  0
   18.2170  -34.4050   36.7140 F   0  0  0  0  0  0  0  0  0  0  0  0
   19.1700  -32.5220   37.8910 C   0  0  0  0  0  0  0  0  0  0  0  0
   18.7750  -31.9490   39.1130 C   0  0  0  0  0  0  0  0  0  0  0  0
   18.8560  -30.5680   39.3260 C   0  0  0  0  0  0  0  0  0  0  0  0
   19.3340  -29.7190   38.3240 C   0  0  0  0  0  0  0  0  0  0  0  0
   19.4010  -28.2540   38.5120 C   0  0  0  0  0  0  0  0  0  0  0  0
   18.7070  -27.5520   37.5340 O   0  0  0  0  0  0  0  0  0  0  0  0
   18.6880  -26.1820   37.5900 C   0  0  0  0  0  0  0  0  0  0  0  0
   17.9660  -25.5170   36.5960 C   0  0  0  0  0  0  0  0  0  0  0  0
   17.9080  -24.1220   36.5930 C   0  0  0  0  0  0  0  0  0  0  0  0
   18.5710  -23.3910   37.5810 C   0  0  0  0  0  0  0  0  0  0  0  0
   19.2890  -24.0560   38.5710 C   0  0  0  0  0  0  0  0  0  0  0  0
   19.9140  -23.2800   39.5090 O   0  0  0  0  0  0  0  0  0  0  0  0
   19.3460  -25.4530   38.5740 C   0  0  0  0  0  0  0  0  0  0  0  0
   20.0900  -26.1910   39.5970 C   0  0  0  0  0  0  0  0  0  0  0  0
   20.7050  -25.6200   40.4950 O   0  0  0  0  0  0  0  0  0  0  0  0
   20.0830  -27.6700   39.5140 C   0  0  0  0  0  0  0  0  0  0  0  0
   20.8000  -28.3570   40.4770 O   0  0  0  0  0  0  0  0  0  0  0  0
   19.7120  -30.2860   37.0980 C   0  0  0  0  0  0  0  0  0  0  0  0
   19.6460  -31.6750   36.8700 C   0  0  0  0  0  0  0  0  0  0  0  0
   20.0710  -32.2040   35.5250 C   0  0  0  0  0  0  0  0  0  0  0  0
   20.3890  -34.5897   39.2046 H   0  0  0  0  0  0  0  0  0  0  0  0
   19.5750  -35.9668   38.1697 H   0  0  0  0  0  0  0  0  0  0  0  0
   18.3955  -32.5979   39.9160 H   0  0  0  0  0  0  0  0  0  0  0  0
   18.5403  -30.1466   40.2918 H   0  0  0  0  0  0  0  0  0  0  0  0
   17.4439  -26.0916   35.8168 H   0  0  0  0  0  0  0  0  0  0  0  0
   17.3390  -23.5978   35.8110 H   0  0  0  0  0  0  0  0  0  0  0  0
   18.5260  -22.2919   37.5770 H   0  0  0  0  0  0  0  0  0  0  0  0
   20.2300  -22.4290   39.2770 H   0  0  0  0  0  0  0  0  0  0  0  0
   21.1300  -27.9040   41.2280 H   0  0  0  0  0  0  0  0  0  0  0  0
   20.0698  -29.6282   36.2923 H   0  0  0  0  0  0  0  0  0  0  0  0
   20.7544  -33.0546   35.6648 H   0  0  0  0  0  0  0  0  0  0  0  0
   19.1843  -32.5344   34.9641 H   0  0  0  0  0  0  0  0  0  0  0  0
   20.5847  -31.4093   34.9641 H   0  0  0  0  0  0  0  0  0  0  0  0
  1  2  2  0
  2  3  1  0
  2  4  1  0
  4  5  2  0
  5  6  1  0
  6  7  2  0
  7  8  1  0
  8  9  1  0
  9 10  1  0
 10 11  2  0
 11 12  1  0
 12 13  2  0
 13 14  1  0
 14 15  1  0
 14 16  2  0
 16 17  1  0
 17 18  2  0
 17 19  1  0
 19 20  1  0
  7 21  1  0
 21 22  2  0
 22 23  1  0
 22  4  1  0
 19  8  2  0
 16 10  1  0
  1 24  1  0
  1 25  1  0
  5 26  1  0
  6 27  1  0
 11 28  1  0
 12 29  1  0
 13 30  1  0
 15 31  1  0
 20 32  1  0
 21 33  1  0
 23 34  1  0
 23 35  1  0
 23 36  1  0
M  END
>  <meeko>  (6) 
{"is_sidechain": [false], "free_energy": -6.984, "intermolecular_energy": -8.342, "internal_energy": -0.336}

$$$$
cand_015_out
     RDKit          3D

 36 38  0  0  0  0  0  0  0  0999 V2000
   23.3560  -26.7710   45.3190 C   0  0  0  0  0  0  0  0  0  0  0  0
   22.5690  -27.6060   44.6320 C   0  0  0  0  0  0  0  0  0  0  0  0
   22.3120  -28.8190   45.1700 F   0  0  0  0  0  0  0  0  0  0  0  0
   21.9890  -27.3110   43.3100 C   0  0  0  0  0  0  0  0  0  0  0  0
   20.8360  -26.5120   43.2210 C   0  0  0  0  0  0  0  0  0  0  0  0
   20.2410  -26.2330   41.9860 C   0  0  0  0  0  0  0  0  0  0  0  0
   20.7800  -26.7440   40.8020 C   0  0  0  0  0  0  0  0  0  0  0  0
   20.1530  -26.4900   39.4880 C   0  0  0  0  0  0  0  0  0  0  0  0
   19.9340  -25.1390   39.2450 O   0  0  0  0  0  0  0  0  0  0  0  0
   19.3570  -24.7630   38.0600 C   0  0  0  0  0  0  0  0  0  0  0  0
   19.1690  -23.3950   37.8520 C   0  0  0  0  0  0  0  0  0  0  0  0
   18.5840  -22.9450   36.6660 C   0  0  0  0  0  0  0  0  0  0  0  0
   18.1880  -23.8600   35.6890 C   0  0  0  0  0  0  0  0  0  0  0  0
   18.3780  -25.2240   35.8990 C   0  0  0  0  0  0  0  0  0  0  0  0
   17.9670  -26.0650   34.9010 O   0  0  0  0  0  0  0  0  0  0  0  0
   18.9630  -25.6740   37.0850 C   0  0  0  0  0  0  0  0  0  0  0  0
   19.1800  -27.0980   37.3450 C   0  0  0  0  0  0  0  0  0  0  0  0
   18.8520  -27.9650   36.5380 O   0  0  0  0  0  0  0  0  0  0  0  0
   19.8150  -27.4700   38.6310 C   0  0  0  0  0  0  0  0  0  0  0  0
   20.0030  -28.8190   38.8720 O   0  0  0  0  0  0  0  0  0  0  0  0
   21.9200  -27.5560   40.8890 C   0  0  0  0  0  0  0  0  0  0  0  0
   22.5380  -27.8400   42.1240 C   0  0  0  0  0  0  0  0  0  0  0  0
   23.7590  -28.7210   42.1310 C   0  0  0  0  0  0  0  0  0  0  0  0
   23.5879  -25.7751   44.9135 H   0  0  0  0  0  0  0  0  0  0  0  0
   23.7714  -27.0801   46.2895 H   0  0  0  0  0  0  0  0  0  0  0  0
   20.3934  -26.0985   44.1392 H   0  0  0  0  0  0  0  0  0  0  0  0
   19.3391  -25.6046   41.9463 H   0  0  0  0  0  0  0  0  0  0  0  0
   19.4811  -22.6729   38.6209 H   0  0  0  0  0  0  0  0  0  0  0  0
   18.4351  -21.8676   36.5017 H   0  0  0  0  0  0  0  0  0  0  0  0
   17.7270  -23.5049   34.7555 H   0  0  0  0  0  0  0  0  0  0  0  0
   17.2180  -25.8470   34.3820 H   0  0  0  0  0  0  0  0  0  0  0  0
   19.3060  -29.3330   39.2300 H   0  0  0  0  0  0  0  0  0  0  0  0
   22.3438  -27.9832   39.9682 H   0  0  0  0  0  0  0  0  0  0  0  0
   24.0524  -28.9327   43.1698 H   0  0  0  0  0  0  0  0  0  0  0  0
   23.5328  -29.6653   41.6142 H   0  0  0  0  0  0  0  0  0  0  0  0
   24.5838  -28.2086   41.6142 H   0  0  0  0  0  0  0  0  0  0  0  0
  1  2  2  0
  2  3  1  0
  2  4  1  0
  4  5  2  0
  5  6  1  0
  6  7  2  0
  7  8  1  0
  8  9  1  0
  9 10  1  0
 10 11  2  0
 11 12  1  0
 12 13  2  0
 13 14  1  0
 14 15  1  0
 14 16  2  0
 16 17  1  0
 17 18  2  0
 17 19  1  0
 19 20  1  0
  7 21  1  0
 21 22  2  0
 22 23  1  0
 22  4  1  0
 19  8  2  0
 16 10  1  0
  1 24  1  0
  1 25  1  0
  5 26  1  0
  6 27  1  0
 11 28  1  0
 12 29  1  0
 13 30  1  0
 15 31  1  0
 20 32  1  0
 21 33  1  0
 23 34  1  0
 23 35  1  0
 23 36  1  0
M  END
>  <meeko>  (7) 
{"is_sidechain": [false], "free_energy": -6.931, "intermolecular_energy": -8.298, "internal_energy": -0.318}

$$$$
cand_015_out
     RDKit          3D

 36 38  0  0  0  0  0  0  0  0999 V2000
   21.2030  -24.5520   45.1820 C   0  0  0  0  0  0  0  0  0  0  0  0
   20.0170  -24.4150   44.5790 C   0  0  0  0  0  0  0  0  0  0  0  0
   18.9580  -24.0610   45.3410 F   0  0  0  0  0  0  0  0  0  0  0  0
   19.7750  -24.6570   43.1470 C   0  0  0  0  0  0  0  0  0  0  0  0
   19.6940  -25.9770   42.6690 C   0  0  0  0  0  0  0  0  0  0  0  0
   19.4910  -26.2450   41.3110 C   0  0  0  0  0  0  0  0  0  0  0  0
   19.3640  -25.2030   40.3890 C   0  0  0  0  0  0  0  0  0  0  0  0
   19.1800  -25.4600   38.9450 C   0  0  0  0  0  0  0  0  0  0  0  0
   18.0450  -24.8470   38.4270 O   0  0  0  0  0  0  0  0  0  0  0  0
   17.7560  -25.0040   37.0960 C   0  0  0  0  0  0  0  0  0  0  0  0
   16.6140  -24.3590   36.6150 C   0  0  0  0  0  0  0  0  0  0  0  0
   16.2610  -24.4790   35.2690 C   0  0  0  0  0  0  0  0  0  0  0  0
   17.0470  -25.2440   34.4050 C   0  0  0  0  0  0  0  0  0  0  0  0
   18.1850  -25.8860   34.8870 C   0  0  0  0  0  0  0  0  0  0  0  0
   18.9100  -26.6180   33.9870 O   0  0  0  0  0  0  0  0  0  0  0  0
   18.5390  -25.7640   36.2340 C   0  0  0  0  0  0  0  0  0  0  0  0
   19.7260  -26.4220   36.7810 C   0  0  0  0  0  0  0  0  0  0  0  0
   20.4640  -27.1180   36.0860 O   0  0  0  0  0  0  0  0  0  0  0  0
   20.0160  -26.2250   38.2200 C   0  0  0  0  0  0  0  0  0  0  0  0
   21.1330  -26.8620   38.7300 O   0  0  0  0  0  0  0  0  0  0  0  0
   19.4610  -23.8850   40.8590 C   0  0  0  0  0  0  0  0  0  0  0  0
   19.6550  -23.5960   42.2250 C   0  0  0  0  0  0  0  0  0  0  0  0
   19.7500  -22.1540   42.6490 C   0  0  0  0  0  0  0  0  0  0  0  0
   22.0883  -24.8389   44.5955 H   0  0  0  0  0  0  0  0  0  0  0  0
   21.2931  -24.3777   46.2644 H   0  0  0  0  0  0  0  0  0  0  0  0
   19.7920  -26.8142   43.3758 H   0  0  0  0  0  0  0  0  0  0  0  0
   19.4307  -27.2875   40.9654 H   0  0  0  0  0  0  0  0  0  0  0  0
   15.9936  -23.7574   37.2955 H   0  0  0  0  0  0  0  0  0  0  0  0
   15.3627  -23.9702   34.8892 H   0  0  0  0  0  0  0  0  0  0  0  0
   16.7678  -25.3394   33.3453 H   0  0  0  0  0  0  0  0  0  0  0  0
   18.5930  -27.4510   33.6980 H   0  0  0  0  0  0  0  0  0  0  0  0
   21.4140  -26.6860   39.6060 H   0  0  0  0  0  0  0  0  0  0  0  0
   19.3836  -23.0543   40.1421 H   0  0  0  0  0  0  0  0  0  0  0  0
   19.7539  -22.0943   43.7474 H   0  0  0  0  0  0  0  0  0  0  0  0
   20.6789  -21.7163   42.2547 H   0  0  0  0  0  0  0  0  0  0  0  0
   18.8865  -21.5982   42.2547 H   0  0  0  0  0  0  0  0  0  0  0  0
  1  2  2  0
  2  3  1  0
  2  4  1  0
  4  5  2  0
  5  6  1  0
  6  7  2  0
  7  8  1  0
  8  9  1  0
  9 10  1  0
 10 11  2  0
 11 12  1  0
 12 13  2  0
 13 14  1  0
 14 15  1  0
 14 16  2  0
 16 17  1  0
 17 18  2  0
 17 19  1  0
 19 20  1  0
  7 21  1  0
 21 22  2  0
 22 23  1  0
 22  4  1  0
 19  8  2  0
 16 10  1  0
  1 24  1  0
  1 25  1  0
  5 26  1  0
  6 27  1  0
 11 28  1  0
 12 29  1  0
 13 30  1  0
 15 31  1  0
 20 32  1  0
 21 33  1  0
 23 34  1  0
 23 35  1  0
 23 36  1  0
M  END
>  <meeko>  (8) 
{"is_sidechain": [false], "free_energy": -6.852, "intermolecular_energy": -8.139, "internal_energy": -0.384}

$$$$
cand_015_out
     RDKit          3D

 36 38  0  0  0  0  0  0  0  0999 V2000
   19.7060  -35.3620   38.1330 C   0  0  0  0  0  0  0  0  0  0  0  0
   19.0610  -34.3890   37.4800 C   0  0  0  0  0  0  0  0  0  0  0  0
   18.2510  -34.7440   36.4580 F   0  0  0  0  0  0  0  0  0  0  0  0
   19.1980  -32.9520   37.7730 C   0  0  0  0  0  0  0  0  0  0  0  0
   18.8560  -32.4680   39.0480 C   0  0  0  0  0  0  0  0  0  0  0  0
   18.9480  -31.1060   39.3550 C   0  0  0  0  0  0  0  0  0  0  0  0
   19.3820  -30.1860   38.3970 C   0  0  0  0  0  0  0  0  0  0  0  0
   19.4580  -28.7380   38.6860 C   0  0  0  0  0  0  0  0  0  0  0  0
   19.5060  -28.4600   40.0470 O   0  0  0  0  0  0  0  0  0  0  0  0
   19.5790  -27.1530   40.4540 C   0  0  0  0  0  0  0  0  0  0  0  0
   19.6400  -26.9200   41.8290 C   0  0  0  0  0  0  0  0  0  0  0  0
   19.7130  -25.6110   42.3110 C   0  0  0  0  0  0  0  0  0  0  0  0
   19.7240  -24.5360   41.4200 C   0  0  0  0  0  0  0  0  0  0  0  0
   19.6620  -24.7710   40.0490 C   0  0  0  0  0  0  0  0  0  0  0  0
   19.6770  -23.6740   39.2320 O   0  0  0  0  0  0  0  0  0  0  0  0
   19.5900  -26.0820   39.5670 C   0  0  0  0  0  0  0  0  0  0  0  0
   19.5250  -26.3720   38.1340 C   0  0  0  0  0  0  0  0  0  0  0  0
   19.5220  -25.4810   37.2870 O   0  0  0  0  0  0  0  0  0  0  0  0
   19.4580  -27.7950   37.7270 C   0  0  0  0  0  0  0  0  0  0  0  0
   19.3830  -28.0580   36.3710 O   0  0  0  0  0  0  0  0  0  0  0  0
   19.7070  -30.6630   37.1180 C   0  0  0  0  0  0  0  0  0  0  0  0
   19.6300  -32.0330   36.7950 C   0  0  0  0  0  0  0  0  0  0  0  0
   19.9960  -32.4640   35.3990 C   0  0  0  0  0  0  0  0  0  0  0  0
   20.3743  -35.1130   38.9705 H   0  0  0  0  0  0  0  0  0  0  0  0
   19.5682  -36.4111   37.8325 H   0  0  0  0  0  0  0  0  0  0  0  0
   18.5098  -33.1729   39.8182 H   0  0  0  0  0  0  0  0  0  0  0  0
   18.6757  -30.7556   40.3615 H   0  0  0  0  0  0  0  0  0  0  0  0
   19.6306  -27.7660   42.5319 H   0  0  0  0  0  0  0  0  0  0  0  0
   19.7619  -25.4267   43.3944 H   0  0  0  0  0  0  0  0  0  0  0  0
   19.7815  -23.5055   41.8004 H   0  0  0  0  0  0  0  0  0  0  0  0
   18.8710  -23.2810   38.9610 H   0  0  0  0  0  0  0  0  0  0  0  0
   19.9330  -28.7140   35.9900 H   0  0  0  0  0  0  0  0  0  0  0  0
   20.0306  -29.9486   36.3466 H   0  0  0  0  0  0  0  0  0  0  0  0
   20.7073  -33.3016   35.4485 H   0  0  0  0  0  0  0  0  0  0  0  0
   19.0894  -32.7839   34.8645 H   0  0  0  0  0  0  0  0  0  0  0  0
   20.4586  -31.6212   34.8645 H   0  0  0  0  0  0  0  0  0  0  0  0
  1  2  2  0
  2  3  1  0
  2  4  1  0
  4  5  2  0
  5  6  1  0
  6  7  2  0
  7  8  1  0
  8  9  1  0
  9 10  1  0
 10 11  2  0
 11 12  1  0
 12 13  2  0
 13 14  1  0
 14 15  1  0
 14 16  2  0
 16 17  1  0
 17 18  2  0
 17 19  1  0
 19 20  1  0
  7 21  1  0
 21 22  2  0
 22 23  1  0
 22  4  1  0
 19  8  2  0
 16 10  1  0
  1 24  1  0
  1 25  1  0
  5 26  1  0
  6 27  1  0
 11 28  1  0
 12 29  1  0
 13 30  1  0
 15 31  1  0
 20 32  1  0
 21 33  1  0
 23 34  1  0
 23 35  1  0
 23 36  1  0
M  END
>  <meeko>  (9) 
{"is_sidechain": [false], "free_energy": -6.828, "intermolecular_energy": -8.654, "internal_energy": 0.159}

$$$$
