cand_044_out
     RDKit          3D

 41 43  0  0  0  0  0  0  0  0999 V2000
   19.2390  -23.2560   39.4500 C   0  0  0  0  0  0  0  0  0  0  0  0
   20.0130  -24.1510   40.4050 C   0  0  0  0  0  0  0  0  0  0  0  0
   19.0960  -25.1710   41.0830 C   0  0  0  0  0  0  0  0  0  0  0  0
   19.1920  -26.5350   40.4330 C   0  0  0  0  0  0  0  0  0  0  0  0
   18.2500  -26.8690   39.4460 C   0  0  0  0  0  0  0  0  0  0  0  0
   18.2730  -28.1170   38.8210 C   0  0  0  0  0  0  0  0  0  0  0  0
   19.2290  -29.0740   39.1710 C   0  0  0  0  0  0  0  0  0  0  0  0
   19.2910  -30.3940   38.5070 C   0  0  0  0  0  0  0  0  0  0  0  0
   18.8580  -31.4310   39.3270 O   0  0  0  0  0  0  0  0  0  0  0  0
   18.8580  -32.7110   38.8340 C   0  0  0  0  0  0  0  0  0  0  0  0
   18.4250  -33.7210   39.6940 C   0  0  0  0  0  0  0  0  0  0  0  0
   18.4000  -35.0460   39.2550 C   0  0  0  0  0  0  0  0  0  0  0  0
   18.8070  -35.3620   37.9570 C   0  0  0  0  0  0  0  0  0  0  0  0
   19.2380  -34.3510   37.1010 C   0  0  0  0  0  0  0  0  0  0  0  0
   19.6220  -34.7290   35.8430 O   0  0  0  0  0  0  0  0  0  0  0  0
   19.2630  -33.0260   37.5410 C   0  0  0  0  0  0  0  0  0  0  0  0
   19.7080  -31.9340   36.6740 C   0  0  0  0  0  0  0  0  0  0  0  0
   20.0760  -32.1300   35.5170 O   0  0  0  0  0  0  0  0  0  0  0  0
   19.7020  -30.5650   37.2370 C   0  0  0  0  0  0  0  0  0  0  0  0
   20.1100  -29.5400   36.4030 O   0  0  0  0  0  0  0  0  0  0  0  0
   20.1740  -28.7410   40.1530 C   0  0  0  0  0  0  0  0  0  0  0  0
   20.1680  -27.4860   40.7980 C   0  0  0  0  0  0  0  0  0  0  0  0
   21.2280  -27.1960   41.8360 C   0  0  0  0  0  0  0  0  0  0  0  0
   20.8600  -27.5590   43.0970 F   0  0  0  0  0  0  0  0  0  0  0  0
   22.4080  -27.8420   41.6050 F   0  0  0  0  0  0  0  0  0  0  0  0
   18.6263  -22.5475   40.0267 H   0  0  0  0  0  0  0  0  0  0  0  0
   19.9447  -22.6990   38.8162 H   0  0  0  0  0  0  0  0  0  0  0  0
   18.5860  -23.8740   38.8162 H   0  0  0  0  0  0  0  0  0  0  0  0
   20.7903  -24.6879   39.8414 H   0  0  0  0  0  0  0  0  0  0  0  0
   20.4622  -23.5181   41.1845 H   0  0  0  0  0  0  0  0  0  0  0  0
   19.3837  -25.2600   42.1410 H   0  0  0  0  0  0  0  0  0  0  0  0
   18.0592  -24.8174   40.9828 H   0  0  0  0  0  0  0  0  0  0  0  0
   17.4817  -26.1352   39.1609 H   0  0  0  0  0  0  0  0  0  0  0  0
   17.5299  -28.3497   38.0440 H   0  0  0  0  0  0  0  0  0  0  0  0
   18.1038  -33.4735   40.7165 H   0  0  0  0  0  0  0  0  0  0  0  0
   18.0591  -35.8426   39.9327 H   0  0  0  0  0  0  0  0  0  0  0  0
   18.7873  -36.4062   37.6115 H   0  0  0  0  0  0  0  0  0  0  0  0
   20.5140  -34.9650   35.6770 H   0  0  0  0  0  0  0  0  0  0  0  0
   19.7790  -29.4870   35.5290 H   0  0  0  0  0  0  0  0  0  0  0  0
   20.9416  -29.4794   40.4280 H   0  0  0  0  0  0  0  0  0  0  0  0
   21.3529  -26.1061   41.7548 H   0  0  0  0  0  0  0  0  0  0  0  0
  1  2  1  0
  2  3  1  0
  3  4  1  0
  4  5  2  0
  5  6  1  0
  6  7  2  0
  7  8  1  0
  8  9  1  0
  9 10  1  0
 10 11  2  0
 11 12  1  0
 12 13  2  0
 13 14  1  0
 14 15  1  0
 14 16  2  0
 16 17  1  0
 17 18  2  0
 17 19  1  0
 19 20  1  0
  7 21  1  0
 21 22  2  0
 22 23  1  0
 23 24  1  0
 23 25  1  0
 22  4  1  0
 19  8  2  0
 16 10  1  0
  1 26  1  0
  1 27  1  0
  1 28  1  0
  2 29  1  0
  2 30  1  0
  3 31  1  0
  3 32  1  0
  5 33  1  0
  6 34  1  0
 11 35  1  0
 12 36  1  0
 13 37  1  0
 15 38  1  0
 20 39  1  0
 21 40  1  0
 23 41  1  0
M  END
>  <meeko>  (1) 
{"is_sidechain": [false], "free_energy": -8.058, "intermolecular_energy": -10.414, "internal_energy": -0.752}

$$$$
cand_044_out
     RDKit          3D

 41 43  0  0  0  0  0  0  0  0999 V2000
   20.3320  -34.6990   33.9070 C   0  0  0  0  0  0  0  0  0  0  0  0
   19.7180  -33.5290   34.6620 C   0  0  0  0  0  0  0  0  0  0  0  0
   19.6010  -33.8290   36.1570 C   0  0  0  0  0  0  0  0  0  0  0  0
   19.4750  -32.5640   36.9780 C   0  0  0  0  0  0  0  0  0  0  0  0
   19.7920  -31.3400   36.3650 C   0  0  0  0  0  0  0  0  0  0  0  0
   19.7140  -30.1380   37.0720 C   0  0  0  0  0  0  0  0  0  0  0  0
   19.3280  -30.1240   38.4150 C   0  0  0  0  0  0  0  0  0  0  0  0
   19.2130  -28.8630   39.1800 C   0  0  0  0  0  0  0  0  0  0  0  0
   20.1120  -28.7900   40.2390 O   0  0  0  0  0  0  0  0  0  0  0  0
   20.1160  -27.6700   41.0290 C   0  0  0  0  0  0  0  0  0  0  0  0
   21.0270  -27.6440   42.0860 C   0  0  0  0  0  0  0  0  0  0  0  0
   21.0840  -26.5320   42.9290 C   0  0  0  0  0  0  0  0  0  0  0  0
   20.2320  -25.4470   42.7160 C   0  0  0  0  0  0  0  0  0  0  0  0
   19.3240  -25.4760   41.6600 C   0  0  0  0  0  0  0  0  0  0  0  0
   18.5190  -24.3800   41.5070 O   0  0  0  0  0  0  0  0  0  0  0  0
   19.2670  -26.5880   40.8170 C   0  0  0  0  0  0  0  0  0  0  0  0
   18.3290  -26.6580   39.6950 C   0  0  0  0  0  0  0  0  0  0  0  0
   17.5510  -25.7410   39.4390 O   0  0  0  0  0  0  0  0  0  0  0  0
   18.3450  -27.8840   38.8650 C   0  0  0  0  0  0  0  0  0  0  0  0
   17.4650  -27.9320   37.7990 O   0  0  0  0  0  0  0  0  0  0  0  0
   19.0060  -31.3440   39.0270 C   0  0  0  0  0  0  0  0  0  0  0  0
   19.0810  -32.5690   38.3320 C   0  0  0  0  0  0  0  0  0  0  0  0
   18.7050  -33.8410   39.0570 C   0  0  0  0  0  0  0  0  0  0  0  0
   19.6460  -34.8200   38.9490 F   0  0  0  0  0  0  0  0  0  0  0  0
   18.5150  -33.6700   40.3980 F   0  0  0  0  0  0  0  0  0  0  0  0
   20.7190  -35.4365   34.6256 H   0  0  0  0  0  0  0  0  0  0  0  0
   19.5651  -35.1705   33.2749 H   0  0  0  0  0  0  0  0  0  0  0  0
   21.1557  -34.3358   33.2749 H   0  0  0  0  0  0  0  0  0  0  0  0
   20.3527  -32.6413   34.5238 H   0  0  0  0  0  0  0  0  0  0  0  0
   18.7077  -33.3524   34.2643 H   0  0  0  0  0  0  0  0  0  0  0  0
   18.7109  -34.4528   36.3260 H   0  0  0  0  0  0  0  0  0  0  0  0
   20.5165  -34.3507   36.4728 H   0  0  0  0  0  0  0  0  0  0  0  0
   20.1067  -31.3283   35.3111 H   0  0  0  0  0  0  0  0  0  0  0  0
   19.9590  -29.1923   36.5663 H   0  0  0  0  0  0  0  0  0  0  0  0
   21.6992  -28.4982   42.2549 H   0  0  0  0  0  0  0  0  0  0  0  0
   21.8016  -26.5111   43.7624 H   0  0  0  0  0  0  0  0  0  0  0  0
   20.2775  -24.5714   43.3803 H   0  0  0  0  0  0  0  0  0  0  0  0
   18.8320  -23.6300   41.0400 H   0  0  0  0  0  0  0  0  0  0  0  0
   17.1950  -27.1410   37.3780 H   0  0  0  0  0  0  0  0  0  0  0  0
   18.6857  -31.3456   40.0793 H   0  0  0  0  0  0  0  0  0  0  0  0
   17.7672  -34.1316   38.5609 H   0  0  0  0  0  0  0  0  0  0  0  0
  1  2  1  0
  2  3  1  0
  3  4  1  0
  4  5  2  0
  5  6  1  0
  6  7  2  0
  7  8  1  0
  8  9  1  0
  9 10  1  0
 10 11  2  0
 11 12  1  0
 12 13  2  0
 13 14  1  0
 14 15  1  0
 14 16  2  0
 16 17  1  0
 17 18  2  0
 17 19  1  0
 19 20  1  0
  7 21  1  0
 21 22  2  0
 22 23  1  0
 23 24  1  0
 23 25  1  0
 22  4  1  0
 19  8  2  0
 16 10  1  0
  1 26  1  0
  1 27  1  0
  1 28  1  0
  2 29  1  0
  2 30  1  0
  3 31  1  0
  3 32  1  0
  5 33  1  0
  6 34  1  0
 11 35  1  0
 12 36  1  0
 13 37  1  0
 15 38  1  0
 20 39  1  0
 21 40  1  0
 23 41  1  0
M  END
>  <meeko>  (2) 
{"is_sidechain": [false], "free_energy": -8.03, "intermolecular_energy": -10.66, "internal_energy": -0.469}

$$$$
cand_044_out
     RDKit          3D

 41 43  0  0  0  0  0  0  0  0999 V2000
   19.6650  -35.4700   36.9090 C   0  0  0  0  0  0  0  0  0  0  0  0
   18.8800  -34.4500   36.0990 C   0  0  0  0  0  0  0  0  0  0  0  0
   19.7820  -33.3180   35.6020 C   0  0  0  0  0  0  0  0  0  0  0  0
   19.6700  -32.0840   36.4710 C   0  0  0  0  0  0  0  0  0  0  0  0
   19.2680  -32.2480   37.8070 C   0  0  0  0  0  0  0  0  0  0  0  0
   19.1280  -31.1490   38.6580 C   0  0  0  0  0  0  0  0  0  0  0  0
   19.3740  -29.8530   38.1960 C   0  0  0  0  0  0  0  0  0  0  0  0
   19.2580  -28.6740   39.0820 C   0  0  0  0  0  0  0  0  0  0  0  0
   20.2020  -28.6710   40.1030 O   0  0  0  0  0  0  0  0  0  0  0  0
   20.2100  -27.6300   40.9960 C   0  0  0  0  0  0  0  0  0  0  0  0
   21.1670  -27.6730   42.0090 C   0  0  0  0  0  0  0  0  0  0  0  0
   21.2310  -26.6430   42.9510 C   0  0  0  0  0  0  0  0  0  0  0  0
   20.3380  -25.5720   42.8790 C   0  0  0  0  0  0  0  0  0  0  0  0
   19.3830  -25.5320   41.8650 C   0  0  0  0  0  0  0  0  0  0  0  0
   18.5410  -24.4540   41.8520 O   0  0  0  0  0  0  0  0  0  0  0  0
   19.3210  -26.5620   40.9240 C   0  0  0  0  0  0  0  0  0  0  0  0
   18.3340  -26.5590   39.8420 C   0  0  0  0  0  0  0  0  0  0  0  0
   17.5190  -25.6480   39.7080 O   0  0  0  0  0  0  0  0  0  0  0  0
   18.3480  -27.7000   38.8990 C   0  0  0  0  0  0  0  0  0  0  0  0
   17.4220  -27.6780   37.8720 O   0  0  0  0  0  0  0  0  0  0  0  0
   19.7820  -29.6890   36.8630 C   0  0  0  0  0  0  0  0  0  0  0  0
   19.9270  -30.7850   35.9880 C   0  0  0  0  0  0  0  0  0  0  0  0
   20.3840  -30.5280   34.5700 C   0  0  0  0  0  0  0  0  0  0  0  0
   20.7210  -29.2280   34.3410 F   0  0  0  0  0  0  0  0  0  0  0  0
   21.4820  -31.2540   34.2110 F   0  0  0  0  0  0  0  0  0  0  0  0
   19.5174  -35.2782   37.9820 H   0  0  0  0  0  0  0  0  0  0  0  0
   19.3110  -36.4826   36.6654 H   0  0  0  0  0  0  0  0  0  0  0  0
   20.7345  -35.3870   36.6654 H   0  0  0  0  0  0  0  0  0  0  0  0
   18.4269  -34.9534   35.2322 H   0  0  0  0  0  0  0  0  0  0  0  0
   18.1047  -34.0157   36.7473 H   0  0  0  0  0  0  0  0  0  0  0  0
   20.8257  -33.6653   35.6104 H   0  0  0  0  0  0  0  0  0  0  0  0
   19.4617  -33.0487   34.5847 H   0  0  0  0  0  0  0  0  0  0  0  0
   19.0601  -33.2583   38.1893 H   0  0  0  0  0  0  0  0  0  0  0  0
   18.8209  -31.3052   39.7027 H   0  0  0  0  0  0  0  0  0  0  0  0
   21.8706  -28.5166   42.0665 H   0  0  0  0  0  0  0  0  0  0  0  0
   21.9859  -26.6759   43.7504 H   0  0  0  0  0  0  0  0  0  0  0  0
   20.3883  -24.7616   43.6211 H   0  0  0  0  0  0  0  0  0  0  0  0
   17.9270  -24.3310   42.5510 H   0  0  0  0  0  0  0  0  0  0  0  0
   16.5580  -27.3500   38.0270 H   0  0  0  0  0  0  0  0  0  0  0  0
   19.9947  -28.6762   36.4903 H   0  0  0  0  0  0  0  0  0  0  0  0
   19.5060  -30.8232   33.9767 H   0  0  0  0  0  0  0  0  0  0  0  0
  1  2  1  0
  2  3  1  0
  3  4  1  0
  4  5  2  0
  5  6  1  0
  6  7  2  0
  7  8  1  0
  8  9  1  0
  9 10  1  0
 10 11  2  0
 11 12  1  0
 12 13  2  0
 13 14  1  0
 14 15  1  0
 14 16  2  0
 16 17  1  0
 17 18  2  0
 17 19  1  0
 19 20  1  0
  7 21  1  0
 21 22  2  0
 22 23  1  0
 23 24  1  0
 23 25  1  0
 22  4  1  0
 19  8  2  0
 16 10  1  0
  1 26  1  0
  1 27  1  0
  1 28  1  0
  2 29  1  0
  2 30  1  0
  3 31  1  0
  3 32  1  0
  5 33  1  0
  6 34  1  0
 11 35  1  0
 12 36  1  0
 13 37  1  0
 15 38  1  0
 20 39  1  0
 21 40  1  0
 23 41  1  0
M  END
>  <meeko>  (3) 
{"is_sidechain": [false], "free_energy": -7.571, "intermolecular_energy": -10.138, "internal_energy": -0.398}

$$$$
cand_044_out
     RDKit          3D

 41 43  0  0  0  0  0  0  0  0999 V2000
   19.7470  -22.7510   41.9110 C   0  0  0  0  0  0  0  0  0  0  0  0
   19.6220  -23.8680   40.8870 C   0  0  0  0  0  0  0  0  0  0  0  0
   19.0360  -25.1350   41.5120 C   0  0  0  0  0  0  0  0  0  0  0  0
   19.2120  -26.3410   40.6130 C   0  0  0  0  0  0  0  0  0  0  0  0
   18.2870  -26.5350   39.5740 C   0  0  0  0  0  0  0  0  0  0  0  0
   18.3830  -27.6360   38.7200 C   0  0  0  0  0  0  0  0  0  0  0  0
   19.3980  -28.5820   38.8860 C   0  0  0  0  0  0  0  0  0  0  0  0
   19.5380  -29.7440   37.9820 C   0  0  0  0  0  0  0  0  0  0  0  0
   19.9110  -29.3820   36.6910 O   0  0  0  0  0  0  0  0  0  0  0  0
   20.0810  -30.3640   35.7500 C   0  0  0  0  0  0  0  0  0  0  0  0
   20.4460  -29.9550   34.4670 C   0  0  0  0  0  0  0  0  0  0  0  0
   20.6360  -30.9050   33.4610 C   0  0  0  0  0  0  0  0  0  0  0  0
   20.4630  -32.2620   33.7370 C   0  0  0  0  0  0  0  0  0  0  0  0
   20.0990  -32.6670   35.0200 C   0  0  0  0  0  0  0  0  0  0  0  0
   19.9460  -34.0120   35.2220 O   0  0  0  0  0  0  0  0  0  0  0  0
   19.9080  -31.7170   36.0250 C   0  0  0  0  0  0  0  0  0  0  0  0
   19.5270  -32.1000   37.3850 C   0  0  0  0  0  0  0  0  0  0  0  0
   19.3610  -33.2750   37.7090 O   0  0  0  0  0  0  0  0  0  0  0  0
   19.3450  -31.0150   38.3770 C   0  0  0  0  0  0  0  0  0  0  0  0
   19.0000  -31.3910   39.6630 O   0  0  0  0  0  0  0  0  0  0  0  0
   20.3260  -28.3870   39.9210 C   0  0  0  0  0  0  0  0  0  0  0  0
   20.2460  -27.2830   40.7950 C   0  0  0  0  0  0  0  0  0  0  0  0
   21.2910  -27.1330   41.8760 C   0  0  0  0  0  0  0  0  0  0  0  0
   20.8820  -27.6020   43.0880 F   0  0  0  0  0  0  0  0  0  0  0  0
   22.4530  -27.7970   41.6070 F   0  0  0  0  0  0  0  0  0  0  0  0
   19.6995  -23.1758   42.9246 H   0  0  0  0  0  0  0  0  0  0  0  0
   20.7086  -22.2345   41.7746 H   0  0  0  0  0  0  0  0  0  0  0  0
   18.9234  -22.0347   41.7746 H   0  0  0  0  0  0  0  0  0  0  0  0
   18.9638  -23.5339   40.0714 H   0  0  0  0  0  0  0  0  0  0  0  0
   20.6270  -24.1027   40.5063 H   0  0  0  0  0  0  0  0  0  0  0  0
   19.5437  -25.3273   42.4687 H   0  0  0  0  0  0  0  0  0  0  0  0
   17.9579  -24.9748   41.6607 H   0  0  0  0  0  0  0  0  0  0  0  0
   17.4739  -25.8081   39.4306 H   0  0  0  0  0  0  0  0  0  0  0  0
   17.6516  -27.7598   37.9078 H   0  0  0  0  0  0  0  0  0  0  0  0
   20.5839  -28.8859   34.2481 H   0  0  0  0  0  0  0  0  0  0  0  0
   20.9226  -30.5829   32.4490 H   0  0  0  0  0  0  0  0  0  0  0  0
   20.6135  -33.0097   32.9444 H   0  0  0  0  0  0  0  0  0  0  0  0
   19.5850  -34.3260   36.0280 H   0  0  0  0  0  0  0  0  0  0  0  0
   19.0550  -32.2900   39.9190 H   0  0  0  0  0  0  0  0  0  0  0  0
   21.1388  -29.1161   40.0542 H   0  0  0  0  0  0  0  0  0  0  0  0
   21.4554  -26.0457   41.9028 H   0  0  0  0  0  0  0  0  0  0  0  0
  1  2  1  0
  2  3  1  0
  3  4  1  0
  4  5  2  0
  5  6  1  0
  6  7  2  0
  7  8  1  0
  8  9  1  0
  9 10  1  0
 10 11  2  0
 11 12  1  0
 12 13  2  0
 13 14  1  0
 14 15  1  0
 14 16  2  0
 16 17  1  0
 17 18  2  0
 17 19  1  0
 19 20  1  0
  7 21  1  0
 21 22  2  0
 22 23  1  0
 23 24  1  0
 23 25  1  0
 22  4  1  0
 19  8  2  0
 16 10  1  0
  1 26  1  0
  1 27  1  0
  1 28  1  0
  2 29  1  0
  2 30  1  0
  3 31  1  0
  3 32  1  0
  5 33  1  0
  6 34  1  0
 11 35  1  0
 12 36  1  0
 13 37  1  0
 15 38  1  0
 20 39  1  0
 21 40  1  0
 23 41  1  0
M  END
>  <meeko>  (4) 
{"is_sidechain": [false], "free_energy": -7.242, "intermolecular_energy": -9.431, "internal_energy": -0.68}

$$$$
cand_044_out
     RDKit          3D

 41 43  0  0  0  0  0  0  0  0999 V2000
   19.9690  -22.5040   42.7170 C   0  0  0  0  0  0  0  0  0  0  0  0
   19.3520  -23.7310   42.0650 C   0  0  0  0  0  0  0  0  0  0  0  0
   19.8540  -25.0210   42.7150 C   0  0  0  0  0  0  0  0  0  0  0  0
   19.8420  -26.1830   41.7460 C   0  0  0  0  0  0  0  0  0  0  0  0
   18.7930  -26.2600   40.8150 C   0  0  0  0  0  0  0  0  0  0  0  0
   18.7130  -27.3160   39.9040 C   0  0  0  0  0  0  0  0  0  0  0  0
   19.6720  -28.3320   39.9040 C   0  0  0  0  0  0  0  0  0  0  0  0
   19.6250  -29.4490   38.9340 C   0  0  0  0  0  0  0  0  0  0  0  0
   19.4080  -30.6820   39.5410 O   0  0  0  0  0  0  0  0  0  0  0  0
   19.3370  -31.8040   38.7560 C   0  0  0  0  0  0  0  0  0  0  0  0
   19.1270  -33.0200   39.4070 C   0  0  0  0  0  0  0  0  0  0  0  0
   19.0440  -34.2010   38.6670 C   0  0  0  0  0  0  0  0  0  0  0  0
   19.1700  -34.1660   37.2770 C   0  0  0  0  0  0  0  0  0  0  0  0
   19.3790  -32.9510   36.6290 C   0  0  0  0  0  0  0  0  0  0  0  0
   19.4920  -32.9880   35.2660 O   0  0  0  0  0  0  0  0  0  0  0  0
   19.4620  -31.7700   37.3710 C   0  0  0  0  0  0  0  0  0  0  0  0
   19.6790  -30.4720   36.7300 C   0  0  0  0  0  0  0  0  0  0  0  0
   19.7930  -30.3580   35.5110 O   0  0  0  0  0  0  0  0  0  0  0  0
   19.7570  -29.2800   37.6060 C   0  0  0  0  0  0  0  0  0  0  0  0
   19.9470  -28.0570   36.9880 O   0  0  0  0  0  0  0  0  0  0  0  0
   20.7240  -28.2550   40.8300 C   0  0  0  0  0  0  0  0  0  0  0  0
   20.8210  -27.1980   41.7590 C   0  0  0  0  0  0  0  0  0  0  0  0
   21.9910  -27.1760   42.7150 C   0  0  0  0  0  0  0  0  0  0  0  0
   21.7640  -27.8800   43.8590 F   0  0  0  0  0  0  0  0  0  0  0  0
   23.1360  -27.7030   42.1890 F   0  0  0  0  0  0  0  0  0  0  0  0
   19.9180  -22.6054   43.8111 H   0  0  0  0  0  0  0  0  0  0  0  0
   21.0201  -22.4129   42.4058 H   0  0  0  0  0  0  0  0  0  0  0  0
   19.4153  -21.6059   42.4058 H   0  0  0  0  0  0  0  0  0  0  0  0
   18.2582  -23.6798   42.1696 H   0  0  0  0  0  0  0  0  0  0  0  0
   19.6429  -23.7422   41.0042 H   0  0  0  0  0  0  0  0  0  0  0  0
   20.8836  -24.8636   43.0688 H   0  0  0  0  0  0  0  0  0  0  0  0
   19.1809  -25.2664   43.5497 H   0  0  0  0  0  0  0  0  0  0  0  0
   18.0217  -25.4758   40.8031 H   0  0  0  0  0  0  0  0  0  0  0  0
   17.8863  -27.3479   39.1791 H   0  0  0  0  0  0  0  0  0  0  0  0
   19.0269  -33.0482   40.5021 H   0  0  0  0  0  0  0  0  0  0  0  0
   18.8791  -35.1601   39.1797 H   0  0  0  0  0  0  0  0  0  0  0  0
   19.1043  -35.0967   36.6944 H   0  0  0  0  0  0  0  0  0  0  0  0
   20.3140  -33.2040   34.8710 H   0  0  0  0  0  0  0  0  0  0  0  0
   19.9400  -27.9980   36.0540 H   0  0  0  0  0  0  0  0  0  0  0  0
   21.4940  -29.0406   40.8313 H   0  0  0  0  0  0  0  0  0  0  0  0
   22.1111  -26.1026   42.9234 H   0  0  0  0  0  0  0  0  0  0  0  0
  1  2  1  0
  2  3  1  0
  3  4  1  0
  4  5  2  0
  5  6  1  0
  6  7  2  0
  7  8  1  0
  8  9  1  0
  9 10  1  0
 10 11  2  0
 11 12  1  0
 12 13  2  0
 13 14  1  0
 14 15  1  0
 14 16  2  0
 16 17  1  0
 17 18  2  0
 17 19  1  0
 19 20  1  0
  7 21  1  0
 21 22  2  0
 22 23  1  0
 23 24  1  0
 23 25  1  0
 22  4  1  0
 19  8  2  0
 16 10  1  0
  1 26  1  0
  1 27  1  0
  1 28  1  0
  2 29  1  0
  2 30  1  0
  3 31  1  0
  3 32  1  0
  5 33  1  0
  6 34  1  0
 11 35  1  0
 12 36  1  0
 13 37  1  0
 15 38  1  0
 20 39  1  0
 21 40  1  0
 23 41  1  0
M  END
>  <meeko>  (5) 
{"is_sidechain": [false], "free_energy": -7.142, "intermolecular_energy": -9.328, "internal_energy": -0.654}

$$$$
cand_044_out
     RDKit          3D

 41 43  0  0  0  0  0  0  0  0999 V2000
   19.2330  -23.4890   42.6490 C   0  0  0  0  0  0  0  0  0  0  0  0
   19.6090  -24.8240   42.0250 C   0  0  0  0  0  0  0  0  0  0  0  0
   19.5160  -24.7730   40.4990 C   0  0  0  0  0  0  0  0  0  0  0  0
   19.4790  -26.1590   39.8900 C   0  0  0  0  0  0  0  0  0  0  0  0
   20.0280  -27.2220   40.6250 C   0  0  0  0  0  0  0  0  0  0  0  0
   20.0420  -28.5210   40.1130 C   0  0  0  0  0  0  0  0  0  0  0  0
   19.5160  -28.7950   38.8470 C   0  0  0  0  0  0  0  0  0  0  0  0
   19.4950  -30.1660   38.2910 C   0  0  0  0  0  0  0  0  0  0  0  0
   19.0630  -31.1150   39.2120 O   0  0  0  0  0  0  0  0  0  0  0  0
   18.9910  -32.4280   38.8260 C   0  0  0  0  0  0  0  0  0  0  0  0
   18.5620  -33.3480   39.7840 C   0  0  0  0  0  0  0  0  0  0  0  0
   18.4650  -34.7020   39.4550 C   0  0  0  0  0  0  0  0  0  0  0  0
   18.7940  -35.1360   38.1710 C   0  0  0  0  0  0  0  0  0  0  0  0
   19.2210  -34.2160   37.2160 C   0  0  0  0  0  0  0  0  0  0  0  0
   19.5270  -34.7090   35.9770 O   0  0  0  0  0  0  0  0  0  0  0  0
   19.3190  -32.8620   37.5450 C   0  0  0  0  0  0  0  0  0  0  0  0
   19.7610  -31.8620   36.5720 C   0  0  0  0  0  0  0  0  0  0  0  0
   20.0630  -32.1650   35.4190 O   0  0  0  0  0  0  0  0  0  0  0  0
   19.8350  -30.4530   37.0220 C   0  0  0  0  0  0  0  0  0  0  0  0
   20.2400  -29.5160   36.0890 O   0  0  0  0  0  0  0  0  0  0  0  0
   18.9620  -27.7350   38.1140 C   0  0  0  0  0  0  0  0  0  0  0  0
   18.9410  -26.4160   38.6120 C   0  0  0  0  0  0  0  0  0  0  0  0
   18.3130  -25.3290   37.7690 C   0  0  0  0  0  0  0  0  0  0  0  0
   19.2110  -24.6730   36.9820 F   0  0  0  0  0  0  0  0  0  0  0  0
   17.3530  -25.7890   36.9140 F   0  0  0  0  0  0  0  0  0  0  0  0
   19.2577  -23.5767   43.7452 H   0  0  0  0  0  0  0  0  0  0  0  0
   19.9492  -22.7189   42.3266 H   0  0  0  0  0  0  0  0  0  0  0  0
   18.2202  -23.2058   42.3266 H   0  0  0  0  0  0  0  0  0  0  0  0
   20.6406  -25.0755   42.3124 H   0  0  0  0  0  0  0  0  0  0  0  0
   18.9052  -25.5868   42.3893 H   0  0  0  0  0  0  0  0  0  0  0  0
   18.5989  -24.2355   40.2162 H   0  0  0  0  0  0  0  0  0  0  0  0
   20.4104  -24.2571   40.1195 H   0  0  0  0  0  0  0  0  0  0  0  0
   20.4540  -27.0283   41.6205 H   0  0  0  0  0  0  0  0  0  0  0  0
   20.4715  -29.3374   40.7122 H   0  0  0  0  0  0  0  0  0  0  0  0
   18.3007  -33.0072   40.7967 H   0  0  0  0  0  0  0  0  0  0  0  0
   18.1284  -35.4276   40.2102 H   0  0  0  0  0  0  0  0  0  0  0  0
   18.7165  -36.2025   37.9129 H   0  0  0  0  0  0  0  0  0  0  0  0
   18.8680  -34.7450   35.3110 H   0  0  0  0  0  0  0  0  0  0  0  0
   20.6150  -28.7050   36.3710 H   0  0  0  0  0  0  0  0  0  0  0  0
   18.5317  -27.9386   37.1224 H   0  0  0  0  0  0  0  0  0  0  0  0
   17.8789  -24.6577   38.5246 H   0  0  0  0  0  0  0  0  0  0  0  0
  1  2  1  0
  2  3  1  0
  3  4  1  0
  4  5  2  0
  5  6  1  0
  6  7  2  0
  7  8  1  0
  8  9  1  0
  9 10  1  0
 10 11  2  0
 11 12  1  0
 12 13  2  0
 13 14  1  0
 14 15  1  0
 14 16  2  0
 16 17  1  0
 17 18  2  0
 17 19  1  0
 19 20  1  0
  7 21  1  0
 21 22  2  0
 22 23  1  0
 23 24  1  0
 23 25  1  0
 22  4  1  0
 19  8  2  0
 16 10  1  0
  1 26  1  0
  1 27  1  0
  1 28  1  0
  2 29  1  0
  2 30  1  0
  3 31  1  0
  3 32  1  0
  5 33  1  0
  6 34  1  0
 11 35  1  0
 12 36  1  0
 13 37  1  0
 15 38  1  0
 20 39  1  0
 21 40  1  0
 23 41  1  0
M  END
>  <meeko>  (6) 
{"is_sidechain": [false], "free_energy": -7.131, "intermolecular_energy": -9.554, "internal_energy": -0.412}

$$$$
cand_044_out
     RDKit          3D

 41 43  0  0  0  0  0  0  0  0999 V2000
   19.9710  -26.4590   42.4870 C   0  0  0  0  0  0  0  0  0  0  0  0
   19.9110  -25.8210   41.1080 C   0  0  0  0  0  0  0  0  0  0  0  0
   18.6410  -26.2280   40.3590 C   0  0  0  0  0  0  0  0  0  0  0  0
   18.9350  -27.2040   39.2390 C   0  0  0  0  0  0  0  0  0  0  0  0
   19.0660  -28.5650   39.5620 C   0  0  0  0  0  0  0  0  0  0  0  0
   19.3550  -29.5140   38.5790 C   0  0  0  0  0  0  0  0  0  0  0  0
   19.5320  -29.1310   37.2470 C   0  0  0  0  0  0  0  0  0  0  0  0
   19.8130  -30.1180   36.1820 C   0  0  0  0  0  0  0  0  0  0  0  0
   19.5310  -31.4240   36.5690 O   0  0  0  0  0  0  0  0  0  0  0  0
   19.7420  -32.4410   35.6730 C   0  0  0  0  0  0  0  0  0  0  0  0
   19.4540  -33.7360   36.1070 C   0  0  0  0  0  0  0  0  0  0  0  0
   19.6460  -34.8180   35.2440 C   0  0  0  0  0  0  0  0  0  0  0  0
   20.1240  -34.6050   33.9500 C   0  0  0  0  0  0  0  0  0  0  0  0
   20.4090  -33.3110   33.5200 C   0  0  0  0  0  0  0  0  0  0  0  0
   20.8740  -33.1740   32.2400 O   0  0  0  0  0  0  0  0  0  0  0  0
   20.2180  -32.2300   34.3830 C   0  0  0  0  0  0  0  0  0  0  0  0
   20.5040  -30.8550   33.9710 C   0  0  0  0  0  0  0  0  0  0  0  0
   20.9210  -30.5860   32.8470 O   0  0  0  0  0  0  0  0  0  0  0  0
   20.2720  -29.7800   34.9630 C   0  0  0  0  0  0  0  0  0  0  0  0
   20.5310  -28.4840   34.5570 O   0  0  0  0  0  0  0  0  0  0  0  0
   19.3960  -27.7730   36.9220 C   0  0  0  0  0  0  0  0  0  0  0  0
   19.1070  -26.7980   37.9000 C   0  0  0  0  0  0  0  0  0  0  0  0
   18.9620  -25.3560   37.4690 C   0  0  0  0  0  0  0  0  0  0  0  0
   20.0680  -24.6040   37.7270 F   0  0  0  0  0  0  0  0  0  0  0  0
   18.7280  -25.2070   36.1330 F   0  0  0  0  0  0  0  0  0  0  0  0
   19.8974  -25.6765   43.2566 H   0  0  0  0  0  0  0  0  0  0  0  0
   19.1353  -27.1651   42.6010 H   0  0  0  0  0  0  0  0  0  0  0  0
   20.9237  -26.9969   42.6010 H   0  0  0  0  0  0  0  0  0  0  0  0
   19.9257  -24.7267   41.2191 H   0  0  0  0  0  0  0  0  0  0  0  0
   20.7800  -26.1665   40.5288 H   0  0  0  0  0  0  0  0  0  0  0  0
   17.9453  -26.6998   41.0685 H   0  0  0  0  0  0  0  0  0  0  0  0
   18.2013  -25.3224   39.9157 H   0  0  0  0  0  0  0  0  0  0  0  0
   18.9389  -28.8883   40.6057 H   0  0  0  0  0  0  0  0  0  0  0  0
   19.4443  -30.5747   38.8564 H   0  0  0  0  0  0  0  0  0  0  0  0
   19.0766  -33.9044   37.1264 H   0  0  0  0  0  0  0  0  0  0  0  0
   19.4201  -35.8392   35.5849 H   0  0  0  0  0  0  0  0  0  0  0  0
   20.2753  -35.4572   33.2712 H   0  0  0  0  0  0  0  0  0  0  0  0
   21.7680  -33.3740   32.0420 H   0  0  0  0  0  0  0  0  0  0  0  0
   21.2730  -28.3010   34.0160 H   0  0  0  0  0  0  0  0  0  0  0  0
   19.5182  -27.4594   35.8747 H   0  0  0  0  0  0  0  0  0  0  0  0
   18.0997  -25.0136   38.0599 H   0  0  0  0  0  0  0  0  0  0  0  0
  1  2  1  0
  2  3  1  0
  3  4  1  0
  4  5  2  0
  5  6  1  0
  6  7  2  0
  7  8  1  0
  8  9  1  0
  9 10  1  0
 10 11  2  0
 11 12  1  0
 12 13  2  0
 13 14  1  0
 14 15  1  0
 14 16  2  0
 16 17  1  0
 17 18  2  0
 17 19  1  0
 19 20  1  0
  7 21  1  0
 21 22  2  0
 22 23  1  0
 23 24  1  0
 23 25  1  0
 22  4  1  0
 19  8  2  0
 16 10  1  0
  1 26  1  0
  1 27  1  0
  1 28  1  0
  2 29  1  0
  2 30  1  0
  3 31  1  0
  3 32  1  0
  5 33  1  0
  6 34  1  0
 11 35  1  0
 12 36  1  0
 13 37  1  0
 15 38  1  0
 20 39  1  0
 21 40  1  0
 23 41  1  0
M  END
>  <meeko>  (7) 
{"is_sidechain": [false], "free_energy": -6.962, "intermolecular_energy": -9.532, "internal_energy": -0.217}

$$$$
cand_044_out
     RDKit          3D

 41 43  0  0  0  0  0  0  0  0999 V2000
   18.1690  -26.5060   34.1160 C   0  0  0  0  0  0  0  0  0  0  0  0
   18.6670  -27.4010   35.2400 C   0  0  0  0  0  0  0  0  0  0  0  0
   17.8370  -27.2160   36.5120 C   0  0  0  0  0  0  0  0  0  0  0  0
   18.7030  -27.1910   37.7520 C   0  0  0  0  0  0  0  0  0  0  0  0
   18.8970  -28.3930   38.4520 C   0  0  0  0  0  0  0  0  0  0  0  0
   19.6710  -28.4350   39.6140 C   0  0  0  0  0  0  0  0  0  0  0  0
   20.2640  -27.2750   40.1180 C   0  0  0  0  0  0  0  0  0  0  0  0
   21.1090  -27.2950   41.3320 C   0  0  0  0  0  0  0  0  0  0  0  0
   22.1060  -28.2640   41.2800 O   0  0  0  0  0  0  0  0  0  0  0  0
   22.9660  -28.3880   42.3410 C   0  0  0  0  0  0  0  0  0  0  0  0
   23.9440  -29.3780   42.2510 C   0  0  0  0  0  0  0  0  0  0  0  0
   24.8530  -29.5570   43.2960 C   0  0  0  0  0  0  0  0  0  0  0  0
   24.7840  -28.7470   44.4300 C   0  0  0  0  0  0  0  0  0  0  0  0
   23.8060  -27.7580   44.5180 C   0  0  0  0  0  0  0  0  0  0  0  0
   23.7950  -26.9990   45.6560 O   0  0  0  0  0  0  0  0  0  0  0  0
   22.8980  -27.5800   43.4720 C   0  0  0  0  0  0  0  0  0  0  0  0
   21.8560  -26.5520   43.5220 C   0  0  0  0  0  0  0  0  0  0  0  0
   21.7350  -25.7950   44.4840 O   0  0  0  0  0  0  0  0  0  0  0  0
   20.9400  -26.4480   42.3640 C   0  0  0  0  0  0  0  0  0  0  0  0
   19.9700  -25.4630   42.4160 O   0  0  0  0  0  0  0  0  0  0  0  0
   20.0760  -26.0730   39.4180 C   0  0  0  0  0  0  0  0  0  0  0  0
   19.2970  -26.0100   38.2440 C   0  0  0  0  0  0  0  0  0  0  0  0
   19.1530  -24.6810   37.5370 C   0  0  0  0  0  0  0  0  0  0  0  0
   17.9210  -24.1190   37.6950 F   0  0  0  0  0  0  0  0  0  0  0  0
   20.0380  -23.7360   37.9680 F   0  0  0  0  0  0  0  0  0  0  0  0
   17.6762  -25.6203   34.5435 H   0  0  0  0  0  0  0  0  0  0  0  0
   19.0201  -26.1884   33.4957 H   0  0  0  0  0  0  0  0  0  0  0  0
   17.4505  -27.0618   33.4957 H   0  0  0  0  0  0  0  0  0  0  0  0
   18.5991  -28.4507   34.9181 H   0  0  0  0  0  0  0  0  0  0  0  0
   19.7086  -27.1273   35.4641 H   0  0  0  0  0  0  0  0  0  0  0  0
   17.2874  -26.2657   36.4429 H   0  0  0  0  0  0  0  0  0  0  0  0
   17.1466  -28.0683   36.5955 H   0  0  0  0  0  0  0  0  0  0  0  0
   18.4315  -29.3171   38.0788 H   0  0  0  0  0  0  0  0  0  0  0  0
   19.8151  -29.3916   40.1377 H   0  0  0  0  0  0  0  0  0  0  0  0
   23.9994  -30.0174   41.3576 H   0  0  0  0  0  0  0  0  0  0  0  0
   25.6246  -30.3378   43.2250 H   0  0  0  0  0  0  0  0  0  0  0  0
   25.5001  -28.8887   45.2529 H   0  0  0  0  0  0  0  0  0  0  0  0
   23.9690  -26.0790   45.6070 H   0  0  0  0  0  0  0  0  0  0  0  0
   20.2100  -24.5630   42.3210 H   0  0  0  0  0  0  0  0  0  0  0  0
   20.5494  -25.1547   39.7956 H   0  0  0  0  0  0  0  0  0  0  0  0
   19.3399  -24.9451   36.4857 H   0  0  0  0  0  0  0  0  0  0  0  0
  1  2  1  0
  2  3  1  0
  3  4  1  0
  4  5  2  0
  5  6  1  0
  6  7  2  0
  7  8  1  0
  8  9  1  0
  9 10  1  0
 10 11  2  0
 11 12  1  0
 12 13  2  0
 13 14  1  0
 14 15  1  0
 14 16  2  0
 16 17  1  0
 17 18  2  0
 17 19  1  0
 19 20  1  0
  7 21  1  0
 21 22  2  0
 22 23  1  0
 23 24  1  0
 23 25  1  0
 22  4  1  0
 19  8  2  0
 16 10  1  0
  1 26  1  0
  1 27  1  0
  1 28  1  0
  2 29  1  0
  2 30  1  0
  3 31  1  0
  3 32  1  0
  5 33  1  0
  6 34  1  0
 11 35  1  0
 12 36  1  0
 13 37  1  0
 15 38  1  0
 20 39  1  0
 21 40  1  0
 23 41  1  0
M  END
>  <meeko>  (8) 
{"is_sidechain": [false], "free_energy": -6.953, "intermolecular_energy": -9.198, "internal_energy": -0.538}

$$$$
cand_044_out
     RDKit          3D

 41 43  0  0  0  0  0  0  0  0999 V2000
   19.8450  -25.3960   49.3380 C   0  0  0  0  0  0  0  0  0  0  0  0
   20.8300  -24.3140   48.9240 C   0  0  0  0  0  0  0  0  0  0  0  0
   20.1810  -23.2990   47.9810 C   0  0  0  0  0  0  0  0  0  0  0  0
   20.1180  -23.8110   46.5580 C   0  0  0  0  0  0  0  0  0  0  0  0
   21.2170  -24.5310   46.0610 C   0  0  0  0  0  0  0  0  0  0  0  0
   21.2300  -25.0160   44.7520 C   0  0  0  0  0  0  0  0  0  0  0  0
   20.1500  -24.7860   43.8950 C   0  0  0  0  0  0  0  0  0  0  0  0
   20.1270  -25.3090   42.5120 C   0  0  0  0  0  0  0  0  0  0  0  0
   19.7840  -24.3400   41.5740 O   0  0  0  0  0  0  0  0  0  0  0  0
   19.7300  -24.6900   40.2490 C   0  0  0  0  0  0  0  0  0  0  0  0
   19.3740  -23.6890   39.3450 C   0  0  0  0  0  0  0  0  0  0  0  0
   19.3000  -23.9780   37.9800 C   0  0  0  0  0  0  0  0  0  0  0  0
   19.5830  -25.2650   37.5210 C   0  0  0  0  0  0  0  0  0  0  0  0
   19.9400  -26.2620   38.4260 C   0  0  0  0  0  0  0  0  0  0  0  0
   20.2050  -27.5000   37.9090 O   0  0  0  0  0  0  0  0  0  0  0  0
   20.0130  -25.9720   39.7910 C   0  0  0  0  0  0  0  0  0  0  0  0
   20.3840  -26.9900   40.7750 C   0  0  0  0  0  0  0  0  0  0  0  0
   20.6540  -28.1440   40.4490 O   0  0  0  0  0  0  0  0  0  0  0  0
   20.4280  -26.5830   42.1990 C   0  0  0  0  0  0  0  0  0  0  0  0
   20.7950  -27.5490   43.1180 O   0  0  0  0  0  0  0  0  0  0  0  0
   19.0480  -24.0720   44.3910 C   0  0  0  0  0  0  0  0  0  0  0  0
   19.0170  -23.5720   45.7090 C   0  0  0  0  0  0  0  0  0  0  0  0
   17.7890  -22.8240   46.1750 C   0  0  0  0  0  0  0  0  0  0  0  0
   17.7760  -21.5170   45.7900 F   0  0  0  0  0  0  0  0  0  0  0  0
   16.6190  -23.3490   45.7040 F   0  0  0  0  0  0  0  0  0  0  0  0
   19.7976  -25.4481   50.4357 H   0  0  0  0  0  0  0  0  0  0  0  0
   18.8483  -25.1567   48.9389 H   0  0  0  0  0  0  0  0  0  0  0  0
   20.1766  -26.3659   48.9389 H   0  0  0  0  0  0  0  0  0  0  0  0
   21.1853  -23.7903   49.8237 H   0  0  0  0  0  0  0  0  0  0  0  0
   21.6671  -24.7924   48.3944 H   0  0  0  0  0  0  0  0  0  0  0  0
   19.1586  -23.0922   48.3302 H   0  0  0  0  0  0  0  0  0  0  0  0
   20.7946  -22.3861   47.9881 H   0  0  0  0  0  0  0  0  0  0  0  0
   22.0823  -24.7159   46.7145 H   0  0  0  0  0  0  0  0  0  0  0  0
   22.0994  -25.5852   44.3912 H   0  0  0  0  0  0  0  0  0  0  0  0
   19.1519  -22.6740   39.7061 H   0  0  0  0  0  0  0  0  0  0  0  0
   19.0183  -23.1899   37.2662 H   0  0  0  0  0  0  0  0  0  0  0  0
   19.5243  -25.4919   36.4463 H   0  0  0  0  0  0  0  0  0  0  0  0
   19.5030  -28.0990   37.7420 H   0  0  0  0  0  0  0  0  0  0  0  0
   21.1770  -27.2970   43.9350 H   0  0  0  0  0  0  0  0  0  0  0  0
   18.1841  -23.8976   43.7328 H   0  0  0  0  0  0  0  0  0  0  0  0
   17.8516  -22.9176   47.2692 H   0  0  0  0  0  0  0  0  0  0  0  0
  1  2  1  0
  2  3  1  0
  3  4  1  0
  4  5  2  0
  5  6  1  0
  6  7  2  0
  7  8  1  0
  8  9  1  0
  9 10  1  0
 10 11  2  0
 11 12  1  0
 12 13  2  0
 13 14  1  0
 14 15  1  0
 14 16  2  0
 16 17  1  0
 17 18  2  0
 17 19  1  0
 19 20  1  0
  7 21  1  0
 21 22  2  0
 22 23  1  0
 23 24  1  0
 23 25  1  0
 22  4  1  0
 19  8  2  0
 16 10  1  0
  1 26  1  0
  1 27  1  0
  1 28  1  0
  2 29  1  0
  2 30  1  0
  3 31  1  0
  3 32  1  0
  5 33  1  0
  6 34  1  0
 11 35  1  0
 12 36  1  0
 13 37  1  0
 15 38  1  0
 20 39  1  0
 21 40  1  0
 23 41  1  0
M  END
>  <meeko>  (9) 
{"is_sidechain": [false], "free_energy": -6.786, "intermolecular_energy": -8.956, "internal_energy": -0.565}

$$$$
