cand_052_out
     RDKit          3D

 44 46  0  0  0  0  0  0  0  0999 V2000
   20.8470  -34.6210   32.9700 C   0  0  0  0  0  0  0  0  0  0  0  0
   20.1280  -34.9440   34.2710 C   0  0  0  0  0  0  0  0  0  0  0  0
   19.6880  -33.6730   34.9980 C   0  0  0  0  0  0  0  0  0  0  0  0
   19.5540  -33.9150   36.5040 C   0  0  0  0  0  0  0  0  0  0  0  0
   19.4290  -32.6160   37.2720 C   0  0  0  0  0  0  0  0  0  0  0  0
   19.8230  -31.4260   36.6400 C   0  0  0  0  0  0  0  0  0  0  0  0
   19.7390  -30.1980   37.2990 C   0  0  0  0  0  0  0  0  0  0  0  0
   19.2540  -30.1230   38.6080 C   0  0  0  0  0  0  0  0  0  0  0  0
   19.1770  -28.8400   39.3370 C   0  0  0  0  0  0  0  0  0  0  0  0
   20.0650  -28.7720   40.4050 O   0  0  0  0  0  0  0  0  0  0  0  0
   20.0990  -27.6340   41.1690 C   0  0  0  0  0  0  0  0  0  0  0  0
   21.0140  -27.6040   42.2210 C   0  0  0  0  0  0  0  0  0  0  0  0
   21.0990  -26.4740   43.0400 C   0  0  0  0  0  0  0  0  0  0  0  0
   20.2670  -25.3780   42.8070 C   0  0  0  0  0  0  0  0  0  0  0  0
   19.3540  -25.4110   41.7560 C   0  0  0  0  0  0  0  0  0  0  0  0
   18.5690  -24.3030   41.5840 O   0  0  0  0  0  0  0  0  0  0  0  0
   19.2700  -26.5400   40.9370 C   0  0  0  0  0  0  0  0  0  0  0  0
   18.3250  -26.6160   39.8230 C   0  0  0  0  0  0  0  0  0  0  0  0
   17.5550  -25.6940   39.5580 O   0  0  0  0  0  0  0  0  0  0  0  0
   18.3210  -27.8550   39.0100 C   0  0  0  0  0  0  0  0  0  0  0  0
   17.4140  -27.9200   37.9680 O   0  0  0  0  0  0  0  0  0  0  0  0
   18.8740  -31.3140   39.2450 C   0  0  0  0  0  0  0  0  0  0  0  0
   18.9590  -32.5610   38.5980 C   0  0  0  0  0  0  0  0  0  0  0  0
   18.5160  -33.7950   39.3380 C   0  0  0  0  0  0  0  0  0  0  0  0
   21.8294  -34.1797   33.1938 H   0  0  0  0  0  0  0  0  0  0  0  0
   20.9838  -35.5442   32.3877 H   0  0  0  0  0  0  0  0  0  0  0  0
   20.2477  -33.9056   32.3877 H   0  0  0  0  0  0  0  0  0  0  0  0
   19.2400  -35.5533   34.0470 H   0  0  0  0  0  0  0  0  0  0  0  0
   20.8240  -35.4916   34.9234 H   0  0  0  0  0  0  0  0  0  0  0  0
   20.4354  -32.8844   34.8264 H   0  0  0  0  0  0  0  0  0  0  0  0
   18.7065  -33.3690   34.6053 H   0  0  0  0  0  0  0  0  0  0  0  0
   18.6578  -34.5256   36.6884 H   0  0  0  0  0  0  0  0  0  0  0  0
   20.4615  -34.4315   36.8500 H   0  0  0  0  0  0  0  0  0  0  0  0
   20.2041  -31.4616   35.6088 H   0  0  0  0  0  0  0  0  0  0  0  0
   20.0577  -29.2803   36.7830 H   0  0  0  0  0  0  0  0  0  0  0  0
   21.6683  -28.4686   42.4063 H   0  0  0  0  0  0  0  0  0  0  0  0
   21.8221  -26.4488   43.8685 H   0  0  0  0  0  0  0  0  0  0  0  0
   20.3323  -24.4896   43.4524 H   0  0  0  0  0  0  0  0  0  0  0  0
   18.3810  -23.9910   40.7220 H   0  0  0  0  0  0  0  0  0  0  0  0
   17.0590  -28.7480   37.7090 H   0  0  0  0  0  0  0  0  0  0  0  0
   18.4994  -31.2720   40.2784 H   0  0  0  0  0  0  0  0  0  0  0  0
   18.5803  -33.6158   40.4214 H   0  0  0  0  0  0  0  0  0  0  0  0
   17.4767  -34.0320   39.0666 H   0  0  0  0  0  0  0  0  0  0  0  0
   19.1673  -34.6389   39.0666 H   0  0  0  0  0  0  0  0  0  0  0  0
  1  2  1  0
  2  3  1  0
  3  4  1  0
  4  5  1  0
  5  6  2  0
  6  7  1  0
  7  8  2  0
  8  9  1  0
  9 10  1  0
 10 11  1  0
 11 12  2  0
 12 13  1  0
 13 14  2  0
 14 15  1  0
 15 16  1  0
 15 17  2  0
 17 18  1  0
 18 19  2  0
 18 20  1  0
 20 21  1  0
  8 22  1  0
 22 23  2  0
 23 24  1  0
 23  5  1  0
 20  9  2  0
 17 11  1  0
  1 25  1  0
  1 26  1  0
  1 27  1  0
  2 28  1  0
  2 29  1  0
  3 30  1  0
  3 31  1  0
  4 32  1  0
  4 33  1  0
  6 34  1  0
  7 35  1  0
 12 36  1  0
 13 37  1  0
 14 38  1  0
 16 39  1  0
 21 40  1  0
 22 41  1  0
 24 42  1  0
 24 43  1  0
 24 44  1  0
M  END
>  <meeko>  (1) 
{"is_sidechain": [false], "free_energy": -7.976, "intermolecular_energy": -10.307, "internal_energy": -0.521}

$$$$
cand_052_out
     RDKit          3D

 44 46  0  0  0  0  0  0  0  0999 V2000
   19.2910  -23.4350   38.1770 C   0  0  0  0  0  0  0  0  0  0  0  0
   19.2090  -23.1080   39.6600 C   0  0  0  0  0  0  0  0  0  0  0  0
   19.9830  -24.1240   40.5010 C   0  0  0  0  0  0  0  0  0  0  0  0
   19.0430  -25.1590   41.1240 C   0  0  0  0  0  0  0  0  0  0  0  0
   19.1550  -26.5030   40.4370 C   0  0  0  0  0  0  0  0  0  0  0  0
   18.2650  -26.7960   39.3930 C   0  0  0  0  0  0  0  0  0  0  0  0
   18.3130  -28.0230   38.7270 C   0  0  0  0  0  0  0  0  0  0  0  0
   19.2570  -28.9910   39.0840 C   0  0  0  0  0  0  0  0  0  0  0  0
   19.3160  -30.3060   38.4120 C   0  0  0  0  0  0  0  0  0  0  0  0
   18.8980  -31.3490   39.2310 O   0  0  0  0  0  0  0  0  0  0  0  0
   18.9000  -32.6270   38.7330 C   0  0  0  0  0  0  0  0  0  0  0  0
   18.4600  -33.6400   39.5850 C   0  0  0  0  0  0  0  0  0  0  0  0
   18.4400  -34.9650   39.1400 C   0  0  0  0  0  0  0  0  0  0  0  0
   18.8610  -35.2740   37.8450 C   0  0  0  0  0  0  0  0  0  0  0  0
   19.3000  -34.2610   36.9980 C   0  0  0  0  0  0  0  0  0  0  0  0
   19.6990  -34.6350   35.7430 O   0  0  0  0  0  0  0  0  0  0  0  0
   19.3200  -32.9360   37.4430 C   0  0  0  0  0  0  0  0  0  0  0  0
   19.7730  -31.8420   36.5840 C   0  0  0  0  0  0  0  0  0  0  0  0
   20.1650  -32.0350   35.4340 O   0  0  0  0  0  0  0  0  0  0  0  0
   19.7470  -30.4720   37.1490 C   0  0  0  0  0  0  0  0  0  0  0  0
   20.1920  -29.4470   36.3330 O   0  0  0  0  0  0  0  0  0  0  0  0
   20.1380  -28.7040   40.1380 C   0  0  0  0  0  0  0  0  0  0  0  0
   20.0980  -27.4760   40.8240 C   0  0  0  0  0  0  0  0  0  0  0  0
   21.0850  -27.2310   41.9330 C   0  0  0  0  0  0  0  0  0  0  0  0
   19.5568  -24.4948   38.0493 H   0  0  0  0  0  0  0  0  0  0  0  0
   18.3166  -23.2418   37.7045 H   0  0  0  0  0  0  0  0  0  0  0  0
   20.0590  -22.8049   37.7045 H   0  0  0  0  0  0  0  0  0  0  0  0
   19.6325  -22.1070   39.8294 H   0  0  0  0  0  0  0  0  0  0  0  0
   18.1522  -23.1422   39.9633 H   0  0  0  0  0  0  0  0  0  0  0  0
   20.7107  -24.6413   39.8585 H   0  0  0  0  0  0  0  0  0  0  0  0
   20.4949  -23.5860   41.3125 H   0  0  0  0  0  0  0  0  0  0  0  0
   19.2998  -25.2795   42.1868 H   0  0  0  0  0  0  0  0  0  0  0  0
   18.0103  -24.7989   41.0060 H   0  0  0  0  0  0  0  0  0  0  0  0
   17.5169  -26.0471   39.0938 H   0  0  0  0  0  0  0  0  0  0  0  0
   17.6015  -28.2297   37.9140 H   0  0  0  0  0  0  0  0  0  0  0  0
   18.1293  -33.3966   40.6055 H   0  0  0  0  0  0  0  0  0  0  0  0
   18.0924  -35.7648   39.8105 H   0  0  0  0  0  0  0  0  0  0  0  0
   18.8456  -36.3167   37.4949 H   0  0  0  0  0  0  0  0  0  0  0  0
   19.5750  -35.5170   35.4550 H   0  0  0  0  0  0  0  0  0  0  0  0
   19.6190  -28.7370   36.1200 H   0  0  0  0  0  0  0  0  0  0  0  0
   20.8799  -29.4595   40.4360 H   0  0  0  0  0  0  0  0  0  0  0  0
   20.5837  -27.3554   42.9042 H   0  0  0  0  0  0  0  0  0  0  0  0
   21.9128  -27.9509   41.8528 H   0  0  0  0  0  0  0  0  0  0  0  0
   21.4801  -26.2075   41.8528 H   0  0  0  0  0  0  0  0  0  0  0  0
  1  2  1  0
  2  3  1  0
  3  4  1  0
  4  5  1  0
  5  6  2  0
  6  7  1  0
  7  8  2  0
  8  9  1  0
  9 10  1  0
 10 11  1  0
 11 12  2  0
 12 13  1  0
 13 14  2  0
 14 15  1  0
 15 16  1  0
 15 17  2  0
 17 18  1  0
 18 19  2  0
 18 20  1  0
 20 21  1  0
  8 22  1  0
 22 23  2  0
 23 24  1  0
 23  5  1  0
 20  9  2  0
 17 11  1  0
  1 25  1  0
  1 26  1  0
  1 27  1  0
  2 28  1  0
  2 29  1  0
  3 30  1  0
  3 31  1  0
  4 32  1  0
  4 33  1  0
  6 34  1  0
  7 35  1  0
 12 36  1  0
 13 37  1  0
 14 38  1  0
 16 39  1  0
 21 40  1  0
 22 41  1  0
 24 42  1  0
 24 43  1  0
 24 44  1  0
M  END
>  <meeko>  (2) 
{"is_sidechain": [false], "free_energy": -7.817, "intermolecular_energy": -9.893, "internal_energy": -0.73}

$$$$
cand_052_out
     RDKit          3D

 44 46  0  0  0  0  0  0  0  0999 V2000
   20.7730  -34.7320   33.0340 C   0  0  0  0  0  0  0  0  0  0  0  0
   20.1330  -35.2240   34.3220 C   0  0  0  0  0  0  0  0  0  0  0  0
   19.6640  -34.0600   35.1960 C   0  0  0  0  0  0  0  0  0  0  0  0
   20.1140  -32.7160   34.6160 C   0  0  0  0  0  0  0  0  0  0  0  0
   19.9560  -31.5920   35.6170 C   0  0  0  0  0  0  0  0  0  0  0  0
   19.6890  -31.9230   36.9550 C   0  0  0  0  0  0  0  0  0  0  0  0
   19.5240  -30.9300   37.9240 C   0  0  0  0  0  0  0  0  0  0  0  0
   19.6260  -29.5780   37.5830 C   0  0  0  0  0  0  0  0  0  0  0  0
   19.4330  -28.5060   38.5830 C   0  0  0  0  0  0  0  0  0  0  0  0
   20.3520  -28.5690   39.6250 O   0  0  0  0  0  0  0  0  0  0  0  0
   20.2880  -27.6320   40.6240 C   0  0  0  0  0  0  0  0  0  0  0  0
   21.2380  -27.7250   41.6410 C   0  0  0  0  0  0  0  0  0  0  0  0
   21.2270  -26.8020   42.6910 C   0  0  0  0  0  0  0  0  0  0  0  0
   20.2670  -25.7890   42.7220 C   0  0  0  0  0  0  0  0  0  0  0  0
   19.3200  -25.6990   41.7050 C   0  0  0  0  0  0  0  0  0  0  0  0
   18.4080  -24.6840   41.7980 O   0  0  0  0  0  0  0  0  0  0  0  0
   19.3310  -26.6220   40.6550 C   0  0  0  0  0  0  0  0  0  0  0  0
   18.3540  -26.5630   39.5670 C   0  0  0  0  0  0  0  0  0  0  0  0
   17.4740  -25.7050   39.5280 O   0  0  0  0  0  0  0  0  0  0  0  0
   18.4580  -27.5840   38.4980 C   0  0  0  0  0  0  0  0  0  0  0  0
   17.5210  -27.5270   37.4820 O   0  0  0  0  0  0  0  0  0  0  0  0
   19.8780  -29.2470   36.2430 C   0  0  0  0  0  0  0  0  0  0  0  0
   20.0400  -30.2350   35.2530 C   0  0  0  0  0  0  0  0  0  0  0  0
   20.3250  -29.8060   33.8390 C   0  0  0  0  0  0  0  0  0  0  0  0
   21.6241  -34.0777   33.2741 H   0  0  0  0  0  0  0  0  0  0  0  0
   21.1264  -35.5932   32.4479 H   0  0  0  0  0  0  0  0  0  0  0  0
   20.0316  -34.1691   32.4479 H   0  0  0  0  0  0  0  0  0  0  0  0
   19.2671  -35.8549   34.0724 H   0  0  0  0  0  0  0  0  0  0  0  0
   20.8857  -35.7960   34.8844 H   0  0  0  0  0  0  0  0  0  0  0  0
   18.5657  -34.0756   35.2553 H   0  0  0  0  0  0  0  0  0  0  0  0
   20.1079  -34.1742   36.1959 H   0  0  0  0  0  0  0  0  0  0  0  0
   21.1728  -32.7893   34.3268 H   0  0  0  0  0  0  0  0  0  0  0  0
   19.4816  -32.4901   33.7448 H   0  0  0  0  0  0  0  0  0  0  0  0
   19.6084  -32.9810   37.2451 H   0  0  0  0  0  0  0  0  0  0  0  0
   19.3118  -31.2147   38.9651 H   0  0  0  0  0  0  0  0  0  0  0  0
   21.9945  -28.5232   41.6169 H   0  0  0  0  0  0  0  0  0  0  0  0
   21.9757  -26.8741   43.4937 H   0  0  0  0  0  0  0  0  0  0  0  0
   20.2586  -25.0631   43.5484 H   0  0  0  0  0  0  0  0  0  0  0  0
   18.6330  -23.8230   41.5050 H   0  0  0  0  0  0  0  0  0  0  0  0
   16.6140  -27.4130   37.6880 H   0  0  0  0  0  0  0  0  0  0  0  0
   19.9510  -28.1870   35.9582 H   0  0  0  0  0  0  0  0  0  0  0  0
   20.9337  -28.8898   33.8494 H   0  0  0  0  0  0  0  0  0  0  0  0
   20.8729  -30.6043   33.3170 H   0  0  0  0  0  0  0  0  0  0  0  0
   19.3767  -29.6103   33.3170 H   0  0  0  0  0  0  0  0  0  0  0  0
  1  2  1  0
  2  3  1  0
  3  4  1  0
  4  5  1  0
  5  6  2  0
  6  7  1  0
  7  8  2  0
  8  9  1  0
  9 10  1  0
 10 11  1  0
 11 12  2  0
 12 13  1  0
 13 14  2  0
 14 15  1  0
 15 16  1  0
 15 17  2  0
 17 18  1  0
 18 19  2  0
 18 20  1  0
 20 21  1  0
  8 22  1  0
 22 23  2  0
 23 24  1  0
 23  5  1  0
 20  9  2  0
 17 11  1  0
  1 25  1  0
  1 26  1  0
  1 27  1  0
  2 28  1  0
  2 29  1  0
  3 30  1  0
  3 31  1  0
  4 32  1  0
  4 33  1  0
  6 34  1  0
  7 35  1  0
 12 36  1  0
 13 37  1  0
 14 38  1  0
 16 39  1  0
 21 40  1  0
 22 41  1  0
 24 42  1  0
 24 43  1  0
 24 44  1  0
M  END
>  <meeko>  (3) 
{"is_sidechain": [false], "free_energy": -7.497, "intermolecular_energy": -9.733, "internal_energy": -0.477}

$$$$
cand_052_out
     RDKit          3D

 44 46  0  0  0  0  0  0  0  0999 V2000
   20.0820  -29.3840   34.8290 C   0  0  0  0  0  0  0  0  0  0  0  0
   18.8230  -28.5780   34.5490 C   0  0  0  0  0  0  0  0  0  0  0  0
   18.8880  -27.1940   35.1960 C   0  0  0  0  0  0  0  0  0  0  0  0
   18.0330  -27.1350   36.4650 C   0  0  0  0  0  0  0  0  0  0  0  0
   18.8850  -27.1300   37.7160 C   0  0  0  0  0  0  0  0  0  0  0  0
   19.0620  -28.3380   38.4090 C   0  0  0  0  0  0  0  0  0  0  0  0
   19.8300  -28.3950   39.5740 C   0  0  0  0  0  0  0  0  0  0  0  0
   20.4470  -27.2470   40.0780 C   0  0  0  0  0  0  0  0  0  0  0  0
   21.2460  -27.2730   41.3210 C   0  0  0  0  0  0  0  0  0  0  0  0
   22.2250  -28.2610   41.3120 O   0  0  0  0  0  0  0  0  0  0  0  0
   23.0410  -28.3970   42.4050 C   0  0  0  0  0  0  0  0  0  0  0  0
   24.0180  -29.3900   42.3470 C   0  0  0  0  0  0  0  0  0  0  0  0
   24.8820  -29.5830   43.4290 C   0  0  0  0  0  0  0  0  0  0  0  0
   24.7670  -28.7830   44.5670 C   0  0  0  0  0  0  0  0  0  0  0  0
   23.7900  -27.7920   44.6220 C   0  0  0  0  0  0  0  0  0  0  0  0
   23.7320  -27.0450   45.7670 O   0  0  0  0  0  0  0  0  0  0  0  0
   22.9270  -27.6000   43.5400 C   0  0  0  0  0  0  0  0  0  0  0  0
   21.8880  -26.5690   43.5570 C   0  0  0  0  0  0  0  0  0  0  0  0
   21.7190  -25.8300   44.5260 O   0  0  0  0  0  0  0  0  0  0  0  0
   21.0300  -26.4410   42.3560 C   0  0  0  0  0  0  0  0  0  0  0  0
   20.0420  -25.4740   42.3890 O   0  0  0  0  0  0  0  0  0  0  0  0
   20.2590  -26.0360   39.3930 C   0  0  0  0  0  0  0  0  0  0  0  0
   19.4820  -25.9590   38.2220 C   0  0  0  0  0  0  0  0  0  0  0  0
   19.3390  -24.6300   37.5320 C   0  0  0  0  0  0  0  0  0  0  0  0
   20.2247  -29.4754   35.9159 H   0  0  0  0  0  0  0  0  0  0  0  0
   19.9817  -30.3862   34.3868 H   0  0  0  0  0  0  0  0  0  0  0  0
   20.9502  -28.8734   34.3868 H   0  0  0  0  0  0  0  0  0  0  0  0
   18.7092  -28.4591   33.4614 H   0  0  0  0  0  0  0  0  0  0  0  0
   17.9652  -29.1185   34.9757 H   0  0  0  0  0  0  0  0  0  0  0  0
   19.9326  -26.9684   35.4564 H   0  0  0  0  0  0  0  0  0  0  0  0
   18.4988  -26.4559   34.4792 H   0  0  0  0  0  0  0  0  0  0  0  0
   17.4264  -26.2176   36.4435 H   0  0  0  0  0  0  0  0  0  0  0  0
   17.3944  -28.0303   36.4894 H   0  0  0  0  0  0  0  0  0  0  0  0
   18.5880  -29.2547   38.0281 H   0  0  0  0  0  0  0  0  0  0  0  0
   19.9505  -29.3534   40.1003 H   0  0  0  0  0  0  0  0  0  0  0  0
   24.1089  -30.0211   41.4506 H   0  0  0  0  0  0  0  0  0  0  0  0
   25.6532  -30.3661   43.3835 H   0  0  0  0  0  0  0  0  0  0  0  0
   25.4466  -28.9349   45.4185 H   0  0  0  0  0  0  0  0  0  0  0  0
   24.4900  -26.5810   46.0630 H   0  0  0  0  0  0  0  0  0  0  0  0
   19.9400  -24.8850   41.6670 H   0  0  0  0  0  0  0  0  0  0  0  0
   20.7319  -25.1223   39.7822 H   0  0  0  0  0  0  0  0  0  0  0  0
   19.2533  -23.8331   38.2854 H   0  0  0  0  0  0  0  0  0  0  0  0
   20.2226  -24.4465   36.9030 H   0  0  0  0  0  0  0  0  0  0  0  0
   18.4366  -24.6386   36.9030 H   0  0  0  0  0  0  0  0  0  0  0  0
  1  2  1  0
  2  3  1  0
  3  4  1  0
  4  5  1  0
  5  6  2  0
  6  7  1  0
  7  8  2  0
  8  9  1  0
  9 10  1  0
 10 11  1  0
 11 12  2  0
 12 13  1  0
 13 14  2  0
 14 15  1  0
 15 16  1  0
 15 17  2  0
 17 18  1  0
 18 19  2  0
 18 20  1  0
 20 21  1  0
  8 22  1  0
 22 23  2  0
 23 24  1  0
 23  5  1  0
 20  9  2  0
 17 11  1  0
  1 25  1  0
  1 26  1  0
  1 27  1  0
  2 28  1  0
  2 29  1  0
  3 30  1  0
  3 31  1  0
  4 32  1  0
  4 33  1  0
  6 34  1  0
  7 35  1  0
 12 36  1  0
 13 37  1  0
 14 38  1  0
 16 39  1  0
 21 40  1  0
 22 41  1  0
 24 42  1  0
 24 43  1  0
 24 44  1  0
M  END
>  <meeko>  (4) 
{"is_sidechain": [false], "free_energy": -7.023, "intermolecular_energy": -9.138, "internal_energy": -0.459}

$$$$
cand_052_out
     RDKit          3D

 44 46  0  0  0  0  0  0  0  0999 V2000
   20.4050  -34.8160   33.6930 C   0  0  0  0  0  0  0  0  0  0  0  0
   20.0080  -34.9690   35.1520 C   0  0  0  0  0  0  0  0  0  0  0  0
   19.2800  -33.7270   35.6680 C   0  0  0  0  0  0  0  0  0  0  0  0
   19.5800  -33.4850   37.1500 C   0  0  0  0  0  0  0  0  0  0  0  0
   19.5220  -32.0140   37.5010 C   0  0  0  0  0  0  0  0  0  0  0  0
   20.0400  -31.0870   36.5830 C   0  0  0  0  0  0  0  0  0  0  0  0
   20.0220  -29.7170   36.8540 C   0  0  0  0  0  0  0  0  0  0  0  0
   19.4820  -29.2340   38.0490 C   0  0  0  0  0  0  0  0  0  0  0  0
   19.4720  -27.7910   38.3720 C   0  0  0  0  0  0  0  0  0  0  0  0
   18.5720  -27.0710   37.5940 O   0  0  0  0  0  0  0  0  0  0  0  0
   18.4590  -25.7180   37.7910 C   0  0  0  0  0  0  0  0  0  0  0  0
   17.5350  -25.0390   36.9980 C   0  0  0  0  0  0  0  0  0  0  0  0
   17.3710  -23.6580   37.1460 C   0  0  0  0  0  0  0  0  0  0  0  0
   18.1340  -22.9600   38.0850 C   0  0  0  0  0  0  0  0  0  0  0  0
   19.0560  -23.6420   38.8740 C   0  0  0  0  0  0  0  0  0  0  0  0
   19.7700  -22.8970   39.7730 O   0  0  0  0  0  0  0  0  0  0  0  0
   19.2180  -25.0220   38.7260 C   0  0  0  0  0  0  0  0  0  0  0  0
   20.1760  -25.7770   39.5360 C   0  0  0  0  0  0  0  0  0  0  0  0
   20.8880  -25.2320   40.3780 O   0  0  0  0  0  0  0  0  0  0  0  0
   20.2660  -27.2380   39.3070 C   0  0  0  0  0  0  0  0  0  0  0  0
   21.1840  -27.9380   40.0680 O   0  0  0  0  0  0  0  0  0  0  0  0
   18.9780  -30.1610   38.9740 C   0  0  0  0  0  0  0  0  0  0  0  0
   18.9940  -31.5450   38.7200 C   0  0  0  0  0  0  0  0  0  0  0  0
   18.4200  -32.4790   39.7510 C   0  0  0  0  0  0  0  0  0  0  0  0
   21.4298  -34.4211   33.6313 H   0  0  0  0  0  0  0  0  0  0  0  0
   20.3593  -35.7962   33.1958 H   0  0  0  0  0  0  0  0  0  0  0  0
   19.7133  -34.1200   33.1958 H   0  0  0  0  0  0  0  0  0  0  0  0
   19.3438  -35.8401   35.2522 H   0  0  0  0  0  0  0  0  0  0  0  0
   20.9236  -35.1042   35.7464 H   0  0  0  0  0  0  0  0  0  0  0  0
   19.6081  -32.8519   35.0879 H   0  0  0  0  0  0  0  0  0  0  0  0
   18.1975  -33.8849   35.5530 H   0  0  0  0  0  0  0  0  0  0  0  0
   18.8384  -34.0255   37.7565 H   0  0  0  0  0  0  0  0  0  0  0  0
   20.5981  -33.8465   37.3568 H   0  0  0  0  0  0  0  0  0  0  0  0
   20.4671  -31.4454   35.6348 H   0  0  0  0  0  0  0  0  0  0  0  0
   20.4370  -29.0111   36.1195 H   0  0  0  0  0  0  0  0  0  0  0  0
   16.9359  -25.5886   36.2571 H   0  0  0  0  0  0  0  0  0  0  0  0
   16.6408  -23.1212   36.5226 H   0  0  0  0  0  0  0  0  0  0  0  0
   18.0065  -21.8736   38.2008 H   0  0  0  0  0  0  0  0  0  0  0  0
   19.6860  -21.9650   39.7800 H   0  0  0  0  0  0  0  0  0  0  0  0
   21.8620  -27.4790   40.5240 H   0  0  0  0  0  0  0  0  0  0  0  0
   18.5591  -29.7960   39.9233 H   0  0  0  0  0  0  0  0  0  0  0  0
   18.6522  -32.1012   40.7577 H   0  0  0  0  0  0  0  0  0  0  0  0
   17.3289  -32.5390   39.6245 H   0  0  0  0  0  0  0  0  0  0  0  0
   18.8593  -33.4795   39.6245 H   0  0  0  0  0  0  0  0  0  0  0  0
  1  2  1  0
  2  3  1  0
  3  4  1  0
  4  5  1  0
  5  6  2  0
  6  7  1  0
  7  8  2  0
  8  9  1  0
  9 10  1  0
 10 11  1  0
 11 12  2  0
 12 13  1  0
 13 14  2  0
 14 15  1  0
 15 16  1  0
 15 17  2  0
 17 18  1  0
 18 19  2  0
 18 20  1  0
 20 21  1  0
  8 22  1  0
 22 23  2  0
 23 24  1  0
 23  5  1  0
 20  9  2  0
 17 11  1  0
  1 25  1  0
  1 26  1  0
  1 27  1  0
  2 28  1  0
  2 29  1  0
  3 30  1  0
  3 31  1  0
  4 32  1  0
  4 33  1  0
  6 34  1  0
  7 35  1  0
 12 36  1  0
 13 37  1  0
 14 38  1  0
 16 39  1  0
 21 40  1  0
 22 41  1  0
 24 42  1  0
 24 43  1  0
 24 44  1  0
M  END
>  <meeko>  (5) 
{"is_sidechain": [false], "free_energy": -6.946, "intermolecular_energy": -8.952, "internal_energy": -0.546}

$$$$
cand_052_out
     RDKit          3D

 44 46  0  0  0  0  0  0  0  0999 V2000
   24.4040  -29.9960   42.6360 C   0  0  0  0  0  0  0  0  0  0  0  0
   24.1060  -29.1320   43.8510 C   0  0  0  0  0  0  0  0  0  0  0  0
   23.6720  -27.7240   43.4450 C   0  0  0  0  0  0  0  0  0  0  0  0
   22.1970  -27.4800   43.7780 C   0  0  0  0  0  0  0  0  0  0  0  0
   21.4250  -26.9830   42.5750 C   0  0  0  0  0  0  0  0  0  0  0  0
   21.6960  -27.5580   41.3240 C   0  0  0  0  0  0  0  0  0  0  0  0
   21.0230  -27.1360   40.1750 C   0  0  0  0  0  0  0  0  0  0  0  0
   20.0550  -26.1300   40.2450 C   0  0  0  0  0  0  0  0  0  0  0  0
   19.3430  -25.6480   39.0430 C   0  0  0  0  0  0  0  0  0  0  0  0
   19.6670  -24.3370   38.7140 O   0  0  0  0  0  0  0  0  0  0  0  0
   19.0790  -23.7620   37.6170 C   0  0  0  0  0  0  0  0  0  0  0  0
   19.4440  -22.4500   37.3160 C   0  0  0  0  0  0  0  0  0  0  0  0
   18.8800  -21.8050   36.2120 C   0  0  0  0  0  0  0  0  0  0  0  0
   17.9510  -22.4730   35.4110 C   0  0  0  0  0  0  0  0  0  0  0  0
   17.5880  -23.7830   35.7140 C   0  0  0  0  0  0  0  0  0  0  0  0
   16.6730  -24.3770   34.8890 O   0  0  0  0  0  0  0  0  0  0  0  0
   18.1540  -24.4270   36.8180 C   0  0  0  0  0  0  0  0  0  0  0  0
   17.8000  -25.8030   37.1710 C   0  0  0  0  0  0  0  0  0  0  0  0
   16.9860  -26.4540   36.5190 O   0  0  0  0  0  0  0  0  0  0  0  0
   18.4620  -26.3980   38.3560 C   0  0  0  0  0  0  0  0  0  0  0  0
   18.1100  -27.6930   38.6880 O   0  0  0  0  0  0  0  0  0  0  0  0
   19.7930  -25.5460   41.4940 C   0  0  0  0  0  0  0  0  0  0  0  0
   20.4680  -25.9540   42.6600 C   0  0  0  0  0  0  0  0  0  0  0  0
   20.1230  -25.2930   43.9670 C   0  0  0  0  0  0  0  0  0  0  0  0
   24.7461  -30.9879   42.9664 H   0  0  0  0  0  0  0  0  0  0  0  0
   23.4917  -30.1055   42.0313 H   0  0  0  0  0  0  0  0  0  0  0  0
   25.1898  -29.5198   42.0313 H   0  0  0  0  0  0  0  0  0  0  0  0
   23.2991  -29.6006   44.4334 H   0  0  0  0  0  0  0  0  0  0  0  0
   25.0251  -29.0503   44.4499 H   0  0  0  0  0  0  0  0  0  0  0  0
   24.2877  -26.9894   43.9847 H   0  0  0  0  0  0  0  0  0  0  0  0
   23.8051  -27.6189   42.3582 H   0  0  0  0  0  0  0  0  0  0  0  0
   21.7491  -28.4233   44.1238 H   0  0  0  0  0  0  0  0  0  0  0  0
   22.1458  -26.7084   44.5603 H   0  0  0  0  0  0  0  0  0  0  0  0
   22.4510  -28.3543   41.2469 H   0  0  0  0  0  0  0  0  0  0  0  0
   21.2571  -27.5999   39.2055 H   0  0  0  0  0  0  0  0  0  0  0  0
   20.1751  -21.9234   37.9470 H   0  0  0  0  0  0  0  0  0  0  0  0
   19.1679  -20.7704   35.9737 H   0  0  0  0  0  0  0  0  0  0  0  0
   17.5068  -21.9652   34.5422 H   0  0  0  0  0  0  0  0  0  0  0  0
   16.9470  -25.0320   34.2800 H   0  0  0  0  0  0  0  0  0  0  0  0
   18.2160  -28.3820   38.0620 H   0  0  0  0  0  0  0  0  0  0  0  0
   19.0396  -24.7476   41.5637 H   0  0  0  0  0  0  0  0  0  0  0  0
   20.4557  -25.9305   44.7994 H   0  0  0  0  0  0  0  0  0  0  0  0
   20.6267  -24.3171   44.0285 H   0  0  0  0  0  0  0  0  0  0  0  0
   19.0343  -25.1482   44.0285 H   0  0  0  0  0  0  0  0  0  0  0  0
  1  2  1  0
  2  3  1  0
  3  4  1  0
  4  5  1  0
  5  6  2  0
  6  7  1  0
  7  8  2  0
  8  9  1  0
  9 10  1  0
 10 11  1  0
 11 12  2  0
 12 13  1  0
 13 14  2  0
 14 15  1  0
 15 16  1  0
 15 17  2  0
 17 18  1  0
 18 19  2  0
 18 20  1  0
 20 21  1  0
  8 22  1  0
 22 23  2  0
 23 24  1  0
 23  5  1  0
 20  9  2  0
 17 11  1  0
  1 25  1  0
  1 26  1  0
  1 27  1  0
  2 28  1  0
  2 29  1  0
  3 30  1  0
  3 31  1  0
  4 32  1  0
  4 33  1  0
  6 34  1  0
  7 35  1  0
 12 36  1  0
 13 37  1  0
 14 38  1  0
 16 39  1  0
 21 40  1  0
 22 41  1  0
 24 42  1  0
 24 43  1  0
 24 44  1  0
M  END
>  <meeko>  (6) 
{"is_sidechain": [false], "free_energy": -6.927, "intermolecular_energy": -8.811, "internal_energy": -0.662}

$$$$
cand_052_out
     RDKit          3D

 44 46  0  0  0  0  0  0  0  0999 V2000
   18.3400  -35.3290   39.3580 C   0  0  0  0  0  0  0  0  0  0  0  0
   18.8640  -35.3360   37.9310 C   0  0  0  0  0  0  0  0  0  0  0  0
   18.3740  -34.1180   37.1480 C   0  0  0  0  0  0  0  0  0  0  0  0
   19.5450  -33.3430   36.5380 C   0  0  0  0  0  0  0  0  0  0  0  0
   19.5840  -31.9110   37.0270 C   0  0  0  0  0  0  0  0  0  0  0  0
   19.1790  -31.6430   38.3440 C   0  0  0  0  0  0  0  0  0  0  0  0
   19.1850  -30.3410   38.8490 C   0  0  0  0  0  0  0  0  0  0  0  0
   19.6010  -29.2690   38.0540 C   0  0  0  0  0  0  0  0  0  0  0  0
   19.5950  -27.8790   38.5560 C   0  0  0  0  0  0  0  0  0  0  0  0
   19.0180  -26.9850   37.6610 O   0  0  0  0  0  0  0  0  0  0  0  0
   18.9460  -25.6590   38.0010 C   0  0  0  0  0  0  0  0  0  0  0  0
   18.3470  -24.8000   37.0790 C   0  0  0  0  0  0  0  0  0  0  0  0
   18.2430  -23.4360   37.3620 C   0  0  0  0  0  0  0  0  0  0  0  0
   18.7390  -22.9310   38.5660 C   0  0  0  0  0  0  0  0  0  0  0  0
   19.3370  -23.7910   39.4840 C   0  0  0  0  0  0  0  0  0  0  0  0
   19.8020  -23.2310   40.6420 O   0  0  0  0  0  0  0  0  0  0  0  0
   19.4400  -25.1560   39.2000 C   0  0  0  0  0  0  0  0  0  0  0  0
   20.0610  -26.0930   40.1370 C   0  0  0  0  0  0  0  0  0  0  0  0
   20.5270  -25.7240   41.2140 O   0  0  0  0  0  0  0  0  0  0  0  0
   20.1130  -27.5210   39.7450 C   0  0  0  0  0  0  0  0  0  0  0  0
   20.7140  -28.3950   40.6320 O   0  0  0  0  0  0  0  0  0  0  0  0
   19.9920  -29.5350   36.7330 C   0  0  0  0  0  0  0  0  0  0  0  0
   19.9850  -30.8390   36.2050 C   0  0  0  0  0  0  0  0  0  0  0  0
   20.4350  -31.0510   34.7850 C   0  0  0  0  0  0  0  0  0  0  0  0
   19.1870  -35.3403   40.0597 H   0  0  0  0  0  0  0  0  0  0  0  0
   17.7389  -34.4227   39.5234 H   0  0  0  0  0  0  0  0  0  0  0  0
   17.7149  -36.2189   39.5234 H   0  0  0  0  0  0  0  0  0  0  0  0
   19.9637  -35.3273   37.9541 H   0  0  0  0  0  0  0  0  0  0  0  0
   18.4898  -36.2413   37.4305 H   0  0  0  0  0  0  0  0  0  0  0  0
   17.7076  -34.4552   36.3404 H   0  0  0  0  0  0  0  0  0  0  0  0
   17.8388  -33.4516   37.8404 H   0  0  0  0  0  0  0  0  0  0  0  0
   20.4856  -33.8406   36.8167 H   0  0  0  0  0  0  0  0  0  0  0  0
   19.4151  -33.3289   35.4458 H   0  0  0  0  0  0  0  0  0  0  0  0
   18.8516  -32.4719   38.9887 H   0  0  0  0  0  0  0  0  0  0  0  0
   18.8589  -30.1570   39.8833 H   0  0  0  0  0  0  0  0  0  0  0  0
   17.9570  -25.1965   36.1300 H   0  0  0  0  0  0  0  0  0  0  0  0
   17.7699  -22.7588   36.6357 H   0  0  0  0  0  0  0  0  0  0  0  0
   18.6576  -21.8569   38.7887 H   0  0  0  0  0  0  0  0  0  0  0  0
   20.0200  -23.7750   41.3720 H   0  0  0  0  0  0  0  0  0  0  0  0
   20.5620  -28.3060   41.5520 H   0  0  0  0  0  0  0  0  0  0  0  0
   20.3130  -28.7005   36.0922 H   0  0  0  0  0  0  0  0  0  0  0  0
   21.4301  -31.5198   34.7818 H   0  0  0  0  0  0  0  0  0  0  0  0
   19.7192  -31.7066   34.2675 H   0  0  0  0  0  0  0  0  0  0  0  0
   20.4847  -30.0816   34.2675 H   0  0  0  0  0  0  0  0  0  0  0  0
  1  2  1  0
  2  3  1  0
  3  4  1  0
  4  5  1  0
  5  6  2  0
  6  7  1  0
  7  8  2  0
  8  9  1  0
  9 10  1  0
 10 11  1  0
 11 12  2  0
 12 13  1  0
 13 14  2  0
 14 15  1  0
 15 16  1  0
 15 17  2  0
 17 18  1  0
 18 19  2  0
 18 20  1  0
 20 21  1  0
  8 22  1  0
 22 23  2  0
 23 24  1  0
 23  5  1  0
 20  9  2  0
 17 11  1  0
  1 25  1  0
  1 26  1  0
  1 27  1  0
  2 28  1  0
  2 29  1  0
  3 30  1  0
  3 31  1  0
  4 32  1  0
  4 33  1  0
  6 34  1  0
  7 35  1  0
 12 36  1  0
 13 37  1  0
 14 38  1  0
 16 39  1  0
 21 40  1  0
 22 41  1  0
 24 42  1  0
 24 43  1  0
 24 44  1  0
M  END
>  <meeko>  (7) 
{"is_sidechain": [false], "free_energy": -6.808, "intermolecular_energy": -8.857, "internal_energy": -0.463}

$$$$
cand_052_out
     RDKit          3D

 44 46  0  0  0  0  0  0  0  0999 V2000
   22.2040  -23.4180   49.2270 C   0  0  0  0  0  0  0  0  0  0  0  0
   21.1250  -24.2900   49.8500 C   0  0  0  0  0  0  0  0  0  0  0  0
   20.0270  -24.6290   48.8410 C   0  0  0  0  0  0  0  0  0  0  0  0
   19.7440  -23.4450   47.9120 C   0  0  0  0  0  0  0  0  0  0  0  0
   19.7600  -23.8590   46.4560 C   0  0  0  0  0  0  0  0  0  0  0  0
   20.8550  -24.6020   45.9850 C   0  0  0  0  0  0  0  0  0  0  0  0
   20.9310  -25.0050   44.6510 C   0  0  0  0  0  0  0  0  0  0  0  0
   19.9140  -24.6820   43.7480 C   0  0  0  0  0  0  0  0  0  0  0  0
   19.9800  -25.0760   42.3250 C   0  0  0  0  0  0  0  0  0  0  0  0
   19.6000  -24.0520   41.4640 O   0  0  0  0  0  0  0  0  0  0  0  0
   19.6170  -24.2820   40.1120 C   0  0  0  0  0  0  0  0  0  0  0  0
   19.2410  -23.2230   39.2860 C   0  0  0  0  0  0  0  0  0  0  0  0
   19.2340  -23.3910   37.8980 C   0  0  0  0  0  0  0  0  0  0  0  0
   19.6000  -24.6170   37.3400 C   0  0  0  0  0  0  0  0  0  0  0  0
   19.9740  -25.6720   38.1680 C   0  0  0  0  0  0  0  0  0  0  0  0
   20.3200  -26.8460   37.5550 O   0  0  0  0  0  0  0  0  0  0  0  0
   19.9820  -25.5030   39.5550 C   0  0  0  0  0  0  0  0  0  0  0  0
   20.3680  -26.5860   40.4610 C   0  0  0  0  0  0  0  0  0  0  0  0
   20.6960  -27.6970   40.0460 O   0  0  0  0  0  0  0  0  0  0  0  0
   20.3510  -26.3020   41.9150 C   0  0  0  0  0  0  0  0  0  0  0  0
   20.7040  -27.3370   42.7620 O   0  0  0  0  0  0  0  0  0  0  0  0
   18.8270  -23.9270   44.2160 C   0  0  0  0  0  0  0  0  0  0  0  0
   18.7370  -23.5060   45.5550 C   0  0  0  0  0  0  0  0  0  0  0  0
   17.5330  -22.7140   45.9890 C   0  0  0  0  0  0  0  0  0  0  0  0
   22.7946  -22.9407   50.0229 H   0  0  0  0  0  0  0  0  0  0  0  0
   22.8635  -24.0398   48.6038 H   0  0  0  0  0  0  0  0  0  0  0  0
   21.7344  -22.6427   48.6038 H   0  0  0  0  0  0  0  0  0  0  0  0
   21.5826  -25.2242   50.2077 H   0  0  0  0  0  0  0  0  0  0  0  0
   20.6693  -23.7336   50.6823 H   0  0  0  0  0  0  0  0  0  0  0  0
   20.3483  -25.4903   48.2369 H   0  0  0  0  0  0  0  0  0  0  0  0
   19.1062  -24.8654   49.3944 H   0  0  0  0  0  0  0  0  0  0  0  0
   18.7541  -23.0308   48.1539 H   0  0  0  0  0  0  0  0  0  0  0  0
   20.5334  -22.6941   48.0635 H   0  0  0  0  0  0  0  0  0  0  0  0
   21.6655  -24.8705   46.6786 H   0  0  0  0  0  0  0  0  0  0  0  0
   21.8009  -25.5833   44.3063 H   0  0  0  0  0  0  0  0  0  0  0  0
   18.9505  -22.2574   39.7257 H   0  0  0  0  0  0  0  0  0  0  0  0
   18.9397  -22.5561   37.2450 H   0  0  0  0  0  0  0  0  0  0  0  0
   19.5930  -24.7494   36.2480 H   0  0  0  0  0  0  0  0  0  0  0  0
   20.1460  -26.9670   36.6430 H   0  0  0  0  0  0  0  0  0  0  0  0
   21.3040  -27.9960   42.4710 H   0  0  0  0  0  0  0  0  0  0  0  0
   18.0228  -23.6570   43.5157 H   0  0  0  0  0  0  0  0  0  0  0  0
   17.4895  -22.6854   47.0878 H   0  0  0  0  0  0  0  0  0  0  0  0
   17.6083  -21.6885   45.5982 H   0  0  0  0  0  0  0  0  0  0  0  0
   16.6212  -23.1892   45.5982 H   0  0  0  0  0  0  0  0  0  0  0  0
  1  2  1  0
  2  3  1  0
  3  4  1  0
  4  5  1  0
  5  6  2  0
  6  7  1  0
  7  8  2  0
  8  9  1  0
  9 10  1  0
 10 11  1  0
 11 12  2  0
 12 13  1  0
 13 14  2  0
 14 15  1  0
 15 16  1  0
 15 17  2  0
 17 18  1  0
 18 19  2  0
 18 20  1  0
 20 21  1  0
  8 22  1  0
 22 23  2  0
 23 24  1  0
 23  5  1  0
 20  9  2  0
 17 11  1  0
  1 25  1  0
  1 26  1  0
  1 27  1  0
  2 28  1  0
  2 29  1  0
  3 30  1  0
  3 31  1  0
  4 32  1  0
  4 33  1  0
  6 34  1  0
  7 35  1  0
 12 36  1  0
 13 37  1  0
 14 38  1  0
 16 39  1  0
 21 40  1  0
 22 41  1  0
 24 42  1  0
 24 43  1  0
 24 44  1  0
M  END
>  <meeko>  (8) 
{"is_sidechain": [false], "free_energy": -6.672, "intermolecular_energy": -8.698, "internal_energy": -0.446}

$$$$
