cand_024_out
     RDKit          3D

 47 49  0  0  0  0  0  0  0  0999 V2000
   20.1600  -32.5300   32.5360 C   0  0  0  0  0  0  0  0  0  0  0  0
   20.4790  -33.4100   33.6640 N   0  0  0  0  0  0  0  0  0  0  0  0
   20.8070  -34.7480   33.1600 C   0  0  0  0  0  0  0  0  0  0  0  0
   19.3620  -33.4960   34.6250 C   0  0  0  0  0  0  0  0  0  0  0  0
   19.8260  -33.7250   36.0750 C   0  0  0  0  0  0  0  0  0  0  0  0
   19.6380  -32.4860   36.9310 C   0  0  0  0  0  0  0  0  0  0  0  0
   19.9030  -31.2330   36.3510 C   0  0  0  0  0  0  0  0  0  0  0  0
   19.7600  -30.0560   37.0880 C   0  0  0  0  0  0  0  0  0  0  0  0
   19.3440  -30.0930   38.4230 C   0  0  0  0  0  0  0  0  0  0  0  0
   19.2160  -28.8360   39.1900 C   0  0  0  0  0  0  0  0  0  0  0  0
   20.1110  -28.7540   40.2490 O   0  0  0  0  0  0  0  0  0  0  0  0
   20.1000  -27.6350   41.0420 C   0  0  0  0  0  0  0  0  0  0  0  0
   21.0060  -27.6010   42.1030 C   0  0  0  0  0  0  0  0  0  0  0  0
   21.0470  -26.4900   42.9480 C   0  0  0  0  0  0  0  0  0  0  0  0
   20.1830  -25.4150   42.7330 C   0  0  0  0  0  0  0  0  0  0  0  0
   19.2800  -25.4510   41.6740 C   0  0  0  0  0  0  0  0  0  0  0  0
   18.4630  -24.3650   41.5210 O   0  0  0  0  0  0  0  0  0  0  0  0
   19.2380  -26.5630   40.8290 C   0  0  0  0  0  0  0  0  0  0  0  0
   18.3040  -26.6420   39.7040 C   0  0  0  0  0  0  0  0  0  0  0  0
   17.5180  -25.7340   39.4460 O   0  0  0  0  0  0  0  0  0  0  0  0
   18.3360  -27.8680   38.8740 C   0  0  0  0  0  0  0  0  0  0  0  0
   17.4600  -27.9290   37.8050 O   0  0  0  0  0  0  0  0  0  0  0  0
   19.0930  -31.3440   39.0070 C   0  0  0  0  0  0  0  0  0  0  0  0
   19.2330  -32.5470   38.2820 C   0  0  0  0  0  0  0  0  0  0  0  0
   18.9230  -33.8560   38.9750 C   0  0  0  0  0  0  0  0  0  0  0  0
   19.9510  -34.7520   38.9410 F   0  0  0  0  0  0  0  0  0  0  0  0
   18.6210  -33.6930   40.2930 F   0  0  0  0  0  0  0  0  0  0  0  0
   17.8600  -34.5080   38.4250 F   0  0  0  0  0  0  0  0  0  0  0  0
   19.8082  -31.5596   32.9161 H   0  0  0  0  0  0  0  0  0  0  0  0
   21.0606  -32.3789   31.9227 H   0  0  0  0  0  0  0  0  0  0  0  0
   19.3718  -32.9911   31.9227 H   0  0  0  0  0  0  0  0  0  0  0  0
   21.2810  -33.0160   34.1570 H   0  0  0  0  0  0  0  0  0  0  0  0
   20.9738  -35.4285   34.0080 H   0  0  0  0  0  0  0  0  0  0  0  0
   19.9742  -35.1232   32.5470 H   0  0  0  0  0  0  0  0  0  0  0  0
   21.7189  -34.6956   32.5470 H   0  0  0  0  0  0  0  0  0  0  0  0
   18.7927  -32.5557   34.5844 H   0  0  0  0  0  0  0  0  0  0  0  0
   18.7490  -34.3628   34.3371 H   0  0  0  0  0  0  0  0  0  0  0  0
   19.2417  -34.5496   36.5095 H   0  0  0  0  0  0  0  0  0  0  0  0
   20.8989  -33.9668   36.0557 H   0  0  0  0  0  0  0  0  0  0  0  0
   20.2277  -31.1793   35.3014 H   0  0  0  0  0  0  0  0  0  0  0  0
   19.9771  -29.0878   36.6132 H   0  0  0  0  0  0  0  0  0  0  0  0
   21.6868  -28.4481   42.2734 H   0  0  0  0  0  0  0  0  0  0  0  0
   21.7611  -26.4620   43.7842 H   0  0  0  0  0  0  0  0  0  0  0  0
   20.2156  -24.5405   43.3995 H   0  0  0  0  0  0  0  0  0  0  0  0
   17.5580  -24.4850   41.3070 H   0  0  0  0  0  0  0  0  0  0  0  0
   17.6000  -27.3870   37.0530 H   0  0  0  0  0  0  0  0  0  0  0  0
   18.7781  -31.3885   40.0600 H   0  0  0  0  0  0  0  0  0  0  0  0
  1  2  1  0
  2  3  1  0
  2  4  1  0
  4  5  1  0
  5  6  1  0
  6  7  2  0
  7  8  1  0
  8  9  2  0
  9 10  1  0
 10 11  1  0
 11 12  1  0
 12 13  2  0
 13 14  1  0
 14 15  2  0
 15 16  1  0
 16 17  1  0
 16 18  2  0
 18 19  1  0
 19 20  2  0
 19 21  1  0
 21 22  1  0
  9 23  1  0
 23 24  2  0
 24 25  1  0
 25 26  1  0
 25 27  1  0
 25 28  1  0
 24  6  1  0
 21 10  2  0
 18 12  1  0
  1 29  1  0
  1 30  1  0
  1 31  1  0
  2 32  1  0
  3 33  1  0
  3 34  1  0
  3 35  1  0
  4 36  1  0
  4 37  1  0
  5 38  1  0
  5 39  1  0
  7 40  1  0
  8 41  1  0
 13 42  1  0
 14 43  1  0
 15 44  1  0
 17 45  1  0
 22 46  1  0
 23 47  1  0
M  CHG  1   2   1
M  END
>  <meeko>  (1) 
{"is_sidechain": [false], "free_energy": -8.395, "intermolecular_energy": -11.339, "internal_energy": -0.601}

$$$$
cand_024_out
     RDKit          3D

 47 49  0  0  0  0  0  0  0  0999 V2000
   19.2800  -24.0160   37.6910 C   0  0  0  0  0  0  0  0  0  0  0  0
   18.7020  -23.7540   39.0120 N   0  0  0  0  0  0  0  0  0  0  0  0
   18.4060  -22.3230   39.1400 C   0  0  0  0  0  0  0  0  0  0  0  0
   19.6080  -24.1760   40.0990 C   0  0  0  0  0  0  0  0  0  0  0  0
   19.0190  -25.2940   40.9780 C   0  0  0  0  0  0  0  0  0  0  0  0
   19.1490  -26.6570   40.3220 C   0  0  0  0  0  0  0  0  0  0  0  0
   18.1390  -27.0640   39.4340 C   0  0  0  0  0  0  0  0  0  0  0  0
   18.1930  -28.3100   38.8070 C   0  0  0  0  0  0  0  0  0  0  0  0
   19.2600  -29.1840   39.0410 C   0  0  0  0  0  0  0  0  0  0  0  0
   19.2890  -30.5060   38.3800 C   0  0  0  0  0  0  0  0  0  0  0  0
   18.8830  -31.5390   39.2160 O   0  0  0  0  0  0  0  0  0  0  0  0
   18.8620  -32.8190   38.7240 C   0  0  0  0  0  0  0  0  0  0  0  0
   18.4620  -33.8280   39.6010 C   0  0  0  0  0  0  0  0  0  0  0  0
   18.4170  -35.1540   39.1650 C   0  0  0  0  0  0  0  0  0  0  0  0
   18.7710  -35.4700   37.8520 C   0  0  0  0  0  0  0  0  0  0  0  0
   19.1690  -34.4620   36.9780 C   0  0  0  0  0  0  0  0  0  0  0  0
   19.5010  -34.8420   35.7060 O   0  0  0  0  0  0  0  0  0  0  0  0
   19.2150  -33.1360   37.4160 C   0  0  0  0  0  0  0  0  0  0  0  0
   19.6280  -32.0460   36.5300 C   0  0  0  0  0  0  0  0  0  0  0  0
   19.9470  -32.2430   35.3600 O   0  0  0  0  0  0  0  0  0  0  0  0
   19.6490  -30.6770   37.0940 C   0  0  0  0  0  0  0  0  0  0  0  0
   20.0270  -29.6510   36.2470 O   0  0  0  0  0  0  0  0  0  0  0  0
   20.2610  -28.7850   39.9380 C   0  0  0  0  0  0  0  0  0  0  0  0
   20.2250  -27.5310   40.5860 C   0  0  0  0  0  0  0  0  0  0  0  0
   21.3550  -27.1630   41.5240 C   0  0  0  0  0  0  0  0  0  0  0  0
   22.1760  -28.2080   41.8310 F   0  0  0  0  0  0  0  0  0  0  0  0
   22.1670  -26.1950   41.0140 F   0  0  0  0  0  0  0  0  0  0  0  0
   20.9140  -26.6880   42.7240 F   0  0  0  0  0  0  0  0  0  0  0  0
   20.2760  -24.4675   37.8096 H   0  0  0  0  0  0  0  0  0  0  0  0
   18.6281  -24.7066   37.1360 H   0  0  0  0  0  0  0  0  0  0  0  0
   19.3697  -23.0706   37.1360 H   0  0  0  0  0  0  0  0  0  0  0  0
   17.8430  -24.2980   39.0980 H   0  0  0  0  0  0  0  0  0  0  0  0
   18.3503  -22.0539   40.2051 H   0  0  0  0  0  0  0  0  0  0  0  0
   19.2024  -21.7391   38.6554 H   0  0  0  0  0  0  0  0  0  0  0  0
   17.4433  -22.1029   38.6554 H   0  0  0  0  0  0  0  0  0  0  0  0
   20.5451  -24.5394   39.6521 H   0  0  0  0  0  0  0  0  0  0  0  0
   19.7715  -23.3021   40.7467 H   0  0  0  0  0  0  0  0  0  0  0  0
   19.5534  -25.3095   41.9393 H   0  0  0  0  0  0  0  0  0  0  0  0
   17.9486  -25.0859   41.1229 H   0  0  0  0  0  0  0  0  0  0  0  0
   17.2933  -26.3908   39.2299 H   0  0  0  0  0  0  0  0  0  0  0  0
   17.3868  -28.6083   38.1206 H   0  0  0  0  0  0  0  0  0  0  0  0
   18.1822  -33.5791   40.6353 H   0  0  0  0  0  0  0  0  0  0  0  0
   18.1025  -35.9497   39.8563 H   0  0  0  0  0  0  0  0  0  0  0  0
   18.7355  -36.5143   37.5084 H   0  0  0  0  0  0  0  0  0  0  0  0
   19.3740  -34.2480   34.9920 H   0  0  0  0  0  0  0  0  0  0  0  0
   19.4020  -29.2760   35.6570 H   0  0  0  0  0  0  0  0  0  0  0  0
   21.0983  -29.4684   40.1428 H   0  0  0  0  0  0  0  0  0  0  0  0
  1  2  1  0
  2  3  1  0
  2  4  1  0
  4  5  1  0
  5  6  1  0
  6  7  2  0
  7  8  1  0
  8  9  2  0
  9 10  1  0
 10 11  1  0
 11 12  1  0
 12 13  2  0
 13 14  1  0
 14 15  2  0
 15 16  1  0
 16 17  1  0
 16 18  2  0
 18 19  1  0
 19 20  2  0
 19 21  1  0
 21 22  1  0
  9 23  1  0
 23 24  2  0
 24 25  1  0
 25 26  1  0
 25 27  1  0
 25 28  1  0
 24  6  1  0
 21 10  2  0
 18 12  1  0
  1 29  1  0
  1 30  1  0
  1 31  1  0
  2 32  1  0
  3 33  1  0
  3 34  1  0
  3 35  1  0
  4 36  1  0
  4 37  1  0
  5 38  1  0
  5 39  1  0
  7 40  1  0
  8 41  1  0
 13 42  1  0
 14 43  1  0
 15 44  1  0
 17 45  1  0
 22 46  1  0
 23 47  1  0
M  CHG  1   2   1
M  END
>  <meeko>  (2) 
{"is_sidechain": [false], "free_energy": -7.869, "intermolecular_energy": -10.543, "internal_energy": -0.687}

$$$$
cand_024_out
     RDKit          3D

 47 49  0  0  0  0  0  0  0  0999 V2000
   19.7480  -24.2280   44.2750 C   0  0  0  0  0  0  0  0  0  0  0  0
   20.1280  -23.9120   42.8950 N   0  0  0  0  0  0  0  0  0  0  0  0
   19.9870  -22.4700   42.6690 C   0  0  0  0  0  0  0  0  0  0  0  0
   19.3070  -24.6550   41.9180 C   0  0  0  0  0  0  0  0  0  0  0  0
   19.9280  -24.6920   40.5100 C   0  0  0  0  0  0  0  0  0  0  0  0
   19.7910  -26.0610   39.8670 C   0  0  0  0  0  0  0  0  0  0  0  0
   20.1090  -27.1900   40.6400 C   0  0  0  0  0  0  0  0  0  0  0  0
   20.0150  -28.4760   40.1040 C   0  0  0  0  0  0  0  0  0  0  0  0
   19.5940  -28.6730   38.7850 C   0  0  0  0  0  0  0  0  0  0  0  0
   19.5180  -30.0430   38.2330 C   0  0  0  0  0  0  0  0  0  0  0  0
   19.1100  -30.9830   39.1700 O   0  0  0  0  0  0  0  0  0  0  0  0
   18.9950  -32.2950   38.7870 C   0  0  0  0  0  0  0  0  0  0  0  0
   18.5960  -33.2080   39.7640 C   0  0  0  0  0  0  0  0  0  0  0  0
   18.4580  -34.5590   39.4390 C   0  0  0  0  0  0  0  0  0  0  0  0
   18.7200  -34.9970   38.1400 C   0  0  0  0  0  0  0  0  0  0  0  0
   19.1170  -34.0840   37.1660 C   0  0  0  0  0  0  0  0  0  0  0  0
   19.3560  -34.5800   35.9140 O   0  0  0  0  0  0  0  0  0  0  0  0
   19.2560  -32.7320   37.4910 C   0  0  0  0  0  0  0  0  0  0  0  0
   19.6710  -31.7400   36.4990 C   0  0  0  0  0  0  0  0  0  0  0  0
   19.9120  -32.0450   35.3330 O   0  0  0  0  0  0  0  0  0  0  0  0
   19.7950  -30.3330   36.9480 C   0  0  0  0  0  0  0  0  0  0  0  0
   20.1750  -29.4000   36.0010 O   0  0  0  0  0  0  0  0  0  0  0  0
   19.2900  -27.5460   38.0090 C   0  0  0  0  0  0  0  0  0  0  0  0
   19.3810  -26.2360   38.5280 C   0  0  0  0  0  0  0  0  0  0  0  0
   19.0150  -25.0710   37.6340 C   0  0  0  0  0  0  0  0  0  0  0  0
   18.7730  -25.4260   36.3400 F   0  0  0  0  0  0  0  0  0  0  0  0
   17.8930  -24.4210   38.0520 F   0  0  0  0  0  0  0  0  0  0  0  0
   19.9940  -24.1240   37.5700 F   0  0  0  0  0  0  0  0  0  0  0  0
   20.4037  -23.6828   44.9699 H   0  0  0  0  0  0  0  0  0  0  0  0
   18.7033  -23.9286   44.4454 H   0  0  0  0  0  0  0  0  0  0  0  0
   19.8518  -25.3098   44.4454 H   0  0  0  0  0  0  0  0  0  0  0  0
   21.0990  -24.1940   42.7600 H   0  0  0  0  0  0  0  0  0  0  0  0
   19.9362  -21.9504   43.6372 H   0  0  0  0  0  0  0  0  0  0  0  0
   20.8534  -22.1016   42.1001 H   0  0  0  0  0  0  0  0  0  0  0  0
   19.0656  -22.2764   42.1001 H   0  0  0  0  0  0  0  0  0  0  0  0
   19.1880  -25.6886   42.2752 H   0  0  0  0  0  0  0  0  0  0  0  0
   18.3421  -24.1330   41.8368 H   0  0  0  0  0  0  0  0  0  0  0  0
   19.4197  -23.9494   39.8774 H   0  0  0  0  0  0  0  0  0  0  0  0
   21.0002  -24.4650   40.6040 H   0  0  0  0  0  0  0  0  0  0  0  0
   20.4366  -27.0592   41.6819 H   0  0  0  0  0  0  0  0  0  0  0  0
   20.2752  -29.3446   40.7268 H   0  0  0  0  0  0  0  0  0  0  0  0
   18.3905  -32.8640   40.7884 H   0  0  0  0  0  0  0  0  0  0  0  0
   18.1423  -35.2793   40.2081 H   0  0  0  0  0  0  0  0  0  0  0  0
   18.6131  -36.0619   37.8858 H   0  0  0  0  0  0  0  0  0  0  0  0
   19.2590  -34.0260   35.1640 H   0  0  0  0  0  0  0  0  0  0  0  0
   19.6210  -28.6660   35.8180 H   0  0  0  0  0  0  0  0  0  0  0  0
   18.9713  -27.6862   36.9655 H   0  0  0  0  0  0  0  0  0  0  0  0
  1  2  1  0
  2  3  1  0
  2  4  1  0
  4  5  1  0
  5  6  1  0
  6  7  2  0
  7  8  1  0
  8  9  2  0
  9 10  1  0
 10 11  1  0
 11 12  1  0
 12 13  2  0
 13 14  1  0
 14 15  2  0
 15 16  1  0
 16 17  1  0
 16 18  2  0
 18 19  1  0
 19 20  2  0
 19 21  1  0
 21 22  1  0
  9 23  1  0
 23 24  2  0
 24 25  1  0
 25 26  1  0
 25 27  1  0
 25 28  1  0
 24  6  1  0
 21 10  2  0
 18 12  1  0
  1 29  1  0
  1 30  1  0
  1 31  1  0
  2 32  1  0
  3 33  1  0
  3 34  1  0
  3 35  1  0
  4 36  1  0
  4 37  1  0
  5 38  1  0
  5 39  1  0
  7 40  1  0
  8 41  1  0
 13 42  1  0
 14 43  1  0
 15 44  1  0
 17 45  1  0
 22 46  1  0
 23 47  1  0
M  CHG  1   2   1
M  END
>  <meeko>  (3) 
{"is_sidechain": [false], "free_energy": -7.633, "intermolecular_energy": -10.675, "internal_energy": -0.236}

$$$$
cand_024_out
     RDKit          3D

 47 49  0  0  0  0  0  0  0  0999 V2000
   18.4580  -35.3650   38.3720 C   0  0  0  0  0  0  0  0  0  0  0  0
   19.0050  -35.4340   37.0140 N   0  0  0  0  0  0  0  0  0  0  0  0
   20.4690  -35.4700   37.0790 C   0  0  0  0  0  0  0  0  0  0  0  0
   18.5680  -34.2910   36.1890 C   0  0  0  0  0  0  0  0  0  0  0  0
   19.7090  -33.3110   35.8580 C   0  0  0  0  0  0  0  0  0  0  0  0
   19.6210  -32.0410   36.6860 C   0  0  0  0  0  0  0  0  0  0  0  0
   19.2020  -32.1490   38.0230 C   0  0  0  0  0  0  0  0  0  0  0  0
   19.0900  -31.0180   38.8340 C   0  0  0  0  0  0  0  0  0  0  0  0
   19.3980  -29.7480   38.3370 C   0  0  0  0  0  0  0  0  0  0  0  0
   19.2560  -28.5610   39.2080 C   0  0  0  0  0  0  0  0  0  0  0  0
   20.1590  -28.5540   40.2640 O   0  0  0  0  0  0  0  0  0  0  0  0
   20.1350  -27.5050   41.1480 C   0  0  0  0  0  0  0  0  0  0  0  0
   21.0490  -27.5450   42.2020 C   0  0  0  0  0  0  0  0  0  0  0  0
   21.0780  -26.5080   43.1370 C   0  0  0  0  0  0  0  0  0  0  0  0
   20.1950  -25.4330   43.0190 C   0  0  0  0  0  0  0  0  0  0  0  0
   19.2850  -25.3960   41.9660 C   0  0  0  0  0  0  0  0  0  0  0  0
   18.4490  -24.3140   41.9090 O   0  0  0  0  0  0  0  0  0  0  0  0
   19.2540  -26.4340   41.0310 C   0  0  0  0  0  0  0  0  0  0  0  0
   18.3130  -26.4340   39.9090 C   0  0  0  0  0  0  0  0  0  0  0  0
   17.5100  -25.5210   39.7330 O   0  0  0  0  0  0  0  0  0  0  0  0
   18.3590  -27.5850   38.9790 C   0  0  0  0  0  0  0  0  0  0  0  0
   17.4750  -27.5710   37.9150 O   0  0  0  0  0  0  0  0  0  0  0  0
   19.8040  -29.6380   36.9990 C   0  0  0  0  0  0  0  0  0  0  0  0
   19.9210  -30.7670   36.1590 C   0  0  0  0  0  0  0  0  0  0  0  0
   20.3850  -30.5690   34.7330 C   0  0  0  0  0  0  0  0  0  0  0  0
   21.5500  -31.2160   34.4400 F   0  0  0  0  0  0  0  0  0  0  0  0
   19.4790  -31.0140   33.8190 F   0  0  0  0  0  0  0  0  0  0  0  0
   20.6150  -29.2600   34.4260 F   0  0  0  0  0  0  0  0  0  0  0  0
   19.2745  -35.4680   39.1019 H   0  0  0  0  0  0  0  0  0  0  0  0
   17.9569  -34.3965   38.5167 H   0  0  0  0  0  0  0  0  0  0  0  0
   17.7321  -36.1787   38.5167 H   0  0  0  0  0  0  0  0  0  0  0  0
   18.6540  -36.2850   36.5730 H   0  0  0  0  0  0  0  0  0  0  0  0
   20.7892  -35.4779   38.1313 H   0  0  0  0  0  0  0  0  0  0  0  0
   20.8361  -36.3774   36.5772 H   0  0  0  0  0  0  0  0  0  0  0  0
   20.8803  -34.5817   36.5772 H   0  0  0  0  0  0  0  0  0  0  0  0
   18.1549  -34.6781   35.2459 H   0  0  0  0  0  0  0  0  0  0  0  0
   17.8180  -33.7353   36.7710 H   0  0  0  0  0  0  0  0  0  0  0  0
   20.6713  -33.8031   36.0624 H   0  0  0  0  0  0  0  0  0  0  0  0
   19.6238  -33.0335   34.7970 H   0  0  0  0  0  0  0  0  0  0  0  0
   18.9588  -33.1388   38.4366 H   0  0  0  0  0  0  0  0  0  0  0  0
   18.7555  -31.1274   39.8762 H   0  0  0  0  0  0  0  0  0  0  0  0
   21.7451  -28.3915   42.2961 H   0  0  0  0  0  0  0  0  0  0  0  0
   21.7980  -26.5383   43.9681 H   0  0  0  0  0  0  0  0  0  0  0  0
   20.2182  -24.6171   43.7564 H   0  0  0  0  0  0  0  0  0  0  0  0
   17.5880  -24.3680   42.2770 H   0  0  0  0  0  0  0  0  0  0  0  0
   16.8010  -26.9200   37.8740 H   0  0  0  0  0  0  0  0  0  0  0  0
   20.0381  -28.6432   36.5921 H   0  0  0  0  0  0  0  0  0  0  0  0
  1  2  1  0
  2  3  1  0
  2  4  1  0
  4  5  1  0
  5  6  1  0
  6  7  2  0
  7  8  1  0
  8  9  2  0
  9 10  1  0
 10 11  1  0
 11 12  1  0
 12 13  2  0
 13 14  1  0
 14 15  2  0
 15 16  1  0
 16 17  1  0
 16 18  2  0
 18 19  1  0
 19 20  2  0
 19 21  1  0
 21 22  1  0
  9 23  1  0
 23 24  2  0
 24 25  1  0
 25 26  1  0
 25 27  1  0
 25 28  1  0
 24  6  1  0
 21 10  2  0
 18 12  1  0
  1 29  1  0
  1 30  1  0
  1 31  1  0
  2 32  1  0
  3 33  1  0
  3 34  1  0
  3 35  1  0
  4 36  1  0
  4 37  1  0
  5 38  1  0
  5 39  1  0
  7 40  1  0
  8 41  1  0
 13 42  1  0
 14 43  1  0
 15 44  1  0
 17 45  1  0
 22 46  1  0
 23 47  1  0
M  CHG  1   2   1
M  END
>  <meeko>  (4) 
{"is_sidechain": [false], "free_energy": -7.572, "intermolecular_energy": -10.416, "internal_energy": -0.413}

$$$$
cand_024_out
     RDKit          3D

 47 49  0  0  0  0  0  0  0  0999 V2000
   18.0780  -21.6700   42.9370 C   0  0  0  0  0  0  0  0  0  0  0  0
   18.1630  -23.1110   43.1880 N   0  0  0  0  0  0  0  0  0  0  0  0
   18.3420  -23.3460   44.6250 C   0  0  0  0  0  0  0  0  0  0  0  0
   19.2700  -23.7330   42.4370 C   0  0  0  0  0  0  0  0  0  0  0  0
   19.7540  -25.0580   43.0560 C   0  0  0  0  0  0  0  0  0  0  0  0
   19.7920  -26.1790   42.0340 C   0  0  0  0  0  0  0  0  0  0  0  0
   18.8070  -26.1970   41.0320 C   0  0  0  0  0  0  0  0  0  0  0  0
   18.7800  -27.2070   40.0680 C   0  0  0  0  0  0  0  0  0  0  0  0
   19.7390  -28.2250   40.0720 C   0  0  0  0  0  0  0  0  0  0  0  0
   19.6820  -29.2950   39.0530 C   0  0  0  0  0  0  0  0  0  0  0  0
   19.4820  -30.5550   39.6010 O   0  0  0  0  0  0  0  0  0  0  0  0
   19.4070  -31.6380   38.7630 C   0  0  0  0  0  0  0  0  0  0  0  0
   19.2200  -32.8870   39.3570 C   0  0  0  0  0  0  0  0  0  0  0  0
   19.1340  -34.0310   38.5610 C   0  0  0  0  0  0  0  0  0  0  0  0
   19.2350  -33.9260   37.1720 C   0  0  0  0  0  0  0  0  0  0  0  0
   19.4210  -32.6790   36.5820 C   0  0  0  0  0  0  0  0  0  0  0  0
   19.5110  -32.6480   35.2170 O   0  0  0  0  0  0  0  0  0  0  0  0
   19.5080  -31.5350   37.3790 C   0  0  0  0  0  0  0  0  0  0  0  0
   19.7040  -30.2050   36.7990 C   0  0  0  0  0  0  0  0  0  0  0  0
   19.7940  -30.0300   35.5860 O   0  0  0  0  0  0  0  0  0  0  0  0
   19.7900  -29.0580   37.7320 C   0  0  0  0  0  0  0  0  0  0  0  0
   19.9610  -27.8040   37.1760 O   0  0  0  0  0  0  0  0  0  0  0  0
   20.7140  -28.2160   41.0800 C   0  0  0  0  0  0  0  0  0  0  0  0
   20.7590  -27.2070   42.0660 C   0  0  0  0  0  0  0  0  0  0  0  0
   21.8560  -27.2540   43.1080 C   0  0  0  0  0  0  0  0  0  0  0  0
   21.8110  -28.3620   43.9030 F   0  0  0  0  0  0  0  0  0  0  0  0
   23.1020  -27.2460   42.5590 F   0  0  0  0  0  0  0  0  0  0  0  0
   21.8170  -26.1950   43.9660 F   0  0  0  0  0  0  0  0  0  0  0  0
   18.0463  -21.1320   43.8959 H   0  0  0  0  0  0  0  0  0  0  0  0
   18.9585  -21.3452   42.3633 H   0  0  0  0  0  0  0  0  0  0  0  0
   17.1654  -21.4509   42.3633 H   0  0  0  0  0  0  0  0  0  0  0  0
   17.2940  -23.5410   42.8700 H   0  0  0  0  0  0  0  0  0  0  0  0
   17.7712  -22.5966   45.1930 H   0  0  0  0  0  0  0  0  0  0  0  0
   17.9800  -24.3530   44.8797 H   0  0  0  0  0  0  0  0  0  0  0  0
   19.4090  -23.2646   44.8797 H   0  0  0  0  0  0  0  0  0  0  0  0
   18.9282  -23.9310   41.4104 H   0  0  0  0  0  0  0  0  0  0  0  0
   20.1170  -23.0316   42.4624 H   0  0  0  0  0  0  0  0  0  0  0  0
   20.7659  -24.9123   43.4619 H   0  0  0  0  0  0  0  0  0  0  0  0
   19.0463  -25.3428   43.8485 H   0  0  0  0  0  0  0  0  0  0  0  0
   18.0456  -25.4035   41.0066 H   0  0  0  0  0  0  0  0  0  0  0  0
   17.9956  -27.2019   39.2968 H   0  0  0  0  0  0  0  0  0  0  0  0
   19.1405  -32.9701   40.4510 H   0  0  0  0  0  0  0  0  0  0  0  0
   18.9866  -35.0158   39.0284 H   0  0  0  0  0  0  0  0  0  0  0  0
   19.1677  -34.8274   36.5451 H   0  0  0  0  0  0  0  0  0  0  0  0
   19.4330  -31.8340   34.7610 H   0  0  0  0  0  0  0  0  0  0  0  0
   20.8120  -27.4090   37.1620 H   0  0  0  0  0  0  0  0  0  0  0  0
   21.4657  -29.0188   41.1029 H   0  0  0  0  0  0  0  0  0  0  0  0
  1  2  1  0
  2  3  1  0
  2  4  1  0
  4  5  1  0
  5  6  1  0
  6  7  2  0
  7  8  1  0
  8  9  2  0
  9 10  1  0
 10 11  1  0
 11 12  1  0
 12 13  2  0
 13 14  1  0
 14 15  2  0
 15 16  1  0
 16 17  1  0
 16 18  2  0
 18 19  1  0
 19 20  2  0
 19 21  1  0
 21 22  1  0
  9 23  1  0
 23 24  2  0
 24 25  1  0
 25 26  1  0
 25 27  1  0
 25 28  1  0
 24  6  1  0
 21 10  2  0
 18 12  1  0
  1 29  1  0
  1 30  1  0
  1 31  1  0
  2 32  1  0
  3 33  1  0
  3 34  1  0
  3 35  1  0
  4 36  1  0
  4 37  1  0
  5 38  1  0
  5 39  1  0
  7 40  1  0
  8 41  1  0
 13 42  1  0
 14 43  1  0
 15 44  1  0
 17 45  1  0
 22 46  1  0
 23 47  1  0
M  CHG  1   2   1
M  END
>  <meeko>  (5) 
{"is_sidechain": [false], "free_energy": -7.146, "intermolecular_energy": -10.164, "internal_energy": -0.089}

$$$$
cand_024_out
     RDKit          3D

 47 49  0  0  0  0  0  0  0  0999 V2000
   18.3590  -34.5790   39.3130 C   0  0  0  0  0  0  0  0  0  0  0  0
   18.5580  -34.9390   37.9060 N   0  0  0  0  0  0  0  0  0  0  0  0
   19.9130  -35.4700   37.7270 C   0  0  0  0  0  0  0  0  0  0  0  0
   18.3490  -33.7850   37.0100 C   0  0  0  0  0  0  0  0  0  0  0  0
   19.6610  -33.0880   36.6040 C   0  0  0  0  0  0  0  0  0  0  0  0
   19.6500  -31.6120   36.9580 C   0  0  0  0  0  0  0  0  0  0  0  0
   19.2920  -31.2470   38.2670 C   0  0  0  0  0  0  0  0  0  0  0  0
   19.2520  -29.9060   38.6540 C   0  0  0  0  0  0  0  0  0  0  0  0
   19.5750  -28.8900   37.7480 C   0  0  0  0  0  0  0  0  0  0  0  0
   19.5100  -27.4760   38.1740 C   0  0  0  0  0  0  0  0  0  0  0  0
   18.6050  -26.7280   37.4310 O   0  0  0  0  0  0  0  0  0  0  0  0
   18.4450  -25.3980   37.7250 C   0  0  0  0  0  0  0  0  0  0  0  0
   17.5360  -24.6810   36.9450 C   0  0  0  0  0  0  0  0  0  0  0  0
   17.3250  -23.3230   37.1920 C   0  0  0  0  0  0  0  0  0  0  0  0
   18.0220  -22.6830   38.2190 C   0  0  0  0  0  0  0  0  0  0  0  0
   18.9270  -23.4000   38.9960 C   0  0  0  0  0  0  0  0  0  0  0  0
   19.5750  -22.7110   39.9840 O   0  0  0  0  0  0  0  0  0  0  0  0
   19.1390  -24.7580   38.7470 C   0  0  0  0  0  0  0  0  0  0  0  0
   20.0820  -25.5490   39.5410 C   0  0  0  0  0  0  0  0  0  0  0  0
   20.7260  -25.0590   40.4650 O   0  0  0  0  0  0  0  0  0  0  0  0
   20.2380  -26.9800   39.1910 C   0  0  0  0  0  0  0  0  0  0  0  0
   21.1200  -27.7230   39.9540 O   0  0  0  0  0  0  0  0  0  0  0  0
   19.9190  -29.2520   36.4380 C   0  0  0  0  0  0  0  0  0  0  0  0
   19.9630  -30.6010   36.0240 C   0  0  0  0  0  0  0  0  0  0  0  0
   20.3650  -30.9140   34.5990 C   0  0  0  0  0  0  0  0  0  0  0  0
   21.6760  -31.2670   34.4630 F   0  0  0  0  0  0  0  0  0  0  0  0
   19.6500  -31.9430   34.0650 F   0  0  0  0  0  0  0  0  0  0  0  0
   20.1880  -29.8570   33.7550 F   0  0  0  0  0  0  0  0  0  0  0  0
   18.7908  -35.3601   39.9559 H   0  0  0  0  0  0  0  0  0  0  0  0
   18.8545  -33.6189   39.5194 H   0  0  0  0  0  0  0  0  0  0  0  0
   17.2824  -34.4879   39.5194 H   0  0  0  0  0  0  0  0  0  0  0  0
   17.8690  -35.6500   37.6590 H   0  0  0  0  0  0  0  0  0  0  0  0
   20.3697  -35.6490   38.7116 H   0  0  0  0  0  0  0  0  0  0  0  0
   19.8652  -36.4159   37.1676 H   0  0  0  0  0  0  0  0  0  0  0  0
   20.5206  -34.7435   37.1676 H   0  0  0  0  0  0  0  0  0  0  0  0
   17.8433  -34.1368   36.0987 H   0  0  0  0  0  0  0  0  0  0  0  0
   17.7439  -33.0491   37.5598 H   0  0  0  0  0  0  0  0  0  0  0  0
   20.4982  -33.5731   37.1272 H   0  0  0  0  0  0  0  0  0  0  0  0
   19.7709  -33.1764   35.5131 H   0  0  0  0  0  0  0  0  0  0  0  0
   19.0395  -32.0295   38.9977 H   0  0  0  0  0  0  0  0  0  0  0  0
   18.9632  -29.6454   39.6829 H   0  0  0  0  0  0  0  0  0  0  0  0
   16.9865  -25.1854   36.1365 H   0  0  0  0  0  0  0  0  0  0  0  0
   16.6095  -22.7571   36.5774 H   0  0  0  0  0  0  0  0  0  0  0  0
   17.8559  -21.6132   38.4136 H   0  0  0  0  0  0  0  0  0  0  0  0
   19.7190  -23.1130   40.8180 H   0  0  0  0  0  0  0  0  0  0  0  0
   20.7960  -28.2900   40.6270 H   0  0  0  0  0  0  0  0  0  0  0  0
   20.1616  -28.4622   35.7118 H   0  0  0  0  0  0  0  0  0  0  0  0
  1  2  1  0
  2  3  1  0
  2  4  1  0
  4  5  1  0
  5  6  1  0
  6  7  2  0
  7  8  1  0
  8  9  2  0
  9 10  1  0
 10 11  1  0
 11 12  1  0
 12 13  2  0
 13 14  1  0
 14 15  2  0
 15 16  1  0
 16 17  1  0
 16 18  2  0
 18 19  1  0
 19 20  2  0
 19 21  1  0
 21 22  1  0
  9 23  1  0
 23 24  2  0
 24 25  1  0
 25 26  1  0
 25 27  1  0
 25 28  1  0
 24  6  1  0
 21 10  2  0
 18 12  1  0
  1 29  1  0
  1 30  1  0
  1 31  1  0
  2 32  1  0
  3 33  1  0
  3 34  1  0
  3 35  1  0
  4 36  1  0
  4 37  1  0
  5 38  1  0
  5 39  1  0
  7 40  1  0
  8 41  1  0
 13 42  1  0
 14 43  1  0
 15 44  1  0
 17 45  1  0
 22 46  1  0
 23 47  1  0
M  CHG  1   2   1
M  END
>  <meeko>  (6) 
{"is_sidechain": [false], "free_energy": -7.143, "intermolecular_energy": -9.772, "internal_energy": -0.477}

$$$$
cand_024_out
     RDKit          3D

 47 49  0  0  0  0  0  0  0  0999 V2000
   19.6130  -24.4060   44.1250 C   0  0  0  0  0  0  0  0  0  0  0  0
   20.0960  -24.2970   42.7460 N   0  0  0  0  0  0  0  0  0  0  0  0
   19.5610  -23.0750   42.1380 C   0  0  0  0  0  0  0  0  0  0  0  0
   19.7110  -25.4700   41.9370 C   0  0  0  0  0  0  0  0  0  0  0  0
   19.8870  -25.2460   40.4240 C   0  0  0  0  0  0  0  0  0  0  0  0
   19.7850  -26.5450   39.6440 C   0  0  0  0  0  0  0  0  0  0  0  0
   20.0780  -27.7450   40.3140 C   0  0  0  0  0  0  0  0  0  0  0  0
   20.0130  -28.9720   39.6510 C   0  0  0  0  0  0  0  0  0  0  0  0
   19.6480  -29.0380   38.3020 C   0  0  0  0  0  0  0  0  0  0  0  0
   19.6020  -30.3460   37.6150 C   0  0  0  0  0  0  0  0  0  0  0  0
   20.0090  -30.2750   36.2890 O   0  0  0  0  0  0  0  0  0  0  0  0
   20.0170  -31.4220   35.5360 C   0  0  0  0  0  0  0  0  0  0  0  0
   20.4180  -31.3030   34.2050 C   0  0  0  0  0  0  0  0  0  0  0  0
   20.4500  -32.4320   33.3830 C   0  0  0  0  0  0  0  0  0  0  0  0
   20.0790  -33.6780   33.8920 C   0  0  0  0  0  0  0  0  0  0  0  0
   19.6790  -33.7940   35.2200 C   0  0  0  0  0  0  0  0  0  0  0  0
   19.3300  -35.0440   35.6540 O   0  0  0  0  0  0  0  0  0  0  0  0
   19.6470  -32.6650   36.0420 C   0  0  0  0  0  0  0  0  0  0  0  0
   19.2320  -32.7430   37.4440 C   0  0  0  0  0  0  0  0  0  0  0  0
   18.8990  -33.8040   37.9660 O   0  0  0  0  0  0  0  0  0  0  0  0
   19.2270  -31.4850   38.2260 C   0  0  0  0  0  0  0  0  0  0  0  0
   18.8470  -31.5700   39.5530 O   0  0  0  0  0  0  0  0  0  0  0  0
   19.3680  -27.8400   37.6300 C   0  0  0  0  0  0  0  0  0  0  0  0
   19.4300  -26.5880   38.2790 C   0  0  0  0  0  0  0  0  0  0  0  0
   19.0930  -25.3410   37.4900 C   0  0  0  0  0  0  0  0  0  0  0  0
   18.9330  -25.5630   36.1540 F   0  0  0  0  0  0  0  0  0  0  0  0
   17.9370  -24.7530   37.9060 F   0  0  0  0  0  0  0  0  0  0  0  0
   20.0560  -24.3790   37.5820 F   0  0  0  0  0  0  0  0  0  0  0  0
   20.4443  -24.2184   44.8206 H   0  0  0  0  0  0  0  0  0  0  0  0
   18.8183  -23.6646   44.2949 H   0  0  0  0  0  0  0  0  0  0  0  0
   19.2138  -25.4168   44.2949 H   0  0  0  0  0  0  0  0  0  0  0  0
   21.1160  -24.2580   42.7690 H   0  0  0  0  0  0  0  0  0  0  0  0
   19.2547  -22.3754   42.9296 H   0  0  0  0  0  0  0  0  0  0  0  0
   20.3362  -22.6062   41.5141 H   0  0  0  0  0  0  0  0  0  0  0  0
   18.6907  -23.3266   41.5141 H   0  0  0  0  0  0  0  0  0  0  0  0
   20.3355  -26.3236   42.2392 H   0  0  0  0  0  0  0  0  0  0  0  0
   18.6421  -25.6561   42.1182 H   0  0  0  0  0  0  0  0  0  0  0  0
   19.1040  -24.5578   40.0729 H   0  0  0  0  0  0  0  0  0  0  0  0
   20.8892  -24.8250   40.2558 H   0  0  0  0  0  0  0  0  0  0  0  0
   20.3627  -27.7172   41.3762 H   0  0  0  0  0  0  0  0  0  0  0  0
   20.2515  -29.8975   40.1956 H   0  0  0  0  0  0  0  0  0  0  0  0
   20.7087  -30.3211   33.8033 H   0  0  0  0  0  0  0  0  0  0  0  0
   20.7677  -32.3393   32.3340 H   0  0  0  0  0  0  0  0  0  0  0  0
   20.1028  -34.5668   33.2443 H   0  0  0  0  0  0  0  0  0  0  0  0
   18.8410  -35.6140   35.0930 H   0  0  0  0  0  0  0  0  0  0  0  0
   17.9410  -31.6620   39.7760 H   0  0  0  0  0  0  0  0  0  0  0  0
   19.0919  -27.8767   36.5658 H   0  0  0  0  0  0  0  0  0  0  0  0
  1  2  1  0
  2  3  1  0
  2  4  1  0
  4  5  1  0
  5  6  1  0
  6  7  2  0
  7  8  1  0
  8  9  2  0
  9 10  1  0
 10 11  1  0
 11 12  1  0
 12 13  2  0
 13 14  1  0
 14 15  2  0
 15 16  1  0
 16 17  1  0
 16 18  2  0
 18 19  1  0
 19 20  2  0
 19 21  1  0
 21 22  1  0
  9 23  1  0
 23 24  2  0
 24 25  1  0
 25 26  1  0
 25 27  1  0
 25 28  1  0
 24  6  1  0
 21 10  2  0
 18 12  1  0
  1 29  1  0
  1 30  1  0
  1 31  1  0
  2 32  1  0
  3 33  1  0
  3 34  1  0
  3 35  1  0
  4 36  1  0
  4 37  1  0
  5 38  1  0
  5 39  1  0
  7 40  1  0
  8 41  1  0
 13 42  1  0
 14 43  1  0
 15 44  1  0
 17 45  1  0
 22 46  1  0
 23 47  1  0
M  CHG  1   2   1
M  END
>  <meeko>  (7) 
{"is_sidechain": [false], "free_energy": -6.945, "intermolecular_energy": -9.785, "internal_energy": -0.197}

$$$$
cand_024_out
     RDKit          3D

 47 49  0  0  0  0  0  0  0  0999 V2000
   17.0900  -25.7010   34.3300 C   0  0  0  0  0  0  0  0  0  0  0  0
   17.8360  -26.9440   34.1200 N   0  0  0  0  0  0  0  0  0  0  0  0
   16.9170  -27.9950   33.6750 C   0  0  0  0  0  0  0  0  0  0  0  0
   18.5350  -27.3760   35.3460 C   0  0  0  0  0  0  0  0  0  0  0  0
   17.7320  -27.1010   36.6310 C   0  0  0  0  0  0  0  0  0  0  0  0
   18.6240  -27.0690   37.8590 C   0  0  0  0  0  0  0  0  0  0  0  0
   18.9830  -28.2930   38.4490 C   0  0  0  0  0  0  0  0  0  0  0  0
   19.7910  -28.3330   39.5870 C   0  0  0  0  0  0  0  0  0  0  0  0
   20.2700  -27.1530   40.1660 C   0  0  0  0  0  0  0  0  0  0  0  0
   21.1110  -27.2170   41.3800 C   0  0  0  0  0  0  0  0  0  0  0  0
   22.0980  -28.1910   41.3060 O   0  0  0  0  0  0  0  0  0  0  0  0
   22.9500  -28.3540   42.3680 C   0  0  0  0  0  0  0  0  0  0  0  0
   23.9170  -29.3540   42.2570 C   0  0  0  0  0  0  0  0  0  0  0  0
   24.8180  -29.5710   43.3020 C   0  0  0  0  0  0  0  0  0  0  0  0
   24.7500  -28.7910   44.4570 C   0  0  0  0  0  0  0  0  0  0  0  0
   23.7850  -27.7930   44.5660 C   0  0  0  0  0  0  0  0  0  0  0  0
   23.7750  -27.0660   45.7240 O   0  0  0  0  0  0  0  0  0  0  0  0
   22.8830  -27.5760   43.5200 C   0  0  0  0  0  0  0  0  0  0  0  0
   21.8530  -26.5390   43.5940 C   0  0  0  0  0  0  0  0  0  0  0  0
   21.7350  -25.8070   44.5730 O   0  0  0  0  0  0  0  0  0  0  0  0
   20.9430  -26.3960   42.4340 C   0  0  0  0  0  0  0  0  0  0  0  0
   19.9810  -25.4050   42.5060 O   0  0  0  0  0  0  0  0  0  0  0  0
   19.9020  -25.9310   39.5860 C   0  0  0  0  0  0  0  0  0  0  0  0
   19.0830  -25.8660   38.4370 C   0  0  0  0  0  0  0  0  0  0  0  0
   18.7470  -24.5100   37.8570 C   0  0  0  0  0  0  0  0  0  0  0  0
   19.3030  -23.4670   38.5390 F   0  0  0  0  0  0  0  0  0  0  0  0
   19.1670  -24.3710   36.5680 F   0  0  0  0  0  0  0  0  0  0  0  0
   17.4070  -24.2560   37.8440 F   0  0  0  0  0  0  0  0  0  0  0  0
   16.9798  -25.5173   35.4089 H   0  0  0  0  0  0  0  0  0  0  0  0
   17.6351  -24.8639   33.8694 H   0  0  0  0  0  0  0  0  0  0  0  0
   16.0949  -25.7883   33.8694 H   0  0  0  0  0  0  0  0  0  0  0  0
   18.5440  -26.7730   33.4050 H   0  0  0  0  0  0  0  0  0  0  0  0
   16.4797  -28.4951   34.5518 H   0  0  0  0  0  0  0  0  0  0  0  0
   16.1146  -27.5482   33.0696 H   0  0  0  0  0  0  0  0  0  0  0  0
   17.4668  -28.7307   33.0696 H   0  0  0  0  0  0  0  0  0  0  0  0
   18.7254  -28.4572   35.2774 H   0  0  0  0  0  0  0  0  0  0  0  0
   19.4671  -26.7958   35.4125 H   0  0  0  0  0  0  0  0  0  0  0  0
   17.2261  -26.1291   36.5333 H   0  0  0  0  0  0  0  0  0  0  0  0
   17.0038  -27.9154   36.7593 H   0  0  0  0  0  0  0  0  0  0  0  0
   18.6220  -29.2337   38.0076 H   0  0  0  0  0  0  0  0  0  0  0  0
   20.0539  -29.3034   40.0334 H   0  0  0  0  0  0  0  0  0  0  0  0
   23.9696  -29.9706   41.3476 H   0  0  0  0  0  0  0  0  0  0  0  0
   25.5820  -30.3576   43.2144 H   0  0  0  0  0  0  0  0  0  0  0  0
   25.4581  -28.9643   45.2807 H   0  0  0  0  0  0  0  0  0  0  0  0
   24.3210  -27.3210   46.4420 H   0  0  0  0  0  0  0  0  0  0  0  0
   19.4530  -25.2090   41.7560 H   0  0  0  0  0  0  0  0  0  0  0  0
   20.2616  -24.9953   40.0389 H   0  0  0  0  0  0  0  0  0  0  0  0
  1  2  1  0
  2  3  1  0
  2  4  1  0
  4  5  1  0
  5  6  1  0
  6  7  2  0
  7  8  1  0
  8  9  2  0
  9 10  1  0
 10 11  1  0
 11 12  1  0
 12 13  2  0
 13 14  1  0
 14 15  2  0
 15 16  1  0
 16 17  1  0
 16 18  2  0
 18 19  1  0
 19 20  2  0
 19 21  1  0
 21 22  1  0
  9 23  1  0
 23 24  2  0
 24 25  1  0
 25 26  1  0
 25 27  1  0
 25 28  1  0
 24  6  1  0
 21 10  2  0
 18 12  1  0
  1 29  1  0
  1 30  1  0
  1 31  1  0
  2 32  1  0
  3 33  1  0
  3 34  1  0
  3 35  1  0
  4 36  1  0
  4 37  1  0
  5 38  1  0
  5 39  1  0
  7 40  1  0
  8 41  1  0
 13 42  1  0
 14 43  1  0
 15 44  1  0
 17 45  1  0
 22 46  1  0
 23 47  1  0
M  CHG  1   2   1
M  END
>  <meeko>  (8) 
{"is_sidechain": [false], "free_energy": -6.932, "intermolecular_energy": -9.499, "internal_energy": -0.466}

$$$$
cand_024_out
     RDKit          3D

 47 49  0  0  0  0  0  0  0  0999 V2000
   19.6900  -29.6270   36.7890 C   0  0  0  0  0  0  0  0  0  0  0  0
   19.8120  -29.3960   38.2310 N   0  0  0  0  0  0  0  0  0  0  0  0
   19.2500  -30.5410   38.9570 C   0  0  0  0  0  0  0  0  0  0  0  0
   19.1300  -28.1560   38.6480 C   0  0  0  0  0  0  0  0  0  0  0  0
   20.0780  -26.9470   38.7480 C   0  0  0  0  0  0  0  0  0  0  0  0
   19.9270  -26.2180   40.0720 C   0  0  0  0  0  0  0  0  0  0  0  0
   20.1420  -26.9430   41.2560 C   0  0  0  0  0  0  0  0  0  0  0  0
   20.0090  -26.3350   42.5050 C   0  0  0  0  0  0  0  0  0  0  0  0
   19.6620  -24.9830   42.6100 C   0  0  0  0  0  0  0  0  0  0  0  0
   19.5090  -24.3630   43.9430 C   0  0  0  0  0  0  0  0  0  0  0  0
   20.5050  -24.7430   44.8350 O   0  0  0  0  0  0  0  0  0  0  0  0
   20.4810  -24.2360   46.1090 C   0  0  0  0  0  0  0  0  0  0  0  0
   21.4920  -24.6550   46.9760 C   0  0  0  0  0  0  0  0  0  0  0  0
   21.5270  -24.1760   48.2870 C   0  0  0  0  0  0  0  0  0  0  0  0
   20.5530  -23.2800   48.7310 C   0  0  0  0  0  0  0  0  0  0  0  0
   19.5470  -22.8630   47.8640 C   0  0  0  0  0  0  0  0  0  0  0  0
   18.6260  -21.9830   48.3640 O   0  0  0  0  0  0  0  0  0  0  0  0
   19.5110  -23.3430   46.5530 C   0  0  0  0  0  0  0  0  0  0  0  0
   18.4700  -22.9300   45.6090 C   0  0  0  0  0  0  0  0  0  0  0  0
   17.5830  -22.1400   45.9230 O   0  0  0  0  0  0  0  0  0  0  0  0
   18.5190  -23.5030   44.2440 C   0  0  0  0  0  0  0  0  0  0  0  0
   17.5400  -23.0980   43.3550 O   0  0  0  0  0  0  0  0  0  0  0  0
   19.4340  -24.2620   41.4290 C   0  0  0  0  0  0  0  0  0  0  0  0
   19.5600  -24.8580   40.1550 C   0  0  0  0  0  0  0  0  0  0  0  0
   19.3180  -24.0080   38.9260 C   0  0  0  0  0  0  0  0  0  0  0  0
   20.0960  -24.3520   37.8590 F   0  0  0  0  0  0  0  0  0  0  0  0
   18.0320  -24.0810   38.4820 F   0  0  0  0  0  0  0  0  0  0  0  0
   19.5660  -22.6840   39.1400 F   0  0  0  0  0  0  0  0  0  0  0  0
   19.1829  -30.5872   36.6131 H   0  0  0  0  0  0  0  0  0  0  0  0
   19.1036  -28.8142   36.3358 H   0  0  0  0  0  0  0  0  0  0  0  0
   20.6919  -29.6531   36.3358 H   0  0  0  0  0  0  0  0  0  0  0  0
   20.8030  -29.2940   38.4540 H   0  0  0  0  0  0  0  0  0  0  0  0
   19.3356  -30.3665   40.0397 H   0  0  0  0  0  0  0  0  0  0  0  0
   18.1903  -30.6616   38.6877 H   0  0  0  0  0  0  0  0  0  0  0  0
   19.8028  -31.4531   38.6877 H   0  0  0  0  0  0  0  0  0  0  0  0
   18.3447  -27.9248   37.9132 H   0  0  0  0  0  0  0  0  0  0  0  0
   18.7171  -28.3317   39.6523 H   0  0  0  0  0  0  0  0  0  0  0  0
   21.1156  -27.2996   38.6523 H   0  0  0  0  0  0  0  0  0  0  0  0
   19.8221  -26.2450   37.9407 H   0  0  0  0  0  0  0  0  0  0  0  0
   20.4193  -28.0059   41.1976 H   0  0  0  0  0  0  0  0  0  0  0  0
   20.1788  -26.9251   43.4177 H   0  0  0  0  0  0  0  0  0  0  0  0
   22.2596  -25.3613   46.6268 H   0  0  0  0  0  0  0  0  0  0  0  0
   22.3232  -24.5051   48.9709 H   0  0  0  0  0  0  0  0  0  0  0  0
   20.5804  -22.9041   49.7644 H   0  0  0  0  0  0  0  0  0  0  0  0
   18.0020  -21.5820   47.7910 H   0  0  0  0  0  0  0  0  0  0  0  0
   17.0590  -22.3100   43.5160 H   0  0  0  0  0  0  0  0  0  0  0  0
   19.1488  -23.2018   41.4970 H   0  0  0  0  0  0  0  0  0  0  0  0
  1  2  1  0
  2  3  1  0
  2  4  1  0
  4  5  1  0
  5  6  1  0
  6  7  2  0
  7  8  1  0
  8  9  2  0
  9 10  1  0
 10 11  1  0
 11 12  1  0
 12 13  2  0
 13 14  1  0
 14 15  2  0
 15 16  1  0
 16 17  1  0
 16 18  2  0
 18 19  1  0
 19 20  2  0
 19 21  1  0
 21 22  1  0
  9 23  1  0
 23 24  2  0
 24 25  1  0
 25 26  1  0
 25 27  1  0
 25 28  1  0
 24  6  1  0
 21 10  2  0
 18 12  1  0
  1 29  1  0
  1 30  1  0
  1 31  1  0
  2 32  1  0
  3 33  1  0
  3 34  1  0
  3 35  1  0
  4 36  1  0
  4 37  1  0
  5 38  1  0
  5 39  1  0
  7 40  1  0
  8 41  1  0
 13 42  1  0
 14 43  1  0
 15 44  1  0
 17 45  1  0
 22 46  1  0
 23 47  1  0
M  CHG  1   2   1
M  END
>  <meeko>  (9) 
{"is_sidechain": [false], "free_energy": -6.905, "intermolecular_energy": -9.79, "internal_energy": -0.137}

$$$$
