cand_008_out
     RDKit          3D

 35 37  0  0  0  0  0  0  0  0999 V2000
   19.9980  -32.0970   35.4500 O   0  0  0  0  0  0  0  0  0  0  0  0
   19.6590  -31.8770   36.6110 C   0  0  0  0  0  0  0  0  0  0  0  0
   19.6770  -30.4970   37.1500 C   0  0  0  0  0  0  0  0  0  0  0  0
   20.1020  -29.4930   36.2980 O   0  0  0  0  0  0  0  0  0  0  0  0
   19.3010  -30.3000   38.4270 C   0  0  0  0  0  0  0  0  0  0  0  0
   19.2910  -28.9700   39.0730 C   0  0  0  0  0  0  0  0  0  0  0  0
   18.3360  -28.0020   38.7490 C   0  0  0  0  0  0  0  0  0  0  0  0
   18.3320  -26.7590   39.3870 C   0  0  0  0  0  0  0  0  0  0  0  0
   19.2830  -26.4510   40.3730 C   0  0  0  0  0  0  0  0  0  0  0  0
   19.2490  -25.0990   41.0500 C   0  0  0  0  0  0  0  0  0  0  0  0
   20.3300  -24.3230   40.7500 F   0  0  0  0  0  0  0  0  0  0  0  0
   19.2470  -25.2040   42.4080 F   0  0  0  0  0  0  0  0  0  0  0  0
   20.2400  -27.4280   40.7290 C   0  0  0  0  0  0  0  0  0  0  0  0
   21.2850  -27.1530   41.7880 C   0  0  0  0  0  0  0  0  0  0  0  0
   20.8880  -27.5750   43.0220 F   0  0  0  0  0  0  0  0  0  0  0  0
   22.4670  -27.7930   41.5530 F   0  0  0  0  0  0  0  0  0  0  0  0
   20.2340  -28.6720   40.0690 C   0  0  0  0  0  0  0  0  0  0  0  0
   18.9030  -31.3200   39.2840 O   0  0  0  0  0  0  0  0  0  0  0  0
   18.8690  -32.6070   38.8110 C   0  0  0  0  0  0  0  0  0  0  0  0
   18.4520  -33.5980   39.7020 C   0  0  0  0  0  0  0  0  0  0  0  0
   18.3960  -34.9290   39.2860 C   0  0  0  0  0  0  0  0  0  0  0  0
   18.7550  -35.2700   37.9800 C   0  0  0  0  0  0  0  0  0  0  0  0
   19.1710  -34.2800   37.0930 C   0  0  0  0  0  0  0  0  0  0  0  0
   19.5090  -34.6830   35.8310 O   0  0  0  0  0  0  0  0  0  0  0  0
   19.2270  -32.9470   37.5100 C   0  0  0  0  0  0  0  0  0  0  0  0
   20.7050  -29.6890   35.6090 H   0  0  0  0  0  0  0  0  0  0  0  0
   17.5784  -28.2216   37.9823 H   0  0  0  0  0  0  0  0  0  0  0  0
   17.5732  -26.0112   39.1130 H   0  0  0  0  0  0  0  0  0  0  0  0
   18.3221  -24.6408   40.6746 H   0  0  0  0  0  0  0  0  0  0  0  0
   21.4165  -26.0615   41.7505 H   0  0  0  0  0  0  0  0  0  0  0  0
   20.9858  -29.4277   40.3403 H   0  0  0  0  0  0  0  0  0  0  0  0
   18.1680  -33.3300   40.7304 H   0  0  0  0  0  0  0  0  0  0  0  0
   18.0687  -35.7105   39.9876 H   0  0  0  0  0  0  0  0  0  0  0  0
   18.7092  -36.3191   37.6524 H   0  0  0  0  0  0  0  0  0  0  0  0
   20.4020  -34.8820   35.6270 H   0  0  0  0  0  0  0  0  0  0  0  0
  1  2  2  0
  2  3  1  0
  3  4  1  0
  3  5  2  0
  5  6  1  0
  6  7  2  0
  7  8  1  0
  8  9  2  0
  9 10  1  0
 10 11  1  0
 10 12  1  0
  9 13  1  0
 13 14  1  0
 14 15  1  0
 14 16  1  0
 13 17  2  0
  5 18  1  0
 18 19  1  0
 19 20  2  0
 20 21  1  0
 21 22  2  0
 22 23  1  0
 23 24  1  0
 23 25  2  0
 25  2  1  0
 17  6  1  0
 25 19  1  0
  4 26  1  0
  7 27  1  0
  8 28  1  0
 10 29  1  0
 14 30  1  0
 17 31  1  0
 20 32  1  0
 21 33  1  0
 22 34  1  0
 24 35  1  0
M  END
>  <meeko>  (1) 
{"is_sidechain": [false], "free_energy": -8.398, "intermolecular_energy": -10.361, "internal_energy": -0.451}

$$$$
cand_008_out
     RDKit          3D

 35 37  0  0  0  0  0  0  0  0999 V2000
   17.4760  -25.7020   39.6290 O   0  0  0  0  0  0  0  0  0  0  0  0
   18.2900  -26.6040   39.8170 C   0  0  0  0  0  0  0  0  0  0  0  0
   18.3210  -27.7870   38.9260 C   0  0  0  0  0  0  0  0  0  0  0  0
   17.3940  -27.8270   37.9000 O   0  0  0  0  0  0  0  0  0  0  0  0
   19.2270  -28.7520   39.1690 C   0  0  0  0  0  0  0  0  0  0  0  0
   19.3400  -29.9800   38.3530 C   0  0  0  0  0  0  0  0  0  0  0  0
   19.8000  -29.9470   37.0330 C   0  0  0  0  0  0  0  0  0  0  0  0
   19.9210  -31.1220   36.2870 C   0  0  0  0  0  0  0  0  0  0  0  0
   19.5880  -32.3670   36.8440 C   0  0  0  0  0  0  0  0  0  0  0  0
   19.7330  -33.6220   36.0130 C   0  0  0  0  0  0  0  0  0  0  0  0
   20.1050  -33.3720   34.7240 F   0  0  0  0  0  0  0  0  0  0  0  0
   18.5650  -34.3170   35.9230 F   0  0  0  0  0  0  0  0  0  0  0  0
   19.1450  -32.4210   38.1850 C   0  0  0  0  0  0  0  0  0  0  0  0
   18.7760  -33.7340   38.8380 C   0  0  0  0  0  0  0  0  0  0  0  0
   19.8160  -34.6170   38.8350 F   0  0  0  0  0  0  0  0  0  0  0  0
   18.4230  -33.6010   40.1480 F   0  0  0  0  0  0  0  0  0  0  0  0
   19.0210  -31.2240   38.9180 C   0  0  0  0  0  0  0  0  0  0  0  0
   20.1360  -28.7150   40.2200 O   0  0  0  0  0  0  0  0  0  0  0  0
   20.1360  -27.6300   41.0580 C   0  0  0  0  0  0  0  0  0  0  0  0
   21.0730  -27.6290   42.0930 C   0  0  0  0  0  0  0  0  0  0  0  0
   21.1260  -26.5550   42.9820 C   0  0  0  0  0  0  0  0  0  0  0  0
   20.2440  -25.4820   42.8390 C   0  0  0  0  0  0  0  0  0  0  0  0
   19.3100  -25.4850   41.8060 C   0  0  0  0  0  0  0  0  0  0  0  0
   18.4760  -24.4040   41.7240 O   0  0  0  0  0  0  0  0  0  0  0  0
   19.2570  -26.5610   40.9150 C   0  0  0  0  0  0  0  0  0  0  0  0
   16.8860  -27.0670   37.6980 H   0  0  0  0  0  0  0  0  0  0  0  0
   20.0701  -28.9835   36.5761 H   0  0  0  0  0  0  0  0  0  0  0  0
   20.2821  -31.0710   35.2492 H   0  0  0  0  0  0  0  0  0  0  0  0
   20.5100  -34.1959   36.5392 H   0  0  0  0  0  0  0  0  0  0  0  0
   17.9270  -34.0960   38.2395 H   0  0  0  0  0  0  0  0  0  0  0  0
   18.6656  -31.2659   39.9582 H   0  0  0  0  0  0  0  0  0  0  0  0
   21.7684  -28.4736   42.2074 H   0  0  0  0  0  0  0  0  0  0  0  0
   21.8643  -26.5535   43.7974 H   0  0  0  0  0  0  0  0  0  0  0  0
   20.2868  -24.6361   43.5408 H   0  0  0  0  0  0  0  0  0  0  0  0
   18.2900  -23.8970   42.4890 H   0  0  0  0  0  0  0  0  0  0  0  0
  1  2  2  0
  2  3  1  0
  3  4  1  0
  3  5  2  0
  5  6  1  0
  6  7  2  0
  7  8  1  0
  8  9  2  0
  9 10  1  0
 10 11  1  0
 10 12  1  0
  9 13  1  0
 13 14  1  0
 14 15  1  0
 14 16  1  0
 13 17  2  0
  5 18  1  0
 18 19  1  0
 19 20  2  0
 20 21  1  0
 21 22  2  0
 22 23  1  0
 23 24  1  0
 23 25  2  0
 25  2  1  0
 17  6  1  0
 25 19  1  0
  4 26  1  0
  7 27  1  0
  8 28  1  0
 10 29  1  0
 14 30  1  0
 17 31  1  0
 20 32  1  0
 21 33  1  0
 22 34  1  0
 24 35  1  0
M  END
>  <meeko>  (2) 
{"is_sidechain": [false], "free_energy": -8.258, "intermolecular_energy": -10.289, "internal_energy": -0.351}

$$$$
cand_008_out
     RDKit          3D

 35 37  0  0  0  0  0  0  0  0999 V2000
   17.5350  -25.7400   39.3990 O   0  0  0  0  0  0  0  0  0  0  0  0
   18.3170  -26.6490   39.6730 C   0  0  0  0  0  0  0  0  0  0  0  0
   18.3610  -27.8770   38.8460 C   0  0  0  0  0  0  0  0  0  0  0  0
   17.4820  -27.9500   37.7790 O   0  0  0  0  0  0  0  0  0  0  0  0
   19.2310  -28.8480   39.1820 C   0  0  0  0  0  0  0  0  0  0  0  0
   19.3530  -30.1180   38.4370 C   0  0  0  0  0  0  0  0  0  0  0  0
   18.9180  -31.3330   38.9770 C   0  0  0  0  0  0  0  0  0  0  0  0
   19.0220  -32.5200   38.2470 C   0  0  0  0  0  0  0  0  0  0  0  0
   19.5610  -32.5240   36.9510 C   0  0  0  0  0  0  0  0  0  0  0  0
   19.6570  -33.8240   36.1840 C   0  0  0  0  0  0  0  0  0  0  0  0
   18.5730  -34.0590   35.3900 F   0  0  0  0  0  0  0  0  0  0  0  0
   19.7400  -34.9030   37.0110 F   0  0  0  0  0  0  0  0  0  0  0  0
   19.9830  -31.3010   36.3810 C   0  0  0  0  0  0  0  0  0  0  0  0
   20.5670  -31.2460   34.9870 C   0  0  0  0  0  0  0  0  0  0  0  0
   19.6700  -31.6390   34.0390 F   0  0  0  0  0  0  0  0  0  0  0  0
   20.9530  -29.9910   34.6170 F   0  0  0  0  0  0  0  0  0  0  0  0
   19.8780  -30.1170   37.1350 C   0  0  0  0  0  0  0  0  0  0  0  0
   20.0900  -28.7760   40.2720 O   0  0  0  0  0  0  0  0  0  0  0  0
   20.0760  -27.6480   41.0530 C   0  0  0  0  0  0  0  0  0  0  0  0
   20.9640  -27.6130   42.1300 C   0  0  0  0  0  0  0  0  0  0  0  0
   21.0010  -26.4950   42.9650 C   0  0  0  0  0  0  0  0  0  0  0  0
   20.1520  -25.4120   42.7240 C   0  0  0  0  0  0  0  0  0  0  0  0
   19.2680  -25.4490   41.6490 C   0  0  0  0  0  0  0  0  0  0  0  0
   18.4660  -24.3570   41.4710 O   0  0  0  0  0  0  0  0  0  0  0  0
   19.2310  -26.5690   40.8120 C   0  0  0  0  0  0  0  0  0  0  0  0
   17.8110  -28.0420   36.9080 H   0  0  0  0  0  0  0  0  0  0  0  0
   18.4885  -31.3543   39.9895 H   0  0  0  0  0  0  0  0  0  0  0  0
   18.6768  -33.4639   38.6940 H   0  0  0  0  0  0  0  0  0  0  0  0
   20.5664  -33.7043   35.5768 H   0  0  0  0  0  0  0  0  0  0  0  0
   21.4326  -31.9228   35.0382 H   0  0  0  0  0  0  0  0  0  0  0  0
   20.2155  -29.1678   36.6933 H   0  0  0  0  0  0  0  0  0  0  0  0
   21.6333  -28.4650   42.3201 H   0  0  0  0  0  0  0  0  0  0  0  0
   21.6997  -26.4667   43.8141 H   0  0  0  0  0  0  0  0  0  0  0  0
   20.1819  -24.5314   43.3825 H   0  0  0  0  0  0  0  0  0  0  0  0
   18.3940  -23.7130   42.1480 H   0  0  0  0  0  0  0  0  0  0  0  0
  1  2  2  0
  2  3  1  0
  3  4  1  0
  3  5  2  0
  5  6  1  0
  6  7  2  0
  7  8  1  0
  8  9  2  0
  9 10  1  0
 10 11  1  0
 10 12  1  0
  9 13  1  0
 13 14  1  0
 14 15  1  0
 14 16  1  0
 13 17  2  0
  5 18  1  0
 18 19  1  0
 19 20  2  0
 20 21  1  0
 21 22  2  0
 22 23  1  0
 23 24  1  0
 23 25  2  0
 25  2  1  0
 17  6  1  0
 25 19  1  0
  4 26  1  0
  7 27  1  0
  8 28  1  0
 10 29  1  0
 14 30  1  0
 17 31  1  0
 20 32  1  0
 21 33  1  0
 22 34  1  0
 24 35  1  0
M  END
>  <meeko>  (3) 
{"is_sidechain": [false], "free_energy": -7.706, "intermolecular_energy": -9.428, "internal_energy": -0.53}

$$$$
cand_008_out
     RDKit          3D

 35 37  0  0  0  0  0  0  0  0999 V2000
   20.2210  -32.0550   35.4140 O   0  0  0  0  0  0  0  0  0  0  0  0
   19.8360  -31.7310   36.5350 C   0  0  0  0  0  0  0  0  0  0  0  0
   19.8270  -30.3080   36.9450 C   0  0  0  0  0  0  0  0  0  0  0  0
   20.2810  -29.3830   36.0210 O   0  0  0  0  0  0  0  0  0  0  0  0
   19.3990  -29.9970   38.1830 C   0  0  0  0  0  0  0  0  0  0  0  0
   19.3580  -28.6140   38.7020 C   0  0  0  0  0  0  0  0  0  0  0  0
   19.9740  -28.2610   39.9070 C   0  0  0  0  0  0  0  0  0  0  0  0
   19.9430  -26.9430   40.3690 C   0  0  0  0  0  0  0  0  0  0  0  0
   19.2970  -25.9370   39.6340 C   0  0  0  0  0  0  0  0  0  0  0  0
   19.2840  -24.5180   40.1580 C   0  0  0  0  0  0  0  0  0  0  0  0
   19.8630  -23.6260   39.3030 F   0  0  0  0  0  0  0  0  0  0  0  0
   19.9730  -24.3960   41.3270 F   0  0  0  0  0  0  0  0  0  0  0  0
   18.6910  -26.2710   38.4020 C   0  0  0  0  0  0  0  0  0  0  0  0
   17.9840  -25.2270   37.5660 C   0  0  0  0  0  0  0  0  0  0  0  0
   18.8540  -24.5090   36.8000 F   0  0  0  0  0  0  0  0  0  0  0  0
   17.0880  -25.7600   36.6880 F   0  0  0  0  0  0  0  0  0  0  0  0
   18.7250  -27.6070   37.9570 C   0  0  0  0  0  0  0  0  0  0  0  0
   18.9720  -30.9360   39.1140 O   0  0  0  0  0  0  0  0  0  0  0  0
   18.9620  -32.2620   38.7610 C   0  0  0  0  0  0  0  0  0  0  0  0
   18.5140  -33.1700   39.7230 C   0  0  0  0  0  0  0  0  0  0  0  0
   18.4790  -34.5340   39.4290 C   0  0  0  0  0  0  0  0  0  0  0  0
   18.8920  -34.9910   38.1750 C   0  0  0  0  0  0  0  0  0  0  0  0
   19.3380  -34.0840   37.2180 C   0  0  0  0  0  0  0  0  0  0  0  0
   19.7280  -34.5990   36.0130 O   0  0  0  0  0  0  0  0  0  0  0  0
   19.3720  -32.7170   37.5120 C   0  0  0  0  0  0  0  0  0  0  0  0
   21.1980  -29.3050   35.8500 H   0  0  0  0  0  0  0  0  0  0  0  0
   20.4898  -29.0315   40.4989 H   0  0  0  0  0  0  0  0  0  0  0  0
   20.4315  -26.6903   41.3216 H   0  0  0  0  0  0  0  0  0  0  0  0
   18.2146  -24.2961   40.2890 H   0  0  0  0  0  0  0  0  0  0  0  0
   17.4744  -24.5962   38.3092 H   0  0  0  0  0  0  0  0  0  0  0  0
   18.2439  -27.8673   37.0027 H   0  0  0  0  0  0  0  0  0  0  0  0
   18.1893  -32.8108   40.7107 H   0  0  0  0  0  0  0  0  0  0  0  0
   18.1258  -35.2501   40.1856 H   0  0  0  0  0  0  0  0  0  0  0  0
   18.8647  -36.0662   37.9443 H   0  0  0  0  0  0  0  0  0  0  0  0
   20.6250  -34.8290   35.8700 H   0  0  0  0  0  0  0  0  0  0  0  0
  1  2  2  0
  2  3  1  0
  3  4  1  0
  3  5  2  0
  5  6  1  0
  6  7  2  0
  7  8  1  0
  8  9  2  0
  9 10  1  0
 10 11  1  0
 10 12  1  0
  9 13  1  0
 13 14  1  0
 14 15  1  0
 14 16  1  0
 13 17  2  0
  5 18  1  0
 18 19  1  0
 19 20  2  0
 20 21  1  0
 21 22  2  0
 22 23  1  0
 23 24  1  0
 23 25  2  0
 25  2  1  0
 17  6  1  0
 25 19  1  0
  4 26  1  0
  7 27  1  0
  8 28  1  0
 10 29  1  0
 14 30  1  0
 17 31  1  0
 20 32  1  0
 21 33  1  0
 22 34  1  0
 24 35  1  0
M  END
>  <meeko>  (4) 
{"is_sidechain": [false], "free_energy": -7.586, "intermolecular_energy": -9.508, "internal_energy": -0.303}

$$$$
cand_008_out
     RDKit          3D

 35 37  0  0  0  0  0  0  0  0999 V2000
   20.8090  -24.9800   40.4650 O   0  0  0  0  0  0  0  0  0  0  0  0
   20.1110  -25.4440   39.5660 C   0  0  0  0  0  0  0  0  0  0  0  0
   20.2380  -26.8680   39.1760 C   0  0  0  0  0  0  0  0  0  0  0  0
   21.1760  -27.6260   39.8540 O   0  0  0  0  0  0  0  0  0  0  0  0
   19.4560  -27.3350   38.1850 C   0  0  0  0  0  0  0  0  0  0  0  0
   19.5060  -28.7330   37.7060 C   0  0  0  0  0  0  0  0  0  0  0  0
   19.7780  -29.0430   36.3700 C   0  0  0  0  0  0  0  0  0  0  0  0
   19.8430  -30.3720   35.9420 C   0  0  0  0  0  0  0  0  0  0  0  0
   19.6400  -31.4300   36.8420 C   0  0  0  0  0  0  0  0  0  0  0  0
   19.7200  -32.8570   36.3500 C   0  0  0  0  0  0  0  0  0  0  0  0
   20.1930  -32.9590   35.0740 F   0  0  0  0  0  0  0  0  0  0  0  0
   18.5000  -33.4640   36.3320 F   0  0  0  0  0  0  0  0  0  0  0  0
   19.3870  -31.1340   38.2010 C   0  0  0  0  0  0  0  0  0  0  0  0
   19.1650  -32.2330   39.2150 C   0  0  0  0  0  0  0  0  0  0  0  0
   19.9860  -32.1060   40.2960 F   0  0  0  0  0  0  0  0  0  0  0  0
   17.9000  -32.2450   39.7240 F   0  0  0  0  0  0  0  0  0  0  0  0
   19.3180  -29.7880   38.6110 C   0  0  0  0  0  0  0  0  0  0  0  0
   18.5370  -26.5580   37.4910 O   0  0  0  0  0  0  0  0  0  0  0  0
   18.3920  -25.2380   37.8340 C   0  0  0  0  0  0  0  0  0  0  0  0
   17.4490  -24.4980   37.1190 C   0  0  0  0  0  0  0  0  0  0  0  0
   17.2520  -23.1480   37.4170 C   0  0  0  0  0  0  0  0  0  0  0  0
   17.9960  -22.5390   38.4300 C   0  0  0  0  0  0  0  0  0  0  0  0
   18.9360  -23.2790   39.1420 C   0  0  0  0  0  0  0  0  0  0  0  0
   19.6300  -22.6210   40.1180 O   0  0  0  0  0  0  0  0  0  0  0  0
   19.1330  -24.6310   38.8430 C   0  0  0  0  0  0  0  0  0  0  0  0
   21.9030  -27.9930   39.3930 H   0  0  0  0  0  0  0  0  0  0  0  0
   19.9429  -28.2308   35.6467 H   0  0  0  0  0  0  0  0  0  0  0  0
   20.0561  -30.5919   34.8855 H   0  0  0  0  0  0  0  0  0  0  0  0
   20.4064  -33.3407   37.0606 H   0  0  0  0  0  0  0  0  0  0  0  0
   19.3682  -33.1557   38.6516 H   0  0  0  0  0  0  0  0  0  0  0  0
   19.1116  -29.5587   39.6669 H   0  0  0  0  0  0  0  0  0  0  0  0
   16.8618  -24.9775   36.3219 H   0  0  0  0  0  0  0  0  0  0  0  0
   16.5100  -22.5636   36.8532 H   0  0  0  0  0  0  0  0  0  0  0  0
   17.8394  -21.4759   38.6650 H   0  0  0  0  0  0  0  0  0  0  0  0
   19.2840  -22.5730   40.9880 H   0  0  0  0  0  0  0  0  0  0  0  0
  1  2  2  0
  2  3  1  0
  3  4  1  0
  3  5  2  0
  5  6  1  0
  6  7  2  0
  7  8  1  0
  8  9  2  0
  9 10  1  0
 10 11  1  0
 10 12  1  0
  9 13  1  0
 13 14  1  0
 14 15  1  0
 14 16  1  0
 13 17  2  0
  5 18  1  0
 18 19  1  0
 19 20  2  0
 20 21  1  0
 21 22  2  0
 22 23  1  0
 23 24  1  0
 23 25  2  0
 25  2  1  0
 17  6  1  0
 25 19  1  0
  4 26  1  0
  7 27  1  0
  8 28  1  0
 10 29  1  0
 14 30  1  0
 17 31  1  0
 20 32  1  0
 21 33  1  0
 22 34  1  0
 24 35  1  0
M  END
>  <meeko>  (5) 
{"is_sidechain": [false], "free_energy": -7.326, "intermolecular_energy": -9.062, "internal_energy": -0.428}

$$$$
cand_008_out
     RDKit          3D

 35 37  0  0  0  0  0  0  0  0999 V2000
   19.4130  -33.1890   37.7650 O   0  0  0  0  0  0  0  0  0  0  0  0
   19.5650  -32.0150   37.4310 C   0  0  0  0  0  0  0  0  0  0  0  0
   19.4240  -30.9270   38.4260 C   0  0  0  0  0  0  0  0  0  0  0  0
   19.1050  -31.2950   39.7210 O   0  0  0  0  0  0  0  0  0  0  0  0
   19.5960  -29.6560   38.0180 C   0  0  0  0  0  0  0  0  0  0  0  0
   19.4680  -28.4920   38.9200 C   0  0  0  0  0  0  0  0  0  0  0  0
   18.4020  -27.5920   38.8140 C   0  0  0  0  0  0  0  0  0  0  0  0
   18.2880  -26.5100   39.6910 C   0  0  0  0  0  0  0  0  0  0  0  0
   19.2360  -26.3010   40.7040 C   0  0  0  0  0  0  0  0  0  0  0  0
   19.0830  -25.1230   41.6410 C   0  0  0  0  0  0  0  0  0  0  0  0
   20.0060  -24.1420   41.4250 F   0  0  0  0  0  0  0  0  0  0  0  0
   19.2370  -25.4820   42.9470 F   0  0  0  0  0  0  0  0  0  0  0  0
   20.3060  -27.2140   40.8410 C   0  0  0  0  0  0  0  0  0  0  0  0
   21.3540  -27.0400   41.9170 C   0  0  0  0  0  0  0  0  0  0  0  0
   20.9820  -27.6190   43.0940 F   0  0  0  0  0  0  0  0  0  0  0  0
   22.5500  -27.6120   41.5980 F   0  0  0  0  0  0  0  0  0  0  0  0
   20.4090  -28.2940   39.9420 C   0  0  0  0  0  0  0  0  0  0  0  0
   19.8880  -29.2950   36.7080 O   0  0  0  0  0  0  0  0  0  0  0  0
   20.0320  -30.2810   35.7660 C   0  0  0  0  0  0  0  0  0  0  0  0
   20.3370  -29.8740   34.4660 C   0  0  0  0  0  0  0  0  0  0  0  0
   20.4960  -30.8270   33.4580 C   0  0  0  0  0  0  0  0  0  0  0  0
   20.3500  -32.1860   33.7490 C   0  0  0  0  0  0  0  0  0  0  0  0
   20.0450  -32.5890   35.0460 C   0  0  0  0  0  0  0  0  0  0  0  0
   19.9150  -33.9330   35.2610 O   0  0  0  0  0  0  0  0  0  0  0  0
   19.8870  -31.6340   36.0560 C   0  0  0  0  0  0  0  0  0  0  0  0
   19.0210  -32.2000   39.9430 H   0  0  0  0  0  0  0  0  0  0  0  0
   17.6440  -27.7380   38.0303 H   0  0  0  0  0  0  0  0  0  0  0  0
   17.4437  -25.8128   39.5857 H   0  0  0  0  0  0  0  0  0  0  0  0
   18.0671  -24.7548   41.4352 H   0  0  0  0  0  0  0  0  0  0  0  0
   21.4551  -25.9487   42.0106 H   0  0  0  0  0  0  0  0  0  0  0  0
   21.2473  -28.9990   40.0437 H   0  0  0  0  0  0  0  0  0  0  0  0
   20.4519  -28.8044   34.2361 H   0  0  0  0  0  0  0  0  0  0  0  0
   20.7366  -30.5076   32.4333 H   0  0  0  0  0  0  0  0  0  0  0  0
   20.4759  -32.9361   32.9543 H   0  0  0  0  0  0  0  0  0  0  0  0
   20.1330  -34.2960   36.0970 H   0  0  0  0  0  0  0  0  0  0  0  0
  1  2  2  0
  2  3  1  0
  3  4  1  0
  3  5  2  0
  5  6  1  0
  6  7  2  0
  7  8  1  0
  8  9  2  0
  9 10  1  0
 10 11  1  0
 10 12  1  0
  9 13  1  0
 13 14  1  0
 14 15  1  0
 14 16  1  0
 13 17  2  0
  5 18  1  0
 18 19  1  0
 19 20  2  0
 20 21  1  0
 21 22  2  0
 22 23  1  0
 23 24  1  0
 23 25  2  0
 25  2  1  0
 17  6  1  0
 25 19  1  0
  4 26  1  0
  7 27  1  0
  8 28  1  0
 10 29  1  0
 14 30  1  0
 17 31  1  0
 20 32  1  0
 21 33  1  0
 22 34  1  0
 24 35  1  0
M  END
>  <meeko>  (6) 
{"is_sidechain": [false], "free_energy": -7.324, "intermolecular_energy": -9.175, "internal_energy": -0.313}

$$$$
cand_008_out
     RDKit          3D

 35 37  0  0  0  0  0  0  0  0999 V2000
   21.4510  -25.7330   44.3980 O   0  0  0  0  0  0  0  0  0  0  0  0
   21.6780  -26.4720   43.4430 C   0  0  0  0  0  0  0  0  0  0  0  0
   20.8540  -26.3880   42.2150 C   0  0  0  0  0  0  0  0  0  0  0  0
   19.8260  -25.4620   42.2080 O   0  0  0  0  0  0  0  0  0  0  0  0
   21.1350  -27.2170   41.1930 C   0  0  0  0  0  0  0  0  0  0  0  0
   20.3730  -27.2290   39.9260 C   0  0  0  0  0  0  0  0  0  0  0  0
   19.8230  -28.4070   39.4090 C   0  0  0  0  0  0  0  0  0  0  0  0
   19.0860  -28.3930   38.2220 C   0  0  0  0  0  0  0  0  0  0  0  0
   18.8740  -27.1960   37.5200 C   0  0  0  0  0  0  0  0  0  0  0  0
   18.0690  -27.2120   36.2400 C   0  0  0  0  0  0  0  0  0  0  0  0
   16.7300  -27.3660   36.4510 F   0  0  0  0  0  0  0  0  0  0  0  0
   18.4250  -28.2420   35.4210 F   0  0  0  0  0  0  0  0  0  0  0  0
   19.4020  -25.9930   38.0410 C   0  0  0  0  0  0  0  0  0  0  0  0
   19.2010  -24.6750   37.3290 C   0  0  0  0  0  0  0  0  0  0  0  0
   17.9230  -24.2160   37.4500 F   0  0  0  0  0  0  0  0  0  0  0  0
   19.9880  -23.6750   37.8190 F   0  0  0  0  0  0  0  0  0  0  0  0
   20.1490  -26.0290   39.2340 C   0  0  0  0  0  0  0  0  0  0  0  0
   22.1520  -28.1640   41.2200 O   0  0  0  0  0  0  0  0  0  0  0  0
   22.9380  -28.2610   42.3410 C   0  0  0  0  0  0  0  0  0  0  0  0
   23.9550  -29.2170   42.3200 C   0  0  0  0  0  0  0  0  0  0  0  0
   24.7890  -29.3680   43.4290 C   0  0  0  0  0  0  0  0  0  0  0  0
   24.6080  -28.5640   44.5570 C   0  0  0  0  0  0  0  0  0  0  0  0
   23.5930  -27.6120   44.5750 C   0  0  0  0  0  0  0  0  0  0  0  0
   23.4710  -26.8600   45.7100 O   0  0  0  0  0  0  0  0  0  0  0  0
   22.7570  -27.4600   43.4640 C   0  0  0  0  0  0  0  0  0  0  0  0
   19.7750  -24.8150   42.8830 H   0  0  0  0  0  0  0  0  0  0  0  0
   19.9727  -29.3565   39.9439 H   0  0  0  0  0  0  0  0  0  0  0  0
   18.6664  -29.3323   37.8325 H   0  0  0  0  0  0  0  0  0  0  0  0
   18.2833  -26.2343   35.7837 H   0  0  0  0  0  0  0  0  0  0  0  0
   19.4595  -24.9002   36.2838 H   0  0  0  0  0  0  0  0  0  0  0  0
   20.5673  -25.0933   39.6334 H   0  0  0  0  0  0  0  0  0  0  0  0
   24.0988  -29.8497   41.4317 H   0  0  0  0  0  0  0  0  0  0  0  0
   25.5903  -30.1215   43.4148 H   0  0  0  0  0  0  0  0  0  0  0  0
   25.2668  -28.6832   45.4298 H   0  0  0  0  0  0  0  0  0  0  0  0
   24.0330  -27.0230   46.4420 H   0  0  0  0  0  0  0  0  0  0  0  0
  1  2  2  0
  2  3  1  0
  3  4  1  0
  3  5  2  0
  5  6  1  0
  6  7  2  0
  7  8  1  0
  8  9  2  0
  9 10  1  0
 10 11  1  0
 10 12  1  0
  9 13  1  0
 13 14  1  0
 14 15  1  0
 14 16  1  0
 13 17  2  0
  5 18  1  0
 18 19  1  0
 19 20  2  0
 20 21  1  0
 21 22  2  0
 22 23  1  0
 23 24  1  0
 23 25  2  0
 25  2  1  0
 17  6  1  0
 25 19  1  0
  4 26  1  0
  7 27  1  0
  8 28  1  0
 10 29  1  0
 14 30  1  0
 17 31  1  0
 20 32  1  0
 21 33  1  0
 22 34  1  0
 24 35  1  0
M  END
>  <meeko>  (7) 
{"is_sidechain": [false], "free_energy": -7.181, "intermolecular_energy": -8.925, "internal_energy": -0.386}

$$$$
cand_008_out
     RDKit          3D

 35 37  0  0  0  0  0  0  0  0999 V2000
   20.5480  -25.4430   40.0300 O   0  0  0  0  0  0  0  0  0  0  0  0
   19.9820  -26.1240   39.1770 C   0  0  0  0  0  0  0  0  0  0  0  0
   20.0100  -27.6030   39.2560 C   0  0  0  0  0  0  0  0  0  0  0  0
   20.7070  -28.1640   40.3120 O   0  0  0  0  0  0  0  0  0  0  0  0
   19.3800  -28.3100   38.3010 C   0  0  0  0  0  0  0  0  0  0  0  0
   19.3530  -29.7880   38.2720 C   0  0  0  0  0  0  0  0  0  0  0  0
   18.9690  -30.5390   39.3880 C   0  0  0  0  0  0  0  0  0  0  0  0
   18.9300  -31.9350   39.3330 C   0  0  0  0  0  0  0  0  0  0  0  0
   19.2690  -32.6200   38.1550 C   0  0  0  0  0  0  0  0  0  0  0  0
   19.2120  -34.1300   38.1250 C   0  0  0  0  0  0  0  0  0  0  0  0
   18.0750  -34.6130   37.5450 F   0  0  0  0  0  0  0  0  0  0  0  0
   19.2360  -34.6700   39.3760 F   0  0  0  0  0  0  0  0  0  0  0  0
   19.6360  -31.8750   37.0110 C   0  0  0  0  0  0  0  0  0  0  0  0
   20.0070  -32.5600   35.7150 C   0  0  0  0  0  0  0  0  0  0  0  0
   18.9520  -33.2260   35.1660 F   0  0  0  0  0  0  0  0  0  0  0  0
   20.4240  -31.6910   34.7500 F   0  0  0  0  0  0  0  0  0  0  0  0
   19.6780  -30.4690   37.0890 C   0  0  0  0  0  0  0  0  0  0  0  0
   18.7070  -27.7370   37.2280 O   0  0  0  0  0  0  0  0  0  0  0  0
   18.6580  -26.3690   37.1310 C   0  0  0  0  0  0  0  0  0  0  0  0
   17.9620  -25.8370   36.0450 C   0  0  0  0  0  0  0  0  0  0  0  0
   17.8740  -24.4520   35.8870 C   0  0  0  0  0  0  0  0  0  0  0  0
   18.4810  -23.6010   36.8130 C   0  0  0  0  0  0  0  0  0  0  0  0
   19.1740  -24.1350   37.8960 C   0  0  0  0  0  0  0  0  0  0  0  0
   19.7450  -23.2460   38.7640 O   0  0  0  0  0  0  0  0  0  0  0  0
   19.2620  -25.5220   38.0550 C   0  0  0  0  0  0  0  0  0  0  0  0
   21.5540  -27.8380   40.5390 H   0  0  0  0  0  0  0  0  0  0  0  0
   18.6943  -30.0243   40.3206 H   0  0  0  0  0  0  0  0  0  0  0  0
   18.6297  -32.5049   40.2246 H   0  0  0  0  0  0  0  0  0  0  0  0
   20.0992  -34.4139   37.5400 H   0  0  0  0  0  0  0  0  0  0  0  0
   20.8187  -33.2442   36.0030 H   0  0  0  0  0  0  0  0  0  0  0  0
   19.9728  -29.8909   36.2008 H   0  0  0  0  0  0  0  0  0  0  0  0
   17.4838  -26.5067   35.3151 H   0  0  0  0  0  0  0  0  0  0  0  0
   17.3255  -24.0308   35.0316 H   0  0  0  0  0  0  0  0  0  0  0  0
   18.4117  -22.5104   36.6869 H   0  0  0  0  0  0  0  0  0  0  0  0
   19.2320  -22.8670   39.4500 H   0  0  0  0  0  0  0  0  0  0  0  0
  1  2  2  0
  2  3  1  0
  3  4  1  0
  3  5  2  0
  5  6  1  0
  6  7  2  0
  7  8  1  0
  8  9  2  0
  9 10  1  0
 10 11  1  0
 10 12  1  0
  9 13  1  0
 13 14  1  0
 14 15  1  0
 14 16  1  0
 13 17  2  0
  5 18  1  0
 18 19  1  0
 19 20  2  0
 20 21  1  0
 21 22  2  0
 22 23  1  0
 23 24  1  0
 23 25  2  0
 25  2  1  0
 17  6  1  0
 25 19  1  0
  4 26  1  0
  7 27  1  0
  8 28  1  0
 10 29  1  0
 14 30  1  0
 17 31  1  0
 20 32  1  0
 21 33  1  0
 22 34  1  0
 24 35  1  0
M  END
>  <meeko>  (8) 
{"is_sidechain": [false], "free_energy": -7.159, "intermolecular_energy": -8.88, "internal_energy": -0.404}

$$$$
cand_008_out
     RDKit          3D

 35 37  0  0  0  0  0  0  0  0999 V2000
   18.8610  -28.1280   36.7870 O   0  0  0  0  0  0  0  0  0  0  0  0
   19.2130  -27.2420   37.5630 C   0  0  0  0  0  0  0  0  0  0  0  0
   19.8790  -27.5840   38.8420 C   0  0  0  0  0  0  0  0  0  0  0  0
   20.0650  -28.9280   39.1150 O   0  0  0  0  0  0  0  0  0  0  0  0
   20.2460  -26.5840   39.6630 C   0  0  0  0  0  0  0  0  0  0  0  0
   20.9050  -26.8080   40.9680 C   0  0  0  0  0  0  0  0  0  0  0  0
   20.3940  -26.2690   42.1530 C   0  0  0  0  0  0  0  0  0  0  0  0
   21.0200  -26.5110   43.3780 C   0  0  0  0  0  0  0  0  0  0  0  0
   22.1750  -27.3060   43.4530 C   0  0  0  0  0  0  0  0  0  0  0  0
   22.8270  -27.5540   44.7940 C   0  0  0  0  0  0  0  0  0  0  0  0
   22.4630  -28.7420   45.3560 F   0  0  0  0  0  0  0  0  0  0  0  0
   22.4920  -26.6030   45.7120 F   0  0  0  0  0  0  0  0  0  0  0  0
   22.6900  -27.8780   42.2680 C   0  0  0  0  0  0  0  0  0  0  0  0
   23.9290  -28.7450   42.2900 C   0  0  0  0  0  0  0  0  0  0  0  0
   24.9070  -28.2220   43.0820 F   0  0  0  0  0  0  0  0  0  0  0  0
   23.6990  -29.9960   42.7830 F   0  0  0  0  0  0  0  0  0  0  0  0
   22.0500  -27.6150   41.0410 C   0  0  0  0  0  0  0  0  0  0  0  0
   20.0280  -25.2380   39.3920 O   0  0  0  0  0  0  0  0  0  0  0  0
   19.4200  -24.8900   38.2120 C   0  0  0  0  0  0  0  0  0  0  0  0
   19.2330  -23.5270   37.9760 C   0  0  0  0  0  0  0  0  0  0  0  0
   18.6190  -23.1040   36.7950 C   0  0  0  0  0  0  0  0  0  0  0  0
   18.1940  -24.0430   35.8510 C   0  0  0  0  0  0  0  0  0  0  0  0
   18.3830  -25.4010   36.0900 C   0  0  0  0  0  0  0  0  0  0  0  0
   17.9420  -26.2650   35.1260 O   0  0  0  0  0  0  0  0  0  0  0  0
   18.9970  -25.8250   37.2730 C   0  0  0  0  0  0  0  0  0  0  0  0
   20.9170  -29.2460   39.3380 H   0  0  0  0  0  0  0  0  0  0  0  0
   19.4876  -25.6466   42.1199 H   0  0  0  0  0  0  0  0  0  0  0  0
   20.6025  -26.0728   44.2965 H   0  0  0  0  0  0  0  0  0  0  0  0
   23.9035  -27.5430   44.5680 H   0  0  0  0  0  0  0  0  0  0  0  0
   24.2363  -28.7905   41.2348 H   0  0  0  0  0  0  0  0  0  0  0  0
   22.4579  -28.0529   40.1180 H   0  0  0  0  0  0  0  0  0  0  0  0
   19.5684  -22.7878   38.7184 H   0  0  0  0  0  0  0  0  0  0  0  0
   18.4697  -22.0304   36.6076 H   0  0  0  0  0  0  0  0  0  0  0  0
   17.7110  -23.7093   34.9208 H   0  0  0  0  0  0  0  0  0  0  0  0
   18.5310  -26.5650   34.4620 H   0  0  0  0  0  0  0  0  0  0  0  0
  1  2  2  0
  2  3  1  0
  3  4  1  0
  3  5  2  0
  5  6  1  0
  6  7  2  0
  7  8  1  0
  8  9  2  0
  9 10  1  0
 10 11  1  0
 10 12  1  0
  9 13  1  0
 13 14  1  0
 14 15  1  0
 14 16  1  0
 13 17  2  0
  5 18  1  0
 18 19  1  0
 19 20  2  0
 20 21  1  0
 21 22  2  0
 22 23  1  0
 23 24  1  0
 23 25  2  0
 25  2  1  0
 17  6  1  0
 25 19  1  0
  4 26  1  0
  7 27  1  0
  8 28  1  0
 10 29  1  0
 14 30  1  0
 17 31  1  0
 20 32  1  0
 21 33  1  0
 22 34  1  0
 24 35  1  0
M  END
>  <meeko>  (9) 
{"is_sidechain": [false], "free_energy": -7.034, "intermolecular_energy": -8.949, "internal_energy": -0.181}

$$$$
