cand_047_out
     RDKit          3D

 38 40  0  0  0  0  0  0  0  0999 V2000
   21.1130  -27.1840   41.8790 C   0  0  0  0  0  0  0  0  0  0  0  0
   20.1120  -27.4750   40.7940 C   0  0  0  0  0  0  0  0  0  0  0  0
   20.1480  -28.7330   40.1610 C   0  0  0  0  0  0  0  0  0  0  0  0
   19.2490  -29.0680   39.1390 C   0  0  0  0  0  0  0  0  0  0  0  0
   19.2990  -30.3800   38.4580 C   0  0  0  0  0  0  0  0  0  0  0  0
   18.8830  -31.4280   39.2720 O   0  0  0  0  0  0  0  0  0  0  0  0
   18.8780  -32.7010   38.7630 C   0  0  0  0  0  0  0  0  0  0  0  0
   18.4390  -33.7200   39.6100 C   0  0  0  0  0  0  0  0  0  0  0  0
   18.4110  -35.0400   39.1550 C   0  0  0  0  0  0  0  0  0  0  0  0
   18.8240  -35.3410   37.8550 C   0  0  0  0  0  0  0  0  0  0  0  0
   19.2630  -34.3230   37.0130 C   0  0  0  0  0  0  0  0  0  0  0  0
   19.6540  -34.6880   35.7540 O   0  0  0  0  0  0  0  0  0  0  0  0
   19.2890  -33.0020   37.4690 C   0  0  0  0  0  0  0  0  0  0  0  0
   19.7440  -31.9020   36.6160 C   0  0  0  0  0  0  0  0  0  0  0  0
   20.1300  -32.0880   35.4640 O   0  0  0  0  0  0  0  0  0  0  0  0
   19.7250  -30.5370   37.1910 C   0  0  0  0  0  0  0  0  0  0  0  0
   20.1680  -29.5070   36.3820 O   0  0  0  0  0  0  0  0  0  0  0  0
   18.3130  -28.1110   38.7350 C   0  0  0  0  0  0  0  0  0  0  0  0
   18.2680  -26.8560   39.3490 C   0  0  0  0  0  0  0  0  0  0  0  0
   19.1640  -26.5220   40.3770 C   0  0  0  0  0  0  0  0  0  0  0  0
   19.0490  -25.1570   41.0150 C   0  0  0  0  0  0  0  0  0  0  0  0
   19.6100  -24.0590   40.1270 C   0  0  0  0  0  0  0  0  0  0  0  0
   19.9850  -23.0120   40.9130 F   0  0  0  0  0  0  0  0  0  0  0  0
   20.6388  -27.3219   42.8619 H   0  0  0  0  0  0  0  0  0  0  0  0
   21.9667  -27.8711   41.7841 H   0  0  0  0  0  0  0  0  0  0  0  0
   21.4653  -26.1463   41.7841 H   0  0  0  0  0  0  0  0  0  0  0  0
   20.9004  -29.4708   40.4766 H   0  0  0  0  0  0  0  0  0  0  0  0
   18.1156  -33.4836   40.6344 H   0  0  0  0  0  0  0  0  0  0  0  0
   18.0634  -35.8435   39.8210 H   0  0  0  0  0  0  0  0  0  0  0  0
   18.8024  -36.3809   37.4971 H   0  0  0  0  0  0  0  0  0  0  0  0
   19.2900  -35.4530   35.3540 H   0  0  0  0  0  0  0  0  0  0  0  0
   20.2170  -29.6290   35.4540 H   0  0  0  0  0  0  0  0  0  0  0  0
   17.6056  -28.3479   37.9266 H   0  0  0  0  0  0  0  0  0  0  0  0
   17.5195  -26.1192   39.0219 H   0  0  0  0  0  0  0  0  0  0  0  0
   17.9874  -24.9460   41.2113 H   0  0  0  0  0  0  0  0  0  0  0  0
   19.6337  -25.1695   41.9466 H   0  0  0  0  0  0  0  0  0  0  0  0
   20.4824  -24.4387   39.5749 H   0  0  0  0  0  0  0  0  0  0  0  0
   18.8460  -23.7323   39.4062 H   0  0  0  0  0  0  0  0  0  0  0  0
  1  2  1  0
  2  3  2  0
  3  4  1  0
  4  5  1  0
  5  6  1  0
  6  7  1  0
  7  8  2  0
  8  9  1  0
  9 10  2  0
 10 11  1  0
 11 12  1  0
 11 13  2  0
 13 14  1  0
 14 15  2  0
 14 16  1  0
 16 17  1  0
  4 18  2  0
 18 19  1  0
 19 20  2  0
 20 21  1  0
 21 22  1  0
 22 23  1  0
 20  2  1  0
 16  5  2  0
 13  7  1  0
  1 24  1  0
  1 25  1  0
  1 26  1  0
  3 27  1  0
  8 28  1  0
  9 29  1  0
 10 30  1  0
 12 31  1  0
 17 32  1  0
 18 33  1  0
 19 34  1  0
 21 35  1  0
 21 36  1  0
 22 37  1  0
 22 38  1  0
M  END
>  <meeko>  (1) 
{"is_sidechain": [false], "free_energy": -7.691, "intermolecular_energy": -9.49, "internal_energy": -0.378}

$$$$
cand_047_out
     RDKit          3D

 38 40  0  0  0  0  0  0  0  0999 V2000
   18.5550  -33.8430   39.1780 C   0  0  0  0  0  0  0  0  0  0  0  0
   18.9910  -32.5840   38.4790 C   0  0  0  0  0  0  0  0  0  0  0  0
   18.9200  -31.3630   39.1780 C   0  0  0  0  0  0  0  0  0  0  0  0
   19.3060  -30.1520   38.5850 C   0  0  0  0  0  0  0  0  0  0  0  0
   19.2110  -28.8670   39.3100 C   0  0  0  0  0  0  0  0  0  0  0  0
   20.0840  -28.7890   40.3890 O   0  0  0  0  0  0  0  0  0  0  0  0
   20.1010  -27.6470   41.1470 C   0  0  0  0  0  0  0  0  0  0  0  0
   21.0030  -27.6070   42.2120 C   0  0  0  0  0  0  0  0  0  0  0  0
   21.0700  -26.4730   43.0250 C   0  0  0  0  0  0  0  0  0  0  0  0
   20.2330  -25.3830   42.7770 C   0  0  0  0  0  0  0  0  0  0  0  0
   19.3330  -25.4260   41.7150 C   0  0  0  0  0  0  0  0  0  0  0  0
   18.5440  -24.3250   41.5290 O   0  0  0  0  0  0  0  0  0  0  0  0
   19.2690  -26.5600   40.9000 C   0  0  0  0  0  0  0  0  0  0  0  0
   18.3370  -26.6470   39.7750 C   0  0  0  0  0  0  0  0  0  0  0  0
   17.5640  -25.7320   39.4970 O   0  0  0  0  0  0  0  0  0  0  0  0
   18.3520  -27.8890   38.9670 C   0  0  0  0  0  0  0  0  0  0  0  0
   17.4590  -27.9660   37.9140 O   0  0  0  0  0  0  0  0  0  0  0  0
   19.7490  -30.1720   37.2600 C   0  0  0  0  0  0  0  0  0  0  0  0
   19.8190  -31.3740   36.5490 C   0  0  0  0  0  0  0  0  0  0  0  0
   19.4400  -32.5870   37.1440 C   0  0  0  0  0  0  0  0  0  0  0  0
   19.5610  -33.8560   36.3310 C   0  0  0  0  0  0  0  0  0  0  0  0
   19.7340  -33.5720   34.8480 C   0  0  0  0  0  0  0  0  0  0  0  0
   19.7020  -34.7540   34.1720 F   0  0  0  0  0  0  0  0  0  0  0  0
   18.6064  -33.6945   40.2667 H   0  0  0  0  0  0  0  0  0  0  0  0
   17.5212  -34.0836   38.8892 H   0  0  0  0  0  0  0  0  0  0  0  0
   19.2186  -34.6714   38.8892 H   0  0  0  0  0  0  0  0  0  0  0  0
   18.5526  -31.3593   40.2148 H   0  0  0  0  0  0  0  0  0  0  0  0
   21.6597  -28.4669   42.4105 H   0  0  0  0  0  0  0  0  0  0  0  0
   21.7831  -26.4386   43.8618 H   0  0  0  0  0  0  0  0  0  0  0  0
   20.2845  -24.4917   43.4196 H   0  0  0  0  0  0  0  0  0  0  0  0
   17.9330  -24.3030   40.8180 H   0  0  0  0  0  0  0  0  0  0  0  0
   16.5580  -27.7460   38.0470 H   0  0  0  0  0  0  0  0  0  0  0  0
   20.0458  -29.2324   36.7711 H   0  0  0  0  0  0  0  0  0  0  0  0
   20.1762  -31.3686   35.5086 H   0  0  0  0  0  0  0  0  0  0  0  0
   20.4334  -34.4235   36.6874 H   0  0  0  0  0  0  0  0  0  0  0  0
   18.6313  -34.4298   36.4593 H   0  0  0  0  0  0  0  0  0  0  0  0
   18.9182  -32.9226   34.4975 H   0  0  0  0  0  0  0  0  0  0  0  0
   20.6941  -33.0648   34.6723 H   0  0  0  0  0  0  0  0  0  0  0  0
  1  2  1  0
  2  3  2  0
  3  4  1  0
  4  5  1  0
  5  6  1  0
  6  7  1  0
  7  8  2  0
  8  9  1  0
  9 10  2  0
 10 11  1  0
 11 12  1  0
 11 13  2  0
 13 14  1  0
 14 15  2  0
 14 16  1  0
 16 17  1  0
  4 18  2  0
 18 19  1  0
 19 20  2  0
 20 21  1  0
 21 22  1  0
 22 23  1  0
 20  2  1  0
 16  5  2  0
 13  7  1  0
  1 24  1  0
  1 25  1  0
  1 26  1  0
  3 27  1  0
  8 28  1  0
  9 29  1  0
 10 30  1  0
 12 31  1  0
 17 32  1  0
 18 33  1  0
 19 34  1  0
 21 35  1  0
 21 36  1  0
 22 37  1  0
 22 38  1  0
M  END
>  <meeko>  (2) 
{"is_sidechain": [false], "free_energy": -7.498, "intermolecular_energy": -9.315, "internal_energy": -0.314}

$$$$
cand_047_out
     RDKit          3D

 38 40  0  0  0  0  0  0  0  0999 V2000
   19.3120  -24.6770   37.4540 C   0  0  0  0  0  0  0  0  0  0  0  0
   19.4400  -25.9830   38.1900 C   0  0  0  0  0  0  0  0  0  0  0  0
   20.2120  -26.0220   39.3670 C   0  0  0  0  0  0  0  0  0  0  0  0
   20.3780  -27.2070   40.0990 C   0  0  0  0  0  0  0  0  0  0  0  0
   21.2060  -27.2550   41.3230 C   0  0  0  0  0  0  0  0  0  0  0  0
   22.1790  -28.2470   41.2790 O   0  0  0  0  0  0  0  0  0  0  0  0
   23.0190  -28.4000   42.3520 C   0  0  0  0  0  0  0  0  0  0  0  0
   23.9900  -29.3980   42.2590 C   0  0  0  0  0  0  0  0  0  0  0  0
   24.8770  -29.6080   43.3180 C   0  0  0  0  0  0  0  0  0  0  0  0
   24.7910  -28.8220   44.4690 C   0  0  0  0  0  0  0  0  0  0  0  0
   23.8210  -27.8280   44.5600 C   0  0  0  0  0  0  0  0  0  0  0  0
   23.7910  -27.0960   45.7140 O   0  0  0  0  0  0  0  0  0  0  0  0
   22.9350  -27.6170   43.4990 C   0  0  0  0  0  0  0  0  0  0  0  0
   21.9000  -26.5830   43.5540 C   0  0  0  0  0  0  0  0  0  0  0  0
   21.7560  -25.8570   44.5350 O   0  0  0  0  0  0  0  0  0  0  0  0
   21.0160  -26.4350   42.3740 C   0  0  0  0  0  0  0  0  0  0  0  0
   20.0340  -25.4640   42.4410 O   0  0  0  0  0  0  0  0  0  0  0  0
   19.7720  -28.3730   39.6230 C   0  0  0  0  0  0  0  0  0  0  0  0
   19.0080  -28.3530   38.4530 C   0  0  0  0  0  0  0  0  0  0  0  0
   18.8360  -27.1660   37.7230 C   0  0  0  0  0  0  0  0  0  0  0  0
   17.9790  -27.2040   36.4790 C   0  0  0  0  0  0  0  0  0  0  0  0
   18.7300  -27.7640   35.2820 C   0  0  0  0  0  0  0  0  0  0  0  0
   20.0500  -27.4580   35.4140 F   0  0  0  0  0  0  0  0  0  0  0  0
   19.2313  -23.8538   38.1792 H   0  0  0  0  0  0  0  0  0  0  0  0
   20.1994  -24.5236   36.8224 H   0  0  0  0  0  0  0  0  0  0  0  0
   18.4117  -24.6988   36.8224 H   0  0  0  0  0  0  0  0  0  0  0  0
   20.6969  -25.1004   39.7212 H   0  0  0  0  0  0  0  0  0  0  0  0
   24.0570  -30.0185   41.3532 H   0  0  0  0  0  0  0  0  0  0  0  0
   25.6438  -30.3933   43.2450 H   0  0  0  0  0  0  0  0  0  0  0  0
   25.4890  -28.9882   45.3027 H   0  0  0  0  0  0  0  0  0  0  0  0
   24.2980  -26.3100   45.7830 H   0  0  0  0  0  0  0  0  0  0  0  0
   19.6680  -25.1140   41.6530 H   0  0  0  0  0  0  0  0  0  0  0  0
   19.8977  -29.3161   40.1750 H   0  0  0  0  0  0  0  0  0  0  0  0
   18.5345  -29.2806   38.0989 H   0  0  0  0  0  0  0  0  0  0  0  0
   17.1001  -27.8363   36.6734 H   0  0  0  0  0  0  0  0  0  0  0  0
   17.6841  -26.1715   36.2401 H   0  0  0  0  0  0  0  0  0  0  0  0
   18.6050  -28.8562   35.2443 H   0  0  0  0  0  0  0  0  0  0  0  0
   18.3346  -27.3272   34.3531 H   0  0  0  0  0  0  0  0  0  0  0  0
  1  2  1  0
  2  3  2  0
  3  4  1  0
  4  5  1  0
  5  6  1  0
  6  7  1  0
  7  8  2  0
  8  9  1  0
  9 10  2  0
 10 11  1  0
 11 12  1  0
 11 13  2  0
 13 14  1  0
 14 15  2  0
 14 16  1  0
 16 17  1  0
  4 18  2  0
 18 19  1  0
 19 20  2  0
 20 21  1  0
 21 22  1  0
 22 23  1  0
 20  2  1  0
 16  5  2  0
 13  7  1  0
  1 24  1  0
  1 25  1  0
  1 26  1  0
  3 27  1  0
  8 28  1  0
  9 29  1  0
 10 30  1  0
 12 31  1  0
 17 32  1  0
 18 33  1  0
 19 34  1  0
 21 35  1  0
 21 36  1  0
 22 37  1  0
 22 38  1  0
M  END
>  <meeko>  (3) 
{"is_sidechain": [false], "free_energy": -7.106, "intermolecular_energy": -8.705, "internal_energy": -0.44}

$$$$
cand_047_out
     RDKit          3D

 38 40  0  0  0  0  0  0  0  0999 V2000
   23.7260  -28.7200   42.0920 C   0  0  0  0  0  0  0  0  0  0  0  0
   22.4820  -27.8730   42.0780 C   0  0  0  0  0  0  0  0  0  0  0  0
   21.8930  -27.5570   40.8380 C   0  0  0  0  0  0  0  0  0  0  0  0
   20.7370  -26.7680   40.7520 C   0  0  0  0  0  0  0  0  0  0  0  0
   20.1290  -26.4180   39.4500 C   0  0  0  0  0  0  0  0  0  0  0  0
   19.9500  -25.0490   39.2880 O   0  0  0  0  0  0  0  0  0  0  0  0
   19.3960  -24.5870   38.1220 C   0  0  0  0  0  0  0  0  0  0  0  0
   19.2480  -23.2050   37.9960 C   0  0  0  0  0  0  0  0  0  0  0  0
   18.6880  -22.6680   36.8330 C   0  0  0  0  0  0  0  0  0  0  0  0
   18.2760  -23.5120   35.8010 C   0  0  0  0  0  0  0  0  0  0  0  0
   18.4230  -24.8900   35.9300 C   0  0  0  0  0  0  0  0  0  0  0  0
   17.9980  -25.6590   34.8820 O   0  0  0  0  0  0  0  0  0  0  0  0
   18.9850  -25.4270   37.0920 C   0  0  0  0  0  0  0  0  0  0  0  0
   19.1580  -26.8700   37.2680 C   0  0  0  0  0  0  0  0  0  0  0  0
   18.8120  -27.6770   36.4080 O   0  0  0  0  0  0  0  0  0  0  0  0
   19.7700  -27.3370   38.5340 C   0  0  0  0  0  0  0  0  0  0  0  0
   19.9170  -28.7020   38.6960 O   0  0  0  0  0  0  0  0  0  0  0  0
   20.1810  -26.2720   41.9340 C   0  0  0  0  0  0  0  0  0  0  0  0
   20.7560  -26.5700   43.1730 C   0  0  0  0  0  0  0  0  0  0  0  0
   21.9100  -27.3660   43.2600 C   0  0  0  0  0  0  0  0  0  0  0  0
   22.4710  -27.6710   44.6300 C   0  0  0  0  0  0  0  0  0  0  0  0
   23.3110  -26.5270   45.1740 C   0  0  0  0  0  0  0  0  0  0  0  0
   24.3500  -26.3060   44.3210 F   0  0  0  0  0  0  0  0  0  0  0  0
   24.0211  -28.9209   43.1325 H   0  0  0  0  0  0  0  0  0  0  0  0
   23.5276  -29.6715   41.5769 H   0  0  0  0  0  0  0  0  0  0  0  0
   24.5385  -28.1867   41.5769 H   0  0  0  0  0  0  0  0  0  0  0  0
   22.3515  -27.9388   39.9139 H   0  0  0  0  0  0  0  0  0  0  0  0
   19.5713  -22.5396   38.8101 H   0  0  0  0  0  0  0  0  0  0  0  0
   18.5720  -21.5789   36.7314 H   0  0  0  0  0  0  0  0  0  0  0  0
   17.8354  -23.0886   34.8863 H   0  0  0  0  0  0  0  0  0  0  0  0
   18.5810  -26.2780   34.4880 H   0  0  0  0  0  0  0  0  0  0  0  0
   19.2760  -29.2870   38.3430 H   0  0  0  0  0  0  0  0  0  0  0  0
   19.2815  -25.6405   41.8892 H   0  0  0  0  0  0  0  0  0  0  0  0
   20.2984  -26.1757   44.0923 H   0  0  0  0  0  0  0  0  0  0  0  0
   21.6359  -27.8573   45.3213 H   0  0  0  0  0  0  0  0  0  0  0  0
   23.1207  -28.5540   44.5400 H   0  0  0  0  0  0  0  0  0  0  0  0
   22.6950  -25.6189   45.2506 H   0  0  0  0  0  0  0  0  0  0  0  0
   23.6934  -26.7838   46.1729 H   0  0  0  0  0  0  0  0  0  0  0  0
  1  2  1  0
  2  3  2  0
  3  4  1  0
  4  5  1  0
  5  6  1  0
  6  7  1  0
  7  8  2  0
  8  9  1  0
  9 10  2  0
 10 11  1  0
 11 12  1  0
 11 13  2  0
 13 14  1  0
 14 15  2  0
 14 16  1  0
 16 17  1  0
  4 18  2  0
 18 19  1  0
 19 20  2  0
 20 21  1  0
 21 22  1  0
 22 23  1  0
 20  2  1  0
 16  5  2  0
 13  7  1  0
  1 24  1  0
  1 25  1  0
  1 26  1  0
  3 27  1  0
  8 28  1  0
  9 29  1  0
 10 30  1  0
 12 31  1  0
 17 32  1  0
 18 33  1  0
 19 34  1  0
 21 35  1  0
 21 36  1  0
 22 37  1  0
 22 38  1  0
M  END
>  <meeko>  (4) 
{"is_sidechain": [false], "free_energy": -6.877, "intermolecular_energy": -8.444, "internal_energy": -0.42}

$$$$
cand_047_out
     RDKit          3D

 38 40  0  0  0  0  0  0  0  0999 V2000
   20.9780  -27.2560   41.9820 C   0  0  0  0  0  0  0  0  0  0  0  0
   20.0530  -27.3780   40.8020 C   0  0  0  0  0  0  0  0  0  0  0  0
   20.1820  -28.4960   39.9550 C   0  0  0  0  0  0  0  0  0  0  0  0
   19.3560  -28.6690   38.8340 C   0  0  0  0  0  0  0  0  0  0  0  0
   19.5040  -29.8310   37.9310 C   0  0  0  0  0  0  0  0  0  0  0  0
   19.8510  -29.4680   36.6350 O   0  0  0  0  0  0  0  0  0  0  0  0
   20.0210  -30.4510   35.6950 C   0  0  0  0  0  0  0  0  0  0  0  0
   20.3840  -30.0430   34.4100 C   0  0  0  0  0  0  0  0  0  0  0  0
   20.5720  -30.9940   33.4040 C   0  0  0  0  0  0  0  0  0  0  0  0
   20.3950  -32.3510   33.6820 C   0  0  0  0  0  0  0  0  0  0  0  0
   20.0320  -32.7560   34.9640 C   0  0  0  0  0  0  0  0  0  0  0  0
   19.8750  -34.0990   35.1680 O   0  0  0  0  0  0  0  0  0  0  0  0
   19.8460  -31.8030   35.9710 C   0  0  0  0  0  0  0  0  0  0  0  0
   19.4640  -32.1860   37.3310 C   0  0  0  0  0  0  0  0  0  0  0  0
   19.2830  -33.3590   37.6520 O   0  0  0  0  0  0  0  0  0  0  0  0
   19.2990  -31.1020   38.3270 C   0  0  0  0  0  0  0  0  0  0  0  0
   18.9260  -31.4720   39.6060 O   0  0  0  0  0  0  0  0  0  0  0  0
   18.4020  -27.6870   38.5530 C   0  0  0  0  0  0  0  0  0  0  0  0
   18.2660  -26.5680   39.3790 C   0  0  0  0  0  0  0  0  0  0  0  0
   19.0870  -26.3980   40.5050 C   0  0  0  0  0  0  0  0  0  0  0  0
   18.8750  -25.1780   41.3720 C   0  0  0  0  0  0  0  0  0  0  0  0
   19.6570  -23.9750   40.8710 C   0  0  0  0  0  0  0  0  0  0  0  0
   20.0140  -24.1960   39.5750 F   0  0  0  0  0  0  0  0  0  0  0  0
   20.3969  -27.3326   42.9129 H   0  0  0  0  0  0  0  0  0  0  0  0
   21.7242  -28.0635   41.9480 H   0  0  0  0  0  0  0  0  0  0  0  0
   21.4893  -26.2826   41.9480 H   0  0  0  0  0  0  0  0  0  0  0  0
   20.9492  -29.2521   40.1778 H   0  0  0  0  0  0  0  0  0  0  0  0
   20.5218  -28.9741   34.1900 H   0  0  0  0  0  0  0  0  0  0  0  0
   20.8598  -30.6735   32.3918 H   0  0  0  0  0  0  0  0  0  0  0  0
   20.5421  -33.0992   32.8892 H   0  0  0  0  0  0  0  0  0  0  0  0
   20.6140  -34.6260   35.4030 H   0  0  0  0  0  0  0  0  0  0  0  0
   18.0180  -31.5350   39.8280 H   0  0  0  0  0  0  0  0  0  0  0  0
   17.7515  -27.7960   37.6726 H   0  0  0  0  0  0  0  0  0  0  0  0
   17.5048  -25.8096   39.1435 H   0  0  0  0  0  0  0  0  0  0  0  0
   17.8038  -24.9278   41.3757 H   0  0  0  0  0  0  0  0  0  0  0  0
   19.2338  -25.4164   42.3841 H   0  0  0  0  0  0  0  0  0  0  0  0
   19.0299  -23.0734   40.9338 H   0  0  0  0  0  0  0  0  0  0  0  0
   20.5558  -23.8284   41.4879 H   0  0  0  0  0  0  0  0  0  0  0  0
  1  2  1  0
  2  3  2  0
  3  4  1  0
  4  5  1  0
  5  6  1  0
  6  7  1  0
  7  8  2  0
  8  9  1  0
  9 10  2  0
 10 11  1  0
 11 12  1  0
 11 13  2  0
 13 14  1  0
 14 15  2  0
 14 16  1  0
 16 17  1  0
  4 18  2  0
 18 19  1  0
 19 20  2  0
 20 21  1  0
 21 22  1  0
 22 23  1  0
 20  2  1  0
 16  5  2  0
 13  7  1  0
  1 24  1  0
  1 25  1  0
  1 26  1  0
  3 27  1  0
  8 28  1  0
  9 29  1  0
 10 30  1  0
 12 31  1  0
 17 32  1  0
 18 33  1  0
 19 34  1  0
 21 35  1  0
 21 36  1  0
 22 37  1  0
 22 38  1  0
M  END
>  <meeko>  (5) 
{"is_sidechain": [false], "free_energy": -6.806, "intermolecular_energy": -8.412, "internal_energy": -0.364}

$$$$
cand_047_out
     RDKit          3D

 38 40  0  0  0  0  0  0  0  0999 V2000
   18.1910  -23.0700   46.7520 C   0  0  0  0  0  0  0  0  0  0  0  0
   19.3730  -23.8000   46.1740 C   0  0  0  0  0  0  0  0  0  0  0  0
   19.3310  -24.1890   44.8210 C   0  0  0  0  0  0  0  0  0  0  0  0
   20.3960  -24.8770   44.2210 C   0  0  0  0  0  0  0  0  0  0  0  0
   20.3450  -25.3060   42.8070 C   0  0  0  0  0  0  0  0  0  0  0  0
   19.9290  -24.2950   41.9490 O   0  0  0  0  0  0  0  0  0  0  0  0
   19.8400  -24.5590   40.6070 C   0  0  0  0  0  0  0  0  0  0  0  0
   19.4320  -23.5100   39.7810 C   0  0  0  0  0  0  0  0  0  0  0  0
   19.3180  -23.7120   38.4030 C   0  0  0  0  0  0  0  0  0  0  0  0
   19.6100  -24.9620   37.8530 C   0  0  0  0  0  0  0  0  0  0  0  0
   20.0150  -26.0070   38.6790 C   0  0  0  0  0  0  0  0  0  0  0  0
   20.2830  -27.2040   38.0750 O   0  0  0  0  0  0  0  0  0  0  0  0
   20.1300  -25.8030   40.0570 C   0  0  0  0  0  0  0  0  0  0  0  0
   20.5520  -26.8750   40.9610 C   0  0  0  0  0  0  0  0  0  0  0  0
   20.8190  -28.0030   40.5540 O   0  0  0  0  0  0  0  0  0  0  0  0
   20.6510  -26.5550   42.4040 C   0  0  0  0  0  0  0  0  0  0  0  0
   21.0380  -27.5770   43.2510 O   0  0  0  0  0  0  0  0  0  0  0  0
   21.5090  -25.1950   45.0040 C   0  0  0  0  0  0  0  0  0  0  0  0
   21.5640  -24.8210   46.3500 C   0  0  0  0  0  0  0  0  0  0  0  0
   20.5010  -24.1260   46.9500 C   0  0  0  0  0  0  0  0  0  0  0  0
   20.6300  -23.7300   48.4030 C   0  0  0  0  0  0  0  0  0  0  0  0
   20.6240  -24.9360   49.3290 C   0  0  0  0  0  0  0  0  0  0  0  0
   19.6960  -25.8260   48.8790 F   0  0  0  0  0  0  0  0  0  0  0  0
   18.2419  -23.1014   47.8504 H   0  0  0  0  0  0  0  0  0  0  0  0
   18.2054  -22.0233   46.4141 H   0  0  0  0  0  0  0  0  0  0  0  0
   17.2616  -23.5516   46.4141 H   0  0  0  0  0  0  0  0  0  0  0  0
   18.4417  -23.9475   44.2204 H   0  0  0  0  0  0  0  0  0  0  0  0
   19.2006  -22.5258   40.2144 H   0  0  0  0  0  0  0  0  0  0  0  0
   18.9980  -22.8858   37.7510 H   0  0  0  0  0  0  0  0  0  0  0  0
   19.5201  -25.1208   36.7682 H   0  0  0  0  0  0  0  0  0  0  0  0
   19.7340  -27.5120   37.3810 H   0  0  0  0  0  0  0  0  0  0  0  0
   21.8320  -27.5010   43.7420 H   0  0  0  0  0  0  0  0  0  0  0  0
   22.3501  -25.7450   44.5569 H   0  0  0  0  0  0  0  0  0  0  0  0
   22.4521  -25.0745   46.9475 H   0  0  0  0  0  0  0  0  0  0  0  0
   21.5750  -23.1836   48.5388 H   0  0  0  0  0  0  0  0  0  0  0  0
   19.7643  -23.1020   48.6603 H   0  0  0  0  0  0  0  0  0  0  0  0
   21.6182  -25.4066   49.3307 H   0  0  0  0  0  0  0  0  0  0  0  0
   20.3764  -24.6214   50.3536 H   0  0  0  0  0  0  0  0  0  0  0  0
  1  2  1  0
  2  3  2  0
  3  4  1  0
  4  5  1  0
  5  6  1  0
  6  7  1  0
  7  8  2  0
  8  9  1  0
  9 10  2  0
 10 11  1  0
 11 12  1  0
 11 13  2  0
 13 14  1  0
 14 15  2  0
 14 16  1  0
 16 17  1  0
  4 18  2  0
 18 19  1  0
 19 20  2  0
 20 21  1  0
 21 22  1  0
 22 23  1  0
 20  2  1  0
 16  5  2  0
 13  7  1  0
  1 24  1  0
  1 25  1  0
  1 26  1  0
  3 27  1  0
  8 28  1  0
  9 29  1  0
 10 30  1  0
 12 31  1  0
 17 32  1  0
 18 33  1  0
 19 34  1  0
 21 35  1  0
 21 36  1  0
 22 37  1  0
 22 38  1  0
M  END
>  <meeko>  (6) 
{"is_sidechain": [false], "free_energy": -6.805, "intermolecular_energy": -8.452, "internal_energy": -0.322}

$$$$
cand_047_out
     RDKit          3D

 38 40  0  0  0  0  0  0  0  0999 V2000
   22.5480  -26.4870   45.3830 C   0  0  0  0  0  0  0  0  0  0  0  0
   22.5750  -27.0660   43.9950 C   0  0  0  0  0  0  0  0  0  0  0  0
   21.6470  -26.5910   43.0460 C   0  0  0  0  0  0  0  0  0  0  0  0
   21.6130  -27.0900   41.7360 C   0  0  0  0  0  0  0  0  0  0  0  0
   20.6270  -26.6090   40.7460 C   0  0  0  0  0  0  0  0  0  0  0  0
   20.5040  -25.2240   40.7330 O   0  0  0  0  0  0  0  0  0  0  0  0
   19.6230  -24.6450   39.8580 C   0  0  0  0  0  0  0  0  0  0  0  0
   19.5430  -23.2510   39.8690 C   0  0  0  0  0  0  0  0  0  0  0  0
   18.6630  -22.5970   39.0030 C   0  0  0  0  0  0  0  0  0  0  0  0
   17.8630  -23.3350   38.1300 C   0  0  0  0  0  0  0  0  0  0  0  0
   17.9430  -24.7250   38.1210 C   0  0  0  0  0  0  0  0  0  0  0  0
   17.1310  -25.3860   37.2420 O   0  0  0  0  0  0  0  0  0  0  0  0
   18.8250  -25.3790   38.9870 C   0  0  0  0  0  0  0  0  0  0  0  0
   18.9400  -26.8390   39.0100 C   0  0  0  0  0  0  0  0  0  0  0  0
   18.2640  -27.5570   38.2770 O   0  0  0  0  0  0  0  0  0  0  0  0
   19.9100  -27.4340   39.9590 C   0  0  0  0  0  0  0  0  0  0  0  0
   20.0030  -28.8130   39.9820 O   0  0  0  0  0  0  0  0  0  0  0  0
   22.5150  -28.0990   41.3850 C   0  0  0  0  0  0  0  0  0  0  0  0
   23.4370  -28.5860   42.3160 C   0  0  0  0  0  0  0  0  0  0  0  0
   23.4770  -28.0820   43.6260 C   0  0  0  0  0  0  0  0  0  0  0  0
   24.5120  -28.6330   44.5780 C   0  0  0  0  0  0  0  0  0  0  0  0
   25.3850  -29.6930   43.9260 C   0  0  0  0  0  0  0  0  0  0  0  0
   24.8600  -30.9200   44.2010 F   0  0  0  0  0  0  0  0  0  0  0  0
   22.5860  -27.3018   46.1210 H   0  0  0  0  0  0  0  0  0  0  0  0
   23.4163  -25.8260   45.5215 H   0  0  0  0  0  0  0  0  0  0  0  0
   21.6220  -25.9097   45.5215 H   0  0  0  0  0  0  0  0  0  0  0  0
   20.9315  -25.8092   43.3406 H   0  0  0  0  0  0  0  0  0  0  0  0
   20.1719  -22.6686   40.5584 H   0  0  0  0  0  0  0  0  0  0  0  0
   18.6008  -21.4988   39.0095 H   0  0  0  0  0  0  0  0  0  0  0  0
   17.1697  -22.8191   37.4494 H   0  0  0  0  0  0  0  0  0  0  0  0
   16.8030  -26.2380   37.4570 H   0  0  0  0  0  0  0  0  0  0  0  0
   20.6740  -29.2450   39.4920 H   0  0  0  0  0  0  0  0  0  0  0  0
   22.4989  -28.5137   40.3663 H   0  0  0  0  0  0  0  0  0  0  0  0
   24.1419  -29.3761   42.0179 H   0  0  0  0  0  0  0  0  0  0  0  0
   25.1533  -27.8075   44.9207 H   0  0  0  0  0  0  0  0  0  0  0  0
   23.9812  -29.1031   45.4190 H   0  0  0  0  0  0  0  0  0  0  0  0
   25.4080  -29.5356   42.8376 H   0  0  0  0  0  0  0  0  0  0  0  0
   26.4107  -29.6274   44.3180 H   0  0  0  0  0  0  0  0  0  0  0  0
  1  2  1  0
  2  3  2  0
  3  4  1  0
  4  5  1  0
  5  6  1  0
  6  7  1  0
  7  8  2  0
  8  9  1  0
  9 10  2  0
 10 11  1  0
 11 12  1  0
 11 13  2  0
 13 14  1  0
 14 15  2  0
 14 16  1  0
 16 17  1  0
  4 18  2  0
 18 19  1  0
 19 20  2  0
 20 21  1  0
 21 22  1  0
 22 23  1  0
 20  2  1  0
 16  5  2  0
 13  7  1  0
  1 24  1  0
  1 25  1  0
  1 26  1  0
  3 27  1  0
  8 28  1  0
  9 29  1  0
 10 30  1  0
 12 31  1  0
 17 32  1  0
 18 33  1  0
 19 34  1  0
 21 35  1  0
 21 36  1  0
 22 37  1  0
 22 38  1  0
M  END
>  <meeko>  (7) 
{"is_sidechain": [false], "free_energy": -6.77, "intermolecular_energy": -8.587, "internal_energy": -0.143}

$$$$
cand_047_out
     RDKit          3D

 38 40  0  0  0  0  0  0  0  0999 V2000
   20.1880  -31.7090   35.5020 C   0  0  0  0  0  0  0  0  0  0  0  0
   19.7540  -31.2110   36.8540 C   0  0  0  0  0  0  0  0  0  0  0  0
   19.7560  -29.8230   37.0950 C   0  0  0  0  0  0  0  0  0  0  0  0
   19.3690  -29.2910   38.3340 C   0  0  0  0  0  0  0  0  0  0  0  0
   19.3920  -27.8360   38.5970 C   0  0  0  0  0  0  0  0  0  0  0  0
   18.5570  -27.1200   37.7460 O   0  0  0  0  0  0  0  0  0  0  0  0
   18.4820  -25.7590   37.8830 C   0  0  0  0  0  0  0  0  0  0  0  0
   17.6200  -25.0820   37.0180 C   0  0  0  0  0  0  0  0  0  0  0  0
   17.4970  -23.6930   37.1040 C   0  0  0  0  0  0  0  0  0  0  0  0
   18.2370  -22.9820   38.0510 C   0  0  0  0  0  0  0  0  0  0  0  0
   19.0960  -23.6590   38.9120 C   0  0  0  0  0  0  0  0  0  0  0  0
   19.7900  -22.9020   39.8150 O   0  0  0  0  0  0  0  0  0  0  0  0
   19.2170  -25.0490   38.8270 C   0  0  0  0  0  0  0  0  0  0  0  0
   20.1090  -25.8000   39.7130 C   0  0  0  0  0  0  0  0  0  0  0  0
   20.7980  -25.2450   40.5660 O   0  0  0  0  0  0  0  0  0  0  0  0
   20.1590  -27.2710   39.5470 C   0  0  0  0  0  0  0  0  0  0  0  0
   21.0150  -27.9690   40.3800 O   0  0  0  0  0  0  0  0  0  0  0  0
   18.9960  -30.1760   39.3500 C   0  0  0  0  0  0  0  0  0  0  0  0
   18.9940  -31.5560   39.1290 C   0  0  0  0  0  0  0  0  0  0  0  0
   19.3750  -32.0890   37.8870 C   0  0  0  0  0  0  0  0  0  0  0  0
   19.3300  -33.5880   37.7040 C   0  0  0  0  0  0  0  0  0  0  0  0
   18.3160  -34.2480   38.6240 C   0  0  0  0  0  0  0  0  0  0  0  0
   18.9870  -34.9030   39.6120 F   0  0  0  0  0  0  0  0  0  0  0  0
   20.9060  -32.5328   35.6278 H   0  0  0  0  0  0  0  0  0  0  0  0
   19.3106  -32.0692   34.9449 H   0  0  0  0  0  0  0  0  0  0  0  0
   20.6648  -30.8890   34.9449 H   0  0  0  0  0  0  0  0  0  0  0  0
   20.0687  -29.1395   36.2918 H   0  0  0  0  0  0  0  0  0  0  0  0
   17.0388  -25.6413   36.2701 H   0  0  0  0  0  0  0  0  0  0  0  0
   16.8163  -23.1588   36.4248 H   0  0  0  0  0  0  0  0  0  0  0  0
   18.1412  -21.8881   38.1165 H   0  0  0  0  0  0  0  0  0  0  0  0
   19.7930  -21.9670   39.7380 H   0  0  0  0  0  0  0  0  0  0  0  0
   21.8800  -28.1810   40.0900 H   0  0  0  0  0  0  0  0  0  0  0  0
   18.7010  -29.7820   40.3337 H   0  0  0  0  0  0  0  0  0  0  0  0
   18.6896  -32.2344   39.9396 H   0  0  0  0  0  0  0  0  0  0  0  0
   19.0593  -33.8097   36.6611 H   0  0  0  0  0  0  0  0  0  0  0  0
   20.3236  -33.9888   37.9533 H   0  0  0  0  0  0  0  0  0  0  0  0
   17.6621  -33.4814   39.0654 H   0  0  0  0  0  0  0  0  0  0  0  0
   17.6985  -34.9582   38.0546 H   0  0  0  0  0  0  0  0  0  0  0  0
  1  2  1  0
  2  3  2  0
  3  4  1  0
  4  5  1  0
  5  6  1  0
  6  7  1  0
  7  8  2  0
  8  9  1  0
  9 10  2  0
 10 11  1  0
 11 12  1  0
 11 13  2  0
 13 14  1  0
 14 15  2  0
 14 16  1  0
 16 17  1  0
  4 18  2  0
 18 19  1  0
 19 20  2  0
 20 21  1  0
 21 22  1  0
 22 23  1  0
 20  2  1  0
 16  5  2  0
 13  7  1  0
  1 24  1  0
  1 25  1  0
  1 26  1  0
  3 27  1  0
  8 28  1  0
  9 29  1  0
 10 30  1  0
 12 31  1  0
 17 32  1  0
 18 33  1  0
 19 34  1  0
 21 35  1  0
 21 36  1  0
 22 37  1  0
 22 38  1  0
M  END
>  <meeko>  (8) 
{"is_sidechain": [false], "free_energy": -6.706, "intermolecular_energy": -8.338, "internal_energy": -0.314}

$$$$
cand_047_out
     RDKit          3D

 38 40  0  0  0  0  0  0  0  0999 V2000
   17.7310  -22.4520   46.7320 C   0  0  0  0  0  0  0  0  0  0  0  0
   18.8470  -23.2400   46.1020 C   0  0  0  0  0  0  0  0  0  0  0  0
   18.8100  -23.4730   44.7140 C   0  0  0  0  0  0  0  0  0  0  0  0
   19.8150  -24.2040   44.0630 C   0  0  0  0  0  0  0  0  0  0  0  0
   19.7670  -24.4680   42.6090 C   0  0  0  0  0  0  0  0  0  0  0  0
   19.7950  -25.8240   42.3050 O   0  0  0  0  0  0  0  0  0  0  0  0
   19.7550  -26.2100   40.9900 C   0  0  0  0  0  0  0  0  0  0  0  0
   19.7700  -27.5810   40.7300 C   0  0  0  0  0  0  0  0  0  0  0  0
   19.7320  -28.0410   39.4120 C   0  0  0  0  0  0  0  0  0  0  0  0
   19.6820  -27.1310   38.3540 C   0  0  0  0  0  0  0  0  0  0  0  0
   19.6680  -25.7630   38.6150 C   0  0  0  0  0  0  0  0  0  0  0  0
   19.6190  -24.9280   37.5340 O   0  0  0  0  0  0  0  0  0  0  0  0
   19.7040  -25.3040   39.9350 C   0  0  0  0  0  0  0  0  0  0  0  0
   19.6910  -23.8750   40.2530 C   0  0  0  0  0  0  0  0  0  0  0  0
   19.6550  -23.0130   39.3780 O   0  0  0  0  0  0  0  0  0  0  0  0
   19.7240  -23.4910   41.6840 C   0  0  0  0  0  0  0  0  0  0  0  0
   19.7250  -22.1390   41.9740 O   0  0  0  0  0  0  0  0  0  0  0  0
   20.8600  -24.7260   44.8310 C   0  0  0  0  0  0  0  0  0  0  0  0
   20.9090  -24.5090   46.2100 C   0  0  0  0  0  0  0  0  0  0  0  0
   19.9070  -23.7720   46.8610 C   0  0  0  0  0  0  0  0  0  0  0  0
   20.0280  -23.5530   48.3520 C   0  0  0  0  0  0  0  0  0  0  0  0
   20.6530  -24.7460   49.0580 C   0  0  0  0  0  0  0  0  0  0  0  0
   19.7420  -25.7570   49.0930 F   0  0  0  0  0  0  0  0  0  0  0  0
   17.8138  -22.5104   47.8273 H   0  0  0  0  0  0  0  0  0  0  0  0
   17.7997  -21.4010   46.4147 H   0  0  0  0  0  0  0  0  0  0  0  0
   16.7636  -22.8684   46.4147 H   0  0  0  0  0  0  0  0  0  0  0  0
   17.9720  -23.0718   44.1252 H   0  0  0  0  0  0  0  0  0  0  0  0
   19.8117  -28.2987   41.5625 H   0  0  0  0  0  0  0  0  0  0  0  0
   19.7415  -29.1217   39.2070 H   0  0  0  0  0  0  0  0  0  0  0  0
   19.6537  -27.4941   37.3160 H   0  0  0  0  0  0  0  0  0  0  0  0
   19.3440  -25.2570   36.7000 H   0  0  0  0  0  0  0  0  0  0  0  0
   20.5240  -21.6520   41.9310 H   0  0  0  0  0  0  0  0  0  0  0  0
   21.6521  -25.3139   44.3442 H   0  0  0  0  0  0  0  0  0  0  0  0
   21.7447  -24.9215   46.7943 H   0  0  0  0  0  0  0  0  0  0  0  0
   20.6552  -22.6671   48.5304 H   0  0  0  0  0  0  0  0  0  0  0  0
   19.0147  -23.4135   48.7566 H   0  0  0  0  0  0  0  0  0  0  0  0
   21.5487  -25.0733   48.5098 H   0  0  0  0  0  0  0  0  0  0  0  0
   20.9435  -24.4667   50.0815 H   0  0  0  0  0  0  0  0  0  0  0  0
  1  2  1  0
  2  3  2  0
  3  4  1  0
  4  5  1  0
  5  6  1  0
  6  7  1  0
  7  8  2  0
  8  9  1  0
  9 10  2  0
 10 11  1  0
 11 12  1  0
 11 13  2  0
 13 14  1  0
 14 15  2  0
 14 16  1  0
 16 17  1  0
  4 18  2  0
 18 19  1  0
 19 20  2  0
 20 21  1  0
 21 22  1  0
 22 23  1  0
 20  2  1  0
 16  5  2  0
 13  7  1  0
  1 24  1  0
  1 25  1  0
  1 26  1  0
  3 27  1  0
  8 28  1  0
  9 29  1  0
 10 30  1  0
 12 31  1  0
 17 32  1  0
 18 33  1  0
 19 34  1  0
 21 35  1  0
 21 36  1  0
 22 37  1  0
 22 38  1  0
M  END
>  <meeko>  (9) 
{"is_sidechain": [false], "free_energy": -6.663, "intermolecular_energy": -8.227, "internal_energy": -0.372}

$$$$
