cand_042_out
     RDKit          3D

 38 40  0  0  0  0  0  0  0  0999 V2000
   19.6360  -23.9750   40.0650 C   0  0  0  0  0  0  0  0  0  0  0  0
   19.0330  -25.0590   40.9460 C   0  0  0  0  0  0  0  0  0  0  0  0
   19.1410  -26.4290   40.3130 C   0  0  0  0  0  0  0  0  0  0  0  0
   18.2620  -26.7530   39.2680 C   0  0  0  0  0  0  0  0  0  0  0  0
   18.3060  -28.0050   38.6510 C   0  0  0  0  0  0  0  0  0  0  0  0
   19.2350  -28.9670   39.0560 C   0  0  0  0  0  0  0  0  0  0  0  0
   19.2880  -30.3090   38.4370 C   0  0  0  0  0  0  0  0  0  0  0  0
   18.9000  -31.3210   39.3070 O   0  0  0  0  0  0  0  0  0  0  0  0
   18.9040  -32.6170   38.8600 C   0  0  0  0  0  0  0  0  0  0  0  0
   18.4930  -33.6000   39.7620 C   0  0  0  0  0  0  0  0  0  0  0  0
   18.4740  -34.9400   39.3710 C   0  0  0  0  0  0  0  0  0  0  0  0
   18.8660  -35.2990   38.0800 C   0  0  0  0  0  0  0  0  0  0  0  0
   19.2750  -34.3160   37.1820 C   0  0  0  0  0  0  0  0  0  0  0  0
   19.6470  -34.7370   35.9340 O   0  0  0  0  0  0  0  0  0  0  0  0
   19.2930  -32.9740   37.5730 C   0  0  0  0  0  0  0  0  0  0  0  0
   19.7160  -31.9120   36.6610 C   0  0  0  0  0  0  0  0  0  0  0  0
   20.0820  -32.1480   35.5110 O   0  0  0  0  0  0  0  0  0  0  0  0
   19.6910  -30.5220   37.1710 C   0  0  0  0  0  0  0  0  0  0  0  0
   20.1050  -29.5270   36.3030 O   0  0  0  0  0  0  0  0  0  0  0  0
   20.1040  -28.6490   40.1120 C   0  0  0  0  0  0  0  0  0  0  0  0
   20.0680  -27.3950   40.7500 C   0  0  0  0  0  0  0  0  0  0  0  0
   21.0430  -27.1190   41.8610 C   0  0  0  0  0  0  0  0  0  0  0  0
   20.0732  -23.1890   40.6982 H   0  0  0  0  0  0  0  0  0  0  0  0
   20.4202  -24.4128   39.4299 H   0  0  0  0  0  0  0  0  0  0  0  0
   18.8505  -23.5395   39.4299 H   0  0  0  0  0  0  0  0  0  0  0  0
   19.5640  -25.0700   41.9093 H   0  0  0  0  0  0  0  0  0  0  0  0
   17.9656  -24.8310   41.0827 H   0  0  0  0  0  0  0  0  0  0  0  0
   17.5264  -26.0086   38.9294 H   0  0  0  0  0  0  0  0  0  0  0  0
   17.6022  -28.2362   37.8379 H   0  0  0  0  0  0  0  0  0  0  0  0
   18.1844  -33.3190   40.7798 H   0  0  0  0  0  0  0  0  0  0  0  0
   18.1495  -35.7146   40.0815 H   0  0  0  0  0  0  0  0  0  0  0  0
   18.8519  -36.3552   37.7729 H   0  0  0  0  0  0  0  0  0  0  0  0
   19.7760  -34.1120   35.2480 H   0  0  0  0  0  0  0  0  0  0  0  0
   19.4730  -28.9860   35.8750 H   0  0  0  0  0  0  0  0  0  0  0  0
   20.8328  -29.4004   40.4499 H   0  0  0  0  0  0  0  0  0  0  0  0
   20.5435  -27.2604   42.8308 H   0  0  0  0  0  0  0  0  0  0  0  0
   21.8940  -27.8115   41.7825 H   0  0  0  0  0  0  0  0  0  0  0  0
   21.4048  -26.0832   41.7825 H   0  0  0  0  0  0  0  0  0  0  0  0
  1  2  1  0
  2  3  1  0
  3  4  2  0
  4  5  1  0
  5  6  2  0
  6  7  1  0
  7  8  1  0
  8  9  1  0
  9 10  2  0
 10 11  1  0
 11 12  2  0
 12 13  1  0
 13 14  1  0
 13 15  2  0
 15 16  1  0
 16 17  2  0
 16 18  1  0
 18 19  1  0
  6 20  1  0
 20 21  2  0
 21 22  1  0
 21  3  1  0
 18  7  2  0
 15  9  1  0
  1 23  1  0
  1 24  1  0
  1 25  1  0
  2 26  1  0
  2 27  1  0
  4 28  1  0
  5 29  1  0
 10 30  1  0
 11 31  1  0
 12 32  1  0
 14 33  1  0
 19 34  1  0
 20 35  1  0
 22 36  1  0
 22 37  1  0
 22 38  1  0
M  END
>  <meeko>  (1) 
{"is_sidechain": [false], "free_energy": -7.825, "intermolecular_energy": -9.197, "internal_energy": -0.411}

$$$$
cand_042_out
     RDKit          3D

 38 40  0  0  0  0  0  0  0  0999 V2000
   19.6960  -33.5620   34.6880 C   0  0  0  0  0  0  0  0  0  0  0  0
   19.6560  -33.8260   36.1850 C   0  0  0  0  0  0  0  0  0  0  0  0
   19.5060  -32.5490   36.9820 C   0  0  0  0  0  0  0  0  0  0  0  0
   19.9370  -31.3460   36.4020 C   0  0  0  0  0  0  0  0  0  0  0  0
   19.8340  -30.1360   37.0920 C   0  0  0  0  0  0  0  0  0  0  0  0
   19.2910  -30.0920   38.3790 C   0  0  0  0  0  0  0  0  0  0  0  0
   19.1920  -28.8300   39.1410 C   0  0  0  0  0  0  0  0  0  0  0  0
   20.0710  -28.7770   40.2170 O   0  0  0  0  0  0  0  0  0  0  0  0
   20.0830  -27.6600   41.0100 C   0  0  0  0  0  0  0  0  0  0  0  0
   20.9910  -27.6440   42.0700 C   0  0  0  0  0  0  0  0  0  0  0  0
   21.0540  -26.5360   42.9170 C   0  0  0  0  0  0  0  0  0  0  0  0
   20.2090  -25.4440   42.7060 C   0  0  0  0  0  0  0  0  0  0  0  0
   19.3040  -25.4620   41.6480 C   0  0  0  0  0  0  0  0  0  0  0  0
   18.5060  -24.3610   41.4990 O   0  0  0  0  0  0  0  0  0  0  0  0
   19.2420  -26.5710   40.7990 C   0  0  0  0  0  0  0  0  0  0  0  0
   18.3060  -26.6310   39.6760 C   0  0  0  0  0  0  0  0  0  0  0  0
   17.5260  -25.7130   39.4300 O   0  0  0  0  0  0  0  0  0  0  0  0
   18.3250  -27.8480   38.8330 C   0  0  0  0  0  0  0  0  0  0  0  0
   17.4270  -27.8980   37.7820 O   0  0  0  0  0  0  0  0  0  0  0  0
   18.8750  -31.2980   38.9660 C   0  0  0  0  0  0  0  0  0  0  0  0
   18.9790  -32.5270   38.2880 C   0  0  0  0  0  0  0  0  0  0  0  0
   18.4950  -33.7760   38.9720 C   0  0  0  0  0  0  0  0  0  0  0  0
   19.8586  -32.4889   34.5091 H   0  0  0  0  0  0  0  0  0  0  0  0
   20.5172  -34.1376   34.2360 H   0  0  0  0  0  0  0  0  0  0  0  0
   18.7412  -33.8685   34.2360 H   0  0  0  0  0  0  0  0  0  0  0  0
   18.8037  -34.4851   36.4067 H   0  0  0  0  0  0  0  0  0  0  0  0
   20.6080  -34.2961   36.4726 H   0  0  0  0  0  0  0  0  0  0  0  0
   20.3627  -31.3562   35.3878 H   0  0  0  0  0  0  0  0  0  0  0  0
   20.1841  -29.2075   36.6172 H   0  0  0  0  0  0  0  0  0  0  0  0
   21.6564  -28.5037   42.2378 H   0  0  0  0  0  0  0  0  0  0  0  0
   21.7702  -26.5229   43.7518 H   0  0  0  0  0  0  0  0  0  0  0  0
   20.2584  -24.5717   43.3743 H   0  0  0  0  0  0  0  0  0  0  0  0
   18.3860  -23.7690   42.2150 H   0  0  0  0  0  0  0  0  0  0  0  0
   17.0770  -27.1060   37.4270 H   0  0  0  0  0  0  0  0  0  0  0  0
   18.4566  -31.2817   39.9832 H   0  0  0  0  0  0  0  0  0  0  0  0
   18.5474  -33.6407   40.0624 H   0  0  0  0  0  0  0  0  0  0  0  0
   17.4543  -33.9759   38.6769 H   0  0  0  0  0  0  0  0  0  0  0  0
   19.1293  -34.6249   38.6769 H   0  0  0  0  0  0  0  0  0  0  0  0
  1  2  1  0
  2  3  1  0
  3  4  2  0
  4  5  1  0
  5  6  2  0
  6  7  1  0
  7  8  1  0
  8  9  1  0
  9 10  2  0
 10 11  1  0
 11 12  2  0
 12 13  1  0
 13 14  1  0
 13 15  2  0
 15 16  1  0
 16 17  2  0
 16 18  1  0
 18 19  1  0
  6 20  1  0
 20 21  2  0
 21 22  1  0
 21  3  1  0
 18  7  2  0
 15  9  1  0
  1 23  1  0
  1 24  1  0
  1 25  1  0
  2 26  1  0
  2 27  1  0
  4 28  1  0
  5 29  1  0
 10 30  1  0
 11 31  1  0
 12 32  1  0
 14 33  1  0
 19 34  1  0
 20 35  1  0
 22 36  1  0
 22 37  1  0
 22 38  1  0
M  END
>  <meeko>  (2) 
{"is_sidechain": [false], "free_energy": -7.575, "intermolecular_energy": -8.911, "internal_energy": -0.404}

$$$$
cand_042_out
     RDKit          3D

 38 40  0  0  0  0  0  0  0  0999 V2000
   18.6580  -27.5760   35.3020 C   0  0  0  0  0  0  0  0  0  0  0  0
   17.8820  -27.1980   36.5550 C   0  0  0  0  0  0  0  0  0  0  0  0
   18.7620  -27.1860   37.7840 C   0  0  0  0  0  0  0  0  0  0  0  0
   18.8920  -28.3710   38.5250 C   0  0  0  0  0  0  0  0  0  0  0  0
   19.6820  -28.4200   39.6760 C   0  0  0  0  0  0  0  0  0  0  0  0
   20.3700  -27.2860   40.1160 C   0  0  0  0  0  0  0  0  0  0  0  0
   21.1940  -27.3020   41.3440 C   0  0  0  0  0  0  0  0  0  0  0  0
   22.1810  -28.2800   41.3200 O   0  0  0  0  0  0  0  0  0  0  0  0
   23.0180  -28.4050   42.3980 C   0  0  0  0  0  0  0  0  0  0  0  0
   24.0030  -29.3910   42.3260 C   0  0  0  0  0  0  0  0  0  0  0  0
   24.8880  -29.5710   43.3910 C   0  0  0  0  0  0  0  0  0  0  0  0
   24.7890  -28.7670   44.5280 C   0  0  0  0  0  0  0  0  0  0  0  0
   23.8050  -27.7840   44.5970 C   0  0  0  0  0  0  0  0  0  0  0  0
   23.7630  -27.0330   45.7410 O   0  0  0  0  0  0  0  0  0  0  0  0
   22.9190  -27.6020   43.5310 C   0  0  0  0  0  0  0  0  0  0  0  0
   21.8720  -26.5820   43.5640 C   0  0  0  0  0  0  0  0  0  0  0  0
   21.7160  -25.8400   44.5330 O   0  0  0  0  0  0  0  0  0  0  0  0
   20.9910  -26.4660   42.3800 C   0  0  0  0  0  0  0  0  0  0  0  0
   19.9970  -25.5060   42.4270 O   0  0  0  0  0  0  0  0  0  0  0  0
   20.2280  -26.0960   39.3850 C   0  0  0  0  0  0  0  0  0  0  0  0
   19.4300  -26.0280   38.2280 C   0  0  0  0  0  0  0  0  0  0  0  0
   19.3400  -24.7230   37.4850 C   0  0  0  0  0  0  0  0  0  0  0  0
   19.6128  -28.0411   35.5884 H   0  0  0  0  0  0  0  0  0  0  0  0
   18.0678  -28.2875   34.7059 H   0  0  0  0  0  0  0  0  0  0  0  0
   18.8544  -26.6726   34.7059 H   0  0  0  0  0  0  0  0  0  0  0  0
   17.4511  -26.1954   36.4169 H   0  0  0  0  0  0  0  0  0  0  0  0
   17.0953  -27.9516   36.7077 H   0  0  0  0  0  0  0  0  0  0  0  0
   18.3627  -29.2766   38.1937 H   0  0  0  0  0  0  0  0  0  0  0  0
   19.7633  -29.3601   40.2414 H   0  0  0  0  0  0  0  0  0  0  0  0
   24.0821  -30.0258   41.4311 H   0  0  0  0  0  0  0  0  0  0  0  0
   25.6647  -30.3478   43.3340 H   0  0  0  0  0  0  0  0  0  0  0  0
   25.4861  -28.9095   45.3668 H   0  0  0  0  0  0  0  0  0  0  0  0
   24.4190  -27.1450   46.3990 H   0  0  0  0  0  0  0  0  0  0  0  0
   20.2170  -24.5990   42.3560 H   0  0  0  0  0  0  0  0  0  0  0  0
   20.7547  -25.1924   39.7258 H   0  0  0  0  0  0  0  0  0  0  0  0
   19.2828  -23.8939   38.2057 H   0  0  0  0  0  0  0  0  0  0  0  0
   20.2317  -24.5986   36.8530 H   0  0  0  0  0  0  0  0  0  0  0  0
   18.4397  -24.7222   36.8530 H   0  0  0  0  0  0  0  0  0  0  0  0
  1  2  1  0
  2  3  1  0
  3  4  2  0
  4  5  1  0
  5  6  2  0
  6  7  1  0
  7  8  1  0
  8  9  1  0
  9 10  2  0
 10 11  1  0
 11 12  2  0
 12 13  1  0
 13 14  1  0
 13 15  2  0
 15 16  1  0
 16 17  2  0
 16 18  1  0
 18 19  1  0
  6 20  1  0
 20 21  2  0
 21 22  1  0
 21  3  1  0
 18  7  2  0
 15  9  1  0
  1 23  1  0
  1 24  1  0
  1 25  1  0
  2 26  1  0
  2 27  1  0
  4 28  1  0
  5 29  1  0
 10 30  1  0
 11 31  1  0
 12 32  1  0
 14 33  1  0
 19 34  1  0
 20 35  1  0
 22 36  1  0
 22 37  1  0
 22 38  1  0
M  END
>  <meeko>  (3) 
{"is_sidechain": [false], "free_energy": -7.039, "intermolecular_energy": -8.449, "internal_energy": -0.236}

$$$$
cand_042_out
     RDKit          3D

 38 40  0  0  0  0  0  0  0  0999 V2000
   19.5570  -23.8120   41.0740 C   0  0  0  0  0  0  0  0  0  0  0  0
   18.9860  -25.0980   41.6540 C   0  0  0  0  0  0  0  0  0  0  0  0
   19.1890  -26.2760   40.7280 C   0  0  0  0  0  0  0  0  0  0  0  0
   18.3560  -26.3920   39.6040 C   0  0  0  0  0  0  0  0  0  0  0  0
   18.4880  -27.4630   38.7170 C   0  0  0  0  0  0  0  0  0  0  0  0
   19.4600  -28.4460   38.9250 C   0  0  0  0  0  0  0  0  0  0  0  0
   19.6060  -29.6030   38.0170 C   0  0  0  0  0  0  0  0  0  0  0  0
   19.9060  -29.2320   36.7120 O   0  0  0  0  0  0  0  0  0  0  0  0
   20.0680  -30.2090   35.7640 C   0  0  0  0  0  0  0  0  0  0  0  0
   20.3840  -29.7910   34.4710 C   0  0  0  0  0  0  0  0  0  0  0  0
   20.5620  -30.7360   33.4570 C   0  0  0  0  0  0  0  0  0  0  0  0
   20.4240  -32.0970   33.7370 C   0  0  0  0  0  0  0  0  0  0  0  0
   20.1100  -32.5110   35.0290 C   0  0  0  0  0  0  0  0  0  0  0  0
   19.9890  -33.8580   35.2330 O   0  0  0  0  0  0  0  0  0  0  0  0
   19.9330  -31.5650   36.0430 C   0  0  0  0  0  0  0  0  0  0  0  0
   19.6020  -31.9580   37.4130 C   0  0  0  0  0  0  0  0  0  0  0  0
   19.4570  -33.1360   37.7360 O   0  0  0  0  0  0  0  0  0  0  0  0
   19.4430  -30.8790   38.4150 C   0  0  0  0  0  0  0  0  0  0  0  0
   19.1180  -31.2610   39.7040 O   0  0  0  0  0  0  0  0  0  0  0  0
   20.2820  -28.3380   40.0580 C   0  0  0  0  0  0  0  0  0  0  0  0
   20.1580  -27.2700   40.9660 C   0  0  0  0  0  0  0  0  0  0  0  0
   21.0860  -27.2110   42.1470 C   0  0  0  0  0  0  0  0  0  0  0  0
   19.8550  -23.1409   41.8931 H   0  0  0  0  0  0  0  0  0  0  0  0
   20.4352  -24.0473   40.4549 H   0  0  0  0  0  0  0  0  0  0  0  0
   18.7935  -23.3183   40.4549 H   0  0  0  0  0  0  0  0  0  0  0  0
   19.4856  -25.3084   42.6112 H   0  0  0  0  0  0  0  0  0  0  0  0
   17.9039  -24.9572   41.7925 H   0  0  0  0  0  0  0  0  0  0  0  0
   17.5872  -25.6274   39.4188 H   0  0  0  0  0  0  0  0  0  0  0  0
   17.8202  -27.5336   37.8458 H   0  0  0  0  0  0  0  0  0  0  0  0
   20.4929  -28.7190   34.2500 H   0  0  0  0  0  0  0  0  0  0  0  0
   20.8111  -30.4074   32.4372 H   0  0  0  0  0  0  0  0  0  0  0  0
   20.5631  -32.8407   32.9385 H   0  0  0  0  0  0  0  0  0  0  0  0
   20.4390  -34.2660   35.9450 H   0  0  0  0  0  0  0  0  0  0  0  0
   19.0050  -32.1670   39.9090 H   0  0  0  0  0  0  0  0  0  0  0  0
   21.0442  -29.1097   40.2411 H   0  0  0  0  0  0  0  0  0  0  0  0
   20.4992  -27.2483   43.0766 H   0  0  0  0  0  0  0  0  0  0  0  0
   21.7760  -28.0671   42.1143 H   0  0  0  0  0  0  0  0  0  0  0  0
   21.6620  -26.2744   42.1143 H   0  0  0  0  0  0  0  0  0  0  0  0
  1  2  1  0
  2  3  1  0
  3  4  2  0
  4  5  1  0
  5  6  2  0
  6  7  1  0
  7  8  1  0
  8  9  1  0
  9 10  2  0
 10 11  1  0
 11 12  2  0
 12 13  1  0
 13 14  1  0
 13 15  2  0
 15 16  1  0
 16 17  2  0
 16 18  1  0
 18 19  1  0
  6 20  1  0
 20 21  2  0
 21 22  1  0
 21  3  1  0
 18  7  2  0
 15  9  1  0
  1 23  1  0
  1 24  1  0
  1 25  1  0
  2 26  1  0
  2 27  1  0
  4 28  1  0
  5 29  1  0
 10 30  1  0
 11 31  1  0
 12 32  1  0
 14 33  1  0
 19 34  1  0
 20 35  1  0
 22 36  1  0
 22 37  1  0
 22 38  1  0
M  END
>  <meeko>  (4) 
{"is_sidechain": [false], "free_energy": -6.895, "intermolecular_energy": -8.214, "internal_energy": -0.302}

$$$$
cand_042_out
     RDKit          3D

 38 40  0  0  0  0  0  0  0  0999 V2000
   25.2530  -30.0600   44.0690 C   0  0  0  0  0  0  0  0  0  0  0  0
   24.6330  -28.7630   44.5670 C   0  0  0  0  0  0  0  0  0  0  0  0
   23.5870  -28.2320   43.6120 C   0  0  0  0  0  0  0  0  0  0  0  0
   23.5520  -28.7470   42.3070 C   0  0  0  0  0  0  0  0  0  0  0  0
   22.6160  -28.2900   41.3760 C   0  0  0  0  0  0  0  0  0  0  0  0
   21.6850  -27.3080   41.7250 C   0  0  0  0  0  0  0  0  0  0  0  0
   20.6990  -26.7880   40.7540 C   0  0  0  0  0  0  0  0  0  0  0  0
   20.5970  -25.4020   40.7770 O   0  0  0  0  0  0  0  0  0  0  0  0
   19.7170  -24.7880   39.9240 C   0  0  0  0  0  0  0  0  0  0  0  0
   19.6570  -23.3940   39.9720 C   0  0  0  0  0  0  0  0  0  0  0  0
   18.7800  -22.7050   39.1300 C   0  0  0  0  0  0  0  0  0  0  0  0
   17.9640  -23.4090   38.2420 C   0  0  0  0  0  0  0  0  0  0  0  0
   18.0260  -24.8000   38.1970 C   0  0  0  0  0  0  0  0  0  0  0  0
   17.1980  -25.4260   37.3050 O   0  0  0  0  0  0  0  0  0  0  0  0
   18.9040  -25.4890   39.0390 C   0  0  0  0  0  0  0  0  0  0  0  0
   19.0000  -26.9480   39.0230 C   0  0  0  0  0  0  0  0  0  0  0  0
   18.3090  -27.6380   38.2750 O   0  0  0  0  0  0  0  0  0  0  0  0
   19.9670  -27.5810   39.9490 C   0  0  0  0  0  0  0  0  0  0  0  0
   20.0400  -28.9620   39.9340 O   0  0  0  0  0  0  0  0  0  0  0  0
   21.7300  -26.7810   43.0260 C   0  0  0  0  0  0  0  0  0  0  0  0
   22.6720  -27.2240   43.9730 C   0  0  0  0  0  0  0  0  0  0  0  0
   22.6490  -26.6270   45.3530 C   0  0  0  0  0  0  0  0  0  0  0  0
   25.5488  -30.6789   44.9289 H   0  0  0  0  0  0  0  0  0  0  0  0
   24.5189  -30.6068   43.4590 H   0  0  0  0  0  0  0  0  0  0  0  0
   26.1395  -29.8321   43.4590 H   0  0  0  0  0  0  0  0  0  0  0  0
   24.1616  -28.9467   45.5437 H   0  0  0  0  0  0  0  0  0  0  0  0
   25.4331  -28.0123   44.6464 H   0  0  0  0  0  0  0  0  0  0  0  0
   24.2735  -29.5233   42.0123 H   0  0  0  0  0  0  0  0  0  0  0  0
   22.6118  -28.7073   40.3582 H   0  0  0  0  0  0  0  0  0  0  0  0
   20.2991  -22.8388   40.6716 H   0  0  0  0  0  0  0  0  0  0  0  0
   18.7324  -21.6066   39.1668 H   0  0  0  0  0  0  0  0  0  0  0  0
   17.2737  -22.8664   37.5794 H   0  0  0  0  0  0  0  0  0  0  0  0
   16.2920  -25.5420   37.5100 H   0  0  0  0  0  0  0  0  0  0  0  0
   20.1890  -29.4320   40.7300 H   0  0  0  0  0  0  0  0  0  0  0  0
   21.0094  -26.0008   43.3125 H   0  0  0  0  0  0  0  0  0  0  0  0
   22.6800  -27.4325   46.1015 H   0  0  0  0  0  0  0  0  0  0  0  0
   23.5226  -25.9713   45.4835 H   0  0  0  0  0  0  0  0  0  0  0  0
   21.7276  -26.0405   45.4835 H   0  0  0  0  0  0  0  0  0  0  0  0
  1  2  1  0
  2  3  1  0
  3  4  2  0
  4  5  1  0
  5  6  2  0
  6  7  1  0
  7  8  1  0
  8  9  1  0
  9 10  2  0
 10 11  1  0
 11 12  2  0
 12 13  1  0
 13 14  1  0
 13 15  2  0
 15 16  1  0
 16 17  2  0
 16 18  1  0
 18 19  1  0
  6 20  1  0
 20 21  2  0
 21 22  1  0
 21  3  1  0
 18  7  2  0
 15  9  1  0
  1 23  1  0
  1 24  1  0
  1 25  1  0
  2 26  1  0
  2 27  1  0
  4 28  1  0
  5 29  1  0
 10 30  1  0
 11 31  1  0
 12 32  1  0
 14 33  1  0
 19 34  1  0
 20 35  1  0
 22 36  1  0
 22 37  1  0
 22 38  1  0
M  END
>  <meeko>  (5) 
{"is_sidechain": [false], "free_energy": -6.848, "intermolecular_energy": -8.288, "internal_energy": -0.172}

$$$$
cand_042_out
     RDKit          3D

 38 40  0  0  0  0  0  0  0  0999 V2000
   18.4930  -34.5500   39.2400 C   0  0  0  0  0  0  0  0  0  0  0  0
   19.2120  -33.9880   38.0230 C   0  0  0  0  0  0  0  0  0  0  0  0
   19.2900  -32.4780   38.0590 C   0  0  0  0  0  0  0  0  0  0  0  0
   18.9730  -31.8210   39.2590 C   0  0  0  0  0  0  0  0  0  0  0  0
   19.0170  -30.4280   39.3510 C   0  0  0  0  0  0  0  0  0  0  0  0
   19.3850  -29.6510   38.2490 C   0  0  0  0  0  0  0  0  0  0  0  0
   19.4160  -28.1750   38.3120 C   0  0  0  0  0  0  0  0  0  0  0  0
   18.7290  -27.5740   37.2640 O   0  0  0  0  0  0  0  0  0  0  0  0
   18.6790  -26.2060   37.2000 C   0  0  0  0  0  0  0  0  0  0  0  0
   17.9660  -25.6460   36.1390 C   0  0  0  0  0  0  0  0  0  0  0  0
   17.8770  -24.2580   36.0150 C   0  0  0  0  0  0  0  0  0  0  0  0
   18.5010  -23.4300   36.9500 C   0  0  0  0  0  0  0  0  0  0  0  0
   19.2120  -23.9910   38.0080 C   0  0  0  0  0  0  0  0  0  0  0  0
   19.7990  -23.1230   38.8870 O   0  0  0  0  0  0  0  0  0  0  0  0
   19.3000  -25.3810   38.1330 C   0  0  0  0  0  0  0  0  0  0  0  0
   20.0360  -26.0110   39.2280 C   0  0  0  0  0  0  0  0  0  0  0  0
   20.6180  -25.3490   40.0870 O   0  0  0  0  0  0  0  0  0  0  0  0
   20.0620  -27.4910   39.2740 C   0  0  0  0  0  0  0  0  0  0  0  0
   20.7720  -28.0750   40.3080 O   0  0  0  0  0  0  0  0  0  0  0  0
   19.6870  -30.3070   37.0450 C   0  0  0  0  0  0  0  0  0  0  0  0
   19.6400  -31.7090   36.9320 C   0  0  0  0  0  0  0  0  0  0  0  0
   19.9940  -32.3430   35.6150 C   0  0  0  0  0  0  0  0  0  0  0  0
   18.9734  -34.1745   40.1555 H   0  0  0  0  0  0  0  0  0  0  0  0
   17.4397  -34.2333   39.2223 H   0  0  0  0  0  0  0  0  0  0  0  0
   18.5459  -35.6486   39.2223 H   0  0  0  0  0  0  0  0  0  0  0  0
   20.2332  -34.3959   37.9939 H   0  0  0  0  0  0  0  0  0  0  0  0
   18.6425  -34.2778   37.1277 H   0  0  0  0  0  0  0  0  0  0  0  0
   18.6855  -32.4128   40.1405 H   0  0  0  0  0  0  0  0  0  0  0  0
   18.7592  -29.9371   40.3010 H   0  0  0  0  0  0  0  0  0  0  0  0
   17.4747  -26.2973   35.4012 H   0  0  0  0  0  0  0  0  0  0  0  0
   17.3144  -23.8163   35.1793 H   0  0  0  0  0  0  0  0  0  0  0  0
   18.4312  -22.3367   36.8512 H   0  0  0  0  0  0  0  0  0  0  0  0
   20.2300  -22.3540   38.5690 H   0  0  0  0  0  0  0  0  0  0  0  0
   20.8290  -27.6460   41.1380 H   0  0  0  0  0  0  0  0  0  0  0  0
   19.9681  -29.7087   36.1658 H   0  0  0  0  0  0  0  0  0  0  0  0
   20.5231  -33.2905   35.7946 H   0  0  0  0  0  0  0  0  0  0  0  0
   19.0747  -32.5390   35.0435 H   0  0  0  0  0  0  0  0  0  0  0  0
   20.6431  -31.6632   35.0435 H   0  0  0  0  0  0  0  0  0  0  0  0
  1  2  1  0
  2  3  1  0
  3  4  2  0
  4  5  1  0
  5  6  2  0
  6  7  1  0
  7  8  1  0
  8  9  1  0
  9 10  2  0
 10 11  1  0
 11 12  2  0
 12 13  1  0
 13 14  1  0
 13 15  2  0
 15 16  1  0
 16 17  2  0
 16 18  1  0
 18 19  1  0
  6 20  1  0
 20 21  2  0
 21 22  1  0
 21  3  1  0
 18  7  2  0
 15  9  1  0
  1 23  1  0
  1 24  1  0
  1 25  1  0
  2 26  1  0
  2 27  1  0
  4 28  1  0
  5 29  1  0
 10 30  1  0
 11 31  1  0
 12 32  1  0
 14 33  1  0
 19 34  1  0
 20 35  1  0
 22 36  1  0
 22 37  1  0
 22 38  1  0
M  END
>  <meeko>  (6) 
{"is_sidechain": [false], "free_energy": -6.725, "intermolecular_energy": -8.089, "internal_energy": -0.227}

$$$$
cand_042_out
     RDKit          3D

 38 40  0  0  0  0  0  0  0  0999 V2000
   20.2720  -24.9380   49.3090 C   0  0  0  0  0  0  0  0  0  0  0  0
   20.6410  -23.7900   48.3820 C   0  0  0  0  0  0  0  0  0  0  0  0
   20.5230  -24.1780   46.9250 C   0  0  0  0  0  0  0  0  0  0  0  0
   21.5760  -24.8990   46.3390 C   0  0  0  0  0  0  0  0  0  0  0  0
   21.5300  -25.2770   44.9950 C   0  0  0  0  0  0  0  0  0  0  0  0
   20.4290  -24.9510   44.2000 C   0  0  0  0  0  0  0  0  0  0  0  0
   20.3640  -25.3170   42.7690 C   0  0  0  0  0  0  0  0  0  0  0  0
   19.9270  -24.2730   41.9630 O   0  0  0  0  0  0  0  0  0  0  0  0
   19.8200  -24.4770   40.6120 C   0  0  0  0  0  0  0  0  0  0  0  0
   19.3910  -23.3970   39.8390 C   0  0  0  0  0  0  0  0  0  0  0  0
   19.2600  -23.5390   38.4560 C   0  0  0  0  0  0  0  0  0  0  0  0
   19.5570  -24.7590   37.8450 C   0  0  0  0  0  0  0  0  0  0  0  0
   19.9860  -25.8350   38.6190 C   0  0  0  0  0  0  0  0  0  0  0  0
   20.2580  -27.0010   37.9570 O   0  0  0  0  0  0  0  0  0  0  0  0
   20.1180  -25.6930   40.0030 C   0  0  0  0  0  0  0  0  0  0  0  0
   20.5640  -26.7970   40.8520 C   0  0  0  0  0  0  0  0  0  0  0  0
   20.8380  -27.9040   40.3900 O   0  0  0  0  0  0  0  0  0  0  0  0
   20.6780  -26.5410   42.3060 C   0  0  0  0  0  0  0  0  0  0  0  0
   21.0890  -27.5970   43.0990 O   0  0  0  0  0  0  0  0  0  0  0  0
   19.3830  -24.2160   44.7810 C   0  0  0  0  0  0  0  0  0  0  0  0
   19.4160  -23.8200   46.1310 C   0  0  0  0  0  0  0  0  0  0  0  0
   18.2510  -23.0510   46.6910 C   0  0  0  0  0  0  0  0  0  0  0  0
   20.3765  -24.6130   50.3547 H   0  0  0  0  0  0  0  0  0  0  0  0
   19.2313  -25.2408   49.1214 H   0  0  0  0  0  0  0  0  0  0  0  0
   20.9414  -25.7905   49.1214 H   0  0  0  0  0  0  0  0  0  0  0  0
   19.9673  -22.9433   48.5797 H   0  0  0  0  0  0  0  0  0  0  0  0
   21.6889  -23.5187   48.5776 H   0  0  0  0  0  0  0  0  0  0  0  0
   22.4509  -25.1704   46.9480 H   0  0  0  0  0  0  0  0  0  0  0  0
   22.3698  -25.8373   44.5582 H   0  0  0  0  0  0  0  0  0  0  0  0
   19.1564  -22.4352   40.3186 H   0  0  0  0  0  0  0  0  0  0  0  0
   18.9221  -22.6879   37.8465 H   0  0  0  0  0  0  0  0  0  0  0  0
   19.4525  -24.8702   36.7556 H   0  0  0  0  0  0  0  0  0  0  0  0
   19.9470  -27.8160   38.2970 H   0  0  0  0  0  0  0  0  0  0  0  0
   20.4600  -28.2010   43.4380 H   0  0  0  0  0  0  0  0  0  0  0  0
   18.5143  -23.9424   44.1642 H   0  0  0  0  0  0  0  0  0  0  0  0
   18.2893  -23.0763   47.7900 H   0  0  0  0  0  0  0  0  0  0  0  0
   18.3006  -22.0076   46.3463 H   0  0  0  0  0  0  0  0  0  0  0  0
   17.3111  -23.5067   46.3463 H   0  0  0  0  0  0  0  0  0  0  0  0
  1  2  1  0
  2  3  1  0
  3  4  2  0
  4  5  1  0
  5  6  2  0
  6  7  1  0
  7  8  1  0
  8  9  1  0
  9 10  2  0
 10 11  1  0
 11 12  2  0
 12 13  1  0
 13 14  1  0
 13 15  2  0
 15 16  1  0
 16 17  2  0
 16 18  1  0
 18 19  1  0
  6 20  1  0
 20 21  2  0
 21 22  1  0
 21  3  1  0
 18  7  2  0
 15  9  1  0
  1 23  1  0
  1 24  1  0
  1 25  1  0
  2 26  1  0
  2 27  1  0
  4 28  1  0
  5 29  1  0
 10 30  1  0
 11 31  1  0
 12 32  1  0
 14 33  1  0
 19 34  1  0
 20 35  1  0
 22 36  1  0
 22 37  1  0
 22 38  1  0
M  END
>  <meeko>  (7) 
{"is_sidechain": [false], "free_energy": -6.707, "intermolecular_energy": -8.101, "internal_energy": -0.194}

$$$$
cand_042_out
     RDKit          3D

 38 40  0  0  0  0  0  0  0  0999 V2000
   23.3800  -22.4580   49.7790 C   0  0  0  0  0  0  0  0  0  0  0  0
   22.0390  -23.1780   49.7780 C   0  0  0  0  0  0  0  0  0  0  0  0
   21.5470  -23.4580   48.3760 C   0  0  0  0  0  0  0  0  0  0  0  0
   22.0820  -22.7060   47.3180 C   0  0  0  0  0  0  0  0  0  0  0  0
   21.6600  -22.9100   46.0020 C   0  0  0  0  0  0  0  0  0  0  0  0
   20.6950  -23.8770   45.7050 C   0  0  0  0  0  0  0  0  0  0  0  0
   20.2120  -24.0990   44.3260 C   0  0  0  0  0  0  0  0  0  0  0  0
   20.4860  -25.3780   43.8560 O   0  0  0  0  0  0  0  0  0  0  0  0
   20.0910  -25.7170   42.5880 C   0  0  0  0  0  0  0  0  0  0  0  0
   20.3740  -27.0160   42.1630 C   0  0  0  0  0  0  0  0  0  0  0  0
   20.0000  -27.4270   40.8820 C   0  0  0  0  0  0  0  0  0  0  0  0
   19.3450  -26.5400   40.0250 C   0  0  0  0  0  0  0  0  0  0  0  0
   19.0640  -25.2440   40.4520 C   0  0  0  0  0  0  0  0  0  0  0  0
   18.4220  -24.4270   39.5630 O   0  0  0  0  0  0  0  0  0  0  0  0
   19.4370  -24.8330   41.7350 C   0  0  0  0  0  0  0  0  0  0  0  0
   19.1620  -23.4820   42.2220 C   0  0  0  0  0  0  0  0  0  0  0  0
   18.5960  -22.6420   41.5250 O   0  0  0  0  0  0  0  0  0  0  0  0
   19.5920  -23.1500   43.6000 C   0  0  0  0  0  0  0  0  0  0  0  0
   19.3370  -21.8650   44.0450 O   0  0  0  0  0  0  0  0  0  0  0  0
   20.1480  -24.6180   46.7650 C   0  0  0  0  0  0  0  0  0  0  0  0
   20.5560  -24.4190   48.0970 C   0  0  0  0  0  0  0  0  0  0  0  0
   19.9400  -25.2630   49.1790 C   0  0  0  0  0  0  0  0  0  0  0  0
   23.7024  -22.2849   50.8163 H   0  0  0  0  0  0  0  0  0  0  0  0
   24.1282  -23.0757   49.2607 H   0  0  0  0  0  0  0  0  0  0  0  0
   23.2785  -21.4931   49.2607 H   0  0  0  0  0  0  0  0  0  0  0  0
   22.1482  -24.1328   50.3133 H   0  0  0  0  0  0  0  0  0  0  0  0
   21.3034  -22.5264   50.2722 H   0  0  0  0  0  0  0  0  0  0  0  0
   22.8462  -21.9434   47.5288 H   0  0  0  0  0  0  0  0  0  0  0  0
   22.0912  -22.3039   45.1916 H   0  0  0  0  0  0  0  0  0  0  0  0
   20.8911  -27.7153   42.8365 H   0  0  0  0  0  0  0  0  0  0  0  0
   20.2217  -28.4511   40.5473 H   0  0  0  0  0  0  0  0  0  0  0  0
   19.0517  -26.8638   39.0155 H   0  0  0  0  0  0  0  0  0  0  0  0
   17.8100  -23.7870   39.8710 H   0  0  0  0  0  0  0  0  0  0  0  0
   19.3580  -21.1480   43.4440 H   0  0  0  0  0  0  0  0  0  0  0  0
   19.3796  -25.3747   46.5482 H   0  0  0  0  0  0  0  0  0  0  0  0
   20.2296  -24.8661   50.1632 H   0  0  0  0  0  0  0  0  0  0  0  0
   18.8445  -25.2405   49.0825 H   0  0  0  0  0  0  0  0  0  0  0  0
   20.2954  -26.2995   49.0825 H   0  0  0  0  0  0  0  0  0  0  0  0
  1  2  1  0
  2  3  1  0
  3  4  2  0
  4  5  1  0
  5  6  2  0
  6  7  1  0
  7  8  1  0
  8  9  1  0
  9 10  2  0
 10 11  1  0
 11 12  2  0
 12 13  1  0
 13 14  1  0
 13 15  2  0
 15 16  1  0
 16 17  2  0
 16 18  1  0
 18 19  1  0
  6 20  1  0
 20 21  2  0
 21 22  1  0
 21  3  1  0
 18  7  2  0
 15  9  1  0
  1 23  1  0
  1 24  1  0
  1 25  1  0
  2 26  1  0
  2 27  1  0
  4 28  1  0
  5 29  1  0
 10 30  1  0
 11 31  1  0
 12 32  1  0
 14 33  1  0
 19 34  1  0
 20 35  1  0
 22 36  1  0
 22 37  1  0
 22 38  1  0
M  END
>  <meeko>  (8) 
{"is_sidechain": [false], "free_energy": -6.673, "intermolecular_energy": -7.935, "internal_energy": -0.32}

$$$$
cand_042_out
     RDKit          3D

 38 40  0  0  0  0  0  0  0  0999 V2000
   19.9840  -24.9340   49.0890 C   0  0  0  0  0  0  0  0  0  0  0  0
   20.0090  -23.6270   48.3100 C   0  0  0  0  0  0  0  0  0  0  0  0
   19.9060  -23.8550   46.8180 C   0  0  0  0  0  0  0  0  0  0  0  0
   20.9410  -24.5540   46.1760 C   0  0  0  0  0  0  0  0  0  0  0  0
   20.9070  -24.7870   44.7990 C   0  0  0  0  0  0  0  0  0  0  0  0
   19.8360  -24.3330   44.0250 C   0  0  0  0  0  0  0  0  0  0  0  0
   19.7860  -24.5440   42.5630 C   0  0  0  0  0  0  0  0  0  0  0  0
   19.8150  -25.8870   42.2090 O   0  0  0  0  0  0  0  0  0  0  0  0
   19.7740  -26.2250   40.8810 C   0  0  0  0  0  0  0  0  0  0  0  0
   19.7910  -27.5860   40.5720 C   0  0  0  0  0  0  0  0  0  0  0  0
   19.7520  -27.9980   39.2380 C   0  0  0  0  0  0  0  0  0  0  0  0
   19.6980  -27.0510   38.2130 C   0  0  0  0  0  0  0  0  0  0  0  0
   19.6820  -25.6930   38.5250 C   0  0  0  0  0  0  0  0  0  0  0  0
   19.6300  -24.8190   37.4730 O   0  0  0  0  0  0  0  0  0  0  0  0
   19.7190  -25.2810   39.8600 C   0  0  0  0  0  0  0  0  0  0  0  0
   19.7040  -23.8660   40.2300 C   0  0  0  0  0  0  0  0  0  0  0  0
   19.6640  -22.9720   39.3850 O   0  0  0  0  0  0  0  0  0  0  0  0
   19.7390  -23.5350   41.6730 C   0  0  0  0  0  0  0  0  0  0  0  0
   19.7360  -22.1930   42.0100 O   0  0  0  0  0  0  0  0  0  0  0  0
   18.8080  -23.6200   44.6640 C   0  0  0  0  0  0  0  0  0  0  0  0
   18.8300  -23.3700   46.0490 C   0  0  0  0  0  0  0  0  0  0  0  0
   17.6860  -22.6160   46.6680 C   0  0  0  0  0  0  0  0  0  0  0  0
   19.9881  -24.7181   50.1676 H   0  0  0  0  0  0  0  0  0  0  0  0
   19.0749  -25.4971   48.8313 H   0  0  0  0  0  0  0  0  0  0  0  0
   20.8709  -25.5315   48.8313 H   0  0  0  0  0  0  0  0  0  0  0  0
   19.1618  -23.0044   48.6335 H   0  0  0  0  0  0  0  0  0  0  0  0
   20.9687  -23.1289   48.5124 H   0  0  0  0  0  0  0  0  0  0  0  0
   21.7920  -24.9239   46.7667 H   0  0  0  0  0  0  0  0  0  0  0  0
   21.7321  -25.3337   44.3190 H   0  0  0  0  0  0  0  0  0  0  0  0
   19.8351  -28.3332   41.3781 H   0  0  0  0  0  0  0  0  0  0  0  0
   19.7638  -29.0706   38.9942 H   0  0  0  0  0  0  0  0  0  0  0  0
   19.6682  -27.3761   37.1626 H   0  0  0  0  0  0  0  0  0  0  0  0
   20.2490  -24.1190   37.4150 H   0  0  0  0  0  0  0  0  0  0  0  0
   18.9330  -21.7670   42.2320 H   0  0  0  0  0  0  0  0  0  0  0  0
   17.9634  -23.2471   44.0661 H   0  0  0  0  0  0  0  0  0  0  0  0
   17.7635  -22.6671   47.7641 H   0  0  0  0  0  0  0  0  0  0  0  0
   17.7230  -21.5647   46.3464 H   0  0  0  0  0  0  0  0  0  0  0  0
   16.7345  -23.0645   46.3464 H   0  0  0  0  0  0  0  0  0  0  0  0
  1  2  1  0
  2  3  1  0
  3  4  2  0
  4  5  1  0
  5  6  2  0
  6  7  1  0
  7  8  1  0
  8  9  1  0
  9 10  2  0
 10 11  1  0
 11 12  2  0
 12 13  1  0
 13 14  1  0
 13 15  2  0
 15 16  1  0
 16 17  2  0
 16 18  1  0
 18 19  1  0
  6 20  1  0
 20 21  2  0
 21 22  1  0
 21  3  1  0
 18  7  2  0
 15  9  1  0
  1 23  1  0
  1 24  1  0
  1 25  1  0
  2 26  1  0
  2 27  1  0
  4 28  1  0
  5 29  1  0
 10 30  1  0
 11 31  1  0
 12 32  1  0
 14 33  1  0
 19 34  1  0
 20 35  1  0
 22 36  1  0
 22 37  1  0
 22 38  1  0
M  END
>  <meeko>  (9) 
{"is_sidechain": [false], "free_energy": -6.568, "intermolecular_energy": -7.841, "internal_energy": -0.29}

$$$$
