cand_053_out
     RDKit          3D

 44 46  0  0  0  0  0  0  0  0999 V2000
   18.9750  -23.0050   39.2490 C   0  0  0  0  0  0  0  0  0  0  0  0
   19.7620  -23.8900   40.2030 C   0  0  0  0  0  0  0  0  0  0  0  0
   18.8530  -24.9060   40.8970 C   0  0  0  0  0  0  0  0  0  0  0  0
   19.0200  -26.2950   40.3180 C   0  0  0  0  0  0  0  0  0  0  0  0
   18.2140  -26.6560   39.2240 C   0  0  0  0  0  0  0  0  0  0  0  0
   18.3240  -27.9150   38.6310 C   0  0  0  0  0  0  0  0  0  0  0  0
   19.2490  -28.8490   39.1060 C   0  0  0  0  0  0  0  0  0  0  0  0
   19.3290  -30.1880   38.4850 C   0  0  0  0  0  0  0  0  0  0  0  0
   18.9080  -31.2040   39.3360 O   0  0  0  0  0  0  0  0  0  0  0  0
   18.9320  -32.5000   38.8860 C   0  0  0  0  0  0  0  0  0  0  0  0
   18.5150  -33.4880   39.7790 C   0  0  0  0  0  0  0  0  0  0  0  0
   18.5120  -34.8280   39.3840 C   0  0  0  0  0  0  0  0  0  0  0  0
   18.9250  -35.1780   38.0960 C   0  0  0  0  0  0  0  0  0  0  0  0
   19.3400  -34.1890   37.2080 C   0  0  0  0  0  0  0  0  0  0  0  0
   19.7310  -34.6020   35.9640 O   0  0  0  0  0  0  0  0  0  0  0  0
   19.3430  -32.8490   37.6050 C   0  0  0  0  0  0  0  0  0  0  0  0
   19.7720  -31.7800   36.7030 C   0  0  0  0  0  0  0  0  0  0  0  0
   20.1410  -32.0080   35.5520 O   0  0  0  0  0  0  0  0  0  0  0  0
   19.7460  -30.3940   37.2220 C   0  0  0  0  0  0  0  0  0  0  0  0
   20.1400  -29.3890   36.3560 O   0  0  0  0  0  0  0  0  0  0  0  0
   20.0510  -28.4920   40.1990 C   0  0  0  0  0  0  0  0  0  0  0  0
   19.9610  -27.2220   40.8060 C   0  0  0  0  0  0  0  0  0  0  0  0
   20.8670  -26.9350   41.9820 C   0  0  0  0  0  0  0  0  0  0  0  0
   22.2230  -27.6100   41.8340 C   0  0  0  0  0  0  0  0  0  0  0  0
   18.3529  -22.3055   39.8266 H   0  0  0  0  0  0  0  0  0  0  0  0
   19.6726  -22.4379   38.6152 H   0  0  0  0  0  0  0  0  0  0  0  0
   18.3303  -23.6315   38.6152 H   0  0  0  0  0  0  0  0  0  0  0  0
   20.5350  -24.4295   39.6360 H   0  0  0  0  0  0  0  0  0  0  0  0
   20.2188  -23.2505   40.9726 H   0  0  0  0  0  0  0  0  0  0  0  0
   19.1023  -24.9340   41.9680 H   0  0  0  0  0  0  0  0  0  0  0  0
   17.8096  -24.5937   40.7428 H   0  0  0  0  0  0  0  0  0  0  0  0
   17.4843  -25.9341   38.8286 H   0  0  0  0  0  0  0  0  0  0  0  0
   17.6759  -28.1747   37.7810 H   0  0  0  0  0  0  0  0  0  0  0  0
   18.1891  -33.2120   40.7927 H   0  0  0  0  0  0  0  0  0  0  0  0
   18.1844  -35.6078   40.0873 H   0  0  0  0  0  0  0  0  0  0  0  0
   18.9223  -36.2328   37.7840 H   0  0  0  0  0  0  0  0  0  0  0  0
   19.2010  -34.4050   35.2170 H   0  0  0  0  0  0  0  0  0  0  0  0
   20.3340  -29.5920   35.4620 H   0  0  0  0  0  0  0  0  0  0  0  0
   20.7712  -29.2233   40.5946 H   0  0  0  0  0  0  0  0  0  0  0  0
   21.0176  -25.8480   42.0575 H   0  0  0  0  0  0  0  0  0  0  0  0
   20.3857  -27.3334   42.8873 H   0  0  0  0  0  0  0  0  0  0  0  0
   22.6400  -27.8176   42.8305 H   0  0  0  0  0  0  0  0  0  0  0  0
   22.1043  -28.5542   41.2823 H   0  0  0  0  0  0  0  0  0  0  0  0
   22.9048  -26.9461   41.2823 H   0  0  0  0  0  0  0  0  0  0  0  0
  1  2  1  0
  2  3  1  0
  3  4  1  0
  4  5  2  0
  5  6  1  0
  6  7  2  0
  7  8  1  0
  8  9  1  0
  9 10  1  0
 10 11  2  0
 11 12  1  0
 12 13  2  0
 13 14  1  0
 14 15  1  0
 14 16  2  0
 16 17  1  0
 17 18  2  0
 17 19  1  0
 19 20  1  0
  7 21  1  0
 21 22  2  0
 22 23  1  0
 23 24  1  0
 22  4  1  0
 19  8  2  0
 16 10  1  0
  1 25  1  0
  1 26  1  0
  1 27  1  0
  2 28  1  0
  2 29  1  0
  3 30  1  0
  3 31  1  0
  5 32  1  0
  6 33  1  0
 11 34  1  0
 12 35  1  0
 13 36  1  0
 15 37  1  0
 20 38  1  0
 21 39  1  0
 23 40  1  0
 23 41  1  0
 24 42  1  0
 24 43  1  0
 24 44  1  0
M  END
>  <meeko>  (1) 
{"is_sidechain": [false], "free_energy": -7.846, "intermolecular_energy": -10.139, "internal_energy": -0.686}

$$$$
cand_053_out
     RDKit          3D

 44 46  0  0  0  0  0  0  0  0999 V2000
   20.5450  -33.8230   32.9940 C   0  0  0  0  0  0  0  0  0  0  0  0
   20.1110  -32.7100   33.9350 C   0  0  0  0  0  0  0  0  0  0  0  0
   19.8770  -33.2380   35.3520 C   0  0  0  0  0  0  0  0  0  0  0  0
   19.7090  -32.1110   36.3490 C   0  0  0  0  0  0  0  0  0  0  0  0
   19.9140  -30.7950   35.8990 C   0  0  0  0  0  0  0  0  0  0  0  0
   19.7630  -29.7060   36.7610 C   0  0  0  0  0  0  0  0  0  0  0  0
   19.3950  -29.8990   38.0960 C   0  0  0  0  0  0  0  0  0  0  0  0
   19.2710  -28.7360   39.0000 C   0  0  0  0  0  0  0  0  0  0  0  0
   20.2130  -28.7450   40.0230 O   0  0  0  0  0  0  0  0  0  0  0  0
   20.2100  -27.7220   40.9370 C   0  0  0  0  0  0  0  0  0  0  0  0
   21.1640  -27.7800   41.9540 C   0  0  0  0  0  0  0  0  0  0  0  0
   21.2180  -26.7680   42.9170 C   0  0  0  0  0  0  0  0  0  0  0  0
   20.3190  -25.7000   42.8600 C   0  0  0  0  0  0  0  0  0  0  0  0
   19.3690  -25.6470   41.8440 C   0  0  0  0  0  0  0  0  0  0  0  0
   18.5200  -24.5730   41.8480 O   0  0  0  0  0  0  0  0  0  0  0  0
   19.3150  -26.6590   40.8820 C   0  0  0  0  0  0  0  0  0  0  0  0
   18.3330  -26.6400   39.7970 C   0  0  0  0  0  0  0  0  0  0  0  0
   17.5150  -25.7300   39.6760 O   0  0  0  0  0  0  0  0  0  0  0  0
   18.3550  -27.7640   38.8340 C   0  0  0  0  0  0  0  0  0  0  0  0
   17.4300  -27.7290   37.8050 O   0  0  0  0  0  0  0  0  0  0  0  0
   19.1940  -31.2100   38.5460 C   0  0  0  0  0  0  0  0  0  0  0  0
   19.3330  -32.3230   37.6900 C   0  0  0  0  0  0  0  0  0  0  0  0
   19.0990  -33.6980   38.2730 C   0  0  0  0  0  0  0  0  0  0  0  0
   18.5880  -33.6300   39.7040 C   0  0  0  0  0  0  0  0  0  0  0  0
   20.8828  -34.6892   33.5818 H   0  0  0  0  0  0  0  0  0  0  0  0
   19.6963  -34.1187   32.3598 H   0  0  0  0  0  0  0  0  0  0  0  0
   21.3699  -33.4661   32.3598 H   0  0  0  0  0  0  0  0  0  0  0  0
   20.8959  -31.9399   33.9649 H   0  0  0  0  0  0  0  0  0  0  0  0
   19.1659  -32.2890   33.5614 H   0  0  0  0  0  0  0  0  0  0  0  0
   18.9672  -33.8563   35.3563 H   0  0  0  0  0  0  0  0  0  0  0  0
   20.7566  -33.8288   35.6474 H   0  0  0  0  0  0  0  0  0  0  0  0
   20.1980  -30.6198   34.8508 H   0  0  0  0  0  0  0  0  0  0  0  0
   19.9354  -28.6865   36.3857 H   0  0  0  0  0  0  0  0  0  0  0  0
   21.8722  -28.6205   41.9978 H   0  0  0  0  0  0  0  0  0  0  0  0
   21.9686  -26.8126   43.7199 H   0  0  0  0  0  0  0  0  0  0  0  0
   20.3619  -24.9026   43.6165 H   0  0  0  0  0  0  0  0  0  0  0  0
   17.9820  -24.3990   41.1010 H   0  0  0  0  0  0  0  0  0  0  0  0
   16.5190  -27.6350   37.9980 H   0  0  0  0  0  0  0  0  0  0  0  0
   18.9196  -31.3769   39.5981 H   0  0  0  0  0  0  0  0  0  0  0  0
   18.3564  -34.2241   37.6552 H   0  0  0  0  0  0  0  0  0  0  0  0
   20.0604  -34.2324   38.2803 H   0  0  0  0  0  0  0  0  0  0  0  0
   19.4320  -33.7423   40.4005 H   0  0  0  0  0  0  0  0  0  0  0  0
   18.0997  -32.6590   39.8732 H   0  0  0  0  0  0  0  0  0  0  0  0
   17.8627  -34.4396   39.8732 H   0  0  0  0  0  0  0  0  0  0  0  0
  1  2  1  0
  2  3  1  0
  3  4  1  0
  4  5  2  0
  5  6  1  0
  6  7  2  0
  7  8  1  0
  8  9  1  0
  9 10  1  0
 10 11  2  0
 11 12  1  0
 12 13  2  0
 13 14  1  0
 14 15  1  0
 14 16  2  0
 16 17  1  0
 17 18  2  0
 17 19  1  0
 19 20  1  0
  7 21  1  0
 21 22  2  0
 22 23  1  0
 23 24  1  0
 22  4  1  0
 19  8  2  0
 16 10  1  0
  1 25  1  0
  1 26  1  0
  1 27  1  0
  2 28  1  0
  2 29  1  0
  3 30  1  0
  3 31  1  0
  5 32  1  0
  6 33  1  0
 11 34  1  0
 12 35  1  0
 13 36  1  0
 15 37  1  0
 20 38  1  0
 21 39  1  0
 23 40  1  0
 23 41  1  0
 24 42  1  0
 24 43  1  0
 24 44  1  0
M  END
>  <meeko>  (2) 
{"is_sidechain": [false], "free_energy": -7.775, "intermolecular_energy": -10.159, "internal_energy": -0.574}

$$$$
cand_053_out
     RDKit          3D

 44 46  0  0  0  0  0  0  0  0999 V2000
   19.6860  -35.4700   38.0000 C   0  0  0  0  0  0  0  0  0  0  0  0
   18.8120  -34.8450   36.9240 C   0  0  0  0  0  0  0  0  0  0  0  0
   19.5570  -33.7370   36.1760 C   0  0  0  0  0  0  0  0  0  0  0  0
   19.4920  -32.4190   36.9180 C   0  0  0  0  0  0  0  0  0  0  0  0
   18.9530  -32.4170   38.2160 C   0  0  0  0  0  0  0  0  0  0  0  0
   18.8750  -31.2400   38.9630 C   0  0  0  0  0  0  0  0  0  0  0  0
   19.3420  -30.0300   38.4400 C   0  0  0  0  0  0  0  0  0  0  0  0
   19.2230  -28.7890   39.2340 C   0  0  0  0  0  0  0  0  0  0  0  0
   20.1440  -28.7230   40.2740 O   0  0  0  0  0  0  0  0  0  0  0  0
   20.1430  -27.6220   41.0930 C   0  0  0  0  0  0  0  0  0  0  0  0
   21.0740  -27.6050   42.1320 C   0  0  0  0  0  0  0  0  0  0  0  0
   21.1280  -26.5130   43.0010 C   0  0  0  0  0  0  0  0  0  0  0  0
   20.2520  -25.4380   42.8300 C   0  0  0  0  0  0  0  0  0  0  0  0
   19.3240  -25.4590   41.7920 C   0  0  0  0  0  0  0  0  0  0  0  0
   18.4970  -24.3750   41.6820 O   0  0  0  0  0  0  0  0  0  0  0  0
   19.2700  -26.5520   40.9230 C   0  0  0  0  0  0  0  0  0  0  0  0
   18.3110  -26.6140   39.8200 C   0  0  0  0  0  0  0  0  0  0  0  0
   17.5130  -25.7040   39.6000 O   0  0  0  0  0  0  0  0  0  0  0  0
   18.3300  -27.8200   38.9610 C   0  0  0  0  0  0  0  0  0  0  0  0
   17.4280  -27.8610   37.9130 O   0  0  0  0  0  0  0  0  0  0  0  0
   19.8770  -30.0300   37.1450 C   0  0  0  0  0  0  0  0  0  0  0  0
   19.9720  -31.2100   36.3770 C   0  0  0  0  0  0  0  0  0  0  0  0
   20.5610  -31.1050   34.9890 C   0  0  0  0  0  0  0  0  0  0  0  0
   19.9980  -29.9190   34.2200 C   0  0  0  0  0  0  0  0  0  0  0  0
   19.2998  -35.1938   38.9923 H   0  0  0  0  0  0  0  0  0  0  0  0
   19.6728  -36.5647   37.8930 H   0  0  0  0  0  0  0  0  0  0  0  0
   20.7176  -35.1036   37.8930 H   0  0  0  0  0  0  0  0  0  0  0  0
   18.5147  -35.6241   36.2067 H   0  0  0  0  0  0  0  0  0  0  0  0
   17.9283  -34.4035   37.4079 H   0  0  0  0  0  0  0  0  0  0  0  0
   20.6110  -34.0303   36.0620 H   0  0  0  0  0  0  0  0  0  0  0  0
   19.0770  -33.6025   35.1955 H   0  0  0  0  0  0  0  0  0  0  0  0
   18.5864  -33.3586   38.6507 H   0  0  0  0  0  0  0  0  0  0  0  0
   18.4416  -31.2647   39.9737 H   0  0  0  0  0  0  0  0  0  0  0  0
   21.7646  -28.4506   42.2666 H   0  0  0  0  0  0  0  0  0  0  0  0
   21.8610  -26.4992   43.8210 H   0  0  0  0  0  0  0  0  0  0  0  0
   20.2953  -24.5773   43.5136 H   0  0  0  0  0  0  0  0  0  0  0  0
   18.3940  -23.9470   40.8540 H   0  0  0  0  0  0  0  0  0  0  0  0
   17.6770  -28.2420   37.0950 H   0  0  0  0  0  0  0  0  0  0  0  0
   20.2333  -29.0825   36.7145 H   0  0  0  0  0  0  0  0  0  0  0  0
   21.6515  -30.9882   35.0737 H   0  0  0  0  0  0  0  0  0  0  0  0
   20.3009  -32.0214   34.4390 H   0  0  0  0  0  0  0  0  0  0  0  0
   19.6375  -29.1597   34.9296 H   0  0  0  0  0  0  0  0  0  0  0  0
   20.7861  -29.4848   33.5872 H   0  0  0  0  0  0  0  0  0  0  0  0
   19.1633  -30.2551   33.5872 H   0  0  0  0  0  0  0  0  0  0  0  0
  1  2  1  0
  2  3  1  0
  3  4  1  0
  4  5  2  0
  5  6  1  0
  6  7  2  0
  7  8  1  0
  8  9  1  0
  9 10  1  0
 10 11  2  0
 11 12  1  0
 12 13  2  0
 13 14  1  0
 14 15  1  0
 14 16  2  0
 16 17  1  0
 17 18  2  0
 17 19  1  0
 19 20  1  0
  7 21  1  0
 21 22  2  0
 22 23  1  0
 23 24  1  0
 22  4  1  0
 19  8  2  0
 16 10  1  0
  1 25  1  0
  1 26  1  0
  1 27  1  0
  2 28  1  0
  2 29  1  0
  3 30  1  0
  3 31  1  0
  5 32  1  0
  6 33  1  0
 11 34  1  0
 12 35  1  0
 13 36  1  0
 15 37  1  0
 20 38  1  0
 21 39  1  0
 23 40  1  0
 23 41  1  0
 24 42  1  0
 24 43  1  0
 24 44  1  0
M  END
>  <meeko>  (3) 
{"is_sidechain": [false], "free_energy": -7.445, "intermolecular_energy": -9.951, "internal_energy": -0.357}

$$$$
cand_053_out
     RDKit          3D

 44 46  0  0  0  0  0  0  0  0999 V2000
   19.2730  -23.6450   43.0530 C   0  0  0  0  0  0  0  0  0  0  0  0
   19.6570  -24.9260   42.3290 C   0  0  0  0  0  0  0  0  0  0  0  0
   19.4810  -24.7840   40.8160 C   0  0  0  0  0  0  0  0  0  0  0  0
   19.4160  -26.1320   40.1300 C   0  0  0  0  0  0  0  0  0  0  0  0
   20.1180  -27.2030   40.7100 C   0  0  0  0  0  0  0  0  0  0  0  0
   20.0910  -28.4780   40.1390 C   0  0  0  0  0  0  0  0  0  0  0  0
   19.3540  -28.7230   38.9770 C   0  0  0  0  0  0  0  0  0  0  0  0
   19.3620  -30.0710   38.3710 C   0  0  0  0  0  0  0  0  0  0  0  0
   18.9670  -31.0660   39.2590 O   0  0  0  0  0  0  0  0  0  0  0  0
   18.9310  -32.3670   38.8260 C   0  0  0  0  0  0  0  0  0  0  0  0
   18.5430  -33.3320   39.7550 C   0  0  0  0  0  0  0  0  0  0  0  0
   18.4820  -34.6770   39.3790 C   0  0  0  0  0  0  0  0  0  0  0  0
   18.8090  -35.0530   38.0740 C   0  0  0  0  0  0  0  0  0  0  0  0
   19.1950  -34.0860   37.1500 C   0  0  0  0  0  0  0  0  0  0  0  0
   19.5000  -34.5240   35.8900 O   0  0  0  0  0  0  0  0  0  0  0  0
   19.2560  -32.7420   37.5270 C   0  0  0  0  0  0  0  0  0  0  0  0
   19.6570  -31.6950   36.5860 C   0  0  0  0  0  0  0  0  0  0  0  0
   19.9510  -31.9470   35.4190 O   0  0  0  0  0  0  0  0  0  0  0  0
   19.6970  -30.3020   37.0880 C   0  0  0  0  0  0  0  0  0  0  0  0
   20.0650  -29.3200   36.1860 O   0  0  0  0  0  0  0  0  0  0  0  0
   18.6560  -27.6560   38.3960 C   0  0  0  0  0  0  0  0  0  0  0  0
   18.6640  -26.3640   38.9620 C   0  0  0  0  0  0  0  0  0  0  0  0
   17.8820  -25.2780   38.2570 C   0  0  0  0  0  0  0  0  0  0  0  0
   18.1620  -25.2550   36.7620 C   0  0  0  0  0  0  0  0  0  0  0  0
   19.3222  -23.8091   44.1396 H   0  0  0  0  0  0  0  0  0  0  0  0
   19.9698  -22.8418   42.7716 H   0  0  0  0  0  0  0  0  0  0  0  0
   18.2492  -23.3575   42.7716 H   0  0  0  0  0  0  0  0  0  0  0  0
   20.7098  -25.1589   42.5469 H   0  0  0  0  0  0  0  0  0  0  0  0
   18.9986  -25.7340   42.6806 H   0  0  0  0  0  0  0  0  0  0  0  0
   18.5480  -24.2369   40.6156 H   0  0  0  0  0  0  0  0  0  0  0  0
   20.3507  -24.2395   40.4196 H   0  0  0  0  0  0  0  0  0  0  0  0
   20.6985  -27.0344   41.6290 H   0  0  0  0  0  0  0  0  0  0  0  0
   20.6554  -29.2971   40.6087 H   0  0  0  0  0  0  0  0  0  0  0  0
   18.2853  -33.0352   40.7824 H   0  0  0  0  0  0  0  0  0  0  0  0
   18.1765  -35.4393   40.1108 H   0  0  0  0  0  0  0  0  0  0  0  0
   18.7616  -36.1111   37.7771 H   0  0  0  0  0  0  0  0  0  0  0  0
   18.8390  -34.9270   35.3610 H   0  0  0  0  0  0  0  0  0  0  0  0
   19.5410  -29.1630   35.4260 H   0  0  0  0  0  0  0  0  0  0  0  0
   18.0854  -27.8309   37.4720 H   0  0  0  0  0  0  0  0  0  0  0  0
   16.8077  -25.4542   38.4147 H   0  0  0  0  0  0  0  0  0  0  0  0
   18.1913  -24.3092   38.6761 H   0  0  0  0  0  0  0  0  0  0  0  0
   19.2453  -25.1660   36.5932 H   0  0  0  0  0  0  0  0  0  0  0  0
   17.7951  -26.1863   36.3059 H   0  0  0  0  0  0  0  0  0  0  0  0
   17.6480  -24.3960   36.3059 H   0  0  0  0  0  0  0  0  0  0  0  0
  1  2  1  0
  2  3  1  0
  3  4  1  0
  4  5  2  0
  5  6  1  0
  6  7  2  0
  7  8  1  0
  8  9  1  0
  9 10  1  0
 10 11  2  0
 11 12  1  0
 12 13  2  0
 13 14  1  0
 14 15  1  0
 14 16  2  0
 16 17  1  0
 17 18  2  0
 17 19  1  0
 19 20  1  0
  7 21  1  0
 21 22  2  0
 22 23  1  0
 23 24  1  0
 22  4  1  0
 19  8  2  0
 16 10  1  0
  1 25  1  0
  1 26  1  0
  1 27  1  0
  2 28  1  0
  2 29  1  0
  3 30  1  0
  3 31  1  0
  5 32  1  0
  6 33  1  0
 11 34  1  0
 12 35  1  0
 13 36  1  0
 15 37  1  0
 20 38  1  0
 21 39  1  0
 23 40  1  0
 23 41  1  0
 24 42  1  0
 24 43  1  0
 24 44  1  0
M  END
>  <meeko>  (4) 
{"is_sidechain": [false], "free_energy": -7.028, "intermolecular_energy": -9.278, "internal_energy": -0.49}

$$$$
cand_053_out
     RDKit          3D

 44 46  0  0  0  0  0  0  0  0999 V2000
   19.7490  -22.7450   41.9540 C   0  0  0  0  0  0  0  0  0  0  0  0
   19.7270  -23.8710   40.9320 C   0  0  0  0  0  0  0  0  0  0  0  0
   18.8950  -25.0550   41.4260 C   0  0  0  0  0  0  0  0  0  0  0  0
   19.1120  -26.2870   40.5730 C   0  0  0  0  0  0  0  0  0  0  0  0
   18.3570  -26.4160   39.3940 C   0  0  0  0  0  0  0  0  0  0  0  0
   18.5160  -27.5190   38.5520 C   0  0  0  0  0  0  0  0  0  0  0  0
   19.4390  -28.5230   38.8590 C   0  0  0  0  0  0  0  0  0  0  0  0
   19.5690  -29.6990   37.9720 C   0  0  0  0  0  0  0  0  0  0  0  0
   19.8850  -29.3540   36.6620 O   0  0  0  0  0  0  0  0  0  0  0  0
   20.0350  -30.3510   35.7310 C   0  0  0  0  0  0  0  0  0  0  0  0
   20.3360  -29.9580   34.4270 C   0  0  0  0  0  0  0  0  0  0  0  0
   20.5050  -30.9230   33.4300 C   0  0  0  0  0  0  0  0  0  0  0  0
   20.3730  -32.2790   33.7400 C   0  0  0  0  0  0  0  0  0  0  0  0
   20.0720  -32.6660   35.0430 C   0  0  0  0  0  0  0  0  0  0  0  0
   19.9580  -34.0100   35.2760 O   0  0  0  0  0  0  0  0  0  0  0  0
   19.9030  -31.7010   36.0390 C   0  0  0  0  0  0  0  0  0  0  0  0
   19.5870  -32.0650   37.4200 C   0  0  0  0  0  0  0  0  0  0  0  0
   19.4630  -33.2380   37.7710 O   0  0  0  0  0  0  0  0  0  0  0  0
   19.4200  -30.9660   38.3980 C   0  0  0  0  0  0  0  0  0  0  0  0
   19.1340  -31.3240   39.7040 O   0  0  0  0  0  0  0  0  0  0  0  0
   20.1890  -28.3980   40.0360 C   0  0  0  0  0  0  0  0  0  0  0  0
   20.0500  -27.2880   40.8940 C   0  0  0  0  0  0  0  0  0  0  0  0
   20.9020  -27.2480   42.1430 C   0  0  0  0  0  0  0  0  0  0  0  0
   22.3320  -27.6880   41.8690 C   0  0  0  0  0  0  0  0  0  0  0  0
   19.7407  -23.1703   42.9684 H   0  0  0  0  0  0  0  0  0  0  0  0
   20.6591  -22.1427   41.8164 H   0  0  0  0  0  0  0  0  0  0  0  0
   18.8631  -22.1076   41.8164 H   0  0  0  0  0  0  0  0  0  0  0  0
   19.2928  -23.4948   39.9939 H   0  0  0  0  0  0  0  0  0  0  0  0
   20.7596  -24.2152   40.7730 H   0  0  0  0  0  0  0  0  0  0  0  0
   19.1819  -25.2843   42.4629 H   0  0  0  0  0  0  0  0  0  0  0  0
   17.8325  -24.7773   41.3631 H   0  0  0  0  0  0  0  0  0  0  0  0
   17.6287  -25.6350   39.1302 H   0  0  0  0  0  0  0  0  0  0  0  0
   17.9089  -27.5984   37.6382 H   0  0  0  0  0  0  0  0  0  0  0  0
   20.4402  -28.8903   34.1836 H   0  0  0  0  0  0  0  0  0  0  0  0
   20.7420  -30.6148   32.4010 H   0  0  0  0  0  0  0  0  0  0  0  0
   20.5066  -33.0391   32.9562 H   0  0  0  0  0  0  0  0  0  0  0  0
   19.2030  -34.3450   35.7180 H   0  0  0  0  0  0  0  0  0  0  0  0
   19.7890  -31.7380   40.2290 H   0  0  0  0  0  0  0  0  0  0  0  0
   20.9071  -29.1889   40.2981 H   0  0  0  0  0  0  0  0  0  0  0  0
   20.9149  -26.2191   42.5318 H   0  0  0  0  0  0  0  0  0  0  0  0
   20.4659  -27.9434   42.8753 H   0  0  0  0  0  0  0  0  0  0  0  0
   22.8553  -27.8490   42.8231 H   0  0  0  0  0  0  0  0  0  0  0  0
   22.3233  -28.6250   41.2929 H   0  0  0  0  0  0  0  0  0  0  0  0
   22.8516  -26.9082   41.2929 H   0  0  0  0  0  0  0  0  0  0  0  0
  1  2  1  0
  2  3  1  0
  3  4  1  0
  4  5  2  0
  5  6  1  0
  6  7  2  0
  7  8  1  0
  8  9  1  0
  9 10  1  0
 10 11  2  0
 11 12  1  0
 12 13  2  0
 13 14  1  0
 14 15  1  0
 14 16  2  0
 16 17  1  0
 17 18  2  0
 17 19  1  0
 19 20  1  0
  7 21  1  0
 21 22  2  0
 22 23  1  0
 23 24  1  0
 22  4  1  0
 19  8  2  0
 16 10  1  0
  1 25  1  0
  1 26  1  0
  1 27  1  0
  2 28  1  0
  2 29  1  0
  3 30  1  0
  3 31  1  0
  5 32  1  0
  6 33  1  0
 11 34  1  0
 12 35  1  0
 13 36  1  0
 15 37  1  0
 20 38  1  0
 21 39  1  0
 23 40  1  0
 23 41  1  0
 24 42  1  0
 24 43  1  0
 24 44  1  0
M  END
>  <meeko>  (5) 
{"is_sidechain": [false], "free_energy": -7.0, "intermolecular_energy": -9.183, "internal_energy": -0.548}

$$$$
cand_053_out
     RDKit          3D

 44 46  0  0  0  0  0  0  0  0999 V2000
   18.2090  -26.6340   34.1620 C   0  0  0  0  0  0  0  0  0  0  0  0
   18.6650  -27.5020   35.3250 C   0  0  0  0  0  0  0  0  0  0  0  0
   17.8430  -27.2230   36.5840 C   0  0  0  0  0  0  0  0  0  0  0  0
   18.7140  -27.1650   37.8210 C   0  0  0  0  0  0  0  0  0  0  0  0
   18.8610  -28.3390   38.5810 C   0  0  0  0  0  0  0  0  0  0  0  0
   19.6600  -28.3620   39.7260 C   0  0  0  0  0  0  0  0  0  0  0  0
   20.3440  -27.2160   40.1420 C   0  0  0  0  0  0  0  0  0  0  0  0
   21.1600  -27.2520   41.3740 C   0  0  0  0  0  0  0  0  0  0  0  0
   22.1600  -28.2170   41.3320 O   0  0  0  0  0  0  0  0  0  0  0  0
   22.9920  -28.3590   42.4130 C   0  0  0  0  0  0  0  0  0  0  0  0
   23.9710  -29.3510   42.3320 C   0  0  0  0  0  0  0  0  0  0  0  0
   24.8530  -29.5470   43.3980 C   0  0  0  0  0  0  0  0  0  0  0  0
   24.7560  -28.7510   44.5420 C   0  0  0  0  0  0  0  0  0  0  0  0
   23.7780  -27.7630   44.6180 C   0  0  0  0  0  0  0  0  0  0  0  0
   23.7400  -27.0210   45.7670 O   0  0  0  0  0  0  0  0  0  0  0  0
   22.8960  -27.5680   43.5520 C   0  0  0  0  0  0  0  0  0  0  0  0
   21.8540  -26.5410   43.5920 C   0  0  0  0  0  0  0  0  0  0  0  0
   21.7110  -25.7960   44.5610 O   0  0  0  0  0  0  0  0  0  0  0  0
   20.9650  -26.4210   42.4140 C   0  0  0  0  0  0  0  0  0  0  0  0
   19.9930  -25.4370   42.4580 O   0  0  0  0  0  0  0  0  0  0  0  0
   20.1960  -26.0440   39.3880 C   0  0  0  0  0  0  0  0  0  0  0  0
   19.4000  -26.0030   38.2230 C   0  0  0  0  0  0  0  0  0  0  0  0
   19.3010  -24.6890   37.4810 C   0  0  0  0  0  0  0  0  0  0  0  0
   19.2690  -23.5000   38.4300 C   0  0  0  0  0  0  0  0  0  0  0  0
   17.7303  -25.7228   34.5501 H   0  0  0  0  0  0  0  0  0  0  0  0
   19.0786  -26.3580   33.5474 H   0  0  0  0  0  0  0  0  0  0  0  0
   17.4884  -27.1934   33.5474 H   0  0  0  0  0  0  0  0  0  0  0  0
   18.5490  -28.5604   35.0489 H   0  0  0  0  0  0  0  0  0  0  0  0
   19.7182  -27.2683   35.5398 H   0  0  0  0  0  0  0  0  0  0  0  0
   17.3268  -26.2588   36.4661 H   0  0  0  0  0  0  0  0  0  0  0  0
   17.1218  -28.0438   36.7111 H   0  0  0  0  0  0  0  0  0  0  0  0
   18.3378  -29.2547   38.2683 H   0  0  0  0  0  0  0  0  0  0  0  0
   19.7521  -29.2917   40.3067 H   0  0  0  0  0  0  0  0  0  0  0  0
   24.0479  -29.9771   41.4308 H   0  0  0  0  0  0  0  0  0  0  0  0
   25.6244  -30.3288   43.3363 H   0  0  0  0  0  0  0  0  0  0  0  0
   25.4508  -28.9045   45.3809 H   0  0  0  0  0  0  0  0  0  0  0  0
   24.5370  -26.7900   46.2020 H   0  0  0  0  0  0  0  0  0  0  0  0
   19.4060  -25.3270   41.7370 H   0  0  0  0  0  0  0  0  0  0  0  0
   20.7148  -25.1302   39.7132 H   0  0  0  0  0  0  0  0  0  0  0  0
   20.1720  -24.5898   36.8165 H   0  0  0  0  0  0  0  0  0  0  0  0
   18.3620  -24.6920   36.9080 H   0  0  0  0  0  0  0  0  0  0  0  0
   19.2787  -23.8601   39.4694 H   0  0  0  0  0  0  0  0  0  0  0  0
   20.1504  -22.8660   38.2533 H   0  0  0  0  0  0  0  0  0  0  0  0
   18.3548  -22.9144   38.2533 H   0  0  0  0  0  0  0  0  0  0  0  0
  1  2  1  0
  2  3  1  0
  3  4  1  0
  4  5  2  0
  5  6  1  0
  6  7  2  0
  7  8  1  0
  8  9  1  0
  9 10  1  0
 10 11  2  0
 11 12  1  0
 12 13  2  0
 13 14  1  0
 14 15  1  0
 14 16  2  0
 16 17  1  0
 17 18  2  0
 17 19  1  0
 19 20  1  0
  7 21  1  0
 21 22  2  0
 22 23  1  0
 23 24  1  0
 22  4  1  0
 19  8  2  0
 16 10  1  0
  1 25  1  0
  1 26  1  0
  1 27  1  0
  2 28  1  0
  2 29  1  0
  3 30  1  0
  3 31  1  0
  5 32  1  0
  6 33  1  0
 11 34  1  0
 12 35  1  0
 13 36  1  0
 15 37  1  0
 20 38  1  0
 21 39  1  0
 23 40  1  0
 23 41  1  0
 24 42  1  0
 24 43  1  0
 24 44  1  0
M  END
>  <meeko>  (6) 
{"is_sidechain": [false], "free_energy": -6.913, "intermolecular_energy": -9.055, "internal_energy": -0.564}

$$$$
cand_053_out
     RDKit          3D

 44 46  0  0  0  0  0  0  0  0999 V2000
   19.8890  -25.5370   49.1600 C   0  0  0  0  0  0  0  0  0  0  0  0
   21.0200  -24.5290   49.0300 C   0  0  0  0  0  0  0  0  0  0  0  0
   20.6480  -23.3950   48.0720 C   0  0  0  0  0  0  0  0  0  0  0  0
   20.4840  -23.8930   46.6520 C   0  0  0  0  0  0  0  0  0  0  0  0
   21.5460  -24.6130   46.0770 C   0  0  0  0  0  0  0  0  0  0  0  0
   21.4590  -25.1130   44.7770 C   0  0  0  0  0  0  0  0  0  0  0  0
   20.3050  -24.9170   44.0130 C   0  0  0  0  0  0  0  0  0  0  0  0
   20.2430  -25.4270   42.6270 C   0  0  0  0  0  0  0  0  0  0  0  0
   19.8800  -24.4500   41.7070 O   0  0  0  0  0  0  0  0  0  0  0  0
   19.7840  -24.7880   40.3810 C   0  0  0  0  0  0  0  0  0  0  0  0
   19.4020  -23.7790   39.4970 C   0  0  0  0  0  0  0  0  0  0  0  0
   19.2870  -24.0550   38.1320 C   0  0  0  0  0  0  0  0  0  0  0  0
   19.5540  -25.3400   37.6540 C   0  0  0  0  0  0  0  0  0  0  0  0
   19.9350  -26.3450   38.5400 C   0  0  0  0  0  0  0  0  0  0  0  0
   20.1820  -27.5790   38.0040 O   0  0  0  0  0  0  0  0  0  0  0  0
   20.0490  -26.0670   39.9050 C   0  0  0  0  0  0  0  0  0  0  0  0
   20.4460  -27.0940   40.8690 C   0  0  0  0  0  0  0  0  0  0  0  0
   20.7060  -28.2450   40.5240 O   0  0  0  0  0  0  0  0  0  0  0  0
   20.5300  -26.6990   42.2940 C   0  0  0  0  0  0  0  0  0  0  0  0
   20.9200  -27.6750   43.1950 O   0  0  0  0  0  0  0  0  0  0  0  0
   19.2460  -24.1970   44.5830 C   0  0  0  0  0  0  0  0  0  0  0  0
   19.3120  -23.6910   45.8980 C   0  0  0  0  0  0  0  0  0  0  0  0
   18.1180  -22.9230   46.4210 C   0  0  0  0  0  0  0  0  0  0  0  0
   16.9150  -23.0450   45.4980 C   0  0  0  0  0  0  0  0  0  0  0  0
   19.6825  -25.7211   50.2246 H   0  0  0  0  0  0  0  0  0  0  0  0
   18.9856  -25.1391   48.6747 H   0  0  0  0  0  0  0  0  0  0  0  0
   20.1808  -26.4801   48.6747 H   0  0  0  0  0  0  0  0  0  0  0  0
   21.2366  -24.1040   50.0212 H   0  0  0  0  0  0  0  0  0  0  0  0
   21.9024  -25.0478   48.6272 H   0  0  0  0  0  0  0  0  0  0  0  0
   19.7008  -22.9446   48.4035 H   0  0  0  0  0  0  0  0  0  0  0  0
   21.4618  -22.6550   48.0841 H   0  0  0  0  0  0  0  0  0  0  0  0
   22.4614  -24.7852   46.6621 H   0  0  0  0  0  0  0  0  0  0  0  0
   22.3074  -25.6671   44.3491 H   0  0  0  0  0  0  0  0  0  0  0  0
   19.1915  -22.7672   39.8739 H   0  0  0  0  0  0  0  0  0  0  0  0
   18.9861  -23.2601   37.4337 H   0  0  0  0  0  0  0  0  0  0  0  0
   19.4635  -25.5580   36.5796 H   0  0  0  0  0  0  0  0  0  0  0  0
   20.6180  -27.6520   37.1780 H   0  0  0  0  0  0  0  0  0  0  0  0
   21.8280  -27.8680   43.3110 H   0  0  0  0  0  0  0  0  0  0  0  0
   18.3377  -24.0216   43.9879 H   0  0  0  0  0  0  0  0  0  0  0  0
   17.8475  -23.3178   47.4114 H   0  0  0  0  0  0  0  0  0  0  0  0
   18.3958  -21.8603   46.4794 H   0  0  0  0  0  0  0  0  0  0  0  0
   15.9990  -23.1379   46.0999 H   0  0  0  0  0  0  0  0  0  0  0  0
   16.8474  -22.1491   44.8633 H   0  0  0  0  0  0  0  0  0  0  0  0
   17.0287  -23.9362   44.8633 H   0  0  0  0  0  0  0  0  0  0  0  0
  1  2  1  0
  2  3  1  0
  3  4  1  0
  4  5  2  0
  5  6  1  0
  6  7  2  0
  7  8  1  0
  8  9  1  0
  9 10  1  0
 10 11  2  0
 11 12  1  0
 12 13  2  0
 13 14  1  0
 14 15  1  0
 14 16  2  0
 16 17  1  0
 17 18  2  0
 17 19  1  0
 19 20  1  0
  7 21  1  0
 21 22  2  0
 22 23  1  0
 23 24  1  0
 22  4  1  0
 19  8  2  0
 16 10  1  0
  1 25  1  0
  1 26  1  0
  1 27  1  0
  2 28  1  0
  2 29  1  0
  3 30  1  0
  3 31  1  0
  5 32  1  0
  6 33  1  0
 11 34  1  0
 12 35  1  0
 13 36  1  0
 15 37  1  0
 20 38  1  0
 21 39  1  0
 23 40  1  0
 23 41  1  0
 24 42  1  0
 24 43  1  0
 24 44  1  0
M  END
>  <meeko>  (7) 
{"is_sidechain": [false], "free_energy": -6.909, "intermolecular_energy": -9.006, "internal_energy": -0.608}

$$$$
cand_053_out
     RDKit          3D

 44 46  0  0  0  0  0  0  0  0999 V2000
   18.5620  -35.4590   38.8010 C   0  0  0  0  0  0  0  0  0  0  0  0
   19.2230  -34.1000   38.9680 C   0  0  0  0  0  0  0  0  0  0  0  0
   19.3340  -33.3670   37.6290 C   0  0  0  0  0  0  0  0  0  0  0  0
   19.3760  -31.8650   37.8150 C   0  0  0  0  0  0  0  0  0  0  0  0
   18.9110  -31.3360   39.0310 C   0  0  0  0  0  0  0  0  0  0  0  0
   18.9330  -29.9610   39.2760 C   0  0  0  0  0  0  0  0  0  0  0  0
   19.4280  -29.0740   38.3160 C   0  0  0  0  0  0  0  0  0  0  0  0
   19.4140  -27.6190   38.5810 C   0  0  0  0  0  0  0  0  0  0  0  0
   18.5060  -26.9340   37.7820 O   0  0  0  0  0  0  0  0  0  0  0  0
   18.3910  -25.5740   37.9240 C   0  0  0  0  0  0  0  0  0  0  0  0
   17.4790  -24.9260   37.0910 C   0  0  0  0  0  0  0  0  0  0  0  0
   17.3110  -23.5420   37.1850 C   0  0  0  0  0  0  0  0  0  0  0  0
   18.0550  -22.8080   38.1130 C   0  0  0  0  0  0  0  0  0  0  0  0
   18.9640  -23.4590   38.9420 C   0  0  0  0  0  0  0  0  0  0  0  0
   19.6580  -22.6810   39.8280 O   0  0  0  0  0  0  0  0  0  0  0  0
   19.1320  -24.8430   38.8470 C   0  0  0  0  0  0  0  0  0  0  0  0
   20.0760  -25.5660   39.7000 C   0  0  0  0  0  0  0  0  0  0  0  0
   20.7600  -24.9910   40.5450 O   0  0  0  0  0  0  0  0  0  0  0  0
   20.1850  -27.0310   39.5140 C   0  0  0  0  0  0  0  0  0  0  0  0
   21.0720  -27.7050   40.3350 O   0  0  0  0  0  0  0  0  0  0  0  0
   19.8890  -29.5990   37.1020 C   0  0  0  0  0  0  0  0  0  0  0  0
   19.8830  -30.9850   36.8380 C   0  0  0  0  0  0  0  0  0  0  0  0
   20.3980  -31.4520   35.4960 C   0  0  0  0  0  0  0  0  0  0  0  0
   20.3570  -30.3440   34.4540 C   0  0  0  0  0  0  0  0  0  0  0  0
   18.3528  -35.8892   39.7915 H   0  0  0  0  0  0  0  0  0  0  0  0
   17.6198  -35.3427   38.2453 H   0  0  0  0  0  0  0  0  0  0  0  0
   19.2352  -36.1284   38.2453 H   0  0  0  0  0  0  0  0  0  0  0  0
   18.6223  -33.4921   39.6605 H   0  0  0  0  0  0  0  0  0  0  0  0
   20.2374  -34.2538   39.3646 H   0  0  0  0  0  0  0  0  0  0  0  0
   20.2551  -33.6893   37.1214 H   0  0  0  0  0  0  0  0  0  0  0  0
   18.4461  -33.6136   37.0283 H   0  0  0  0  0  0  0  0  0  0  0  0
   18.5230  -32.0165   39.8033 H   0  0  0  0  0  0  0  0  0  0  0  0
   18.5570  -29.5725   40.2340 H   0  0  0  0  0  0  0  0  0  0  0  0
   16.8929  -25.5037   36.3611 H   0  0  0  0  0  0  0  0  0  0  0  0
   16.5926  -23.0297   36.5281 H   0  0  0  0  0  0  0  0  0  0  0  0
   17.9225  -21.7186   38.1880 H   0  0  0  0  0  0  0  0  0  0  0  0
   19.1980  -22.1040   40.4050 H   0  0  0  0  0  0  0  0  0  0  0  0
   21.0280  -28.6370   40.4060 H   0  0  0  0  0  0  0  0  0  0  0  0
   20.2668  -28.9105   36.3318 H   0  0  0  0  0  0  0  0  0  0  0  0
   21.4377  -31.7915   35.6130 H   0  0  0  0  0  0  0  0  0  0  0  0
   19.7496  -32.2699   35.1486 H   0  0  0  0  0  0  0  0  0  0  0  0
   20.3209  -29.3672   34.9586 H   0  0  0  0  0  0  0  0  0  0  0  0
   21.2578  -30.3986   33.8250 H   0  0  0  0  0  0  0  0  0  0  0  0
   19.4627  -30.4651   33.8250 H   0  0  0  0  0  0  0  0  0  0  0  0
  1  2  1  0
  2  3  1  0
  3  4  1  0
  4  5  2  0
  5  6  1  0
  6  7  2  0
  7  8  1  0
  8  9  1  0
  9 10  1  0
 10 11  2  0
 11 12  1  0
 12 13  2  0
 13 14  1  0
 14 15  1  0
 14 16  2  0
 16 17  1  0
 17 18  2  0
 17 19  1  0
 19 20  1  0
  7 21  1  0
 21 22  2  0
 22 23  1  0
 23 24  1  0
 22  4  1  0
 19  8  2  0
 16 10  1  0
  1 25  1  0
  1 26  1  0
  1 27  1  0
  2 28  1  0
  2 29  1  0
  3 30  1  0
  3 31  1  0
  5 32  1  0
  6 33  1  0
 11 34  1  0
 12 35  1  0
 13 36  1  0
 15 37  1  0
 20 38  1  0
 21 39  1  0
 23 40  1  0
 23 41  1  0
 24 42  1  0
 24 43  1  0
 24 44  1  0
M  END
>  <meeko>  (8) 
{"is_sidechain": [false], "free_energy": -6.881, "intermolecular_energy": -8.96, "internal_energy": -0.618}

$$$$
cand_053_out
     RDKit          3D

 44 46  0  0  0  0  0  0  0  0999 V2000
   25.0380  -30.6410   43.8520 C   0  0  0  0  0  0  0  0  0  0  0  0
   25.3800  -29.1630   43.9500 C   0  0  0  0  0  0  0  0  0  0  0  0
   24.2700  -28.3800   44.6560 C   0  0  0  0  0  0  0  0  0  0  0  0
   23.2520  -27.8410   43.6730 C   0  0  0  0  0  0  0  0  0  0  0  0
   23.2620  -28.3530   42.3640 C   0  0  0  0  0  0  0  0  0  0  0  0
   22.3430  -27.9110   41.4100 C   0  0  0  0  0  0  0  0  0  0  0  0
   21.3810  -26.9520   41.7370 C   0  0  0  0  0  0  0  0  0  0  0  0
   20.4360  -26.4740   40.7040 C   0  0  0  0  0  0  0  0  0  0  0  0
   20.3730  -25.0870   40.6310 O   0  0  0  0  0  0  0  0  0  0  0  0
   19.5330  -24.5080   39.7140 C   0  0  0  0  0  0  0  0  0  0  0  0
   19.4900  -23.1140   39.6870 C   0  0  0  0  0  0  0  0  0  0  0  0
   18.6570  -22.4600   38.7750 C   0  0  0  0  0  0  0  0  0  0  0  0
   17.8690  -23.2020   37.8910 C   0  0  0  0  0  0  0  0  0  0  0  0
   17.9150  -24.5930   37.9220 C   0  0  0  0  0  0  0  0  0  0  0  0
   17.1180  -25.2560   37.0290 O   0  0  0  0  0  0  0  0  0  0  0  0
   18.7480  -25.2460   38.8340 C   0  0  0  0  0  0  0  0  0  0  0  0
   18.8260  -26.7060   38.8990 C   0  0  0  0  0  0  0  0  0  0  0  0
   18.1690  -27.4260   38.1490 O   0  0  0  0  0  0  0  0  0  0  0  0
   19.7330  -27.2990   39.9080 C   0  0  0  0  0  0  0  0  0  0  0  0
   19.8080  -28.6800   39.9500 O   0  0  0  0  0  0  0  0  0  0  0  0
   21.3720  -26.4380   43.0410 C   0  0  0  0  0  0  0  0  0  0  0  0
   22.2860  -26.8770   44.0210 C   0  0  0  0  0  0  0  0  0  0  0  0
   22.1970  -26.2590   45.3980 C   0  0  0  0  0  0  0  0  0  0  0  0
   21.6240  -24.8500   45.3530 C   0  0  0  0  0  0  0  0  0  0  0  0
   24.9404  -31.0626   44.8633 H   0  0  0  0  0  0  0  0  0  0  0  0
   24.0880  -30.7624   43.3109 H   0  0  0  0  0  0  0  0  0  0  0  0
   25.8381  -31.1674   43.3109 H   0  0  0  0  0  0  0  0  0  0  0  0
   26.3155  -29.0487   44.5173 H   0  0  0  0  0  0  0  0  0  0  0  0
   25.4913  -28.7644   42.9308 H   0  0  0  0  0  0  0  0  0  0  0  0
   23.7604  -29.0468   45.3672 H   0  0  0  0  0  0  0  0  0  0  0  0
   24.7299  -27.5265   45.1757 H   0  0  0  0  0  0  0  0  0  0  0  0
   24.0059  -29.1143   42.0865 H   0  0  0  0  0  0  0  0  0  0  0  0
   22.3768  -28.3222   40.3903 H   0  0  0  0  0  0  0  0  0  0  0  0
   20.1109  -22.5303   40.3825 H   0  0  0  0  0  0  0  0  0  0  0  0
   18.6216  -21.3608   38.7530 H   0  0  0  0  0  0  0  0  0  0  0  0
   17.2138  -22.6880   37.1723 H   0  0  0  0  0  0  0  0  0  0  0  0
   17.2730  -26.1620   36.8460 H   0  0  0  0  0  0  0  0  0  0  0  0
   20.1710  -29.1060   40.7010 H   0  0  0  0  0  0  0  0  0  0  0  0
   20.6307  -25.6702   43.3075 H   0  0  0  0  0  0  0  0  0  0  0  0
   21.5490  -26.8862   46.0278 H   0  0  0  0  0  0  0  0  0  0  0  0
   23.2149  -26.1995   45.8108 H   0  0  0  0  0  0  0  0  0  0  0  0
   21.4744  -24.4821   46.3788 H   0  0  0  0  0  0  0  0  0  0  0  0
   22.3237  -24.1864   44.8238 H   0  0  0  0  0  0  0  0  0  0  0  0
   20.6597  -24.8630   44.8238 H   0  0  0  0  0  0  0  0  0  0  0  0
  1  2  1  0
  2  3  1  0
  3  4  1  0
  4  5  2  0
  5  6  1  0
  6  7  2  0
  7  8  1  0
  8  9  1  0
  9 10  1  0
 10 11  2  0
 11 12  1  0
 12 13  2  0
 13 14  1  0
 14 15  1  0
 14 16  2  0
 16 17  1  0
 17 18  2  0
 17 19  1  0
 19 20  1  0
  7 21  1  0
 21 22  2  0
 22 23  1  0
 23 24  1  0
 22  4  1  0
 19  8  2  0
 16 10  1  0
  1 25  1  0
  1 26  1  0
  1 27  1  0
  2 28  1  0
  2 29  1  0
  3 30  1  0
  3 31  1  0
  5 32  1  0
  6 33  1  0
 11 34  1  0
 12 35  1  0
 13 36  1  0
 15 37  1  0
 20 38  1  0
 21 39  1  0
 23 40  1  0
 23 41  1  0
 24 42  1  0
 24 43  1  0
 24 44  1  0
M  END
>  <meeko>  (9) 
{"is_sidechain": [false], "free_energy": -6.713, "intermolecular_energy": -9.149, "internal_energy": -0.212}

$$$$
