cand_022_out
     RDKit          3D

 41 43  0  0  0  0  0  0  0  0999 V2000
   23.0700  -27.9330   42.9240 C   0  0  0  0  0  0  0  0  0  0  0  0
   22.3450  -27.5980   41.6300 C   0  0  0  0  0  0  0  0  0  0  0  0
   20.9380  -27.0640   41.9000 C   0  0  0  0  0  0  0  0  0  0  0  0
   19.9960  -27.3600   40.7530 C   0  0  0  0  0  0  0  0  0  0  0  0
   20.0680  -28.6290   40.1420 C   0  0  0  0  0  0  0  0  0  0  0  0
   19.2460  -28.9750   39.0600 C   0  0  0  0  0  0  0  0  0  0  0  0
   19.3020  -30.3130   38.4360 C   0  0  0  0  0  0  0  0  0  0  0  0
   18.8690  -31.3240   39.2850 O   0  0  0  0  0  0  0  0  0  0  0  0
   18.8690  -32.6180   38.8300 C   0  0  0  0  0  0  0  0  0  0  0  0
   18.4400  -33.6030   39.7220 C   0  0  0  0  0  0  0  0  0  0  0  0
   18.4140  -34.9400   39.3220 C   0  0  0  0  0  0  0  0  0  0  0  0
   18.8160  -35.2940   38.0310 C   0  0  0  0  0  0  0  0  0  0  0  0
   19.2430  -34.3090   37.1440 C   0  0  0  0  0  0  0  0  0  0  0  0
   19.6220  -34.7230   35.8970 O   0  0  0  0  0  0  0  0  0  0  0  0
   19.2690  -32.9700   37.5460 C   0  0  0  0  0  0  0  0  0  0  0  0
   19.7120  -31.9040   36.6440 C   0  0  0  0  0  0  0  0  0  0  0  0
   20.0730  -32.1360   35.4920 O   0  0  0  0  0  0  0  0  0  0  0  0
   19.7100  -30.5200   37.1700 C   0  0  0  0  0  0  0  0  0  0  0  0
   20.1170  -29.5200   36.3060 O   0  0  0  0  0  0  0  0  0  0  0  0
   18.3250  -28.0280   38.6000 C   0  0  0  0  0  0  0  0  0  0  0  0
   18.2430  -26.7650   39.1910 C   0  0  0  0  0  0  0  0  0  0  0  0
   19.0780  -26.4120   40.2620 C   0  0  0  0  0  0  0  0  0  0  0  0
   18.9470  -25.0410   40.8660 C   0  0  0  0  0  0  0  0  0  0  0  0
   22.4437  -27.6436   43.7807 H   0  0  0  0  0  0  0  0  0  0  0  0
   23.2687  -29.0142   42.9637 H   0  0  0  0  0  0  0  0  0  0  0  0
   24.0221  -27.3836   42.9637 H   0  0  0  0  0  0  0  0  0  0  0  0
   22.9193  -26.8339   41.0857 H   0  0  0  0  0  0  0  0  0  0  0  0
   22.2571  -28.5187   41.0345 H   0  0  0  0  0  0  0  0  0  0  0  0
   20.5469  -27.5363   42.8132 H   0  0  0  0  0  0  0  0  0  0  0  0
   21.0027  -25.9721   42.0169 H   0  0  0  0  0  0  0  0  0  0  0  0
   20.7883  -29.3671   40.5245 H   0  0  0  0  0  0  0  0  0  0  0  0
   18.1231  -33.3257   40.7382 H   0  0  0  0  0  0  0  0  0  0  0  0
   18.0765  -35.7166   40.0241 H   0  0  0  0  0  0  0  0  0  0  0  0
   18.7951  -36.3479   37.7164 H   0  0  0  0  0  0  0  0  0  0  0  0
   19.5650  -35.6300   35.6680 H   0  0  0  0  0  0  0  0  0  0  0  0
   20.6110  -29.7360   35.5390 H   0  0  0  0  0  0  0  0  0  0  0  0
   17.6575  -28.2809   37.7630 H   0  0  0  0  0  0  0  0  0  0  0  0
   17.5124  -26.0358   38.8109 H   0  0  0  0  0  0  0  0  0  0  0  0
   18.9547  -25.1214   41.9630 H   0  0  0  0  0  0  0  0  0  0  0  0
   19.7893  -24.4140   40.5384 H   0  0  0  0  0  0  0  0  0  0  0  0
   18.0012  -24.5848   40.5384 H   0  0  0  0  0  0  0  0  0  0  0  0
  1  2  1  0
  2  3  1  0
  3  4  1  0
  4  5  2  0
  5  6  1  0
  6  7  1  0
  7  8  1  0
  8  9  1  0
  9 10  2  0
 10 11  1  0
 11 12  2  0
 12 13  1  0
 13 14  1  0
 13 15  2  0
 15 16  1  0
 16 17  2  0
 16 18  1  0
 18 19  1  0
  6 20  2  0
 20 21  1  0
 21 22  2  0
 22 23  1  0
 22  4  1  0
 18  7  2  0
 15  9  1  0
  1 24  1  0
  1 25  1  0
  1 26  1  0
  2 27  1  0
  2 28  1  0
  3 29  1  0
  3 30  1  0
  5 31  1  0
 10 32  1  0
 11 33  1  0
 12 34  1  0
 14 35  1  0
 19 36  1  0
 20 37  1  0
 21 38  1  0
 23 39  1  0
 23 40  1  0
 23 41  1  0
M  END
>  <meeko>  (1) 
{"is_sidechain": [false], "free_energy": -8.11, "intermolecular_energy": -10.006, "internal_energy": -0.498}

$$$$
cand_022_out
     RDKit          3D

 41 43  0  0  0  0  0  0  0  0999 V2000
   18.4270  -34.9790   39.5660 C   0  0  0  0  0  0  0  0  0  0  0  0
   18.8200  -33.5730   39.1420 C   0  0  0  0  0  0  0  0  0  0  0  0
   19.2490  -33.5320   37.6740 C   0  0  0  0  0  0  0  0  0  0  0  0
   19.4870  -32.1150   37.2000 C   0  0  0  0  0  0  0  0  0  0  0  0
   19.3060  -31.0640   38.1220 C   0  0  0  0  0  0  0  0  0  0  0  0
   19.4860  -29.7220   37.7570 C   0  0  0  0  0  0  0  0  0  0  0  0
   19.3230  -28.6220   38.7280 C   0  0  0  0  0  0  0  0  0  0  0  0
   20.2470  -28.6750   39.7660 O   0  0  0  0  0  0  0  0  0  0  0  0
   20.2070  -27.7090   40.7400 C   0  0  0  0  0  0  0  0  0  0  0  0
   21.1440  -27.8100   41.7700 C   0  0  0  0  0  0  0  0  0  0  0  0
   21.1590  -26.8590   42.7920 C   0  0  0  0  0  0  0  0  0  0  0  0
   20.2390  -25.8080   42.7850 C   0  0  0  0  0  0  0  0  0  0  0  0
   19.3060  -25.7100   41.7560 C   0  0  0  0  0  0  0  0  0  0  0  0
   18.4350  -24.6560   41.8100 O   0  0  0  0  0  0  0  0  0  0  0  0
   19.2910  -26.6630   40.7330 C   0  0  0  0  0  0  0  0  0  0  0  0
   18.3260  -26.5960   39.6330 C   0  0  0  0  0  0  0  0  0  0  0  0
   17.4910  -25.6980   39.5540 O   0  0  0  0  0  0  0  0  0  0  0  0
   18.3890  -27.6590   38.6040 C   0  0  0  0  0  0  0  0  0  0  0  0
   17.4820  -27.5790   37.5630 O   0  0  0  0  0  0  0  0  0  0  0  0
   19.8720  -29.4400   36.4420 C   0  0  0  0  0  0  0  0  0  0  0  0
   20.0510  -30.4690   35.5140 C   0  0  0  0  0  0  0  0  0  0  0  0
   19.8530  -31.8110   35.8740 C   0  0  0  0  0  0  0  0  0  0  0  0
   20.0640  -32.8810   34.8390 C   0  0  0  0  0  0  0  0  0  0  0  0
   18.4101  -35.0395   40.6642 H   0  0  0  0  0  0  0  0  0  0  0  0
   17.4283  -35.2156   39.1703 H   0  0  0  0  0  0  0  0  0  0  0  0
   19.1583  -35.6992   39.1703 H   0  0  0  0  0  0  0  0  0  0  0  0
   17.9588  -32.9031   39.2820 H   0  0  0  0  0  0  0  0  0  0  0  0
   19.6705  -33.2500   39.7603 H   0  0  0  0  0  0  0  0  0  0  0  0
   20.1792  -34.1076   37.5582 H   0  0  0  0  0  0  0  0  0  0  0  0
   18.4395  -33.9650   37.0679 H   0  0  0  0  0  0  0  0  0  0  0  0
   19.0157  -31.3031   39.1557 H   0  0  0  0  0  0  0  0  0  0  0  0
   21.8690  -28.6372   41.7763 H   0  0  0  0  0  0  0  0  0  0  0  0
   21.8967  -26.9375   43.6042 H   0  0  0  0  0  0  0  0  0  0  0  0
   20.2515  -25.0593   43.5907 H   0  0  0  0  0  0  0  0  0  0  0  0
   18.3600  -24.0740   41.0790 H   0  0  0  0  0  0  0  0  0  0  0  0
   17.7580  -27.7660   36.6870 H   0  0  0  0  0  0  0  0  0  0  0  0
   20.0364  -28.3965   36.1354 H   0  0  0  0  0  0  0  0  0  0  0  0
   20.3519  -30.2234   34.4848 H   0  0  0  0  0  0  0  0  0  0  0  0
   20.2536  -33.8424   35.3389 H   0  0  0  0  0  0  0  0  0  0  0  0
   19.1652  -32.9655   34.2105 H   0  0  0  0  0  0  0  0  0  0  0  0
   20.9276  -32.6180   34.2105 H   0  0  0  0  0  0  0  0  0  0  0  0
  1  2  1  0
  2  3  1  0
  3  4  1  0
  4  5  2  0
  5  6  1  0
  6  7  1  0
  7  8  1  0
  8  9  1  0
  9 10  2  0
 10 11  1  0
 11 12  2  0
 12 13  1  0
 13 14  1  0
 13 15  2  0
 15 16  1  0
 16 17  2  0
 16 18  1  0
 18 19  1  0
  6 20  2  0
 20 21  1  0
 21 22  2  0
 22 23  1  0
 22  4  1  0
 18  7  2  0
 15  9  1  0
  1 24  1  0
  1 25  1  0
  1 26  1  0
  2 27  1  0
  2 28  1  0
  3 29  1  0
  3 30  1  0
  5 31  1  0
 10 32  1  0
 11 33  1  0
 12 34  1  0
 14 35  1  0
 19 36  1  0
 20 37  1  0
 21 38  1  0
 23 39  1  0
 23 40  1  0
 23 41  1  0
M  END
>  <meeko>  (2) 
{"is_sidechain": [false], "free_energy": -7.662, "intermolecular_energy": -9.497, "internal_energy": -0.454}

$$$$
cand_022_out
     RDKit          3D

 41 43  0  0  0  0  0  0  0  0999 V2000
   19.7500  -30.9620   32.6020 C   0  0  0  0  0  0  0  0  0  0  0  0
   19.8540  -30.2730   33.9530 C   0  0  0  0  0  0  0  0  0  0  0  0
   20.7060  -31.0860   34.9300 C   0  0  0  0  0  0  0  0  0  0  0  0
   20.0530  -31.1880   36.2910 C   0  0  0  0  0  0  0  0  0  0  0  0
   19.9550  -30.0190   37.0730 C   0  0  0  0  0  0  0  0  0  0  0  0
   19.3840  -30.0330   38.3540 C   0  0  0  0  0  0  0  0  0  0  0  0
   19.2570  -28.8040   39.1630 C   0  0  0  0  0  0  0  0  0  0  0  0
   20.1750  -28.7450   40.2050 O   0  0  0  0  0  0  0  0  0  0  0  0
   20.1660  -27.6540   41.0360 C   0  0  0  0  0  0  0  0  0  0  0  0
   21.0950  -27.6440   42.0780 C   0  0  0  0  0  0  0  0  0  0  0  0
   21.1410  -26.5620   42.9600 C   0  0  0  0  0  0  0  0  0  0  0  0
   20.2590  -25.4910   42.8010 C   0  0  0  0  0  0  0  0  0  0  0  0
   19.3340  -25.5030   41.7610 C   0  0  0  0  0  0  0  0  0  0  0  0
   18.5000  -24.4230   41.6620 O   0  0  0  0  0  0  0  0  0  0  0  0
   19.2880  -26.5870   40.8780 C   0  0  0  0  0  0  0  0  0  0  0  0
   18.3300  -26.6400   39.7720 C   0  0  0  0  0  0  0  0  0  0  0  0
   17.5270  -25.7330   39.5630 O   0  0  0  0  0  0  0  0  0  0  0  0
   18.3590  -27.8360   38.9000 C   0  0  0  0  0  0  0  0  0  0  0  0
   17.4590  -27.8690   37.8500 O   0  0  0  0  0  0  0  0  0  0  0  0
   18.8880  -31.2450   38.8440 C   0  0  0  0  0  0  0  0  0  0  0  0
   18.9820  -32.4150   38.0850 C   0  0  0  0  0  0  0  0  0  0  0  0
   19.5690  -32.4050   36.8110 C   0  0  0  0  0  0  0  0  0  0  0  0
   19.6400  -33.6890   36.0320 C   0  0  0  0  0  0  0  0  0  0  0  0
   19.5873  -32.0396   32.7515 H   0  0  0  0  0  0  0  0  0  0  0  0
   18.9056  -30.5384   32.0384 H   0  0  0  0  0  0  0  0  0  0  0  0
   20.6818  -30.8065   32.0384 H   0  0  0  0  0  0  0  0  0  0  0  0
   20.3135  -29.2831   33.8155 H   0  0  0  0  0  0  0  0  0  0  0  0
   18.8415  -30.1784   34.3723 H   0  0  0  0  0  0  0  0  0  0  0  0
   20.8447  -32.0990   34.5244 H   0  0  0  0  0  0  0  0  0  0  0  0
   21.6721  -30.5740   35.0507 H   0  0  0  0  0  0  0  0  0  0  0  0
   20.3367  -29.0703   36.6675 H   0  0  0  0  0  0  0  0  0  0  0  0
   21.7899  -28.4873   42.2043 H   0  0  0  0  0  0  0  0  0  0  0  0
   21.8730  -26.5534   43.7810 H   0  0  0  0  0  0  0  0  0  0  0  0
   20.2952  -24.6395   43.4964 H   0  0  0  0  0  0  0  0  0  0  0  0
   17.9790  -24.1660   42.3960 H   0  0  0  0  0  0  0  0  0  0  0  0
   17.2310  -28.6870   37.4540 H   0  0  0  0  0  0  0  0  0  0  0  0
   18.4184  -31.2781   39.8382 H   0  0  0  0  0  0  0  0  0  0  0  0
   18.5896  -33.3582   38.4930 H   0  0  0  0  0  0  0  0  0  0  0  0
   19.6870  -34.5386   36.7291 H   0  0  0  0  0  0  0  0  0  0  0  0
   18.7457  -33.7835   35.3985 H   0  0  0  0  0  0  0  0  0  0  0  0
   20.5393  -33.6843   35.3985 H   0  0  0  0  0  0  0  0  0  0  0  0
  1  2  1  0
  2  3  1  0
  3  4  1  0
  4  5  2  0
  5  6  1  0
  6  7  1  0
  7  8  1  0
  8  9  1  0
  9 10  2  0
 10 11  1  0
 11 12  2  0
 12 13  1  0
 13 14  1  0
 13 15  2  0
 15 16  1  0
 16 17  2  0
 16 18  1  0
 18 19  1  0
  6 20  2  0
 20 21  1  0
 21 22  2  0
 22 23  1  0
 22  4  1  0
 18  7  2  0
 15  9  1  0
  1 24  1  0
  1 25  1  0
  1 26  1  0
  2 27  1  0
  2 28  1  0
  3 29  1  0
  3 30  1  0
  5 31  1  0
 10 32  1  0
 11 33  1  0
 12 34  1  0
 14 35  1  0
 19 36  1  0
 20 37  1  0
 21 38  1  0
 23 39  1  0
 23 40  1  0
 23 41  1  0
M  END
>  <meeko>  (3) 
{"is_sidechain": [false], "free_energy": -7.342, "intermolecular_energy": -8.966, "internal_energy": -0.59}

$$$$
cand_022_out
     RDKit          3D

 41 43  0  0  0  0  0  0  0  0999 V2000
   19.2860  -23.3230   37.5260 C   0  0  0  0  0  0  0  0  0  0  0  0
   18.5400  -24.6000   37.1720 C   0  0  0  0  0  0  0  0  0  0  0  0
   17.8070  -25.1730   38.3870 C   0  0  0  0  0  0  0  0  0  0  0  0
   18.6200  -26.2480   39.0750 C   0  0  0  0  0  0  0  0  0  0  0  0
   18.6470  -27.5350   38.4990 C   0  0  0  0  0  0  0  0  0  0  0  0
   19.3580  -28.5910   39.0850 C   0  0  0  0  0  0  0  0  0  0  0  0
   19.4090  -29.9330   38.4690 C   0  0  0  0  0  0  0  0  0  0  0  0
   18.9890  -30.9400   39.3300 O   0  0  0  0  0  0  0  0  0  0  0  0
   18.9870  -32.2370   38.8820 C   0  0  0  0  0  0  0  0  0  0  0  0
   18.5710  -33.2170   39.7850 C   0  0  0  0  0  0  0  0  0  0  0  0
   18.5440  -34.5570   39.3940 C   0  0  0  0  0  0  0  0  0  0  0  0
   18.9300  -34.9180   38.1010 C   0  0  0  0  0  0  0  0  0  0  0  0
   19.3430  -33.9370   37.2030 C   0  0  0  0  0  0  0  0  0  0  0  0
   19.7080  -34.3580   35.9530 O   0  0  0  0  0  0  0  0  0  0  0  0
   19.3720  -32.5960   37.5950 C   0  0  0  0  0  0  0  0  0  0  0  0
   19.8000  -31.5350   36.6820 C   0  0  0  0  0  0  0  0  0  0  0  0
   20.1480  -31.7720   35.5270 O   0  0  0  0  0  0  0  0  0  0  0  0
   19.8010  -30.1470   37.1980 C   0  0  0  0  0  0  0  0  0  0  0  0
   20.1950  -29.1510   36.3230 O   0  0  0  0  0  0  0  0  0  0  0  0
   20.0670  -28.3380   40.2640 C   0  0  0  0  0  0  0  0  0  0  0  0
   20.0470  -27.0700   40.8510 C   0  0  0  0  0  0  0  0  0  0  0  0
   19.3210  -26.0170   40.2740 C   0  0  0  0  0  0  0  0  0  0  0  0
   19.3370  -24.6710   40.9430 C   0  0  0  0  0  0  0  0  0  0  0  0
   19.3441  -23.2236   38.6200 H   0  0  0  0  0  0  0  0  0  0  0  0
   20.3023  -23.3639   37.1071 H   0  0  0  0  0  0  0  0  0  0  0  0
   18.7512  -22.4578   37.1071 H   0  0  0  0  0  0  0  0  0  0  0  0
   17.8063  -24.3789   36.3828 H   0  0  0  0  0  0  0  0  0  0  0  0
   19.2723  -25.3445   36.8264 H   0  0  0  0  0  0  0  0  0  0  0  0
   17.6128  -24.3602   39.1023 H   0  0  0  0  0  0  0  0  0  0  0  0
   16.8663  -25.6244   38.0387 H   0  0  0  0  0  0  0  0  0  0  0  0
   18.0951  -27.7148   37.5646 H   0  0  0  0  0  0  0  0  0  0  0  0
   18.2650  -32.9339   40.8029 H   0  0  0  0  0  0  0  0  0  0  0  0
   18.2181  -35.3300   40.1055 H   0  0  0  0  0  0  0  0  0  0  0  0
   18.9078  -35.9738   37.7931 H   0  0  0  0  0  0  0  0  0  0  0  0
   20.3050  -35.0740   35.8560 H   0  0  0  0  0  0  0  0  0  0  0  0
   21.0310  -28.7400   36.4270 H   0  0  0  0  0  0  0  0  0  0  0  0
   20.6466  -29.1460   40.7342 H   0  0  0  0  0  0  0  0  0  0  0  0
   20.6093  -26.8946   41.7800 H   0  0  0  0  0  0  0  0  0  0  0  0
   19.3354  -24.8042   42.0349 H   0  0  0  0  0  0  0  0  0  0  0  0
   20.2417  -24.1226   40.6418 H   0  0  0  0  0  0  0  0  0  0  0  0
   18.4456  -24.1012   40.6418 H   0  0  0  0  0  0  0  0  0  0  0  0
  1  2  1  0
  2  3  1  0
  3  4  1  0
  4  5  2  0
  5  6  1  0
  6  7  1  0
  7  8  1  0
  8  9  1  0
  9 10  2  0
 10 11  1  0
 11 12  2  0
 12 13  1  0
 13 14  1  0
 13 15  2  0
 15 16  1  0
 16 17  2  0
 16 18  1  0
 18 19  1  0
  6 20  2  0
 20 21  1  0
 21 22  2  0
 22 23  1  0
 22  4  1  0
 18  7  2  0
 15  9  1  0
  1 24  1  0
  1 25  1  0
  1 26  1  0
  2 27  1  0
  2 28  1  0
  3 29  1  0
  3 30  1  0
  5 31  1  0
 10 32  1  0
 11 33  1  0
 12 34  1  0
 14 35  1  0
 19 36  1  0
 20 37  1  0
 21 38  1  0
 23 39  1  0
 23 40  1  0
 23 41  1  0
M  END
>  <meeko>  (4) 
{"is_sidechain": [false], "free_energy": -7.291, "intermolecular_energy": -9.009, "internal_energy": -0.484}

$$$$
cand_022_out
     RDKit          3D

 41 43  0  0  0  0  0  0  0  0999 V2000
   19.3040  -22.1850   37.6450 C   0  0  0  0  0  0  0  0  0  0  0  0
   19.2980  -23.4970   38.4120 C   0  0  0  0  0  0  0  0  0  0  0  0
   19.2970  -24.6980   37.4640 C   0  0  0  0  0  0  0  0  0  0  0  0
   19.3860  -26.0070   38.2180 C   0  0  0  0  0  0  0  0  0  0  0  0
   20.1940  -26.0580   39.3720 C   0  0  0  0  0  0  0  0  0  0  0  0
   20.3460  -27.2370   40.1150 C   0  0  0  0  0  0  0  0  0  0  0  0
   21.1710  -27.2860   41.3400 C   0  0  0  0  0  0  0  0  0  0  0  0
   22.1610  -28.2590   41.2870 O   0  0  0  0  0  0  0  0  0  0  0  0
   23.0010  -28.4120   42.3610 C   0  0  0  0  0  0  0  0  0  0  0  0
   23.9710  -29.4110   42.2700 C   0  0  0  0  0  0  0  0  0  0  0  0
   24.8580  -29.6180   43.3280 C   0  0  0  0  0  0  0  0  0  0  0  0
   24.7770  -28.8270   44.4760 C   0  0  0  0  0  0  0  0  0  0  0  0
   23.8090  -27.8300   44.5630 C   0  0  0  0  0  0  0  0  0  0  0  0
   23.7850  -27.0910   45.7140 O   0  0  0  0  0  0  0  0  0  0  0  0
   22.9200  -27.6240   43.5040 C   0  0  0  0  0  0  0  0  0  0  0  0
   21.8870  -26.5870   43.5560 C   0  0  0  0  0  0  0  0  0  0  0  0
   21.7570  -25.8460   44.5290 O   0  0  0  0  0  0  0  0  0  0  0  0
   20.9910  -26.4560   42.3850 C   0  0  0  0  0  0  0  0  0  0  0  0
   20.0280  -25.4650   42.4390 O   0  0  0  0  0  0  0  0  0  0  0  0
   19.6570  -28.3790   39.6930 C   0  0  0  0  0  0  0  0  0  0  0  0
   18.8560  -28.3470   38.5480 C   0  0  0  0  0  0  0  0  0  0  0  0
   18.7180  -27.1720   37.7950 C   0  0  0  0  0  0  0  0  0  0  0  0
   17.8390  -27.1890   36.5750 C   0  0  0  0  0  0  0  0  0  0  0  0
   19.3078  -21.3451   38.3553 H   0  0  0  0  0  0  0  0  0  0  0  0
   20.2024  -22.1343   37.0123 H   0  0  0  0  0  0  0  0  0  0  0  0
   18.4061  -22.1260   37.0123 H   0  0  0  0  0  0  0  0  0  0  0  0
   20.1943  -23.5438   39.0480 H   0  0  0  0  0  0  0  0  0  0  0  0
   18.3837  -23.5370   39.0223 H   0  0  0  0  0  0  0  0  0  0  0  0
   18.3670  -24.6876   36.8766 H   0  0  0  0  0  0  0  0  0  0  0  0
   20.1777  -24.6189   36.8098 H   0  0  0  0  0  0  0  0  0  0  0  0
   20.7193  -25.1483   39.6982 H   0  0  0  0  0  0  0  0  0  0  0  0
   24.0366  -30.0344   41.3661 H   0  0  0  0  0  0  0  0  0  0  0  0
   25.6224  -30.4059   43.2572 H   0  0  0  0  0  0  0  0  0  0  0  0
   25.4761  -28.9912   45.3093 H   0  0  0  0  0  0  0  0  0  0  0  0
   23.4770  -27.4760   46.5110 H   0  0  0  0  0  0  0  0  0  0  0  0
   19.1240  -25.6940   42.5340 H   0  0  0  0  0  0  0  0  0  0  0  0
   19.7466  -29.3122   40.2685 H   0  0  0  0  0  0  0  0  0  0  0  0
   18.3256  -29.2576   38.2326 H   0  0  0  0  0  0  0  0  0  0  0  0
   16.7834  -27.2094   36.8839 H   0  0  0  0  0  0  0  0  0  0  0  0
   18.0279  -26.2870   35.9744 H   0  0  0  0  0  0  0  0  0  0  0  0
   18.0627  -28.0830   35.9744 H   0  0  0  0  0  0  0  0  0  0  0  0
  1  2  1  0
  2  3  1  0
  3  4  1  0
  4  5  2  0
  5  6  1  0
  6  7  1  0
  7  8  1  0
  8  9  1  0
  9 10  2  0
 10 11  1  0
 11 12  2  0
 12 13  1  0
 13 14  1  0
 13 15  2  0
 15 16  1  0
 16 17  2  0
 16 18  1  0
 18 19  1  0
  6 20  2  0
 20 21  1  0
 21 22  2  0
 22 23  1  0
 22  4  1  0
 18  7  2  0
 15  9  1  0
  1 24  1  0
  1 25  1  0
  1 26  1  0
  2 27  1  0
  2 28  1  0
  3 29  1  0
  3 30  1  0
  5 31  1  0
 10 32  1  0
 11 33  1  0
 12 34  1  0
 14 35  1  0
 19 36  1  0
 20 37  1  0
 21 38  1  0
 23 39  1  0
 23 40  1  0
 23 41  1  0
M  END
>  <meeko>  (5) 
{"is_sidechain": [false], "free_energy": -7.21, "intermolecular_energy": -9.022, "internal_energy": -0.372}

$$$$
cand_022_out
     RDKit          3D

 41 43  0  0  0  0  0  0  0  0999 V2000
   23.8990  -28.3580   43.3090 C   0  0  0  0  0  0  0  0  0  0  0  0
   22.8680  -27.9730   42.2590 C   0  0  0  0  0  0  0  0  0  0  0  0
   21.6020  -27.4060   42.9020 C   0  0  0  0  0  0  0  0  0  0  0  0
   20.6270  -26.8950   41.8630 C   0  0  0  0  0  0  0  0  0  0  0  0
   20.6350  -27.4970   40.5890 C   0  0  0  0  0  0  0  0  0  0  0  0
   19.7790  -27.0680   39.5640 C   0  0  0  0  0  0  0  0  0  0  0  0
   19.7670  -27.7160   38.2370 C   0  0  0  0  0  0  0  0  0  0  0  0
   19.8710  -29.1000   38.3090 O   0  0  0  0  0  0  0  0  0  0  0  0
   19.8730  -29.8270   37.1460 C   0  0  0  0  0  0  0  0  0  0  0  0
   19.9940  -31.2130   37.2650 C   0  0  0  0  0  0  0  0  0  0  0  0
   20.0000  -32.0120   36.1200 C   0  0  0  0  0  0  0  0  0  0  0  0
   19.8850  -31.4280   34.8570 C   0  0  0  0  0  0  0  0  0  0  0  0
   19.7630  -30.0450   34.7410 C   0  0  0  0  0  0  0  0  0  0  0  0
   19.6540  -29.5390   33.4760 O   0  0  0  0  0  0  0  0  0  0  0  0
   19.7580  -29.2450   35.8880 C   0  0  0  0  0  0  0  0  0  0  0  0
   19.6330  -27.7880   35.8100 C   0  0  0  0  0  0  0  0  0  0  0  0
   19.5200  -27.2020   34.7350 O   0  0  0  0  0  0  0  0  0  0  0  0
   19.6450  -27.0320   37.0830 C   0  0  0  0  0  0  0  0  0  0  0  0
   19.5130  -25.6580   36.9990 O   0  0  0  0  0  0  0  0  0  0  0  0
   18.8890  -26.0250   39.8400 C   0  0  0  0  0  0  0  0  0  0  0  0
   18.8710  -25.4140   41.0960 C   0  0  0  0  0  0  0  0  0  0  0  0
   19.7400  -25.8310   42.1150 C   0  0  0  0  0  0  0  0  0  0  0  0
   19.6770  -25.1430   43.4510 C   0  0  0  0  0  0  0  0  0  0  0  0
   23.4769  -28.2004   44.3125 H   0  0  0  0  0  0  0  0  0  0  0  0
   24.1687  -29.4174   43.1869 H   0  0  0  0  0  0  0  0  0  0  0  0
   24.7971  -27.7346   43.1869 H   0  0  0  0  0  0  0  0  0  0  0  0
   23.3023  -27.2130   41.5928 H   0  0  0  0  0  0  0  0  0  0  0  0
   22.5947  -28.8766   41.6944 H   0  0  0  0  0  0  0  0  0  0  0  0
   21.1147  -28.1985   43.4889 H   0  0  0  0  0  0  0  0  0  0  0  0
   21.8923  -26.5616   43.5444 H   0  0  0  0  0  0  0  0  0  0  0  0
   21.3313  -28.3257   40.3930 H   0  0  0  0  0  0  0  0  0  0  0  0
   20.0845  -31.6747   38.2593 H   0  0  0  0  0  0  0  0  0  0  0  0
   20.0955  -33.1039   36.2132 H   0  0  0  0  0  0  0  0  0  0  0  0
   19.8907  -32.0584   33.9556 H   0  0  0  0  0  0  0  0  0  0  0  0
   20.3920  -29.5570   32.8980 H   0  0  0  0  0  0  0  0  0  0  0  0
   18.7150  -25.2830   36.6810 H   0  0  0  0  0  0  0  0  0  0  0  0
   18.1949  -25.6818   39.0587 H   0  0  0  0  0  0  0  0  0  0  0  0
   18.1645  -24.5932   41.2889 H   0  0  0  0  0  0  0  0  0  0  0  0
   19.7456  -25.8926   44.2531 H   0  0  0  0  0  0  0  0  0  0  0  0
   20.5140  -24.4347   43.5385 H   0  0  0  0  0  0  0  0  0  0  0  0
   18.7252  -24.5985   43.5385 H   0  0  0  0  0  0  0  0  0  0  0  0
  1  2  1  0
  2  3  1  0
  3  4  1  0
  4  5  2  0
  5  6  1  0
  6  7  1  0
  7  8  1  0
  8  9  1  0
  9 10  2  0
 10 11  1  0
 11 12  2  0
 12 13  1  0
 13 14  1  0
 13 15  2  0
 15 16  1  0
 16 17  2  0
 16 18  1  0
 18 19  1  0
  6 20  2  0
 20 21  1  0
 21 22  2  0
 22 23  1  0
 22  4  1  0
 18  7  2  0
 15  9  1  0
  1 24  1  0
  1 25  1  0
  1 26  1  0
  2 27  1  0
  2 28  1  0
  3 29  1  0
  3 30  1  0
  5 31  1  0
 10 32  1  0
 11 33  1  0
 12 34  1  0
 14 35  1  0
 19 36  1  0
 20 37  1  0
 21 38  1  0
 23 39  1  0
 23 40  1  0
 23 41  1  0
M  END
>  <meeko>  (6) 
{"is_sidechain": [false], "free_energy": -7.19, "intermolecular_energy": -9.174, "internal_energy": -0.194}

$$$$
cand_022_out
     RDKit          3D

 41 43  0  0  0  0  0  0  0  0999 V2000
   21.4640  -24.7540   46.6760 C   0  0  0  0  0  0  0  0  0  0  0  0
   22.1630  -25.1420   45.3830 C   0  0  0  0  0  0  0  0  0  0  0  0
   22.6360  -26.5970   45.4200 C   0  0  0  0  0  0  0  0  0  0  0  0
   22.6830  -27.2050   44.0350 C   0  0  0  0  0  0  0  0  0  0  0  0
   21.7230  -26.7880   43.0900 C   0  0  0  0  0  0  0  0  0  0  0  0
   21.6850  -27.3190   41.7930 C   0  0  0  0  0  0  0  0  0  0  0  0
   20.6970  -26.8630   40.7940 C   0  0  0  0  0  0  0  0  0  0  0  0
   20.5950  -25.4790   40.7270 O   0  0  0  0  0  0  0  0  0  0  0  0
   19.7120  -24.9210   39.8370 C   0  0  0  0  0  0  0  0  0  0  0  0
   19.6320  -23.5270   39.8140 C   0  0  0  0  0  0  0  0  0  0  0  0
   18.7540  -22.8950   38.9310 C   0  0  0  0  0  0  0  0  0  0  0  0
   17.9570  -23.6550   38.0710 C   0  0  0  0  0  0  0  0  0  0  0  0
   18.0400  -25.0450   38.0960 C   0  0  0  0  0  0  0  0  0  0  0  0
   17.2330  -25.7280   37.2290 O   0  0  0  0  0  0  0  0  0  0  0  0
   18.9180  -25.6770   38.9820 C   0  0  0  0  0  0  0  0  0  0  0  0
   19.0350  -27.1360   39.0400 C   0  0  0  0  0  0  0  0  0  0  0  0
   18.3730  -27.8710   38.3110 O   0  0  0  0  0  0  0  0  0  0  0  0
   19.9890  -27.7060   40.0180 C   0  0  0  0  0  0  0  0  0  0  0  0
   20.1010  -29.0840   40.0560 O   0  0  0  0  0  0  0  0  0  0  0  0
   22.6440  -28.2740   41.4410 C   0  0  0  0  0  0  0  0  0  0  0  0
   23.5990  -28.7030   42.3660 C   0  0  0  0  0  0  0  0  0  0  0  0
   23.6260  -28.1850   43.6690 C   0  0  0  0  0  0  0  0  0  0  0  0
   24.6780  -28.6760   44.6260 C   0  0  0  0  0  0  0  0  0  0  0  0
   22.0667  -25.0885   47.5333 H   0  0  0  0  0  0  0  0  0  0  0  0
   21.3457  -23.6611   46.7152 H   0  0  0  0  0  0  0  0  0  0  0  0
   20.4739  -25.2316   46.7152 H   0  0  0  0  0  0  0  0  0  0  0  0
   21.4621  -25.0145   44.5448 H   0  0  0  0  0  0  0  0  0  0  0  0
   23.0432  -24.4945   45.2570 H   0  0  0  0  0  0  0  0  0  0  0  0
   23.6436  -26.6333   45.8598 H   0  0  0  0  0  0  0  0  0  0  0  0
   21.9214  -27.1749   46.0244 H   0  0  0  0  0  0  0  0  0  0  0  0
   20.9842  -26.0257   43.3782 H   0  0  0  0  0  0  0  0  0  0  0  0
   20.2595  -22.9279   40.4902 H   0  0  0  0  0  0  0  0  0  0  0  0
   18.6897  -21.7970   38.9124 H   0  0  0  0  0  0  0  0  0  0  0  0
   17.2655  -23.1565   37.3757 H   0  0  0  0  0  0  0  0  0  0  0  0
   16.8870  -26.5640   37.4710 H   0  0  0  0  0  0  0  0  0  0  0  0
   20.3840  -29.5100   40.8410 H   0  0  0  0  0  0  0  0  0  0  0  0
   22.6464  -28.6924   40.4237 H   0  0  0  0  0  0  0  0  0  0  0  0
   24.3409  -29.4584   42.0679 H   0  0  0  0  0  0  0  0  0  0  0  0
   24.3366  -28.5167   45.6595 H   0  0  0  0  0  0  0  0  0  0  0  0
   24.8534  -29.7490   44.4591 H   0  0  0  0  0  0  0  0  0  0  0  0
   25.6131  -28.1213   44.4591 H   0  0  0  0  0  0  0  0  0  0  0  0
  1  2  1  0
  2  3  1  0
  3  4  1  0
  4  5  2  0
  5  6  1  0
  6  7  1  0
  7  8  1  0
  8  9  1  0
  9 10  2  0
 10 11  1  0
 11 12  2  0
 12 13  1  0
 13 14  1  0
 13 15  2  0
 15 16  1  0
 16 17  2  0
 16 18  1  0
 18 19  1  0
  6 20  2  0
 20 21  1  0
 21 22  2  0
 22 23  1  0
 22  4  1  0
 18  7  2  0
 15  9  1  0
  1 24  1  0
  1 25  1  0
  1 26  1  0
  2 27  1  0
  2 28  1  0
  3 29  1  0
  3 30  1  0
  5 31  1  0
 10 32  1  0
 11 33  1  0
 12 34  1  0
 14 35  1  0
 19 36  1  0
 20 37  1  0
 21 38  1  0
 23 39  1  0
 23 40  1  0
 23 41  1  0
M  END
>  <meeko>  (7) 
{"is_sidechain": [false], "free_energy": -6.932, "intermolecular_energy": -8.769, "internal_energy": -0.281}

$$$$
cand_022_out
     RDKit          3D

 41 43  0  0  0  0  0  0  0  0999 V2000
   20.3760  -24.9880   48.6340 C   0  0  0  0  0  0  0  0  0  0  0  0
   20.5590  -24.5290   47.1960 C   0  0  0  0  0  0  0  0  0  0  0  0
   19.2940  -23.8570   46.6600 C   0  0  0  0  0  0  0  0  0  0  0  0
   19.4570  -23.4260   45.2180 C   0  0  0  0  0  0  0  0  0  0  0  0
   19.4960  -24.4250   44.2240 C   0  0  0  0  0  0  0  0  0  0  0  0
   19.6650  -24.1110   42.8680 C   0  0  0  0  0  0  0  0  0  0  0  0
   19.6790  -25.1550   41.8230 C   0  0  0  0  0  0  0  0  0  0  0  0
   18.9250  -24.8120   40.7070 O   0  0  0  0  0  0  0  0  0  0  0  0
   18.8530  -25.6940   39.6590 C   0  0  0  0  0  0  0  0  0  0  0  0
   18.0730  -25.3150   38.5640 C   0  0  0  0  0  0  0  0  0  0  0  0
   17.9580  -26.1660   37.4630 C   0  0  0  0  0  0  0  0  0  0  0  0
   18.6220  -27.3940   37.4550 C   0  0  0  0  0  0  0  0  0  0  0  0
   19.3990  -27.7690   38.5470 C   0  0  0  0  0  0  0  0  0  0  0  0
   20.0230  -28.9850   38.4740 O   0  0  0  0  0  0  0  0  0  0  0  0
   19.5140  -26.9170   39.6500 C   0  0  0  0  0  0  0  0  0  0  0  0
   20.3210  -27.2740   40.8180 C   0  0  0  0  0  0  0  0  0  0  0  0
   20.9400  -28.3340   40.8820 O   0  0  0  0  0  0  0  0  0  0  0  0
   20.3700  -26.3050   41.9370 C   0  0  0  0  0  0  0  0  0  0  0  0
   21.1450  -26.6470   43.0300 O   0  0  0  0  0  0  0  0  0  0  0  0
   19.7810  -22.7640   42.5100 C   0  0  0  0  0  0  0  0  0  0  0  0
   19.7500  -21.7610   43.4830 C   0  0  0  0  0  0  0  0  0  0  0  0
   19.5980  -22.0760   44.8420 C   0  0  0  0  0  0  0  0  0  0  0  0
   19.5660  -20.9600   45.8480 C   0  0  0  0  0  0  0  0  0  0  0  0
   20.6951  -24.1876   49.3178 H   0  0  0  0  0  0  0  0  0  0  0  0
   19.3160  -25.2216   48.8123 H   0  0  0  0  0  0  0  0  0  0  0  0
   20.9845  -25.8868   48.8123 H   0  0  0  0  0  0  0  0  0  0  0  0
   21.3915  -23.8113   47.1525 H   0  0  0  0  0  0  0  0  0  0  0  0
   20.7720  -25.4117   46.5751 H   0  0  0  0  0  0  0  0  0  0  0  0
   18.4570  -24.5676   46.7272 H   0  0  0  0  0  0  0  0  0  0  0  0
   19.0992  -22.9599   47.2661 H   0  0  0  0  0  0  0  0  0  0  0  0
   19.3910  -25.4791   44.5202 H   0  0  0  0  0  0  0  0  0  0  0  0
   17.5500  -24.3473   38.5690 H   0  0  0  0  0  0  0  0  0  0  0  0
   17.3433  -25.8684   36.6007 H   0  0  0  0  0  0  0  0  0  0  0  0
   18.5312  -28.0639   36.5872 H   0  0  0  0  0  0  0  0  0  0  0  0
   19.5650  -29.7620   38.7290 H   0  0  0  0  0  0  0  0  0  0  0  0
   20.8400  -26.4620   43.8970 H   0  0  0  0  0  0  0  0  0  0  0  0
   19.8979  -22.4909   41.4509 H   0  0  0  0  0  0  0  0  0  0  0  0
   19.8463  -20.7083   43.1787 H   0  0  0  0  0  0  0  0  0  0  0  0
   19.5781  -21.3817   46.8639 H   0  0  0  0  0  0  0  0  0  0  0  0
   20.4460  -20.3150   45.7082 H   0  0  0  0  0  0  0  0  0  0  0  0
   18.6505  -20.3665   45.7082 H   0  0  0  0  0  0  0  0  0  0  0  0
  1  2  1  0
  2  3  1  0
  3  4  1  0
  4  5  2  0
  5  6  1  0
  6  7  1  0
  7  8  1  0
  8  9  1  0
  9 10  2  0
 10 11  1  0
 11 12  2  0
 12 13  1  0
 13 14  1  0
 13 15  2  0
 15 16  1  0
 16 17  2  0
 16 18  1  0
 18 19  1  0
  6 20  2  0
 20 21  1  0
 21 22  2  0
 22 23  1  0
 22  4  1  0
 18  7  2  0
 15  9  1  0
  1 24  1  0
  1 25  1  0
  1 26  1  0
  2 27  1  0
  2 28  1  0
  3 29  1  0
  3 30  1  0
  5 31  1  0
 10 32  1  0
 11 33  1  0
 12 34  1  0
 14 35  1  0
 19 36  1  0
 20 37  1  0
 21 38  1  0
 23 39  1  0
 23 40  1  0
 23 41  1  0
M  END
>  <meeko>  (8) 
{"is_sidechain": [false], "free_energy": -6.575, "intermolecular_energy": -8.327, "internal_energy": -0.283}

$$$$
