cand_005_out
     RDKit          3D

 36 38  0  0  0  0  0  0  0  0999 V2000
   22.1120  -27.5410   41.8010 C   0  0  0  0  0  0  0  0  0  0  0  0
   20.8410  -27.1450   41.6740 C   0  0  0  0  0  0  0  0  0  0  0  0
   20.0540  -27.3890   40.4580 C   0  0  0  0  0  0  0  0  0  0  0  0
   20.0550  -28.6800   39.9000 C   0  0  0  0  0  0  0  0  0  0  0  0
   19.3390  -28.9750   38.7280 C   0  0  0  0  0  0  0  0  0  0  0  0
   19.3470  -30.3520   38.1900 C   0  0  0  0  0  0  0  0  0  0  0  0
   18.9260  -31.2970   39.1170 O   0  0  0  0  0  0  0  0  0  0  0  0
   18.8880  -32.6170   38.7460 C   0  0  0  0  0  0  0  0  0  0  0  0
   18.4460  -33.5320   39.7040 C   0  0  0  0  0  0  0  0  0  0  0  0
   18.3840  -34.8910   39.3920 C   0  0  0  0  0  0  0  0  0  0  0  0
   18.7640  -35.3370   38.1240 C   0  0  0  0  0  0  0  0  0  0  0  0
   19.2050  -34.4220   37.1710 C   0  0  0  0  0  0  0  0  0  0  0  0
   19.5620  -34.9270   35.9510 O   0  0  0  0  0  0  0  0  0  0  0  0
   19.2660  -33.0620   37.4830 C   0  0  0  0  0  0  0  0  0  0  0  0
   19.7230  -32.0680   36.5100 C   0  0  0  0  0  0  0  0  0  0  0  0
   20.0800  -32.3810   35.3770 O   0  0  0  0  0  0  0  0  0  0  0  0
   19.7440  -30.6500   36.9390 C   0  0  0  0  0  0  0  0  0  0  0  0
   20.1910  -29.7210   36.0190 O   0  0  0  0  0  0  0  0  0  0  0  0
   18.6030  -27.9510   38.1250 C   0  0  0  0  0  0  0  0  0  0  0  0
   18.5970  -26.6630   38.6660 C   0  0  0  0  0  0  0  0  0  0  0  0
   19.3220  -26.3630   39.8330 C   0  0  0  0  0  0  0  0  0  0  0  0
   19.2830  -24.9610   40.3960 C   0  0  0  0  0  0  0  0  0  0  0  0
   18.6980  -24.8940   41.6240 F   0  0  0  0  0  0  0  0  0  0  0  0
   18.5840  -24.0870   39.6140 F   0  0  0  0  0  0  0  0  0  0  0  0
   20.5210  -24.4070   40.5330 F   0  0  0  0  0  0  0  0  0  0  0  0
   22.6617  -27.3357   42.7314 H   0  0  0  0  0  0  0  0  0  0  0  0
   22.6078  -28.0720   40.9750 H   0  0  0  0  0  0  0  0  0  0  0  0
   20.3662  -26.6157   42.5133 H   0  0  0  0  0  0  0  0  0  0  0  0
   20.6301  -29.4776   40.3930 H   0  0  0  0  0  0  0  0  0  0  0  0
   18.1471  -33.1821   40.7031 H   0  0  0  0  0  0  0  0  0  0  0  0
   18.0353  -35.6121   40.1460 H   0  0  0  0  0  0  0  0  0  0  0  0
   18.7151  -36.4082   37.8787 H   0  0  0  0  0  0  0  0  0  0  0  0
   20.4470  -34.8530   35.6530 H   0  0  0  0  0  0  0  0  0  0  0  0
   20.5600  -28.9100   36.3110 H   0  0  0  0  0  0  0  0  0  0  0  0
   18.0223  -28.1616   37.2148 H   0  0  0  0  0  0  0  0  0  0  0  0
   18.0159  -25.8709   38.1712 H   0  0  0  0  0  0  0  0  0  0  0  0
  1  2  2  0
  2  3  1  0
  3  4  2  0
  4  5  1  0
  5  6  1  0
  6  7  1  0
  7  8  1  0
  8  9  2  0
  9 10  1  0
 10 11  2  0
 11 12  1  0
 12 13  1  0
 12 14  2  0
 14 15  1  0
 15 16  2  0
 15 17  1  0
 17 18  1  0
  5 19  2  0
 19 20  1  0
 20 21  2  0
 21 22  1  0
 22 23  1  0
 22 24  1  0
 22 25  1  0
 21  3  1  0
 17  6  2  0
 14  8  1  0
  1 26  1  0
  1 27  1  0
  2 28  1  0
  4 29  1  0
  9 30  1  0
 10 31  1  0
 11 32  1  0
 13 33  1  0
 18 34  1  0
 19 35  1  0
 20 36  1  0
M  END
>  <meeko>  (1) 
{"is_sidechain": [false], "free_energy": -8.131, "intermolecular_energy": -10.033, "internal_energy": -0.462}

$$$$
cand_005_out
     RDKit          3D

 36 38  0  0  0  0  0  0  0  0999 V2000
   18.5250  -33.7600   39.7110 C   0  0  0  0  0  0  0  0  0  0  0  0
   18.8470  -34.0300   38.4410 C   0  0  0  0  0  0  0  0  0  0  0  0
   19.2630  -32.9900   37.4920 C   0  0  0  0  0  0  0  0  0  0  0  0
   19.2800  -31.6500   37.9220 C   0  0  0  0  0  0  0  0  0  0  0  0
   19.6500  -30.6060   37.0590 C   0  0  0  0  0  0  0  0  0  0  0  0
   19.6780  -29.2160   37.5590 C   0  0  0  0  0  0  0  0  0  0  0  0
   20.0070  -29.1320   38.9070 O   0  0  0  0  0  0  0  0  0  0  0  0
   20.0670  -27.8960   39.4990 C   0  0  0  0  0  0  0  0  0  0  0  0
   20.4140  -27.8570   40.8510 C   0  0  0  0  0  0  0  0  0  0  0  0
   20.4920  -26.6320   41.5140 C   0  0  0  0  0  0  0  0  0  0  0  0
   20.2230  -25.4450   40.8280 C   0  0  0  0  0  0  0  0  0  0  0  0
   19.8760  -25.4870   39.4800 C   0  0  0  0  0  0  0  0  0  0  0  0
   19.6260  -24.2890   38.8700 O   0  0  0  0  0  0  0  0  0  0  0  0
   19.8000  -26.7140   38.8160 C   0  0  0  0  0  0  0  0  0  0  0  0
   19.4400  -26.8020   37.4000 C   0  0  0  0  0  0  0  0  0  0  0  0
   19.1830  -25.8040   36.7290 O   0  0  0  0  0  0  0  0  0  0  0  0
   19.3930  -28.1500   36.7880 C   0  0  0  0  0  0  0  0  0  0  0  0
   19.0370  -28.2240   35.4540 O   0  0  0  0  0  0  0  0  0  0  0  0
   20.0200  -30.9270   35.7500 C   0  0  0  0  0  0  0  0  0  0  0  0
   20.0030  -32.2530   35.3080 C   0  0  0  0  0  0  0  0  0  0  0  0
   19.6230  -33.2990   36.1680 C   0  0  0  0  0  0  0  0  0  0  0  0
   19.6270  -34.7210   35.6590 C   0  0  0  0  0  0  0  0  0  0  0  0
   19.7440  -34.8040   34.3040 F   0  0  0  0  0  0  0  0  0  0  0  0
   18.4850  -35.4050   35.9640 F   0  0  0  0  0  0  0  0  0  0  0  0
   20.6420  -35.4700   36.1760 F   0  0  0  0  0  0  0  0  0  0  0  0
   18.2189  -34.5732   40.3856 H   0  0  0  0  0  0  0  0  0  0  0  0
   18.5664  -32.7248   40.0807 H   0  0  0  0  0  0  0  0  0  0  0  0
   18.7981  -35.0727   38.0940 H   0  0  0  0  0  0  0  0  0  0  0  0
   18.9968  -31.4150   38.9586 H   0  0  0  0  0  0  0  0  0  0  0  0
   20.6255  -28.7908   41.3925 H   0  0  0  0  0  0  0  0  0  0  0  0
   20.7658  -26.6006   42.5789 H   0  0  0  0  0  0  0  0  0  0  0  0
   20.2852  -24.4795   41.3514 H   0  0  0  0  0  0  0  0  0  0  0  0
   20.2880  -23.8820   38.3460 H   0  0  0  0  0  0  0  0  0  0  0  0
   18.6580  -29.0100   35.1120 H   0  0  0  0  0  0  0  0  0  0  0  0
   20.3279  -30.1275   35.0601 H   0  0  0  0  0  0  0  0  0  0  0  0
   20.2913  -32.4819   34.2714 H   0  0  0  0  0  0  0  0  0  0  0  0
  1  2  2  0
  2  3  1  0
  3  4  2  0
  4  5  1  0
  5  6  1  0
  6  7  1  0
  7  8  1  0
  8  9  2  0
  9 10  1  0
 10 11  2  0
 11 12  1  0
 12 13  1  0
 12 14  2  0
 14 15  1  0
 15 16  2  0
 15 17  1  0
 17 18  1  0
  5 19  2  0
 19 20  1  0
 20 21  2  0
 21 22  1  0
 22 23  1  0
 22 24  1  0
 22 25  1  0
 21  3  1  0
 17  6  2  0
 14  8  1  0
  1 26  1  0
  1 27  1  0
  2 28  1  0
  4 29  1  0
  9 30  1  0
 10 31  1  0
 11 32  1  0
 13 33  1  0
 18 34  1  0
 19 35  1  0
 20 36  1  0
M  END
>  <meeko>  (2) 
{"is_sidechain": [false], "free_energy": -7.732, "intermolecular_energy": -9.898, "internal_energy": -0.105}

$$$$
cand_005_out
     RDKit          3D

 36 38  0  0  0  0  0  0  0  0999 V2000
   20.3970  -30.1530   34.3910 C   0  0  0  0  0  0  0  0  0  0  0  0
   20.4050  -31.2730   35.1240 C   0  0  0  0  0  0  0  0  0  0  0  0
   19.8550  -31.3300   36.4850 C   0  0  0  0  0  0  0  0  0  0  0  0
   19.7860  -30.1420   37.2370 C   0  0  0  0  0  0  0  0  0  0  0  0
   19.2890  -30.1320   38.5500 C   0  0  0  0  0  0  0  0  0  0  0  0
   19.2100  -28.8570   39.2950 C   0  0  0  0  0  0  0  0  0  0  0  0
   20.1060  -28.7950   40.3560 O   0  0  0  0  0  0  0  0  0  0  0  0
   20.1340  -27.6640   41.1320 C   0  0  0  0  0  0  0  0  0  0  0  0
   21.0570  -27.6380   42.1790 C   0  0  0  0  0  0  0  0  0  0  0  0
   21.1370  -26.5180   43.0080 C   0  0  0  0  0  0  0  0  0  0  0  0
   20.2960  -25.4240   42.7930 C   0  0  0  0  0  0  0  0  0  0  0  0
   19.3750  -25.4540   41.7480 C   0  0  0  0  0  0  0  0  0  0  0  0
   18.5820  -24.3500   41.5940 O   0  0  0  0  0  0  0  0  0  0  0  0
   19.2960  -26.5750   40.9180 C   0  0  0  0  0  0  0  0  0  0  0  0
   18.3430  -26.6450   39.8090 C   0  0  0  0  0  0  0  0  0  0  0  0
   17.5640  -25.7280   39.5590 O   0  0  0  0  0  0  0  0  0  0  0  0
   18.3430  -27.8760   38.9840 C   0  0  0  0  0  0  0  0  0  0  0  0
   17.4300  -27.9400   37.9480 O   0  0  0  0  0  0  0  0  0  0  0  0
   18.8450  -31.3370   39.1010 C   0  0  0  0  0  0  0  0  0  0  0  0
   18.9120  -32.5250   38.3680 C   0  0  0  0  0  0  0  0  0  0  0  0
   19.4200  -32.5390   37.0560 C   0  0  0  0  0  0  0  0  0  0  0  0
   19.4670  -33.8400   36.2890 C   0  0  0  0  0  0  0  0  0  0  0  0
   19.9610  -34.8760   37.0230 F   0  0  0  0  0  0  0  0  0  0  0  0
   20.2540  -33.7790   35.1750 F   0  0  0  0  0  0  0  0  0  0  0  0
   18.2430  -34.2410   35.8420 F   0  0  0  0  0  0  0  0  0  0  0  0
   20.8203  -30.1571   33.3757 H   0  0  0  0  0  0  0  0  0  0  0  0
   19.9671  -29.2285   34.8039 H   0  0  0  0  0  0  0  0  0  0  0  0
   20.8401  -32.1857   34.6907 H   0  0  0  0  0  0  0  0  0  0  0  0
   20.1295  -29.1996   36.7854 H   0  0  0  0  0  0  0  0  0  0  0  0
   21.7201  -28.4988   42.3504 H   0  0  0  0  0  0  0  0  0  0  0  0
   21.8644  -26.4969   43.8329 H   0  0  0  0  0  0  0  0  0  0  0  0
   20.3605  -24.5415   43.4465 H   0  0  0  0  0  0  0  0  0  0  0  0
   18.4920  -23.9510   40.7510 H   0  0  0  0  0  0  0  0  0  0  0  0
   16.6330  -28.4210   38.0540 H   0  0  0  0  0  0  0  0  0  0  0  0
   18.4383  -31.3506   40.1230 H   0  0  0  0  0  0  0  0  0  0  0  0
   18.5623  -33.4632   38.8236 H   0  0  0  0  0  0  0  0  0  0  0  0
  1  2  2  0
  2  3  1  0
  3  4  2  0
  4  5  1  0
  5  6  1  0
  6  7  1  0
  7  8  1  0
  8  9  2  0
  9 10  1  0
 10 11  2  0
 11 12  1  0
 12 13  1  0
 12 14  2  0
 14 15  1  0
 15 16  2  0
 15 17  1  0
 17 18  1  0
  5 19  2  0
 19 20  1  0
 20 21  2  0
 21 22  1  0
 22 23  1  0
 22 24  1  0
 22 25  1  0
 21  3  1  0
 17  6  2  0
 14  8  1  0
  1 26  1  0
  1 27  1  0
  2 28  1  0
  4 29  1  0
  9 30  1  0
 10 31  1  0
 11 32  1  0
 13 33  1  0
 18 34  1  0
 19 35  1  0
 20 36  1  0
M  END
>  <meeko>  (3) 
{"is_sidechain": [false], "free_energy": -7.56, "intermolecular_energy": -9.728, "internal_energy": -0.061}

$$$$
cand_005_out
     RDKit          3D

 36 38  0  0  0  0  0  0  0  0999 V2000
   20.0170  -31.6660   32.8040 C   0  0  0  0  0  0  0  0  0  0  0  0
   20.4460  -32.4220   33.8220 C   0  0  0  0  0  0  0  0  0  0  0  0
   20.0150  -32.1990   35.2080 C   0  0  0  0  0  0  0  0  0  0  0  0
   20.0520  -30.8920   35.7270 C   0  0  0  0  0  0  0  0  0  0  0  0
   19.6710  -30.6140   37.0490 C   0  0  0  0  0  0  0  0  0  0  0  0
   19.7010  -29.2220   37.5450 C   0  0  0  0  0  0  0  0  0  0  0  0
   20.0320  -29.1350   38.8920 O   0  0  0  0  0  0  0  0  0  0  0  0
   20.0930  -27.8970   39.4800 C   0  0  0  0  0  0  0  0  0  0  0  0
   20.4420  -27.8540   40.8310 C   0  0  0  0  0  0  0  0  0  0  0  0
   20.5210  -26.6260   41.4900 C   0  0  0  0  0  0  0  0  0  0  0  0
   20.2510  -25.4420   40.8010 C   0  0  0  0  0  0  0  0  0  0  0  0
   19.9020  -25.4880   39.4530 C   0  0  0  0  0  0  0  0  0  0  0  0
   19.6510  -24.2920   38.8410 O   0  0  0  0  0  0  0  0  0  0  0  0
   19.8240  -26.7170   38.7940 C   0  0  0  0  0  0  0  0  0  0  0  0
   19.4620  -26.8090   37.3780 C   0  0  0  0  0  0  0  0  0  0  0  0
   19.2030  -25.8130   36.7050 O   0  0  0  0  0  0  0  0  0  0  0  0
   19.4130  -28.1590   36.7710 C   0  0  0  0  0  0  0  0  0  0  0  0
   19.0560  -28.2380   35.4380 O   0  0  0  0  0  0  0  0  0  0  0  0
   19.2350  -31.6740   37.8500 C   0  0  0  0  0  0  0  0  0  0  0  0
   19.1990  -32.9780   37.3500 C   0  0  0  0  0  0  0  0  0  0  0  0
   19.5900  -33.2600   36.0290 C   0  0  0  0  0  0  0  0  0  0  0  0
   19.5260  -34.6800   35.5190 C   0  0  0  0  0  0  0  0  0  0  0  0
   19.1840  -34.7620   34.2030 F   0  0  0  0  0  0  0  0  0  0  0  0
   18.6100  -35.4480   36.1780 F   0  0  0  0  0  0  0  0  0  0  0  0
   20.7090  -35.3460   35.6460 F   0  0  0  0  0  0  0  0  0  0  0  0
   20.3672  -31.8703   31.7815 H   0  0  0  0  0  0  0  0  0  0  0  0
   19.3142  -30.8405   32.9900 H   0  0  0  0  0  0  0  0  0  0  0  0
   21.1486  -33.2420   33.6122 H   0  0  0  0  0  0  0  0  0  0  0  0
   20.3878  -30.0675   35.0809 H   0  0  0  0  0  0  0  0  0  0  0  0
   20.6543  -28.7861   41.3752 H   0  0  0  0  0  0  0  0  0  0  0  0
   20.7965  -26.5910   42.5544 H   0  0  0  0  0  0  0  0  0  0  0  0
   20.3137  -24.4749   41.3214 H   0  0  0  0  0  0  0  0  0  0  0  0
   18.9020  -24.1970   38.2860 H   0  0  0  0  0  0  0  0  0  0  0  0
   19.3160  -27.5630   34.8410 H   0  0  0  0  0  0  0  0  0  0  0  0
   18.9170  -31.4790   38.8848 H   0  0  0  0  0  0  0  0  0  0  0  0
   18.8592  -33.7976   38.0003 H   0  0  0  0  0  0  0  0  0  0  0  0
  1  2  2  0
  2  3  1  0
  3  4  2  0
  4  5  1  0
  5  6  1  0
  6  7  1  0
  7  8  1  0
  8  9  2  0
  9 10  1  0
 10 11  2  0
 11 12  1  0
 12 13  1  0
 12 14  2  0
 14 15  1  0
 15 16  2  0
 15 17  1  0
 17 18  1  0
  5 19  2  0
 19 20  1  0
 20 21  2  0
 21 22  1  0
 22 23  1  0
 22 24  1  0
 22 25  1  0
 21  3  1  0
 17  6  2  0
 14  8  1  0
  1 26  1  0
  1 27  1  0
  2 28  1  0
  4 29  1  0
  9 30  1  0
 10 31  1  0
 11 32  1  0
 13 33  1  0
 18 34  1  0
 19 35  1  0
 20 36  1  0
M  END
>  <meeko>  (4) 
{"is_sidechain": [false], "free_energy": -7.369, "intermolecular_energy": -9.635, "internal_energy": 0.081}

$$$$
cand_005_out
     RDKit          3D

 36 38  0  0  0  0  0  0  0  0999 V2000
   23.9870  -29.9000   42.3630 C   0  0  0  0  0  0  0  0  0  0  0  0
   23.9840  -28.5630   42.3430 C   0  0  0  0  0  0  0  0  0  0  0  0
   22.7450  -27.7750   42.3130 C   0  0  0  0  0  0  0  0  0  0  0  0
   22.1070  -27.5650   41.0770 C   0  0  0  0  0  0  0  0  0  0  0  0
   20.9300  -26.8060   40.9760 C   0  0  0  0  0  0  0  0  0  0  0  0
   20.2790  -26.6320   39.6610 C   0  0  0  0  0  0  0  0  0  0  0  0
   20.0630  -25.2980   39.3360 O   0  0  0  0  0  0  0  0  0  0  0  0
   19.4630  -24.9960   38.1410 C   0  0  0  0  0  0  0  0  0  0  0  0
   19.2780  -23.6440   37.8480 C   0  0  0  0  0  0  0  0  0  0  0  0
   18.6710  -23.2680   36.6480 C   0  0  0  0  0  0  0  0  0  0  0  0
   18.2500  -24.2420   35.7410 C   0  0  0  0  0  0  0  0  0  0  0  0
   18.4340  -25.5910   36.0360 C   0  0  0  0  0  0  0  0  0  0  0  0
   17.9980  -26.4910   35.1040 O   0  0  0  0  0  0  0  0  0  0  0  0
   19.0420  -25.9660   37.2360 C   0  0  0  0  0  0  0  0  0  0  0  0
   19.2560  -27.3720   37.5830 C   0  0  0  0  0  0  0  0  0  0  0  0
   18.9070  -28.2880   36.8420 O   0  0  0  0  0  0  0  0  0  0  0  0
   19.9150  -27.6640   38.8780 C   0  0  0  0  0  0  0  0  0  0  0  0
   20.1000  -28.9950   39.2040 O   0  0  0  0  0  0  0  0  0  0  0  0
   20.3870  -26.2650   42.1460 C   0  0  0  0  0  0  0  0  0  0  0  0
   21.0130  -26.4620   43.3800 C   0  0  0  0  0  0  0  0  0  0  0  0
   22.1980  -27.2130   43.4810 C   0  0  0  0  0  0  0  0  0  0  0  0
   22.8410  -27.4130   44.8330 C   0  0  0  0  0  0  0  0  0  0  0  0
   22.3910  -26.5380   45.7750 F   0  0  0  0  0  0  0  0  0  0  0  0
   24.1970  -27.2560   44.8130 F   0  0  0  0  0  0  0  0  0  0  0  0
   22.6320  -28.6610   45.3440 F   0  0  0  0  0  0  0  0  0  0  0  0
   24.9408  -30.4476   42.3852 H   0  0  0  0  0  0  0  0  0  0  0  0
   23.0357  -30.4523   42.3572 H   0  0  0  0  0  0  0  0  0  0  0  0
   24.9475  -28.0324   42.3493 H   0  0  0  0  0  0  0  0  0  0  0  0
   22.5407  -28.0061   40.1675 H   0  0  0  0  0  0  0  0  0  0  0  0
   19.6100  -22.8755   38.5616 H   0  0  0  0  0  0  0  0  0  0  0  0
   18.5243  -22.2026   36.4170 H   0  0  0  0  0  0  0  0  0  0  0  0
   17.7738  -23.9449   34.7950 H   0  0  0  0  0  0  0  0  0  0  0  0
   18.3700  -26.4940   34.2440 H   0  0  0  0  0  0  0  0  0  0  0  0
   19.5430  -29.6510   38.8320 H   0  0  0  0  0  0  0  0  0  0  0  0
   19.4578  -25.6785   42.0944 H   0  0  0  0  0  0  0  0  0  0  0  0
   20.5718  -26.0226   44.2868 H   0  0  0  0  0  0  0  0  0  0  0  0
  1  2  2  0
  2  3  1  0
  3  4  2  0
  4  5  1  0
  5  6  1  0
  6  7  1  0
  7  8  1  0
  8  9  2  0
  9 10  1  0
 10 11  2  0
 11 12  1  0
 12 13  1  0
 12 14  2  0
 14 15  1  0
 15 16  2  0
 15 17  1  0
 17 18  1  0
  5 19  2  0
 19 20  1  0
 20 21  2  0
 21 22  1  0
 22 23  1  0
 22 24  1  0
 22 25  1  0
 21  3  1  0
 17  6  2  0
 14  8  1  0
  1 26  1  0
  1 27  1  0
  2 28  1  0
  4 29  1  0
  9 30  1  0
 10 31  1  0
 11 32  1  0
 13 33  1  0
 18 34  1  0
 19 35  1  0
 20 36  1  0
M  END
>  <meeko>  (5) 
{"is_sidechain": [false], "free_energy": -7.333, "intermolecular_energy": -9.173, "internal_energy": -0.337}

$$$$
cand_005_out
     RDKit          3D

 36 38  0  0  0  0  0  0  0  0999 V2000
   18.3760  -25.4610   36.1130 C   0  0  0  0  0  0  0  0  0  0  0  0
   18.1000  -25.6540   37.4080 C   0  0  0  0  0  0  0  0  0  0  0  0
   18.8050  -26.6480   38.2270 C   0  0  0  0  0  0  0  0  0  0  0  0
   18.7780  -27.9970   37.8270 C   0  0  0  0  0  0  0  0  0  0  0  0
   19.4160  -28.9990   38.5740 C   0  0  0  0  0  0  0  0  0  0  0  0
   19.3840  -30.4000   38.1030 C   0  0  0  0  0  0  0  0  0  0  0  0
   18.9600  -31.2900   39.0830 O   0  0  0  0  0  0  0  0  0  0  0  0
   18.8870  -32.6250   38.7770 C   0  0  0  0  0  0  0  0  0  0  0  0
   18.4440  -33.4830   39.7850 C   0  0  0  0  0  0  0  0  0  0  0  0
   18.3470  -34.8540   39.5410 C   0  0  0  0  0  0  0  0  0  0  0  0
   18.6920  -35.3690   38.2890 C   0  0  0  0  0  0  0  0  0  0  0  0
   19.1350  -34.5100   37.2850 C   0  0  0  0  0  0  0  0  0  0  0  0
   19.4570  -35.0810   36.0850 O   0  0  0  0  0  0  0  0  0  0  0  0
   19.2310  -33.1380   37.5300 C   0  0  0  0  0  0  0  0  0  0  0  0
   19.6900  -32.2030   36.5020 C   0  0  0  0  0  0  0  0  0  0  0  0
   20.0190  -32.5780   35.3790 O   0  0  0  0  0  0  0  0  0  0  0  0
   19.7500  -30.7670   36.8620 C   0  0  0  0  0  0  0  0  0  0  0  0
   20.1990  -29.8930   35.8890 O   0  0  0  0  0  0  0  0  0  0  0  0
   20.1010  -28.6260   39.7350 C   0  0  0  0  0  0  0  0  0  0  0  0
   20.1320  -27.2910   40.1470 C   0  0  0  0  0  0  0  0  0  0  0  0
   19.4850  -26.2870   39.4050 C   0  0  0  0  0  0  0  0  0  0  0  0
   19.5490  -24.8530   39.8750 C   0  0  0  0  0  0  0  0  0  0  0  0
   19.8660  -23.9780   38.8810 F   0  0  0  0  0  0  0  0  0  0  0  0
   20.4840  -24.6480   40.8490 F   0  0  0  0  0  0  0  0  0  0  0  0
   18.3740  -24.4140   40.4090 F   0  0  0  0  0  0  0  0  0  0  0  0
   17.8211  -24.7041   35.5392 H   0  0  0  0  0  0  0  0  0  0  0  0
   19.1578  -26.0592   35.6222 H   0  0  0  0  0  0  0  0  0  0  0  0
   17.3141  -25.0441   37.8774 H   0  0  0  0  0  0  0  0  0  0  0  0
   18.2435  -28.2728   36.9060 H   0  0  0  0  0  0  0  0  0  0  0  0
   18.1715  -33.0790   40.7711 H   0  0  0  0  0  0  0  0  0  0  0  0
   17.9984  -35.5299   40.3357 H   0  0  0  0  0  0  0  0  0  0  0  0
   18.6142  -36.4492   38.0963 H   0  0  0  0  0  0  0  0  0  0  0  0
   19.1600  -34.6910   35.2860 H   0  0  0  0  0  0  0  0  0  0  0  0
   21.1180  -29.7930   35.7360 H   0  0  0  0  0  0  0  0  0  0  0  0
   20.6207  -29.3914   40.3300 H   0  0  0  0  0  0  0  0  0  0  0  0
   20.6714  -27.0212   41.0669 H   0  0  0  0  0  0  0  0  0  0  0  0
  1  2  2  0
  2  3  1  0
  3  4  2  0
  4  5  1  0
  5  6  1  0
  6  7  1  0
  7  8  1  0
  8  9  2  0
  9 10  1  0
 10 11  2  0
 11 12  1  0
 12 13  1  0
 12 14  2  0
 14 15  1  0
 15 16  2  0
 15 17  1  0
 17 18  1  0
  5 19  2  0
 19 20  1  0
 20 21  2  0
 21 22  1  0
 22 23  1  0
 22 24  1  0
 22 25  1  0
 21  3  1  0
 17  6  2  0
 14  8  1  0
  1 26  1  0
  1 27  1  0
  2 28  1  0
  4 29  1  0
  9 30  1  0
 10 31  1  0
 11 32  1  0
 13 33  1  0
 18 34  1  0
 19 35  1  0
 20 36  1  0
M  END
>  <meeko>  (6) 
{"is_sidechain": [false], "free_energy": -7.324, "intermolecular_energy": -9.187, "internal_energy": -0.312}

$$$$
cand_005_out
     RDKit          3D

 36 38  0  0  0  0  0  0  0  0999 V2000
   20.1080  -32.1070   34.6970 C   0  0  0  0  0  0  0  0  0  0  0  0
   19.8600  -32.7670   35.8330 C   0  0  0  0  0  0  0  0  0  0  0  0
   19.5010  -32.0840   37.0830 C   0  0  0  0  0  0  0  0  0  0  0  0
   19.5830  -30.6800   37.1340 C   0  0  0  0  0  0  0  0  0  0  0  0
   19.2720  -29.9680   38.3020 C   0  0  0  0  0  0  0  0  0  0  0  0
   19.3470  -28.4910   38.3040 C   0  0  0  0  0  0  0  0  0  0  0  0
   18.6780  -27.9140   37.2320 O   0  0  0  0  0  0  0  0  0  0  0  0
   18.6710  -26.5480   37.1130 C   0  0  0  0  0  0  0  0  0  0  0  0
   17.9760  -26.0090   36.0290 C   0  0  0  0  0  0  0  0  0  0  0  0
   17.9310  -24.6260   35.8490 C   0  0  0  0  0  0  0  0  0  0  0  0
   18.5800  -23.7800   36.7500 C   0  0  0  0  0  0  0  0  0  0  0  0
   19.2740  -24.3200   37.8310 C   0  0  0  0  0  0  0  0  0  0  0  0
   19.8870  -23.4350   38.6740 O   0  0  0  0  0  0  0  0  0  0  0  0
   19.3180  -25.7050   38.0110 C   0  0  0  0  0  0  0  0  0  0  0  0
   20.0350  -26.3120   39.1340 C   0  0  0  0  0  0  0  0  0  0  0  0
   20.6370  -25.6370   39.9660 O   0  0  0  0  0  0  0  0  0  0  0  0
   20.0150  -27.7900   39.2380 C   0  0  0  0  0  0  0  0  0  0  0  0
   20.7070  -28.3560   40.2930 O   0  0  0  0  0  0  0  0  0  0  0  0
   18.8580  -30.6870   39.4280 C   0  0  0  0  0  0  0  0  0  0  0  0
   18.7770  -32.0810   39.3930 C   0  0  0  0  0  0  0  0  0  0  0  0
   19.0990  -32.7980   38.2260 C   0  0  0  0  0  0  0  0  0  0  0  0
   18.9880  -34.3050   38.2220 C   0  0  0  0  0  0  0  0  0  0  0  0
   18.3040  -34.7880   37.1480 F   0  0  0  0  0  0  0  0  0  0  0  0
   18.3390  -34.8000   39.3160 F   0  0  0  0  0  0  0  0  0  0  0  0
   20.2010  -34.9280   38.2130 F   0  0  0  0  0  0  0  0  0  0  0  0
   20.3734  -32.6621   33.7851 H   0  0  0  0  0  0  0  0  0  0  0  0
   20.0467  -31.0089   34.6742 H   0  0  0  0  0  0  0  0  0  0  0  0
   19.9275  -33.8649   35.8315 H   0  0  0  0  0  0  0  0  0  0  0  0
   19.8985  -30.1277   36.2365 H   0  0  0  0  0  0  0  0  0  0  0  0
   17.4644  -26.6738   35.3175 H   0  0  0  0  0  0  0  0  0  0  0  0
   17.3828  -24.2014   34.9951 H   0  0  0  0  0  0  0  0  0  0  0  0
   18.5437  -22.6899   36.6070 H   0  0  0  0  0  0  0  0  0  0  0  0
   20.6700  -22.9970   38.4060 H   0  0  0  0  0  0  0  0  0  0  0  0
   20.8220  -29.2850   40.3360 H   0  0  0  0  0  0  0  0  0  0  0  0
   18.5935  -30.1492   40.3504 H   0  0  0  0  0  0  0  0  0  0  0  0
   18.4563  -32.6271   40.2924 H   0  0  0  0  0  0  0  0  0  0  0  0
  1  2  2  0
  2  3  1  0
  3  4  2  0
  4  5  1  0
  5  6  1  0
  6  7  1  0
  7  8  1  0
  8  9  2  0
  9 10  1  0
 10 11  2  0
 11 12  1  0
 12 13  1  0
 12 14  2  0
 14 15  1  0
 15 16  2  0
 15 17  1  0
 17 18  1  0
  5 19  2  0
 19 20  1  0
 20 21  2  0
 21 22  1  0
 22 23  1  0
 22 24  1  0
 22 25  1  0
 21  3  1  0
 17  6  2  0
 14  8  1  0
  1 26  1  0
  1 27  1  0
  2 28  1  0
  4 29  1  0
  9 30  1  0
 10 31  1  0
 11 32  1  0
 13 33  1  0
 18 34  1  0
 19 35  1  0
 20 36  1  0
M  END
>  <meeko>  (7) 
{"is_sidechain": [false], "free_energy": -7.244, "intermolecular_energy": -9.071, "internal_energy": -0.329}

$$$$
cand_005_out
     RDKit          3D

 36 38  0  0  0  0  0  0  0  0999 V2000
   21.7840  -27.5140   41.7890 C   0  0  0  0  0  0  0  0  0  0  0  0
   20.4740  -27.5170   41.5160 C   0  0  0  0  0  0  0  0  0  0  0  0
   19.9520  -27.6040   40.1460 C   0  0  0  0  0  0  0  0  0  0  0  0
   19.9840  -28.8470   39.4880 C   0  0  0  0  0  0  0  0  0  0  0  0
   19.5190  -28.9950   38.1720 C   0  0  0  0  0  0  0  0  0  0  0  0
   19.5470  -30.3250   37.5280 C   0  0  0  0  0  0  0  0  0  0  0  0
   19.9240  -30.2710   36.1910 O   0  0  0  0  0  0  0  0  0  0  0  0
   19.9900  -31.4380   35.4740 C   0  0  0  0  0  0  0  0  0  0  0  0
   20.3860  -31.3390   34.1390 C   0  0  0  0  0  0  0  0  0  0  0  0
   20.4720  -32.4890   33.3520 C   0  0  0  0  0  0  0  0  0  0  0  0
   20.1620  -33.7370   33.8970 C   0  0  0  0  0  0  0  0  0  0  0  0
   19.7670  -33.8320   35.2290 C   0  0  0  0  0  0  0  0  0  0  0  0
   19.4780  -35.0830   35.6990 O   0  0  0  0  0  0  0  0  0  0  0  0
   19.6820  -32.6810   36.0170 C   0  0  0  0  0  0  0  0  0  0  0  0
   19.2710  -32.7380   37.4210 C   0  0  0  0  0  0  0  0  0  0  0  0
   18.9760  -33.7960   37.9720 O   0  0  0  0  0  0  0  0  0  0  0  0
   19.2190  -31.4610   38.1710 C   0  0  0  0  0  0  0  0  0  0  0  0
   18.8160  -31.5230   39.4920 O   0  0  0  0  0  0  0  0  0  0  0  0
   19.0010  -27.8710   37.5210 C   0  0  0  0  0  0  0  0  0  0  0  0
   18.9680  -26.6290   38.1610 C   0  0  0  0  0  0  0  0  0  0  0  0
   19.4440  -26.4770   39.4760 C   0  0  0  0  0  0  0  0  0  0  0  0
   19.3820  -25.1210   40.1390 C   0  0  0  0  0  0  0  0  0  0  0  0
   18.6190  -25.1120   41.2680 F   0  0  0  0  0  0  0  0  0  0  0  0
   18.8490  -24.1530   39.3360 F   0  0  0  0  0  0  0  0  0  0  0  0
   20.6080  -24.6490   40.5040 F   0  0  0  0  0  0  0  0  0  0  0  0
   22.1284  -27.4472   42.8316 H   0  0  0  0  0  0  0  0  0  0  0  0
   22.5165  -27.5784   40.9709 H   0  0  0  0  0  0  0  0  0  0  0  0
   19.7602  -27.4517   42.3504 H   0  0  0  0  0  0  0  0  0  0  0  0
   20.3832  -29.7244   40.0178 H   0  0  0  0  0  0  0  0  0  0  0  0
   20.6298  -30.3568   33.7079 H   0  0  0  0  0  0  0  0  0  0  0  0
   20.7847  -32.4119   32.3002 H   0  0  0  0  0  0  0  0  0  0  0  0
   20.2297  -34.6423   33.2759 H   0  0  0  0  0  0  0  0  0  0  0  0
   19.3110  -35.7830   35.0980 H   0  0  0  0  0  0  0  0  0  0  0  0
   18.9940  -30.8080   40.0710 H   0  0  0  0  0  0  0  0  0  0  0  0
   18.6157  -27.9653   36.4950 H   0  0  0  0  0  0  0  0  0  0  0  0
   18.5632  -25.7561   37.6278 H   0  0  0  0  0  0  0  0  0  0  0  0
  1  2  2  0
  2  3  1  0
  3  4  2  0
  4  5  1  0
  5  6  1  0
  6  7  1  0
  7  8  1  0
  8  9  2  0
  9 10  1  0
 10 11  2  0
 11 12  1  0
 12 13  1  0
 12 14  2  0
 14 15  1  0
 15 16  2  0
 15 17  1  0
 17 18  1  0
  5 19  2  0
 19 20  1  0
 20 21  2  0
 21 22  1  0
 22 23  1  0
 22 24  1  0
 22 25  1  0
 21  3  1  0
 17  6  2  0
 14  8  1  0
  1 26  1  0
  1 27  1  0
  2 28  1  0
  4 29  1  0
  9 30  1  0
 10 31  1  0
 11 32  1  0
 13 33  1  0
 18 34  1  0
 19 35  1  0
 20 36  1  0
M  END
>  <meeko>  (8) 
{"is_sidechain": [false], "free_energy": -7.126, "intermolecular_energy": -9.007, "internal_energy": -0.248}

$$$$
cand_005_out
     RDKit          3D

 36 38  0  0  0  0  0  0  0  0999 V2000
   19.2210  -23.1790   38.1250 C   0  0  0  0  0  0  0  0  0  0  0  0
   19.6110  -24.3270   37.5610 C   0  0  0  0  0  0  0  0  0  0  0  0
   19.5590  -25.6130   38.2680 C   0  0  0  0  0  0  0  0  0  0  0  0
   20.3530  -25.7860   39.4170 C   0  0  0  0  0  0  0  0  0  0  0  0
   20.3640  -26.9960   40.1280 C   0  0  0  0  0  0  0  0  0  0  0  0
   21.1930  -27.1260   41.3440 C   0  0  0  0  0  0  0  0  0  0  0  0
   22.1450  -28.1340   41.2450 O   0  0  0  0  0  0  0  0  0  0  0  0
   22.9820  -28.3620   42.3080 C   0  0  0  0  0  0  0  0  0  0  0  0
   23.9310  -29.3750   42.1610 C   0  0  0  0  0  0  0  0  0  0  0  0
   24.8120  -29.6600   43.2050 C   0  0  0  0  0  0  0  0  0  0  0  0
   24.7460  -28.9330   44.3960 C   0  0  0  0  0  0  0  0  0  0  0  0
   23.7970  -27.9240   44.5400 C   0  0  0  0  0  0  0  0  0  0  0  0
   23.7870  -27.2530   45.7320 O   0  0  0  0  0  0  0  0  0  0  0  0
   22.9160  -27.6390   43.4940 C   0  0  0  0  0  0  0  0  0  0  0  0
   21.9050  -26.5860   43.6050 C   0  0  0  0  0  0  0  0  0  0  0  0
   21.7780  -25.9070   44.6220 O   0  0  0  0  0  0  0  0  0  0  0  0
   21.0230  -26.3590   42.4360 C   0  0  0  0  0  0  0  0  0  0  0  0
   20.0610  -25.3720   42.5560 O   0  0  0  0  0  0  0  0  0  0  0  0
   19.5490  -28.0380   39.6760 C   0  0  0  0  0  0  0  0  0  0  0  0
   18.7590  -27.8820   38.5340 C   0  0  0  0  0  0  0  0  0  0  0  0
   18.7550  -26.6740   37.8140 C   0  0  0  0  0  0  0  0  0  0  0  0
   17.8800  -26.5380   36.5900 C   0  0  0  0  0  0  0  0  0  0  0  0
   18.5910  -26.4220   35.4350 F   0  0  0  0  0  0  0  0  0  0  0  0
   17.0690  -25.4400   36.6280 F   0  0  0  0  0  0  0  0  0  0  0  0
   17.0390  -27.5970   36.4150 F   0  0  0  0  0  0  0  0  0  0  0  0
   19.2782  -22.2394   37.5559 H   0  0  0  0  0  0  0  0  0  0  0  0
   18.8430  -23.1743   39.1580 H   0  0  0  0  0  0  0  0  0  0  0  0
   19.9855  -24.3073   36.5269 H   0  0  0  0  0  0  0  0  0  0  0  0
   20.9802  -24.9526   39.7663 H   0  0  0  0  0  0  0  0  0  0  0  0
   23.9843  -29.9479   41.2235 H   0  0  0  0  0  0  0  0  0  0  0  0
   25.5597  -30.4585   43.0899 H   0  0  0  0  0  0  0  0  0  0  0  0
   25.4418  -29.1569   45.2180 H   0  0  0  0  0  0  0  0  0  0  0  0
   24.5750  -27.1730   46.2320 H   0  0  0  0  0  0  0  0  0  0  0  0
   20.1020  -24.6090   42.0130 H   0  0  0  0  0  0  0  0  0  0  0  0
   19.5294  -28.9909   40.2252 H   0  0  0  0  0  0  0  0  0  0  0  0
   18.1301  -28.7175   38.1927 H   0  0  0  0  0  0  0  0  0  0  0  0
  1  2  2  0
  2  3  1  0
  3  4  2  0
  4  5  1  0
  5  6  1  0
  6  7  1  0
  7  8  1  0
  8  9  2  0
  9 10  1  0
 10 11  2  0
 11 12  1  0
 12 13  1  0
 12 14  2  0
 14 15  1  0
 15 16  2  0
 15 17  1  0
 17 18  1  0
  5 19  2  0
 19 20  1  0
 20 21  2  0
 21 22  1  0
 22 23  1  0
 22 24  1  0
 22 25  1  0
 21  3  1  0
 17  6  2  0
 14  8  1  0
  1 26  1  0
  1 27  1  0
  2 28  1  0
  4 29  1  0
  9 30  1  0
 10 31  1  0
 11 32  1  0
 13 33  1  0
 18 34  1  0
 19 35  1  0
 20 36  1  0
M  END
>  <meeko>  (9) 
{"is_sidechain": [false], "free_energy": -7.094, "intermolecular_energy": -8.761, "internal_energy": -0.454}

$$$$
