cand_041_out
     RDKit          3D

 47 49  0  0  0  0  0  0  0  0999 V2000
   18.9220  -24.9300   40.7780 C   0  0  0  0  0  0  0  0  0  0  0  0
   19.0430  -26.3170   40.2070 C   0  0  0  0  0  0  0  0  0  0  0  0
   18.2010  -26.6920   39.1490 C   0  0  0  0  0  0  0  0  0  0  0  0
   18.2810  -27.9670   38.5850 C   0  0  0  0  0  0  0  0  0  0  0  0
   19.2020  -28.9040   39.0610 C   0  0  0  0  0  0  0  0  0  0  0  0
   19.2850  -30.2410   38.4360 C   0  0  0  0  0  0  0  0  0  0  0  0
   18.9060  -31.2660   39.2950 O   0  0  0  0  0  0  0  0  0  0  0  0
   18.9360  -32.5590   38.8420 C   0  0  0  0  0  0  0  0  0  0  0  0
   18.5320  -33.5530   39.7340 C   0  0  0  0  0  0  0  0  0  0  0  0
   18.5410  -34.8920   39.3350 C   0  0  0  0  0  0  0  0  0  0  0  0
   18.9550  -35.2360   38.0470 C   0  0  0  0  0  0  0  0  0  0  0  0
   19.3580  -34.2420   37.1590 C   0  0  0  0  0  0  0  0  0  0  0  0
   19.7510  -34.6490   35.9130 O   0  0  0  0  0  0  0  0  0  0  0  0
   19.3480  -32.9030   37.5580 C   0  0  0  0  0  0  0  0  0  0  0  0
   19.7630  -31.8270   36.6560 C   0  0  0  0  0  0  0  0  0  0  0  0
   20.1460  -32.0500   35.5090 O   0  0  0  0  0  0  0  0  0  0  0  0
   19.7080  -30.4400   37.1730 C   0  0  0  0  0  0  0  0  0  0  0  0
   20.1150  -29.4340   36.3160 O   0  0  0  0  0  0  0  0  0  0  0  0
   20.0580  -28.5230   40.1040 C   0  0  0  0  0  0  0  0  0  0  0  0
   19.9940  -27.2410   40.6850 C   0  0  0  0  0  0  0  0  0  0  0  0
   20.9350  -26.9230   41.8290 C   0  0  0  0  0  0  0  0  0  0  0  0
   22.3130  -27.5800   41.6280 C   0  0  0  0  0  0  0  0  0  0  0  0
   23.1780  -27.5050   42.8230 N   0  0  0  0  0  0  0  0  0  0  0  0
   23.9090  -28.7540   43.0470 C   0  0  0  0  0  0  0  0  0  0  0  0
   22.3670  -27.1910   44.0030 C   0  0  0  0  0  0  0  0  0  0  0  0
   18.9267  -24.9841   41.8767 H   0  0  0  0  0  0  0  0  0  0  0  0
   19.7702  -24.3180   40.4374 H   0  0  0  0  0  0  0  0  0  0  0  0
   17.9807  -24.4741   40.4374 H   0  0  0  0  0  0  0  0  0  0  0  0
   17.4675  -25.9714   38.7583 H   0  0  0  0  0  0  0  0  0  0  0  0
   17.6107  -28.2371   37.7557 H   0  0  0  0  0  0  0  0  0  0  0  0
   18.2070  -33.2829   40.7496 H   0  0  0  0  0  0  0  0  0  0  0  0
   18.2214  -35.6763   40.0369 H   0  0  0  0  0  0  0  0  0  0  0  0
   18.9629  -36.2905   37.7341 H   0  0  0  0  0  0  0  0  0  0  0  0
   19.3050  -34.3290   35.1540 H   0  0  0  0  0  0  0  0  0  0  0  0
   20.6120  -29.6430   35.5500 H   0  0  0  0  0  0  0  0  0  0  0  0
   20.7993  -29.2442   40.4787 H   0  0  0  0  0  0  0  0  0  0  0  0
   21.0651  -25.8325   41.8918 H   0  0  0  0  0  0  0  0  0  0  0  0
   20.4962  -27.3200   42.7563 H   0  0  0  0  0  0  0  0  0  0  0  0
   22.1606  -28.6393   41.3737 H   0  0  0  0  0  0  0  0  0  0  0  0
   22.8217  -27.0286   40.8235 H   0  0  0  0  0  0  0  0  0  0  0  0
   23.8640  -26.7660   42.6630 H   0  0  0  0  0  0  0  0  0  0  0  0
   24.0119  -28.9298   44.1280 H   0  0  0  0  0  0  0  0  0  0  0  0
   23.3570  -29.5889   42.5906 H   0  0  0  0  0  0  0  0  0  0  0  0
   24.9072  -28.6815   42.5906 H   0  0  0  0  0  0  0  0  0  0  0  0
   22.9427  -27.4139   44.9134 H   0  0  0  0  0  0  0  0  0  0  0  0
   22.0992  -26.1242   43.9905 H   0  0  0  0  0  0  0  0  0  0  0  0
   21.4506  -27.7993   43.9905 H   0  0  0  0  0  0  0  0  0  0  0  0
  1  2  1  0
  2  3  2  0
  3  4  1  0
  4  5  2  0
  5  6  1  0
  6  7  1  0
  7  8  1  0
  8  9  2  0
  9 10  1  0
 10 11  2  0
 11 12  1  0
 12 13  1  0
 12 14  2  0
 14 15  1  0
 15 16  2  0
 15 17  1  0
 17 18  1  0
  5 19  1  0
 19 20  2  0
 20 21  1  0
 21 22  1  0
 22 23  1  0
 23 24  1  0
 23 25  1  0
 20  2  1  0
 17  6  2  0
 14  8  1  0
  1 26  1  0
  1 27  1  0
  1 28  1  0
  3 29  1  0
  4 30  1  0
  9 31  1  0
 10 32  1  0
 11 33  1  0
 13 34  1  0
 18 35  1  0
 19 36  1  0
 21 37  1  0
 21 38  1  0
 22 39  1  0
 22 40  1  0
 23 41  1  0
 24 42  1  0
 24 43  1  0
 24 44  1  0
 25 45  1  0
 25 46  1  0
 25 47  1  0
M  CHG  1  23   1
M  END
>  <meeko>  (1) 
{"is_sidechain": [false], "free_energy": -8.206, "intermolecular_energy": -10.605, "internal_energy": -0.456}

$$$$
cand_041_out
     RDKit          3D

 47 49  0  0  0  0  0  0  0  0999 V2000
   19.6750  -25.0070   42.7490 C   0  0  0  0  0  0  0  0  0  0  0  0
   19.6900  -26.1430   41.7640 C   0  0  0  0  0  0  0  0  0  0  0  0
   18.7290  -26.1710   40.7420 C   0  0  0  0  0  0  0  0  0  0  0  0
   18.7080  -27.2040   39.8030 C   0  0  0  0  0  0  0  0  0  0  0  0
   19.6430  -28.2410   39.8590 C   0  0  0  0  0  0  0  0  0  0  0  0
   19.6160  -29.3140   38.8420 C   0  0  0  0  0  0  0  0  0  0  0  0
   19.4530  -30.5790   39.3950 O   0  0  0  0  0  0  0  0  0  0  0  0
   19.4120  -31.6680   38.5620 C   0  0  0  0  0  0  0  0  0  0  0  0
   19.2310  -32.9160   39.1580 C   0  0  0  0  0  0  0  0  0  0  0  0
   19.1810  -34.0660   38.3670 C   0  0  0  0  0  0  0  0  0  0  0  0
   19.3130  -33.9670   36.9800 C   0  0  0  0  0  0  0  0  0  0  0  0
   19.4930  -32.7210   36.3870 C   0  0  0  0  0  0  0  0  0  0  0  0
   19.6160  -32.6960   35.0250 O   0  0  0  0  0  0  0  0  0  0  0  0
   19.5420  -31.5700   37.1800 C   0  0  0  0  0  0  0  0  0  0  0  0
   19.7310  -30.2410   36.5970 C   0  0  0  0  0  0  0  0  0  0  0  0
   19.8610  -30.0720   35.3860 O   0  0  0  0  0  0  0  0  0  0  0  0
   19.7600  -29.0840   37.5230 C   0  0  0  0  0  0  0  0  0  0  0  0
   19.9510  -27.8350   36.9620 O   0  0  0  0  0  0  0  0  0  0  0  0
   20.6160  -28.2040   40.8670 C   0  0  0  0  0  0  0  0  0  0  0  0
   20.6550  -27.1690   41.8220 C   0  0  0  0  0  0  0  0  0  0  0  0
   21.7220  -27.2240   42.8980 C   0  0  0  0  0  0  0  0  0  0  0  0
   23.0540  -27.7630   42.3460 C   0  0  0  0  0  0  0  0  0  0  0  0
   23.9310  -28.3330   43.3880 N   0  0  0  0  0  0  0  0  0  0  0  0
   24.3500  -29.6990   43.0630 C   0  0  0  0  0  0  0  0  0  0  0  0
   23.2370  -28.3270   44.6800 C   0  0  0  0  0  0  0  0  0  0  0  0
   19.6803  -25.4093   43.7728 H   0  0  0  0  0  0  0  0  0  0  0  0
   20.5649  -24.3785   42.5974 H   0  0  0  0  0  0  0  0  0  0  0  0
   18.7688  -24.4022   42.5974 H   0  0  0  0  0  0  0  0  0  0  0  0
   17.9809  -25.3670   40.6797 H   0  0  0  0  0  0  0  0  0  0  0  0
   17.9462  -27.2015   39.0095 H   0  0  0  0  0  0  0  0  0  0  0  0
   19.1277  -32.9944   40.2503 H   0  0  0  0  0  0  0  0  0  0  0  0
   19.0376  -35.0503   38.8366 H   0  0  0  0  0  0  0  0  0  0  0  0
   19.2747  -34.8729   36.3572 H   0  0  0  0  0  0  0  0  0  0  0  0
   19.4800  -33.4780   34.5280 H   0  0  0  0  0  0  0  0  0  0  0  0
   20.7550  -27.3760   37.1030 H   0  0  0  0  0  0  0  0  0  0  0  0
   21.3692  -29.0043   40.9137 H   0  0  0  0  0  0  0  0  0  0  0  0
   21.8832  -26.2103   43.2934 H   0  0  0  0  0  0  0  0  0  0  0  0
   21.3771  -27.9039   43.6910 H   0  0  0  0  0  0  0  0  0  0  0  0
   22.8336  -28.5480   41.6076 H   0  0  0  0  0  0  0  0  0  0  0  0
   23.5895  -26.9121   41.8997 H   0  0  0  0  0  0  0  0  0  0  0  0
   24.7700  -27.7540   43.4390 H   0  0  0  0  0  0  0  0  0  0  0  0
   24.5223  -30.2607   43.9929 H   0  0  0  0  0  0  0  0  0  0  0  0
   23.5625  -30.1942   42.4760 H   0  0  0  0  0  0  0  0  0  0  0  0
   25.2798  -29.6675   42.4760 H   0  0  0  0  0  0  0  0  0  0  0  0
   23.9771  -28.3334   45.4938 H   0  0  0  0  0  0  0  0  0  0  0  0
   22.6145  -27.4234   44.7576 H   0  0  0  0  0  0  0  0  0  0  0  0
   22.5989  -29.2197   44.7576 H   0  0  0  0  0  0  0  0  0  0  0  0
  1  2  1  0
  2  3  2  0
  3  4  1  0
  4  5  2  0
  5  6  1  0
  6  7  1  0
  7  8  1  0
  8  9  2  0
  9 10  1  0
 10 11  2  0
 11 12  1  0
 12 13  1  0
 12 14  2  0
 14 15  1  0
 15 16  2  0
 15 17  1  0
 17 18  1  0
  5 19  1  0
 19 20  2  0
 20 21  1  0
 21 22  1  0
 22 23  1  0
 23 24  1  0
 23 25  1  0
 20  2  1  0
 17  6  2  0
 14  8  1  0
  1 26  1  0
  1 27  1  0
  1 28  1  0
  3 29  1  0
  4 30  1  0
  9 31  1  0
 10 32  1  0
 11 33  1  0
 13 34  1  0
 18 35  1  0
 19 36  1  0
 21 37  1  0
 21 38  1  0
 22 39  1  0
 22 40  1  0
 23 41  1  0
 24 42  1  0
 24 43  1  0
 24 44  1  0
 25 45  1  0
 25 46  1  0
 25 47  1  0
M  CHG  1  23   1
M  END
>  <meeko>  (2) 
{"is_sidechain": [false], "free_energy": -7.72, "intermolecular_energy": -10.013, "internal_energy": -0.419}

$$$$
cand_041_out
     RDKit          3D

 47 49  0  0  0  0  0  0  0  0999 V2000
   20.3840  -32.1830   33.5540 C   0  0  0  0  0  0  0  0  0  0  0  0
   20.1350  -31.2450   34.7030 C   0  0  0  0  0  0  0  0  0  0  0  0
   20.2400  -29.8630   34.4890 C   0  0  0  0  0  0  0  0  0  0  0  0
   20.0130  -28.9540   35.5250 C   0  0  0  0  0  0  0  0  0  0  0  0
   19.6770  -29.4010   36.8070 C   0  0  0  0  0  0  0  0  0  0  0  0
   19.4200  -28.4220   37.8850 C   0  0  0  0  0  0  0  0  0  0  0  0
   20.2440  -28.6050   38.9890 O   0  0  0  0  0  0  0  0  0  0  0  0
   20.1100  -27.7640   40.0640 C   0  0  0  0  0  0  0  0  0  0  0  0
   20.9690  -27.9730   41.1430 C   0  0  0  0  0  0  0  0  0  0  0  0
   20.8840  -27.1530   42.2710 C   0  0  0  0  0  0  0  0  0  0  0  0
   19.9410  -26.1250   42.3180 C   0  0  0  0  0  0  0  0  0  0  0  0
   19.0860  -25.9170   41.2400 C   0  0  0  0  0  0  0  0  0  0  0  0
   18.1860  -24.8930   41.3530 O   0  0  0  0  0  0  0  0  0  0  0  0
   19.1710  -26.7380   40.1120 C   0  0  0  0  0  0  0  0  0  0  0  0
   18.2910  -26.5540   38.9570 C   0  0  0  0  0  0  0  0  0  0  0  0
   17.4320  -25.6760   38.9250 O   0  0  0  0  0  0  0  0  0  0  0  0
   18.4680  -27.4720   37.8070 C   0  0  0  0  0  0  0  0  0  0  0  0
   17.6230  -27.2970   36.7270 O   0  0  0  0  0  0  0  0  0  0  0  0
   19.5510  -30.7810   37.0170 C   0  0  0  0  0  0  0  0  0  0  0  0
   19.7740  -31.7120   35.9830 C   0  0  0  0  0  0  0  0  0  0  0  0
   19.6480  -33.1870   36.3070 C   0  0  0  0  0  0  0  0  0  0  0  0
   18.5570  -33.4440   37.3620 C   0  0  0  0  0  0  0  0  0  0  0  0
   19.0760  -34.0480   38.6060 N   0  0  0  0  0  0  0  0  0  0  0  0
   18.4920  -35.3670   38.8570 C   0  0  0  0  0  0  0  0  0  0  0  0
   18.7970  -33.1630   39.7410 C   0  0  0  0  0  0  0  0  0  0  0  0
   20.6480  -33.1774   33.9431 H   0  0  0  0  0  0  0  0  0  0  0  0
   19.4750  -32.2592   32.9393 H   0  0  0  0  0  0  0  0  0  0  0  0
   21.2111  -31.7984   32.9393 H   0  0  0  0  0  0  0  0  0  0  0  0
   20.5054  -29.4888   33.4892 H   0  0  0  0  0  0  0  0  0  0  0  0
   20.0994  -27.8748   35.3305 H   0  0  0  0  0  0  0  0  0  0  0  0
   21.7126  -28.7827   41.1058 H   0  0  0  0  0  0  0  0  0  0  0  0
   21.5606  -27.3176   43.1225 H   0  0  0  0  0  0  0  0  0  0  0  0
   19.8738  -25.4798   43.2064 H   0  0  0  0  0  0  0  0  0  0  0  0
   17.9190  -24.5950   42.1990 H   0  0  0  0  0  0  0  0  0  0  0  0
   17.1820  -26.4800   36.6050 H   0  0  0  0  0  0  0  0  0  0  0  0
   19.2705  -31.1471   38.0157 H   0  0  0  0  0  0  0  0  0  0  0  0
   19.3915  -33.7338   35.3877 H   0  0  0  0  0  0  0  0  0  0  0  0
   20.6093  -33.5331   36.7146 H   0  0  0  0  0  0  0  0  0  0  0  0
   18.0808  -32.4845   37.6123 H   0  0  0  0  0  0  0  0  0  0  0  0
   17.8448  -34.1597   36.9256 H   0  0  0  0  0  0  0  0  0  0  0  0
   20.0830  -34.1680   38.4950 H   0  0  0  0  0  0  0  0  0  0  0  0
   18.4177  -35.5347   39.9416 H   0  0  0  0  0  0  0  0  0  0  0  0
   17.4885  -35.4150   38.4090 H   0  0  0  0  0  0  0  0  0  0  0  0
   19.1310  -36.1422   38.4090 H   0  0  0  0  0  0  0  0  0  0  0  0
   18.9686  -33.7074   40.6813 H   0  0  0  0  0  0  0  0  0  0  0  0
   19.4631  -32.2887   39.6967 H   0  0  0  0  0  0  0  0  0  0  0  0
   17.7499  -32.8288   39.6967 H   0  0  0  0  0  0  0  0  0  0  0  0
  1  2  1  0
  2  3  2  0
  3  4  1  0
  4  5  2  0
  5  6  1  0
  6  7  1  0
  7  8  1  0
  8  9  2  0
  9 10  1  0
 10 11  2  0
 11 12  1  0
 12 13  1  0
 12 14  2  0
 14 15  1  0
 15 16  2  0
 15 17  1  0
 17 18  1  0
  5 19  1  0
 19 20  2  0
 20 21  1  0
 21 22  1  0
 22 23  1  0
 23 24  1  0
 23 25  1  0
 20  2  1  0
 17  6  2  0
 14  8  1  0
  1 26  1  0
  1 27  1  0
  1 28  1  0
  3 29  1  0
  4 30  1  0
  9 31  1  0
 10 32  1  0
 11 33  1  0
 13 34  1  0
 18 35  1  0
 19 36  1  0
 21 37  1  0
 21 38  1  0
 22 39  1  0
 22 40  1  0
 23 41  1  0
 24 42  1  0
 24 43  1  0
 24 44  1  0
 25 45  1  0
 25 46  1  0
 25 47  1  0
M  CHG  1  23   1
M  END
>  <meeko>  (3) 
{"is_sidechain": [false], "free_energy": -7.569, "intermolecular_energy": -9.784, "internal_energy": -0.454}

$$$$
cand_041_out
     RDKit          3D

 47 49  0  0  0  0  0  0  0  0999 V2000
   18.9550  -25.1900   41.5950 C   0  0  0  0  0  0  0  0  0  0  0  0
   19.1420  -26.3880   40.7050 C   0  0  0  0  0  0  0  0  0  0  0  0
   18.2940  -26.5520   39.5990 C   0  0  0  0  0  0  0  0  0  0  0  0
   18.4330  -27.6460   38.7420 C   0  0  0  0  0  0  0  0  0  0  0  0
   19.4220  -28.6100   38.9670 C   0  0  0  0  0  0  0  0  0  0  0  0
   19.5660  -29.7490   38.0360 C   0  0  0  0  0  0  0  0  0  0  0  0
   19.8620  -29.3530   36.7370 O   0  0  0  0  0  0  0  0  0  0  0  0
   20.0220  -30.3130   35.7700 C   0  0  0  0  0  0  0  0  0  0  0  0
   20.3340  -29.8700   34.4840 C   0  0  0  0  0  0  0  0  0  0  0  0
   20.5080  -30.7960   33.4530 C   0  0  0  0  0  0  0  0  0  0  0  0
   20.3690  -32.1620   33.7080 C   0  0  0  0  0  0  0  0  0  0  0  0
   20.0590  -32.6000   34.9910 C   0  0  0  0  0  0  0  0  0  0  0  0
   19.9370  -33.9510   35.1710 O   0  0  0  0  0  0  0  0  0  0  0  0
   19.8850  -31.6740   36.0230 C   0  0  0  0  0  0  0  0  0  0  0  0
   19.5570  -32.0920   37.3870 C   0  0  0  0  0  0  0  0  0  0  0  0
   19.4120  -33.2750   37.6890 O   0  0  0  0  0  0  0  0  0  0  0  0
   19.4020  -31.0330   38.4110 C   0  0  0  0  0  0  0  0  0  0  0  0
   19.0790  -31.4390   39.6920 O   0  0  0  0  0  0  0  0  0  0  0  0
   20.2820  -28.4360   40.0600 C   0  0  0  0  0  0  0  0  0  0  0  0
   20.1580  -27.3370   40.9330 C   0  0  0  0  0  0  0  0  0  0  0  0
   21.1110  -27.2440   42.1080 C   0  0  0  0  0  0  0  0  0  0  0  0
   22.5290  -27.7020   41.7250 C   0  0  0  0  0  0  0  0  0  0  0  0
   23.4340  -27.8410   42.8840 N   0  0  0  0  0  0  0  0  0  0  0  0
   24.0780  -29.1560   42.9200 C   0  0  0  0  0  0  0  0  0  0  0  0
   22.6850  -27.6270   44.1260 C   0  0  0  0  0  0  0  0  0  0  0  0
   19.0041  -25.5043   42.6480 H   0  0  0  0  0  0  0  0  0  0  0  0
   19.7495  -24.4563   41.3939 H   0  0  0  0  0  0  0  0  0  0  0  0
   17.9747  -24.7333   41.3939 H   0  0  0  0  0  0  0  0  0  0  0  0
   17.5079  -25.8076   39.4041 H   0  0  0  0  0  0  0  0  0  0  0  0
   17.7573  -27.7510   37.8804 H   0  0  0  0  0  0  0  0  0  0  0  0
   20.4426  -28.7940   34.2828 H   0  0  0  0  0  0  0  0  0  0  0  0
   20.7548  -30.4489   32.4388 H   0  0  0  0  0  0  0  0  0  0  0  0
   20.5045  -32.8906   32.8951 H   0  0  0  0  0  0  0  0  0  0  0  0
   19.1150  -34.3720   35.0140 H   0  0  0  0  0  0  0  0  0  0  0  0
   19.4780  -32.2050   40.0550 H   0  0  0  0  0  0  0  0  0  0  0  0
   21.0746  -29.1769   40.2410 H   0  0  0  0  0  0  0  0  0  0  0  0
   21.1537  -26.1998   42.4512 H   0  0  0  0  0  0  0  0  0  0  0  0
   20.7397  -27.9048   42.9052 H   0  0  0  0  0  0  0  0  0  0  0  0
   22.4562  -28.6769   41.2207 H   0  0  0  0  0  0  0  0  0  0  0  0
   22.9552  -26.9265   41.0716 H   0  0  0  0  0  0  0  0  0  0  0  0
   24.1670  -27.1370   42.7920 H   0  0  0  0  0  0  0  0  0  0  0  0
   24.2280  -29.4623   43.9658 H   0  0  0  0  0  0  0  0  0  0  0  0
   23.4382  -29.8917   42.4106 H   0  0  0  0  0  0  0  0  0  0  0  0
   25.0514  -29.1016   42.4106 H   0  0  0  0  0  0  0  0  0  0  0  0
   23.3425  -27.8148   44.9877 H   0  0  0  0  0  0  0  0  0  0  0  0
   22.3220  -26.5892   44.1611 H   0  0  0  0  0  0  0  0  0  0  0  0
   21.8285  -28.3164   44.1611 H   0  0  0  0  0  0  0  0  0  0  0  0
  1  2  1  0
  2  3  2  0
  3  4  1  0
  4  5  2  0
  5  6  1  0
  6  7  1  0
  7  8  1  0
  8  9  2  0
  9 10  1  0
 10 11  2  0
 11 12  1  0
 12 13  1  0
 12 14  2  0
 14 15  1  0
 15 16  2  0
 15 17  1  0
 17 18  1  0
  5 19  1  0
 19 20  2  0
 20 21  1  0
 21 22  1  0
 22 23  1  0
 23 24  1  0
 23 25  1  0
 20  2  1  0
 17  6  2  0
 14  8  1  0
  1 26  1  0
  1 27  1  0
  1 28  1  0
  3 29  1  0
  4 30  1  0
  9 31  1  0
 10 32  1  0
 11 33  1  0
 13 34  1  0
 18 35  1  0
 19 36  1  0
 21 37  1  0
 21 38  1  0
 22 39  1  0
 22 40  1  0
 23 41  1  0
 24 42  1  0
 24 43  1  0
 24 44  1  0
 25 45  1  0
 25 46  1  0
 25 47  1  0
M  CHG  1  23   1
M  END
>  <meeko>  (4) 
{"is_sidechain": [false], "free_energy": -7.406, "intermolecular_energy": -9.576, "internal_energy": -0.451}

$$$$
cand_041_out
     RDKit          3D

 47 49  0  0  0  0  0  0  0  0999 V2000
   18.8840  -35.4540   38.5420 C   0  0  0  0  0  0  0  0  0  0  0  0
   19.0460  -33.9600   38.4880 C   0  0  0  0  0  0  0  0  0  0  0  0
   18.9410  -33.2210   39.6750 C   0  0  0  0  0  0  0  0  0  0  0  0
   19.0890  -31.8320   39.6740 C   0  0  0  0  0  0  0  0  0  0  0  0
   19.3420  -31.1410   38.4850 C   0  0  0  0  0  0  0  0  0  0  0  0
   19.5160  -29.6730   38.5080 C   0  0  0  0  0  0  0  0  0  0  0  0
   19.6270  -29.1610   39.7950 O   0  0  0  0  0  0  0  0  0  0  0  0
   19.7920  -27.8100   39.9610 C   0  0  0  0  0  0  0  0  0  0  0  0
   19.9140  -27.3420   41.2700 C   0  0  0  0  0  0  0  0  0  0  0  0
   20.0830  -25.9760   41.5080 C   0  0  0  0  0  0  0  0  0  0  0  0
   20.1270  -25.0790   40.4390 C   0  0  0  0  0  0  0  0  0  0  0  0
   20.0050  -25.5480   39.1340 C   0  0  0  0  0  0  0  0  0  0  0  0
   20.0570  -24.6160   38.1350 O   0  0  0  0  0  0  0  0  0  0  0  0
   19.8370  -26.9150   38.8960 C   0  0  0  0  0  0  0  0  0  0  0  0
   19.7040  -27.4500   37.5400 C   0  0  0  0  0  0  0  0  0  0  0  0
   19.7270  -26.7250   36.5480 O   0  0  0  0  0  0  0  0  0  0  0  0
   19.5390  -28.9150   37.3940 C   0  0  0  0  0  0  0  0  0  0  0  0
   19.4020  -29.4080   36.1090 O   0  0  0  0  0  0  0  0  0  0  0  0
   19.4670  -31.8810   37.3010 C   0  0  0  0  0  0  0  0  0  0  0  0
   19.3240  -33.2820   37.2830 C   0  0  0  0  0  0  0  0  0  0  0  0
   19.4430  -33.9990   35.9530 C   0  0  0  0  0  0  0  0  0  0  0  0
   19.8000  -33.0270   34.8160 C   0  0  0  0  0  0  0  0  0  0  0  0
   20.6060  -33.6480   33.7450 N   0  0  0  0  0  0  0  0  0  0  0  0
   20.2700  -33.1090   32.4250 C   0  0  0  0  0  0  0  0  0  0  0  0
   20.4030  -35.1000   33.7500 C   0  0  0  0  0  0  0  0  0  0  0  0
   18.8485  -35.7813   39.5916 H   0  0  0  0  0  0  0  0  0  0  0  0
   17.9496  -35.7400   38.0370 H   0  0  0  0  0  0  0  0  0  0  0  0
   19.7354  -35.9336   38.0370 H   0  0  0  0  0  0  0  0  0  0  0  0
   18.7389  -33.7432   40.6218 H   0  0  0  0  0  0  0  0  0  0  0  0
   19.0056  -31.2755   40.6192 H   0  0  0  0  0  0  0  0  0  0  0  0
   19.8771  -28.0477   42.1130 H   0  0  0  0  0  0  0  0  0  0  0  0
   20.1816  -25.6064   42.5393 H   0  0  0  0  0  0  0  0  0  0  0  0
   20.2579  -24.0032   40.6277 H   0  0  0  0  0  0  0  0  0  0  0  0
   19.4790  -24.6830   37.4010 H   0  0  0  0  0  0  0  0  0  0  0  0
   19.7330  -28.9190   35.3830 H   0  0  0  0  0  0  0  0  0  0  0  0
   19.6826  -31.3531   36.3604 H   0  0  0  0  0  0  0  0  0  0  0  0
   20.2298  -34.7640   36.0290 H   0  0  0  0  0  0  0  0  0  0  0  0
   18.4704  -34.4576   35.7210 H   0  0  0  0  0  0  0  0  0  0  0  0
   18.8662  -32.6484   34.3748 H   0  0  0  0  0  0  0  0  0  0  0  0
   20.4082  -32.2225   35.2553 H   0  0  0  0  0  0  0  0  0  0  0  0
   21.5870  -33.4310   33.9300 H   0  0  0  0  0  0  0  0  0  0  0  0
   19.6915  -32.1810   32.5443 H   0  0  0  0  0  0  0  0  0  0  0  0
   21.1953  -32.8955   31.8698 H   0  0  0  0  0  0  0  0  0  0  0  0
   19.6709  -33.8457   31.8698 H   0  0  0  0  0  0  0  0  0  0  0  0
   20.3527  -35.4596   34.7883 H   0  0  0  0  0  0  0  0  0  0  0  0
   19.4625  -35.3405   33.2327 H   0  0  0  0  0  0  0  0  0  0  0  0
   21.2415  -35.5892   33.2327 H   0  0  0  0  0  0  0  0  0  0  0  0
  1  2  1  0
  2  3  2  0
  3  4  1  0
  4  5  2  0
  5  6  1  0
  6  7  1  0
  7  8  1  0
  8  9  2  0
  9 10  1  0
 10 11  2  0
 11 12  1  0
 12 13  1  0
 12 14  2  0
 14 15  1  0
 15 16  2  0
 15 17  1  0
 17 18  1  0
  5 19  1  0
 19 20  2  0
 20 21  1  0
 21 22  1  0
 22 23  1  0
 23 24  1  0
 23 25  1  0
 20  2  1  0
 17  6  2  0
 14  8  1  0
  1 26  1  0
  1 27  1  0
  1 28  1  0
  3 29  1  0
  4 30  1  0
  9 31  1  0
 10 32  1  0
 11 33  1  0
 13 34  1  0
 18 35  1  0
 19 36  1  0
 21 37  1  0
 21 38  1  0
 22 39  1  0
 22 40  1  0
 23 41  1  0
 24 42  1  0
 24 43  1  0
 24 44  1  0
 25 45  1  0
 25 46  1  0
 25 47  1  0
M  CHG  1  23   1
M  END
>  <meeko>  (5) 
{"is_sidechain": [false], "free_energy": -7.331, "intermolecular_energy": -9.955, "internal_energy": 0.024}

$$$$
cand_041_out
     RDKit          3D

 47 49  0  0  0  0  0  0  0  0999 V2000
   19.9550  -25.1170   43.7520 C   0  0  0  0  0  0  0  0  0  0  0  0
   19.9320  -25.7800   42.4020 C   0  0  0  0  0  0  0  0  0  0  0  0
   19.0040  -25.3430   41.4450 C   0  0  0  0  0  0  0  0  0  0  0  0
   18.9490  -25.9270   40.1780 C   0  0  0  0  0  0  0  0  0  0  0  0
   19.8190  -26.9650   39.8300 C   0  0  0  0  0  0  0  0  0  0  0  0
   19.7590  -27.5550   38.4760 C   0  0  0  0  0  0  0  0  0  0  0  0
   19.8760  -28.9400   38.4830 O   0  0  0  0  0  0  0  0  0  0  0  0
   19.8370  -29.6160   37.2910 C   0  0  0  0  0  0  0  0  0  0  0  0
   19.9420  -31.0070   37.3470 C   0  0  0  0  0  0  0  0  0  0  0  0
   19.9120  -31.7560   36.1680 C   0  0  0  0  0  0  0  0  0  0  0  0
   19.7770  -31.1140   34.9350 C   0  0  0  0  0  0  0  0  0  0  0  0
   19.6720  -29.7280   34.8820 C   0  0  0  0  0  0  0  0  0  0  0  0
   19.5430  -29.1640   33.6420 O   0  0  0  0  0  0  0  0  0  0  0  0
   19.7020  -28.9790   36.0610 C   0  0  0  0  0  0  0  0  0  0  0  0
   19.5950  -27.5190   36.0500 C   0  0  0  0  0  0  0  0  0  0  0  0
   19.4800  -26.8820   35.0050 O   0  0  0  0  0  0  0  0  0  0  0  0
   19.6290  -26.8190   37.3560 C   0  0  0  0  0  0  0  0  0  0  0  0
   19.5400  -25.4390   37.3310 O   0  0  0  0  0  0  0  0  0  0  0  0
   20.7590  -27.3890   40.7790 C   0  0  0  0  0  0  0  0  0  0  0  0
   20.8310  -26.8110   42.0620 C   0  0  0  0  0  0  0  0  0  0  0  0
   21.8580  -27.3510   43.0360 C   0  0  0  0  0  0  0  0  0  0  0  0
   23.0290  -28.0320   42.3050 C   0  0  0  0  0  0  0  0  0  0  0  0
   24.0310  -28.6150   43.2200 N   0  0  0  0  0  0  0  0  0  0  0  0
   24.4660  -29.9430   42.7790 C   0  0  0  0  0  0  0  0  0  0  0  0
   23.4760  -28.7040   44.5730 C   0  0  0  0  0  0  0  0  0  0  0  0
   19.9283  -25.8856   44.5385 H   0  0  0  0  0  0  0  0  0  0  0  0
   20.8743  -24.5214   43.8524 H   0  0  0  0  0  0  0  0  0  0  0  0
   19.0791  -24.4591   43.8524 H   0  0  0  0  0  0  0  0  0  0  0  0
   18.3093  -24.5281   41.6966 H   0  0  0  0  0  0  0  0  0  0  0  0
   18.2126  -25.5663   39.4448 H   0  0  0  0  0  0  0  0  0  0  0  0
   20.0482  -31.5126   38.3181 H   0  0  0  0  0  0  0  0  0  0  0  0
   19.9948  -32.8520   36.2109 H   0  0  0  0  0  0  0  0  0  0  0  0
   19.7537  -31.7038   34.0068 H   0  0  0  0  0  0  0  0  0  0  0  0
   20.1370  -29.3980   32.9570 H   0  0  0  0  0  0  0  0  0  0  0  0
   20.2160  -24.9330   36.9260 H   0  0  0  0  0  0  0  0  0  0  0  0
   21.4596  -28.1949   40.5151 H   0  0  0  0  0  0  0  0  0  0  0  0
   22.2495  -26.5190   43.6397 H   0  0  0  0  0  0  0  0  0  0  0  0
   21.3669  -28.1014   43.6729 H   0  0  0  0  0  0  0  0  0  0  0  0
   22.6250  -28.8359   41.6722 H   0  0  0  0  0  0  0  0  0  0  0  0
   23.5395  -27.2562   41.7155 H   0  0  0  0  0  0  0  0  0  0  0  0
   24.8470  -28.0020   43.2160 H   0  0  0  0  0  0  0  0  0  0  0  0
   24.6720  -30.5719   43.6577 H   0  0  0  0  0  0  0  0  0  0  0  0
   23.6727  -30.4066   42.1741 H   0  0  0  0  0  0  0  0  0  0  0  0
   25.3798  -29.8474   42.1741 H   0  0  0  0  0  0  0  0  0  0  0  0
   24.2828  -28.5746   45.3095 H   0  0  0  0  0  0  0  0  0  0  0  0
   22.7221  -27.9153   44.7127 H   0  0  0  0  0  0  0  0  0  0  0  0
   23.0065  -29.6889   44.7127 H   0  0  0  0  0  0  0  0  0  0  0  0
  1  2  1  0
  2  3  2  0
  3  4  1  0
  4  5  2  0
  5  6  1  0
  6  7  1  0
  7  8  1  0
  8  9  2  0
  9 10  1  0
 10 11  2  0
 11 12  1  0
 12 13  1  0
 12 14  2  0
 14 15  1  0
 15 16  2  0
 15 17  1  0
 17 18  1  0
  5 19  1  0
 19 20  2  0
 20 21  1  0
 21 22  1  0
 22 23  1  0
 23 24  1  0
 23 25  1  0
 20  2  1  0
 17  6  2  0
 14  8  1  0
  1 26  1  0
  1 27  1  0
  1 28  1  0
  3 29  1  0
  4 30  1  0
  9 31  1  0
 10 32  1  0
 11 33  1  0
 13 34  1  0
 18 35  1  0
 19 36  1  0
 21 37  1  0
 21 38  1  0
 22 39  1  0
 22 40  1  0
 23 41  1  0
 24 42  1  0
 24 43  1  0
 24 44  1  0
 25 45  1  0
 25 46  1  0
 25 47  1  0
M  CHG  1  23   1
M  END
>  <meeko>  (6) 
{"is_sidechain": [false], "free_energy": -7.273, "intermolecular_energy": -9.674, "internal_energy": -0.182}

$$$$
cand_041_out
     RDKit          3D

 47 49  0  0  0  0  0  0  0  0999 V2000
   19.3470  -24.7290   40.8690 C   0  0  0  0  0  0  0  0  0  0  0  0
   19.3410  -26.0730   40.1940 C   0  0  0  0  0  0  0  0  0  0  0  0
   20.0470  -27.1330   40.7810 C   0  0  0  0  0  0  0  0  0  0  0  0
   20.0660  -28.3990   40.1930 C   0  0  0  0  0  0  0  0  0  0  0  0
   19.3800  -28.6430   38.9980 C   0  0  0  0  0  0  0  0  0  0  0  0
   19.3950  -29.9960   38.4020 C   0  0  0  0  0  0  0  0  0  0  0  0
   18.9830  -30.9830   39.2900 O   0  0  0  0  0  0  0  0  0  0  0  0
   18.9490  -32.2860   38.8660 C   0  0  0  0  0  0  0  0  0  0  0  0
   18.5140  -33.2410   39.7850 C   0  0  0  0  0  0  0  0  0  0  0  0
   18.4580  -34.5880   39.4180 C   0  0  0  0  0  0  0  0  0  0  0  0
   18.8380  -34.9780   38.1320 C   0  0  0  0  0  0  0  0  0  0  0  0
   19.2720  -34.0230   37.2160 C   0  0  0  0  0  0  0  0  0  0  0  0
   19.6290  -34.4740   35.9750 O   0  0  0  0  0  0  0  0  0  0  0  0
   19.3270  -32.6760   37.5850 C   0  0  0  0  0  0  0  0  0  0  0  0
   19.7770  -31.6400   36.6530 C   0  0  0  0  0  0  0  0  0  0  0  0
   20.1330  -31.9050   35.5070 O   0  0  0  0  0  0  0  0  0  0  0  0
   19.7900  -30.2410   37.1390 C   0  0  0  0  0  0  0  0  0  0  0  0
   20.2290  -29.2730   36.2540 O   0  0  0  0  0  0  0  0  0  0  0  0
   18.6580  -27.5890   38.4210 C   0  0  0  0  0  0  0  0  0  0  0  0
   18.6260  -26.3060   39.0020 C   0  0  0  0  0  0  0  0  0  0  0  0
   17.8440  -25.2170   38.2940 C   0  0  0  0  0  0  0  0  0  0  0  0
   18.6580  -24.5920   37.1470 C   0  0  0  0  0  0  0  0  0  0  0  0
   18.3130  -23.1790   36.8870 N   0  0  0  0  0  0  0  0  0  0  0  0
   18.2210  -22.8940   35.4530 C   0  0  0  0  0  0  0  0  0  0  0  0
   19.3160  -22.3020   37.4990 C   0  0  0  0  0  0  0  0  0  0  0  0
   19.3464  -24.8668   41.9603 H   0  0  0  0  0  0  0  0  0  0  0  0
   20.2476  -24.1726   40.5702 H   0  0  0  0  0  0  0  0  0  0  0  0
   18.4514  -24.1646   40.5702 H   0  0  0  0  0  0  0  0  0  0  0  0
   20.5947  -26.9642   41.7199 H   0  0  0  0  0  0  0  0  0  0  0  0
   20.6265  -29.2139   40.6745 H   0  0  0  0  0  0  0  0  0  0  0  0
   18.2152  -32.9338   40.7981 H   0  0  0  0  0  0  0  0  0  0  0  0
   18.1145  -35.3414   40.1421 H   0  0  0  0  0  0  0  0  0  0  0  0
   18.7946  -36.0384   37.8429 H   0  0  0  0  0  0  0  0  0  0  0  0
   20.2980  -34.0320   35.4910 H   0  0  0  0  0  0  0  0  0  0  0  0
   20.7630  -29.5140   35.5230 H   0  0  0  0  0  0  0  0  0  0  0  0
   18.1014  -27.7686   37.4894 H   0  0  0  0  0  0  0  0  0  0  0  0
   16.9207  -25.6504   37.8821 H   0  0  0  0  0  0  0  0  0  0  0  0
   17.6144  -24.4270   39.0242 H   0  0  0  0  0  0  0  0  0  0  0  0
   19.7257  -24.6487   37.4055 H   0  0  0  0  0  0  0  0  0  0  0  0
   18.4216  -25.1581   36.2340 H   0  0  0  0  0  0  0  0  0  0  0  0
   17.3960  -23.0030   37.2990 H   0  0  0  0  0  0  0  0  0  0  0  0
   17.8861  -21.8566   35.3061 H   0  0  0  0  0  0  0  0  0  0  0  0
   19.2086  -23.0298   34.9881 H   0  0  0  0  0  0  0  0  0  0  0  0
   17.4992  -23.5816   34.9881 H   0  0  0  0  0  0  0  0  0  0  0  0
   19.2409  -22.3676   38.5945 H   0  0  0  0  0  0  0  0  0  0  0  0
   20.3210  -22.6163   37.1808 H   0  0  0  0  0  0  0  0  0  0  0  0
   19.1386  -21.2641   37.1808 H   0  0  0  0  0  0  0  0  0  0  0  0
  1  2  1  0
  2  3  2  0
  3  4  1  0
  4  5  2  0
  5  6  1  0
  6  7  1  0
  7  8  1  0
  8  9  2  0
  9 10  1  0
 10 11  2  0
 11 12  1  0
 12 13  1  0
 12 14  2  0
 14 15  1  0
 15 16  2  0
 15 17  1  0
 17 18  1  0
  5 19  1  0
 19 20  2  0
 20 21  1  0
 21 22  1  0
 22 23  1  0
 23 24  1  0
 23 25  1  0
 20  2  1  0
 17  6  2  0
 14  8  1  0
  1 26  1  0
  1 27  1  0
  1 28  1  0
  3 29  1  0
  4 30  1  0
  9 31  1  0
 10 32  1  0
 11 33  1  0
 13 34  1  0
 18 35  1  0
 19 36  1  0
 21 37  1  0
 21 38  1  0
 22 39  1  0
 22 40  1  0
 23 41  1  0
 24 42  1  0
 24 43  1  0
 24 44  1  0
 25 45  1  0
 25 46  1  0
 25 47  1  0
M  CHG  1  23   1
M  END
>  <meeko>  (7) 
{"is_sidechain": [false], "free_energy": -7.267, "intermolecular_energy": -9.471, "internal_energy": -0.376}

$$$$
cand_041_out
     RDKit          3D

 47 49  0  0  0  0  0  0  0  0999 V2000
   17.8540  -26.8500   36.6760 C   0  0  0  0  0  0  0  0  0  0  0  0
   18.7240  -26.8990   37.9020 C   0  0  0  0  0  0  0  0  0  0  0  0
   18.8950  -28.1220   38.5670 C   0  0  0  0  0  0  0  0  0  0  0  0
   19.6970  -28.2150   39.7070 C   0  0  0  0  0  0  0  0  0  0  0  0
   20.3500  -27.0890   40.2160 C   0  0  0  0  0  0  0  0  0  0  0  0
   21.2110  -27.2130   41.4110 C   0  0  0  0  0  0  0  0  0  0  0  0
   22.1650  -28.2170   41.2890 O   0  0  0  0  0  0  0  0  0  0  0  0
   23.0320  -28.4400   42.3280 C   0  0  0  0  0  0  0  0  0  0  0  0
   23.9830  -29.4470   42.1550 C   0  0  0  0  0  0  0  0  0  0  0  0
   24.8940  -29.7260   43.1760 C   0  0  0  0  0  0  0  0  0  0  0  0
   24.8530  -29.0010   44.3680 C   0  0  0  0  0  0  0  0  0  0  0  0
   23.9040  -27.9970   44.5380 C   0  0  0  0  0  0  0  0  0  0  0  0
   23.9200  -27.3260   45.7300 O   0  0  0  0  0  0  0  0  0  0  0  0
   22.9930  -27.7170   43.5160 C   0  0  0  0  0  0  0  0  0  0  0  0
   21.9780  -26.6710   43.6540 C   0  0  0  0  0  0  0  0  0  0  0  0
   21.8750  -25.9930   44.6740 O   0  0  0  0  0  0  0  0  0  0  0  0
   21.0650  -26.4470   42.5090 C   0  0  0  0  0  0  0  0  0  0  0  0
   20.1030  -25.4640   42.6550 O   0  0  0  0  0  0  0  0  0  0  0  0
   20.1960  -25.8700   39.5410 C   0  0  0  0  0  0  0  0  0  0  0  0
   19.3930  -25.7570   38.3880 C   0  0  0  0  0  0  0  0  0  0  0  0
   19.2570  -24.3950   37.7390 C   0  0  0  0  0  0  0  0  0  0  0  0
   19.1130  -23.2790   38.7890 C   0  0  0  0  0  0  0  0  0  0  0  0
   18.7490  -21.9710   38.2080 N   0  0  0  0  0  0  0  0  0  0  0  0
   17.3050  -21.7330   38.2610 C   0  0  0  0  0  0  0  0  0  0  0  0
   19.2080  -21.9000   36.8170 C   0  0  0  0  0  0  0  0  0  0  0  0
   16.7979  -26.7905   36.9779 H   0  0  0  0  0  0  0  0  0  0  0  0
   18.1144  -25.9651   36.0767 H   0  0  0  0  0  0  0  0  0  0  0  0
   18.0134  -27.7585   36.0767 H   0  0  0  0  0  0  0  0  0  0  0  0
   18.3900  -29.0215   38.1851 H   0  0  0  0  0  0  0  0  0  0  0  0
   19.8160  -29.1860   40.2100 H   0  0  0  0  0  0  0  0  0  0  0  0
   24.0148  -30.0196   41.2163 H   0  0  0  0  0  0  0  0  0  0  0  0
   25.6450  -30.5183   43.0406 H   0  0  0  0  0  0  0  0  0  0  0  0
   25.5699  -29.2228   45.1723 H   0  0  0  0  0  0  0  0  0  0  0  0
   23.8350  -27.7980   46.5340 H   0  0  0  0  0  0  0  0  0  0  0  0
   19.4920  -25.5090   43.3630 H   0  0  0  0  0  0  0  0  0  0  0  0
   20.7155  -24.9781   39.9212 H   0  0  0  0  0  0  0  0  0  0  0  0
   20.1517  -24.1988   37.1299 H   0  0  0  0  0  0  0  0  0  0  0  0
   18.3508  -24.3999   37.1155 H   0  0  0  0  0  0  0  0  0  0  0  0
   18.3310  -23.5724   39.5048 H   0  0  0  0  0  0  0  0  0  0  0  0
   20.0941  -23.1584   39.2716 H   0  0  0  0  0  0  0  0  0  0  0  0
   19.2050  -21.2470   38.7640 H   0  0  0  0  0  0  0  0  0  0  0  0
   16.9805  -21.6795   39.3107 H   0  0  0  0  0  0  0  0  0  0  0  0
   17.0710  -20.7842   37.7561 H   0  0  0  0  0  0  0  0  0  0  0  0
   16.7789  -22.5565   37.7561 H   0  0  0  0  0  0  0  0  0  0  0  0
   20.2949  -21.7319   36.7977 H   0  0  0  0  0  0  0  0  0  0  0  0
   18.9740  -22.8450   36.3050 H   0  0  0  0  0  0  0  0  0  0  0  0
   18.6994  -21.0698   36.3050 H   0  0  0  0  0  0  0  0  0  0  0  0
  1  2  1  0
  2  3  2  0
  3  4  1  0
  4  5  2  0
  5  6  1  0
  6  7  1  0
  7  8  1  0
  8  9  2  0
  9 10  1  0
 10 11  2  0
 11 12  1  0
 12 13  1  0
 12 14  2  0
 14 15  1  0
 15 16  2  0
 15 17  1  0
 17 18  1  0
  5 19  1  0
 19 20  2  0
 20 21  1  0
 21 22  1  0
 22 23  1  0
 23 24  1  0
 23 25  1  0
 20  2  1  0
 17  6  2  0
 14  8  1  0
  1 26  1  0
  1 27  1  0
  1 28  1  0
  3 29  1  0
  4 30  1  0
  9 31  1  0
 10 32  1  0
 11 33  1  0
 13 34  1  0
 18 35  1  0
 19 36  1  0
 21 37  1  0
 21 38  1  0
 22 39  1  0
 22 40  1  0
 23 41  1  0
 24 42  1  0
 24 43  1  0
 24 44  1  0
 25 45  1  0
 25 46  1  0
 25 47  1  0
M  CHG  1  23   1
M  END
>  <meeko>  (8) 
{"is_sidechain": [false], "free_energy": -7.138, "intermolecular_energy": -9.331, "internal_energy": -0.349}

$$$$
cand_041_out
     RDKit          3D

 47 49  0  0  0  0  0  0  0  0999 V2000
   19.2520  -33.9790   37.9550 C   0  0  0  0  0  0  0  0  0  0  0  0
   19.3000  -32.4780   38.0400 C   0  0  0  0  0  0  0  0  0  0  0  0
   18.9940  -31.8560   39.2590 C   0  0  0  0  0  0  0  0  0  0  0  0
   19.0290  -30.4660   39.3870 C   0  0  0  0  0  0  0  0  0  0  0  0
   19.3690  -29.6560   38.2980 C   0  0  0  0  0  0  0  0  0  0  0  0
   19.4210  -28.1870   38.4590 C   0  0  0  0  0  0  0  0  0  0  0  0
   18.7080  -27.5100   37.4770 O   0  0  0  0  0  0  0  0  0  0  0  0
   18.6740  -26.1390   37.5070 C   0  0  0  0  0  0  0  0  0  0  0  0
   17.9330  -25.5010   36.5110 C   0  0  0  0  0  0  0  0  0  0  0  0
   17.8590  -24.1070   36.4840 C   0  0  0  0  0  0  0  0  0  0  0  0
   18.5250  -23.3520   37.4510 C   0  0  0  0  0  0  0  0  0  0  0  0
   19.2620  -23.9900   38.4440 C   0  0  0  0  0  0  0  0  0  0  0  0
   19.8900  -23.1900   39.3590 O   0  0  0  0  0  0  0  0  0  0  0  0
   19.3360  -25.3860   38.4710 C   0  0  0  0  0  0  0  0  0  0  0  0
   20.1010  -26.0970   39.4970 C   0  0  0  0  0  0  0  0  0  0  0  0
   20.7190  -25.5030   40.3780 O   0  0  0  0  0  0  0  0  0  0  0  0
   20.1090  -27.5770   39.4430 C   0  0  0  0  0  0  0  0  0  0  0  0
   20.8450  -28.2370   40.4100 O   0  0  0  0  0  0  0  0  0  0  0  0
   19.6940  -30.2780   37.0850 C   0  0  0  0  0  0  0  0  0  0  0  0
   19.6660  -31.6790   36.9380 C   0  0  0  0  0  0  0  0  0  0  0  0
   20.0020  -32.2660   35.5820 C   0  0  0  0  0  0  0  0  0  0  0  0
   20.7120  -31.2390   34.6810 C   0  0  0  0  0  0  0  0  0  0  0  0
   20.7210  -31.6190   33.2540 N   0  0  0  0  0  0  0  0  0  0  0  0
   19.7100  -30.8880   32.4870 C   0  0  0  0  0  0  0  0  0  0  0  0
   20.4900  -33.0610   33.1230 C   0  0  0  0  0  0  0  0  0  0  0  0
   19.2384  -34.4035   38.9697 H   0  0  0  0  0  0  0  0  0  0  0  0
   18.3436  -34.2869   37.4166 H   0  0  0  0  0  0  0  0  0  0  0  0
   20.1389  -34.3443   37.4166 H   0  0  0  0  0  0  0  0  0  0  0  0
   18.7221  -32.4729   40.1282 H   0  0  0  0  0  0  0  0  0  0  0  0
   18.7866  -30.0026   40.3547 H   0  0  0  0  0  0  0  0  0  0  0  0
   17.4082  -26.0954   35.7486 H   0  0  0  0  0  0  0  0  0  0  0  0
   17.2751  -23.6030   35.6997 H   0  0  0  0  0  0  0  0  0  0  0  0
   18.4672  -22.2538   37.4280 H   0  0  0  0  0  0  0  0  0  0  0  0
   20.3520  -22.4270   39.0750 H   0  0  0  0  0  0  0  0  0  0  0  0
   20.9170  -29.1710   40.3870 H   0  0  0  0  0  0  0  0  0  0  0  0
   19.9788  -29.6554   36.2240 H   0  0  0  0  0  0  0  0  0  0  0  0
   20.6622  -33.1346   35.7225 H   0  0  0  0  0  0  0  0  0  0  0  0
   19.0625  -32.5623   35.0926 H   0  0  0  0  0  0  0  0  0  0  0  0
   20.1971  -30.2721   34.7813 H   0  0  0  0  0  0  0  0  0  0  0  0
   21.7603  -31.1875   35.0103 H   0  0  0  0  0  0  0  0  0  0  0  0
   21.6370  -31.3760   32.8740 H   0  0  0  0  0  0  0  0  0  0  0  0
   19.0167  -30.3867   33.1785 H   0  0  0  0  0  0  0  0  0  0  0  0
   20.2032  -30.1363   31.8532 H   0  0  0  0  0  0  0  0  0  0  0  0
   19.1507  -31.5919   31.8532 H   0  0  0  0  0  0  0  0  0  0  0  0
   20.4176  -33.5131   34.1232 H   0  0  0  0  0  0  0  0  0  0  0  0
   19.5527  -33.2338   32.5738 H   0  0  0  0  0  0  0  0  0  0  0  0
   21.3264  -33.5179   32.5738 H   0  0  0  0  0  0  0  0  0  0  0  0
  1  2  1  0
  2  3  2  0
  3  4  1  0
  4  5  2  0
  5  6  1  0
  6  7  1  0
  7  8  1  0
  8  9  2  0
  9 10  1  0
 10 11  2  0
 11 12  1  0
 12 13  1  0
 12 14  2  0
 14 15  1  0
 15 16  2  0
 15 17  1  0
 17 18  1  0
  5 19  1  0
 19 20  2  0
 20 21  1  0
 21 22  1  0
 22 23  1  0
 23 24  1  0
 23 25  1  0
 20  2  1  0
 17  6  2  0
 14  8  1  0
  1 26  1  0
  1 27  1  0
  1 28  1  0
  3 29  1  0
  4 30  1  0
  9 31  1  0
 10 32  1  0
 11 33  1  0
 13 34  1  0
 18 35  1  0
 19 36  1  0
 21 37  1  0
 21 38  1  0
 22 39  1  0
 22 40  1  0
 23 41  1  0
 24 42  1  0
 24 43  1  0
 24 44  1  0
 25 45  1  0
 25 46  1  0
 25 47  1  0
M  CHG  1  23   1
M  END
>  <meeko>  (9) 
{"is_sidechain": [false], "free_energy": -7.007, "intermolecular_energy": -9.217, "internal_energy": -0.295}

$$$$
