cand_003_out
     RDKit          3D

 35 37  0  0  0  0  0  0  0  0999 V2000
   18.3650  -33.8160   39.2580 C   0  0  0  0  0  0  0  0  0  0  0  0
   18.8580  -32.5840   38.5470 C   0  0  0  0  0  0  0  0  0  0  0  0
   18.8080  -31.3450   39.2130 C   0  0  0  0  0  0  0  0  0  0  0  0
   19.2660  -30.1650   38.6050 C   0  0  0  0  0  0  0  0  0  0  0  0
   19.1710  -28.8800   39.3300 C   0  0  0  0  0  0  0  0  0  0  0  0
   20.0700  -28.7870   40.3860 O   0  0  0  0  0  0  0  0  0  0  0  0
   20.0880  -27.6430   41.1420 C   0  0  0  0  0  0  0  0  0  0  0  0
   20.9950  -27.5970   42.2010 C   0  0  0  0  0  0  0  0  0  0  0  0
   21.0660  -26.4610   43.0100 C   0  0  0  0  0  0  0  0  0  0  0  0
   20.2300  -25.3710   42.7600 C   0  0  0  0  0  0  0  0  0  0  0  0
   19.3260  -25.4180   41.7020 C   0  0  0  0  0  0  0  0  0  0  0  0
   18.5390  -24.3160   41.5120 O   0  0  0  0  0  0  0  0  0  0  0  0
   19.2550  -26.5560   40.8940 C   0  0  0  0  0  0  0  0  0  0  0  0
   18.3190  -26.6470   39.7730 C   0  0  0  0  0  0  0  0  0  0  0  0
   17.5560  -25.7270   39.4840 O   0  0  0  0  0  0  0  0  0  0  0  0
   18.3170  -27.9000   38.9810 C   0  0  0  0  0  0  0  0  0  0  0  0
   17.4380  -27.9710   37.9160 O   0  0  0  0  0  0  0  0  0  0  0  0
   19.7650  -30.2390   37.3000 C   0  0  0  0  0  0  0  0  0  0  0  0
   19.8230  -31.4620   36.6270 C   0  0  0  0  0  0  0  0  0  0  0  0
   19.3770  -32.6470   37.2360 C   0  0  0  0  0  0  0  0  0  0  0  0
   19.4580  -33.9530   36.4750 C   0  0  0  0  0  0  0  0  0  0  0  0
   18.2330  -34.4520   36.1490 F   0  0  0  0  0  0  0  0  0  0  0  0
   20.0860  -34.9480   37.1660 F   0  0  0  0  0  0  0  0  0  0  0  0
   20.1410  -33.8370   35.3020 F   0  0  0  0  0  0  0  0  0  0  0  0
   18.4269  -33.6613   40.3453 H   0  0  0  0  0  0  0  0  0  0  0  0
   17.3201  -34.0098   38.9741 H   0  0  0  0  0  0  0  0  0  0  0  0
   18.9878  -34.6771   38.9741 H   0  0  0  0  0  0  0  0  0  0  0  0
   18.4006  -31.3000   40.2338 H   0  0  0  0  0  0  0  0  0  0  0  0
   21.6540  -28.4553   42.3987 H   0  0  0  0  0  0  0  0  0  0  0  0
   21.7812  -26.4248   43.8450 H   0  0  0  0  0  0  0  0  0  0  0  0
   20.2854  -24.4765   43.3979 H   0  0  0  0  0  0  0  0  0  0  0  0
   18.7580  -23.5060   41.9300 H   0  0  0  0  0  0  0  0  0  0  0  0
   16.6180  -28.4120   38.0140 H   0  0  0  0  0  0  0  0  0  0  0  0
   20.1153  -29.3247   36.7986 H   0  0  0  0  0  0  0  0  0  0  0  0
   20.2245  -31.4977   35.6035 H   0  0  0  0  0  0  0  0  0  0  0  0
  1  2  1  0
  2  3  2  0
  3  4  1  0
  4  5  1  0
  5  6  1  0
  6  7  1  0
  7  8  2  0
  8  9  1  0
  9 10  2  0
 10 11  1  0
 11 12  1  0
 11 13  2  0
 13 14  1  0
 14 15  2  0
 14 16  1  0
 16 17  1  0
  4 18  2  0
 18 19  1  0
 19 20  2  0
 20 21  1  0
 21 22  1  0
 21 23  1  0
 21 24  1  0
 20  2  1  0
 16  5  2  0
 13  7  1  0
  1 25  1  0
  1 26  1  0
  1 27  1  0
  3 28  1  0
  8 29  1  0
  9 30  1  0
 10 31  1  0
 12 32  1  0
 17 33  1  0
 18 34  1  0
 19 35  1  0
M  END
>  <meeko>  (1) 
{"is_sidechain": [false], "free_energy": -8.084, "intermolecular_energy": -9.501, "internal_energy": -0.315}

$$$$
cand_003_out
     RDKit          3D

 35 37  0  0  0  0  0  0  0  0999 V2000
   20.9210  -27.1260   41.6880 C   0  0  0  0  0  0  0  0  0  0  0  0
   20.0990  -27.3950   40.4560 C   0  0  0  0  0  0  0  0  0  0  0  0
   20.0870  -28.6940   39.9120 C   0  0  0  0  0  0  0  0  0  0  0  0
   19.3300  -29.0060   38.7730 C   0  0  0  0  0  0  0  0  0  0  0  0
   19.3660  -30.3760   38.2180 C   0  0  0  0  0  0  0  0  0  0  0  0
   18.9100  -31.3350   39.1150 O   0  0  0  0  0  0  0  0  0  0  0  0
   18.8900  -32.6500   38.7260 C   0  0  0  0  0  0  0  0  0  0  0  0
   18.4380  -33.5810   39.6610 C   0  0  0  0  0  0  0  0  0  0  0  0
   18.3910  -34.9370   39.3290 C   0  0  0  0  0  0  0  0  0  0  0  0
   18.7950  -35.3610   38.0620 C   0  0  0  0  0  0  0  0  0  0  0  0
   19.2450  -34.4300   37.1290 C   0  0  0  0  0  0  0  0  0  0  0  0
   19.6240  -34.9140   35.9070 O   0  0  0  0  0  0  0  0  0  0  0  0
   19.2930  -33.0740   37.4630 C   0  0  0  0  0  0  0  0  0  0  0  0
   19.7600  -32.0630   36.5130 C   0  0  0  0  0  0  0  0  0  0  0  0
   20.1250  -32.3560   35.3760 O   0  0  0  0  0  0  0  0  0  0  0  0
   19.7790  -30.6530   36.9670 C   0  0  0  0  0  0  0  0  0  0  0  0
   20.2080  -29.7040   36.0570 O   0  0  0  0  0  0  0  0  0  0  0  0
   18.5870  -27.9870   38.1670 C   0  0  0  0  0  0  0  0  0  0  0  0
   18.5860  -26.6940   38.6970 C   0  0  0  0  0  0  0  0  0  0  0  0
   19.3340  -26.3800   39.8440 C   0  0  0  0  0  0  0  0  0  0  0  0
   19.3070  -24.9680   40.3890 C   0  0  0  0  0  0  0  0  0  0  0  0
   18.5830  -24.1140   39.6110 F   0  0  0  0  0  0  0  0  0  0  0  0
   20.5430  -24.4020   40.5000 F   0  0  0  0  0  0  0  0  0  0  0  0
   18.7590  -24.8960   41.6350 F   0  0  0  0  0  0  0  0  0  0  0  0
   20.3145  -27.3245   42.5840 H   0  0  0  0  0  0  0  0  0  0  0  0
   21.8039  -27.7821   41.6902 H   0  0  0  0  0  0  0  0  0  0  0  0
   21.2452  -26.0749   41.6902 H   0  0  0  0  0  0  0  0  0  0  0  0
   20.6854  -29.4826   40.3916 H   0  0  0  0  0  0  0  0  0  0  0  0
   18.1187  -33.2476   40.6594 H   0  0  0  0  0  0  0  0  0  0  0  0
   18.0353  -35.6713   40.0667 H   0  0  0  0  0  0  0  0  0  0  0  0
   18.7580  -36.4289   37.8008 H   0  0  0  0  0  0  0  0  0  0  0  0
   19.8610  -35.8160   35.8130 H   0  0  0  0  0  0  0  0  0  0  0  0
   19.7140  -29.5460   35.2780 H   0  0  0  0  0  0  0  0  0  0  0  0
   17.9977  -28.2059   37.2643 H   0  0  0  0  0  0  0  0  0  0  0  0
   17.9899  -25.9093   38.2082 H   0  0  0  0  0  0  0  0  0  0  0  0
  1  2  1  0
  2  3  2  0
  3  4  1  0
  4  5  1  0
  5  6  1  0
  6  7  1  0
  7  8  2  0
  8  9  1  0
  9 10  2  0
 10 11  1  0
 11 12  1  0
 11 13  2  0
 13 14  1  0
 14 15  2  0
 14 16  1  0
 16 17  1  0
  4 18  2  0
 18 19  1  0
 19 20  2  0
 20 21  1  0
 21 22  1  0
 21 23  1  0
 21 24  1  0
 20  2  1  0
 16  5  2  0
 13  7  1  0
  1 25  1  0
  1 26  1  0
  1 27  1  0
  3 28  1  0
  8 29  1  0
  9 30  1  0
 10 31  1  0
 12 32  1  0
 17 33  1  0
 18 34  1  0
 19 35  1  0
M  END
>  <meeko>  (2) 
{"is_sidechain": [false], "free_energy": -7.944, "intermolecular_energy": -9.412, "internal_energy": -0.239}

$$$$
cand_003_out
     RDKit          3D

 35 37  0  0  0  0  0  0  0  0999 V2000
   18.5320  -33.7160   39.7080 C   0  0  0  0  0  0  0  0  0  0  0  0
   19.0170  -32.7650   38.6470 C   0  0  0  0  0  0  0  0  0  0  0  0
   19.0830  -31.3900   38.9400 C   0  0  0  0  0  0  0  0  0  0  0  0
   19.5380  -30.4580   37.9940 C   0  0  0  0  0  0  0  0  0  0  0  0
   19.5680  -29.0190   38.3340 C   0  0  0  0  0  0  0  0  0  0  0  0
   19.7810  -28.7880   39.6880 O   0  0  0  0  0  0  0  0  0  0  0  0
   19.8320  -27.4930   40.1390 C   0  0  0  0  0  0  0  0  0  0  0  0
   20.0330  -27.3060   41.5070 C   0  0  0  0  0  0  0  0  0  0  0  0
   20.0970  -26.0140   42.0320 C   0  0  0  0  0  0  0  0  0  0  0  0
   19.9590  -24.9090   41.1900 C   0  0  0  0  0  0  0  0  0  0  0  0
   19.7590  -25.0980   39.8240 C   0  0  0  0  0  0  0  0  0  0  0  0
   19.6340  -23.9730   39.0570 O   0  0  0  0  0  0  0  0  0  0  0  0
   19.6940  -26.3920   39.3000 C   0  0  0  0  0  0  0  0  0  0  0  0
   19.4850  -26.6340   37.8720 C   0  0  0  0  0  0  0  0  0  0  0  0
   19.3630  -25.7140   37.0660 O   0  0  0  0  0  0  0  0  0  0  0  0
   19.4250  -28.0430   37.4180 C   0  0  0  0  0  0  0  0  0  0  0  0
   19.2400  -28.2620   36.0650 O   0  0  0  0  0  0  0  0  0  0  0  0
   19.9160  -30.9220   36.7300 C   0  0  0  0  0  0  0  0  0  0  0  0
   19.8570  -32.2850   36.4250 C   0  0  0  0  0  0  0  0  0  0  0  0
   19.4140  -33.2230   37.3720 C   0  0  0  0  0  0  0  0  0  0  0  0
   19.3660  -34.6900   37.0040 C   0  0  0  0  0  0  0  0  0  0  0  0
   19.8610  -34.9400   35.7600 F   0  0  0  0  0  0  0  0  0  0  0  0
   18.1060  -35.2130   37.0090 F   0  0  0  0  0  0  0  0  0  0  0  0
   20.0870  -35.4700   37.8590 F   0  0  0  0  0  0  0  0  0  0  0  0
   18.7460  -33.2964   40.7021 H   0  0  0  0  0  0  0  0  0  0  0  0
   17.4477  -33.8653   39.5987 H   0  0  0  0  0  0  0  0  0  0  0  0
   19.0479  -34.6814   39.5987 H   0  0  0  0  0  0  0  0  0  0  0  0
   18.7706  -31.0373   39.9340 H   0  0  0  0  0  0  0  0  0  0  0  0
   20.1410  -28.1760   42.1714 H   0  0  0  0  0  0  0  0  0  0  0  0
   20.2563  -25.8665   43.1104 H   0  0  0  0  0  0  0  0  0  0  0  0
   20.0081  -23.8911   41.6041 H   0  0  0  0  0  0  0  0  0  0  0  0
   19.5410  -24.0470   38.1270 H   0  0  0  0  0  0  0  0  0  0  0  0
   18.5020  -28.7560   35.7680 H   0  0  0  0  0  0  0  0  0  0  0  0
   20.2630  -30.2078   35.9687 H   0  0  0  0  0  0  0  0  0  0  0  0
   20.1629  -32.6289   35.4259 H   0  0  0  0  0  0  0  0  0  0  0  0
  1  2  1  0
  2  3  2  0
  3  4  1  0
  4  5  1  0
  5  6  1  0
  6  7  1  0
  7  8  2  0
  8  9  1  0
  9 10  2  0
 10 11  1  0
 11 12  1  0
 11 13  2  0
 13 14  1  0
 14 15  2  0
 14 16  1  0
 16 17  1  0
  4 18  2  0
 18 19  1  0
 19 20  2  0
 20 21  1  0
 21 22  1  0
 21 23  1  0
 21 24  1  0
 20  2  1  0
 16  5  2  0
 13  7  1  0
  1 25  1  0
  1 26  1  0
  1 27  1  0
  3 28  1  0
  8 29  1  0
  9 30  1  0
 10 31  1  0
 12 32  1  0
 17 33  1  0
 18 34  1  0
 19 35  1  0
M  END
>  <meeko>  (3) 
{"is_sidechain": [false], "free_energy": -7.584, "intermolecular_energy": -9.327, "internal_energy": 0.098}

$$$$
cand_003_out
     RDKit          3D

 35 37  0  0  0  0  0  0  0  0999 V2000
   23.7840  -28.8220   42.2080 C   0  0  0  0  0  0  0  0  0  0  0  0
   22.6050  -27.8860   42.1990 C   0  0  0  0  0  0  0  0  0  0  0  0
   21.9420  -27.6330   40.9830 C   0  0  0  0  0  0  0  0  0  0  0  0
   20.8300  -26.7790   40.9170 C   0  0  0  0  0  0  0  0  0  0  0  0
   20.1790  -26.5200   39.6150 C   0  0  0  0  0  0  0  0  0  0  0  0
   19.9980  -25.1650   39.3610 O   0  0  0  0  0  0  0  0  0  0  0  0
   19.4040  -24.7850   38.1850 C   0  0  0  0  0  0  0  0  0  0  0  0
   19.2290  -23.4160   37.9760 C   0  0  0  0  0  0  0  0  0  0  0  0
   18.6320  -22.9610   36.7980 C   0  0  0  0  0  0  0  0  0  0  0  0
   18.2120  -23.8740   35.8290 C   0  0  0  0  0  0  0  0  0  0  0  0
   18.3890  -25.2390   36.0380 C   0  0  0  0  0  0  0  0  0  0  0  0
   17.9560  -26.0770   35.0480 O   0  0  0  0  0  0  0  0  0  0  0  0
   18.9840  -25.6940   37.2180 C   0  0  0  0  0  0  0  0  0  0  0  0
   19.1880  -27.1200   37.4780 C   0  0  0  0  0  0  0  0  0  0  0  0
   18.8530  -27.9840   36.6700 O   0  0  0  0  0  0  0  0  0  0  0  0
   19.8230  -27.4980   38.7620 C   0  0  0  0  0  0  0  0  0  0  0  0
   20.0240  -28.8470   38.9920 O   0  0  0  0  0  0  0  0  0  0  0  0
   20.3930  -26.1610   42.0930 C   0  0  0  0  0  0  0  0  0  0  0  0
   21.0390  -26.4040   43.3080 C   0  0  0  0  0  0  0  0  0  0  0  0
   22.1460  -27.2670   43.3820 C   0  0  0  0  0  0  0  0  0  0  0  0
   22.8180  -27.5070   44.7170 C   0  0  0  0  0  0  0  0  0  0  0  0
   22.4500  -26.6010   45.6650 F   0  0  0  0  0  0  0  0  0  0  0  0
   24.1800  -27.4440   44.6600 F   0  0  0  0  0  0  0  0  0  0  0  0
   22.5310  -28.7340   45.2370 F   0  0  0  0  0  0  0  0  0  0  0  0
   24.0663  -29.0461   43.2473 H   0  0  0  0  0  0  0  0  0  0  0  0
   23.5152  -29.7553   41.6917 H   0  0  0  0  0  0  0  0  0  0  0  0
   24.6320  -28.3485   41.6917 H   0  0  0  0  0  0  0  0  0  0  0  0
   22.3039  -28.1158   40.0633 H   0  0  0  0  0  0  0  0  0  0  0  0
   19.5610  -22.6960   38.7385 H   0  0  0  0  0  0  0  0  0  0  0  0
   18.4927  -21.8823   36.6337 H   0  0  0  0  0  0  0  0  0  0  0  0
   17.7418  -23.5153   34.9015 H   0  0  0  0  0  0  0  0  0  0  0  0
   17.0410  -26.1420   34.8560 H   0  0  0  0  0  0  0  0  0  0  0  0
   20.8160  -29.2570   38.7080 H   0  0  0  0  0  0  0  0  0  0  0  0
   19.5322  -25.4769   42.0612 H   0  0  0  0  0  0  0  0  0  0  0  0
   20.6751  -25.9117   44.2219 H   0  0  0  0  0  0  0  0  0  0  0  0
  1  2  1  0
  2  3  2  0
  3  4  1  0
  4  5  1  0
  5  6  1  0
  6  7  1  0
  7  8  2  0
  8  9  1  0
  9 10  2  0
 10 11  1  0
 11 12  1  0
 11 13  2  0
 13 14  1  0
 14 15  2  0
 14 16  1  0
 16 17  1  0
  4 18  2  0
 18 19  1  0
 19 20  2  0
 20 21  1  0
 21 22  1  0
 21 23  1  0
 21 24  1  0
 20  2  1  0
 16  5  2  0
 13  7  1  0
  1 25  1  0
  1 26  1  0
  1 27  1  0
  3 28  1  0
  8 29  1  0
  9 30  1  0
 10 31  1  0
 12 32  1  0
 17 33  1  0
 18 34  1  0
 19 35  1  0
M  END
>  <meeko>  (4) 
{"is_sidechain": [false], "free_energy": -7.419, "intermolecular_energy": -8.99, "internal_energy": -0.045}

$$$$
cand_003_out
     RDKit          3D

 35 37  0  0  0  0  0  0  0  0999 V2000
   18.0850  -25.4880   38.1070 C   0  0  0  0  0  0  0  0  0  0  0  0
   18.8170  -26.5910   38.8220 C   0  0  0  0  0  0  0  0  0  0  0  0
   18.8130  -27.8860   38.2700 C   0  0  0  0  0  0  0  0  0  0  0  0
   19.4880  -28.9510   38.8860 C   0  0  0  0  0  0  0  0  0  0  0  0
   19.4360  -30.3010   38.2860 C   0  0  0  0  0  0  0  0  0  0  0  0
   19.0090  -31.2750   39.1810 O   0  0  0  0  0  0  0  0  0  0  0  0
   18.9140  -32.5740   38.7520 C   0  0  0  0  0  0  0  0  0  0  0  0
   18.4950  -33.5210   39.6860 C   0  0  0  0  0  0  0  0  0  0  0  0
   18.3760  -34.8620   39.3150 C   0  0  0  0  0  0  0  0  0  0  0  0
   18.6740  -35.2550   38.0080 C   0  0  0  0  0  0  0  0  0  0  0  0
   19.0910  -34.3080   37.0770 C   0  0  0  0  0  0  0  0  0  0  0  0
   19.3660  -34.7610   35.8160 O   0  0  0  0  0  0  0  0  0  0  0  0
   19.2120  -32.9660   37.4500 C   0  0  0  0  0  0  0  0  0  0  0  0
   19.6470  -31.9400   36.5030 C   0  0  0  0  0  0  0  0  0  0  0  0
   19.9200  -32.2050   35.3340 O   0  0  0  0  0  0  0  0  0  0  0  0
   19.7490  -30.5470   37.0000 C   0  0  0  0  0  0  0  0  0  0  0  0
   20.1470  -29.5820   36.0930 O   0  0  0  0  0  0  0  0  0  0  0  0
   20.1640  -28.7050   40.0860 C   0  0  0  0  0  0  0  0  0  0  0  0
   20.1800  -27.4250   40.6460 C   0  0  0  0  0  0  0  0  0  0  0  0
   19.5150  -26.3540   40.0260 C   0  0  0  0  0  0  0  0  0  0  0  0
   19.5570  -24.9810   40.6630 C   0  0  0  0  0  0  0  0  0  0  0  0
   18.3190  -24.5020   40.9690 F   0  0  0  0  0  0  0  0  0  0  0  0
   20.1310  -24.0300   39.8710 F   0  0  0  0  0  0  0  0  0  0  0  0
   20.2660  -24.9620   41.8270 F   0  0  0  0  0  0  0  0  0  0  0  0
   17.6341  -24.8085   38.8452 H   0  0  0  0  0  0  0  0  0  0  0  0
   18.7912  -24.9279   37.4765 H   0  0  0  0  0  0  0  0  0  0  0  0
   17.2945  -25.9212   37.4765 H   0  0  0  0  0  0  0  0  0  0  0  0
   18.2671  -28.0676   37.3324 H   0  0  0  0  0  0  0  0  0  0  0  0
   18.2583  -33.2117   40.7147 H   0  0  0  0  0  0  0  0  0  0  0  0
   18.0474  -35.6093   40.0523 H   0  0  0  0  0  0  0  0  0  0  0  0
   18.5793  -36.3110   37.7151 H   0  0  0  0  0  0  0  0  0  0  0  0
   20.1500  -35.2470   35.6530 H   0  0  0  0  0  0  0  0  0  0  0  0
   19.5250  -28.9650   35.7630 H   0  0  0  0  0  0  0  0  0  0  0  0
   20.6883  -29.5279   40.5939 H   0  0  0  0  0  0  0  0  0  0  0  0
   20.7221  -27.2531   41.5876 H   0  0  0  0  0  0  0  0  0  0  0  0
  1  2  1  0
  2  3  2  0
  3  4  1  0
  4  5  1  0
  5  6  1  0
  6  7  1  0
  7  8  2  0
  8  9  1  0
  9 10  2  0
 10 11  1  0
 11 12  1  0
 11 13  2  0
 13 14  1  0
 14 15  2  0
 14 16  1  0
 16 17  1  0
  4 18  2  0
 18 19  1  0
 19 20  2  0
 20 21  1  0
 21 22  1  0
 21 23  1  0
 21 24  1  0
 20  2  1  0
 16  5  2  0
 13  7  1  0
  1 25  1  0
  1 26  1  0
  1 27  1  0
  3 28  1  0
  8 29  1  0
  9 30  1  0
 10 31  1  0
 12 32  1  0
 17 33  1  0
 18 34  1  0
 19 35  1  0
M  END
>  <meeko>  (5) 
{"is_sidechain": [false], "free_energy": -7.367, "intermolecular_energy": -8.815, "internal_energy": -0.159}

$$$$
cand_003_out
     RDKit          3D

 35 37  0  0  0  0  0  0  0  0999 V2000
   18.3790  -33.1020   39.8340 C   0  0  0  0  0  0  0  0  0  0  0  0
   18.9240  -32.2030   38.7570 C   0  0  0  0  0  0  0  0  0  0  0  0
   18.9910  -30.8160   38.9920 C   0  0  0  0  0  0  0  0  0  0  0  0
   19.5010  -29.9310   38.0300 C   0  0  0  0  0  0  0  0  0  0  0  0
   19.5290  -28.4800   38.3070 C   0  0  0  0  0  0  0  0  0  0  0  0
   18.9990  -27.7200   37.2710 O   0  0  0  0  0  0  0  0  0  0  0  0
   18.9640  -26.3550   37.4000 C   0  0  0  0  0  0  0  0  0  0  0  0
   18.4370  -25.6300   36.3300 C   0  0  0  0  0  0  0  0  0  0  0  0
   18.3710  -24.2370   36.3970 C   0  0  0  0  0  0  0  0  0  0  0  0
   18.8300  -23.5690   37.5340 C   0  0  0  0  0  0  0  0  0  0  0  0
   19.3550  -24.2940   38.6010 C   0  0  0  0  0  0  0  0  0  0  0  0
   19.7850  -23.5760   39.6830 O   0  0  0  0  0  0  0  0  0  0  0  0
   19.4220  -25.6880   38.5320 C   0  0  0  0  0  0  0  0  0  0  0  0
   19.9670  -26.4870   39.6300 C   0  0  0  0  0  0  0  0  0  0  0  0
   20.3840  -25.9740   40.6660 O   0  0  0  0  0  0  0  0  0  0  0  0
   20.0000  -27.9590   39.4560 C   0  0  0  0  0  0  0  0  0  0  0  0
   20.5040  -28.7060   40.5050 O   0  0  0  0  0  0  0  0  0  0  0  0
   19.9340  -30.4540   36.8070 C   0  0  0  0  0  0  0  0  0  0  0  0
   19.8760  -31.8280   36.5590 C   0  0  0  0  0  0  0  0  0  0  0  0
   19.3770  -32.7200   37.5240 C   0  0  0  0  0  0  0  0  0  0  0  0
   19.3320  -34.2020   37.2190 C   0  0  0  0  0  0  0  0  0  0  0  0
   19.8920  -34.5120   36.0170 F   0  0  0  0  0  0  0  0  0  0  0  0
   18.0670  -34.7110   37.1760 F   0  0  0  0  0  0  0  0  0  0  0  0
   19.9940  -34.9500   38.1470 F   0  0  0  0  0  0  0  0  0  0  0  0
   18.6310  -32.6864   40.8208 H   0  0  0  0  0  0  0  0  0  0  0  0
   17.2858  -33.1727   39.7342 H   0  0  0  0  0  0  0  0  0  0  0  0
   18.8219  -34.1039   39.7342 H   0  0  0  0  0  0  0  0  0  0  0  0
   18.6348  -30.4168   39.9531 H   0  0  0  0  0  0  0  0  0  0  0  0
   18.0739  -26.1558   35.4346 H   0  0  0  0  0  0  0  0  0  0  0  0
   17.9571  -23.6653   35.5533 H   0  0  0  0  0  0  0  0  0  0  0  0
   18.7770  -22.4716   37.5869 H   0  0  0  0  0  0  0  0  0  0  0  0
   20.0050  -22.6700   39.5870 H   0  0  0  0  0  0  0  0  0  0  0  0
   19.9230  -29.0560   41.1510 H   0  0  0  0  0  0  0  0  0  0  0  0
   20.3240  -29.7769   36.0328 H   0  0  0  0  0  0  0  0  0  0  0  0
   20.2268  -32.2182   35.5922 H   0  0  0  0  0  0  0  0  0  0  0  0
  1  2  1  0
  2  3  2  0
  3  4  1  0
  4  5  1  0
  5  6  1  0
  6  7  1  0
  7  8  2  0
  8  9  1  0
  9 10  2  0
 10 11  1  0
 11 12  1  0
 11 13  2  0
 13 14  1  0
 14 15  2  0
 14 16  1  0
 16 17  1  0
  4 18  2  0
 18 19  1  0
 19 20  2  0
 20 21  1  0
 21 22  1  0
 21 23  1  0
 21 24  1  0
 20  2  1  0
 16  5  2  0
 13  7  1  0
  1 25  1  0
  1 26  1  0
  1 27  1  0
  3 28  1  0
  8 29  1  0
  9 30  1  0
 10 31  1  0
 12 32  1  0
 17 33  1  0
 18 34  1  0
 19 35  1  0
M  END
>  <meeko>  (6) 
{"is_sidechain": [false], "free_energy": -7.353, "intermolecular_energy": -8.87, "internal_energy": -0.088}

$$$$
cand_003_out
     RDKit          3D

 35 37  0  0  0  0  0  0  0  0999 V2000
   19.5110  -24.2300   37.6200 C   0  0  0  0  0  0  0  0  0  0  0  0
   19.5140  -25.5680   38.3100 C   0  0  0  0  0  0  0  0  0  0  0  0
   20.2720  -25.7310   39.4850 C   0  0  0  0  0  0  0  0  0  0  0  0
   20.3020  -26.9510   40.1770 C   0  0  0  0  0  0  0  0  0  0  0  0
   21.1330  -27.0870   41.3920 C   0  0  0  0  0  0  0  0  0  0  0  0
   22.0970  -28.0820   41.2800 O   0  0  0  0  0  0  0  0  0  0  0  0
   22.9380  -28.3130   42.3390 C   0  0  0  0  0  0  0  0  0  0  0  0
   23.8810  -29.3300   42.1890 C   0  0  0  0  0  0  0  0  0  0  0  0
   24.7690  -29.6160   43.2280 C   0  0  0  0  0  0  0  0  0  0  0  0
   24.7140  -28.8850   44.4170 C   0  0  0  0  0  0  0  0  0  0  0  0
   23.7720  -27.8690   44.5630 C   0  0  0  0  0  0  0  0  0  0  0  0
   23.7740  -27.1920   45.7520 O   0  0  0  0  0  0  0  0  0  0  0  0
   22.8830  -27.5850   43.5230 C   0  0  0  0  0  0  0  0  0  0  0  0
   21.8780  -26.5270   43.6370 C   0  0  0  0  0  0  0  0  0  0  0  0
   21.7720  -25.8350   44.6470 O   0  0  0  0  0  0  0  0  0  0  0  0
   20.9790  -26.3100   42.4800 C   0  0  0  0  0  0  0  0  0  0  0  0
   20.0420  -25.2990   42.5910 O   0  0  0  0  0  0  0  0  0  0  0  0
   19.5680  -28.0260   39.6640 C   0  0  0  0  0  0  0  0  0  0  0  0
   18.8090  -27.8790   38.5000 C   0  0  0  0  0  0  0  0  0  0  0  0
   18.7660  -26.6560   37.8110 C   0  0  0  0  0  0  0  0  0  0  0  0
   17.9300  -26.5360   36.5540 C   0  0  0  0  0  0  0  0  0  0  0  0
   18.6840  -26.3780   35.4300 F   0  0  0  0  0  0  0  0  0  0  0  0
   17.0710  -25.4760   36.5700 F   0  0  0  0  0  0  0  0  0  0  0  0
   17.1510  -27.6330   36.3340 F   0  0  0  0  0  0  0  0  0  0  0  0
   19.5092  -23.4288   38.3737 H   0  0  0  0  0  0  0  0  0  0  0  0
   20.4089  -24.1398   36.9911 H   0  0  0  0  0  0  0  0  0  0  0  0
   18.6127  -24.1438   36.9911 H   0  0  0  0  0  0  0  0  0  0  0  0
   20.8549  -24.8812   39.8699 H   0  0  0  0  0  0  0  0  0  0  0  0
   23.9250  -29.9062   41.2530 H   0  0  0  0  0  0  0  0  0  0  0  0
   25.5127  -30.4179   43.1100 H   0  0  0  0  0  0  0  0  0  0  0  0
   25.4127  -29.1110   45.2360 H   0  0  0  0  0  0  0  0  0  0  0  0
   23.8180  -26.2560   45.7580 H   0  0  0  0  0  0  0  0  0  0  0  0
   20.3090  -24.4040   42.5260 H   0  0  0  0  0  0  0  0  0  0  0  0
   19.5886  -28.9962   40.1820 H   0  0  0  0  0  0  0  0  0  0  0  0
   18.2354  -28.7358   38.1168 H   0  0  0  0  0  0  0  0  0  0  0  0
  1  2  1  0
  2  3  2  0
  3  4  1  0
  4  5  1  0
  5  6  1  0
  6  7  1  0
  7  8  2  0
  8  9  1  0
  9 10  2  0
 10 11  1  0
 11 12  1  0
 11 13  2  0
 13 14  1  0
 14 15  2  0
 14 16  1  0
 16 17  1  0
  4 18  2  0
 18 19  1  0
 19 20  2  0
 20 21  1  0
 21 22  1  0
 21 23  1  0
 21 24  1  0
 20  2  1  0
 16  5  2  0
 13  7  1  0
  1 25  1  0
  1 26  1  0
  1 27  1  0
  3 28  1  0
  8 29  1  0
  9 30  1  0
 10 31  1  0
 12 32  1  0
 17 33  1  0
 18 34  1  0
 19 35  1  0
M  END
>  <meeko>  (7) 
{"is_sidechain": [false], "free_energy": -7.094, "intermolecular_energy": -8.447, "internal_energy": -0.206}

$$$$
cand_003_out
     RDKit          3D

 35 37  0  0  0  0  0  0  0  0999 V2000
   21.5010  -27.7020   41.5780 C   0  0  0  0  0  0  0  0  0  0  0  0
   20.4020  -27.8570   40.5610 C   0  0  0  0  0  0  0  0  0  0  0  0
   20.3540  -29.0270   39.7790 C   0  0  0  0  0  0  0  0  0  0  0  0
   19.3460  -29.2320   38.8240 C   0  0  0  0  0  0  0  0  0  0  0  0
   19.3470  -30.4630   38.0060 C   0  0  0  0  0  0  0  0  0  0  0  0
   19.8890  -30.2710   36.7400 O   0  0  0  0  0  0  0  0  0  0  0  0
   19.9520  -31.3350   35.8770 C   0  0  0  0  0  0  0  0  0  0  0  0
   20.4900  -31.0940   34.6130 C   0  0  0  0  0  0  0  0  0  0  0  0
   20.5850  -32.1350   33.6860 C   0  0  0  0  0  0  0  0  0  0  0  0
   20.1420  -33.4150   34.0240 C   0  0  0  0  0  0  0  0  0  0  0  0
   19.6060  -33.6530   35.2870 C   0  0  0  0  0  0  0  0  0  0  0  0
   19.1930  -34.9300   35.5530 O   0  0  0  0  0  0  0  0  0  0  0  0
   19.5100  -32.6110   36.2130 C   0  0  0  0  0  0  0  0  0  0  0  0
   18.9540  -32.8180   37.5510 C   0  0  0  0  0  0  0  0  0  0  0  0
   18.5500  -33.9170   37.9260 O   0  0  0  0  0  0  0  0  0  0  0  0
   18.8900  -31.6460   38.4560 C   0  0  0  0  0  0  0  0  0  0  0  0
   18.3750  -31.8550   39.7220 O   0  0  0  0  0  0  0  0  0  0  0  0
   18.3830  -28.2330   38.6480 C   0  0  0  0  0  0  0  0  0  0  0  0
   18.4160  -27.0670   39.4180 C   0  0  0  0  0  0  0  0  0  0  0  0
   19.4160  -26.8630   40.3830 C   0  0  0  0  0  0  0  0  0  0  0  0
   19.4180  -25.5870   41.1990 C   0  0  0  0  0  0  0  0  0  0  0  0
   20.5070  -24.8060   40.9580 F   0  0  0  0  0  0  0  0  0  0  0  0
   19.4120  -25.8020   42.5460 F   0  0  0  0  0  0  0  0  0  0  0  0
   18.3310  -24.8030   40.9500 F   0  0  0  0  0  0  0  0  0  0  0  0
   21.0749  -27.7621   42.5903 H   0  0  0  0  0  0  0  0  0  0  0  0
   22.2410  -28.5047   41.4434 H   0  0  0  0  0  0  0  0  0  0  0  0
   21.9901  -26.7260   41.4434 H   0  0  0  0  0  0  0  0  0  0  0  0
   21.1250  -29.7989   39.9199 H   0  0  0  0  0  0  0  0  0  0  0  0
   20.8391  -30.0855   34.3463 H   0  0  0  0  0  0  0  0  0  0  0  0
   21.0093  -31.9458   32.6889 H   0  0  0  0  0  0  0  0  0  0  0  0
   20.2162  -34.2343   33.2938 H   0  0  0  0  0  0  0  0  0  0  0  0
   18.9120  -35.1610   36.4160 H   0  0  0  0  0  0  0  0  0  0  0  0
   18.5340  -31.2300   40.4010 H   0  0  0  0  0  0  0  0  0  0  0  0
   17.5915  -28.3664   37.8958 H   0  0  0  0  0  0  0  0  0  0  0  0
   17.6460  -26.2963   39.2657 H   0  0  0  0  0  0  0  0  0  0  0  0
  1  2  1  0
  2  3  2  0
  3  4  1  0
  4  5  1  0
  5  6  1  0
  6  7  1  0
  7  8  2  0
  8  9  1  0
  9 10  2  0
 10 11  1  0
 11 12  1  0
 11 13  2  0
 13 14  1  0
 14 15  2  0
 14 16  1  0
 16 17  1  0
  4 18  2  0
 18 19  1  0
 19 20  2  0
 20 21  1  0
 21 22  1  0
 21 23  1  0
 21 24  1  0
 20  2  1  0
 16  5  2  0
 13  7  1  0
  1 25  1  0
  1 26  1  0
  1 27  1  0
  3 28  1  0
  8 29  1  0
  9 30  1  0
 10 31  1  0
 12 32  1  0
 17 33  1  0
 18 34  1  0
 19 35  1  0
M  END
>  <meeko>  (8) 
{"is_sidechain": [false], "free_energy": -7.048, "intermolecular_energy": -8.202, "internal_energy": -0.396}

$$$$
cand_003_out
     RDKit          3D

 35 37  0  0  0  0  0  0  0  0999 V2000
   23.7570  -28.9310   42.1280 C   0  0  0  0  0  0  0  0  0  0  0  0
   22.5840  -28.0000   42.2850 C   0  0  0  0  0  0  0  0  0  0  0  0
   21.7350  -27.7780   41.1840 C   0  0  0  0  0  0  0  0  0  0  0  0
   20.6200  -26.9310   41.2750 C   0  0  0  0  0  0  0  0  0  0  0  0
   19.7700  -26.7040   40.0870 C   0  0  0  0  0  0  0  0  0  0  0  0
   20.0900  -27.5420   39.0250 O   0  0  0  0  0  0  0  0  0  0  0  0
   19.3750  -27.4360   37.8590 C   0  0  0  0  0  0  0  0  0  0  0  0
   19.7390  -28.2860   36.8130 C   0  0  0  0  0  0  0  0  0  0  0  0
   19.0510  -28.2320   35.5990 C   0  0  0  0  0  0  0  0  0  0  0  0
   17.9990  -27.3290   35.4310 C   0  0  0  0  0  0  0  0  0  0  0  0
   17.6370  -26.4830   36.4760 C   0  0  0  0  0  0  0  0  0  0  0  0
   16.5970  -25.6240   36.2440 O   0  0  0  0  0  0  0  0  0  0  0  0
   18.3270  -26.5370   37.6900 C   0  0  0  0  0  0  0  0  0  0  0  0
   17.9790  -25.6650   38.8130 C   0  0  0  0  0  0  0  0  0  0  0  0
   17.0610  -24.8500   38.7460 O   0  0  0  0  0  0  0  0  0  0  0  0
   18.7770  -25.7960   40.0550 C   0  0  0  0  0  0  0  0  0  0  0  0
   18.4310  -24.9780   41.1150 O   0  0  0  0  0  0  0  0  0  0  0  0
   20.3710  -26.2870   42.4910 C   0  0  0  0  0  0  0  0  0  0  0  0
   21.2020  -26.4990   43.5940 C   0  0  0  0  0  0  0  0  0  0  0  0
   22.3130  -27.3560   43.5110 C   0  0  0  0  0  0  0  0  0  0  0  0
   23.1900  -27.5610   44.7270 C   0  0  0  0  0  0  0  0  0  0  0  0
   22.9600  -26.6430   45.7070 F   0  0  0  0  0  0  0  0  0  0  0  0
   24.5250  -27.4810   44.4570 F   0  0  0  0  0  0  0  0  0  0  0  0
   23.0080  -28.7820   45.3060 F   0  0  0  0  0  0  0  0  0  0  0  0
   24.1273  -29.2249   43.1212 H   0  0  0  0  0  0  0  0  0  0  0  0
   23.4419  -29.8276   41.5740 H   0  0  0  0  0  0  0  0  0  0  0  0
   24.5586  -28.4206   41.5740 H   0  0  0  0  0  0  0  0  0  0  0  0
   21.9509  -28.2806   40.2296 H   0  0  0  0  0  0  0  0  0  0  0  0
   20.5672  -28.9978   36.9450 H   0  0  0  0  0  0  0  0  0  0  0  0
   19.3379  -28.9012   34.7745 H   0  0  0  0  0  0  0  0  0  0  0  0
   17.4572  -27.2862   34.4746 H   0  0  0  0  0  0  0  0  0  0  0  0
   16.7490  -24.7000   36.2210 H   0  0  0  0  0  0  0  0  0  0  0  0
   18.6010  -25.2540   41.9930 H   0  0  0  0  0  0  0  0  0  0  0  0
   19.5116  -25.6062   42.5801 H   0  0  0  0  0  0  0  0  0  0  0  0
   20.9833  -25.9870   44.5427 H   0  0  0  0  0  0  0  0  0  0  0  0
  1  2  1  0
  2  3  2  0
  3  4  1  0
  4  5  1  0
  5  6  1  0
  6  7  1  0
  7  8  2  0
  8  9  1  0
  9 10  2  0
 10 11  1  0
 11 12  1  0
 11 13  2  0
 13 14  1  0
 14 15  2  0
 14 16  1  0
 16 17  1  0
  4 18  2  0
 18 19  1  0
 19 20  2  0
 20 21  1  0
 21 22  1  0
 21 23  1  0
 21 24  1  0
 20  2  1  0
 16  5  2  0
 13  7  1  0
  1 25  1  0
  1 26  1  0
  1 27  1  0
  3 28  1  0
  8 29  1  0
  9 30  1  0
 10 31  1  0
 12 32  1  0
 17 33  1  0
 18 34  1  0
 19 35  1  0
M  END
>  <meeko>  (9) 
{"is_sidechain": [false], "free_energy": -7.037, "intermolecular_energy": -8.889, "internal_energy": 0.304}

$$$$
