9IV_ttbk2_out
     RDKit          3D

 37 40  0  0  0  0  0  0  0  0999 V2000
  178.5480   21.3230   51.0570 Cl  0  0  0  0  0  0  0  0  0  0  0  0
  178.2700   22.2320   49.6180 C   0  0  0  0  0  0  0  0  0  0  0  0
  177.1850   23.1120   49.5820 C   0  0  0  0  0  0  0  0  0  0  0  0
  176.9330   23.8640   48.4330 C   0  0  0  0  0  0  0  0  0  0  0  0
  177.7670   23.7430   47.3210 C   0  0  0  0  0  0  0  0  0  0  0  0
  178.8530   22.8660   47.3540 C   0  0  0  0  0  0  0  0  0  0  0  0
  179.0950   22.0950   48.4970 C   0  0  0  0  0  0  0  0  0  0  0  0
  180.1840   21.2540   48.5610 O   0  0  0  0  0  0  0  0  0  0  0  0
  180.4550   20.4950   47.4460 C   0  0  0  0  0  0  0  0  0  0  0  0
  181.6570   20.5740   46.7430 C   0  0  0  0  0  0  0  0  0  0  0  0
  181.8440   19.7930   45.6000 C   0  0  0  0  0  0  0  0  0  0  0  0
  180.8410   18.9270   45.1440 C   0  0  0  0  0  0  0  0  0  0  0  0
  181.0810   18.1870   43.9670 N   0  0  0  0  0  0  0  0  0  0  0  0
  180.9320   16.8060   43.7680 C   0  0  0  0  0  0  0  0  0  0  0  0
  180.5910   16.0670   44.8540 N   0  0  0  0  0  0  0  0  0  0  0  0
  180.4270   14.7380   44.7070 C   0  0  0  0  0  0  0  0  0  0  0  0
  180.5450   14.0060   43.5870 N   0  0  0  0  0  0  0  0  0  0  0  0
  180.8510   14.7760   42.5330 C   0  0  0  0  0  0  0  0  0  0  0  0
  181.0100   14.3150   41.2560 N   0  0  0  0  0  0  0  0  0  0  0  0
  181.2920   15.3630   40.4170 C   0  0  0  0  0  0  0  0  0  0  0  0
  181.3170   16.5130   41.1780 C   0  0  0  0  0  0  0  0  0  0  0  0
  181.0520   16.1480   42.5300 C   0  0  0  0  0  0  0  0  0  0  0  0
  179.6240   18.8930   45.8360 C   0  0  0  0  0  0  0  0  0  0  0  0
  179.4300   19.6720   46.9800 C   0  0  0  0  0  0  0  0  0  0  0  0
  176.5292   23.2122   50.4594 H   0  0  0  0  0  0  0  0  0  0  0  0
  176.0758   24.5528   48.4044 H   0  0  0  0  0  0  0  0  0  0  0  0
  177.5688   24.3388   46.4178 H   0  0  0  0  0  0  0  0  0  0  0  0
  179.5182   22.7810   46.4821 H   0  0  0  0  0  0  0  0  0  0  0  0
  182.4547   21.2487   47.0873 H   0  0  0  0  0  0  0  0  0  0  0  0
  182.7938   19.8588   45.0490 H   0  0  0  0  0  0  0  0  0  0  0  0
  181.3930   18.7040   43.1890 H   0  0  0  0  0  0  0  0  0  0  0  0
  180.1633   14.1823   45.6190 H   0  0  0  0  0  0  0  0  0  0  0  0
  180.9330   13.3730   40.9790 H   0  0  0  0  0  0  0  0  0  0  0  0
  181.4667   15.2979   39.3329 H   0  0  0  0  0  0  0  0  0  0  0  0
  181.5076   17.5310   40.8073 H   0  0  0  0  0  0  0  0  0  0  0  0
  178.8113   18.2456   45.4749 H   0  0  0  0  0  0  0  0  0  0  0  0
  178.4685   19.6360   47.5131 H   0  0  0  0  0  0  0  0  0  0  0  0
  1  2  1  0
  2  3  2  0
  3  4  1  0
  4  5  2  0
  5  6  1  0
  6  7  2  0
  7  8  1  0
  8  9  1  0
  9 10  2  0
 10 11  1  0
 11 12  2  0
 12 13  1  0
 13 14  1  0
 14 15  2  0
 15 16  1  0
 16 17  2  0
 17 18  1  0
 18 19  1  0
 19 20  1  0
 20 21  2  0
 21 22  1  0
 12 23  1  0
 23 24  2  0
  7  2  1  0
 24  9  1  0
 22 14  1  0
 22 18  2  0
  3 25  1  0
  4 26  1  0
  5 27  1  0
  6 28  1  0
 10 29  1  0
 11 30  1  0
 13 31  1  0
 16 32  1  0
 19 33  1  0
 20 34  1  0
 21 35  1  0
 23 36  1  0
 24 37  1  0
M  END
>  <meeko>  (1) 
{"is_sidechain": [false], "free_energy": -8.654, "intermolecular_energy": -10.678, "internal_energy": -0.307}

$$$$
9IV_ttbk2_out
     RDKit          3D

 37 40  0  0  0  0  0  0  0  0999 V2000
  178.7700   22.4980   50.6130 Cl  0  0  0  0  0  0  0  0  0  0  0  0
  177.6070   21.4910   49.8330 C   0  0  0  0  0  0  0  0  0  0  0  0
  176.5500   20.9800   50.5910 C   0  0  0  0  0  0  0  0  0  0  0  0
  175.5910   20.1620   49.9890 C   0  0  0  0  0  0  0  0  0  0  0  0
  175.6820   19.8600   48.6310 C   0  0  0  0  0  0  0  0  0  0  0  0
  176.7360   20.3690   47.8700 C   0  0  0  0  0  0  0  0  0  0  0  0
  177.7110   21.1720   48.4750 C   0  0  0  0  0  0  0  0  0  0  0  0
  178.7360   21.7150   47.7320 O   0  0  0  0  0  0  0  0  0  0  0  0
  179.3620   20.8860   46.8300 C   0  0  0  0  0  0  0  0  0  0  0  0
  178.8990   20.6890   45.5280 C   0  0  0  0  0  0  0  0  0  0  0  0
  179.5730   19.8060   44.6800 C   0  0  0  0  0  0  0  0  0  0  0  0
  180.7090   19.1100   45.1160 C   0  0  0  0  0  0  0  0  0  0  0  0
  181.3250   18.2110   44.2200 N   0  0  0  0  0  0  0  0  0  0  0  0
  180.9960   16.8680   43.9800 C   0  0  0  0  0  0  0  0  0  0  0  0
  180.5270   16.1580   45.0380 N   0  0  0  0  0  0  0  0  0  0  0  0
  180.1890   14.8670   44.8500 C   0  0  0  0  0  0  0  0  0  0  0  0
  180.2390   14.1520   43.7150 N   0  0  0  0  0  0  0  0  0  0  0  0
  180.6770   14.8980   42.6900 C   0  0  0  0  0  0  0  0  0  0  0  0
  180.8080   14.4490   41.4050 N   0  0  0  0  0  0  0  0  0  0  0  0
  181.2540   15.4680   40.6020 C   0  0  0  0  0  0  0  0  0  0  0  0
  181.4120   16.5850   41.3940 C   0  0  0  0  0  0  0  0  0  0  0  0
  181.0620   16.2290   42.7290 C   0  0  0  0  0  0  0  0  0  0  0  0
  181.1330   19.2870   46.4380 C   0  0  0  0  0  0  0  0  0  0  0  0
  180.4640   20.1690   47.2920 C   0  0  0  0  0  0  0  0  0  0  0  0
  176.4732   21.2218   51.6613 H   0  0  0  0  0  0  0  0  0  0  0  0
  174.7625   19.7554   50.5875 H   0  0  0  0  0  0  0  0  0  0  0  0
  174.9224   19.2199   48.1585 H   0  0  0  0  0  0  0  0  0  0  0  0
  176.8006   20.1395   46.7961 H   0  0  0  0  0  0  0  0  0  0  0  0
  178.0079   21.2262   45.1711 H   0  0  0  0  0  0  0  0  0  0  0  0
  179.2062   19.6547   43.6540 H   0  0  0  0  0  0  0  0  0  0  0  0
  182.0800   18.5700   43.7000 H   0  0  0  0  0  0  0  0  0  0  0  0
  179.8261   14.3312   45.7395 H   0  0  0  0  0  0  0  0  0  0  0  0
  180.6130   13.5330   41.1010 H   0  0  0  0  0  0  0  0  0  0  0  0
  181.4501   15.4050   39.5214 H   0  0  0  0  0  0  0  0  0  0  0  0
  181.7487   17.5760   41.0556 H   0  0  0  0  0  0  0  0  0  0  0  0
  182.0029   18.7255   46.8095 H   0  0  0  0  0  0  0  0  0  0  0  0
  180.8077   20.2970   48.3291 H   0  0  0  0  0  0  0  0  0  0  0  0
  1  2  1  0
  2  3  2  0
  3  4  1  0
  4  5  2  0
  5  6  1  0
  6  7  2  0
  7  8  1  0
  8  9  1  0
  9 10  2  0
 10 11  1  0
 11 12  2  0
 12 13  1  0
 13 14  1  0
 14 15  2  0
 15 16  1  0
 16 17  2  0
 17 18  1  0
 18 19  1  0
 19 20  1  0
 20 21  2  0
 21 22  1  0
 12 23  1  0
 23 24  2  0
  7  2  1  0
 24  9  1  0
 22 14  1  0
 22 18  2  0
  3 25  1  0
  4 26  1  0
  5 27  1  0
  6 28  1  0
 10 29  1  0
 11 30  1  0
 13 31  1  0
 16 32  1  0
 19 33  1  0
 20 34  1  0
 21 35  1  0
 23 36  1  0
 24 37  1  0
M  END
>  <meeko>  (2) 
{"is_sidechain": [false], "free_energy": -8.439, "intermolecular_energy": -10.199, "internal_energy": -0.521}

$$$$
9IV_ttbk2_out
     RDKit          3D

 37 40  0  0  0  0  0  0  0  0999 V2000
  180.9200   14.2550   44.9950 Cl  0  0  0  0  0  0  0  0  0  0  0  0
  180.8640   15.1780   43.5390 C   0  0  0  0  0  0  0  0  0  0  0  0
  180.4710   14.5420   42.3590 C   0  0  0  0  0  0  0  0  0  0  0  0
  180.4140   15.2620   41.1630 C   0  0  0  0  0  0  0  0  0  0  0  0
  180.7420   16.6170   41.1460 C   0  0  0  0  0  0  0  0  0  0  0  0
  181.1350   17.2570   42.3230 C   0  0  0  0  0  0  0  0  0  0  0  0
  181.2140   16.5330   43.5190 C   0  0  0  0  0  0  0  0  0  0  0  0
  181.5610   17.1560   44.6980 O   0  0  0  0  0  0  0  0  0  0  0  0
  180.7630   18.1980   45.1130 C   0  0  0  0  0  0  0  0  0  0  0  0
  181.1710   19.5320   45.0750 C   0  0  0  0  0  0  0  0  0  0  0  0
  180.3140   20.5310   45.5440 C   0  0  0  0  0  0  0  0  0  0  0  0
  179.0470   20.2160   46.0560 C   0  0  0  0  0  0  0  0  0  0  0  0
  178.2430   21.2690   46.5410 N   0  0  0  0  0  0  0  0  0  0  0  0
  178.0220   21.6440   47.8750 C   0  0  0  0  0  0  0  0  0  0  0  0
  178.7470   22.6930   48.3410 N   0  0  0  0  0  0  0  0  0  0  0  0
  178.5590   23.0940   49.6140 C   0  0  0  0  0  0  0  0  0  0  0  0
  177.7120   22.5910   50.5260 N   0  0  0  0  0  0  0  0  0  0  0  0
  176.9940   21.5790   50.0170 C   0  0  0  0  0  0  0  0  0  0  0  0
  176.0330   20.8890   50.7020 N   0  0  0  0  0  0  0  0  0  0  0  0
  175.4750   19.9380   49.8860 C   0  0  0  0  0  0  0  0  0  0  0  0
  176.0970   20.0240   48.6580 C   0  0  0  0  0  0  0  0  0  0  0  0
  177.0760   21.0570   48.7350 C   0  0  0  0  0  0  0  0  0  0  0  0
  178.6730   18.8690   46.1260 C   0  0  0  0  0  0  0  0  0  0  0  0
  179.5250   17.8640   45.6590 C   0  0  0  0  0  0  0  0  0  0  0  0
  180.2064   13.4744   42.3714 H   0  0  0  0  0  0  0  0  0  0  0  0
  180.1098   14.7590   40.2332 H   0  0  0  0  0  0  0  0  0  0  0  0
  180.6911   17.1826   40.2039 H   0  0  0  0  0  0  0  0  0  0  0  0
  181.3823   18.3288   42.3108 H   0  0  0  0  0  0  0  0  0  0  0  0
  182.1623   19.7957   44.6778 H   0  0  0  0  0  0  0  0  0  0  0  0
  180.6384   21.5816   45.5111 H   0  0  0  0  0  0  0  0  0  0  0  0
  177.7800   21.8070   45.8590 H   0  0  0  0  0  0  0  0  0  0  0  0
  179.1776   23.9401   49.9477 H   0  0  0  0  0  0  0  0  0  0  0  0
  175.7800   21.0490   51.6400 H   0  0  0  0  0  0  0  0  0  0  0  0
  174.6759   19.2340   50.1613 H   0  0  0  0  0  0  0  0  0  0  0  0
  175.8766   19.4051   47.7757 H   0  0  0  0  0  0  0  0  0  0  0  0
  177.6965   18.5979   46.5538 H   0  0  0  0  0  0  0  0  0  0  0  0
  179.2183   16.8095   45.7225 H   0  0  0  0  0  0  0  0  0  0  0  0
  1  2  1  0
  2  3  2  0
  3  4  1  0
  4  5  2  0
  5  6  1  0
  6  7  2  0
  7  8  1  0
  8  9  1  0
  9 10  2  0
 10 11  1  0
 11 12  2  0
 12 13  1  0
 13 14  1  0
 14 15  2  0
 15 16  1  0
 16 17  2  0
 17 18  1  0
 18 19  1  0
 19 20  1  0
 20 21  2  0
 21 22  1  0
 12 23  1  0
 23 24  2  0
  7  2  1  0
 24  9  1  0
 22 14  1  0
 22 18  2  0
  3 25  1  0
  4 26  1  0
  5 27  1  0
  6 28  1  0
 10 29  1  0
 11 30  1  0
 13 31  1  0
 16 32  1  0
 19 33  1  0
 20 34  1  0
 21 35  1  0
 23 36  1  0
 24 37  1  0
M  END
>  <meeko>  (3) 
{"is_sidechain": [false], "free_energy": -8.276, "intermolecular_energy": -9.598, "internal_energy": -0.921}

$$$$
9IV_ttbk2_out
     RDKit          3D

 37 40  0  0  0  0  0  0  0  0999 V2000
  180.9270   14.2830   45.0320 Cl  0  0  0  0  0  0  0  0  0  0  0  0
  180.8670   15.1600   43.5480 C   0  0  0  0  0  0  0  0  0  0  0  0
  180.4510   14.4930   42.3930 C   0  0  0  0  0  0  0  0  0  0  0  0
  180.3900   15.1740   41.1750 C   0  0  0  0  0  0  0  0  0  0  0  0
  180.7380   16.5230   41.1110 C   0  0  0  0  0  0  0  0  0  0  0  0
  181.1540   17.1940   42.2620 C   0  0  0  0  0  0  0  0  0  0  0  0
  181.2370   16.5080   43.4800 C   0  0  0  0  0  0  0  0  0  0  0  0
  181.6070   17.1640   44.6340 O   0  0  0  0  0  0  0  0  0  0  0  0
  180.7970   18.1930   45.0550 C   0  0  0  0  0  0  0  0  0  0  0  0
  181.1650   19.5360   44.9670 C   0  0  0  0  0  0  0  0  0  0  0  0
  180.3000   20.5240   45.4460 C   0  0  0  0  0  0  0  0  0  0  0  0
  179.0640   20.1880   46.0170 C   0  0  0  0  0  0  0  0  0  0  0  0
  178.2510   21.2300   46.5090 N   0  0  0  0  0  0  0  0  0  0  0  0
  177.0850   21.1260   47.2840 C   0  0  0  0  0  0  0  0  0  0  0  0
  175.9430   20.8030   46.6250 N   0  0  0  0  0  0  0  0  0  0  0  0
  174.8020   20.6820   47.3320 C   0  0  0  0  0  0  0  0  0  0  0  0
  174.6250   20.8280   48.6550 N   0  0  0  0  0  0  0  0  0  0  0  0
  175.7810   21.1140   49.2710 C   0  0  0  0  0  0  0  0  0  0  0  0
  175.9170   21.2930   50.6200 N   0  0  0  0  0  0  0  0  0  0  0  0
  177.2310   21.5460   50.9230 C   0  0  0  0  0  0  0  0  0  0  0  0
  177.9430   21.5310   49.7420 C   0  0  0  0  0  0  0  0  0  0  0  0
  177.0260   21.2720   48.6810 C   0  0  0  0  0  0  0  0  0  0  0  0
  178.7320   18.8330   46.1370 C   0  0  0  0  0  0  0  0  0  0  0  0
  179.5920   17.8400   45.6600 C   0  0  0  0  0  0  0  0  0  0  0  0
  180.1712   13.4304   42.4429 H   0  0  0  0  0  0  0  0  0  0  0  0
  180.0672   14.6459   40.2656 H   0  0  0  0  0  0  0  0  0  0  0  0
  180.6846   17.0590   40.1519 H   0  0  0  0  0  0  0  0  0  0  0  0
  181.4165   18.2611   42.2124 H   0  0  0  0  0  0  0  0  0  0  0  0
  182.1315   19.8160   44.5227 H   0  0  0  0  0  0  0  0  0  0  0  0
  180.5934   21.5817   45.3739 H   0  0  0  0  0  0  0  0  0  0  0  0
  178.5360   22.1440   46.2790 H   0  0  0  0  0  0  0  0  0  0  0  0
  173.9016   20.4319   46.7517 H   0  0  0  0  0  0  0  0  0  0  0  0
  175.1840   21.2480   51.2740 H   0  0  0  0  0  0  0  0  0  0  0  0
  177.6424   21.7280   51.9268 H   0  0  0  0  0  0  0  0  0  0  0  0
  179.0263   21.6905   49.6370 H   0  0  0  0  0  0  0  0  0  0  0  0
  177.7824   18.5465   46.6127 H   0  0  0  0  0  0  0  0  0  0  0  0
  179.3178   16.7796   45.7621 H   0  0  0  0  0  0  0  0  0  0  0  0
  1  2  1  0
  2  3  2  0
  3  4  1  0
  4  5  2  0
  5  6  1  0
  6  7  2  0
  7  8  1  0
  8  9  1  0
  9 10  2  0
 10 11  1  0
 11 12  2  0
 12 13  1  0
 13 14  1  0
 14 15  2  0
 15 16  1  0
 16 17  2  0
 17 18  1  0
 18 19  1  0
 19 20  1  0
 20 21  2  0
 21 22  1  0
 12 23  1  0
 23 24  2  0
  7  2  1  0
 24  9  1  0
 22 14  1  0
 22 18  2  0
  3 25  1  0
  4 26  1  0
  5 27  1  0
  6 28  1  0
 10 29  1  0
 11 30  1  0
 13 31  1  0
 16 32  1  0
 19 33  1  0
 20 34  1  0
 21 35  1  0
 23 36  1  0
 24 37  1  0
M  END
>  <meeko>  (4) 
{"is_sidechain": [false], "free_energy": -8.22, "intermolecular_energy": -9.632, "internal_energy": -0.817}

$$$$
9IV_ttbk2_out
     RDKit          3D

 37 40  0  0  0  0  0  0  0  0999 V2000
  181.4580   16.5910   41.4860 Cl  0  0  0  0  0  0  0  0  0  0  0  0
  180.8280   15.8700   42.9210 C   0  0  0  0  0  0  0  0  0  0  0  0
  180.2990   14.5790   42.8430 C   0  0  0  0  0  0  0  0  0  0  0  0
  179.7820   13.9660   43.9860 C   0  0  0  0  0  0  0  0  0  0  0  0
  179.7980   14.6380   45.2080 C   0  0  0  0  0  0  0  0  0  0  0  0
  180.3270   15.9280   45.2900 C   0  0  0  0  0  0  0  0  0  0  0  0
  180.8260   16.5530   44.1410 C   0  0  0  0  0  0  0  0  0  0  0  0
  181.3870   17.8090   44.2110 O   0  0  0  0  0  0  0  0  0  0  0  0
  180.7840   18.7180   45.0500 C   0  0  0  0  0  0  0  0  0  0  0  0
  179.4530   18.6130   45.4550 C   0  0  0  0  0  0  0  0  0  0  0  0
  178.9030   19.5950   46.2840 C   0  0  0  0  0  0  0  0  0  0  0  0
  179.6670   20.6880   46.7170 C   0  0  0  0  0  0  0  0  0  0  0  0
  179.0430   21.6590   47.5280 N   0  0  0  0  0  0  0  0  0  0  0  0
  178.3730   21.4670   48.7460 C   0  0  0  0  0  0  0  0  0  0  0  0
  179.0850   21.7050   49.8770 N   0  0  0  0  0  0  0  0  0  0  0  0
  178.4780   21.5430   51.0690 C   0  0  0  0  0  0  0  0  0  0  0  0
  177.2100   21.1760   51.3120 N   0  0  0  0  0  0  0  0  0  0  0  0
  176.5330   20.9820   50.1710 C   0  0  0  0  0  0  0  0  0  0  0  0
  175.2140   20.6270   50.1020 N   0  0  0  0  0  0  0  0  0  0  0  0
  174.8270   20.5360   48.7890 C   0  0  0  0  0  0  0  0  0  0  0  0
  175.9230   20.8360   48.0080 C   0  0  0  0  0  0  0  0  0  0  0  0
  177.0200   21.1070   48.8780 C   0  0  0  0  0  0  0  0  0  0  0  0
  180.9870   20.7990   46.2640 C   0  0  0  0  0  0  0  0  0  0  0  0
  181.5440   19.8210   45.4350 C   0  0  0  0  0  0  0  0  0  0  0  0
  180.2899   14.0456   41.8810 H   0  0  0  0  0  0  0  0  0  0  0  0
  179.3614   12.9515   43.9226 H   0  0  0  0  0  0  0  0  0  0  0  0
  179.3937   14.1516   46.1080 H   0  0  0  0  0  0  0  0  0  0  0  0
  180.3515   16.4525   46.2566 H   0  0  0  0  0  0  0  0  0  0  0  0
  178.8397   17.7620   45.1237 H   0  0  0  0  0  0  0  0  0  0  0  0
  177.8535   19.5088   46.6019 H   0  0  0  0  0  0  0  0  0  0  0  0
  179.0820   22.5850   47.1980 H   0  0  0  0  0  0  0  0  0  0  0  0
  179.1004   21.7360   51.9552 H   0  0  0  0  0  0  0  0  0  0  0  0
  174.6300   20.4620   50.8770 H   0  0  0  0  0  0  0  0  0  0  0  0
  173.8233   20.2714   48.4249 H   0  0  0  0  0  0  0  0  0  0  0  0
  175.9470   20.8617   46.9086 H   0  0  0  0  0  0  0  0  0  0  0  0
  181.5932   21.6664   46.5641 H   0  0  0  0  0  0  0  0  0  0  0  0
  182.5824   19.9220   45.0864 H   0  0  0  0  0  0  0  0  0  0  0  0
  1  2  1  0
  2  3  2  0
  3  4  1  0
  4  5  2  0
  5  6  1  0
  6  7  2  0
  7  8  1  0
  8  9  1  0
  9 10  2  0
 10 11  1  0
 11 12  2  0
 12 13  1  0
 13 14  1  0
 14 15  2  0
 15 16  1  0
 16 17  2  0
 17 18  1  0
 18 19  1  0
 19 20  1  0
 20 21  2  0
 21 22  1  0
 12 23  1  0
 23 24  2  0
  7  2  1  0
 24  9  1  0
 22 14  1  0
 22 18  2  0
  3 25  1  0
  4 26  1  0
  5 27  1  0
  6 28  1  0
 10 29  1  0
 11 30  1  0
 13 31  1  0
 16 32  1  0
 19 33  1  0
 20 34  1  0
 21 35  1  0
 23 36  1  0
 24 37  1  0
M  END
>  <meeko>  (5) 
{"is_sidechain": [false], "free_energy": -7.816, "intermolecular_energy": -9.818, "internal_energy": -0.133}

$$$$
9IV_ttbk2_out
     RDKit          3D

 37 40  0  0  0  0  0  0  0  0999 V2000
  178.6630   23.7290   47.3150 Cl  0  0  0  0  0  0  0  0  0  0  0  0
  180.0320   23.6150   48.3590 C   0  0  0  0  0  0  0  0  0  0  0  0
  180.7670   24.7730   48.6280 C   0  0  0  0  0  0  0  0  0  0  0  0
  181.8800   24.7150   49.4700 C   0  0  0  0  0  0  0  0  0  0  0  0
  182.2560   23.5030   50.0490 C   0  0  0  0  0  0  0  0  0  0  0  0
  181.5230   22.3440   49.7840 C   0  0  0  0  0  0  0  0  0  0  0  0
  180.4200   22.3950   48.9230 C   0  0  0  0  0  0  0  0  0  0  0  0
  179.6630   21.2700   48.6820 O   0  0  0  0  0  0  0  0  0  0  0  0
  179.9380   20.5650   47.5330 C   0  0  0  0  0  0  0  0  0  0  0  0
  178.9470   19.9900   46.7370 C   0  0  0  0  0  0  0  0  0  0  0  0
  179.3080   19.2620   45.6000 C   0  0  0  0  0  0  0  0  0  0  0  0
  180.6540   19.0970   45.2440 C   0  0  0  0  0  0  0  0  0  0  0  0
  180.9530   18.3260   44.1020 N   0  0  0  0  0  0  0  0  0  0  0  0
  180.8210   16.9380   43.9370 C   0  0  0  0  0  0  0  0  0  0  0  0
  180.4620   16.2250   45.0350 N   0  0  0  0  0  0  0  0  0  0  0  0
  180.3140   14.8910   44.9190 C   0  0  0  0  0  0  0  0  0  0  0  0
  180.4650   14.1300   43.8230 N   0  0  0  0  0  0  0  0  0  0  0  0
  180.7870   14.8750   42.7560 C   0  0  0  0  0  0  0  0  0  0  0  0
  180.9790   14.3820   41.4950 N   0  0  0  0  0  0  0  0  0  0  0  0
  181.2710   15.4090   40.6340 C   0  0  0  0  0  0  0  0  0  0  0  0
  181.2670   16.5790   41.3650 C   0  0  0  0  0  0  0  0  0  0  0  0
  180.9750   16.2490   42.7200 C   0  0  0  0  0  0  0  0  0  0  0  0
  181.6360   19.6440   46.0790 C   0  0  0  0  0  0  0  0  0  0  0  0
  181.2820   20.3730   47.2180 C   0  0  0  0  0  0  0  0  0  0  0  0
  180.4688   25.7306   48.1763 H   0  0  0  0  0  0  0  0  0  0  0  0
  182.4606   25.6261   49.6767 H   0  0  0  0  0  0  0  0  0  0  0  0
  183.1305   23.4599   50.7149 H   0  0  0  0  0  0  0  0  0  0  0  0
  181.8122   21.3913   50.2516 H   0  0  0  0  0  0  0  0  0  0  0  0
  177.8863   20.1091   47.0031 H   0  0  0  0  0  0  0  0  0  0  0  0
  178.5235   18.8112   44.9744 H   0  0  0  0  0  0  0  0  0  0  0  0
  181.2970   18.8220   43.3240 H   0  0  0  0  0  0  0  0  0  0  0  0
  180.0338   14.3573   45.8391 H   0  0  0  0  0  0  0  0  0  0  0  0
  180.9180   13.4320   41.2420 H   0  0  0  0  0  0  0  0  0  0  0  0
  181.4719   15.3165   39.5565 H   0  0  0  0  0  0  0  0  0  0  0  0
  181.4559   17.5886   40.9712 H   0  0  0  0  0  0  0  0  0  0  0  0
  182.6988   19.4983   45.8357 H   0  0  0  0  0  0  0  0  0  0  0  0
  182.0644   20.7952   47.8658 H   0  0  0  0  0  0  0  0  0  0  0  0
  1  2  1  0
  2  3  2  0
  3  4  1  0
  4  5  2  0
  5  6  1  0
  6  7  2  0
  7  8  1  0
  8  9  1  0
  9 10  2  0
 10 11  1  0
 11 12  2  0
 12 13  1  0
 13 14  1  0
 14 15  2  0
 15 16  1  0
 16 17  2  0
 17 18  1  0
 18 19  1  0
 19 20  1  0
 20 21  2  0
 21 22  1  0
 12 23  1  0
 23 24  2  0
  7  2  1  0
 24  9  1  0
 22 14  1  0
 22 18  2  0
  3 25  1  0
  4 26  1  0
  5 27  1  0
  6 28  1  0
 10 29  1  0
 11 30  1  0
 13 31  1  0
 16 32  1  0
 19 33  1  0
 20 34  1  0
 21 35  1  0
 23 36  1  0
 24 37  1  0
M  END
>  <meeko>  (6) 
{"is_sidechain": [false], "free_energy": -7.785, "intermolecular_energy": -9.507, "internal_energy": -0.406}

$$$$
9IV_ttbk2_out
     RDKit          3D

 37 40  0  0  0  0  0  0  0  0999 V2000
  180.0500   17.4530   45.2990 Cl  0  0  0  0  0  0  0  0  0  0  0  0
  180.2500   19.0390   45.9460 C   0  0  0  0  0  0  0  0  0  0  0  0
  181.5090   19.6400   45.8680 C   0  0  0  0  0  0  0  0  0  0  0  0
  181.7030   20.9240   46.3820 C   0  0  0  0  0  0  0  0  0  0  0  0
  180.6400   21.6120   46.9680 C   0  0  0  0  0  0  0  0  0  0  0  0
  179.3800   21.0150   47.0460 C   0  0  0  0  0  0  0  0  0  0  0  0
  179.1880   19.7190   46.5520 C   0  0  0  0  0  0  0  0  0  0  0  0
  177.9420   19.1310   46.5850 O   0  0  0  0  0  0  0  0  0  0  0  0
  176.9500   19.8060   47.2580 C   0  0  0  0  0  0  0  0  0  0  0  0
  176.5910   19.5190   48.5750 C   0  0  0  0  0  0  0  0  0  0  0  0
  175.5500   20.2290   49.1790 C   0  0  0  0  0  0  0  0  0  0  0  0
  174.8550   21.2280   48.4820 C   0  0  0  0  0  0  0  0  0  0  0  0
  173.7950   21.8860   49.1390 N   0  0  0  0  0  0  0  0  0  0  0  0
  173.6670   23.2560   49.4170 C   0  0  0  0  0  0  0  0  0  0  0  0
  172.4260   23.7900   49.2880 N   0  0  0  0  0  0  0  0  0  0  0  0
  172.2560   25.1010   49.5550 C   0  0  0  0  0  0  0  0  0  0  0  0
  173.1740   25.9920   49.9610 N   0  0  0  0  0  0  0  0  0  0  0  0
  174.3770   25.4170   50.1060 C   0  0  0  0  0  0  0  0  0  0  0  0
  175.5010   26.0690   50.5320 N   0  0  0  0  0  0  0  0  0  0  0  0
  176.5520   25.1890   50.5940 C   0  0  0  0  0  0  0  0  0  0  0  0
  176.0860   23.9530   50.1970 C   0  0  0  0  0  0  0  0  0  0  0  0
  174.7050   24.0910   49.8690 C   0  0  0  0  0  0  0  0  0  0  0  0
  175.2000   21.4710   47.1470 C   0  0  0  0  0  0  0  0  0  0  0  0
  176.2400   20.7650   46.5370 C   0  0  0  0  0  0  0  0  0  0  0  0
  182.3474   19.1018   45.4017 H   0  0  0  0  0  0  0  0  0  0  0  0
  182.6959   21.3939   46.3247 H   0  0  0  0  0  0  0  0  0  0  0  0
  180.7945   22.6248   47.3686 H   0  0  0  0  0  0  0  0  0  0  0  0
  178.5386   21.5627   47.4954 H   0  0  0  0  0  0  0  0  0  0  0  0
  177.1249   18.7374   49.1355 H   0  0  0  0  0  0  0  0  0  0  0  0
  175.2711   20.0006   50.2182 H   0  0  0  0  0  0  0  0  0  0  0  0
  173.0530   21.3140   49.4410 H   0  0  0  0  0  0  0  0  0  0  0  0
  171.2353   25.4894   49.4233 H   0  0  0  0  0  0  0  0  0  0  0  0
  175.5500   27.0260   50.7590 H   0  0  0  0  0  0  0  0  0  0  0  0
  177.5803   25.4264   50.9042 H   0  0  0  0  0  0  0  0  0  0  0  0
  176.6750   23.0255   50.1430 H   0  0  0  0  0  0  0  0  0  0  0  0
  174.6456   22.2269   46.5714 H   0  0  0  0  0  0  0  0  0  0  0  0
  176.4988   20.9660   45.4869 H   0  0  0  0  0  0  0  0  0  0  0  0
  1  2  1  0
  2  3  2  0
  3  4  1  0
  4  5  2  0
  5  6  1  0
  6  7  2  0
  7  8  1  0
  8  9  1  0
  9 10  2  0
 10 11  1  0
 11 12  2  0
 12 13  1  0
 13 14  1  0
 14 15  2  0
 15 16  1  0
 16 17  2  0
 17 18  1  0
 18 19  1  0
 19 20  1  0
 20 21  2  0
 21 22  1  0
 12 23  1  0
 23 24  2  0
  7  2  1  0
 24  9  1  0
 22 14  1  0
 22 18  2  0
  3 25  1  0
  4 26  1  0
  5 27  1  0
  6 28  1  0
 10 29  1  0
 11 30  1  0
 13 31  1  0
 16 32  1  0
 19 33  1  0
 20 34  1  0
 21 35  1  0
 23 36  1  0
 24 37  1  0
M  END
>  <meeko>  (7) 
{"is_sidechain": [false], "free_energy": -7.762, "intermolecular_energy": -9.297, "internal_energy": -0.587}

$$$$
9IV_ttbk2_out
     RDKit          3D

 37 40  0  0  0  0  0  0  0  0999 V2000
  182.9440   22.9600   51.1060 Cl  0  0  0  0  0  0  0  0  0  0  0  0
  183.6640   23.5880   49.6700 C   0  0  0  0  0  0  0  0  0  0  0  0
  184.2480   24.8560   49.7140 C   0  0  0  0  0  0  0  0  0  0  0  0
  184.8400   25.3940   48.5690 C   0  0  0  0  0  0  0  0  0  0  0  0
  184.8550   24.6630   47.3810 C   0  0  0  0  0  0  0  0  0  0  0  0
  184.2730   23.3950   47.3320 C   0  0  0  0  0  0  0  0  0  0  0  0
  183.6590   22.8630   48.4730 C   0  0  0  0  0  0  0  0  0  0  0  0
  183.1150   21.5980   48.4540 O   0  0  0  0  0  0  0  0  0  0  0  0
  181.9120   21.4440   47.8040 C   0  0  0  0  0  0  0  0  0  0  0  0
  180.8980   22.4030   47.8420 C   0  0  0  0  0  0  0  0  0  0  0  0
  179.6910   22.1590   47.1820 C   0  0  0  0  0  0  0  0  0  0  0  0
  179.4780   20.9650   46.4800 C   0  0  0  0  0  0  0  0  0  0  0  0
  178.2260   20.7680   45.8600 N   0  0  0  0  0  0  0  0  0  0  0  0
  177.0690   20.1960   46.4100 C   0  0  0  0  0  0  0  0  0  0  0  0
  176.7880   18.9190   46.0450 N   0  0  0  0  0  0  0  0  0  0  0  0
  175.6920   18.3270   46.5580 C   0  0  0  0  0  0  0  0  0  0  0  0
  174.8030   18.8340   47.4260 N   0  0  0  0  0  0  0  0  0  0  0  0
  175.1330   20.0830   47.7850 C   0  0  0  0  0  0  0  0  0  0  0  0
  174.4300   20.8460   48.6760 N   0  0  0  0  0  0  0  0  0  0  0  0
  175.0500   22.0590   48.8380 C   0  0  0  0  0  0  0  0  0  0  0  0
  176.1680   22.0680   48.0310 C   0  0  0  0  0  0  0  0  0  0  0  0
  176.2220   20.8200   47.3440 C   0  0  0  0  0  0  0  0  0  0  0  0
  180.4890   19.9960   46.4900 C   0  0  0  0  0  0  0  0  0  0  0  0
  181.6990   20.2330   47.1490 C   0  0  0  0  0  0  0  0  0  0  0  0
  184.2417   25.4316   50.6514 H   0  0  0  0  0  0  0  0  0  0  0  0
  185.2948   26.3950   48.6041 H   0  0  0  0  0  0  0  0  0  0  0  0
  185.3261   25.0863   46.4816 H   0  0  0  0  0  0  0  0  0  0  0  0
  184.2966   22.8142   46.3981 H   0  0  0  0  0  0  0  0  0  0  0  0
  181.0486   23.3456   48.3886 H   0  0  0  0  0  0  0  0  0  0  0  0
  178.8944   22.9169   47.2139 H   0  0  0  0  0  0  0  0  0  0  0  0
  178.1560   21.0700   44.9250 H   0  0  0  0  0  0  0  0  0  0  0  0
  175.5016   17.2968   46.2227 H   0  0  0  0  0  0  0  0  0  0  0  0
  173.6040   20.5670   49.1330 H   0  0  0  0  0  0  0  0  0  0  0  0
  174.7156   22.8768   49.4933 H   0  0  0  0  0  0  0  0  0  0  0  0
  176.8902   22.8921   47.9344 H   0  0  0  0  0  0  0  0  0  0  0  0
  180.3293   19.0379   45.9737 H   0  0  0  0  0  0  0  0  0  0  0  0
  182.4839   19.4623   47.1503 H   0  0  0  0  0  0  0  0  0  0  0  0
  1  2  1  0
  2  3  2  0
  3  4  1  0
  4  5  2  0
  5  6  1  0
  6  7  2  0
  7  8  1  0
  8  9  1  0
  9 10  2  0
 10 11  1  0
 11 12  2  0
 12 13  1  0
 13 14  1  0
 14 15  2  0
 15 16  1  0
 16 17  2  0
 17 18  1  0
 18 19  1  0
 19 20  1  0
 20 21  2  0
 21 22  1  0
 12 23  1  0
 23 24  2  0
  7  2  1  0
 24  9  1  0
 22 14  1  0
 22 18  2  0
  3 25  1  0
  4 26  1  0
  5 27  1  0
  6 28  1  0
 10 29  1  0
 11 30  1  0
 13 31  1  0
 16 32  1  0
 19 33  1  0
 20 34  1  0
 21 35  1  0
 23 36  1  0
 24 37  1  0
M  END
>  <meeko>  (8) 
{"is_sidechain": [false], "free_energy": -7.53, "intermolecular_energy": -8.718, "internal_energy": -0.88}

$$$$
9IV_ttbk2_out
     RDKit          3D

 37 40  0  0  0  0  0  0  0  0999 V2000
  174.1690   23.9660   52.7790 Cl  0  0  0  0  0  0  0  0  0  0  0  0
  173.2300   24.2940   51.3700 C   0  0  0  0  0  0  0  0  0  0  0  0
  172.4770   25.4700   51.3270 C   0  0  0  0  0  0  0  0  0  0  0  0
  171.7070   25.7660   50.2000 C   0  0  0  0  0  0  0  0  0  0  0  0
  171.6940   24.8920   49.1130 C   0  0  0  0  0  0  0  0  0  0  0  0
  172.4460   23.7170   49.1510 C   0  0  0  0  0  0  0  0  0  0  0  0
  173.2020   23.4070   50.2890 C   0  0  0  0  0  0  0  0  0  0  0  0
  173.9810   22.2710   50.3280 O   0  0  0  0  0  0  0  0  0  0  0  0
  175.0340   22.2040   49.4460 C   0  0  0  0  0  0  0  0  0  0  0  0
  175.9850   23.2170   49.3160 C   0  0  0  0  0  0  0  0  0  0  0  0
  177.0090   23.0890   48.3740 C   0  0  0  0  0  0  0  0  0  0  0  0
  177.0980   21.9570   47.5520 C   0  0  0  0  0  0  0  0  0  0  0  0
  178.1390   21.9030   46.6010 N   0  0  0  0  0  0  0  0  0  0  0  0
  179.2660   21.0680   46.6000 C   0  0  0  0  0  0  0  0  0  0  0  0
  179.4940   20.3540   45.4670 N   0  0  0  0  0  0  0  0  0  0  0  0
  180.5710   19.5460   45.4180 C   0  0  0  0  0  0  0  0  0  0  0  0
  181.5020   19.3450   46.3650 N   0  0  0  0  0  0  0  0  0  0  0  0
  181.2590   20.0910   47.4520 C   0  0  0  0  0  0  0  0  0  0  0  0
  182.0490   20.1170   48.5670 N   0  0  0  0  0  0  0  0  0  0  0  0
  181.5330   21.0010   49.4810 C   0  0  0  0  0  0  0  0  0  0  0  0
  180.3890   21.5450   48.9350 C   0  0  0  0  0  0  0  0  0  0  0  0
  180.1970   20.9610   47.6490 C   0  0  0  0  0  0  0  0  0  0  0  0
  176.1100   20.9720   47.6650 C   0  0  0  0  0  0  0  0  0  0  0  0
  175.0830   21.0930   48.6060 C   0  0  0  0  0  0  0  0  0  0  0  0
  172.4906   26.1631   52.1811 H   0  0  0  0  0  0  0  0  0  0  0  0
  171.1101   26.6895   50.1696 H   0  0  0  0  0  0  0  0  0  0  0  0
  171.0902   25.1292   48.2246 H   0  0  0  0  0  0  0  0  0  0  0  0
  172.4451   23.0348   48.2881 H   0  0  0  0  0  0  0  0  0  0  0  0
  175.9287   24.1124   49.9524 H   0  0  0  0  0  0  0  0  0  0  0  0
  177.7573   23.8893   48.2759 H   0  0  0  0  0  0  0  0  0  0  0  0
  178.0650   22.5300   45.8460 H   0  0  0  0  0  0  0  0  0  0  0  0
  180.7047   18.9794   44.4847 H   0  0  0  0  0  0  0  0  0  0  0  0
  182.8650   19.5820   48.6960 H   0  0  0  0  0  0  0  0  0  0  0  0
  181.9551   21.2336   50.4698 H   0  0  0  0  0  0  0  0  0  0  0  0
  179.7399   22.2964   49.4082 H   0  0  0  0  0  0  0  0  0  0  0  0
  176.1419   20.0922   47.0056 H   0  0  0  0  0  0  0  0  0  0  0  0
  174.3133   20.3109   48.6834 H   0  0  0  0  0  0  0  0  0  0  0  0
  1  2  1  0
  2  3  2  0
  3  4  1  0
  4  5  2  0
  5  6  1  0
  6  7  2  0
  7  8  1  0
  8  9  1  0
  9 10  2  0
 10 11  1  0
 11 12  2  0
 12 13  1  0
 13 14  1  0
 14 15  2  0
 15 16  1  0
 16 17  2  0
 17 18  1  0
 18 19  1  0
 19 20  1  0
 20 21  2  0
 21 22  1  0
 12 23  1  0
 23 24  2  0
  7  2  1  0
 24  9  1  0
 22 14  1  0
 22 18  2  0
  3 25  1  0
  4 26  1  0
  5 27  1  0
  6 28  1  0
 10 29  1  0
 11 30  1  0
 13 31  1  0
 16 32  1  0
 19 33  1  0
 20 34  1  0
 21 35  1  0
 23 36  1  0
 24 37  1  0
M  END
>  <meeko>  (9) 
{"is_sidechain": [false], "free_energy": -7.454, "intermolecular_energy": -8.552, "internal_energy": -0.953}

$$$$
