selegiline_out
     RDKit          3D

 32 32  0  0  0  0  0  0  0  0999 V2000
  175.5710   18.1350   46.5680 C   0  0  0  0  0  0  0  0  0  0  0  0
  175.5630   18.8140   47.5590 C   0  0  0  0  0  0  0  0  0  0  0  0
  175.5550   19.6400   48.7790 C   0  0  0  0  0  0  0  0  0  0  0  0
  175.8220   21.0570   48.4760 N   0  0  1  0  0  0  0  0  0  0  0  0
  174.8860   21.9330   49.1860 C   0  0  0  0  0  0  0  0  0  0  0  0
  177.2510   21.4050   48.6870 C   0  0  2  0  0  0  0  0  0  0  0  0
  177.4950   22.4020   49.8320 C   0  0  0  0  0  0  0  0  0  0  0  0
  177.8880   21.9030   47.3600 C   0  0  0  0  0  0  0  0  0  0  0  0
  179.0690   21.0750   46.9020 C   0  0  0  0  0  0  0  0  0  0  0  0
  180.3770   21.5610   47.0320 C   0  0  0  0  0  0  0  0  0  0  0  0
  181.4630   20.7900   46.6160 C   0  0  0  0  0  0  0  0  0  0  0  0
  181.2530   19.5260   46.0670 C   0  0  0  0  0  0  0  0  0  0  0  0
  179.9570   19.0350   45.9300 C   0  0  0  0  0  0  0  0  0  0  0  0
  178.8690   19.8040   46.3450 C   0  0  0  0  0  0  0  0  0  0  0  0
  175.5783   17.5133   45.6606 H   0  0  0  0  0  0  0  0  0  0  0  0
  174.5690   19.5573   49.2597 H   0  0  0  0  0  0  0  0  0  0  0  0
  176.3493   19.2752   49.4469 H   0  0  0  0  0  0  0  0  0  0  0  0
  175.6520   21.2110   47.4830 H   0  0  0  0  0  0  0  0  0  0  0  0
  175.0187   21.8088   50.2709 H   0  0  0  0  0  0  0  0  0  0  0  0
  175.0821   22.9796   48.9100 H   0  0  0  0  0  0  0  0  0  0  0  0
  173.8547   21.6681   48.9100 H   0  0  0  0  0  0  0  0  0  0  0  0
  177.7479   20.4765   49.0047 H   0  0  0  0  0  0  0  0  0  0  0  0
  177.3696   21.8896   50.7973 H   0  0  0  0  0  0  0  0  0  0  0  0
  178.5174   22.8013   49.7589 H   0  0  0  0  0  0  0  0  0  0  0  0
  176.7726   23.2283   49.7589 H   0  0  0  0  0  0  0  0  0  0  0  0
  177.1189   21.8750   46.5740 H   0  0  0  0  0  0  0  0  0  0  0  0
  178.2624   22.9205   47.5459 H   0  0  0  0  0  0  0  0  0  0  0  0
  180.5488   22.5575   47.4651 H   0  0  0  0  0  0  0  0  0  0  0  0
  182.4861   21.1801   46.7214 H   0  0  0  0  0  0  0  0  0  0  0  0
  182.1098   18.9172   45.7424 H   0  0  0  0  0  0  0  0  0  0  0  0
  179.7906   18.0390   45.4938 H   0  0  0  0  0  0  0  0  0  0  0  0
  177.8478   19.4104   46.2344 H   0  0  0  0  0  0  0  0  0  0  0  0
  1  2  3  0
  2  3  1  0
  3  4  1  0
  4  5  1  0
  4  6  1  0
  6  7  1  0
  6  8  1  0
  8  9  1  0
  9 10  2  0
 10 11  1  0
 11 12  2  0
 12 13  1  0
 13 14  2  0
 14  9  1  0
  1 15  1  0
  3 16  1  0
  3 17  1  0
  4 18  1  6
  5 19  1  0
  5 20  1  0
  5 21  1  0
  6 22  1  1
  7 23  1  0
  7 24  1  0
  7 25  1  0
  8 26  1  0
  8 27  1  0
 10 28  1  0
 11 29  1  0
 12 30  1  0
 13 31  1  0
 14 32  1  0
M  CHG  1   4   1
M  END
>  <meeko>  (1) 
{"is_sidechain": [false], "free_energy": -5.432, "intermolecular_energy": -6.703, "internal_energy": -0.677}

$$$$
selegiline_out
     RDKit          3D

 32 32  0  0  0  0  0  0  0  0999 V2000
  178.1250   21.4770   51.0790 C   0  0  0  0  0  0  0  0  0  0  0  0
  177.3020   22.1790   51.6030 C   0  0  0  0  0  0  0  0  0  0  0  0
  176.2990   23.0440   52.2480 C   0  0  0  0  0  0  0  0  0  0  0  0
  175.0170   23.0220   51.5240 N   0  0  1  0  0  0  0  0  0  0  0  0
  174.0010   23.8100   52.2270 C   0  0  0  0  0  0  0  0  0  0  0  0
  175.1850   23.3930   50.0940 C   0  0  2  0  0  0  0  0  0  0  0  0
  174.7970   24.8460   49.7700 C   0  0  0  0  0  0  0  0  0  0  0  0
  174.4280   22.3900   49.1820 C   0  0  0  0  0  0  0  0  0  0  0  0
  175.3350   21.4090   48.4700 C   0  0  0  0  0  0  0  0  0  0  0  0
  175.1400   20.0280   48.6060 C   0  0  0  0  0  0  0  0  0  0  0  0
  175.9730   19.1280   47.9400 C   0  0  0  0  0  0  0  0  0  0  0  0
  177.0080   19.5980   47.1330 C   0  0  0  0  0  0  0  0  0  0  0  0
  177.2120   20.9690   46.9940 C   0  0  0  0  0  0  0  0  0  0  0  0
  176.3800   21.8710   47.6590 C   0  0  0  0  0  0  0  0  0  0  0  0
  178.8782   20.8345   50.5994 H   0  0  0  0  0  0  0  0  0  0  0  0
  176.1336   22.6925   53.2771 H   0  0  0  0  0  0  0  0  0  0  0  0
  176.6798   24.0759   52.2412 H   0  0  0  0  0  0  0  0  0  0  0  0
  174.6710   22.0630   51.5120 H   0  0  0  0  0  0  0  0  0  0  0  0
  174.1399   23.7022   53.3129 H   0  0  0  0  0  0  0  0  0  0  0  0
  174.1007   24.8693   51.9479 H   0  0  0  0  0  0  0  0  0  0  0  0
  172.9998   23.4499   51.9479 H   0  0  0  0  0  0  0  0  0  0  0  0
  176.2635   23.3311   49.8869 H   0  0  0  0  0  0  0  0  0  0  0  0
  174.6482   25.4033   50.7066 H   0  0  0  0  0  0  0  0  0  0  0  0
  175.6004   25.3185   49.1859 H   0  0  0  0  0  0  0  0  0  0  0  0
  173.8650   24.8551   49.1859 H   0  0  0  0  0  0  0  0  0  0  0  0
  173.7212   21.8209   49.8037 H   0  0  0  0  0  0  0  0  0  0  0  0
  173.9221   22.9816   48.4048 H   0  0  0  0  0  0  0  0  0  0  0  0
  174.3253   19.6510   49.2417 H   0  0  0  0  0  0  0  0  0  0  0  0
  175.8126   18.0455   48.0520 H   0  0  0  0  0  0  0  0  0  0  0  0
  177.6625   18.8875   46.6069 H   0  0  0  0  0  0  0  0  0  0  0  0
  178.0298   21.3411   46.3594 H   0  0  0  0  0  0  0  0  0  0  0  0
  176.5459   22.9525   47.5456 H   0  0  0  0  0  0  0  0  0  0  0  0
  1  2  3  0
  2  3  1  0
  3  4  1  0
  4  5  1  0
  4  6  1  0
  6  7  1  0
  6  8  1  0
  8  9  1  0
  9 10  2  0
 10 11  1  0
 11 12  2  0
 12 13  1  0
 13 14  2  0
 14  9  1  0
  1 15  1  0
  3 16  1  0
  3 17  1  0
  4 18  1  6
  5 19  1  0
  5 20  1  0
  5 21  1  0
  6 22  1  6
  7 23  1  0
  7 24  1  0
  7 25  1  0
  8 26  1  0
  8 27  1  0
 10 28  1  0
 11 29  1  0
 12 30  1  0
 13 31  1  0
 14 32  1  0
M  CHG  1   4   1
M  END
>  <meeko>  (2) 
{"is_sidechain": [false], "free_energy": -5.377, "intermolecular_energy": -6.342, "internal_energy": -0.97}

$$$$
selegiline_out
     RDKit          3D

 32 32  0  0  0  0  0  0  0  0999 V2000
  179.6840   22.2110   50.9120 C   0  0  0  0  0  0  0  0  0  0  0  0
  178.5330   21.8780   50.9820 C   0  0  0  0  0  0  0  0  0  0  0  0
  177.1190   21.4720   51.0740 C   0  0  0  0  0  0  0  0  0  0  0  0
  176.5980   21.0210   49.7720 N   0  0  1  0  0  0  0  0  0  0  0  0
  175.5520   20.0100   49.9450 C   0  0  0  0  0  0  0  0  0  0  0  0
  176.1940   22.1650   48.9140 C   0  0  2  0  0  0  0  0  0  0  0  0
  174.7800   22.6990   49.1980 C   0  0  0  0  0  0  0  0  0  0  0  0
  176.3700   21.8050   47.4130 C   0  0  0  0  0  0  0  0  0  0  0  0
  177.7380   21.2550   47.0740 C   0  0  0  0  0  0  0  0  0  0  0  0
  178.8860   22.0430   47.2350 C   0  0  0  0  0  0  0  0  0  0  0  0
  180.1460   21.5280   46.9290 C   0  0  0  0  0  0  0  0  0  0  0  0
  180.2720   20.2220   46.4600 C   0  0  0  0  0  0  0  0  0  0  0  0
  179.1370   19.4310   46.2930 C   0  0  0  0  0  0  0  0  0  0  0  0
  177.8760   19.9430   46.5980 C   0  0  0  0  0  0  0  0  0  0  0  0
  180.7389   22.5162   50.8478 H   0  0  0  0  0  0  0  0  0  0  0  0
  177.0304   20.6489   51.7983 H   0  0  0  0  0  0  0  0  0  0  0  0
  176.5311   22.3441   51.3962 H   0  0  0  0  0  0  0  0  0  0  0  0
  177.3530   20.5600   49.2660 H   0  0  0  0  0  0  0  0  0  0  0  0
  175.3783   19.8421   51.0181 H   0  0  0  0  0  0  0  0  0  0  0  0
  174.6220   20.3602   49.4734 H   0  0  0  0  0  0  0  0  0  0  0  0
  175.8704   19.0686   49.4734 H   0  0  0  0  0  0  0  0  0  0  0  0
  176.8702   22.9932   49.1723 H   0  0  0  0  0  0  0  0  0  0  0  0
  174.6220   22.7587   50.2850 H   0  0  0  0  0  0  0  0  0  0  0  0
  174.6706   23.7004   48.7561 H   0  0  0  0  0  0  0  0  0  0  0  0
  174.0360   22.0199   48.7561 H   0  0  0  0  0  0  0  0  0  0  0  0
  175.6165   21.0491   47.1469 H   0  0  0  0  0  0  0  0  0  0  0  0
  176.2493   22.7381   46.8432 H   0  0  0  0  0  0  0  0  0  0  0  0
  178.7928   23.0746   47.6052 H   0  0  0  0  0  0  0  0  0  0  0  0
  181.0413   22.1539   47.0582 H   0  0  0  0  0  0  0  0  0  0  0  0
  181.2662   19.8159   46.2219 H   0  0  0  0  0  0  0  0  0  0  0  0
  179.2357   18.4009   45.9199 H   0  0  0  0  0  0  0  0  0  0  0  0
  176.9838   19.3136   46.4643 H   0  0  0  0  0  0  0  0  0  0  0  0
  1  2  3  0
  2  3  1  0
  3  4  1  0
  4  5  1  0
  4  6  1  0
  6  7  1  0
  6  8  1  0
  8  9  1  0
  9 10  2  0
 10 11  1  0
 11 12  2  0
 12 13  1  0
 13 14  2  0
 14  9  1  0
  1 15  1  0
  3 16  1  0
  3 17  1  0
  4 18  1  6
  5 19  1  0
  5 20  1  0
  5 21  1  0
  6 22  1  1
  7 23  1  0
  7 24  1  0
  7 25  1  0
  8 26  1  0
  8 27  1  0
 10 28  1  0
 11 29  1  0
 12 30  1  0
 13 31  1  0
 14 32  1  0
M  CHG  1   4   1
M  END
>  <meeko>  (3) 
{"is_sidechain": [false], "free_energy": -5.348, "intermolecular_energy": -6.447, "internal_energy": -0.829}

$$$$
selegiline_out
     RDKit          3D

 32 32  0  0  0  0  0  0  0  0999 V2000
  180.4240   19.3900   45.8410 C   0  0  0  0  0  0  0  0  0  0  0  0
  180.5710   20.0230   46.8510 C   0  0  0  0  0  0  0  0  0  0  0  0
  180.7580   20.8000   48.0890 C   0  0  0  0  0  0  0  0  0  0  0  0
  179.5060   21.4450   48.5200 N   0  0  1  0  0  0  0  0  0  0  0  0
  179.6340   21.9940   49.8720 C   0  0  0  0  0  0  0  0  0  0  0  0
  179.0170   22.4250   47.5150 C   0  0  2  0  0  0  0  0  0  0  0  0
  179.5920   23.8410   47.6830 C   0  0  0  0  0  0  0  0  0  0  0  0
  177.4640   22.4460   47.4910 C   0  0  0  0  0  0  0  0  0  0  0  0
  176.8350   21.0700   47.4630 C   0  0  0  0  0  0  0  0  0  0  0  0
  176.1790   20.5610   48.5920 C   0  0  0  0  0  0  0  0  0  0  0  0
  175.5930   19.2940   48.5590 C   0  0  0  0  0  0  0  0  0  0  0  0
  175.6580   18.5250   47.3980 C   0  0  0  0  0  0  0  0  0  0  0  0
  176.3100   19.0210   46.2710 C   0  0  0  0  0  0  0  0  0  0  0  0
  176.8970   20.2860   46.3020 C   0  0  0  0  0  0  0  0  0  0  0  0
  180.2894   18.8102   44.9159 H   0  0  0  0  0  0  0  0  0  0  0  0
  181.1038   20.1245   48.8853 H   0  0  0  0  0  0  0  0  0  0  0  0
  181.4999   21.5877   47.8914 H   0  0  0  0  0  0  0  0  0  0  0  0
  178.7790   20.7320   48.5740 H   0  0  0  0  0  0  0  0  0  0  0  0
  179.4487   21.1992   50.6095 H   0  0  0  0  0  0  0  0  0  0  0  0
  180.6494   22.3936   50.0109 H   0  0  0  0  0  0  0  0  0  0  0  0
  178.9000   22.8015   50.0109 H   0  0  0  0  0  0  0  0  0  0  0  0
  179.3924   22.0770   46.5414 H   0  0  0  0  0  0  0  0  0  0  0  0
  179.6865   24.0737   48.7539 H   0  0  0  0  0  0  0  0  0  0  0  0
  180.5826   23.8933   47.2076 H   0  0  0  0  0  0  0  0  0  0  0  0
  178.9183   24.5691   47.2076 H   0  0  0  0  0  0  0  0  0  0  0  0
  177.1103   22.9708   48.3907 H   0  0  0  0  0  0  0  0  0  0  0  0
  177.1648   22.9540   46.5624 H   0  0  0  0  0  0  0  0  0  0  0  0
  176.1254   21.1638   49.5106 H   0  0  0  0  0  0  0  0  0  0  0  0
  175.0798   18.9024   49.4496 H   0  0  0  0  0  0  0  0  0  0  0  0
  175.1950   17.5275   47.3717 H   0  0  0  0  0  0  0  0  0  0  0  0
  176.3619   18.4139   45.3551 H   0  0  0  0  0  0  0  0  0  0  0  0
  177.4121   20.6712   45.4096 H   0  0  0  0  0  0  0  0  0  0  0  0
  1  2  3  0
  2  3  1  0
  3  4  1  0
  4  5  1  0
  4  6  1  0
  6  7  1  0
  6  8  1  0
  8  9  1  0
  9 10  2  0
 10 11  1  0
 11 12  2  0
 12 13  1  0
 13 14  2  0
 14  9  1  0
  1 15  1  0
  3 16  1  0
  3 17  1  0
  4 18  1  1
  5 19  1  0
  5 20  1  0
  5 21  1  0
  6 22  1  6
  7 23  1  0
  7 24  1  0
  7 25  1  0
  8 26  1  0
  8 27  1  0
 10 28  1  0
 11 29  1  0
 12 30  1  0
 13 31  1  0
 14 32  1  0
M  CHG  1   4   1
M  END
>  <meeko>  (4) 
{"is_sidechain": [false], "free_energy": -5.342, "intermolecular_energy": -6.441, "internal_energy": -0.827}

$$$$
selegiline_out
     RDKit          3D

 32 32  0  0  0  0  0  0  0  0999 V2000
  178.5140   21.4310   46.9690 C   0  0  0  0  0  0  0  0  0  0  0  0
  178.1210   22.4770   47.4120 C   0  0  0  0  0  0  0  0  0  0  0  0
  177.6390   23.7620   47.9480 C   0  0  0  0  0  0  0  0  0  0  0  0
  177.0480   23.6030   49.2870 N   0  0  1  0  0  0  0  0  0  0  0  0
  177.7890   24.3770   50.2860 C   0  0  0  0  0  0  0  0  0  0  0  0
  175.5860   23.8730   49.2790 C   0  0  2  0  0  0  0  0  0  0  0  0
  175.1810   25.1780   49.9840 C   0  0  0  0  0  0  0  0  0  0  0  0
  174.8080   22.6570   49.8530 C   0  0  0  0  0  0  0  0  0  0  0  0
  175.0880   21.3570   49.1290 C   0  0  0  0  0  0  0  0  0  0  0  0
  175.6700   20.2750   49.8040 C   0  0  0  0  0  0  0  0  0  0  0  0
  175.9180   19.0760   49.1350 C   0  0  0  0  0  0  0  0  0  0  0  0
  175.5890   18.9460   47.7870 C   0  0  0  0  0  0  0  0  0  0  0  0
  175.0130   20.0170   47.1070 C   0  0  0  0  0  0  0  0  0  0  0  0
  174.7640   21.2170   47.7730 C   0  0  0  0  0  0  0  0  0  0  0  0
  178.8737   20.4738   46.5636 H   0  0  0  0  0  0  0  0  0  0  0  0
  178.4851   24.4620   48.0120 H   0  0  0  0  0  0  0  0  0  0  0  0
  176.8612   24.1468   47.2720 H   0  0  0  0  0  0  0  0  0  0  0  0
  177.1380   22.6260   49.5650 H   0  0  0  0  0  0  0  0  0  0  0  0
  177.4854   24.0599   51.2946 H   0  0  0  0  0  0  0  0  0  0  0  0
  178.8678   24.2050   50.1568 H   0  0  0  0  0  0  0  0  0  0  0  0
  177.5702   25.4473   50.1568 H   0  0  0  0  0  0  0  0  0  0  0  0
  175.3087   24.0192   48.2246 H   0  0  0  0  0  0  0  0  0  0  0  0
  175.2254   25.0350   51.0738 H   0  0  0  0  0  0  0  0  0  0  0  0
  175.8717   25.9825   49.6913 H   0  0  0  0  0  0  0  0  0  0  0  0
  174.1562   25.4501   49.6913 H   0  0  0  0  0  0  0  0  0  0  0  0
  175.0881   22.5331   50.9095 H   0  0  0  0  0  0  0  0  0  0  0  0
  173.7368   22.8717   49.7245 H   0  0  0  0  0  0  0  0  0  0  0  0
  175.9328   20.3718   50.8677 H   0  0  0  0  0  0  0  0  0  0  0  0
  176.3741   18.2316   49.6726 H   0  0  0  0  0  0  0  0  0  0  0  0
  175.7837   17.9998   47.2610 H   0  0  0  0  0  0  0  0  0  0  0  0
  174.7541   19.9160   46.0427 H   0  0  0  0  0  0  0  0  0  0  0  0
  174.3102   22.0592   47.2300 H   0  0  0  0  0  0  0  0  0  0  0  0
  1  2  3  0
  2  3  1  0
  3  4  1  0
  4  5  1  0
  4  6  1  0
  6  7  1  0
  6  8  1  0
  8  9  1  0
  9 10  2  0
 10 11  1  0
 11 12  2  0
 12 13  1  0
 13 14  2  0
 14  9  1  0
  1 15  1  0
  3 16  1  0
  3 17  1  0
  4 18  1  1
  5 19  1  0
  5 20  1  0
  5 21  1  0
  6 22  1  6
  7 23  1  0
  7 24  1  0
  7 25  1  0
  8 26  1  0
  8 27  1  0
 10 28  1  0
 11 29  1  0
 12 30  1  0
 13 31  1  0
 14 32  1  0
M  CHG  1   4   1
M  END
>  <meeko>  (5) 
{"is_sidechain": [false], "free_energy": -5.328, "intermolecular_energy": -6.179, "internal_energy": -1.072}

$$$$
selegiline_out
     RDKit          3D

 32 32  0  0  0  0  0  0  0  0999 V2000
  181.4450   20.7010   49.5800 C   0  0  0  0  0  0  0  0  0  0  0  0
  181.1750   21.2880   48.5670 C   0  0  0  0  0  0  0  0  0  0  0  0
  180.8450   22.0130   47.3280 C   0  0  0  0  0  0  0  0  0  0  0  0
  180.9210   21.1360   46.1480 N   0  0  1  0  0  0  0  0  0  0  0  0
  182.3070   20.7640   45.8550 C   0  0  0  0  0  0  0  0  0  0  0  0
  179.9980   19.9760   46.2640 C   0  0  2  0  0  0  0  0  0  0  0  0
  180.4800   18.7110   45.5360 C   0  0  0  0  0  0  0  0  0  0  0  0
  178.5660   20.3760   45.8120 C   0  0  0  0  0  0  0  0  0  0  0  0
  177.5010   20.1100   46.8540 C   0  0  0  0  0  0  0  0  0  0  0  0
  177.4550   20.8620   48.0360 C   0  0  0  0  0  0  0  0  0  0  0  0
  176.4650   20.6190   48.9900 C   0  0  0  0  0  0  0  0  0  0  0  0
  175.5130   19.6240   48.7720 C   0  0  0  0  0  0  0  0  0  0  0  0
  175.5530   18.8700   47.6010 C   0  0  0  0  0  0  0  0  0  0  0  0
  176.5410   19.1100   46.6460 C   0  0  0  0  0  0  0  0  0  0  0  0
  181.6922   20.1636   50.5074 H   0  0  0  0  0  0  0  0  0  0  0  0
  179.8235   22.4127   47.4100 H   0  0  0  0  0  0  0  0  0  0  0  0
  181.5764   22.8246   47.2001 H   0  0  0  0  0  0  0  0  0  0  0  0
  180.5920   21.6580   45.3360 H   0  0  0  0  0  0  0  0  0  0  0  0
  182.8544   20.6171   46.7978 H   0  0  0  0  0  0  0  0  0  0  0  0
  182.3210   19.8303   45.2736 H   0  0  0  0  0  0  0  0  0  0  0  0
  182.7866   21.5652   45.2736 H   0  0  0  0  0  0  0  0  0  0  0  0
  179.9818   19.7046   47.3299 H   0  0  0  0  0  0  0  0  0  0  0  0
  180.7699   17.9502   46.2757 H   0  0  0  0  0  0  0  0  0  0  0  0
  179.6682   18.3189   44.9056 H   0  0  0  0  0  0  0  0  0  0  0  0
  181.3468   18.9585   44.9056 H   0  0  0  0  0  0  0  0  0  0  0  0
  178.5631   21.4511   45.5795 H   0  0  0  0  0  0  0  0  0  0  0  0
  178.3208   19.7560   44.9371 H   0  0  0  0  0  0  0  0  0  0  0  0
  178.2035   21.6484   48.2130 H   0  0  0  0  0  0  0  0  0  0  0  0
  176.4361   21.2135   49.9151 H   0  0  0  0  0  0  0  0  0  0  0  0
  174.7319   19.4346   49.5230 H   0  0  0  0  0  0  0  0  0  0  0  0
  174.8035   18.0834   47.4292 H   0  0  0  0  0  0  0  0  0  0  0  0
  176.5669   18.5108   45.7239 H   0  0  0  0  0  0  0  0  0  0  0  0
  1  2  3  0
  2  3  1  0
  3  4  1  0
  4  5  1  0
  4  6  1  0
  6  7  1  0
  6  8  1  0
  8  9  1  0
  9 10  2  0
 10 11  1  0
 11 12  2  0
 12 13  1  0
 13 14  2  0
 14  9  1  0
  1 15  1  0
  3 16  1  0
  3 17  1  0
  4 18  1  6
  5 19  1  0
  5 20  1  0
  5 21  1  0
  6 22  1  1
  7 23  1  0
  7 24  1  0
  7 25  1  0
  8 26  1  0
  8 27  1  0
 10 28  1  0
 11 29  1  0
 12 30  1  0
 13 31  1  0
 14 32  1  0
M  CHG  1   4   1
M  END
>  <meeko>  (6) 
{"is_sidechain": [false], "free_energy": -5.309, "intermolecular_energy": -6.481, "internal_energy": -0.747}

$$$$
selegiline_out
     RDKit          3D

 32 32  0  0  0  0  0  0  0  0999 V2000
  177.8820   21.5380   51.0820 C   0  0  0  0  0  0  0  0  0  0  0  0
  178.9600   21.8100   50.6270 C   0  0  0  0  0  0  0  0  0  0  0  0
  180.2850   22.1420   50.0750 C   0  0  0  0  0  0  0  0  0  0  0  0
  180.2360   22.3150   48.6130 N   0  0  1  0  0  0  0  0  0  0  0  0
  181.4260   23.0170   48.1250 C   0  0  0  0  0  0  0  0  0  0  0  0
  179.9650   21.0300   47.9150 C   0  0  2  0  0  0  0  0  0  0  0  0
  181.2210   20.3390   47.3570 C   0  0  0  0  0  0  0  0  0  0  0  0
  178.8930   21.2300   46.8100 C   0  0  0  0  0  0  0  0  0  0  0  0
  177.4860   20.8970   47.2580 C   0  0  0  0  0  0  0  0  0  0  0  0
  176.6030   21.9110   47.6530 C   0  0  0  0  0  0  0  0  0  0  0  0
  175.3040   21.6000   48.0570 C   0  0  0  0  0  0  0  0  0  0  0  0
  174.8750   20.2740   48.0700 C   0  0  0  0  0  0  0  0  0  0  0  0
  175.7450   19.2580   47.6820 C   0  0  0  0  0  0  0  0  0  0  0  0
  177.0450   19.5660   47.2780 C   0  0  0  0  0  0  0  0  0  0  0  0
  176.8949   21.2889   51.4986 H   0  0  0  0  0  0  0  0  0  0  0  0
  180.6384   23.0774   50.5334 H   0  0  0  0  0  0  0  0  0  0  0  0
  180.9694   21.3108   50.3001 H   0  0  0  0  0  0  0  0  0  0  0  0
  179.4430   22.9140   48.3860 H   0  0  0  0  0  0  0  0  0  0  0  0
  182.0213   23.3682   48.9808 H   0  0  0  0  0  0  0  0  0  0  0  0
  182.0314   22.3313   47.5139 H   0  0  0  0  0  0  0  0  0  0  0  0
  181.1187   23.8785   47.5139 H   0  0  0  0  0  0  0  0  0  0  0  0
  179.5753   20.3426   48.6802 H   0  0  0  0  0  0  0  0  0  0  0  0
  181.8500   19.9930   48.1905 H   0  0  0  0  0  0  0  0  0  0  0  0
  180.9226   19.4780   46.7408 H   0  0  0  0  0  0  0  0  0  0  0  0
  181.7885   21.0519   46.7408 H   0  0  0  0  0  0  0  0  0  0  0  0
  178.9157   22.2825   46.4909 H   0  0  0  0  0  0  0  0  0  0  0  0
  179.1418   20.5374   45.9924 H   0  0  0  0  0  0  0  0  0  0  0  0
  176.9362   22.9593   47.6445 H   0  0  0  0  0  0  0  0  0  0  0  0
  174.6178   22.4024   48.3656 H   0  0  0  0  0  0  0  0  0  0  0  0
  173.8501   20.0301   48.3864 H   0  0  0  0  0  0  0  0  0  0  0  0
  175.4071   18.2113   47.6940 H   0  0  0  0  0  0  0  0  0  0  0  0
  177.7281   18.7594   46.9733 H   0  0  0  0  0  0  0  0  0  0  0  0
  1  2  3  0
  2  3  1  0
  3  4  1  0
  4  5  1  0
  4  6  1  0
  6  7  1  0
  6  8  1  0
  8  9  1  0
  9 10  2  0
 10 11  1  0
 11 12  2  0
 12 13  1  0
 13 14  2  0
 14  9  1  0
  1 15  1  0
  3 16  1  0
  3 17  1  0
  4 18  1  1
  5 19  1  0
  5 20  1  0
  5 21  1  0
  6 22  1  1
  7 23  1  0
  7 24  1  0
  7 25  1  0
  8 26  1  0
  8 27  1  0
 10 28  1  0
 11 29  1  0
 12 30  1  0
 13 31  1  0
 14 32  1  0
M  CHG  1   4   1
M  END
>  <meeko>  (7) 
{"is_sidechain": [false], "free_energy": -5.263, "intermolecular_energy": -6.202, "internal_energy": -0.968}

$$$$
selegiline_out
     RDKit          3D

 32 32  0  0  0  0  0  0  0  0999 V2000
  179.5130   21.9240   50.7980 C   0  0  0  0  0  0  0  0  0  0  0  0
  178.3960   21.9010   50.3540 C   0  0  0  0  0  0  0  0  0  0  0  0
  177.0270   21.8800   49.8110 C   0  0  0  0  0  0  0  0  0  0  0  0
  176.7560   20.6370   49.0700 N   0  0  1  0  0  0  0  0  0  0  0  0
  175.4890   20.0350   49.4940 C   0  0  0  0  0  0  0  0  0  0  0  0
  176.8660   20.8360   47.6010 C   0  0  2  0  0  0  0  0  0  0  0  0
  175.5310   21.1480   46.9050 C   0  0  0  0  0  0  0  0  0  0  0  0
  177.5760   19.6220   46.9410 C   0  0  0  0  0  0  0  0  0  0  0  0
  179.0320   19.8710   46.6130 C   0  0  0  0  0  0  0  0  0  0  0  0
  179.6690   21.0450   47.0370 C   0  0  0  0  0  0  0  0  0  0  0  0
  181.0150   21.2660   46.7390 C   0  0  0  0  0  0  0  0  0  0  0  0
  181.7360   20.3170   46.0170 C   0  0  0  0  0  0  0  0  0  0  0  0
  181.1110   19.1480   45.5880 C   0  0  0  0  0  0  0  0  0  0  0  0
  179.7660   18.9250   45.8840 C   0  0  0  0  0  0  0  0  0  0  0  0
  180.5350   21.9450   51.2042 H   0  0  0  0  0  0  0  0  0  0  0  0
  176.3119   21.9627   50.6428 H   0  0  0  0  0  0  0  0  0  0  0  0
  176.9203   22.7252   49.1151 H   0  0  0  0  0  0  0  0  0  0  0  0
  177.4810   19.9590   49.3030 H   0  0  0  0  0  0  0  0  0  0  0  0
  175.4430   20.0132   50.5928 H   0  0  0  0  0  0  0  0  0  0  0  0
  174.6510   20.6312   49.1037 H   0  0  0  0  0  0  0  0  0  0  0  0
  175.4219   19.0088   49.1037 H   0  0  0  0  0  0  0  0  0  0  0  0
  177.4802   21.7377   47.4609 H   0  0  0  0  0  0  0  0  0  0  0  0
  174.7555   21.3292   47.6638 H   0  0  0  0  0  0  0  0  0  0  0  0
  175.6456   22.0436   46.2766 H   0  0  0  0  0  0  0  0  0  0  0  0
  175.2368   20.2944   46.2766 H   0  0  0  0  0  0  0  0  0  0  0  0
  177.5172   18.7681   47.6319 H   0  0  0  0  0  0  0  0  0  0  0  0
  177.0613   19.4287   45.9883 H   0  0  0  0  0  0  0  0  0  0  0  0
  179.1050   21.7971   47.6082 H   0  0  0  0  0  0  0  0  0  0  0  0
  181.5071   22.1907   47.0747 H   0  0  0  0  0  0  0  0  0  0  0  0
  182.7974   20.4906   45.7860 H   0  0  0  0  0  0  0  0  0  0  0  0
  181.6787   18.4000   45.0152 H   0  0  0  0  0  0  0  0  0  0  0  0
  179.2779   18.0001   45.5429 H   0  0  0  0  0  0  0  0  0  0  0  0
  1  2  3  0
  2  3  1  0
  3  4  1  0
  4  5  1  0
  4  6  1  0
  6  7  1  0
  6  8  1  0
  8  9  1  0
  9 10  2  0
 10 11  1  0
 11 12  2  0
 12 13  1  0
 13 14  2  0
 14  9  1  0
  1 15  1  0
  3 16  1  0
  3 17  1  0
  4 18  1  1
  5 19  1  0
  5 20  1  0
  5 21  1  0
  6 22  1  1
  7 23  1  0
  7 24  1  0
  7 25  1  0
  8 26  1  0
  8 27  1  0
 10 28  1  0
 11 29  1  0
 12 30  1  0
 13 31  1  0
 14 32  1  0
M  CHG  1   4   1
M  END
>  <meeko>  (8) 
{"is_sidechain": [false], "free_energy": -5.236, "intermolecular_energy": -6.481, "internal_energy": -0.657}

$$$$
selegiline_out
     RDKit          3D

 32 32  0  0  0  0  0  0  0  0999 V2000
  177.1470   21.6220   51.3200 C   0  0  0  0  0  0  0  0  0  0  0  0
  176.4250   20.8960   50.6930 C   0  0  0  0  0  0  0  0  0  0  0  0
  175.5390   20.0000   49.9290 C   0  0  0  0  0  0  0  0  0  0  0  0
  174.7870   20.7310   48.8960 N   0  0  1  0  0  0  0  0  0  0  0  0
  174.8230   22.1750   49.1400 C   0  0  0  0  0  0  0  0  0  0  0  0
  175.2110   20.3410   47.5260 C   0  0  2  0  0  0  0  0  0  0  0  0
  175.8380   18.9390   47.4350 C   0  0  0  0  0  0  0  0  0  0  0  0
  176.1520   21.4190   46.9220 C   0  0  0  0  0  0  0  0  0  0  0  0
  177.6100   21.0120   46.8980 C   0  0  0  0  0  0  0  0  0  0  0  0
  178.1310   20.2850   45.8190 C   0  0  0  0  0  0  0  0  0  0  0  0
  179.4780   19.9190   45.7980 C   0  0  0  0  0  0  0  0  0  0  0  0
  180.3160   20.2770   46.8520 C   0  0  0  0  0  0  0  0  0  0  0  0
  179.8070   20.9970   47.9300 C   0  0  0  0  0  0  0  0  0  0  0  0
  178.4610   21.3640   47.9550 C   0  0  0  0  0  0  0  0  0  0  0  0
  177.8085   22.2872   51.8945 H   0  0  0  0  0  0  0  0  0  0  0  0
  176.1490   19.2237   49.4439 H   0  0  0  0  0  0  0  0  0  0  0  0
  174.8167   19.5533   50.6281 H   0  0  0  0  0  0  0  0  0  0  0  0
  173.8060   20.4600   48.9590 H   0  0  0  0  0  0  0  0  0  0  0  0
  174.8277   22.3637   50.2237 H   0  0  0  0  0  0  0  0  0  0  0  0
  175.7320   22.6004   48.6898 H   0  0  0  0  0  0  0  0  0  0  0  0
  173.9363   22.6452   48.6898 H   0  0  0  0  0  0  0  0  0  0  0  0
  174.2903   20.2838   46.9269 H   0  0  0  0  0  0  0  0  0  0  0  0
  176.0125   18.5489   48.4486 H   0  0  0  0  0  0  0  0  0  0  0  0
  175.1550   18.2662   46.8957 H   0  0  0  0  0  0  0  0  0  0  0  0
  176.7948   18.9995   46.8957 H   0  0  0  0  0  0  0  0  0  0  0  0
  175.8310   21.6205   45.8894 H   0  0  0  0  0  0  0  0  0  0  0  0
  176.0775   22.3073   47.5665 H   0  0  0  0  0  0  0  0  0  0  0  0
  177.4744   20.0010   44.9834 H   0  0  0  0  0  0  0  0  0  0  0  0
  179.8784   19.3471   44.9480 H   0  0  0  0  0  0  0  0  0  0  0  0
  181.3781   19.9914   46.8327 H   0  0  0  0  0  0  0  0  0  0  0  0
  180.4677   21.2770   48.7637 H   0  0  0  0  0  0  0  0  0  0  0  0
  178.0653   21.9329   48.8092 H   0  0  0  0  0  0  0  0  0  0  0  0
  1  2  3  0
  2  3  1  0
  3  4  1  0
  4  5  1  0
  4  6  1  0
  6  7  1  0
  6  8  1  0
  8  9  1  0
  9 10  2  0
 10 11  1  0
 11 12  2  0
 12 13  1  0
 13 14  2  0
 14  9  1  0
  1 15  1  0
  3 16  1  0
  3 17  1  0
  4 18  1  6
  5 19  1  0
  5 20  1  0
  5 21  1  0
  6 22  1  6
  7 23  1  0
  7 24  1  0
  7 25  1  0
  8 26  1  0
  8 27  1  0
 10 28  1  0
 11 29  1  0
 12 30  1  0
 13 31  1  0
 14 32  1  0
M  CHG  1   4   1
M  END
>  <meeko>  (9) 
{"is_sidechain": [false], "free_energy": -5.202, "intermolecular_energy": -6.927, "internal_energy": -0.169}

$$$$
