VP7_out
     RDKit          3D

 45 48  0  0  0  0  0  0  0  0999 V2000
  180.4990   14.4160   43.4690 C   0  0  0  0  0  0  0  0  0  0  0  0
  181.3000   15.5510   42.8330 C   0  0  0  0  0  0  0  0  0  0  0  0
  180.8320   15.8050   41.4010 C   0  0  0  0  0  0  0  0  0  0  0  0
  182.6700   15.1530   42.7750 O   0  0  0  0  0  0  0  0  0  0  0  0
  181.1900   16.7770   43.6390 C   0  0  0  0  0  0  0  0  0  0  0  0
  181.1020   17.7730   44.3050 C   0  0  0  0  0  0  0  0  0  0  0  0
  180.9930   18.9560   45.1020 C   0  0  0  0  0  0  0  0  0  0  0  0
  182.0620   19.8470   45.1710 C   0  0  0  0  0  0  0  0  0  0  0  0
  181.9800   21.0060   45.9480 C   0  0  0  0  0  0  0  0  0  0  0  0
  180.7890   21.2350   46.6490 C   0  0  0  0  0  0  0  0  0  0  0  0
  180.4460   22.2700   47.4770 N   0  0  0  0  0  0  0  0  0  0  0  0
  179.1760   22.1090   47.9840 C   0  0  0  0  0  0  0  0  0  0  0  0
  178.6570   20.9350   47.4430 C   0  0  0  0  0  0  0  0  0  0  0  0
  179.6950   20.3760   46.6030 C   0  0  0  0  0  0  0  0  0  0  0  0
  179.8130   19.2080   45.8110 C   0  0  0  0  0  0  0  0  0  0  0  0
  177.3150   20.3810   47.6810 C   0  0  0  0  0  0  0  0  0  0  0  0
  176.9000   19.5270   46.7160 N   0  0  0  0  0  0  0  0  0  0  0  0
  175.7160   18.9390   46.8630 C   0  0  0  0  0  0  0  0  0  0  0  0
  175.2990   18.0860   45.8620 N   0  0  0  0  0  0  0  0  0  0  0  0
  174.8850   19.1520   47.8780 N   0  0  0  0  0  0  0  0  0  0  0  0
  175.3130   20.0110   48.8180 C   0  0  0  0  0  0  0  0  0  0  0  0
  176.5260   20.6780   48.7790 C   0  0  0  0  0  0  0  0  0  0  0  0
  176.8810   21.6310   49.8760 C   0  0  0  0  0  0  0  0  0  0  0  0
  177.2130   23.0150   49.3320 C   0  0  0  0  0  0  0  0  0  0  0  0
  178.6760   23.1380   48.9430 C   0  0  0  0  0  0  0  0  0  0  0  0
  180.5557   14.4963   44.5646 H   0  0  0  0  0  0  0  0  0  0  0  0
  179.4485   14.4851   43.1502 H   0  0  0  0  0  0  0  0  0  0  0  0
  180.9161   13.4494   43.1502 H   0  0  0  0  0  0  0  0  0  0  0  0
  179.8653   16.3296   41.4188 H   0  0  0  0  0  0  0  0  0  0  0  0
  181.5753   16.4235   40.8766 H   0  0  0  0  0  0  0  0  0  0  0  0
  180.7184   14.8447   40.8766 H   0  0  0  0  0  0  0  0  0  0  0  0
  183.0900   15.3170   43.6340 H   0  0  0  0  0  0  0  0  0  0  0  0
  182.9823   19.6356   44.6068 H   0  0  0  0  0  0  0  0  0  0  0  0
  182.8206   21.7130   46.0069 H   0  0  0  0  0  0  0  0  0  0  0  0
  181.0340   23.0320   47.6850 H   0  0  0  0  0  0  0  0  0  0  0  0
  178.9754   18.4973   45.7530 H   0  0  0  0  0  0  0  0  0  0  0  0
  175.9210   17.8310   45.1420 H   0  0  0  0  0  0  0  0  0  0  0  0
  174.3810   17.7310   45.8690 H   0  0  0  0  0  0  0  0  0  0  0  0
  174.6540   20.1976   49.6787 H   0  0  0  0  0  0  0  0  0  0  0  0
  176.0286   21.7140   50.5664 H   0  0  0  0  0  0  0  0  0  0  0  0
  177.7703   21.2429   50.3941 H   0  0  0  0  0  0  0  0  0  0  0  0
  176.5923   23.2058   48.4441 H   0  0  0  0  0  0  0  0  0  0  0  0
  177.0096   23.7494   50.1252 H   0  0  0  0  0  0  0  0  0  0  0  0
  178.8226   24.1273   48.4850 H   0  0  0  0  0  0  0  0  0  0  0  0
  179.2481   22.9888   49.8706 H   0  0  0  0  0  0  0  0  0  0  0  0
  1  2  1  0
  2  3  1  0
  2  4  1  0
  2  5  1  0
  5  6  3  0
  6  7  1  0
  7  8  2  0
  8  9  1  0
  9 10  2  0
 10 11  1  0
 11 12  1  0
 12 13  2  0
 13 14  1  0
 14 15  2  0
 13 16  1  0
 16 17  2  0
 17 18  1  0
 18 19  1  0
 18 20  2  0
 20 21  1  0
 21 22  2  0
 22 23  1  0
 23 24  1  0
 24 25  1  0
 15  7  1  0
 22 16  1  0
 14 10  1  0
 25 12  1  0
  1 26  1  0
  1 27  1  0
  1 28  1  0
  3 29  1  0
  3 30  1  0
  3 31  1  0
  4 32  1  0
  8 33  1  0
  9 34  1  0
 11 35  1  0
 15 36  1  0
 19 37  1  0
 19 38  1  0
 21 39  1  0
 23 40  1  0
 23 41  1  0
 24 42  1  0
 24 43  1  0
 25 44  1  0
 25 45  1  0
M  END
>  <meeko>  (1) 
{"is_sidechain": [false], "free_energy": -8.577, "intermolecular_energy": -11.586, "internal_energy": 0.708}

$$$$
VP7_out
     RDKit          3D

 45 48  0  0  0  0  0  0  0  0999 V2000
  180.7720   14.7700   43.4890 C   0  0  0  0  0  0  0  0  0  0  0  0
  181.4870   16.0640   43.1010 C   0  0  0  0  0  0  0  0  0  0  0  0
  181.1850   16.4320   41.6500 C   0  0  0  0  0  0  0  0  0  0  0  0
  182.8940   15.8460   43.2080 O   0  0  0  0  0  0  0  0  0  0  0  0
  181.1010   17.1590   44.0040 C   0  0  0  0  0  0  0  0  0  0  0  0
  180.7870   18.0480   44.7490 C   0  0  0  0  0  0  0  0  0  0  0  0
  180.4170   19.1110   45.6330 C   0  0  0  0  0  0  0  0  0  0  0  0
  179.1560   19.1130   46.2240 C   0  0  0  0  0  0  0  0  0  0  0  0
  178.7700   20.1440   47.0860 C   0  0  0  0  0  0  0  0  0  0  0  0
  179.6960   21.1660   47.3310 C   0  0  0  0  0  0  0  0  0  0  0  0
  179.5810   22.2830   48.1140 N   0  0  0  0  0  0  0  0  0  0  0  0
  180.7240   23.0500   48.0700 C   0  0  0  0  0  0  0  0  0  0  0  0
  181.6350   22.3920   47.2460 C   0  0  0  0  0  0  0  0  0  0  0  0
  180.9680   21.1990   46.7670 C   0  0  0  0  0  0  0  0  0  0  0  0
  181.3250   20.1430   45.8950 C   0  0  0  0  0  0  0  0  0  0  0  0
  183.0030   22.8300   46.9320 C   0  0  0  0  0  0  0  0  0  0  0  0
  183.5270   22.2330   45.8350 N   0  0  0  0  0  0  0  0  0  0  0  0
  184.7450   22.5950   45.4430 C   0  0  0  0  0  0  0  0  0  0  0  0
  185.2720   21.9640   44.3350 N   0  0  0  0  0  0  0  0  0  0  0  0
  185.5100   23.4830   46.0690 N   0  0  0  0  0  0  0  0  0  0  0  0
  184.9740   24.0550   47.1610 C   0  0  0  0  0  0  0  0  0  0  0  0
  183.7160   23.7660   47.6610 C   0  0  0  0  0  0  0  0  0  0  0  0
  183.2380   24.4530   48.9020 C   0  0  0  0  0  0  0  0  0  0  0  0
  181.9530   25.2070   48.6370 C   0  0  0  0  0  0  0  0  0  0  0  0
  180.7320   24.3280   48.8410 C   0  0  0  0  0  0  0  0  0  0  0  0
  180.7278   14.6900   44.5852 H   0  0  0  0  0  0  0  0  0  0  0  0
  179.7507   14.7787   43.0805 H   0  0  0  0  0  0  0  0  0  0  0  0
  181.3229   13.9100   43.0805 H   0  0  0  0  0  0  0  0  0  0  0  0
  180.4874   17.2821   41.6249 H   0  0  0  0  0  0  0  0  0  0  0  0
  182.1193   16.7093   41.1400 H   0  0  0  0  0  0  0  0  0  0  0  0
  180.7308   15.5697   41.1400 H   0  0  0  0  0  0  0  0  0  0  0  0
  183.3680   16.6240   42.8740 H   0  0  0  0  0  0  0  0  0  0  0  0
  178.4547   18.2930   46.0099 H   0  0  0  0  0  0  0  0  0  0  0  0
  177.7750   20.1522   47.5549 H   0  0  0  0  0  0  0  0  0  0  0  0
  178.7800   22.5100   48.6420 H   0  0  0  0  0  0  0  0  0  0  0  0
  182.3182   20.1335   45.4223 H   0  0  0  0  0  0  0  0  0  0  0  0
  185.3110   22.4370   43.4710 H   0  0  0  0  0  0  0  0  0  0  0  0
  185.6080   21.0420   44.4080 H   0  0  0  0  0  0  0  0  0  0  0  0
  185.5769   24.8048   47.6943 H   0  0  0  0  0  0  0  0  0  0  0  0
  183.0602   23.7010   49.6849 H   0  0  0  0  0  0  0  0  0  0  0  0
  184.0068   25.1694   49.2272 H   0  0  0  0  0  0  0  0  0  0  0  0
  181.8943   26.0635   49.3248 H   0  0  0  0  0  0  0  0  0  0  0  0
  181.9625   25.5417   47.5892 H   0  0  0  0  0  0  0  0  0  0  0  0
  180.6687   24.0789   49.9106 H   0  0  0  0  0  0  0  0  0  0  0  0
  179.8756   24.9100   48.4697 H   0  0  0  0  0  0  0  0  0  0  0  0
  1  2  1  0
  2  3  1  0
  2  4  1  0
  2  5  1  0
  5  6  3  0
  6  7  1  0
  7  8  2  0
  8  9  1  0
  9 10  2  0
 10 11  1  0
 11 12  1  0
 12 13  2  0
 13 14  1  0
 14 15  2  0
 13 16  1  0
 16 17  2  0
 17 18  1  0
 18 19  1  0
 18 20  2  0
 20 21  1  0
 21 22  2  0
 22 23  1  0
 23 24  1  0
 24 25  1  0
 15  7  1  0
 22 16  1  0
 14 10  1  0
 25 12  1  0
  1 26  1  0
  1 27  1  0
  1 28  1  0
  3 29  1  0
  3 30  1  0
  3 31  1  0
  4 32  1  0
  8 33  1  0
  9 34  1  0
 11 35  1  0
 15 36  1  0
 19 37  1  0
 19 38  1  0
 21 39  1  0
 23 40  1  0
 23 41  1  0
 24 42  1  0
 24 43  1  0
 25 44  1  0
 25 45  1  0
M  END
>  <meeko>  (2) 
{"is_sidechain": [false], "free_energy": -7.09, "intermolecular_energy": -9.65, "internal_energy": 0.782}

$$$$
VP7_out
     RDKit          3D

 45 48  0  0  0  0  0  0  0  0999 V2000
  173.4410   24.4630   51.4160 C   0  0  0  0  0  0  0  0  0  0  0  0
  172.7410   23.5830   50.3820 C   0  0  0  0  0  0  0  0  0  0  0  0
  171.8260   24.4200   49.4920 C   0  0  0  0  0  0  0  0  0  0  0  0
  171.9250   22.6410   51.0770 O   0  0  0  0  0  0  0  0  0  0  0  0
  173.7280   22.8540   49.5700 C   0  0  0  0  0  0  0  0  0  0  0  0
  174.5390   22.2570   48.9140 C   0  0  0  0  0  0  0  0  0  0  0  0
  175.5090   21.5460   48.1380 C   0  0  0  0  0  0  0  0  0  0  0  0
  175.1120   20.4720   47.3460 C   0  0  0  0  0  0  0  0  0  0  0  0
  176.0430   19.7600   46.5840 C   0  0  0  0  0  0  0  0  0  0  0  0
  177.3810   20.1680   46.6470 C   0  0  0  0  0  0  0  0  0  0  0  0
  178.4840   19.6540   46.0190 N   0  0  0  0  0  0  0  0  0  0  0  0
  179.6270   20.3400   46.3650 C   0  0  0  0  0  0  0  0  0  0  0  0
  179.2510   21.3640   47.2330 C   0  0  0  0  0  0  0  0  0  0  0  0
  177.8200   21.2400   47.4190 C   0  0  0  0  0  0  0  0  0  0  0  0
  176.8530   21.9360   48.1830 C   0  0  0  0  0  0  0  0  0  0  0  0
  180.1400   22.3690   47.8350 C   0  0  0  0  0  0  0  0  0  0  0  0
  179.4980   23.4900   48.2390 N   0  0  0  0  0  0  0  0  0  0  0  0
  180.2090   24.4430   48.8360 C   0  0  0  0  0  0  0  0  0  0  0  0
  179.5440   25.5870   49.2250 N   0  0  0  0  0  0  0  0  0  0  0  0
  181.5210   24.3930   49.0410 N   0  0  0  0  0  0  0  0  0  0  0  0
  182.1390   23.2750   48.6220 C   0  0  0  0  0  0  0  0  0  0  0  0
  181.5060   22.2150   47.9950 C   0  0  0  0  0  0  0  0  0  0  0  0
  182.3080   21.0320   47.5530 C   0  0  0  0  0  0  0  0  0  0  0  0
  182.1220   20.7550   46.0650 C   0  0  0  0  0  0  0  0  0  0  0  0
  180.9210   19.8650   45.7940 C   0  0  0  0  0  0  0  0  0  0  0  0
  173.1720   24.1248   52.4276 H   0  0  0  0  0  0  0  0  0  0  0  0
  174.5304   24.3898   51.2825 H   0  0  0  0  0  0  0  0  0  0  0  0
  173.1246   25.5080   51.2825 H   0  0  0  0  0  0  0  0  0  0  0  0
  171.1600   25.0292   50.1208 H   0  0  0  0  0  0  0  0  0  0  0  0
  172.4355   25.0797   48.8569 H   0  0  0  0  0  0  0  0  0  0  0  0
  171.2231   23.7543   48.8569 H   0  0  0  0  0  0  0  0  0  0  0  0
  172.4670   21.8850   51.3540 H   0  0  0  0  0  0  0  0  0  0  0  0
  174.0518   20.1798   47.3195 H   0  0  0  0  0  0  0  0  0  0  0  0
  175.7355   18.9098   45.9574 H   0  0  0  0  0  0  0  0  0  0  0  0
  178.4630   18.8880   45.4000 H   0  0  0  0  0  0  0  0  0  0  0  0
  177.1578   22.7846   48.8131 H   0  0  0  0  0  0  0  0  0  0  0  0
  179.8650   26.1050   49.9990 H   0  0  0  0  0  0  0  0  0  0  0  0
  178.7470   25.8850   48.7290 H   0  0  0  0  0  0  0  0  0  0  0  0
  183.2235   23.1968   48.7889 H   0  0  0  0  0  0  0  0  0  0  0  0
  183.3724   21.2281   47.7497 H   0  0  0  0  0  0  0  0  0  0  0  0
  181.9618   20.1513   48.1139 H   0  0  0  0  0  0  0  0  0  0  0  0
  181.9795   21.7118   45.5414 H   0  0  0  0  0  0  0  0  0  0  0  0
  183.0194   20.2314   45.7036 H   0  0  0  0  0  0  0  0  0  0  0  0
  180.8001   19.7819   44.7038 H   0  0  0  0  0  0  0  0  0  0  0  0
  181.1367   18.9076   46.2908 H   0  0  0  0  0  0  0  0  0  0  0  0
  1  2  1  0
  2  3  1  0
  2  4  1  0
  2  5  1  0
  5  6  3  0
  6  7  1  0
  7  8  2  0
  8  9  1  0
  9 10  2  0
 10 11  1  0
 11 12  1  0
 12 13  2  0
 13 14  1  0
 14 15  2  0
 13 16  1  0
 16 17  2  0
 17 18  1  0
 18 19  1  0
 18 20  2  0
 20 21  1  0
 21 22  2  0
 22 23  1  0
 23 24  1  0
 24 25  1  0
 15  7  1  0
 22 16  1  0
 14 10  1  0
 25 12  1  0
  1 26  1  0
  1 27  1  0
  1 28  1  0
  3 29  1  0
  3 30  1  0
  3 31  1  0
  4 32  1  0
  8 33  1  0
  9 34  1  0
 11 35  1  0
 15 36  1  0
 19 37  1  0
 19 38  1  0
 21 39  1  0
 23 40  1  0
 23 41  1  0
 24 42  1  0
 24 43  1  0
 25 44  1  0
 25 45  1  0
M  END
>  <meeko>  (3) 
{"is_sidechain": [false], "free_energy": -6.927, "intermolecular_energy": -9.352, "internal_energy": 0.703}

$$$$
VP7_out
     RDKit          3D

 45 48  0  0  0  0  0  0  0  0999 V2000
  175.5320   18.2590   46.9390 C   0  0  0  0  0  0  0  0  0  0  0  0
  175.8360   19.5980   47.6070 C   0  0  0  0  0  0  0  0  0  0  0  0
  175.5790   19.5220   49.1100 C   0  0  0  0  0  0  0  0  0  0  0  0
  174.9480   20.5780   47.0670 O   0  0  0  0  0  0  0  0  0  0  0  0
  177.2220   20.0090   47.3380 C   0  0  0  0  0  0  0  0  0  0  0  0
  178.3540   20.3410   47.1100 C   0  0  0  0  0  0  0  0  0  0  0  0
  179.7030   20.7380   46.8450 C   0  0  0  0  0  0  0  0  0  0  0  0
  180.4540   20.0530   45.8920 C   0  0  0  0  0  0  0  0  0  0  0  0
  181.7750   20.4200   45.6200 C   0  0  0  0  0  0  0  0  0  0  0  0
  182.3100   21.4980   46.3380 C   0  0  0  0  0  0  0  0  0  0  0  0
  183.5590   22.0550   46.2780 N   0  0  0  0  0  0  0  0  0  0  0  0
  183.6880   23.0980   47.1680 C   0  0  0  0  0  0  0  0  0  0  0  0
  182.4640   23.2470   47.8160 C   0  0  0  0  0  0  0  0  0  0  0  0
  181.5940   22.2140   47.2920 C   0  0  0  0  0  0  0  0  0  0  0  0
  180.2600   21.8140   47.5470 C   0  0  0  0  0  0  0  0  0  0  0  0
  182.1290   24.2570   48.8310 C   0  0  0  0  0  0  0  0  0  0  0  0
  180.8010   24.4930   48.9460 N   0  0  0  0  0  0  0  0  0  0  0  0
  180.3930   25.3610   49.8680 C   0  0  0  0  0  0  0  0  0  0  0  0
  179.0380   25.6040   49.9610 N   0  0  0  0  0  0  0  0  0  0  0  0
  181.1990   26.0460   50.6730 N   0  0  0  0  0  0  0  0  0  0  0  0
  182.5130   25.8030   50.5340 C   0  0  0  0  0  0  0  0  0  0  0  0
  183.0560   24.9190   49.6160 C   0  0  0  0  0  0  0  0  0  0  0  0
  184.5420   24.7530   49.5400 C   0  0  0  0  0  0  0  0  0  0  0  0
  185.0590   25.0190   48.1270 C   0  0  0  0  0  0  0  0  0  0  0  0
  185.0140   23.7790   47.2520 C   0  0  0  0  0  0  0  0  0  0  0  0
  175.3585   17.4950   47.7112 H   0  0  0  0  0  0  0  0  0  0  0  0
  174.6334   18.3575   46.3123 H   0  0  0  0  0  0  0  0  0  0  0  0
  176.3851   17.9598   46.3123 H   0  0  0  0  0  0  0  0  0  0  0  0
  176.4963   19.7933   49.6530 H   0  0  0  0  0  0  0  0  0  0  0  0
  174.7730   20.2203   49.3799 H   0  0  0  0  0  0  0  0  0  0  0  0
  175.2824   18.4977   49.3799 H   0  0  0  0  0  0  0  0  0  0  0  0
  174.1240   20.5850   47.5790 H   0  0  0  0  0  0  0  0  0  0  0  0
  180.0012   19.2120   45.3463 H   0  0  0  0  0  0  0  0  0  0  0  0
  182.3730   19.8822   44.8696 H   0  0  0  0  0  0  0  0  0  0  0  0
  184.2760   21.7480   45.6760 H   0  0  0  0  0  0  0  0  0  0  0  0
  179.6602   22.3493   48.2978 H   0  0  0  0  0  0  0  0  0  0  0  0
  178.6360   26.3480   49.4560 H   0  0  0  0  0  0  0  0  0  0  0  0
  178.4740   25.0340   50.5310 H   0  0  0  0  0  0  0  0  0  0  0  0
  183.2060   26.3437   51.1953 H   0  0  0  0  0  0  0  0  0  0  0  0
  185.0176   25.4609   50.2347 H   0  0  0  0  0  0  0  0  0  0  0  0
  184.7897   23.7160   49.8108 H   0  0  0  0  0  0  0  0  0  0  0  0
  184.4380   25.8004   47.6647 H   0  0  0  0  0  0  0  0  0  0  0  0
  186.1096   25.3349   48.2078 H   0  0  0  0  0  0  0  0  0  0  0  0
  185.3093   24.0721   46.2337 H   0  0  0  0  0  0  0  0  0  0  0  0
  185.6959   23.0543   47.7208 H   0  0  0  0  0  0  0  0  0  0  0  0
  1  2  1  0
  2  3  1  0
  2  4  1  0
  2  5  1  0
  5  6  3  0
  6  7  1  0
  7  8  2  0
  8  9  1  0
  9 10  2  0
 10 11  1  0
 11 12  1  0
 12 13  2  0
 13 14  1  0
 14 15  2  0
 13 16  1  0
 16 17  2  0
 17 18  1  0
 18 19  1  0
 18 20  2  0
 20 21  1  0
 21 22  2  0
 22 23  1  0
 23 24  1  0
 24 25  1  0
 15  7  1  0
 22 16  1  0
 14 10  1  0
 25 12  1  0
  1 26  1  0
  1 27  1  0
  1 28  1  0
  3 29  1  0
  3 30  1  0
  3 31  1  0
  4 32  1  0
  8 33  1  0
  9 34  1  0
 11 35  1  0
 15 36  1  0
 19 37  1  0
 19 38  1  0
 21 39  1  0
 23 40  1  0
 23 41  1  0
 24 42  1  0
 24 43  1  0
 25 44  1  0
 25 45  1  0
M  END
>  <meeko>  (4) 
{"is_sidechain": [false], "free_energy": -6.585, "intermolecular_energy": -8.89, "internal_energy": 0.703}

$$$$
VP7_out
     RDKit          3D

 45 48  0  0  0  0  0  0  0  0999 V2000
  185.7990   22.4880   44.1570 C   0  0  0  0  0  0  0  0  0  0  0  0
  184.9590   23.0550   45.3010 C   0  0  0  0  0  0  0  0  0  0  0  0
  184.6010   24.5150   45.0350 C   0  0  0  0  0  0  0  0  0  0  0  0
  185.7430   23.0130   46.4930 O   0  0  0  0  0  0  0  0  0  0  0  0
  183.7440   22.2500   45.4970 C   0  0  0  0  0  0  0  0  0  0  0  0
  182.7550   21.5860   45.6570 C   0  0  0  0  0  0  0  0  0  0  0  0
  181.5740   20.8000   45.8470 C   0  0  0  0  0  0  0  0  0  0  0  0
  181.4940   19.5240   45.2950 C   0  0  0  0  0  0  0  0  0  0  0  0
  180.3490   18.7410   45.4630 C   0  0  0  0  0  0  0  0  0  0  0  0
  179.2930   19.2850   46.2040 C   0  0  0  0  0  0  0  0  0  0  0  0
  178.0720   18.7490   46.5130 N   0  0  0  0  0  0  0  0  0  0  0  0
  177.3100   19.6240   47.2550 C   0  0  0  0  0  0  0  0  0  0  0  0
  178.0760   20.7690   47.4640 C   0  0  0  0  0  0  0  0  0  0  0  0
  179.3340   20.5520   46.7790 C   0  0  0  0  0  0  0  0  0  0  0  0
  180.5060   21.3220   46.5860 C   0  0  0  0  0  0  0  0  0  0  0  0
  177.6780   21.9590   48.2310 C   0  0  0  0  0  0  0  0  0  0  0  0
  178.7230   22.7000   48.6670 N   0  0  0  0  0  0  0  0  0  0  0  0
  178.4650   23.8210   49.3350 C   0  0  0  0  0  0  0  0  0  0  0  0
  179.5420   24.5550   49.7890 N   0  0  0  0  0  0  0  0  0  0  0  0
  177.2480   24.2590   49.6380 N   0  0  0  0  0  0  0  0  0  0  0  0
  176.2260   23.5020   49.2040 C   0  0  0  0  0  0  0  0  0  0  0  0
  176.3680   22.3210   48.4950 C   0  0  0  0  0  0  0  0  0  0  0  0
  175.1510   21.5530   48.0860 C   0  0  0  0  0  0  0  0  0  0  0  0
  175.1980   20.1170   48.5910 C   0  0  0  0  0  0  0  0  0  0  0  0
  175.9300   19.1970   47.6300 C   0  0  0  0  0  0  0  0  0  0  0  0
  186.6439   21.9177   44.5702 H   0  0  0  0  0  0  0  0  0  0  0  0
  185.1763   21.8247   43.5387 H   0  0  0  0  0  0  0  0  0  0  0  0
  186.1813   23.3136   43.5387 H   0  0  0  0  0  0  0  0  0  0  0  0
  184.4720   25.0412   45.9923 H   0  0  0  0  0  0  0  0  0  0  0  0
  185.4088   24.9918   44.4605 H   0  0  0  0  0  0  0  0  0  0  0  0
  183.6642   24.5640   44.4605 H   0  0  0  0  0  0  0  0  0  0  0  0
  185.5450   22.1980   46.9820 H   0  0  0  0  0  0  0  0  0  0  0  0
  182.3432   19.1274   44.7192 H   0  0  0  0  0  0  0  0  0  0  0  0
  180.2797   17.7328   45.0285 H   0  0  0  0  0  0  0  0  0  0  0  0
  177.7750   17.8510   46.2380 H   0  0  0  0  0  0  0  0  0  0  0  0
  180.5775   22.3315   47.0171 H   0  0  0  0  0  0  0  0  0  0  0  0
  179.4960   25.0070   50.6630 H   0  0  0  0  0  0  0  0  0  0  0  0
  180.3550   24.6270   49.2390 H   0  0  0  0  0  0  0  0  0  0  0  0
  175.2049   23.8446   49.4277 H   0  0  0  0  0  0  0  0  0  0  0  0
  174.2605   22.0481   48.5005 H   0  0  0  0  0  0  0  0  0  0  0  0
  175.1121   21.5300   46.9869 H   0  0  0  0  0  0  0  0  0  0  0  0
  175.7147   20.0992   49.5619 H   0  0  0  0  0  0  0  0  0  0  0  0
  174.1629   19.7563   48.6829 H   0  0  0  0  0  0  0  0  0  0  0  0
  175.9982   18.2038   48.0978 H   0  0  0  0  0  0  0  0  0  0  0  0
  175.3467   19.2097   46.6974 H   0  0  0  0  0  0  0  0  0  0  0  0
  1  2  1  0
  2  3  1  0
  2  4  1  0
  2  5  1  0
  5  6  3  0
  6  7  1  0
  7  8  2  0
  8  9  1  0
  9 10  2  0
 10 11  1  0
 11 12  1  0
 12 13  2  0
 13 14  1  0
 14 15  2  0
 13 16  1  0
 16 17  2  0
 17 18  1  0
 18 19  1  0
 18 20  2  0
 20 21  1  0
 21 22  2  0
 22 23  1  0
 23 24  1  0
 24 25  1  0
 15  7  1  0
 22 16  1  0
 14 10  1  0
 25 12  1  0
  1 26  1  0
  1 27  1  0
  1 28  1  0
  3 29  1  0
  3 30  1  0
  3 31  1  0
  4 32  1  0
  8 33  1  0
  9 34  1  0
 11 35  1  0
 15 36  1  0
 19 37  1  0
 19 38  1  0
 21 39  1  0
 23 40  1  0
 23 41  1  0
 24 42  1  0
 24 43  1  0
 25 44  1  0
 25 45  1  0
M  END
>  <meeko>  (5) 
{"is_sidechain": [false], "free_energy": -6.559, "intermolecular_energy": -8.855, "internal_energy": 0.703}

$$$$
VP7_out
     RDKit          3D

 45 48  0  0  0  0  0  0  0  0999 V2000
  175.9200   25.7290   53.3720 C   0  0  0  0  0  0  0  0  0  0  0  0
  175.5380   24.2660   53.5920 C   0  0  0  0  0  0  0  0  0  0  0  0
  174.0630   24.1440   53.9670 C   0  0  0  0  0  0  0  0  0  0  0  0
  176.3050   23.7650   54.6870 O   0  0  0  0  0  0  0  0  0  0  0  0
  175.8350   23.4670   52.3930 C   0  0  0  0  0  0  0  0  0  0  0  0
  176.0860   22.8190   51.4130 C   0  0  0  0  0  0  0  0  0  0  0  0
  176.3900   22.0450   50.2480 C   0  0  0  0  0  0  0  0  0  0  0  0
  175.3650   21.4230   49.5410 C   0  0  0  0  0  0  0  0  0  0  0  0
  175.6390   20.6580   48.4040 C   0  0  0  0  0  0  0  0  0  0  0  0
  176.9770   20.5430   48.0060 C   0  0  0  0  0  0  0  0  0  0  0  0
  177.5210   19.8600   46.9520 N   0  0  0  0  0  0  0  0  0  0  0  0
  178.8920   19.9900   46.9210 C   0  0  0  0  0  0  0  0  0  0  0  0
  179.2550   20.8160   47.9820 C   0  0  0  0  0  0  0  0  0  0  0  0
  178.0310   21.1530   48.6790 C   0  0  0  0  0  0  0  0  0  0  0  0
  177.7200   21.9170   49.8290 C   0  0  0  0  0  0  0  0  0  0  0  0
  180.6180   21.2540   48.3210 C   0  0  0  0  0  0  0  0  0  0  0  0
  180.7390   21.7260   49.5840 N   0  0  0  0  0  0  0  0  0  0  0  0
  181.9430   22.1080   50.0010 C   0  0  0  0  0  0  0  0  0  0  0  0
  182.0470   22.6030   51.2840 N   0  0  0  0  0  0  0  0  0  0  0  0
  183.0430   22.0920   49.2550 N   0  0  0  0  0  0  0  0  0  0  0  0
  182.8970   21.6300   48.0020 C   0  0  0  0  0  0  0  0  0  0  0  0
  181.6980   21.1990   47.4580 C   0  0  0  0  0  0  0  0  0  0  0  0
  181.6580   20.7270   46.0390 C   0  0  0  0  0  0  0  0  0  0  0  0
  181.1480   19.3040   45.9590 C   0  0  0  0  0  0  0  0  0  0  0  0
  179.6340   19.2610   45.8500 C   0  0  0  0  0  0  0  0  0  0  0  0
  176.0494   26.2245   54.3455 H   0  0  0  0  0  0  0  0  0  0  0  0
  176.8618   25.7809   52.8061 H   0  0  0  0  0  0  0  0  0  0  0  0
  175.1238   26.2347   52.8061 H   0  0  0  0  0  0  0  0  0  0  0  0
  173.9626   24.1357   55.0624 H   0  0  0  0  0  0  0  0  0  0  0  0
  173.5078   24.9993   53.5544 H   0  0  0  0  0  0  0  0  0  0  0  0
  173.6559   23.2091   53.5544 H   0  0  0  0  0  0  0  0  0  0  0  0
  176.8880   24.4640   55.0200 H   0  0  0  0  0  0  0  0  0  0  0  0
  174.3252   21.5351   49.8818 H   0  0  0  0  0  0  0  0  0  0  0  0
  174.8329   20.1639   47.8418 H   0  0  0  0  0  0  0  0  0  0  0  0
  176.9980   19.3400   46.2980 H   0  0  0  0  0  0  0  0  0  0  0  0
  178.5240   22.4109   50.3944 H   0  0  0  0  0  0  0  0  0  0  0  0
  181.7730   23.5300   51.4780 H   0  0  0  0  0  0  0  0  0  0  0  0
  182.3950   22.0310   52.0060 H   0  0  0  0  0  0  0  0  0  0  0  0
  183.7919   21.5912   47.3635 H   0  0  0  0  0  0  0  0  0  0  0  0
  180.9907   21.3822   45.4599 H   0  0  0  0  0  0  0  0  0  0  0  0
  182.6779   20.7592   45.6283 H   0  0  0  0  0  0  0  0  0  0  0  0
  181.5841   18.8172   45.0742 H   0  0  0  0  0  0  0  0  0  0  0  0
  181.4429   18.7793   46.8797 H   0  0  0  0  0  0  0  0  0  0  0  0
  179.3512   19.7007   44.8822 H   0  0  0  0  0  0  0  0  0  0  0  0
  179.3534   18.2026   45.9548 H   0  0  0  0  0  0  0  0  0  0  0  0
  1  2  1  0
  2  3  1  0
  2  4  1  0
  2  5  1  0
  5  6  3  0
  6  7  1  0
  7  8  2  0
  8  9  1  0
  9 10  2  0
 10 11  1  0
 11 12  1  0
 12 13  2  0
 13 14  1  0
 14 15  2  0
 13 16  1  0
 16 17  2  0
 17 18  1  0
 18 19  1  0
 18 20  2  0
 20 21  1  0
 21 22  2  0
 22 23  1  0
 23 24  1  0
 24 25  1  0
 15  7  1  0
 22 16  1  0
 14 10  1  0
 25 12  1  0
  1 26  1  0
  1 27  1  0
  1 28  1  0
  3 29  1  0
  3 30  1  0
  3 31  1  0
  4 32  1  0
  8 33  1  0
  9 34  1  0
 11 35  1  0
 15 36  1  0
 19 37  1  0
 19 38  1  0
 21 39  1  0
 23 40  1  0
 23 41  1  0
 24 42  1  0
 24 43  1  0
 25 44  1  0
 25 45  1  0
M  END
>  <meeko>  (6) 
{"is_sidechain": [false], "free_energy": -6.482, "intermolecular_energy": -8.829, "internal_energy": 0.781}

$$$$
VP7_out
     RDKit          3D

 45 48  0  0  0  0  0  0  0  0999 V2000
  181.2120   15.3450   44.2540 C   0  0  0  0  0  0  0  0  0  0  0  0
  181.2920   16.7910   43.7700 C   0  0  0  0  0  0  0  0  0  0  0  0
  180.8490   16.8980   42.3130 C   0  0  0  0  0  0  0  0  0  0  0  0
  182.6550   17.2100   43.8390 O   0  0  0  0  0  0  0  0  0  0  0  0
  180.4780   17.6690   44.6250 C   0  0  0  0  0  0  0  0  0  0  0  0
  179.8150   18.3810   45.3300 C   0  0  0  0  0  0  0  0  0  0  0  0
  179.0300   19.2350   46.1690 C   0  0  0  0  0  0  0  0  0  0  0  0
  177.6480   19.0720   46.2240 C   0  0  0  0  0  0  0  0  0  0  0  0
  176.8610   19.8980   47.0320 C   0  0  0  0  0  0  0  0  0  0  0  0
  177.5130   20.8880   47.7790 C   0  0  0  0  0  0  0  0  0  0  0  0
  176.9940   21.8230   48.6330 N   0  0  0  0  0  0  0  0  0  0  0  0
  177.9820   22.6280   49.1590 C   0  0  0  0  0  0  0  0  0  0  0  0
  179.1980   22.1810   48.6480 C   0  0  0  0  0  0  0  0  0  0  0  0
  178.8910   21.0800   47.7590 C   0  0  0  0  0  0  0  0  0  0  0  0
  179.6590   20.2310   46.9260 C   0  0  0  0  0  0  0  0  0  0  0  0
  180.5290   22.7250   48.9590 C   0  0  0  0  0  0  0  0  0  0  0  0
  181.5400   21.8560   48.7240 N   0  0  0  0  0  0  0  0  0  0  0  0
  182.7870   22.2700   48.9330 C   0  0  0  0  0  0  0  0  0  0  0  0
  183.8050   21.3670   48.7070 N   0  0  0  0  0  0  0  0  0  0  0  0
  183.1190   23.4720   49.3900 N   0  0  0  0  0  0  0  0  0  0  0  0
  182.0990   24.3140   49.6260 C   0  0  0  0  0  0  0  0  0  0  0  0
  180.7630   24.0010   49.4410 C   0  0  0  0  0  0  0  0  0  0  0  0
  179.7140   25.0180   49.7630 C   0  0  0  0  0  0  0  0  0  0  0  0
  178.6960   24.4760   50.7590 C   0  0  0  0  0  0  0  0  0  0  0  0
  177.5640   23.7290   50.0750 C   0  0  0  0  0  0  0  0  0  0  0  0
  181.2110   15.3260   45.3538 H   0  0  0  0  0  0  0  0  0  0  0  0
  180.2869   14.8833   43.8784 H   0  0  0  0  0  0  0  0  0  0  0  0
  182.0805   14.7840   43.8784 H   0  0  0  0  0  0  0  0  0  0  0  0
  179.7805   17.1561   42.2727 H   0  0  0  0  0  0  0  0  0  0  0  0
  181.4345   17.6805   41.8082 H   0  0  0  0  0  0  0  0  0  0  0  0
  181.0128   15.9345   41.8082 H   0  0  0  0  0  0  0  0  0  0  0  0
  182.8890   17.6860   43.0270 H   0  0  0  0  0  0  0  0  0  0  0  0
  177.1697   18.2836   45.6243 H   0  0  0  0  0  0  0  0  0  0  0  0
  175.7689   19.7751   47.0796 H   0  0  0  0  0  0  0  0  0  0  0  0
  176.0360   21.9120   48.8450 H   0  0  0  0  0  0  0  0  0  0  0  0
  180.7508   20.3539   46.8734 H   0  0  0  0  0  0  0  0  0  0  0  0
  183.6050   20.4040   48.6470 H   0  0  0  0  0  0  0  0  0  0  0  0
  184.7310   21.6850   48.6050 H   0  0  0  0  0  0  0  0  0  0  0  0
  182.3423   25.3225   49.9917 H   0  0  0  0  0  0  0  0  0  0  0  0
  180.1983   25.9063   50.1948 H   0  0  0  0  0  0  0  0  0  0  0  0
  179.1844   25.2730   48.8332 H   0  0  0  0  0  0  0  0  0  0  0  0
  179.2073   23.7890   51.4494 H   0  0  0  0  0  0  0  0  0  0  0  0
  178.2599   25.3319   51.2949 H   0  0  0  0  0  0  0  0  0  0  0  0
  176.9235   23.2946   50.8568 H   0  0  0  0  0  0  0  0  0  0  0  0
  177.0520   24.4696   49.4430 H   0  0  0  0  0  0  0  0  0  0  0  0
  1  2  1  0
  2  3  1  0
  2  4  1  0
  2  5  1  0
  5  6  3  0
  6  7  1  0
  7  8  2  0
  8  9  1  0
  9 10  2  0
 10 11  1  0
 11 12  1  0
 12 13  2  0
 13 14  1  0
 14 15  2  0
 13 16  1  0
 16 17  2  0
 17 18  1  0
 18 19  1  0
 18 20  2  0
 20 21  1  0
 21 22  2  0
 22 23  1  0
 23 24  1  0
 24 25  1  0
 15  7  1  0
 22 16  1  0
 14 10  1  0
 25 12  1  0
  1 26  1  0
  1 27  1  0
  1 28  1  0
  3 29  1  0
  3 30  1  0
  3 31  1  0
  4 32  1  0
  8 33  1  0
  9 34  1  0
 11 35  1  0
 15 36  1  0
 19 37  1  0
 19 38  1  0
 21 39  1  0
 23 40  1  0
 23 41  1  0
 24 42  1  0
 24 43  1  0
 25 44  1  0
 25 45  1  0
M  END
>  <meeko>  (7) 
{"is_sidechain": [false], "free_energy": -6.355, "intermolecular_energy": -8.581, "internal_energy": 0.705}

$$$$
VP7_out
     RDKit          3D

 45 48  0  0  0  0  0  0  0  0999 V2000
  181.1330   18.8930   45.0840 C   0  0  0  0  0  0  0  0  0  0  0  0
  181.2000   19.8800   46.2480 C   0  0  0  0  0  0  0  0  0  0  0  0
  181.9550   21.1430   45.8420 C   0  0  0  0  0  0  0  0  0  0  0  0
  181.9260   19.2650   47.3130 O   0  0  0  0  0  0  0  0  0  0  0  0
  179.8470   20.2140   46.7210 C   0  0  0  0  0  0  0  0  0  0  0  0
  178.7400   20.4790   47.1060 C   0  0  0  0  0  0  0  0  0  0  0  0
  177.4240   20.8000   47.5670 C   0  0  0  0  0  0  0  0  0  0  0  0
  176.3140   20.2450   46.9360 C   0  0  0  0  0  0  0  0  0  0  0  0
  175.0190   20.5490   47.3650 C   0  0  0  0  0  0  0  0  0  0  0  0
  174.8830   21.4270   48.4480 C   0  0  0  0  0  0  0  0  0  0  0  0
  173.7500   21.8940   49.0590 N   0  0  0  0  0  0  0  0  0  0  0  0
  174.0530   22.7610   50.0860 C   0  0  0  0  0  0  0  0  0  0  0  0
  175.4420   22.8400   50.1670 C   0  0  0  0  0  0  0  0  0  0  0  0
  175.9640   21.9980   49.1110 C   0  0  0  0  0  0  0  0  0  0  0  0
  177.2620   21.6750   48.6480 C   0  0  0  0  0  0  0  0  0  0  0  0
  176.2170   23.6270   51.1400 C   0  0  0  0  0  0  0  0  0  0  0  0
  177.4990   23.8450   50.7640 N   0  0  0  0  0  0  0  0  0  0  0  0
  178.2700   24.5840   51.5570 C   0  0  0  0  0  0  0  0  0  0  0  0
  179.5800   24.7810   51.1700 N   0  0  0  0  0  0  0  0  0  0  0  0
  177.8850   25.1040   52.7180 N   0  0  0  0  0  0  0  0  0  0  0  0
  176.6120   24.8660   53.0750 C   0  0  0  0  0  0  0  0  0  0  0  0
  175.7140   24.1190   52.3310 C   0  0  0  0  0  0  0  0  0  0  0  0
  174.3260   23.9040   52.8480 C   0  0  0  0  0  0  0  0  0  0  0  0
  173.3040   24.4310   51.8570 C   0  0  0  0  0  0  0  0  0  0  0  0
  172.9170   23.3910   50.8200 C   0  0  0  0  0  0  0  0  0  0  0  0
  181.0634   17.8677   45.4762 H   0  0  0  0  0  0  0  0  0  0  0  0
  180.2476   19.1111   44.4688 H   0  0  0  0  0  0  0  0  0  0  0  0
  182.0398   18.9895   44.4688 H   0  0  0  0  0  0  0  0  0  0  0  0
  182.2779   21.6831   46.7442 H   0  0  0  0  0  0  0  0  0  0  0  0
  182.8365   20.8672   45.2446 H   0  0  0  0  0  0  0  0  0  0  0  0
  181.2947   21.7888   45.2446 H   0  0  0  0  0  0  0  0  0  0  0  0
  182.0080   18.3140   47.1410 H   0  0  0  0  0  0  0  0  0  0  0  0
  176.4580   19.5583   46.0888 H   0  0  0  0  0  0  0  0  0  0  0  0
  174.1381   20.1143   46.8699 H   0  0  0  0  0  0  0  0  0  0  0  0
  172.8350   21.6440   48.7970 H   0  0  0  0  0  0  0  0  0  0  0  0
  178.1446   22.1120   49.1381 H   0  0  0  0  0  0  0  0  0  0  0  0
  179.9060   24.3980   50.3230 H   0  0  0  0  0  0  0  0  0  0  0  0
  180.1880   25.3050   51.7400 H   0  0  0  0  0  0  0  0  0  0  0  0
  176.2582   25.2943   54.0244 H   0  0  0  0  0  0  0  0  0  0  0  0
  174.1595   22.8277   53.0024 H   0  0  0  0  0  0  0  0  0  0  0  0
  174.2121   24.4446   53.7992 H   0  0  0  0  0  0  0  0  0  0  0  0
  172.4013   24.7346   52.4075 H   0  0  0  0  0  0  0  0  0  0  0  0
  173.7568   25.2821   51.3273 H   0  0  0  0  0  0  0  0  0  0  0  0
  172.3604   22.5925   51.3324 H   0  0  0  0  0  0  0  0  0  0  0  0
  172.3275   23.9265   50.0612 H   0  0  0  0  0  0  0  0  0  0  0  0
  1  2  1  0
  2  3  1  0
  2  4  1  0
  2  5  1  0
  5  6  3  0
  6  7  1  0
  7  8  2  0
  8  9  1  0
  9 10  2  0
 10 11  1  0
 11 12  1  0
 12 13  2  0
 13 14  1  0
 14 15  2  0
 13 16  1  0
 16 17  2  0
 17 18  1  0
 18 19  1  0
 18 20  2  0
 20 21  1  0
 21 22  2  0
 22 23  1  0
 23 24  1  0
 24 25  1  0
 15  7  1  0
 22 16  1  0
 14 10  1  0
 25 12  1  0
  1 26  1  0
  1 27  1  0
  1 28  1  0
  3 29  1  0
  3 30  1  0
  3 31  1  0
  4 32  1  0
  8 33  1  0
  9 34  1  0
 11 35  1  0
 15 36  1  0
 19 37  1  0
 19 38  1  0
 21 39  1  0
 23 40  1  0
 23 41  1  0
 24 42  1  0
 24 43  1  0
 25 44  1  0
 25 45  1  0
M  END
>  <meeko>  (8) 
{"is_sidechain": [false], "free_energy": -6.3, "intermolecular_energy": -8.578, "internal_energy": 0.777}

$$$$
VP7_out
     RDKit          3D

 45 48  0  0  0  0  0  0  0  0999 V2000
  182.2310   20.3650   45.8460 C   0  0  0  0  0  0  0  0  0  0  0  0
  181.9840   21.1500   47.1330 C   0  0  0  0  0  0  0  0  0  0  0  0
  182.5880   22.5490   47.0360 C   0  0  0  0  0  0  0  0  0  0  0  0
  182.6400   20.4700   48.2040 O   0  0  0  0  0  0  0  0  0  0  0  0
  180.5440   21.2260   47.4240 C   0  0  0  0  0  0  0  0  0  0  0  0
  179.3670   21.2800   47.6600 C   0  0  0  0  0  0  0  0  0  0  0  0
  177.9650   21.3500   47.9400 C   0  0  0  0  0  0  0  0  0  0  0  0
  177.1130   20.3550   47.4680 C   0  0  0  0  0  0  0  0  0  0  0  0
  175.7400   20.4060   47.7250 C   0  0  0  0  0  0  0  0  0  0  0  0
  175.2590   21.4900   48.4710 C   0  0  0  0  0  0  0  0  0  0  0  0
  173.9790   21.7880   48.8560 N   0  0  0  0  0  0  0  0  0  0  0  0
  173.9300   22.9640   49.5720 C   0  0  0  0  0  0  0  0  0  0  0  0
  175.2350   23.4380   49.6830 C   0  0  0  0  0  0  0  0  0  0  0  0
  176.0750   22.5010   48.9670 C   0  0  0  0  0  0  0  0  0  0  0  0
  177.4610   22.4230   48.6850 C   0  0  0  0  0  0  0  0  0  0  0  0
  175.6660   24.6540   50.3910 C   0  0  0  0  0  0  0  0  0  0  0  0
  176.9690   24.6380   50.7550 N   0  0  0  0  0  0  0  0  0  0  0  0
  177.4660   25.7110   51.3640 C   0  0  0  0  0  0  0  0  0  0  0  0
  178.7920   25.6720   51.7450 N   0  0  0  0  0  0  0  0  0  0  0  0
  176.7660   26.7960   51.6760 N   0  0  0  0  0  0  0  0  0  0  0  0
  175.4720   26.7860   51.3150 C   0  0  0  0  0  0  0  0  0  0  0  0
  174.8450   25.7320   50.6710 C   0  0  0  0  0  0  0  0  0  0  0  0
  173.3880   25.8290   50.3420 C   0  0  0  0  0  0  0  0  0  0  0  0
  172.6060   24.6570   50.9380 C   0  0  0  0  0  0  0  0  0  0  0  0
  172.5910   23.4460   50.0220 C   0  0  0  0  0  0  0  0  0  0  0  0
  182.5525   19.3431   46.0958 H   0  0  0  0  0  0  0  0  0  0  0  0
  181.3024   20.3237   45.2577 H   0  0  0  0  0  0  0  0  0  0  0  0
  183.0159   20.8629   45.2577 H   0  0  0  0  0  0  0  0  0  0  0  0
  182.7592   22.9454   48.0477 H   0  0  0  0  0  0  0  0  0  0  0  0
  183.5446   22.4987   46.4952 H   0  0  0  0  0  0  0  0  0  0  0  0
  181.8954   23.2107   46.4952 H   0  0  0  0  0  0  0  0  0  0  0  0
  183.2450   21.0810   48.6520 H   0  0  0  0  0  0  0  0  0  0  0  0
  177.5257   19.5181   46.8854 H   0  0  0  0  0  0  0  0  0  0  0  0
  175.0616   19.6232   47.3549 H   0  0  0  0  0  0  0  0  0  0  0  0
  173.1930   21.2330   48.6460 H   0  0  0  0  0  0  0  0  0  0  0  0
  178.1415   23.2057   49.0514 H   0  0  0  0  0  0  0  0  0  0  0  0
  179.0720   26.0790   52.5970 H   0  0  0  0  0  0  0  0  0  0  0  0
  179.4570   25.2370   51.1650 H   0  0  0  0  0  0  0  0  0  0  0  0
  174.8688   27.6762   51.5468 H   0  0  0  0  0  0  0  0  0  0  0  0
  172.9901   26.7700   50.7498 H   0  0  0  0  0  0  0  0  0  0  0  0
  173.2758   25.8017   49.2481 H   0  0  0  0  0  0  0  0  0  0  0  0
  173.0706   24.3716   51.8934 H   0  0  0  0  0  0  0  0  0  0  0  0
  171.5653   24.9847   51.0781 H   0  0  0  0  0  0  0  0  0  0  0  0
  172.0967   22.6221   50.5576 H   0  0  0  0  0  0  0  0  0  0  0  0
  172.0624   23.7630   49.1109 H   0  0  0  0  0  0  0  0  0  0  0  0
  1  2  1  0
  2  3  1  0
  2  4  1  0
  2  5  1  0
  5  6  3  0
  6  7  1  0
  7  8  2  0
  8  9  1  0
  9 10  2  0
 10 11  1  0
 11 12  1  0
 12 13  2  0
 13 14  1  0
 14 15  2  0
 13 16  1  0
 16 17  2  0
 17 18  1  0
 18 19  1  0
 18 20  2  0
 20 21  1  0
 21 22  2  0
 22 23  1  0
 23 24  1  0
 24 25  1  0
 15  7  1  0
 22 16  1  0
 14 10  1  0
 25 12  1  0
  1 26  1  0
  1 27  1  0
  1 28  1  0
  3 29  1  0
  3 30  1  0
  3 31  1  0
  4 32  1  0
  8 33  1  0
  9 34  1  0
 11 35  1  0
 15 36  1  0
 19 37  1  0
 19 38  1  0
 21 39  1  0
 23 40  1  0
 23 41  1  0
 24 42  1  0
 24 43  1  0
 25 44  1  0
 25 45  1  0
M  END
>  <meeko>  (9) 
{"is_sidechain": [false], "free_energy": -6.026, "intermolecular_energy": -8.128, "internal_energy": 0.696}

$$$$
