cand_051_out
     RDKit          3D

 44 46  0  0  0  0  0  0  0  0999 V2000
  179.6520   18.5150   45.8430 C   0  0  0  0  0  0  0  0  0  0  0  0
  179.6240   19.8550   46.5250 C   0  0  0  0  0  0  0  0  0  0  0  0
  180.8280   20.3810   47.0290 C   0  0  0  0  0  0  0  0  0  0  0  0
  180.8790   21.6230   47.6820 C   0  0  0  0  0  0  0  0  0  0  0  0
  182.1630   22.1240   48.2160 C   0  0  0  0  0  0  0  0  0  0  0  0
  182.8510   22.9210   47.3080 O   0  0  0  0  0  0  0  0  0  0  0  0
  184.0610   23.4530   47.6760 C   0  0  0  0  0  0  0  0  0  0  0  0
  184.7230   24.2360   46.7290 C   0  0  0  0  0  0  0  0  0  0  0  0
  185.9580   24.8090   47.0400 C   0  0  0  0  0  0  0  0  0  0  0  0
  186.5310   24.6000   48.2950 C   0  0  0  0  0  0  0  0  0  0  0  0
  185.8670   23.8190   49.2390 C   0  0  0  0  0  0  0  0  0  0  0  0
  186.4840   23.6560   50.4490 O   0  0  0  0  0  0  0  0  0  0  0  0
  184.6320   23.2450   48.9280 C   0  0  0  0  0  0  0  0  0  0  0  0
  183.9020   22.4180   49.8890 C   0  0  0  0  0  0  0  0  0  0  0  0
  184.3370   22.1940   51.0170 O   0  0  0  0  0  0  0  0  0  0  0  0
  182.6040   21.8500   49.4580 C   0  0  0  0  0  0  0  0  0  0  0  0
  181.9170   21.0810   50.3790 O   0  0  0  0  0  0  0  0  0  0  0  0
  179.6870   22.3340   47.8450 C   0  0  0  0  0  0  0  0  0  0  0  0
  178.4830   21.8260   47.3530 C   0  0  0  0  0  0  0  0  0  0  0  0
  178.4320   20.5900   46.6860 C   0  0  0  0  0  0  0  0  0  0  0  0
  177.0890   20.1040   46.1760 C   0  0  0  0  0  0  0  0  0  0  0  0
  176.2490   19.3590   47.2340 C   0  0  0  0  0  0  0  0  0  0  0  0
  175.6080   18.1180   46.6060 C   0  0  0  0  0  0  0  0  0  0  0  0
  175.1610   20.2490   47.8390 C   0  0  0  0  0  0  0  0  0  0  0  0
  179.6686   17.7181   46.6010 H   0  0  0  0  0  0  0  0  0  0  0  0
  178.7560   18.4046   45.2146 H   0  0  0  0  0  0  0  0  0  0  0  0
  180.5519   18.4422   45.2146 H   0  0  0  0  0  0  0  0  0  0  0  0
  181.7558   19.8026   46.9079 H   0  0  0  0  0  0  0  0  0  0  0  0
  184.2726   24.4015   45.7392 H   0  0  0  0  0  0  0  0  0  0  0  0
  186.4801   25.4263   46.2941 H   0  0  0  0  0  0  0  0  0  0  0  0
  187.5045   25.0506   48.5386 H   0  0  0  0  0  0  0  0  0  0  0  0
  185.9850   23.4000   51.1990 H   0  0  0  0  0  0  0  0  0  0  0  0
  181.7630   21.4110   51.2430 H   0  0  0  0  0  0  0  0  0  0  0  0
  179.6973   23.3029   48.3657 H   0  0  0  0  0  0  0  0  0  0  0  0
  177.5572   22.4040   47.4900 H   0  0  0  0  0  0  0  0  0  0  0  0
  176.5146   20.9756   45.8291 H   0  0  0  0  0  0  0  0  0  0  0  0
  177.2957   19.3851   45.3695 H   0  0  0  0  0  0  0  0  0  0  0  0
  176.9282   19.0639   48.0474 H   0  0  0  0  0  0  0  0  0  0  0  0
  175.2594   17.4430   47.4015 H   0  0  0  0  0  0  0  0  0  0  0  0
  174.7541   18.4220   45.9827 H   0  0  0  0  0  0  0  0  0  0  0  0
  176.3501   17.5976   45.9827 H   0  0  0  0  0  0  0  0  0  0  0  0
  175.2177   20.2026   48.9366 H   0  0  0  0  0  0  0  0  0  0  0  0
  175.3103   21.2872   47.5077 H   0  0  0  0  0  0  0  0  0  0  0  0
  174.1730   19.8969   47.5077 H   0  0  0  0  0  0  0  0  0  0  0  0
  1  2  1  0
  2  3  2  0
  3  4  1  0
  4  5  1  0
  5  6  1  0
  6  7  1  0
  7  8  2  0
  8  9  1  0
  9 10  2  0
 10 11  1  0
 11 12  1  0
 11 13  2  0
 13 14  1  0
 14 15  2  0
 14 16  1  0
 16 17  1  0
  4 18  2  0
 18 19  1  0
 19 20  2  0
 20 21  1  0
 21 22  1  0
 22 23  1  0
 22 24  1  0
 20  2  1  0
 16  5  2  0
 13  7  1  0
  1 25  1  0
  1 26  1  0
  1 27  1  0
  3 28  1  0
  8 29  1  0
  9 30  1  0
 10 31  1  0
 12 32  1  0
 17 33  1  0
 18 34  1  0
 19 35  1  0
 21 36  1  0
 21 37  1  0
 22 38  1  0
 23 39  1  0
 23 40  1  0
 23 41  1  0
 24 42  1  0
 24 43  1  0
 24 44  1  0
M  END
>  <meeko>  (1) 
{"is_sidechain": [false], "free_energy": -7.576, "intermolecular_energy": -9.347, "internal_energy": -0.746}

$$$$
cand_051_out
     RDKit          3D

 44 46  0  0  0  0  0  0  0  0999 V2000
  178.0720   23.8050   47.3460 C   0  0  0  0  0  0  0  0  0  0  0  0
  177.1150   22.8210   47.9600 C   0  0  0  0  0  0  0  0  0  0  0  0
  176.2530   23.2660   48.9800 C   0  0  0  0  0  0  0  0  0  0  0  0
  175.3360   22.4050   49.6030 C   0  0  0  0  0  0  0  0  0  0  0  0
  174.4670   22.9120   50.6870 C   0  0  0  0  0  0  0  0  0  0  0  0
  175.1810   23.2830   51.8210 O   0  0  0  0  0  0  0  0  0  0  0  0
  174.4970   23.7720   52.9050 C   0  0  0  0  0  0  0  0  0  0  0  0
  175.2510   24.1190   54.0270 C   0  0  0  0  0  0  0  0  0  0  0  0
  174.6160   24.6250   55.1630 C   0  0  0  0  0  0  0  0  0  0  0  0
  173.2300   24.7840   55.1790 C   0  0  0  0  0  0  0  0  0  0  0  0
  172.4800   24.4380   54.0570 C   0  0  0  0  0  0  0  0  0  0  0  0
  171.1260   24.6200   54.1400 O   0  0  0  0  0  0  0  0  0  0  0  0
  173.1140   23.9310   52.9200 C   0  0  0  0  0  0  0  0  0  0  0  0
  172.3640   23.5550   51.7220 C   0  0  0  0  0  0  0  0  0  0  0  0
  171.1420   23.6730   51.6550 O   0  0  0  0  0  0  0  0  0  0  0  0
  173.1310   23.0200   50.5730 C   0  0  0  0  0  0  0  0  0  0  0  0
  172.4130   22.6810   49.4410 O   0  0  0  0  0  0  0  0  0  0  0  0
  175.3060   21.0670   49.2010 C   0  0  0  0  0  0  0  0  0  0  0  0
  176.1560   20.6090   48.1920 C   0  0  0  0  0  0  0  0  0  0  0  0
  177.0640   21.4720   47.5570 C   0  0  0  0  0  0  0  0  0  0  0  0
  177.9520   20.9030   46.4670 C   0  0  0  0  0  0  0  0  0  0  0  0
  179.0450   19.9460   46.9860 C   0  0  0  0  0  0  0  0  0  0  0  0
  180.1260   20.7440   47.7200 C   0  0  0  0  0  0  0  0  0  0  0  0
  179.6840   19.1320   45.8580 C   0  0  0  0  0  0  0  0  0  0  0  0
  178.6006   24.3485   48.1430 H   0  0  0  0  0  0  0  0  0  0  0  0
  178.8016   23.2670   46.7229 H   0  0  0  0  0  0  0  0  0  0  0  0
  177.5139   24.5193   46.7229 H   0  0  0  0  0  0  0  0  0  0  0  0
  176.2993   24.3181   49.2978 H   0  0  0  0  0  0  0  0  0  0  0  0
  176.3438   23.9941   54.0164 H   0  0  0  0  0  0  0  0  0  0  0  0
  175.2099   24.8989   56.0474 H   0  0  0  0  0  0  0  0  0  0  0  0
  172.7308   25.1814   56.0750 H   0  0  0  0  0  0  0  0  0  0  0  0
  170.6850   25.1520   53.5070 H   0  0  0  0  0  0  0  0  0  0  0  0
  172.0200   21.8320   49.3720 H   0  0  0  0  0  0  0  0  0  0  0  0
  174.6067   20.3683   49.6836 H   0  0  0  0  0  0  0  0  0  0  0  0
  176.1136   19.5524   47.8889 H   0  0  0  0  0  0  0  0  0  0  0  0
  177.3182   20.3519   45.7566 H   0  0  0  0  0  0  0  0  0  0  0  0
  178.4690   21.7543   46.0000 H   0  0  0  0  0  0  0  0  0  0  0  0
  178.5630   19.2377   47.6759 H   0  0  0  0  0  0  0  0  0  0  0  0
  179.9849   20.6398   48.8059 H   0  0  0  0  0  0  0  0  0  0  0  0
  181.1183   20.3602   47.4407 H   0  0  0  0  0  0  0  0  0  0  0  0
  180.0515   21.8053   47.4407 H   0  0  0  0  0  0  0  0  0  0  0  0
  180.3090   18.3359   46.2889 H   0  0  0  0  0  0  0  0  0  0  0  0
  178.8947   18.6830   45.2373 H   0  0  0  0  0  0  0  0  0  0  0  0
  180.3076   19.7922   45.2373 H   0  0  0  0  0  0  0  0  0  0  0  0
  1  2  1  0
  2  3  2  0
  3  4  1  0
  4  5  1  0
  5  6  1  0
  6  7  1  0
  7  8  2  0
  8  9  1  0
  9 10  2  0
 10 11  1  0
 11 12  1  0
 11 13  2  0
 13 14  1  0
 14 15  2  0
 14 16  1  0
 16 17  1  0
  4 18  2  0
 18 19  1  0
 19 20  2  0
 20 21  1  0
 21 22  1  0
 22 23  1  0
 22 24  1  0
 20  2  1  0
 16  5  2  0
 13  7  1  0
  1 25  1  0
  1 26  1  0
  1 27  1  0
  3 28  1  0
  8 29  1  0
  9 30  1  0
 10 31  1  0
 12 32  1  0
 17 33  1  0
 18 34  1  0
 19 35  1  0
 21 36  1  0
 21 37  1  0
 22 38  1  0
 23 39  1  0
 23 40  1  0
 23 41  1  0
 24 42  1  0
 24 43  1  0
 24 44  1  0
M  END
>  <meeko>  (2) 
{"is_sidechain": [false], "free_energy": -7.575, "intermolecular_energy": -9.394, "internal_energy": -0.698}

$$$$
cand_051_out
     RDKit          3D

 44 46  0  0  0  0  0  0  0  0999 V2000
  180.0290   14.1600   44.8410 C   0  0  0  0  0  0  0  0  0  0  0  0
  180.3780   15.6040   44.6060 C   0  0  0  0  0  0  0  0  0  0  0  0
  179.8030   16.5820   45.4400 C   0  0  0  0  0  0  0  0  0  0  0  0
  180.0780   17.9490   45.2780 C   0  0  0  0  0  0  0  0  0  0  0  0
  179.4310   18.9410   46.1620 C   0  0  0  0  0  0  0  0  0  0  0  0
  178.0460   18.8250   46.1800 O   0  0  0  0  0  0  0  0  0  0  0  0
  177.3180   19.6870   46.9620 C   0  0  0  0  0  0  0  0  0  0  0  0
  175.9300   19.5440   46.9390 C   0  0  0  0  0  0  0  0  0  0  0  0
  175.1310   20.3870   47.7140 C   0  0  0  0  0  0  0  0  0  0  0  0
  175.7180   21.3720   48.5100 C   0  0  0  0  0  0  0  0  0  0  0  0
  177.1040   21.5120   48.5310 C   0  0  0  0  0  0  0  0  0  0  0  0
  177.6130   22.4960   49.3340 O   0  0  0  0  0  0  0  0  0  0  0  0
  177.9040   20.6680   47.7560 C   0  0  0  0  0  0  0  0  0  0  0  0
  179.3620   20.7810   47.7490 C   0  0  0  0  0  0  0  0  0  0  0  0
  179.9540   21.6180   48.4290 O   0  0  0  0  0  0  0  0  0  0  0  0
  180.1180   19.8440   46.8860 C   0  0  0  0  0  0  0  0  0  0  0  0
  181.4970   19.9510   46.8980 O   0  0  0  0  0  0  0  0  0  0  0  0
  180.9330   18.3330   44.2420 C   0  0  0  0  0  0  0  0  0  0  0  0
  181.5110   17.3770   43.4040 C   0  0  0  0  0  0  0  0  0  0  0  0
  181.2490   16.0060   43.5730 C   0  0  0  0  0  0  0  0  0  0  0  0
  181.9150   15.0260   42.6280 C   0  0  0  0  0  0  0  0  0  0  0  0
  181.1680   14.8390   41.2910 C   0  0  0  0  0  0  0  0  0  0  0  0
  181.7800   15.7510   40.2240 C   0  0  0  0  0  0  0  0  0  0  0  0
  179.6710   15.1300   41.4190 C   0  0  0  0  0  0  0  0  0  0  0  0
  179.9820   13.9655   45.9226 H   0  0  0  0  0  0  0  0  0  0  0  0
  179.0519   13.9402   44.3861 H   0  0  0  0  0  0  0  0  0  0  0  0
  180.7979   13.5182   44.3861 H   0  0  0  0  0  0  0  0  0  0  0  0
  179.1188   16.2658   46.2412 H   0  0  0  0  0  0  0  0  0  0  0  0
  175.4662   18.7686   46.3115 H   0  0  0  0  0  0  0  0  0  0  0  0
  174.0369   20.2747   47.6972 H   0  0  0  0  0  0  0  0  0  0  0  0
  175.0876   22.0363   49.1194 H   0  0  0  0  0  0  0  0  0  0  0  0
  177.9940   22.2760   50.1610 H   0  0  0  0  0  0  0  0  0  0  0  0
  181.9770   19.9050   46.0940 H   0  0  0  0  0  0  0  0  0  0  0  0
  181.1532   19.3992   44.0848 H   0  0  0  0  0  0  0  0  0  0  0  0
  182.1837   17.7026   42.5968 H   0  0  0  0  0  0  0  0  0  0  0  0
  182.9295   15.3908   42.4096 H   0  0  0  0  0  0  0  0  0  0  0  0
  181.9165   14.0482   43.1318 H   0  0  0  0  0  0  0  0  0  0  0  0
  181.2777   13.7848   40.9965 H   0  0  0  0  0  0  0  0  0  0  0  0
  182.3292   16.5694   40.7124 H   0  0  0  0  0  0  0  0  0  0  0  0
  182.4710   15.1689   39.5966 H   0  0  0  0  0  0  0  0  0  0  0  0
  180.9794   16.1698   39.5966 H   0  0  0  0  0  0  0  0  0  0  0  0
  179.3975   15.1832   42.4831 H   0  0  0  0  0  0  0  0  0  0  0  0
  179.4411   16.0896   40.9329 H   0  0  0  0  0  0  0  0  0  0  0  0
  179.0984   14.3264   40.9329 H   0  0  0  0  0  0  0  0  0  0  0  0
  1  2  1  0
  2  3  2  0
  3  4  1  0
  4  5  1  0
  5  6  1  0
  6  7  1  0
  7  8  2  0
  8  9  1  0
  9 10  2  0
 10 11  1  0
 11 12  1  0
 11 13  2  0
 13 14  1  0
 14 15  2  0
 14 16  1  0
 16 17  1  0
  4 18  2  0
 18 19  1  0
 19 20  2  0
 20 21  1  0
 21 22  1  0
 22 23  1  0
 22 24  1  0
 20  2  1  0
 16  5  2  0
 13  7  1  0
  1 25  1  0
  1 26  1  0
  1 27  1  0
  3 28  1  0
  8 29  1  0
  9 30  1  0
 10 31  1  0
 12 32  1  0
 17 33  1  0
 18 34  1  0
 19 35  1  0
 21 36  1  0
 21 37  1  0
 22 38  1  0
 23 39  1  0
 23 40  1  0
 23 41  1  0
 24 42  1  0
 24 43  1  0
 24 44  1  0
M  END
>  <meeko>  (3) 
{"is_sidechain": [false], "free_energy": -7.434, "intermolecular_energy": -9.531, "internal_energy": -0.387}

$$$$
cand_051_out
     RDKit          3D

 44 46  0  0  0  0  0  0  0  0999 V2000
  176.7880   19.1140   46.5890 C   0  0  0  0  0  0  0  0  0  0  0  0
  177.3850   20.3380   47.2260 C   0  0  0  0  0  0  0  0  0  0  0  0
  176.7360   20.9040   48.3400 C   0  0  0  0  0  0  0  0  0  0  0  0
  177.2320   22.0490   48.9840 C   0  0  0  0  0  0  0  0  0  0  0  0
  176.5020   22.6210   50.1360 C   0  0  0  0  0  0  0  0  0  0  0  0
  175.3130   23.2400   49.7670 O   0  0  0  0  0  0  0  0  0  0  0  0
  174.5350   23.8140   50.7400 C   0  0  0  0  0  0  0  0  0  0  0  0
  173.3570   24.4370   50.3250 C   0  0  0  0  0  0  0  0  0  0  0  0
  172.5190   25.0390   51.2650 C   0  0  0  0  0  0  0  0  0  0  0  0
  172.8570   25.0200   52.6190 C   0  0  0  0  0  0  0  0  0  0  0  0
  174.0330   24.3970   53.0310 C   0  0  0  0  0  0  0  0  0  0  0  0
  174.3030   24.4140   54.3720 O   0  0  0  0  0  0  0  0  0  0  0  0
  174.8730   23.7950   52.0900 C   0  0  0  0  0  0  0  0  0  0  0  0
  176.1160   23.1310   52.4810 C   0  0  0  0  0  0  0  0  0  0  0  0
  176.4790   23.0650   53.6540 O   0  0  0  0  0  0  0  0  0  0  0  0
  176.9390   22.5300   51.4050 C   0  0  0  0  0  0  0  0  0  0  0  0
  178.1060   21.8930   51.7870 O   0  0  0  0  0  0  0  0  0  0  0  0
  178.3920   22.6420   48.4790 C   0  0  0  0  0  0  0  0  0  0  0  0
  179.0470   22.0950   47.3730 C   0  0  0  0  0  0  0  0  0  0  0  0
  178.5610   20.9410   46.7360 C   0  0  0  0  0  0  0  0  0  0  0  0
  179.3270   20.4030   45.5440 C   0  0  0  0  0  0  0  0  0  0  0  0
  180.4790   19.4470   45.9180 C   0  0  0  0  0  0  0  0  0  0  0  0
  181.8240   20.1410   45.6850 C   0  0  0  0  0  0  0  0  0  0  0  0
  180.4290   18.1420   45.1210 C   0  0  0  0  0  0  0  0  0  0  0  0
  176.4498   18.4206   47.3731 H   0  0  0  0  0  0  0  0  0  0  0  0
  175.9315   19.4067   45.9639 H   0  0  0  0  0  0  0  0  0  0  0  0
  177.5460   18.6192   45.9639 H   0  0  0  0  0  0  0  0  0  0  0  0
  175.8144   20.4360   48.7164 H   0  0  0  0  0  0  0  0  0  0  0  0
  173.0893   24.4536   49.2582 H   0  0  0  0  0  0  0  0  0  0  0  0
  171.5903   25.5294   50.9380 H   0  0  0  0  0  0  0  0  0  0  0  0
  172.1965   25.4957   53.3589 H   0  0  0  0  0  0  0  0  0  0  0  0
  173.6530   24.7110   54.9780 H   0  0  0  0  0  0  0  0  0  0  0  0
  178.7270   22.3390   52.3290 H   0  0  0  0  0  0  0  0  0  0  0  0
  178.7932   23.5480   48.9568 H   0  0  0  0  0  0  0  0  0  0  0  0
  179.9603   22.5768   46.9938 H   0  0  0  0  0  0  0  0  0  0  0  0
  178.6228   19.8596   44.8969 H   0  0  0  0  0  0  0  0  0  0  0  0
  179.7824   21.2689   45.0411 H   0  0  0  0  0  0  0  0  0  0  0  0
  180.3639   19.1916   46.9817 H   0  0  0  0  0  0  0  0  0  0  0  0
  182.2863   20.3795   46.6542 H   0  0  0  0  0  0  0  0  0  0  0  0
  182.4878   19.4728   45.1167 H   0  0  0  0  0  0  0  0  0  0  0  0
  181.6641   21.0692   45.1167 H   0  0  0  0  0  0  0  0  0  0  0  0
  180.3963   17.2894   45.8152 H   0  0  0  0  0  0  0  0  0  0  0  0
  179.5299   18.1336   44.4874 H   0  0  0  0  0  0  0  0  0  0  0  0
  181.3248   18.0648   44.4874 H   0  0  0  0  0  0  0  0  0  0  0  0
  1  2  1  0
  2  3  2  0
  3  4  1  0
  4  5  1  0
  5  6  1  0
  6  7  1  0
  7  8  2  0
  8  9  1  0
  9 10  2  0
 10 11  1  0
 11 12  1  0
 11 13  2  0
 13 14  1  0
 14 15  2  0
 14 16  1  0
 16 17  1  0
  4 18  2  0
 18 19  1  0
 19 20  2  0
 20 21  1  0
 21 22  1  0
 22 23  1  0
 22 24  1  0
 20  2  1  0
 16  5  2  0
 13  7  1  0
  1 25  1  0
  1 26  1  0
  1 27  1  0
  3 28  1  0
  8 29  1  0
  9 30  1  0
 10 31  1  0
 12 32  1  0
 17 33  1  0
 18 34  1  0
 19 35  1  0
 21 36  1  0
 21 37  1  0
 22 38  1  0
 23 39  1  0
 23 40  1  0
 23 41  1  0
 24 42  1  0
 24 43  1  0
 24 44  1  0
M  END
>  <meeko>  (4) 
{"is_sidechain": [false], "free_energy": -7.433, "intermolecular_energy": -9.196, "internal_energy": -0.722}

$$$$
cand_051_out
     RDKit          3D

 44 46  0  0  0  0  0  0  0  0999 V2000
  179.0960   23.7660   47.3350 C   0  0  0  0  0  0  0  0  0  0  0  0
  177.8840   22.9430   47.6700 C   0  0  0  0  0  0  0  0  0  0  0  0
  176.9220   23.4830   48.5450 C   0  0  0  0  0  0  0  0  0  0  0  0
  175.7670   22.7730   48.9080 C   0  0  0  0  0  0  0  0  0  0  0  0
  174.7970   23.3720   49.8490 C   0  0  0  0  0  0  0  0  0  0  0  0
  173.7790   24.0670   49.2050 O   0  0  0  0  0  0  0  0  0  0  0  0
  172.8090   24.6740   49.9610 C   0  0  0  0  0  0  0  0  0  0  0  0
  171.8140   25.3720   49.2740 C   0  0  0  0  0  0  0  0  0  0  0  0
  170.7960   26.0110   49.9840 C   0  0  0  0  0  0  0  0  0  0  0  0
  170.7710   25.9530   51.3780 C   0  0  0  0  0  0  0  0  0  0  0  0
  171.7650   25.2550   52.0610 C   0  0  0  0  0  0  0  0  0  0  0  0
  171.6790   25.2380   53.4270 O   0  0  0  0  0  0  0  0  0  0  0  0
  172.7850   24.6160   51.3510 C   0  0  0  0  0  0  0  0  0  0  0  0
  173.8470   23.8730   52.0290 C   0  0  0  0  0  0  0  0  0  0  0  0
  173.8890   23.7700   53.2540 O   0  0  0  0  0  0  0  0  0  0  0  0
  174.8850   23.2380   51.1850 C   0  0  0  0  0  0  0  0  0  0  0  0
  175.8770   22.5270   51.8350 O   0  0  0  0  0  0  0  0  0  0  0  0
  175.5930   21.4860   48.3920 C   0  0  0  0  0  0  0  0  0  0  0  0
  176.5380   20.9330   47.5250 C   0  0  0  0  0  0  0  0  0  0  0  0
  177.6870   21.6480   47.1480 C   0  0  0  0  0  0  0  0  0  0  0  0
  178.6670   20.9850   46.2000 C   0  0  0  0  0  0  0  0  0  0  0  0
  179.4670   19.8280   46.8330 C   0  0  0  0  0  0  0  0  0  0  0  0
  180.6480   20.3890   47.6290 C   0  0  0  0  0  0  0  0  0  0  0  0
  179.9780   18.8370   45.7840 C   0  0  0  0  0  0  0  0  0  0  0  0
  179.5830   24.0967   48.2643 H   0  0  0  0  0  0  0  0  0  0  0  0
  179.8006   23.1588   46.7478 H   0  0  0  0  0  0  0  0  0  0  0  0
  178.7915   24.6449   46.7478 H   0  0  0  0  0  0  0  0  0  0  0  0
  177.0803   24.4909   48.9561 H   0  0  0  0  0  0  0  0  0  0  0  0
  171.8322   25.4183   48.1751 H   0  0  0  0  0  0  0  0  0  0  0  0
  170.0119   26.5614   49.4434 H   0  0  0  0  0  0  0  0  0  0  0  0
  169.9685   26.4571   51.9364 H   0  0  0  0  0  0  0  0  0  0  0  0
  171.5010   24.4350   53.8750 H   0  0  0  0  0  0  0  0  0  0  0  0
  175.6600   21.9840   52.5680 H   0  0  0  0  0  0  0  0  0  0  0  0
  174.7031   20.9029   48.6714 H   0  0  0  0  0  0  0  0  0  0  0  0
  176.3797   19.9187   47.1300 H   0  0  0  0  0  0  0  0  0  0  0  0
  178.1040   20.5878   45.3425 H   0  0  0  0  0  0  0  0  0  0  0  0
  179.3970   21.7542   45.9077 H   0  0  0  0  0  0  0  0  0  0  0  0
  178.7851   19.2826   47.5020 H   0  0  0  0  0  0  0  0  0  0  0  0
  180.4437   20.2920   48.7055 H   0  0  0  0  0  0  0  0  0  0  0  0
  181.5598   19.8278   47.3768 H   0  0  0  0  0  0  0  0  0  0  0  0
  180.7891   21.4504   47.3768 H   0  0  0  0  0  0  0  0  0  0  0  0
  180.4261   17.9680   46.2881 H   0  0  0  0  0  0  0  0  0  0  0  0
  179.1393   18.5038   45.1551 H   0  0  0  0  0  0  0  0  0  0  0  0
  180.7358   19.3271   45.1551 H   0  0  0  0  0  0  0  0  0  0  0  0
  1  2  1  0
  2  3  2  0
  3  4  1  0
  4  5  1  0
  5  6  1  0
  6  7  1  0
  7  8  2  0
  8  9  1  0
  9 10  2  0
 10 11  1  0
 11 12  1  0
 11 13  2  0
 13 14  1  0
 14 15  2  0
 14 16  1  0
 16 17  1  0
  4 18  2  0
 18 19  1  0
 19 20  2  0
 20 21  1  0
 21 22  1  0
 22 23  1  0
 22 24  1  0
 20  2  1  0
 16  5  2  0
 13  7  1  0
  1 25  1  0
  1 26  1  0
  1 27  1  0
  3 28  1  0
  8 29  1  0
  9 30  1  0
 10 31  1  0
 12 32  1  0
 17 33  1  0
 18 34  1  0
 19 35  1  0
 21 36  1  0
 21 37  1  0
 22 38  1  0
 23 39  1  0
 23 40  1  0
 23 41  1  0
 24 42  1  0
 24 43  1  0
 24 44  1  0
M  END
>  <meeko>  (5) 
{"is_sidechain": [false], "free_energy": -7.036, "intermolecular_energy": -8.642, "internal_energy": -0.786}

$$$$
cand_051_out
     RDKit          3D

 44 46  0  0  0  0  0  0  0  0999 V2000
  182.8330   25.6870   47.9340 C   0  0  0  0  0  0  0  0  0  0  0  0
  182.4750   24.2450   47.7000 C   0  0  0  0  0  0  0  0  0  0  0  0
  181.2190   23.7820   48.1380 C   0  0  0  0  0  0  0  0  0  0  0  0
  180.8170   22.4490   47.9590 C   0  0  0  0  0  0  0  0  0  0  0  0
  179.4990   22.0030   48.4570 C   0  0  0  0  0  0  0  0  0  0  0  0
  178.5880   21.7630   47.4340 O   0  0  0  0  0  0  0  0  0  0  0  0
  177.3230   21.3430   47.7570 C   0  0  0  0  0  0  0  0  0  0  0  0
  176.4380   21.1280   46.7000 C   0  0  0  0  0  0  0  0  0  0  0  0
  175.1350   20.6970   46.9600 C   0  0  0  0  0  0  0  0  0  0  0  0
  174.7170   20.4820   48.2740 C   0  0  0  0  0  0  0  0  0  0  0  0
  175.6030   20.6970   49.3270 C   0  0  0  0  0  0  0  0  0  0  0  0
  175.1290   20.4660   50.5900 O   0  0  0  0  0  0  0  0  0  0  0  0
  176.9070   21.1290   49.0680 C   0  0  0  0  0  0  0  0  0  0  0  0
  177.8690   21.3660   50.1440 C   0  0  0  0  0  0  0  0  0  0  0  0
  177.5790   21.1920   51.3270 O   0  0  0  0  0  0  0  0  0  0  0  0
  179.2230   21.8300   49.7630 C   0  0  0  0  0  0  0  0  0  0  0  0
  180.1280   22.0380   50.7870 O   0  0  0  0  0  0  0  0  0  0  0  0
  181.7090   21.5660   47.3450 C   0  0  0  0  0  0  0  0  0  0  0  0
  182.9590   22.0080   46.9060 C   0  0  0  0  0  0  0  0  0  0  0  0
  183.3580   23.3450   47.0710 C   0  0  0  0  0  0  0  0  0  0  0  0
  184.7280   23.7530   46.5660 C   0  0  0  0  0  0  0  0  0  0  0  0
  184.9120   23.5810   45.0440 C   0  0  0  0  0  0  0  0  0  0  0  0
  186.3060   23.0180   44.7510 C   0  0  0  0  0  0  0  0  0  0  0  0
  184.7200   24.8970   44.2860 C   0  0  0  0  0  0  0  0  0  0  0  0
  182.8814   25.8819   49.0155 H   0  0  0  0  0  0  0  0  0  0  0  0
  183.8114   25.9004   47.4788 H   0  0  0  0  0  0  0  0  0  0  0  0
  182.0680   26.3332   47.4788 H   0  0  0  0  0  0  0  0  0  0  0  0
  180.5337   24.4848   48.6344 H   0  0  0  0  0  0  0  0  0  0  0  0
  176.7658   21.2976   45.6638 H   0  0  0  0  0  0  0  0  0  0  0  0
  174.4368   20.5267   46.1272 H   0  0  0  0  0  0  0  0  0  0  0  0
  173.6903   20.1436   48.4776 H   0  0  0  0  0  0  0  0  0  0  0  0
  175.6400   20.7150   51.3350 H   0  0  0  0  0  0  0  0  0  0  0  0
  179.8210   22.2030   51.6570 H   0  0  0  0  0  0  0  0  0  0  0  0
  181.4240   20.5127   47.2061 H   0  0  0  0  0  0  0  0  0  0  0  0
  183.6439   21.2961   46.4221 H   0  0  0  0  0  0  0  0  0  0  0  0
  184.8877   24.8122   46.8163 H   0  0  0  0  0  0  0  0  0  0  0  0
  185.4575   23.0885   47.0521 H   0  0  0  0  0  0  0  0  0  0  0  0
  184.1393   22.8800   44.6955 H   0  0  0  0  0  0  0  0  0  0  0  0
  186.8237   22.8089   45.6988 H   0  0  0  0  0  0  0  0  0  0  0  0
  186.2114   22.0876   44.1719 H   0  0  0  0  0  0  0  0  0  0  0  0
  186.8841   23.7532   44.1719 H   0  0  0  0  0  0  0  0  0  0  0  0
  184.5999   25.7204   45.0055 H   0  0  0  0  0  0  0  0  0  0  0  0
  185.5998   25.0878   43.6539 H   0  0  0  0  0  0  0  0  0  0  0  0
  183.8223   24.8285   43.6539 H   0  0  0  0  0  0  0  0  0  0  0  0
  1  2  1  0
  2  3  2  0
  3  4  1  0
  4  5  1  0
  5  6  1  0
  6  7  1  0
  7  8  2  0
  8  9  1  0
  9 10  2  0
 10 11  1  0
 11 12  1  0
 11 13  2  0
 13 14  1  0
 14 15  2  0
 14 16  1  0
 16 17  1  0
  4 18  2  0
 18 19  1  0
 19 20  2  0
 20 21  1  0
 21 22  1  0
 22 23  1  0
 22 24  1  0
 20  2  1  0
 16  5  2  0
 13  7  1  0
  1 25  1  0
  1 26  1  0
  1 27  1  0
  3 28  1  0
  8 29  1  0
  9 30  1  0
 10 31  1  0
 12 32  1  0
 17 33  1  0
 18 34  1  0
 19 35  1  0
 21 36  1  0
 21 37  1  0
 22 38  1  0
 23 39  1  0
 23 40  1  0
 23 41  1  0
 24 42  1  0
 24 43  1  0
 24 44  1  0
M  END
>  <meeko>  (6) 
{"is_sidechain": [false], "free_energy": -7.014, "intermolecular_energy": -8.714, "internal_energy": -0.686}

$$$$
cand_051_out
     RDKit          3D

 44 46  0  0  0  0  0  0  0  0999 V2000
  174.9330   26.2080   50.2900 C   0  0  0  0  0  0  0  0  0  0  0  0
  174.9540   24.7670   49.8620 C   0  0  0  0  0  0  0  0  0  0  0  0
  176.1970   24.1580   49.6020 C   0  0  0  0  0  0  0  0  0  0  0  0
  176.2950   22.8180   49.1950 C   0  0  0  0  0  0  0  0  0  0  0  0
  177.6210   22.2290   48.9100 C   0  0  0  0  0  0  0  0  0  0  0  0
  177.7220   21.7280   47.6170 O   0  0  0  0  0  0  0  0  0  0  0  0
  178.9020   21.1520   47.2190 C   0  0  0  0  0  0  0  0  0  0  0  0
  178.9550   20.6500   45.9180 C   0  0  0  0  0  0  0  0  0  0  0  0
  180.1280   20.0530   45.4500 C   0  0  0  0  0  0  0  0  0  0  0  0
  181.2450   19.9580   46.2800 C   0  0  0  0  0  0  0  0  0  0  0  0
  181.1890   20.4610   47.5780 C   0  0  0  0  0  0  0  0  0  0  0  0
  182.3210   20.3360   48.3380 O   0  0  0  0  0  0  0  0  0  0  0  0
  180.0160   21.0580   48.0480 C   0  0  0  0  0  0  0  0  0  0  0  0
  179.9150   21.5980   49.4030 C   0  0  0  0  0  0  0  0  0  0  0  0
  180.8590   21.5590   50.1920 O   0  0  0  0  0  0  0  0  0  0  0  0
  178.6250   22.2030   49.8050 C   0  0  0  0  0  0  0  0  0  0  0  0
  178.5450   22.7230   51.0850 O   0  0  0  0  0  0  0  0  0  0  0  0
  175.1150   22.0890   49.0270 C   0  0  0  0  0  0  0  0  0  0  0  0
  173.8730   22.6780   49.2780 C   0  0  0  0  0  0  0  0  0  0  0  0
  173.7730   24.0150   49.7010 C   0  0  0  0  0  0  0  0  0  0  0  0
  172.3920   24.5840   49.9580 C   0  0  0  0  0  0  0  0  0  0  0  0
  171.7080   24.0240   51.2220 C   0  0  0  0  0  0  0  0  0  0  0  0
  170.4480   24.8370   51.5320 C   0  0  0  0  0  0  0  0  0  0  0  0
  172.6390   24.0360   52.4370 C   0  0  0  0  0  0  0  0  0  0  0  0
  174.9322   26.2642   51.3886 H   0  0  0  0  0  0  0  0  0  0  0  0
  175.8238   26.7202   49.8973 H   0  0  0  0  0  0  0  0  0  0  0  0
  174.0277   26.6940   49.8973 H   0  0  0  0  0  0  0  0  0  0  0  0
  177.1171   24.7490   49.7212 H   0  0  0  0  0  0  0  0  0  0  0  0
  178.0749   20.7243   45.2623 H   0  0  0  0  0  0  0  0  0  0  0  0
  180.1709   19.6569   44.4247 H   0  0  0  0  0  0  0  0  0  0  0  0
  182.1679   19.4871   45.9106 H   0  0  0  0  0  0  0  0  0  0  0  0
  182.6740   19.4870   48.5160 H   0  0  0  0  0  0  0  0  0  0  0  0
  178.0460   22.2770   51.7410 H   0  0  0  0  0  0  0  0  0  0  0  0
  175.1642   21.0417   48.6941 H   0  0  0  0  0  0  0  0  0  0  0  0
  172.9567   22.0847   49.1421 H   0  0  0  0  0  0  0  0  0  0  0  0
  172.4823   25.6748   50.0680 H   0  0  0  0  0  0  0  0  0  0  0  0
  171.7644   24.2951   49.1020 H   0  0  0  0  0  0  0  0  0  0  0  0
  171.4422   22.9765   51.0167 H   0  0  0  0  0  0  0  0  0  0  0  0
  170.3227   24.9178   52.6218 H   0  0  0  0  0  0  0  0  0  0  0  0
  170.5450   25.8433   51.0984 H   0  0  0  0  0  0  0  0  0  0  0  0
  169.5711   24.3339   51.0984 H   0  0  0  0  0  0  0  0  0  0  0  0
  172.0389   24.0283   53.3589 H   0  0  0  0  0  0  0  0  0  0  0  0
  173.2851   23.1461   52.4126 H   0  0  0  0  0  0  0  0  0  0  0  0
  173.2620   24.9422   52.4126 H   0  0  0  0  0  0  0  0  0  0  0  0
  1  2  1  0
  2  3  2  0
  3  4  1  0
  4  5  1  0
  5  6  1  0
  6  7  1  0
  7  8  2  0
  8  9  1  0
  9 10  2  0
 10 11  1  0
 11 12  1  0
 11 13  2  0
 13 14  1  0
 14 15  2  0
 14 16  1  0
 16 17  1  0
  4 18  2  0
 18 19  1  0
 19 20  2  0
 20 21  1  0
 21 22  1  0
 22 23  1  0
 22 24  1  0
 20  2  1  0
 16  5  2  0
 13  7  1  0
  1 25  1  0
  1 26  1  0
  1 27  1  0
  3 28  1  0
  8 29  1  0
  9 30  1  0
 10 31  1  0
 12 32  1  0
 17 33  1  0
 18 34  1  0
 19 35  1  0
 21 36  1  0
 21 37  1  0
 22 38  1  0
 23 39  1  0
 23 40  1  0
 23 41  1  0
 24 42  1  0
 24 43  1  0
 24 44  1  0
M  END
>  <meeko>  (7) 
{"is_sidechain": [false], "free_energy": -6.995, "intermolecular_energy": -8.822, "internal_energy": -0.555}

$$$$
cand_051_out
     RDKit          3D

 44 46  0  0  0  0  0  0  0  0999 V2000
  182.8160   25.2880   47.3530 C   0  0  0  0  0  0  0  0  0  0  0  0
  182.5910   23.9250   47.9480 C   0  0  0  0  0  0  0  0  0  0  0  0
  181.2710   23.5180   48.2200 C   0  0  0  0  0  0  0  0  0  0  0  0
  180.9830   22.2620   48.7790 C   0  0  0  0  0  0  0  0  0  0  0  0
  179.5820   21.8880   49.0690 C   0  0  0  0  0  0  0  0  0  0  0  0
  178.8650   21.5570   47.9250 O   0  0  0  0  0  0  0  0  0  0  0  0
  177.5490   21.1900   48.0510 C   0  0  0  0  0  0  0  0  0  0  0  0
  176.8630   20.8790   46.8750 C   0  0  0  0  0  0  0  0  0  0  0  0
  175.5210   20.4950   46.9330 C   0  0  0  0  0  0  0  0  0  0  0  0
  174.8660   20.4220   48.1640 C   0  0  0  0  0  0  0  0  0  0  0  0
  175.5540   20.7320   49.3350 C   0  0  0  0  0  0  0  0  0  0  0  0
  174.8520   20.6380   50.5060 O   0  0  0  0  0  0  0  0  0  0  0  0
  176.8960   21.1160   49.2770 C   0  0  0  0  0  0  0  0  0  0  0  0
  177.6550   21.4500   50.4830 C   0  0  0  0  0  0  0  0  0  0  0  0
  177.1500   21.4020   51.6040 O   0  0  0  0  0  0  0  0  0  0  0  0
  179.0700   21.8530   50.3120 C   0  0  0  0  0  0  0  0  0  0  0  0
  179.7810   22.1540   51.4600 O   0  0  0  0  0  0  0  0  0  0  0  0
  182.0500   21.4150   49.0870 C   0  0  0  0  0  0  0  0  0  0  0  0
  183.3660   21.8040   48.8260 C   0  0  0  0  0  0  0  0  0  0  0  0
  183.6560   23.0540   48.2520 C   0  0  0  0  0  0  0  0  0  0  0  0
  185.1080   23.4060   47.9950 C   0  0  0  0  0  0  0  0  0  0  0  0
  186.0430   23.1220   49.1880 C   0  0  0  0  0  0  0  0  0  0  0  0
  185.8390   24.1850   50.2700 C   0  0  0  0  0  0  0  0  0  0  0  0
  187.5160   23.0880   48.7730 C   0  0  0  0  0  0  0  0  0  0  0  0
  182.9377   26.0250   48.1605 H   0  0  0  0  0  0  0  0  0  0  0  0
  183.7236   25.2716   46.7317 H   0  0  0  0  0  0  0  0  0  0  0  0
  181.9513   25.5642   46.7317 H   0  0  0  0  0  0  0  0  0  0  0  0
  180.4419   24.2028   47.9883 H   0  0  0  0  0  0  0  0  0  0  0  0
  177.3783   20.9363   45.9049 H   0  0  0  0  0  0  0  0  0  0  0  0
  174.9795   20.2498   46.0074 H   0  0  0  0  0  0  0  0  0  0  0  0
  173.8091   20.1204   48.2090 H   0  0  0  0  0  0  0  0  0  0  0  0
  175.1890   21.0300   51.2870 H   0  0  0  0  0  0  0  0  0  0  0  0
  179.3350   22.2310   52.2800 H   0  0  0  0  0  0  0  0  0  0  0  0
  181.8521   20.4321   49.5395 H   0  0  0  0  0  0  0  0  0  0  0  0
  184.1906   21.1196   49.0742 H   0  0  0  0  0  0  0  0  0  0  0  0
  185.4588   22.8192   47.1333 H   0  0  0  0  0  0  0  0  0  0  0  0
  185.1451   24.4901   47.8127 H   0  0  0  0  0  0  0  0  0  0  0  0
  185.7844   22.1274   49.5802 H   0  0  0  0  0  0  0  0  0  0  0  0
  185.9283   23.7196   51.2627 H   0  0  0  0  0  0  0  0  0  0  0  0
  186.6031   24.9690   50.1625 H   0  0  0  0  0  0  0  0  0  0  0  0
  184.8390   24.6304   50.1625 H   0  0  0  0  0  0  0  0  0  0  0  0
  188.1499   23.0734   49.6718 H   0  0  0  0  0  0  0  0  0  0  0  0
  187.7076   22.1852   48.1745 H   0  0  0  0  0  0  0  0  0  0  0  0
  187.7490   23.9810   48.1745 H   0  0  0  0  0  0  0  0  0  0  0  0
  1  2  1  0
  2  3  2  0
  3  4  1  0
  4  5  1  0
  5  6  1  0
  6  7  1  0
  7  8  2  0
  8  9  1  0
  9 10  2  0
 10 11  1  0
 11 12  1  0
 11 13  2  0
 13 14  1  0
 14 15  2  0
 14 16  1  0
 16 17  1  0
  4 18  2  0
 18 19  1  0
 19 20  2  0
 20 21  1  0
 21 22  1  0
 22 23  1  0
 22 24  1  0
 20  2  1  0
 16  5  2  0
 13  7  1  0
  1 25  1  0
  1 26  1  0
  1 27  1  0
  3 28  1  0
  8 29  1  0
  9 30  1  0
 10 31  1  0
 12 32  1  0
 17 33  1  0
 18 34  1  0
 19 35  1  0
 21 36  1  0
 21 37  1  0
 22 38  1  0
 23 39  1  0
 23 40  1  0
 23 41  1  0
 24 42  1  0
 24 43  1  0
 24 44  1  0
M  END
>  <meeko>  (8) 
{"is_sidechain": [false], "free_energy": -6.907, "intermolecular_energy": -8.559, "internal_energy": -0.709}

$$$$
cand_051_out
     RDKit          3D

 44 46  0  0  0  0  0  0  0  0999 V2000
  171.8720   24.3120   49.3050 C   0  0  0  0  0  0  0  0  0  0  0  0
  173.1400   23.7990   49.9310 C   0  0  0  0  0  0  0  0  0  0  0  0
  174.0200   23.0340   49.1420 C   0  0  0  0  0  0  0  0  0  0  0  0
  175.2190   22.5180   49.6580 C   0  0  0  0  0  0  0  0  0  0  0  0
  176.1000   21.6990   48.7980 C   0  0  0  0  0  0  0  0  0  0  0  0
  177.3830   22.2240   48.6860 O   0  0  0  0  0  0  0  0  0  0  0  0
  178.3050   21.5620   47.9150 C   0  0  0  0  0  0  0  0  0  0  0  0
  179.5760   22.1310   47.8190 C   0  0  0  0  0  0  0  0  0  0  0  0
  180.5620   21.5060   47.0520 C   0  0  0  0  0  0  0  0  0  0  0  0
  180.2780   20.3140   46.3820 C   0  0  0  0  0  0  0  0  0  0  0  0
  179.0090   19.7490   46.4810 C   0  0  0  0  0  0  0  0  0  0  0  0
  178.8000   18.5800   45.8010 O   0  0  0  0  0  0  0  0  0  0  0  0
  178.0220   20.3740   47.2480 C   0  0  0  0  0  0  0  0  0  0  0  0
  176.6770   19.8140   47.3770 C   0  0  0  0  0  0  0  0  0  0  0  0
  176.3530   18.7640   46.8250 O   0  0  0  0  0  0  0  0  0  0  0  0
  175.7020   20.5580   48.2070 C   0  0  0  0  0  0  0  0  0  0  0  0
  174.4380   20.0120   48.3340 O   0  0  0  0  0  0  0  0  0  0  0  0
  175.5230   22.7650   50.9990 C   0  0  0  0  0  0  0  0  0  0  0  0
  174.6600   23.5200   51.7960 C   0  0  0  0  0  0  0  0  0  0  0  0
  173.4660   24.0500   51.2780 C   0  0  0  0  0  0  0  0  0  0  0  0
  172.5810   24.8640   52.2030 C   0  0  0  0  0  0  0  0  0  0  0  0
  172.3180   24.1950   53.5680 C   0  0  0  0  0  0  0  0  0  0  0  0
  171.0150   23.3930   53.5090 C   0  0  0  0  0  0  0  0  0  0  0  0
  172.2430   25.2150   54.7060 C   0  0  0  0  0  0  0  0  0  0  0  0
  171.1628   24.5989   50.0954 H   0  0  0  0  0  0  0  0  0  0  0  0
  172.0998   25.1887   48.6809 H   0  0  0  0  0  0  0  0  0  0  0  0
  171.4261   23.5235   48.6809 H   0  0  0  0  0  0  0  0  0  0  0  0
  173.7606   22.8351   48.0917 H   0  0  0  0  0  0  0  0  0  0  0  0
  179.8007   23.0698   48.3464 H   0  0  0  0  0  0  0  0  0  0  0  0
  181.5640   21.9535   46.9756 H   0  0  0  0  0  0  0  0  0  0  0  0
  181.0547   19.8226   45.7776 H   0  0  0  0  0  0  0  0  0  0  0  0
  178.9850   18.5320   44.8840 H   0  0  0  0  0  0  0  0  0  0  0  0
  174.1760   19.6190   49.1440 H   0  0  0  0  0  0  0  0  0  0  0  0
  176.4505   22.3611   51.4309 H   0  0  0  0  0  0  0  0  0  0  0  0
  174.9197   23.7033   52.8491 H   0  0  0  0  0  0  0  0  0  0  0  0
  173.0669   25.8346   52.3813 H   0  0  0  0  0  0  0  0  0  0  0  0
  171.6057   24.9642   51.7042 H   0  0  0  0  0  0  0  0  0  0  0  0
  173.1654   23.5253   53.7766 H   0  0  0  0  0  0  0  0  0  0  0  0
  170.6689   23.1800   54.5312 H   0  0  0  0  0  0  0  0  0  0  0  0
  170.2492   23.9763   52.9767 H   0  0  0  0  0  0  0  0  0  0  0  0
  171.1908   22.4465   52.9767 H   0  0  0  0  0  0  0  0  0  0  0  0
  172.2816   24.6902   55.6719 H   0  0  0  0  0  0  0  0  0  0  0  0
  173.0925   25.9099   54.6321 H   0  0  0  0  0  0  0  0  0  0  0  0
  171.3010   25.7782   54.6321 H   0  0  0  0  0  0  0  0  0  0  0  0
  1  2  1  0
  2  3  2  0
  3  4  1  0
  4  5  1  0
  5  6  1  0
  6  7  1  0
  7  8  2  0
  8  9  1  0
  9 10  2  0
 10 11  1  0
 11 12  1  0
 11 13  2  0
 13 14  1  0
 14 15  2  0
 14 16  1  0
 16 17  1  0
  4 18  2  0
 18 19  1  0
 19 20  2  0
 20 21  1  0
 21 22  1  0
 22 23  1  0
 22 24  1  0
 20  2  1  0
 16  5  2  0
 13  7  1  0
  1 25  1  0
  1 26  1  0
  1 27  1  0
  3 28  1  0
  8 29  1  0
  9 30  1  0
 10 31  1  0
 12 32  1  0
 17 33  1  0
 18 34  1  0
 19 35  1  0
 21 36  1  0
 21 37  1  0
 22 38  1  0
 23 39  1  0
 23 40  1  0
 23 41  1  0
 24 42  1  0
 24 43  1  0
 24 44  1  0
M  END
>  <meeko>  (9) 
{"is_sidechain": [false], "free_energy": -6.799, "intermolecular_energy": -8.581, "internal_energy": -0.554}

$$$$
