cand_019_out
     RDKit          3D

 35 37  0  0  0  0  0  0  0  0999 V2000
  179.6170   21.9470   48.1210 O   0  0  0  0  0  0  0  0  0  0  0  0
  179.0870   21.0010   47.5420 C   0  0  0  0  0  0  0  0  0  0  0  0
  179.9000   20.0620   46.7360 C   0  0  0  0  0  0  0  0  0  0  0  0
  181.2590   20.3120   46.6590 O   0  0  0  0  0  0  0  0  0  0  0  0
  179.2790   19.0410   46.1170 C   0  0  0  0  0  0  0  0  0  0  0  0
  179.9870   18.0510   45.2770 C   0  0  0  0  0  0  0  0  0  0  0  0
  180.9700   18.4330   44.3590 C   0  0  0  0  0  0  0  0  0  0  0  0
  181.6420   17.4770   43.5920 C   0  0  0  0  0  0  0  0  0  0  0  0
  181.3490   16.1120   43.7240 C   0  0  0  0  0  0  0  0  0  0  0  0
  182.0980   15.1070   42.8870 C   0  0  0  0  0  0  0  0  0  0  0  0
  181.4940   14.8770   41.6870 F   0  0  0  0  0  0  0  0  0  0  0  0
  180.3780   15.7060   44.6650 C   0  0  0  0  0  0  0  0  0  0  0  0
  180.0410   14.2450   44.8660 C   0  0  0  0  0  0  0  0  0  0  0  0
  180.9550   13.6030   45.6460 F   0  0  0  0  0  0  0  0  0  0  0  0
  178.8410   14.0530   45.4890 F   0  0  0  0  0  0  0  0  0  0  0  0
  179.7080   16.6840   45.4250 C   0  0  0  0  0  0  0  0  0  0  0  0
  177.9090   18.8160   46.1790 O   0  0  0  0  0  0  0  0  0  0  0  0
  177.1300   19.6650   46.9240 C   0  0  0  0  0  0  0  0  0  0  0  0
  175.7610   19.3950   46.9660 C   0  0  0  0  0  0  0  0  0  0  0  0
  174.9120   20.2220   47.7050 C   0  0  0  0  0  0  0  0  0  0  0  0
  175.4300   21.3160   48.4010 C   0  0  0  0  0  0  0  0  0  0  0  0
  176.7970   21.5830   48.3560 C   0  0  0  0  0  0  0  0  0  0  0  0
  177.2360   22.6700   49.0590 O   0  0  0  0  0  0  0  0  0  0  0  0
  177.6450   20.7560   47.6160 C   0  0  0  0  0  0  0  0  0  0  0  0
  181.6570   20.9200   47.2500 H   0  0  0  0  0  0  0  0  0  0  0  0
  181.2174   19.4981   44.2390 H   0  0  0  0  0  0  0  0  0  0  0  0
  182.4112   17.7998   42.8750 H   0  0  0  0  0  0  0  0  0  0  0  0
  183.1140   15.4868   42.7040 H   0  0  0  0  0  0  0  0  0  0  0  0
  182.1166   14.1567   43.4407 H   0  0  0  0  0  0  0  0  0  0  0  0
  180.0239   13.8409   43.8431 H   0  0  0  0  0  0  0  0  0  0  0  0
  178.9465   16.3682   46.1532 H   0  0  0  0  0  0  0  0  0  0  0  0
  175.3519   18.5331   46.4185 H   0  0  0  0  0  0  0  0  0  0  0  0
  173.8330   20.0110   47.7388 H   0  0  0  0  0  0  0  0  0  0  0  0
  174.7604   21.9658   48.9836 H   0  0  0  0  0  0  0  0  0  0  0  0
  176.6190   23.2520   49.4570 H   0  0  0  0  0  0  0  0  0  0  0  0
  1  2  2  0
  2  3  1  0
  3  4  1  0
  3  5  2  0
  5  6  1  0
  6  7  2  0
  7  8  1  0
  8  9  2  0
  9 10  1  0
 10 11  1  0
  9 12  1  0
 12 13  1  0
 13 14  1  0
 13 15  1  0
 12 16  2  0
  5 17  1  0
 17 18  1  0
 18 19  2  0
 19 20  1  0
 20 21  2  0
 21 22  1  0
 22 23  1  0
 22 24  2  0
 24  2  1  0
 16  6  1  0
 24 18  1  0
  4 25  1  0
  7 26  1  0
  8 27  1  0
 10 28  1  0
 10 29  1  0
 13 30  1  0
 16 31  1  0
 19 32  1  0
 20 33  1  0
 21 34  1  0
 23 35  1  0
M  END
>  <meeko>  (1) 
{"is_sidechain": [false], "free_energy": -7.88, "intermolecular_energy": -9.722, "internal_energy": -0.27}

$$$$
cand_019_out
     RDKit          3D

 35 37  0  0  0  0  0  0  0  0999 V2000
  176.4740   23.2450   53.8120 O   0  0  0  0  0  0  0  0  0  0  0  0
  176.1660   23.3780   52.6300 C   0  0  0  0  0  0  0  0  0  0  0  0
  176.3430   22.2590   51.6760 C   0  0  0  0  0  0  0  0  0  0  0  0
  176.8800   21.0860   52.1750 O   0  0  0  0  0  0  0  0  0  0  0  0
  175.9940   22.4480   50.3910 C   0  0  0  0  0  0  0  0  0  0  0  0
  176.1390   21.4080   49.3490 C   0  0  0  0  0  0  0  0  0  0  0  0
  175.1790   20.4060   49.1700 C   0  0  0  0  0  0  0  0  0  0  0  0
  175.3260   19.4470   48.1640 C   0  0  0  0  0  0  0  0  0  0  0  0
  176.4370   19.4660   47.3090 C   0  0  0  0  0  0  0  0  0  0  0  0
  176.5610   18.4210   46.2290 C   0  0  0  0  0  0  0  0  0  0  0  0
  175.5520   17.5060   46.2740 F   0  0  0  0  0  0  0  0  0  0  0  0
  177.4020   20.4850   47.4580 C   0  0  0  0  0  0  0  0  0  0  0  0
  178.6070   20.5660   46.5470 C   0  0  0  0  0  0  0  0  0  0  0  0
  179.1270   21.8250   46.4840 F   0  0  0  0  0  0  0  0  0  0  0  0
  179.6410   19.7720   46.9540 F   0  0  0  0  0  0  0  0  0  0  0  0
  177.2400   21.4400   48.4800 C   0  0  0  0  0  0  0  0  0  0  0  0
  175.4810   23.6410   49.8940 O   0  0  0  0  0  0  0  0  0  0  0  0
  175.2980   24.6930   50.7550 C   0  0  0  0  0  0  0  0  0  0  0  0
  174.7710   25.8680   50.2170 C   0  0  0  0  0  0  0  0  0  0  0  0
  174.5610   26.9780   51.0380 C   0  0  0  0  0  0  0  0  0  0  0  0
  174.8780   26.9130   52.3970 C   0  0  0  0  0  0  0  0  0  0  0  0
  175.4040   25.7390   52.9310 C   0  0  0  0  0  0  0  0  0  0  0  0
  175.6920   25.7450   54.2680 O   0  0  0  0  0  0  0  0  0  0  0  0
  175.6140   24.6300   52.1090 C   0  0  0  0  0  0  0  0  0  0  0  0
  177.7540   21.0780   52.5140 H   0  0  0  0  0  0  0  0  0  0  0  0
  174.2985   20.3727   49.8285 H   0  0  0  0  0  0  0  0  0  0  0  0
  174.5600   18.6671   48.0414 H   0  0  0  0  0  0  0  0  0  0  0  0
  176.5411   18.9211   45.2494 H   0  0  0  0  0  0  0  0  0  0  0  0
  177.5080   17.8845   46.3881 H   0  0  0  0  0  0  0  0  0  0  0  0
  178.2169   20.2370   45.5726 H   0  0  0  0  0  0  0  0  0  0  0  0
  177.9953   22.2306   48.6000 H   0  0  0  0  0  0  0  0  0  0  0  0
  174.5212   25.9197   49.1470 H   0  0  0  0  0  0  0  0  0  0  0  0
  174.1457   27.9042   50.6143 H   0  0  0  0  0  0  0  0  0  0  0  0
  174.7126   27.7871   53.0440 H   0  0  0  0  0  0  0  0  0  0  0  0
  175.3960   25.0440   54.8150 H   0  0  0  0  0  0  0  0  0  0  0  0
  1  2  2  0
  2  3  1  0
  3  4  1  0
  3  5  2  0
  5  6  1  0
  6  7  2  0
  7  8  1  0
  8  9  2  0
  9 10  1  0
 10 11  1  0
  9 12  1  0
 12 13  1  0
 13 14  1  0
 13 15  1  0
 12 16  2  0
  5 17  1  0
 17 18  1  0
 18 19  2  0
 19 20  1  0
 20 21  2  0
 21 22  1  0
 22 23  1  0
 22 24  2  0
 24  2  1  0
 16  6  1  0
 24 18  1  0
  4 25  1  0
  7 26  1  0
  8 27  1  0
 10 28  1  0
 10 29  1  0
 13 30  1  0
 16 31  1  0
 19 32  1  0
 20 33  1  0
 21 34  1  0
 23 35  1  0
M  END
>  <meeko>  (2) 
{"is_sidechain": [false], "free_energy": -7.572, "intermolecular_energy": -9.044, "internal_energy": -0.568}

$$$$
cand_019_out
     RDKit          3D

 35 37  0  0  0  0  0  0  0  0999 V2000
  171.2000   23.5930   51.7360 O   0  0  0  0  0  0  0  0  0  0  0  0
  172.4270   23.5190   51.7510 C   0  0  0  0  0  0  0  0  0  0  0  0
  173.1650   23.0370   50.5620 C   0  0  0  0  0  0  0  0  0  0  0  0
  172.4130   22.6670   49.4610 O   0  0  0  0  0  0  0  0  0  0  0  0
  174.5080   22.9700   50.6220 C   0  0  0  0  0  0  0  0  0  0  0  0
  175.3470   22.4920   49.5010 C   0  0  0  0  0  0  0  0  0  0  0  0
  176.2620   23.3310   48.8570 C   0  0  0  0  0  0  0  0  0  0  0  0
  177.0610   22.8510   47.8150 C   0  0  0  0  0  0  0  0  0  0  0  0
  176.9670   21.5180   47.3920 C   0  0  0  0  0  0  0  0  0  0  0  0
  177.8490   21.0310   46.2700 C   0  0  0  0  0  0  0  0  0  0  0  0
  179.1060   21.5510   46.3350 F   0  0  0  0  0  0  0  0  0  0  0  0
  176.0680   20.6500   48.0480 C   0  0  0  0  0  0  0  0  0  0  0  0
  175.9430   19.1960   47.6470 C   0  0  0  0  0  0  0  0  0  0  0  0
  175.8850   18.3640   48.7240 F   0  0  0  0  0  0  0  0  0  0  0  0
  174.8110   18.9340   46.9300 F   0  0  0  0  0  0  0  0  0  0  0  0
  175.2670   21.1520   49.0920 C   0  0  0  0  0  0  0  0  0  0  0  0
  175.2520   23.3180   51.7430 O   0  0  0  0  0  0  0  0  0  0  0  0
  174.5960   23.7740   52.8590 C   0  0  0  0  0  0  0  0  0  0  0  0
  175.3830   24.1220   53.9580 C   0  0  0  0  0  0  0  0  0  0  0  0
  174.7790   24.5930   55.1250 C   0  0  0  0  0  0  0  0  0  0  0  0
  173.3890   24.7160   55.1940 C   0  0  0  0  0  0  0  0  0  0  0  0
  172.6070   24.3680   54.0950 C   0  0  0  0  0  0  0  0  0  0  0  0
  171.2540   24.5130   54.2310 O   0  0  0  0  0  0  0  0  0  0  0  0
  173.2120   23.8970   52.9280 C   0  0  0  0  0  0  0  0  0  0  0  0
  172.8350   22.4930   48.6420 H   0  0  0  0  0  0  0  0  0  0  0  0
  176.3540   24.3803   49.1739 H   0  0  0  0  0  0  0  0  0  0  0  0
  177.7728   23.5284   47.3206 H   0  0  0  0  0  0  0  0  0  0  0  0
  177.9170   19.9345   46.3246 H   0  0  0  0  0  0  0  0  0  0  0  0
  177.3984   21.3601   45.3220 H   0  0  0  0  0  0  0  0  0  0  0  0
  176.8435   19.0156   47.0416 H   0  0  0  0  0  0  0  0  0  0  0  0
  174.5616   20.4773   49.5991 H   0  0  0  0  0  0  0  0  0  0  0  0
  176.4774   24.0252   53.9046 H   0  0  0  0  0  0  0  0  0  0  0  0
  175.3983   24.8677   55.9916 H   0  0  0  0  0  0  0  0  0  0  0  0
  172.9133   25.0867   56.1139 H   0  0  0  0  0  0  0  0  0  0  0  0
  170.6780   24.1930   53.5650 H   0  0  0  0  0  0  0  0  0  0  0  0
  1  2  2  0
  2  3  1  0
  3  4  1  0
  3  5  2  0
  5  6  1  0
  6  7  2  0
  7  8  1  0
  8  9  2  0
  9 10  1  0
 10 11  1  0
  9 12  1  0
 12 13  1  0
 13 14  1  0
 13 15  1  0
 12 16  2  0
  5 17  1  0
 17 18  1  0
 18 19  2  0
 19 20  1  0
 20 21  2  0
 21 22  1  0
 22 23  1  0
 22 24  2  0
 24  2  1  0
 16  6  1  0
 24 18  1  0
  4 25  1  0
  7 26  1  0
  8 27  1  0
 10 28  1  0
 10 29  1  0
 13 30  1  0
 16 31  1  0
 19 32  1  0
 20 33  1  0
 21 34  1  0
 23 35  1  0
M  END
>  <meeko>  (3) 
{"is_sidechain": [false], "free_energy": -7.516, "intermolecular_energy": -9.098, "internal_energy": -0.445}

$$$$
cand_019_out
     RDKit          3D

 35 37  0  0  0  0  0  0  0  0999 V2000
  182.5300   18.1130   43.5700 O   0  0  0  0  0  0  0  0  0  0  0  0
  181.5380   17.8550   44.2480 C   0  0  0  0  0  0  0  0  0  0  0  0
  180.8680   18.9150   45.0350 C   0  0  0  0  0  0  0  0  0  0  0  0
  181.4190   20.1830   44.9790 O   0  0  0  0  0  0  0  0  0  0  0  0
  179.7850   18.5880   45.7640 C   0  0  0  0  0  0  0  0  0  0  0  0
  179.0450   19.5610   46.5970 C   0  0  0  0  0  0  0  0  0  0  0  0
  179.7020   20.5590   47.3240 C   0  0  0  0  0  0  0  0  0  0  0  0
  178.9800   21.4810   48.0860 C   0  0  0  0  0  0  0  0  0  0  0  0
  177.5790   21.4310   48.1390 C   0  0  0  0  0  0  0  0  0  0  0  0
  176.8310   22.4470   48.9650 C   0  0  0  0  0  0  0  0  0  0  0  0
  176.4640   23.5390   48.2380 F   0  0  0  0  0  0  0  0  0  0  0  0
  176.8980   20.4480   47.3900 C   0  0  0  0  0  0  0  0  0  0  0  0
  175.3870   20.3640   47.3920 C   0  0  0  0  0  0  0  0  0  0  0  0
  174.8150   21.2720   46.5530 F   0  0  0  0  0  0  0  0  0  0  0  0
  174.9180   19.1500   46.9800 F   0  0  0  0  0  0  0  0  0  0  0  0
  177.6420   19.5230   46.6320 C   0  0  0  0  0  0  0  0  0  0  0  0
  179.2570   17.3050   45.8340 O   0  0  0  0  0  0  0  0  0  0  0  0
  179.8520   16.3020   45.1110 C   0  0  0  0  0  0  0  0  0  0  0  0
  179.2820   15.0310   45.2030 C   0  0  0  0  0  0  0  0  0  0  0  0
  179.8400   13.9650   44.4930 C   0  0  0  0  0  0  0  0  0  0  0  0
  180.9650   14.1700   43.6920 C   0  0  0  0  0  0  0  0  0  0  0  0
  181.5310   15.4400   43.6030 C   0  0  0  0  0  0  0  0  0  0  0  0
  182.6320   15.5690   42.8010 O   0  0  0  0  0  0  0  0  0  0  0  0
  180.9730   16.5050   44.3130 C   0  0  0  0  0  0  0  0  0  0  0  0
  181.1180   20.8510   45.5640 H   0  0  0  0  0  0  0  0  0  0  0  0
  180.8000   20.6187   47.2955 H   0  0  0  0  0  0  0  0  0  0  0  0
  179.5172   22.2564   48.6519 H   0  0  0  0  0  0  0  0  0  0  0  0
  175.9256   21.9734   49.3725 H   0  0  0  0  0  0  0  0  0  0  0  0
  177.5031   22.7881   49.7662 H   0  0  0  0  0  0  0  0  0  0  0  0
  175.1186   20.5550   48.4415 H   0  0  0  0  0  0  0  0  0  0  0  0
  177.1112   18.7525   46.0537 H   0  0  0  0  0  0  0  0  0  0  0  0
  178.3952   14.8691   45.8333 H   0  0  0  0  0  0  0  0  0  0  0  0
  179.3924   12.9628   44.5652 H   0  0  0  0  0  0  0  0  0  0  0  0
  181.4035   13.3306   43.1324 H   0  0  0  0  0  0  0  0  0  0  0  0
  183.3500   14.9750   42.8910 H   0  0  0  0  0  0  0  0  0  0  0  0
  1  2  2  0
  2  3  1  0
  3  4  1  0
  3  5  2  0
  5  6  1  0
  6  7  2  0
  7  8  1  0
  8  9  2  0
  9 10  1  0
 10 11  1  0
  9 12  1  0
 12 13  1  0
 13 14  1  0
 13 15  1  0
 12 16  2  0
  5 17  1  0
 17 18  1  0
 18 19  2  0
 19 20  1  0
 20 21  2  0
 21 22  1  0
 22 23  1  0
 22 24  2  0
 24  2  1  0
 16  6  1  0
 24 18  1  0
  4 25  1  0
  7 26  1  0
  8 27  1  0
 10 28  1  0
 10 29  1  0
 13 30  1  0
 16 31  1  0
 19 32  1  0
 20 33  1  0
 21 34  1  0
 23 35  1  0
M  END
>  <meeko>  (4) 
{"is_sidechain": [false], "free_energy": -7.515, "intermolecular_energy": -9.273, "internal_energy": -0.269}

$$$$
cand_019_out
     RDKit          3D

 35 37  0  0  0  0  0  0  0  0999 V2000
  176.6890   22.3660   53.1690 O   0  0  0  0  0  0  0  0  0  0  0  0
  176.7280   22.6310   51.9700 C   0  0  0  0  0  0  0  0  0  0  0  0
  177.8980   22.2370   51.1500 C   0  0  0  0  0  0  0  0  0  0  0  0
  178.9280   21.5820   51.8000 O   0  0  0  0  0  0  0  0  0  0  0  0
  177.9000   22.5480   49.8420 C   0  0  0  0  0  0  0  0  0  0  0  0
  179.0180   22.2170   48.9310 C   0  0  0  0  0  0  0  0  0  0  0  0
  180.2810   22.8000   49.0730 C   0  0  0  0  0  0  0  0  0  0  0  0
  181.3280   22.4540   48.2150 C   0  0  0  0  0  0  0  0  0  0  0  0
  181.1410   21.5130   47.1930 C   0  0  0  0  0  0  0  0  0  0  0  0
  182.2940   21.1570   46.2900 C   0  0  0  0  0  0  0  0  0  0  0  0
  183.2270   22.1480   46.2240 F   0  0  0  0  0  0  0  0  0  0  0  0
  179.8800   20.8930   47.0530 C   0  0  0  0  0  0  0  0  0  0  0  0
  179.6300   19.8530   45.9830 C   0  0  0  0  0  0  0  0  0  0  0  0
  178.5030   19.1250   46.2200 F   0  0  0  0  0  0  0  0  0  0  0  0
  179.4530   20.3940   44.7410 F   0  0  0  0  0  0  0  0  0  0  0  0
  178.8350   21.2590   47.9230 C   0  0  0  0  0  0  0  0  0  0  0  0
  176.8700   23.2320   49.2060 O   0  0  0  0  0  0  0  0  0  0  0  0
  175.7710   23.6040   49.9360 C   0  0  0  0  0  0  0  0  0  0  0  0
  174.7560   24.2790   49.2560 C   0  0  0  0  0  0  0  0  0  0  0  0
  173.6100   24.6870   49.9410 C   0  0  0  0  0  0  0  0  0  0  0  0
  173.4780   24.4220   51.3060 C   0  0  0  0  0  0  0  0  0  0  0  0
  174.4920   23.7480   51.9820 C   0  0  0  0  0  0  0  0  0  0  0  0
  174.2980   23.5210   53.3170 O   0  0  0  0  0  0  0  0  0  0  0  0
  175.6380   23.3400   51.2960 C   0  0  0  0  0  0  0  0  0  0  0  0
  179.2900   21.9420   52.5860 H   0  0  0  0  0  0  0  0  0  0  0  0
  180.4522   23.5394   49.8692 H   0  0  0  0  0  0  0  0  0  0  0  0
  182.3129   22.9267   48.3433 H   0  0  0  0  0  0  0  0  0  0  0  0
  182.7742   20.2446   46.6732 H   0  0  0  0  0  0  0  0  0  0  0  0
  181.8926   21.0061   45.2770 H   0  0  0  0  0  0  0  0  0  0  0  0
  180.5335   19.2263   46.0148 H   0  0  0  0  0  0  0  0  0  0  0  0
  177.8505   20.7816   47.8092 H   0  0  0  0  0  0  0  0  0  0  0  0
  174.8590   24.4893   48.1812 H   0  0  0  0  0  0  0  0  0  0  0  0
  172.8097   25.2181   49.4048 H   0  0  0  0  0  0  0  0  0  0  0  0
  172.5755   24.7448   51.8456 H   0  0  0  0  0  0  0  0  0  0  0  0
  173.9220   22.7130   53.6060 H   0  0  0  0  0  0  0  0  0  0  0  0
  1  2  2  0
  2  3  1  0
  3  4  1  0
  3  5  2  0
  5  6  1  0
  6  7  2  0
  7  8  1  0
  8  9  2  0
  9 10  1  0
 10 11  1  0
  9 12  1  0
 12 13  1  0
 13 14  1  0
 13 15  1  0
 12 16  2  0
  5 17  1  0
 17 18  1  0
 18 19  2  0
 19 20  1  0
 20 21  2  0
 21 22  1  0
 22 23  1  0
 22 24  2  0
 24  2  1  0
 16  6  1  0
 24 18  1  0
  4 25  1  0
  7 26  1  0
  8 27  1  0
 10 28  1  0
 10 29  1  0
 13 30  1  0
 16 31  1  0
 19 32  1  0
 20 33  1  0
 21 34  1  0
 23 35  1  0
M  END
>  <meeko>  (5) 
{"is_sidechain": [false], "free_energy": -7.4, "intermolecular_energy": -8.927, "internal_energy": -0.473}

$$$$
cand_019_out
     RDKit          3D

 35 37  0  0  0  0  0  0  0  0999 V2000
  180.3420   22.4190   51.7460 O   0  0  0  0  0  0  0  0  0  0  0  0
  179.6020   22.2880   50.7730 C   0  0  0  0  0  0  0  0  0  0  0  0
  178.2110   22.7950   50.8120 C   0  0  0  0  0  0  0  0  0  0  0  0
  177.7940   23.3970   51.9850 O   0  0  0  0  0  0  0  0  0  0  0  0
  177.4360   22.6290   49.7250 C   0  0  0  0  0  0  0  0  0  0  0  0
  176.0300   23.0830   49.6560 C   0  0  0  0  0  0  0  0  0  0  0  0
  174.9930   22.2160   49.2970 C   0  0  0  0  0  0  0  0  0  0  0  0
  173.6680   22.6620   49.2610 C   0  0  0  0  0  0  0  0  0  0  0  0
  173.3460   23.9870   49.5840 C   0  0  0  0  0  0  0  0  0  0  0  0
  171.9060   24.4330   49.5420 C   0  0  0  0  0  0  0  0  0  0  0  0
  171.2390   23.9320   48.4650 F   0  0  0  0  0  0  0  0  0  0  0  0
  174.3770   24.8690   49.9750 C   0  0  0  0  0  0  0  0  0  0  0  0
  174.0820   26.3030   50.3580 C   0  0  0  0  0  0  0  0  0  0  0  0
  173.9780   26.4700   51.7070 F   0  0  0  0  0  0  0  0  0  0  0  0
  175.0560   27.1740   49.9640 F   0  0  0  0  0  0  0  0  0  0  0  0
  175.7050   24.4040   50.0010 C   0  0  0  0  0  0  0  0  0  0  0  0
  177.8570   21.9970   48.5610 O   0  0  0  0  0  0  0  0  0  0  0  0
  179.1420   21.5230   48.4920 C   0  0  0  0  0  0  0  0  0  0  0  0
  179.5260   20.9040   47.3010 C   0  0  0  0  0  0  0  0  0  0  0  0
  180.8210   20.3980   47.1650 C   0  0  0  0  0  0  0  0  0  0  0  0
  181.7300   20.5100   48.2200 C   0  0  0  0  0  0  0  0  0  0  0  0
  181.3440   21.1270   49.4070 C   0  0  0  0  0  0  0  0  0  0  0  0
  182.2840   21.2010   50.3970 O   0  0  0  0  0  0  0  0  0  0  0  0
  180.0490   21.6330   49.5420 C   0  0  0  0  0  0  0  0  0  0  0  0
  178.2200   24.1750   52.2900 H   0  0  0  0  0  0  0  0  0  0  0  0
  175.2222   21.1713   49.0400 H   0  0  0  0  0  0  0  0  0  0  0  0
  172.8679   21.9633   48.9753 H   0  0  0  0  0  0  0  0  0  0  0  0
  171.4035   24.0917   50.4590 H   0  0  0  0  0  0  0  0  0  0  0  0
  171.8966   25.5301   49.4621 H   0  0  0  0  0  0  0  0  0  0  0  0
  173.1317   26.5164   49.8468 H   0  0  0  0  0  0  0  0  0  0  0  0
  176.5086   25.0934   50.2993 H   0  0  0  0  0  0  0  0  0  0  0  0
  178.8098   20.8148   46.4708 H   0  0  0  0  0  0  0  0  0  0  0  0
  181.1252   19.9111   46.2267 H   0  0  0  0  0  0  0  0  0  0  0  0
  182.7495   20.1112   48.1130 H   0  0  0  0  0  0  0  0  0  0  0  0
  183.1770   20.9880   50.2130 H   0  0  0  0  0  0  0  0  0  0  0  0
  1  2  2  0
  2  3  1  0
  3  4  1  0
  3  5  2  0
  5  6  1  0
  6  7  2  0
  7  8  1  0
  8  9  2  0
  9 10  1  0
 10 11  1  0
  9 12  1  0
 12 13  1  0
 13 14  1  0
 13 15  1  0
 12 16  2  0
  5 17  1  0
 17 18  1  0
 18 19  2  0
 19 20  1  0
 20 21  2  0
 21 22  1  0
 22 23  1  0
 22 24  2  0
 24  2  1  0
 16  6  1  0
 24 18  1  0
  4 25  1  0
  7 26  1  0
  8 27  1  0
 10 28  1  0
 10 29  1  0
 13 30  1  0
 16 31  1  0
 19 32  1  0
 20 33  1  0
 21 34  1  0
 23 35  1  0
M  END
>  <meeko>  (6) 
{"is_sidechain": [false], "free_energy": -7.286, "intermolecular_energy": -8.969, "internal_energy": -0.291}

$$$$
cand_019_out
     RDKit          3D

 35 37  0  0  0  0  0  0  0  0999 V2000
  184.3760   22.2380   50.9780 O   0  0  0  0  0  0  0  0  0  0  0  0
  183.9420   22.3910   49.8380 C   0  0  0  0  0  0  0  0  0  0  0  0
  182.6370   21.8120   49.4460 C   0  0  0  0  0  0  0  0  0  0  0  0
  181.9560   21.0890   50.4090 O   0  0  0  0  0  0  0  0  0  0  0  0
  182.2010   22.0030   48.1880 C   0  0  0  0  0  0  0  0  0  0  0  0
  180.9210   21.4600   47.6830 C   0  0  0  0  0  0  0  0  0  0  0  0
  180.8190   20.1590   47.1810 C   0  0  0  0  0  0  0  0  0  0  0  0
  179.5940   19.6600   46.7300 C   0  0  0  0  0  0  0  0  0  0  0  0
  178.4360   20.4500   46.7720 C   0  0  0  0  0  0  0  0  0  0  0  0
  177.1290   19.8780   46.2850 C   0  0  0  0  0  0  0  0  0  0  0  0
  176.4870   19.1570   47.2460 F   0  0  0  0  0  0  0  0  0  0  0  0
  178.5140   21.7560   47.3000 C   0  0  0  0  0  0  0  0  0  0  0  0
  177.2910   22.6430   47.3900 C   0  0  0  0  0  0  0  0  0  0  0  0
  176.6220   22.4860   48.5660 F   0  0  0  0  0  0  0  0  0  0  0  0
  177.5880   23.9740   47.3220 F   0  0  0  0  0  0  0  0  0  0  0  0
  179.7580   22.2440   47.7440 C   0  0  0  0  0  0  0  0  0  0  0  0
  182.9080   22.7080   47.2210 O   0  0  0  0  0  0  0  0  0  0  0  0
  184.1170   23.2620   47.5550 C   0  0  0  0  0  0  0  0  0  0  0  0
  184.7880   23.9700   46.5570 C   0  0  0  0  0  0  0  0  0  0  0  0
  186.0240   24.5590   46.8310 C   0  0  0  0  0  0  0  0  0  0  0  0
  186.5890   24.4390   48.1030 C   0  0  0  0  0  0  0  0  0  0  0  0
  185.9170   23.7330   49.0970 C   0  0  0  0  0  0  0  0  0  0  0  0
  186.5280   23.6550   50.3190 O   0  0  0  0  0  0  0  0  0  0  0  0
  184.6810   23.1440   48.8220 C   0  0  0  0  0  0  0  0  0  0  0  0
  182.3560   20.9200   51.2390 H   0  0  0  0  0  0  0  0  0  0  0  0
  181.7138   19.5205   47.1406 H   0  0  0  0  0  0  0  0  0  0  0  0
  179.5373   18.6342   46.3369 H   0  0  0  0  0  0  0  0  0  0  0  0
  176.4768   20.7058   45.9698 H   0  0  0  0  0  0  0  0  0  0  0  0
  177.3513   19.1988   45.4488 H   0  0  0  0  0  0  0  0  0  0  0  0
  176.6811   22.3309   46.5294 H   0  0  0  0  0  0  0  0  0  0  0  0
  179.8201   23.2649   48.1487 H   0  0  0  0  0  0  0  0  0  0  0  0
  184.3435   24.0640   45.5552 H   0  0  0  0  0  0  0  0  0  0  0  0
  186.5531   25.1177   46.0449 H   0  0  0  0  0  0  0  0  0  0  0  0
  187.5634   24.9016   48.3188 H   0  0  0  0  0  0  0  0  0  0  0  0
  186.0860   23.2520   51.0390 H   0  0  0  0  0  0  0  0  0  0  0  0
  1  2  2  0
  2  3  1  0
  3  4  1  0
  3  5  2  0
  5  6  1  0
  6  7  2  0
  7  8  1  0
  8  9  2  0
  9 10  1  0
 10 11  1  0
  9 12  1  0
 12 13  1  0
 13 14  1  0
 13 15  1  0
 12 16  2  0
  5 17  1  0
 17 18  1  0
 18 19  2  0
 19 20  1  0
 20 21  2  0
 21 22  1  0
 22 23  1  0
 22 24  2  0
 24  2  1  0
 16  6  1  0
 24 18  1  0
  4 25  1  0
  7 26  1  0
  8 27  1  0
 10 28  1  0
 10 29  1  0
 13 30  1  0
 16 31  1  0
 19 32  1  0
 20 33  1  0
 21 34  1  0
 23 35  1  0
M  END
>  <meeko>  (7) 
{"is_sidechain": [false], "free_energy": -7.268, "intermolecular_energy": -8.605, "internal_energy": -0.632}

$$$$
cand_019_out
     RDKit          3D

 35 37  0  0  0  0  0  0  0  0999 V2000
  176.6740   22.6180   53.2080 O   0  0  0  0  0  0  0  0  0  0  0  0
  176.4260   22.6630   52.0050 C   0  0  0  0  0  0  0  0  0  0  0  0
  177.2820   21.9440   51.0340 C   0  0  0  0  0  0  0  0  0  0  0  0
  178.3630   21.2470   51.5430 O   0  0  0  0  0  0  0  0  0  0  0  0
  176.9740   22.0210   49.7260 C   0  0  0  0  0  0  0  0  0  0  0  0
  177.7640   21.3560   48.6670 C   0  0  0  0  0  0  0  0  0  0  0  0
  177.2040   20.3850   47.8310 C   0  0  0  0  0  0  0  0  0  0  0  0
  177.9630   19.7860   46.8210 C   0  0  0  0  0  0  0  0  0  0  0  0
  179.3040   20.1450   46.6210 C   0  0  0  0  0  0  0  0  0  0  0  0
  180.0920   19.4850   45.5180 C   0  0  0  0  0  0  0  0  0  0  0  0
  180.1300   20.2390   44.3840 F   0  0  0  0  0  0  0  0  0  0  0  0
  179.8780   21.1430   47.4380 C   0  0  0  0  0  0  0  0  0  0  0  0
  181.3120   21.5850   47.2490 C   0  0  0  0  0  0  0  0  0  0  0  0
  181.5040   22.8890   47.5930 F   0  0  0  0  0  0  0  0  0  0  0  0
  182.1950   20.8790   48.0150 F   0  0  0  0  0  0  0  0  0  0  0  0
  179.0990   21.7310   48.4530 C   0  0  0  0  0  0  0  0  0  0  0  0
  175.9010   22.7470   49.2240 O   0  0  0  0  0  0  0  0  0  0  0  0
  175.0860   23.4180   50.1000 C   0  0  0  0  0  0  0  0  0  0  0  0
  174.0140   24.1260   49.5530 C   0  0  0  0  0  0  0  0  0  0  0  0
  173.1470   24.8320   50.3890 C   0  0  0  0  0  0  0  0  0  0  0  0
  173.3510   24.8310   51.7710 C   0  0  0  0  0  0  0  0  0  0  0  0
  174.4210   24.1230   52.3130 C   0  0  0  0  0  0  0  0  0  0  0  0
  174.5610   24.1650   53.6730 O   0  0  0  0  0  0  0  0  0  0  0  0
  175.2880   23.4180   51.4760 C   0  0  0  0  0  0  0  0  0  0  0  0
  178.6940   20.4980   51.0870 H   0  0  0  0  0  0  0  0  0  0  0  0
  176.1537   20.0889   47.9696 H   0  0  0  0  0  0  0  0  0  0  0  0
  177.5027   19.0237   46.1752 H   0  0  0  0  0  0  0  0  0  0  0  0
  181.1218   19.3219   45.8685 H   0  0  0  0  0  0  0  0  0  0  0  0
  179.5945   18.5351   45.2726 H   0  0  0  0  0  0  0  0  0  0  0  0
  181.4953   21.4160   46.1776 H   0  0  0  0  0  0  0  0  0  0  0  0
  179.5483   22.5037   49.0942 H   0  0  0  0  0  0  0  0  0  0  0  0
  173.8528   24.1275   48.4649 H   0  0  0  0  0  0  0  0  0  0  0  0
  172.3021   25.3898   49.9589 H   0  0  0  0  0  0  0  0  0  0  0  0
  172.6683   25.3880   52.4295 H   0  0  0  0  0  0  0  0  0  0  0  0
  173.8590   23.8860   54.2260 H   0  0  0  0  0  0  0  0  0  0  0  0
  1  2  2  0
  2  3  1  0
  3  4  1  0
  3  5  2  0
  5  6  1  0
  6  7  2  0
  7  8  1  0
  8  9  2  0
  9 10  1  0
 10 11  1  0
  9 12  1  0
 12 13  1  0
 13 14  1  0
 13 15  1  0
 12 16  2  0
  5 17  1  0
 17 18  1  0
 18 19  2  0
 19 20  1  0
 20 21  2  0
 21 22  1  0
 22 23  1  0
 22 24  2  0
 24  2  1  0
 16  6  1  0
 24 18  1  0
  4 25  1  0
  7 26  1  0
  8 27  1  0
 10 28  1  0
 10 29  1  0
 13 30  1  0
 16 31  1  0
 19 32  1  0
 20 33  1  0
 21 34  1  0
 23 35  1  0
M  END
>  <meeko>  (8) 
{"is_sidechain": [false], "free_energy": -7.239, "intermolecular_energy": -8.738, "internal_energy": -0.463}

$$$$
cand_019_out
     RDKit          3D

 35 37  0  0  0  0  0  0  0  0999 V2000
  176.3060   23.1080   53.9750 O   0  0  0  0  0  0  0  0  0  0  0  0
  176.2520   23.4000   52.7830 C   0  0  0  0  0  0  0  0  0  0  0  0
  176.7510   22.4580   51.7550 C   0  0  0  0  0  0  0  0  0  0  0  0
  177.2850   21.2630   52.2030 O   0  0  0  0  0  0  0  0  0  0  0  0
  176.6750   22.8190   50.4610 C   0  0  0  0  0  0  0  0  0  0  0  0
  177.1530   21.9660   49.3520 C   0  0  0  0  0  0  0  0  0  0  0  0
  178.4900   21.9690   48.9430 C   0  0  0  0  0  0  0  0  0  0  0  0
  178.9250   21.1370   47.9080 C   0  0  0  0  0  0  0  0  0  0  0  0
  178.0310   20.2770   47.2540 C   0  0  0  0  0  0  0  0  0  0  0  0
  178.5340   19.3860   46.1460 C   0  0  0  0  0  0  0  0  0  0  0  0
  179.7750   18.8860   46.4040 F   0  0  0  0  0  0  0  0  0  0  0  0
  176.6830   20.2400   47.6710 C   0  0  0  0  0  0  0  0  0  0  0  0
  175.6830   19.3130   47.0160 C   0  0  0  0  0  0  0  0  0  0  0  0
  175.5370   18.1410   47.6960 F   0  0  0  0  0  0  0  0  0  0  0  0
  174.4270   19.8440   46.9450 F   0  0  0  0  0  0  0  0  0  0  0  0
  176.2630   21.0890   48.7120 C   0  0  0  0  0  0  0  0  0  0  0  0
  176.1620   24.0350   50.0240 O   0  0  0  0  0  0  0  0  0  0  0  0
  175.6860   24.9260   50.9520 C   0  0  0  0  0  0  0  0  0  0  0  0
  175.1710   26.1300   50.4690 C   0  0  0  0  0  0  0  0  0  0  0  0
  174.6700   27.0810   51.3610 C   0  0  0  0  0  0  0  0  0  0  0  0
  174.6860   26.8290   52.7350 C   0  0  0  0  0  0  0  0  0  0  0  0
  175.2010   25.6270   53.2140 C   0  0  0  0  0  0  0  0  0  0  0  0
  175.1860   25.4460   54.5690 O   0  0  0  0  0  0  0  0  0  0  0  0
  175.7010   24.6760   52.3210 C   0  0  0  0  0  0  0  0  0  0  0  0
  177.1540   20.9960   53.0920 H   0  0  0  0  0  0  0  0  0  0  0  0
  179.2089   22.6351   49.4425 H   0  0  0  0  0  0  0  0  0  0  0  0
  179.9816   21.1569   47.6025 H   0  0  0  0  0  0  0  0  0  0  0  0
  177.8338   18.5467   46.0223 H   0  0  0  0  0  0  0  0  0  0  0  0
  178.6008   19.9936   45.2315 H   0  0  0  0  0  0  0  0  0  0  0  0
  176.1007   19.1512   46.0113 H   0  0  0  0  0  0  0  0  0  0  0  0
  175.2109   21.0648   49.0322 H   0  0  0  0  0  0  0  0  0  0  0  0
  175.1597   26.3297   49.3873 H   0  0  0  0  0  0  0  0  0  0  0  0
  174.2624   28.0294   50.9811 H   0  0  0  0  0  0  0  0  0  0  0  0
  174.2925   27.5787   53.4373 H   0  0  0  0  0  0  0  0  0  0  0  0
  174.8440   26.1160   55.1280 H   0  0  0  0  0  0  0  0  0  0  0  0
  1  2  2  0
  2  3  1  0
  3  4  1  0
  3  5  2  0
  5  6  1  0
  6  7  2  0
  7  8  1  0
  8  9  2  0
  9 10  1  0
 10 11  1  0
  9 12  1  0
 12 13  1  0
 13 14  1  0
 13 15  1  0
 12 16  2  0
  5 17  1  0
 17 18  1  0
 18 19  2  0
 19 20  1  0
 20 21  2  0
 21 22  1  0
 22 23  1  0
 22 24  2  0
 24  2  1  0
 16  6  1  0
 24 18  1  0
  4 25  1  0
  7 26  1  0
  8 27  1  0
 10 28  1  0
 10 29  1  0
 13 30  1  0
 16 31  1  0
 19 32  1  0
 20 33  1  0
 21 34  1  0
 23 35  1  0
M  END
>  <meeko>  (9) 
{"is_sidechain": [false], "free_energy": -7.216, "intermolecular_energy": -8.606, "internal_energy": -0.566}

$$$$
