cand_020_out
     RDKit          3D

 50 53  0  0  0  0  0  0  0  0999 V2000
  175.4800   17.7880   46.3490 C   0  0  0  0  0  0  0  0  0  0  0  0
  176.5900   18.8240   46.2520 C   0  0  0  0  0  0  0  0  0  0  0  0
  176.5000   19.8580   47.3530 C   0  0  0  0  0  0  0  0  0  0  0  0
  175.2510   20.1180   47.9380 C   0  0  0  0  0  0  0  0  0  0  0  0
  175.1160   21.0760   48.9430 C   0  0  0  0  0  0  0  0  0  0  0  0
  176.2260   21.8050   49.3850 C   0  0  0  0  0  0  0  0  0  0  0  0
  176.0700   22.7960   50.4720 C   0  0  0  0  0  0  0  0  0  0  0  0
  175.6170   24.0290   50.0160 O   0  0  0  0  0  0  0  0  0  0  0  0
  175.4290   25.0410   50.9210 C   0  0  0  0  0  0  0  0  0  0  0  0
  174.9590   26.2570   50.4220 C   0  0  0  0  0  0  0  0  0  0  0  0
  174.7470   27.3310   51.2910 C   0  0  0  0  0  0  0  0  0  0  0  0
  175.0040   27.1890   52.6560 C   0  0  0  0  0  0  0  0  0  0  0  0
  175.4720   25.9750   53.1500 C   0  0  0  0  0  0  0  0  0  0  0  0
  175.7050   25.9050   54.4960 O   0  0  0  0  0  0  0  0  0  0  0  0
  175.6840   24.9000   52.2820 C   0  0  0  0  0  0  0  0  0  0  0  0
  176.1760   23.6080   52.7600 C   0  0  0  0  0  0  0  0  0  0  0  0
  176.4310   23.4070   53.9460 O   0  0  0  0  0  0  0  0  0  0  0  0
  176.3590   22.5310   51.7590 C   0  0  0  0  0  0  0  0  0  0  0  0
  176.8350   21.3180   52.2220 O   0  0  0  0  0  0  0  0  0  0  0  0
  177.4740   21.5420   48.8000 C   0  0  0  0  0  0  0  0  0  0  0  0
  177.6290   20.5860   47.7790 C   0  0  0  0  0  0  0  0  0  0  0  0
  178.8850   20.3280   47.1830 N   0  0  0  0  0  0  0  0  0  0  0  0
  178.9650   20.7730   45.7830 C   0  0  0  0  0  0  0  0  0  0  0  0
  180.2550   20.2340   45.1650 C   0  0  0  0  0  0  0  0  0  0  0  0
  181.4760   20.6620   45.9790 C   0  0  0  0  0  0  0  0  0  0  0  0
  181.3130   20.2800   47.4490 C   0  0  0  0  0  0  0  0  0  0  0  0
  179.9960   20.8090   48.0200 C   0  0  0  0  0  0  0  0  0  0  0  0
  175.2608   17.5834   47.4074 H   0  0  0  0  0  0  0  0  0  0  0  0
  174.5755   18.1724   45.8549 H   0  0  0  0  0  0  0  0  0  0  0  0
  175.8011   16.8592   45.8549 H   0  0  0  0  0  0  0  0  0  0  0  0
  177.5608   18.3118   46.3246 H   0  0  0  0  0  0  0  0  0  0  0  0
  176.4850   19.3444   45.2886 H   0  0  0  0  0  0  0  0  0  0  0  0
  174.3664   19.5587   47.5994 H   0  0  0  0  0  0  0  0  0  0  0  0
  174.1288   21.2600   49.3919 H   0  0  0  0  0  0  0  0  0  0  0  0
  174.7558   26.3698   49.3468 H   0  0  0  0  0  0  0  0  0  0  0  0
  174.3770   28.2898   50.8988 H   0  0  0  0  0  0  0  0  0  0  0  0
  174.8370   28.0347   53.3393 H   0  0  0  0  0  0  0  0  0  0  0  0
  175.5980   26.6670   55.0310 H   0  0  0  0  0  0  0  0  0  0  0  0
  176.2930   20.5550   52.1810 H   0  0  0  0  0  0  0  0  0  0  0  0
  178.3560   22.0988   49.1493 H   0  0  0  0  0  0  0  0  0  0  0  0
  178.0991   20.3893   45.2235 H   0  0  0  0  0  0  0  0  0  0  0  0
  178.9624   21.8722   45.7406 H   0  0  0  0  0  0  0  0  0  0  0  0
  180.2086   19.1353   45.1377 H   0  0  0  0  0  0  0  0  0  0  0  0
  180.3524   20.6422   44.1482 H   0  0  0  0  0  0  0  0  0  0  0  0
  182.3703   20.1651   45.5749 H   0  0  0  0  0  0  0  0  0  0  0  0
  181.5789   21.7550   45.9095 H   0  0  0  0  0  0  0  0  0  0  0  0
  181.3269   19.1837   47.5376 H   0  0  0  0  0  0  0  0  0  0  0  0
  182.1416   20.7279   48.0172 H   0  0  0  0  0  0  0  0  0  0  0  0
  179.8672   20.4441   49.0497 H   0  0  0  0  0  0  0  0  0  0  0  0
  180.0082   21.9089   48.0264 H   0  0  0  0  0  0  0  0  0  0  0  0
  1  2  1  0
  2  3  1  0
  3  4  2  0
  4  5  1  0
  5  6  2  0
  6  7  1  0
  7  8  1  0
  8  9  1  0
  9 10  2  0
 10 11  1  0
 11 12  2  0
 12 13  1  0
 13 14  1  0
 13 15  2  0
 15 16  1  0
 16 17  2  0
 16 18  1  0
 18 19  1  0
  6 20  1  0
 20 21  2  0
 21 22  1  0
 22 23  1  0
 23 24  1  0
 24 25  1  0
 25 26  1  0
 26 27  1  0
 21  3  1  0
 27 22  1  0
 18  7  2  0
 15  9  1  0
  1 28  1  0
  1 29  1  0
  1 30  1  0
  2 31  1  0
  2 32  1  0
  4 33  1  0
  5 34  1  0
 10 35  1  0
 11 36  1  0
 12 37  1  0
 14 38  1  0
 19 39  1  0
 20 40  1  0
 23 41  1  0
 23 42  1  0
 24 43  1  0
 24 44  1  0
 25 45  1  0
 25 46  1  0
 26 47  1  0
 26 48  1  0
 27 49  1  0
 27 50  1  0
M  END
>  <meeko>  (1) 
{"is_sidechain": [false], "free_energy": -8.12, "intermolecular_energy": -10.019, "internal_energy": -0.494}

$$$$
cand_020_out
     RDKit          3D

 50 53  0  0  0  0  0  0  0  0999 V2000
  175.5120   19.3260   47.0200 C   0  0  0  0  0  0  0  0  0  0  0  0
  175.9280   20.7160   46.5640 C   0  0  0  0  0  0  0  0  0  0  0  0
  177.3020   21.0930   47.0720 C   0  0  0  0  0  0  0  0  0  0  0  0
  178.4280   20.4910   46.4910 C   0  0  0  0  0  0  0  0  0  0  0  0
  179.7140   20.7940   46.9400 C   0  0  0  0  0  0  0  0  0  0  0  0
  179.9070   21.7020   47.9870 C   0  0  0  0  0  0  0  0  0  0  0  0
  181.2780   22.0340   48.4300 C   0  0  0  0  0  0  0  0  0  0  0  0
  182.0830   22.4940   47.3940 O   0  0  0  0  0  0  0  0  0  0  0  0
  183.3820   22.8380   47.6660 C   0  0  0  0  0  0  0  0  0  0  0  0
  184.1490   23.3080   46.5990 C   0  0  0  0  0  0  0  0  0  0  0  0
  185.4810   23.6740   46.8070 C   0  0  0  0  0  0  0  0  0  0  0  0
  186.0450   23.5710   48.0800 C   0  0  0  0  0  0  0  0  0  0  0  0
  185.2770   23.1010   49.1420 C   0  0  0  0  0  0  0  0  0  0  0  0
  185.8920   23.0240   50.3610 O   0  0  0  0  0  0  0  0  0  0  0  0
  183.9450   22.7350   48.9340 C   0  0  0  0  0  0  0  0  0  0  0  0
  183.1030   22.2360   50.0230 C   0  0  0  0  0  0  0  0  0  0  0  0
  183.5300   22.1110   51.1690 O   0  0  0  0  0  0  0  0  0  0  0  0
  181.7010   21.8840   49.6990 C   0  0  0  0  0  0  0  0  0  0  0  0
  180.9200   21.4020   50.7330 O   0  0  0  0  0  0  0  0  0  0  0  0
  178.7800   22.3050   48.5650 C   0  0  0  0  0  0  0  0  0  0  0  0
  177.4740   22.0050   48.1320 C   0  0  0  0  0  0  0  0  0  0  0  0
  176.3370   22.6060   48.7220 N   0  0  0  0  0  0  0  0  0  0  0  0
  175.7540   21.8010   49.8070 C   0  0  0  0  0  0  0  0  0  0  0  0
  174.4080   22.4070   50.2040 C   0  0  0  0  0  0  0  0  0  0  0  0
  174.5600   23.8780   50.5910 C   0  0  0  0  0  0  0  0  0  0  0  0
  175.2650   24.6640   49.4870 C   0  0  0  0  0  0  0  0  0  0  0  0
  176.5900   24.0060   49.0960 C   0  0  0  0  0  0  0  0  0  0  0  0
  175.5009   19.2888   48.1193 H   0  0  0  0  0  0  0  0  0  0  0  0
  174.5067   19.0995   46.6352 H   0  0  0  0  0  0  0  0  0  0  0  0
  176.2276   18.5844   46.6352 H   0  0  0  0  0  0  0  0  0  0  0  0
  175.9371   20.7408   45.4643 H   0  0  0  0  0  0  0  0  0  0  0  0
  175.2054   21.4375   46.9730 H   0  0  0  0  0  0  0  0  0  0  0  0
  178.2954   19.7704   45.6705 H   0  0  0  0  0  0  0  0  0  0  0  0
  180.5837   20.3148   46.4667 H   0  0  0  0  0  0  0  0  0  0  0  0
  183.7054   23.3901   45.5958 H   0  0  0  0  0  0  0  0  0  0  0  0
  186.0865   24.0440   45.9664 H   0  0  0  0  0  0  0  0  0  0  0  0
  187.0936   23.8605   48.2436 H   0  0  0  0  0  0  0  0  0  0  0  0
  185.4950   22.5350   51.0560 H   0  0  0  0  0  0  0  0  0  0  0  0
  180.0480   21.7250   50.8520 H   0  0  0  0  0  0  0  0  0  0  0  0
  178.9202   23.0319   49.3786 H   0  0  0  0  0  0  0  0  0  0  0  0
  175.6061   20.7672   49.4614 H   0  0  0  0  0  0  0  0  0  0  0  0
  176.4313   21.7969   50.6737 H   0  0  0  0  0  0  0  0  0  0  0  0
  173.7141   22.3289   49.3541 H   0  0  0  0  0  0  0  0  0  0  0  0
  174.0188   21.8554   51.0725 H   0  0  0  0  0  0  0  0  0  0  0  0
  173.5628   24.3105   50.7600 H   0  0  0  0  0  0  0  0  0  0  0  0
  175.1664   23.9388   51.5067 H   0  0  0  0  0  0  0  0  0  0  0  0
  174.6112   24.7059   48.6034 H   0  0  0  0  0  0  0  0  0  0  0  0
  175.4771   25.6760   49.8623 H   0  0  0  0  0  0  0  0  0  0  0  0
  177.0303   24.5421   48.2423 H   0  0  0  0  0  0  0  0  0  0  0  0
  177.2886   24.0437   49.9449 H   0  0  0  0  0  0  0  0  0  0  0  0
  1  2  1  0
  2  3  1  0
  3  4  2  0
  4  5  1  0
  5  6  2  0
  6  7  1  0
  7  8  1  0
  8  9  1  0
  9 10  2  0
 10 11  1  0
 11 12  2  0
 12 13  1  0
 13 14  1  0
 13 15  2  0
 15 16  1  0
 16 17  2  0
 16 18  1  0
 18 19  1  0
  6 20  1  0
 20 21  2  0
 21 22  1  0
 22 23  1  0
 23 24  1  0
 24 25  1  0
 25 26  1  0
 26 27  1  0
 21  3  1  0
 27 22  1  0
 18  7  2  0
 15  9  1  0
  1 28  1  0
  1 29  1  0
  1 30  1  0
  2 31  1  0
  2 32  1  0
  4 33  1  0
  5 34  1  0
 10 35  1  0
 11 36  1  0
 12 37  1  0
 14 38  1  0
 19 39  1  0
 20 40  1  0
 23 41  1  0
 23 42  1  0
 24 43  1  0
 24 44  1  0
 25 45  1  0
 25 46  1  0
 26 47  1  0
 26 48  1  0
 27 49  1  0
 27 50  1  0
M  END
>  <meeko>  (2) 
{"is_sidechain": [false], "free_energy": -7.893, "intermolecular_energy": -9.538, "internal_energy": -0.695}

$$$$
cand_020_out
     RDKit          3D

 50 53  0  0  0  0  0  0  0  0999 V2000
  181.1690   19.3550   45.5030 C   0  0  0  0  0  0  0  0  0  0  0  0
  181.4380   20.7810   45.9610 C   0  0  0  0  0  0  0  0  0  0  0  0
  180.4330   21.2460   46.9920 C   0  0  0  0  0  0  0  0  0  0  0  0
  179.1870   20.6040   47.0610 C   0  0  0  0  0  0  0  0  0  0  0  0
  178.2220   21.0120   47.9830 C   0  0  0  0  0  0  0  0  0  0  0  0
  178.4740   22.0770   48.8550 C   0  0  0  0  0  0  0  0  0  0  0  0
  177.4510   22.4750   49.8450 C   0  0  0  0  0  0  0  0  0  0  0  0
  176.3420   23.0770   49.2620 O   0  0  0  0  0  0  0  0  0  0  0  0
  175.3150   23.4970   50.0670 C   0  0  0  0  0  0  0  0  0  0  0  0
  174.2150   24.0820   49.4380 C   0  0  0  0  0  0  0  0  0  0  0  0
  173.1350   24.5330   50.2010 C   0  0  0  0  0  0  0  0  0  0  0  0
  173.1540   24.4000   51.5900 C   0  0  0  0  0  0  0  0  0  0  0  0
  174.2530   23.8150   52.2150 C   0  0  0  0  0  0  0  0  0  0  0  0
  174.2080   23.7160   53.5780 O   0  0  0  0  0  0  0  0  0  0  0  0
  175.3340   23.3630   51.4520 C   0  0  0  0  0  0  0  0  0  0  0  0
  176.5070   22.7440   52.0690 C   0  0  0  0  0  0  0  0  0  0  0  0
  176.6010   22.5970   53.2860 O   0  0  0  0  0  0  0  0  0  0  0  0
  177.5950   22.2910   51.1710 C   0  0  0  0  0  0  0  0  0  0  0  0
  178.7030   21.7180   51.7660 O   0  0  0  0  0  0  0  0  0  0  0  0
  179.7220   22.7150   48.7860 C   0  0  0  0  0  0  0  0  0  0  0  0
  180.7050   22.3250   47.8570 C   0  0  0  0  0  0  0  0  0  0  0  0
  181.9580   22.9750   47.7800 N   0  0  0  0  0  0  0  0  0  0  0  0
  181.8500   24.4420   47.7570 C   0  0  0  0  0  0  0  0  0  0  0  0
  183.2200   25.0350   47.4280 C   0  0  0  0  0  0  0  0  0  0  0  0
  184.2810   24.5480   48.4150 C   0  0  0  0  0  0  0  0  0  0  0  0
  184.2940   23.0230   48.4950 C   0  0  0  0  0  0  0  0  0  0  0  0
  182.9000   22.4690   48.7920 C   0  0  0  0  0  0  0  0  0  0  0  0
  181.0463   18.7047   46.3816 H   0  0  0  0  0  0  0  0  0  0  0  0
  180.2505   19.3312   44.8981 H   0  0  0  0  0  0  0  0  0  0  0  0
  182.0157   18.9983   44.8981 H   0  0  0  0  0  0  0  0  0  0  0  0
  182.4452   20.8284   46.4007 H   0  0  0  0  0  0  0  0  0  0  0  0
  181.3542   21.4402   45.0844 H   0  0  0  0  0  0  0  0  0  0  0  0
  178.9681   19.7686   46.3797 H   0  0  0  0  0  0  0  0  0  0  0  0
  177.2539   20.4913   48.0246 H   0  0  0  0  0  0  0  0  0  0  0  0
  174.1984   24.1878   48.3432 H   0  0  0  0  0  0  0  0  0  0  0  0
  172.2677   24.9940   49.7057 H   0  0  0  0  0  0  0  0  0  0  0  0
  172.3035   24.7561   52.1898 H   0  0  0  0  0  0  0  0  0  0  0  0
  174.4460   22.9120   53.9980 H   0  0  0  0  0  0  0  0  0  0  0  0
  178.6760   21.4730   52.6700 H   0  0  0  0  0  0  0  0  0  0  0  0
  179.9381   23.5430   49.4772 H   0  0  0  0  0  0  0  0  0  0  0  0
  181.1222   24.7466   46.9905 H   0  0  0  0  0  0  0  0  0  0  0  0
  181.5127   24.8060   48.7387 H   0  0  0  0  0  0  0  0  0  0  0  0
  183.5085   24.7307   46.4111 H   0  0  0  0  0  0  0  0  0  0  0  0
  183.1530   26.1307   47.4989 H   0  0  0  0  0  0  0  0  0  0  0  0
  185.2692   24.8994   48.0835 H   0  0  0  0  0  0  0  0  0  0  0  0
  184.0440   24.9495   49.4113 H   0  0  0  0  0  0  0  0  0  0  0  0
  184.6435   22.6170   47.5343 H   0  0  0  0  0  0  0  0  0  0  0  0
  184.9670   22.7245   49.3123 H   0  0  0  0  0  0  0  0  0  0  0  0
  182.9245   21.3699   48.7562 H   0  0  0  0  0  0  0  0  0  0  0  0
  182.5778   22.7903   49.7935 H   0  0  0  0  0  0  0  0  0  0  0  0
  1  2  1  0
  2  3  1  0
  3  4  2  0
  4  5  1  0
  5  6  2  0
  6  7  1  0
  7  8  1  0
  8  9  1  0
  9 10  2  0
 10 11  1  0
 11 12  2  0
 12 13  1  0
 13 14  1  0
 13 15  2  0
 15 16  1  0
 16 17  2  0
 16 18  1  0
 18 19  1  0
  6 20  1  0
 20 21  2  0
 21 22  1  0
 22 23  1  0
 23 24  1  0
 24 25  1  0
 25 26  1  0
 26 27  1  0
 21  3  1  0
 27 22  1  0
 18  7  2  0
 15  9  1  0
  1 28  1  0
  1 29  1  0
  1 30  1  0
  2 31  1  0
  2 32  1  0
  4 33  1  0
  5 34  1  0
 10 35  1  0
 11 36  1  0
 12 37  1  0
 14 38  1  0
 19 39  1  0
 20 40  1  0
 23 41  1  0
 23 42  1  0
 24 43  1  0
 24 44  1  0
 25 45  1  0
 25 46  1  0
 26 47  1  0
 26 48  1  0
 27 49  1  0
 27 50  1  0
M  END
>  <meeko>  (3) 
{"is_sidechain": [false], "free_energy": -7.798, "intermolecular_energy": -9.319, "internal_energy": -0.797}

$$$$
cand_020_out
     RDKit          3D

 50 53  0  0  0  0  0  0  0  0999 V2000
  174.8140   21.8480   48.8160 C   0  0  0  0  0  0  0  0  0  0  0  0
  176.2580   22.3240   48.7810 C   0  0  0  0  0  0  0  0  0  0  0  0
  177.1500   21.3770   48.0100 C   0  0  0  0  0  0  0  0  0  0  0  0
  176.5580   20.3850   47.2140 C   0  0  0  0  0  0  0  0  0  0  0  0
  177.3410   19.4770   46.5000 C   0  0  0  0  0  0  0  0  0  0  0  0
  178.7380   19.5340   46.5690 C   0  0  0  0  0  0  0  0  0  0  0  0
  179.5520   18.5830   45.7820 C   0  0  0  0  0  0  0  0  0  0  0  0
  179.0760   17.2780   45.8520 O   0  0  0  0  0  0  0  0  0  0  0  0
  179.7380   16.2930   45.1670 C   0  0  0  0  0  0  0  0  0  0  0  0
  179.2170   15.0010   45.2540 C   0  0  0  0  0  0  0  0  0  0  0  0
  179.8450   13.9500   44.5820 C   0  0  0  0  0  0  0  0  0  0  0  0
  180.9930   14.1890   43.8240 C   0  0  0  0  0  0  0  0  0  0  0  0
  181.5110   15.4790   43.7390 C   0  0  0  0  0  0  0  0  0  0  0  0
  182.6370   15.6440   42.9810 O   0  0  0  0  0  0  0  0  0  0  0  0
  180.8820   16.5310   44.4110 C   0  0  0  0  0  0  0  0  0  0  0  0
  181.3930   17.9010   44.3490 C   0  0  0  0  0  0  0  0  0  0  0  0
  182.4020   18.1900   43.7080 O   0  0  0  0  0  0  0  0  0  0  0  0
  180.6480   18.9450   45.0900 C   0  0  0  0  0  0  0  0  0  0  0  0
  181.1480   20.2330   45.0340 O   0  0  0  0  0  0  0  0  0  0  0  0
  179.3280   20.5280   47.3630 C   0  0  0  0  0  0  0  0  0  0  0  0
  178.5550   21.4470   48.0980 C   0  0  0  0  0  0  0  0  0  0  0  0
  179.1500   22.4430   48.9060 N   0  0  0  0  0  0  0  0  0  0  0  0
  179.7480   21.9090   50.1400 C   0  0  0  0  0  0  0  0  0  0  0  0
  180.1380   23.0750   51.0470 C   0  0  0  0  0  0  0  0  0  0  0  0
  181.0730   24.0450   50.3240 C   0  0  0  0  0  0  0  0  0  0  0  0
  180.4690   24.4980   48.9950 C   0  0  0  0  0  0  0  0  0  0  0  0
  180.0610   23.3030   48.1330 C   0  0  0  0  0  0  0  0  0  0  0  0
  174.4885   21.7407   49.8613 H   0  0  0  0  0  0  0  0  0  0  0  0
  174.1733   22.5825   48.3060 H   0  0  0  0  0  0  0  0  0  0  0  0
  174.7357   20.8765   48.3060 H   0  0  0  0  0  0  0  0  0  0  0  0
  176.2938   23.3138   48.3025 H   0  0  0  0  0  0  0  0  0  0  0  0
  176.6256   22.3682   49.8168 H   0  0  0  0  0  0  0  0  0  0  0  0
  175.4616   20.3221   47.1518 H   0  0  0  0  0  0  0  0  0  0  0  0
  176.8565   18.7101   45.8778 H   0  0  0  0  0  0  0  0  0  0  0  0
  178.3129   14.8108   45.8511 H   0  0  0  0  0  0  0  0  0  0  0  0
  179.4344   12.9318   44.6500 H   0  0  0  0  0  0  0  0  0  0  0  0
  181.4870   13.3605   43.2953 H   0  0  0  0  0  0  0  0  0  0  0  0
  182.8090   16.4690   42.5700 H   0  0  0  0  0  0  0  0  0  0  0  0
  181.2370   20.7360   45.8190 H   0  0  0  0  0  0  0  0  0  0  0  0
  180.4250   20.5915   47.4130 H   0  0  0  0  0  0  0  0  0  0  0  0
  179.0183   21.2679   50.6563 H   0  0  0  0  0  0  0  0  0  0  0  0
  180.6400   21.3141   49.8942 H   0  0  0  0  0  0  0  0  0  0  0  0
  179.2283   23.6128   51.3521 H   0  0  0  0  0  0  0  0  0  0  0  0
  180.6627   22.6736   51.9265 H   0  0  0  0  0  0  0  0  0  0  0  0
  181.2413   24.9254   50.9616 H   0  0  0  0  0  0  0  0  0  0  0  0
  182.0235   23.5302   50.1202 H   0  0  0  0  0  0  0  0  0  0  0  0
  179.5803   25.1139   49.1970 H   0  0  0  0  0  0  0  0  0  0  0  0
  181.2282   25.0767   48.4484 H   0  0  0  0  0  0  0  0  0  0  0  0
  179.5507   23.6596   47.2261 H   0  0  0  0  0  0  0  0  0  0  0  0
  180.9551   22.7314   47.8432 H   0  0  0  0  0  0  0  0  0  0  0  0
  1  2  1  0
  2  3  1  0
  3  4  2  0
  4  5  1  0
  5  6  2  0
  6  7  1  0
  7  8  1  0
  8  9  1  0
  9 10  2  0
 10 11  1  0
 11 12  2  0
 12 13  1  0
 13 14  1  0
 13 15  2  0
 15 16  1  0
 16 17  2  0
 16 18  1  0
 18 19  1  0
  6 20  1  0
 20 21  2  0
 21 22  1  0
 22 23  1  0
 23 24  1  0
 24 25  1  0
 25 26  1  0
 26 27  1  0
 21  3  1  0
 27 22  1  0
 18  7  2  0
 15  9  1  0
  1 28  1  0
  1 29  1  0
  1 30  1  0
  2 31  1  0
  2 32  1  0
  4 33  1  0
  5 34  1  0
 10 35  1  0
 11 36  1  0
 12 37  1  0
 14 38  1  0
 19 39  1  0
 20 40  1  0
 23 41  1  0
 23 42  1  0
 24 43  1  0
 24 44  1  0
 25 45  1  0
 25 46  1  0
 26 47  1  0
 26 48  1  0
 27 49  1  0
 27 50  1  0
M  END
>  <meeko>  (4) 
{"is_sidechain": [false], "free_energy": -7.773, "intermolecular_energy": -9.52, "internal_energy": -0.565}

$$$$
cand_020_out
     RDKit          3D

 50 53  0  0  0  0  0  0  0  0999 V2000
  182.0110   22.3250   50.2600 C   0  0  0  0  0  0  0  0  0  0  0  0
  180.9330   21.2540   50.2050 C   0  0  0  0  0  0  0  0  0  0  0  0
  179.5480   21.8480   50.0690 C   0  0  0  0  0  0  0  0  0  0  0  0
  179.0100   22.5650   51.1490 C   0  0  0  0  0  0  0  0  0  0  0  0
  177.7290   23.1140   51.0760 C   0  0  0  0  0  0  0  0  0  0  0  0
  176.9500   22.9540   49.9240 C   0  0  0  0  0  0  0  0  0  0  0  0
  175.6070   23.5690   49.8530 C   0  0  0  0  0  0  0  0  0  0  0  0
  175.6260   24.9370   50.1030 O   0  0  0  0  0  0  0  0  0  0  0  0
  174.4450   25.6330   50.0690 C   0  0  0  0  0  0  0  0  0  0  0  0
  174.5130   27.0060   50.3100 C   0  0  0  0  0  0  0  0  0  0  0  0
  173.3470   27.7740   50.2930 C   0  0  0  0  0  0  0  0  0  0  0  0
  172.1140   27.1720   50.0340 C   0  0  0  0  0  0  0  0  0  0  0  0
  172.0500   25.8010   49.7930 C   0  0  0  0  0  0  0  0  0  0  0  0
  170.8120   25.2750   49.5470 O   0  0  0  0  0  0  0  0  0  0  0  0
  173.2170   25.0320   49.8100 C   0  0  0  0  0  0  0  0  0  0  0  0
  173.1940   23.5900   49.5630 C   0  0  0  0  0  0  0  0  0  0  0  0
  172.1480   22.9870   49.3340 O   0  0  0  0  0  0  0  0  0  0  0  0
  174.4870   22.8680   49.5950 C   0  0  0  0  0  0  0  0  0  0  0  0
  174.4500   21.5040   49.3720 O   0  0  0  0  0  0  0  0  0  0  0  0
  177.4910   22.2390   48.8450 C   0  0  0  0  0  0  0  0  0  0  0  0
  178.7780   21.6700   48.9030 C   0  0  0  0  0  0  0  0  0  0  0  0
  179.3190   20.9400   47.8190 N   0  0  0  0  0  0  0  0  0  0  0  0
  178.3000   20.2250   47.0350 C   0  0  0  0  0  0  0  0  0  0  0  0
  179.0000   19.2840   46.0550 C   0  0  0  0  0  0  0  0  0  0  0  0
  179.9840   20.0460   45.1670 C   0  0  0  0  0  0  0  0  0  0  0  0
  180.9610   20.8630   46.0110 C   0  0  0  0  0  0  0  0  0  0  0  0
  180.2220   21.7660   47.0010 C   0  0  0  0  0  0  0  0  0  0  0  0
  182.2443   22.5568   51.3097 H   0  0  0  0  0  0  0  0  0  0  0  0
  182.9173   21.9593   49.7551 H   0  0  0  0  0  0  0  0  0  0  0  0
  181.6512   23.2336   49.7551 H   0  0  0  0  0  0  0  0  0  0  0  0
  181.1254   20.6009   49.3410 H   0  0  0  0  0  0  0  0  0  0  0  0
  180.9684   20.6886   51.1479 H   0  0  0  0  0  0  0  0  0  0  0  0
  179.6055   22.6959   52.0645 H   0  0  0  0  0  0  0  0  0  0  0  0
  177.3279   23.6775   51.9313 H   0  0  0  0  0  0  0  0  0  0  0  0
  175.4835   27.4823   50.5130 H   0  0  0  0  0  0  0  0  0  0  0  0
  173.3999   28.8560   50.4841 H   0  0  0  0  0  0  0  0  0  0  0  0
  171.1961   27.7781   50.0203 H   0  0  0  0  0  0  0  0  0  0  0  0
  170.0620   25.6080   50.0010 H   0  0  0  0  0  0  0  0  0  0  0  0
  175.2060   20.9800   49.5500 H   0  0  0  0  0  0  0  0  0  0  0  0
  176.8939   22.1196   47.9289 H   0  0  0  0  0  0  0  0  0  0  0  0
  177.6560   19.6425   47.7103 H   0  0  0  0  0  0  0  0  0  0  0  0
  177.6812   20.9467   46.4815 H   0  0  0  0  0  0  0  0  0  0  0  0
  179.5478   18.5172   46.6224 H   0  0  0  0  0  0  0  0  0  0  0  0
  178.2378   18.8190   45.4125 H   0  0  0  0  0  0  0  0  0  0  0  0
  180.5497   19.3266   44.5567 H   0  0  0  0  0  0  0  0  0  0  0  0
  179.4161   20.7336   44.5231 H   0  0  0  0  0  0  0  0  0  0  0  0
  181.6123   20.1756   46.5707 H   0  0  0  0  0  0  0  0  0  0  0  0
  181.5534   21.4992   45.3370 H   0  0  0  0  0  0  0  0  0  0  0  0
  180.9494   22.2731   47.6519 H   0  0  0  0  0  0  0  0  0  0  0  0
  179.6407   22.5220   46.4528 H   0  0  0  0  0  0  0  0  0  0  0  0
  1  2  1  0
  2  3  1  0
  3  4  2  0
  4  5  1  0
  5  6  2  0
  6  7  1  0
  7  8  1  0
  8  9  1  0
  9 10  2  0
 10 11  1  0
 11 12  2  0
 12 13  1  0
 13 14  1  0
 13 15  2  0
 15 16  1  0
 16 17  2  0
 16 18  1  0
 18 19  1  0
  6 20  1  0
 20 21  2  0
 21 22  1  0
 22 23  1  0
 23 24  1  0
 24 25  1  0
 25 26  1  0
 26 27  1  0
 21  3  1  0
 27 22  1  0
 18  7  2  0
 15  9  1  0
  1 28  1  0
  1 29  1  0
  1 30  1  0
  2 31  1  0
  2 32  1  0
  4 33  1  0
  5 34  1  0
 10 35  1  0
 11 36  1  0
 12 37  1  0
 14 38  1  0
 19 39  1  0
 20 40  1  0
 23 41  1  0
 23 42  1  0
 24 43  1  0
 24 44  1  0
 25 45  1  0
 25 46  1  0
 26 47  1  0
 26 48  1  0
 27 49  1  0
 27 50  1  0
M  END
>  <meeko>  (5) 
{"is_sidechain": [false], "free_energy": -7.645, "intermolecular_energy": -9.319, "internal_energy": -0.608}

$$$$
cand_020_out
     RDKit          3D

 50 53  0  0  0  0  0  0  0  0999 V2000
  175.5130   25.1600   53.6730 C   0  0  0  0  0  0  0  0  0  0  0  0
  174.9450   23.8180   53.2380 C   0  0  0  0  0  0  0  0  0  0  0  0
  175.7060   23.2300   52.0710 C   0  0  0  0  0  0  0  0  0  0  0  0
  176.8860   22.5140   52.3240 C   0  0  0  0  0  0  0  0  0  0  0  0
  177.6320   21.9700   51.2770 C   0  0  0  0  0  0  0  0  0  0  0  0
  177.2210   22.1340   49.9500 C   0  0  0  0  0  0  0  0  0  0  0  0
  178.0070   21.5240   48.8560 C   0  0  0  0  0  0  0  0  0  0  0  0
  179.2870   22.0580   48.7500 O   0  0  0  0  0  0  0  0  0  0  0  0
  180.1250   21.5830   47.7750 C   0  0  0  0  0  0  0  0  0  0  0  0
  181.4050   22.1360   47.7150 C   0  0  0  0  0  0  0  0  0  0  0  0
  182.3080   21.6980   46.7430 C   0  0  0  0  0  0  0  0  0  0  0  0
  181.9330   20.7080   45.8330 C   0  0  0  0  0  0  0  0  0  0  0  0
  180.6550   20.1570   45.8960 C   0  0  0  0  0  0  0  0  0  0  0  0
  180.3520   19.1930   44.9750 O   0  0  0  0  0  0  0  0  0  0  0  0
  179.7510   20.5950   46.8680 C   0  0  0  0  0  0  0  0  0  0  0  0
  178.4000   20.0440   46.9680 C   0  0  0  0  0  0  0  0  0  0  0  0
  177.9930   19.1750   46.2000 O   0  0  0  0  0  0  0  0  0  0  0  0
  177.5220   20.5710   48.0400 C   0  0  0  0  0  0  0  0  0  0  0  0
  176.2440   20.0500   48.1160 O   0  0  0  0  0  0  0  0  0  0  0  0
  176.0390   22.8470   49.6990 C   0  0  0  0  0  0  0  0  0  0  0  0
  175.2780   23.4120   50.7410 C   0  0  0  0  0  0  0  0  0  0  0  0
  174.0930   24.1400   50.4880 N   0  0  0  0  0  0  0  0  0  0  0  0
  174.3410   25.5420   50.1190 C   0  0  0  0  0  0  0  0  0  0  0  0
  173.0110   26.2950   50.1090 C   0  0  0  0  0  0  0  0  0  0  0  0
  172.0050   25.6210   49.1760 C   0  0  0  0  0  0  0  0  0  0  0  0
  171.8500   24.1400   49.5180 C   0  0  0  0  0  0  0  0  0  0  0  0
  173.2050   23.4310   49.5510 C   0  0  0  0  0  0  0  0  0  0  0  0
  175.5343   25.2104   54.7716 H   0  0  0  0  0  0  0  0  0  0  0  0
  176.5349   25.2701   53.2810 H   0  0  0  0  0  0  0  0  0  0  0  0
  174.8806   25.9702   53.2810 H   0  0  0  0  0  0  0  0  0  0  0  0
  174.9989   23.1185   54.0853 H   0  0  0  0  0  0  0  0  0  0  0  0
  173.9047   23.9779   52.9182 H   0  0  0  0  0  0  0  0  0  0  0  0
  177.2276   22.3796   53.3609 H   0  0  0  0  0  0  0  0  0  0  0  0
  178.5512   21.4074   51.4974 H   0  0  0  0  0  0  0  0  0  0  0  0
  181.7025   22.9155   48.4319 H   0  0  0  0  0  0  0  0  0  0  0  0
  183.3167   22.1342   46.6947 H   0  0  0  0  0  0  0  0  0  0  0  0
  182.6448   20.3639   45.0682 H   0  0  0  0  0  0  0  0  0  0  0  0
  180.1700   19.4330   44.0870 H   0  0  0  0  0  0  0  0  0  0  0  0
  175.5020   20.6040   47.9680 H   0  0  0  0  0  0  0  0  0  0  0  0
  175.6974   22.9681   48.6604 H   0  0  0  0  0  0  0  0  0  0  0  0
  175.0201   26.0020   50.8520 H   0  0  0  0  0  0  0  0  0  0  0  0
  174.8026   25.5884   49.1216 H   0  0  0  0  0  0  0  0  0  0  0  0
  172.5998   26.3118   51.1291 H   0  0  0  0  0  0  0  0  0  0  0  0
  173.1912   27.3185   49.7484 H   0  0  0  0  0  0  0  0  0  0  0  0
  171.0293   26.1183   49.2791 H   0  0  0  0  0  0  0  0  0  0  0  0
  172.3729   25.7060   48.1428 H   0  0  0  0  0  0  0  0  0  0  0  0
  171.3738   24.0485   50.5054 H   0  0  0  0  0  0  0  0  0  0  0  0
  171.2306   23.6679   48.7412 H   0  0  0  0  0  0  0  0  0  0  0  0
  173.0697   22.3918   49.8854 H   0  0  0  0  0  0  0  0  0  0  0  0
  173.6496   23.4308   48.5448 H   0  0  0  0  0  0  0  0  0  0  0  0
  1  2  1  0
  2  3  1  0
  3  4  2  0
  4  5  1  0
  5  6  2  0
  6  7  1  0
  7  8  1  0
  8  9  1  0
  9 10  2  0
 10 11  1  0
 11 12  2  0
 12 13  1  0
 13 14  1  0
 13 15  2  0
 15 16  1  0
 16 17  2  0
 16 18  1  0
 18 19  1  0
  6 20  1  0
 20 21  2  0
 21 22  1  0
 22 23  1  0
 23 24  1  0
 24 25  1  0
 25 26  1  0
 26 27  1  0
 21  3  1  0
 27 22  1  0
 18  7  2  0
 15  9  1  0
  1 28  1  0
  1 29  1  0
  1 30  1  0
  2 31  1  0
  2 32  1  0
  4 33  1  0
  5 34  1  0
 10 35  1  0
 11 36  1  0
 12 37  1  0
 14 38  1  0
 19 39  1  0
 20 40  1  0
 23 41  1  0
 23 42  1  0
 24 43  1  0
 24 44  1  0
 25 45  1  0
 25 46  1  0
 26 47  1  0
 26 48  1  0
 27 49  1  0
 27 50  1  0
M  END
>  <meeko>  (6) 
{"is_sidechain": [false], "free_energy": -7.483, "intermolecular_energy": -8.917, "internal_energy": -0.809}

$$$$
cand_020_out
     RDKit          3D

 50 53  0  0  0  0  0  0  0  0999 V2000
  177.9550   19.3240   46.5120 C   0  0  0  0  0  0  0  0  0  0  0  0
  177.3870   20.6970   46.1860 C   0  0  0  0  0  0  0  0  0  0  0  0
  176.6250   21.2880   47.3510 C   0  0  0  0  0  0  0  0  0  0  0  0
  175.2610   20.9890   47.4920 C   0  0  0  0  0  0  0  0  0  0  0  0
  174.5140   21.5270   48.5400 C   0  0  0  0  0  0  0  0  0  0  0  0
  175.1100   22.3850   49.4720 C   0  0  0  0  0  0  0  0  0  0  0  0
  174.3100   22.9220   50.5930 C   0  0  0  0  0  0  0  0  0  0  0  0
  175.0840   23.2380   51.7050 O   0  0  0  0  0  0  0  0  0  0  0  0
  174.4680   23.7470   52.8190 C   0  0  0  0  0  0  0  0  0  0  0  0
  175.2850   24.0640   53.9050 C   0  0  0  0  0  0  0  0  0  0  0  0
  174.7210   24.5850   55.0720 C   0  0  0  0  0  0  0  0  0  0  0  0
  173.3420   24.7880   55.1530 C   0  0  0  0  0  0  0  0  0  0  0  0
  172.5290   24.4710   54.0670 C   0  0  0  0  0  0  0  0  0  0  0  0
  171.1880   24.6950   54.2140 O   0  0  0  0  0  0  0  0  0  0  0  0
  173.0940   23.9510   52.8990 C   0  0  0  0  0  0  0  0  0  0  0  0
  172.2760   23.6040   51.7360 C   0  0  0  0  0  0  0  0  0  0  0  0
  171.0550   23.7490   51.7330 O   0  0  0  0  0  0  0  0  0  0  0  0
  172.9730   23.0670   50.5440 C   0  0  0  0  0  0  0  0  0  0  0  0
  172.1880   22.7320   49.4570 O   0  0  0  0  0  0  0  0  0  0  0  0
  176.4740   22.6810   49.3310 C   0  0  0  0  0  0  0  0  0  0  0  0
  177.2420   22.1550   48.2750 C   0  0  0  0  0  0  0  0  0  0  0  0
  178.6150   22.4620   48.1270 N   0  0  0  0  0  0  0  0  0  0  0  0
  178.8920   23.9070   48.1510 C   0  0  0  0  0  0  0  0  0  0  0  0
  180.3470   24.1390   47.7420 C   0  0  0  0  0  0  0  0  0  0  0  0
  181.3020   23.3510   48.6380 C   0  0  0  0  0  0  0  0  0  0  0  0
  180.9220   21.8720   48.6760 C   0  0  0  0  0  0  0  0  0  0  0  0
  179.4520   21.6850   49.0560 C   0  0  0  0  0  0  0  0  0  0  0  0
  178.0069   19.1984   47.6036 H   0  0  0  0  0  0  0  0  0  0  0  0
  177.3045   18.5470   46.0841 H   0  0  0  0  0  0  0  0  0  0  0  0
  178.9643   19.2337   46.0841 H   0  0  0  0  0  0  0  0  0  0  0  0
  178.2162   21.3713   45.9257 H   0  0  0  0  0  0  0  0  0  0  0  0
  176.6866   20.5833   45.3455 H   0  0  0  0  0  0  0  0  0  0  0  0
  174.7743   20.3211   46.7660 H   0  0  0  0  0  0  0  0  0  0  0  0
  173.4475   21.2750   48.6350 H   0  0  0  0  0  0  0  0  0  0  0  0
  176.3715   23.9039   53.8422 H   0  0  0  0  0  0  0  0  0  0  0  0
  175.3643   24.8357   55.9284 H   0  0  0  0  0  0  0  0  0  0  0  0
  172.8983   25.1974   56.0725 H   0  0  0  0  0  0  0  0  0  0  0  0
  170.5760   24.2530   53.6580 H   0  0  0  0  0  0  0  0  0  0  0  0
  172.5470   22.7640   48.5920 H   0  0  0  0  0  0  0  0  0  0  0  0
  176.9566   23.3422   50.0657 H   0  0  0  0  0  0  0  0  0  0  0  0
  178.2235   24.4229   47.4461 H   0  0  0  0  0  0  0  0  0  0  0  0
  178.7217   24.3025   49.1632 H   0  0  0  0  0  0  0  0  0  0  0  0
  180.4832   23.8157   46.6995 H   0  0  0  0  0  0  0  0  0  0  0  0
  180.5731   25.2104   47.8468 H   0  0  0  0  0  0  0  0  0  0  0  0
  182.3255   23.4495   48.2473 H   0  0  0  0  0  0  0  0  0  0  0  0
  181.2387   23.7555   49.6590 H   0  0  0  0  0  0  0  0  0  0  0  0
  181.0939   21.4323   47.6825 H   0  0  0  0  0  0  0  0  0  0  0  0
  181.5428   21.3736   49.4351 H   0  0  0  0  0  0  0  0  0  0  0  0
  179.1863   20.6197   48.9891 H   0  0  0  0  0  0  0  0  0  0  0  0
  179.2868   22.0338   50.0861 H   0  0  0  0  0  0  0  0  0  0  0  0
  1  2  1  0
  2  3  1  0
  3  4  2  0
  4  5  1  0
  5  6  2  0
  6  7  1  0
  7  8  1  0
  8  9  1  0
  9 10  2  0
 10 11  1  0
 11 12  2  0
 12 13  1  0
 13 14  1  0
 13 15  2  0
 15 16  1  0
 16 17  2  0
 16 18  1  0
 18 19  1  0
  6 20  1  0
 20 21  2  0
 21 22  1  0
 22 23  1  0
 23 24  1  0
 24 25  1  0
 25 26  1  0
 26 27  1  0
 21  3  1  0
 27 22  1  0
 18  7  2  0
 15  9  1  0
  1 28  1  0
  1 29  1  0
  1 30  1  0
  2 31  1  0
  2 32  1  0
  4 33  1  0
  5 34  1  0
 10 35  1  0
 11 36  1  0
 12 37  1  0
 14 38  1  0
 19 39  1  0
 20 40  1  0
 23 41  1  0
 23 42  1  0
 24 43  1  0
 24 44  1  0
 25 45  1  0
 25 46  1  0
 26 47  1  0
 26 48  1  0
 27 49  1  0
 27 50  1  0
M  END
>  <meeko>  (7) 
{"is_sidechain": [false], "free_energy": -7.449, "intermolecular_energy": -9.296, "internal_energy": -0.39}

$$$$
cand_020_out
     RDKit          3D

 50 53  0  0  0  0  0  0  0  0999 V2000
  174.3000   24.8150   55.2100 C   0  0  0  0  0  0  0  0  0  0  0  0
  175.0310   25.5570   54.1010 C   0  0  0  0  0  0  0  0  0  0  0  0
  175.4130   24.6410   52.9600 C   0  0  0  0  0  0  0  0  0  0  0  0
  176.2510   23.5450   53.2220 C   0  0  0  0  0  0  0  0  0  0  0  0
  176.6450   22.6840   52.1970 C   0  0  0  0  0  0  0  0  0  0  0  0
  176.2180   22.9000   50.8820 C   0  0  0  0  0  0  0  0  0  0  0  0
  176.6220   21.9600   49.8140 C   0  0  0  0  0  0  0  0  0  0  0  0
  177.7770   22.3610   49.1520 O   0  0  0  0  0  0  0  0  0  0  0  0
  178.2640   21.5790   48.1360 C   0  0  0  0  0  0  0  0  0  0  0  0
  179.4330   22.0110   47.5090 C   0  0  0  0  0  0  0  0  0  0  0  0
  179.9810   21.2620   46.4660 C   0  0  0  0  0  0  0  0  0  0  0  0
  179.3620   20.0820   46.0490 C   0  0  0  0  0  0  0  0  0  0  0  0
  178.1950   19.6530   46.6770 C   0  0  0  0  0  0  0  0  0  0  0  0
  177.6390   18.4910   46.2190 O   0  0  0  0  0  0  0  0  0  0  0  0
  177.6460   20.4030   47.7210 C   0  0  0  0  0  0  0  0  0  0  0  0
  176.4220   19.9880   48.4070 C   0  0  0  0  0  0  0  0  0  0  0  0
  175.8150   18.9660   48.0940 O   0  0  0  0  0  0  0  0  0  0  0  0
  175.9280   20.8490   49.5080 C   0  0  0  0  0  0  0  0  0  0  0  0
  174.7640   20.4530   50.1400 O   0  0  0  0  0  0  0  0  0  0  0  0
  175.3790   23.9940   50.6230 C   0  0  0  0  0  0  0  0  0  0  0  0
  174.9780   24.8790   51.6410 C   0  0  0  0  0  0  0  0  0  0  0  0
  174.1400   25.9880   51.3780 N   0  0  0  0  0  0  0  0  0  0  0  0
  174.7240   26.9430   50.4230 C   0  0  0  0  0  0  0  0  0  0  0  0
  173.8640   28.2060   50.3970 C   0  0  0  0  0  0  0  0  0  0  0  0
  172.4090   27.8740   50.0670 C   0  0  0  0  0  0  0  0  0  0  0  0
  171.8660   26.8020   51.0090 C   0  0  0  0  0  0  0  0  0  0  0  0
  172.7720   25.5690   51.0320 C   0  0  0  0  0  0  0  0  0  0  0  0
  174.6544   25.1747   56.1873 H   0  0  0  0  0  0  0  0  0  0  0  0
  173.2188   24.9973   55.1223 H   0  0  0  0  0  0  0  0  0  0  0  0
  174.4984   23.7366   55.1223 H   0  0  0  0  0  0  0  0  0  0  0  0
  174.3759   26.3515   53.7141 H   0  0  0  0  0  0  0  0  0  0  0  0
  175.9563   25.9741   54.5251 H   0  0  0  0  0  0  0  0  0  0  0  0
  176.6014   23.3628   54.2487 H   0  0  0  0  0  0  0  0  0  0  0  0
  177.2971   21.8279   52.4247 H   0  0  0  0  0  0  0  0  0  0  0  0
  179.9222   22.9404   47.8359 H   0  0  0  0  0  0  0  0  0  0  0  0
  180.9028   21.6024   45.9715 H   0  0  0  0  0  0  0  0  0  0  0  0
  179.7946   19.4929   45.2270 H   0  0  0  0  0  0  0  0  0  0  0  0
  177.0740   18.5040   45.4710 H   0  0  0  0  0  0  0  0  0  0  0  0
  174.0090   20.2250   49.6330 H   0  0  0  0  0  0  0  0  0  0  0  0
  175.0247   24.1648   49.5957 H   0  0  0  0  0  0  0  0  0  0  0  0
  175.7469   27.1993   50.7359 H   0  0  0  0  0  0  0  0  0  0  0  0
  174.7565   26.4937   49.4195 H   0  0  0  0  0  0  0  0  0  0  0  0
  173.9071   28.6904   51.3836 H   0  0  0  0  0  0  0  0  0  0  0  0
  174.2541   28.8785   49.6188 H   0  0  0  0  0  0  0  0  0  0  0  0
  171.8001   28.7844   50.1688 H   0  0  0  0  0  0  0  0  0  0  0  0
  172.3613   27.4922   49.0365 H   0  0  0  0  0  0  0  0  0  0  0  0
  171.8014   27.2178   52.0253 H   0  0  0  0  0  0  0  0  0  0  0  0
  170.8727   26.4954   50.6492 H   0  0  0  0  0  0  0  0  0  0  0  0
  172.4038   24.8544   51.7828 H   0  0  0  0  0  0  0  0  0  0  0  0
  172.7692   25.0863   50.0436 H   0  0  0  0  0  0  0  0  0  0  0  0
  1  2  1  0
  2  3  1  0
  3  4  2  0
  4  5  1  0
  5  6  2  0
  6  7  1  0
  7  8  1  0
  8  9  1  0
  9 10  2  0
 10 11  1  0
 11 12  2  0
 12 13  1  0
 13 14  1  0
 13 15  2  0
 15 16  1  0
 16 17  2  0
 16 18  1  0
 18 19  1  0
  6 20  1  0
 20 21  2  0
 21 22  1  0
 22 23  1  0
 23 24  1  0
 24 25  1  0
 25 26  1  0
 26 27  1  0
 21  3  1  0
 27 22  1  0
 18  7  2  0
 15  9  1  0
  1 28  1  0
  1 29  1  0
  1 30  1  0
  2 31  1  0
  2 32  1  0
  4 33  1  0
  5 34  1  0
 10 35  1  0
 11 36  1  0
 12 37  1  0
 14 38  1  0
 19 39  1  0
 20 40  1  0
 23 41  1  0
 23 42  1  0
 24 43  1  0
 24 44  1  0
 25 45  1  0
 25 46  1  0
 26 47  1  0
 26 48  1  0
 27 49  1  0
 27 50  1  0
M  END
>  <meeko>  (8) 
{"is_sidechain": [false], "free_energy": -7.339, "intermolecular_energy": -8.617, "internal_energy": -0.932}

$$$$
cand_020_out
     RDKit          3D

 50 53  0  0  0  0  0  0  0  0999 V2000
  185.8900   24.2970   49.8690 C   0  0  0  0  0  0  0  0  0  0  0  0
  185.5600   22.9100   49.3370 C   0  0  0  0  0  0  0  0  0  0  0  0
  184.0700   22.6450   49.3310 C   0  0  0  0  0  0  0  0  0  0  0  0
  183.4450   22.2670   50.5290 C   0  0  0  0  0  0  0  0  0  0  0  0
  182.0770   21.9930   50.5670 C   0  0  0  0  0  0  0  0  0  0  0  0
  181.3000   22.0830   49.4060 C   0  0  0  0  0  0  0  0  0  0  0  0
  179.8470   21.8180   49.4710 C   0  0  0  0  0  0  0  0  0  0  0  0
  179.2870   21.5700   48.2220 O   0  0  0  0  0  0  0  0  0  0  0  0
  177.9440   21.3090   48.1370 C   0  0  0  0  0  0  0  0  0  0  0  0
  177.4280   21.0520   46.8660 C   0  0  0  0  0  0  0  0  0  0  0  0
  176.0670   20.7810   46.7090 C   0  0  0  0  0  0  0  0  0  0  0  0
  175.2230   20.7660   47.8210 C   0  0  0  0  0  0  0  0  0  0  0  0
  175.7410   21.0230   49.0880 C   0  0  0  0  0  0  0  0  0  0  0  0
  174.8590   20.9940   50.1330 O   0  0  0  0  0  0  0  0  0  0  0  0
  177.1030   21.2940   49.2450 C   0  0  0  0  0  0  0  0  0  0  0  0
  177.6870   21.5700   50.5580 C   0  0  0  0  0  0  0  0  0  0  0  0
  177.0080   21.5810   51.5830 O   0  0  0  0  0  0  0  0  0  0  0  0
  179.1430   21.8370   50.6180 C   0  0  0  0  0  0  0  0  0  0  0  0
  179.6810   22.1080   51.8630 O   0  0  0  0  0  0  0  0  0  0  0  0
  181.9270   22.4630   48.2100 C   0  0  0  0  0  0  0  0  0  0  0  0
  183.3070   22.7350   48.1500 C   0  0  0  0  0  0  0  0  0  0  0  0
  183.9410   23.1090   46.9420 N   0  0  0  0  0  0  0  0  0  0  0  0
  183.5680   22.2550   45.8030 C   0  0  0  0  0  0  0  0  0  0  0  0
  184.4810   22.5810   44.6210 C   0  0  0  0  0  0  0  0  0  0  0  0
  184.4220   24.0680   44.2740 C   0  0  0  0  0  0  0  0  0  0  0  0
  184.7090   24.9280   45.5030 C   0  0  0  0  0  0  0  0  0  0  0  0
  183.7990   24.5480   46.6730 C   0  0  0  0  0  0  0  0  0  0  0  0
  185.8856   24.2785   50.9688 H   0  0  0  0  0  0  0  0  0  0  0  0
  186.8852   24.5997   49.5114 H   0  0  0  0  0  0  0  0  0  0  0  0
  185.1377   25.0155   49.5114 H   0  0  0  0  0  0  0  0  0  0  0  0
  185.9401   22.8245   48.3083 H   0  0  0  0  0  0  0  0  0  0  0  0
  186.0340   22.1704   49.9990 H   0  0  0  0  0  0  0  0  0  0  0  0
  184.0408   22.1856   51.4501 H   0  0  0  0  0  0  0  0  0  0  0  0
  181.6052   21.7038   51.5176 H   0  0  0  0  0  0  0  0  0  0  0  0
  178.0922   21.0629   45.9893 H   0  0  0  0  0  0  0  0  0  0  0  0
  175.6593   20.5790   45.7075 H   0  0  0  0  0  0  0  0  0  0  0  0
  174.1513   20.5517   47.6967 H   0  0  0  0  0  0  0  0  0  0  0  0
  175.1710   21.0800   51.0130 H   0  0  0  0  0  0  0  0  0  0  0  0
  179.1800   21.9380   52.6370 H   0  0  0  0  0  0  0  0  0  0  0  0
  181.3240   22.5508   47.2942 H   0  0  0  0  0  0  0  0  0  0  0  0
  183.6861   21.1971   46.0802 H   0  0  0  0  0  0  0  0  0  0  0  0
  182.5194   22.4391   45.5263 H   0  0  0  0  0  0  0  0  0  0  0  0
  185.5157   22.3138   44.8819 H   0  0  0  0  0  0  0  0  0  0  0  0
  184.1413   22.0047   43.7478 H   0  0  0  0  0  0  0  0  0  0  0  0
  185.1713   24.2866   43.4989 H   0  0  0  0  0  0  0  0  0  0  0  0
  183.4111   24.3033   43.9096 H   0  0  0  0  0  0  0  0  0  0  0  0
  185.7574   24.7848   45.8035 H   0  0  0  0  0  0  0  0  0  0  0  0
  184.5186   25.9797   45.2427 H   0  0  0  0  0  0  0  0  0  0  0  0
  184.0885   25.1206   47.5665 H   0  0  0  0  0  0  0  0  0  0  0  0
  182.7533   24.7775   46.4204 H   0  0  0  0  0  0  0  0  0  0  0  0
  1  2  1  0
  2  3  1  0
  3  4  2  0
  4  5  1  0
  5  6  2  0
  6  7  1  0
  7  8  1  0
  8  9  1  0
  9 10  2  0
 10 11  1  0
 11 12  2  0
 12 13  1  0
 13 14  1  0
 13 15  2  0
 15 16  1  0
 16 17  2  0
 16 18  1  0
 18 19  1  0
  6 20  1  0
 20 21  2  0
 21 22  1  0
 22 23  1  0
 23 24  1  0
 24 25  1  0
 25 26  1  0
 26 27  1  0
 21  3  1  0
 27 22  1  0
 18  7  2  0
 15  9  1  0
  1 28  1  0
  1 29  1  0
  1 30  1  0
  2 31  1  0
  2 32  1  0
  4 33  1  0
  5 34  1  0
 10 35  1  0
 11 36  1  0
 12 37  1  0
 14 38  1  0
 19 39  1  0
 20 40  1  0
 23 41  1  0
 23 42  1  0
 24 43  1  0
 24 44  1  0
 25 45  1  0
 25 46  1  0
 26 47  1  0
 26 48  1  0
 27 49  1  0
 27 50  1  0
M  END
>  <meeko>  (9) 
{"is_sidechain": [false], "free_energy": -7.318, "intermolecular_energy": -9.225, "internal_energy": -0.298}

$$$$
