cand_003_out
     RDKit          3D

 35 37  0  0  0  0  0  0  0  0999 V2000
  180.0160   14.1480   44.7580 C   0  0  0  0  0  0  0  0  0  0  0  0
  180.3490   15.5870   44.4640 C   0  0  0  0  0  0  0  0  0  0  0  0
  179.8990   16.5870   45.3470 C   0  0  0  0  0  0  0  0  0  0  0  0
  180.1900   17.9430   45.1310 C   0  0  0  0  0  0  0  0  0  0  0  0
  179.6750   18.9640   46.0680 C   0  0  0  0  0  0  0  0  0  0  0  0
  178.2870   18.9830   46.1390 O   0  0  0  0  0  0  0  0  0  0  0  0
  177.6780   19.8850   46.9730 C   0  0  0  0  0  0  0  0  0  0  0  0
  176.2830   19.8810   47.0030 C   0  0  0  0  0  0  0  0  0  0  0  0
  175.6000   20.7720   47.8330 C   0  0  0  0  0  0  0  0  0  0  0  0
  176.3120   21.6680   48.6340 C   0  0  0  0  0  0  0  0  0  0  0  0
  177.7050   21.6700   48.6040 C   0  0  0  0  0  0  0  0  0  0  0  0
  178.3380   22.5720   49.4140 O   0  0  0  0  0  0  0  0  0  0  0  0
  178.3870   20.7780   47.7710 C   0  0  0  0  0  0  0  0  0  0  0  0
  179.8490   20.7480   47.7100 C   0  0  0  0  0  0  0  0  0  0  0  0
  180.5460   21.4990   48.3900 O   0  0  0  0  0  0  0  0  0  0  0  0
  180.4760   19.7700   46.7900 C   0  0  0  0  0  0  0  0  0  0  0  0
  181.8580   19.7400   46.7490 O   0  0  0  0  0  0  0  0  0  0  0  0
  180.9310   18.2920   43.9980 C   0  0  0  0  0  0  0  0  0  0  0  0
  181.3880   17.3110   43.1140 C   0  0  0  0  0  0  0  0  0  0  0  0
  181.1090   15.9510   43.3320 C   0  0  0  0  0  0  0  0  0  0  0  0
  181.6220   14.9170   42.3530 C   0  0  0  0  0  0  0  0  0  0  0  0
  181.4470   15.2870   41.0530 F   0  0  0  0  0  0  0  0  0  0  0  0
  181.0110   13.7030   42.4730 F   0  0  0  0  0  0  0  0  0  0  0  0
  182.9550   14.6710   42.4980 F   0  0  0  0  0  0  0  0  0  0  0  0
  179.9806   13.9949   45.8467 H   0  0  0  0  0  0  0  0  0  0  0  0
  179.0371   13.9015   44.3210 H   0  0  0  0  0  0  0  0  0  0  0  0
  180.7871   13.4965   44.3210 H   0  0  0  0  0  0  0  0  0  0  0  0
  179.3053   16.2988   46.2270 H   0  0  0  0  0  0  0  0  0  0  0  0
  175.7214   19.1758   46.3727 H   0  0  0  0  0  0  0  0  0  0  0  0
  174.5003   20.7684   47.8562 H   0  0  0  0  0  0  0  0  0  0  0  0
  175.7739   22.3707   49.2872 H   0  0  0  0  0  0  0  0  0  0  0  0
  178.8990   22.2700   50.1010 H   0  0  0  0  0  0  0  0  0  0  0  0
  182.3170   18.9720   47.0270 H   0  0  0  0  0  0  0  0  0  0  0  0
  181.1567   19.3503   43.8003 H   0  0  0  0  0  0  0  0  0  0  0  0
  181.9758   17.6082   42.2330 H   0  0  0  0  0  0  0  0  0  0  0  0
  1  2  1  0
  2  3  2  0
  3  4  1  0
  4  5  1  0
  5  6  1  0
  6  7  1  0
  7  8  2  0
  8  9  1  0
  9 10  2  0
 10 11  1  0
 11 12  1  0
 11 13  2  0
 13 14  1  0
 14 15  2  0
 14 16  1  0
 16 17  1  0
  4 18  2  0
 18 19  1  0
 19 20  2  0
 20 21  1  0
 21 22  1  0
 21 23  1  0
 21 24  1  0
 20  2  1  0
 16  5  2  0
 13  7  1  0
  1 25  1  0
  1 26  1  0
  1 27  1  0
  3 28  1  0
  8 29  1  0
  9 30  1  0
 10 31  1  0
 12 32  1  0
 17 33  1  0
 18 34  1  0
 19 35  1  0
M  END
>  <meeko>  (1) 
{"is_sidechain": [false], "free_energy": -8.385, "intermolecular_energy": -9.855, "internal_energy": 0.135}

$$$$
cand_003_out
     RDKit          3D

 35 37  0  0  0  0  0  0  0  0999 V2000
  175.8250   18.9450   48.0730 C   0  0  0  0  0  0  0  0  0  0  0  0
  175.9640   20.4140   48.3710 C   0  0  0  0  0  0  0  0  0  0  0  0
  175.1700   20.9850   49.3830 C   0  0  0  0  0  0  0  0  0  0  0  0
  175.2650   22.3460   49.7130 C   0  0  0  0  0  0  0  0  0  0  0  0
  174.3930   22.9110   50.7650 C   0  0  0  0  0  0  0  0  0  0  0  0
  175.0930   23.2730   51.9100 O   0  0  0  0  0  0  0  0  0  0  0  0
  174.4020   23.8120   52.9650 C   0  0  0  0  0  0  0  0  0  0  0  0
  175.1410   24.1490   54.1010 C   0  0  0  0  0  0  0  0  0  0  0  0
  174.5000   24.7040   55.2100 C   0  0  0  0  0  0  0  0  0  0  0  0
  173.1210   24.9240   55.1840 C   0  0  0  0  0  0  0  0  0  0  0  0
  172.3860   24.5880   54.0500 C   0  0  0  0  0  0  0  0  0  0  0  0
  171.0400   24.8310   54.0910 O   0  0  0  0  0  0  0  0  0  0  0  0
  173.0280   24.0310   52.9400 C   0  0  0  0  0  0  0  0  0  0  0  0
  172.2930   23.6640   51.7290 C   0  0  0  0  0  0  0  0  0  0  0  0
  171.0800   23.8330   51.6270 O   0  0  0  0  0  0  0  0  0  0  0  0
  173.0660   23.0740   50.6110 C   0  0  0  0  0  0  0  0  0  0  0  0
  172.3650   22.7430   49.4660 O   0  0  0  0  0  0  0  0  0  0  0  0
  176.1650   23.1420   48.9980 C   0  0  0  0  0  0  0  0  0  0  0  0
  176.9630   22.5900   47.9920 C   0  0  0  0  0  0  0  0  0  0  0  0
  176.8790   21.2250   47.6670 C   0  0  0  0  0  0  0  0  0  0  0  0
  177.7610   20.6630   46.5720 C   0  0  0  0  0  0  0  0  0  0  0  0
  177.0660   20.3460   45.4440 F   0  0  0  0  0  0  0  0  0  0  0  0
  178.4150   19.5220   46.9310 F   0  0  0  0  0  0  0  0  0  0  0  0
  178.7340   21.5340   46.1810 F   0  0  0  0  0  0  0  0  0  0  0  0
  175.7718   18.3828   49.0170 H   0  0  0  0  0  0  0  0  0  0  0  0
  174.9067   18.7740   47.4921 H   0  0  0  0  0  0  0  0  0  0  0  0
  176.6950   18.6048   47.4921 H   0  0  0  0  0  0  0  0  0  0  0  0
  174.4574   20.3491   49.9288 H   0  0  0  0  0  0  0  0  0  0  0  0
  176.2273   23.9773   54.1219 H   0  0  0  0  0  0  0  0  0  0  0  0
  175.0817   24.9684   56.1054 H   0  0  0  0  0  0  0  0  0  0  0  0
  172.6164   25.3619   56.0578 H   0  0  0  0  0  0  0  0  0  0  0  0
  170.6590   25.4570   53.5080 H   0  0  0  0  0  0  0  0  0  0  0  0
  172.7600   22.1960   48.8170 H   0  0  0  0  0  0  0  0  0  0  0  0
  176.2459   24.2143   49.2297 H   0  0  0  0  0  0  0  0  0  0  0  0
  177.6680   23.2340   47.4459 H   0  0  0  0  0  0  0  0  0  0  0  0
  1  2  1  0
  2  3  2  0
  3  4  1  0
  4  5  1  0
  5  6  1  0
  6  7  1  0
  7  8  2  0
  8  9  1  0
  9 10  2  0
 10 11  1  0
 11 12  1  0
 11 13  2  0
 13 14  1  0
 14 15  2  0
 14 16  1  0
 16 17  1  0
  4 18  2  0
 18 19  1  0
 19 20  2  0
 20 21  1  0
 21 22  1  0
 21 23  1  0
 21 24  1  0
 20  2  1  0
 16  5  2  0
 13  7  1  0
  1 25  1  0
  1 26  1  0
  1 27  1  0
  3 28  1  0
  8 29  1  0
  9 30  1  0
 10 31  1  0
 12 32  1  0
 17 33  1  0
 18 34  1  0
 19 35  1  0
M  END
>  <meeko>  (2) 
{"is_sidechain": [false], "free_energy": -8.151, "intermolecular_energy": -9.144, "internal_energy": -0.301}

$$$$
cand_003_out
     RDKit          3D

 35 37  0  0  0  0  0  0  0  0999 V2000
  178.0480   19.0560   46.3230 C   0  0  0  0  0  0  0  0  0  0  0  0
  178.5150   20.2810   47.0630 C   0  0  0  0  0  0  0  0  0  0  0  0
  177.7000   20.8200   48.0760 C   0  0  0  0  0  0  0  0  0  0  0  0
  178.0900   21.9530   48.8070 C   0  0  0  0  0  0  0  0  0  0  0  0
  177.1920   22.5030   49.8450 C   0  0  0  0  0  0  0  0  0  0  0  0
  176.0960   23.1720   49.3130 O   0  0  0  0  0  0  0  0  0  0  0  0
  175.1820   23.7310   50.1690 C   0  0  0  0  0  0  0  0  0  0  0  0
  174.1040   24.4060   49.5930 C   0  0  0  0  0  0  0  0  0  0  0  0
  173.1360   24.9970   50.4070 C   0  0  0  0  0  0  0  0  0  0  0  0
  173.2440   24.9130   51.7970 C   0  0  0  0  0  0  0  0  0  0  0  0
  174.3200   24.2380   52.3700 C   0  0  0  0  0  0  0  0  0  0  0  0
  174.3630   24.1930   53.7360 O   0  0  0  0  0  0  0  0  0  0  0  0
  175.2890   23.6480   51.5540 C   0  0  0  0  0  0  0  0  0  0  0  0
  176.4350   22.9310   52.1150 C   0  0  0  0  0  0  0  0  0  0  0  0
  176.5960   22.8070   53.3270 O   0  0  0  0  0  0  0  0  0  0  0  0
  177.4100   22.3480   51.1640 C   0  0  0  0  0  0  0  0  0  0  0  0
  178.4820   21.6600   51.7040 O   0  0  0  0  0  0  0  0  0  0  0  0
  179.3130   22.5580   48.4970 C   0  0  0  0  0  0  0  0  0  0  0  0
  180.1340   22.0330   47.4960 C   0  0  0  0  0  0  0  0  0  0  0  0
  179.7530   20.8920   46.7690 C   0  0  0  0  0  0  0  0  0  0  0  0
  180.6710   20.3520   45.6930 C   0  0  0  0  0  0  0  0  0  0  0  0
  180.0720   20.2860   44.4710 F   0  0  0  0  0  0  0  0  0  0  0  0
  181.1250   19.0900   45.9460 F   0  0  0  0  0  0  0  0  0  0  0  0
  181.7880   21.1140   45.5240 F   0  0  0  0  0  0  0  0  0  0  0  0
  177.7527   18.2813   47.0459 H   0  0  0  0  0  0  0  0  0  0  0  0
  177.1858   19.3157   45.6912 H   0  0  0  0  0  0  0  0  0  0  0  0
  178.8643   18.6759   45.6912 H   0  0  0  0  0  0  0  0  0  0  0  0
  176.7349   20.3422   48.3001 H   0  0  0  0  0  0  0  0  0  0  0  0
  174.0175   24.4721   48.4984 H   0  0  0  0  0  0  0  0  0  0  0  0
  172.2872   25.5295   49.9531 H   0  0  0  0  0  0  0  0  0  0  0  0
  172.4811   25.3788   52.4381 H   0  0  0  0  0  0  0  0  0  0  0  0
  173.6780   23.7660   54.2130 H   0  0  0  0  0  0  0  0  0  0  0  0
  178.3460   20.8300   52.1160 H   0  0  0  0  0  0  0  0  0  0  0  0
  179.6312   23.4559   49.0470 H   0  0  0  0  0  0  0  0  0  0  0  0
  181.0945   22.5206   47.2731 H   0  0  0  0  0  0  0  0  0  0  0  0
  1  2  1  0
  2  3  2  0
  3  4  1  0
  4  5  1  0
  5  6  1  0
  6  7  1  0
  7  8  2  0
  8  9  1  0
  9 10  2  0
 10 11  1  0
 11 12  1  0
 11 13  2  0
 13 14  1  0
 14 15  2  0
 14 16  1  0
 16 17  1  0
  4 18  2  0
 18 19  1  0
 19 20  2  0
 20 21  1  0
 21 22  1  0
 21 23  1  0
 21 24  1  0
 20  2  1  0
 16  5  2  0
 13  7  1  0
  1 25  1  0
  1 26  1  0
  1 27  1  0
  3 28  1  0
  8 29  1  0
  9 30  1  0
 10 31  1  0
 12 32  1  0
 17 33  1  0
 18 34  1  0
 19 35  1  0
M  END
>  <meeko>  (3) 
{"is_sidechain": [false], "free_energy": -8.098, "intermolecular_energy": -8.993, "internal_energy": -0.39}

$$$$
cand_003_out
     RDKit          3D

 35 37  0  0  0  0  0  0  0  0999 V2000
  174.1820   26.4300   50.2440 C   0  0  0  0  0  0  0  0  0  0  0  0
  174.4240   24.9850   49.8990 C   0  0  0  0  0  0  0  0  0  0  0  0
  175.7330   24.4710   49.9830 C   0  0  0  0  0  0  0  0  0  0  0  0
  176.0160   23.1290   49.6860 C   0  0  0  0  0  0  0  0  0  0  0  0
  177.4080   22.6370   49.7620 C   0  0  0  0  0  0  0  0  0  0  0  0
  177.8200   21.9960   48.6000 O   0  0  0  0  0  0  0  0  0  0  0  0
  179.0930   21.4910   48.5370 C   0  0  0  0  0  0  0  0  0  0  0  0
  179.4600   20.8420   47.3570 C   0  0  0  0  0  0  0  0  0  0  0  0
  180.7430   20.3070   47.2260 C   0  0  0  0  0  0  0  0  0  0  0  0
  181.6590   20.4200   48.2740 C   0  0  0  0  0  0  0  0  0  0  0  0
  181.2910   21.0690   49.4500 C   0  0  0  0  0  0  0  0  0  0  0  0
  182.2370   21.1450   50.4350 O   0  0  0  0  0  0  0  0  0  0  0  0
  180.0060   21.6030   49.5810 C   0  0  0  0  0  0  0  0  0  0  0  0
  179.5790   22.2920   50.7990 C   0  0  0  0  0  0  0  0  0  0  0  0
  180.3300   22.4390   51.7620 O   0  0  0  0  0  0  0  0  0  0  0  0
  178.1940   22.8170   50.8400 C   0  0  0  0  0  0  0  0  0  0  0  0
  177.8050   23.4780   51.9910 O   0  0  0  0  0  0  0  0  0  0  0  0
  174.9640   22.3000   49.2820 C   0  0  0  0  0  0  0  0  0  0  0  0
  173.6600   22.7940   49.1960 C   0  0  0  0  0  0  0  0  0  0  0  0
  173.3700   24.1340   49.5040 C   0  0  0  0  0  0  0  0  0  0  0  0
  171.9440   24.6320   49.4000 C   0  0  0  0  0  0  0  0  0  0  0  0
  171.1380   23.7870   48.6980 F   0  0  0  0  0  0  0  0  0  0  0  0
  171.8330   25.8420   48.7800 F   0  0  0  0  0  0  0  0  0  0  0  0
  171.3520   24.7910   50.6180 F   0  0  0  0  0  0  0  0  0  0  0  0
  174.1623   26.5476   51.3375 H   0  0  0  0  0  0  0  0  0  0  0  0
  174.9892   27.0476   49.8233 H   0  0  0  0  0  0  0  0  0  0  0  0
  173.2176   26.7509   49.8233 H   0  0  0  0  0  0  0  0  0  0  0  0
  176.5529   25.1376   50.2887 H   0  0  0  0  0  0  0  0  0  0  0  0
  178.7391   20.7521   46.5310 H   0  0  0  0  0  0  0  0  0  0  0  0
  181.0326   19.7958   46.2961 H   0  0  0  0  0  0  0  0  0  0  0  0
  182.6693   19.9972   48.1709 H   0  0  0  0  0  0  0  0  0  0  0  0
  182.0100   21.4900   51.2770 H   0  0  0  0  0  0  0  0  0  0  0  0
  177.0500   24.0320   51.9790 H   0  0  0  0  0  0  0  0  0  0  0  0
  175.1656   21.2485   49.0295 H   0  0  0  0  0  0  0  0  0  0  0  0
  172.8469   22.1229   48.8820 H   0  0  0  0  0  0  0  0  0  0  0  0
  1  2  1  0
  2  3  2  0
  3  4  1  0
  4  5  1  0
  5  6  1  0
  6  7  1  0
  7  8  2  0
  8  9  1  0
  9 10  2  0
 10 11  1  0
 11 12  1  0
 11 13  2  0
 13 14  1  0
 14 15  2  0
 14 16  1  0
 16 17  1  0
  4 18  2  0
 18 19  1  0
 19 20  2  0
 20 21  1  0
 21 22  1  0
 21 23  1  0
 21 24  1  0
 20  2  1  0
 16  5  2  0
 13  7  1  0
  1 25  1  0
  1 26  1  0
  1 27  1  0
  3 28  1  0
  8 29  1  0
  9 30  1  0
 10 31  1  0
 12 32  1  0
 17 33  1  0
 18 34  1  0
 19 35  1  0
M  END
>  <meeko>  (4) 
{"is_sidechain": [false], "free_energy": -7.961, "intermolecular_energy": -9.157, "internal_energy": -0.065}

$$$$
cand_003_out
     RDKit          3D

 35 37  0  0  0  0  0  0  0  0999 V2000
  179.7060   14.1910   44.8380 C   0  0  0  0  0  0  0  0  0  0  0  0
  180.2090   15.5780   44.5370 C   0  0  0  0  0  0  0  0  0  0  0  0
  179.9540   16.6120   45.4580 C   0  0  0  0  0  0  0  0  0  0  0  0
  180.4080   17.9210   45.2370 C   0  0  0  0  0  0  0  0  0  0  0  0
  180.0970   18.9830   46.2170 C   0  0  0  0  0  0  0  0  0  0  0  0
  181.2300   19.4980   46.8350 O   0  0  0  0  0  0  0  0  0  0  0  0
  181.0830   20.4930   47.7680 C   0  0  0  0  0  0  0  0  0  0  0  0
  182.2450   20.9720   48.3740 C   0  0  0  0  0  0  0  0  0  0  0  0
  182.1650   21.9850   49.3310 C   0  0  0  0  0  0  0  0  0  0  0  0
  180.9240   22.5210   49.6810 C   0  0  0  0  0  0  0  0  0  0  0  0
  179.7660   22.0430   49.0740 C   0  0  0  0  0  0  0  0  0  0  0  0
  178.5850   22.6120   49.4630 O   0  0  0  0  0  0  0  0  0  0  0  0
  179.8460   21.0270   48.1180 C   0  0  0  0  0  0  0  0  0  0  0  0
  178.6540   20.4960   47.4570 C   0  0  0  0  0  0  0  0  0  0  0  0
  177.5270   20.9200   47.7050 O   0  0  0  0  0  0  0  0  0  0  0  0
  178.8460   19.4150   46.4620 C   0  0  0  0  0  0  0  0  0  0  0  0
  177.7140   18.9290   45.8330 O   0  0  0  0  0  0  0  0  0  0  0  0
  181.1150   18.1900   44.0600 C   0  0  0  0  0  0  0  0  0  0  0  0
  181.3780   17.1740   43.1380 C   0  0  0  0  0  0  0  0  0  0  0  0
  180.9350   15.8590   43.3610 C   0  0  0  0  0  0  0  0  0  0  0  0
  181.2410   14.7850   42.3390 C   0  0  0  0  0  0  0  0  0  0  0  0
  180.7600   15.0820   41.0990 F   0  0  0  0  0  0  0  0  0  0  0  0
  180.7130   13.5680   42.6540 F   0  0  0  0  0  0  0  0  0  0  0  0
  182.5780   14.5730   42.1820 F   0  0  0  0  0  0  0  0  0  0  0  0
  179.6542   14.0482   45.9275 H   0  0  0  0  0  0  0  0  0  0  0  0
  178.7038   14.0620   44.4032 H   0  0  0  0  0  0  0  0  0  0  0  0
  180.3925   13.4496   44.4032 H   0  0  0  0  0  0  0  0  0  0  0  0
  179.3853   16.3882   46.3726 H   0  0  0  0  0  0  0  0  0  0  0  0
  183.2233   20.5517   48.0978 H   0  0  0  0  0  0  0  0  0  0  0  0
  183.0808   22.3616   49.8101 H   0  0  0  0  0  0  0  0  0  0  0  0
  180.8615   23.3195   50.4350 H   0  0  0  0  0  0  0  0  0  0  0  0
  178.4530   23.5350   49.3610 H   0  0  0  0  0  0  0  0  0  0  0  0
  177.0650   18.4700   46.3270 H   0  0  0  0  0  0  0  0  0  0  0  0
  181.4675   19.2123   43.8585 H   0  0  0  0  0  0  0  0  0  0  0  0
  181.9412   17.4071   42.2223 H   0  0  0  0  0  0  0  0  0  0  0  0
  1  2  1  0
  2  3  2  0
  3  4  1  0
  4  5  1  0
  5  6  1  0
  6  7  1  0
  7  8  2  0
  8  9  1  0
  9 10  2  0
 10 11  1  0
 11 12  1  0
 11 13  2  0
 13 14  1  0
 14 15  2  0
 14 16  1  0
 16 17  1  0
  4 18  2  0
 18 19  1  0
 19 20  2  0
 20 21  1  0
 21 22  1  0
 21 23  1  0
 21 24  1  0
 20  2  1  0
 16  5  2  0
 13  7  1  0
  1 25  1  0
  1 26  1  0
  1 27  1  0
  3 28  1  0
  8 29  1  0
  9 30  1  0
 10 31  1  0
 12 32  1  0
 17 33  1  0
 18 34  1  0
 19 35  1  0
M  END
>  <meeko>  (5) 
{"is_sidechain": [false], "free_energy": -7.854, "intermolecular_energy": -9.314, "internal_energy": 0.217}

$$$$
cand_003_out
     RDKit          3D

 35 37  0  0  0  0  0  0  0  0999 V2000
  176.7600   22.8820   48.0920 C   0  0  0  0  0  0  0  0  0  0  0  0
  177.9100   21.9650   47.7720 C   0  0  0  0  0  0  0  0  0  0  0  0
  179.2090   22.3330   48.1710 C   0  0  0  0  0  0  0  0  0  0  0  0
  180.3170   21.5120   47.9110 C   0  0  0  0  0  0  0  0  0  0  0  0
  181.6680   21.9480   48.3230 C   0  0  0  0  0  0  0  0  0  0  0  0
  182.4100   22.4780   47.2730 O   0  0  0  0  0  0  0  0  0  0  0  0
  183.6840   22.9220   47.5190 C   0  0  0  0  0  0  0  0  0  0  0  0
  184.3980   23.4330   46.4350 C   0  0  0  0  0  0  0  0  0  0  0  0
  185.7000   23.9040   46.6170 C   0  0  0  0  0  0  0  0  0  0  0  0
  186.2870   23.8650   47.8830 C   0  0  0  0  0  0  0  0  0  0  0  0
  185.5730   23.3560   48.9640 C   0  0  0  0  0  0  0  0  0  0  0  0
  186.2080   23.3480   50.1760 O   0  0  0  0  0  0  0  0  0  0  0  0
  184.2700   22.8830   48.7810 C   0  0  0  0  0  0  0  0  0  0  0  0
  183.4850   22.3400   49.8900 C   0  0  0  0  0  0  0  0  0  0  0  0
  183.9300   22.2790   51.0350 O   0  0  0  0  0  0  0  0  0  0  0  0
  182.1170   21.8580   49.5890 C   0  0  0  0  0  0  0  0  0  0  0  0
  181.3780   21.3590   50.6460 O   0  0  0  0  0  0  0  0  0  0  0  0
  180.1100   20.3110   47.2250 C   0  0  0  0  0  0  0  0  0  0  0  0
  178.8260   19.9300   46.8250 C   0  0  0  0  0  0  0  0  0  0  0  0
  177.7120   20.7430   47.0940 C   0  0  0  0  0  0  0  0  0  0  0  0
  176.3370   20.2970   46.6460 C   0  0  0  0  0  0  0  0  0  0  0  0
  175.6970   21.2320   45.8890 F   0  0  0  0  0  0  0  0  0  0  0  0
  175.4900   20.0220   47.6790 F   0  0  0  0  0  0  0  0  0  0  0  0
  176.3720   19.1620   45.8910 F   0  0  0  0  0  0  0  0  0  0  0  0
  176.6522   22.9679   49.1833 H   0  0  0  0  0  0  0  0  0  0  0  0
  176.9536   23.8763   47.6633 H   0  0  0  0  0  0  0  0  0  0  0  0
  175.8337   22.4719   47.6633 H   0  0  0  0  0  0  0  0  0  0  0  0
  179.3589   23.2863   48.6989 H   0  0  0  0  0  0  0  0  0  0  0  0
  183.9357   23.4649   45.4374 H   0  0  0  0  0  0  0  0  0  0  0  0
  186.2635   24.3061   45.7621 H   0  0  0  0  0  0  0  0  0  0  0  0
  187.3126   24.2361   48.0261 H   0  0  0  0  0  0  0  0  0  0  0  0
  186.7640   24.0620   50.4170 H   0  0  0  0  0  0  0  0  0  0  0  0
  181.5080   21.6980   51.5100 H   0  0  0  0  0  0  0  0  0  0  0  0
  180.9666   19.6594   46.9978 H   0  0  0  0  0  0  0  0  0  0  0  0
  178.6854   18.9786   46.2911 H   0  0  0  0  0  0  0  0  0  0  0  0
  1  2  1  0
  2  3  2  0
  3  4  1  0
  4  5  1  0
  5  6  1  0
  6  7  1  0
  7  8  2  0
  8  9  1  0
  9 10  2  0
 10 11  1  0
 11 12  1  0
 11 13  2  0
 13 14  1  0
 14 15  2  0
 14 16  1  0
 16 17  1  0
  4 18  2  0
 18 19  1  0
 19 20  2  0
 20 21  1  0
 21 22  1  0
 21 23  1  0
 21 24  1  0
 20  2  1  0
 16  5  2  0
 13  7  1  0
  1 25  1  0
  1 26  1  0
  1 27  1  0
  3 28  1  0
  8 29  1  0
  9 30  1  0
 10 31  1  0
 12 32  1  0
 17 33  1  0
 18 34  1  0
 19 35  1  0
M  END
>  <meeko>  (6) 
{"is_sidechain": [false], "free_energy": -7.763, "intermolecular_energy": -8.615, "internal_energy": -0.375}

$$$$
cand_003_out
     RDKit          3D

 35 37  0  0  0  0  0  0  0  0999 V2000
  175.9560   20.9810   49.4940 C   0  0  0  0  0  0  0  0  0  0  0  0
  177.2180   20.8600   48.6830 C   0  0  0  0  0  0  0  0  0  0  0  0
  178.3810   21.5210   49.1230 C   0  0  0  0  0  0  0  0  0  0  0  0
  179.5890   21.4340   48.4140 C   0  0  0  0  0  0  0  0  0  0  0  0
  180.7800   22.1640   48.8970 C   0  0  0  0  0  0  0  0  0  0  0  0
  180.8780   23.4470   48.3710 O   0  0  0  0  0  0  0  0  0  0  0  0
  181.9380   24.2350   48.7390 C   0  0  0  0  0  0  0  0  0  0  0  0
  182.0050   25.5110   48.1770 C   0  0  0  0  0  0  0  0  0  0  0  0
  183.0580   26.3650   48.5100 C   0  0  0  0  0  0  0  0  0  0  0  0
  184.0440   25.9450   49.4060 C   0  0  0  0  0  0  0  0  0  0  0  0
  183.9740   24.6720   49.9670 C   0  0  0  0  0  0  0  0  0  0  0  0
  184.9710   24.3250   50.8370 O   0  0  0  0  0  0  0  0  0  0  0  0
  182.9200   23.8170   49.6310 C   0  0  0  0  0  0  0  0  0  0  0  0
  182.8100   22.4720   50.1980 C   0  0  0  0  0  0  0  0  0  0  0  0
  183.6330   22.0330   50.9980 O   0  0  0  0  0  0  0  0  0  0  0  0
  181.6590   21.6420   49.7720 C   0  0  0  0  0  0  0  0  0  0  0  0
  181.5560   20.3780   50.3230 O   0  0  0  0  0  0  0  0  0  0  0  0
  179.6160   20.6810   47.2350 C   0  0  0  0  0  0  0  0  0  0  0  0
  178.4710   20.0180   46.7860 C   0  0  0  0  0  0  0  0  0  0  0  0
  177.2630   20.0930   47.4990 C   0  0  0  0  0  0  0  0  0  0  0  0
  176.0440   19.3590   46.9820 C   0  0  0  0  0  0  0  0  0  0  0  0
  176.2910   18.6650   45.8360 F   0  0  0  0  0  0  0  0  0  0  0  0
  174.9950   20.1810   46.6930 F   0  0  0  0  0  0  0  0  0  0  0  0
  175.5600   18.4490   47.8740 F   0  0  0  0  0  0  0  0  0  0  0  0
  176.2048   20.9571   50.5652 H   0  0  0  0  0  0  0  0  0  0  0  0
  175.4561   21.9312   49.2548 H   0  0  0  0  0  0  0  0  0  0  0  0
  175.2847   20.1431   49.2548 H   0  0  0  0  0  0  0  0  0  0  0  0
  178.3416   22.1200   50.0447 H   0  0  0  0  0  0  0  0  0  0  0  0
  181.2286   25.8434   47.4722 H   0  0  0  0  0  0  0  0  0  0  0  0
  183.1113   27.3701   48.0662 H   0  0  0  0  0  0  0  0  0  0  0  0
  184.8738   26.6180   49.6679 H   0  0  0  0  0  0  0  0  0  0  0  0
  185.8440   24.6360   50.6970 H   0  0  0  0  0  0  0  0  0  0  0  0
  181.2590   19.6610   49.7990 H   0  0  0  0  0  0  0  0  0  0  0  0
  180.5483   20.6103   46.6556 H   0  0  0  0  0  0  0  0  0  0  0  0
  178.5162   19.4276   45.8590 H   0  0  0  0  0  0  0  0  0  0  0  0
  1  2  1  0
  2  3  2  0
  3  4  1  0
  4  5  1  0
  5  6  1  0
  6  7  1  0
  7  8  2  0
  8  9  1  0
  9 10  2  0
 10 11  1  0
 11 12  1  0
 11 13  2  0
 13 14  1  0
 14 15  2  0
 14 16  1  0
 16 17  1  0
  4 18  2  0
 18 19  1  0
 19 20  2  0
 20 21  1  0
 21 22  1  0
 21 23  1  0
 21 24  1  0
 20  2  1  0
 16  5  2  0
 13  7  1  0
  1 25  1  0
  1 26  1  0
  1 27  1  0
  3 28  1  0
  8 29  1  0
  9 30  1  0
 10 31  1  0
 12 32  1  0
 17 33  1  0
 18 34  1  0
 19 35  1  0
M  END
>  <meeko>  (7) 
{"is_sidechain": [false], "free_energy": -7.679, "intermolecular_energy": -8.472, "internal_energy": -0.418}

$$$$
cand_003_out
     RDKit          3D

 35 37  0  0  0  0  0  0  0  0999 V2000
  178.8930   22.6110   47.2190 C   0  0  0  0  0  0  0  0  0  0  0  0
  177.6060   22.0080   47.7140 C   0  0  0  0  0  0  0  0  0  0  0  0
  176.7770   22.7670   48.5630 C   0  0  0  0  0  0  0  0  0  0  0  0
  175.5600   22.2610   49.0460 C   0  0  0  0  0  0  0  0  0  0  0  0
  174.7330   23.0810   49.9560 C   0  0  0  0  0  0  0  0  0  0  0  0
  173.7140   23.7600   49.2980 O   0  0  0  0  0  0  0  0  0  0  0  0
  172.8700   24.5580   50.0270 C   0  0  0  0  0  0  0  0  0  0  0  0
  171.8700   25.2320   49.3250 C   0  0  0  0  0  0  0  0  0  0  0  0
  170.9760   26.0600   50.0070 C   0  0  0  0  0  0  0  0  0  0  0  0
  171.0810   26.2130   51.3910 C   0  0  0  0  0  0  0  0  0  0  0  0
  172.0790   25.5390   52.0900 C   0  0  0  0  0  0  0  0  0  0  0  0
  172.1240   25.7330   53.4430 O   0  0  0  0  0  0  0  0  0  0  0  0
  172.9740   24.7120   51.4060 C   0  0  0  0  0  0  0  0  0  0  0  0
  174.0370   23.9860   52.1030 C   0  0  0  0  0  0  0  0  0  0  0  0
  174.1900   24.0630   53.3200 O   0  0  0  0  0  0  0  0  0  0  0  0
  174.9390   23.1400   51.2860 C   0  0  0  0  0  0  0  0  0  0  0  0
  175.9310   22.4470   51.9540 O   0  0  0  0  0  0  0  0  0  0  0  0
  175.1840   20.9660   48.6780 C   0  0  0  0  0  0  0  0  0  0  0  0
  175.9940   20.2010   47.8340 C   0  0  0  0  0  0  0  0  0  0  0  0
  177.2080   20.7070   47.3390 C   0  0  0  0  0  0  0  0  0  0  0  0
  178.0580   19.8490   46.4250 C   0  0  0  0  0  0  0  0  0  0  0  0
  177.4580   18.6700   46.0980 F   0  0  0  0  0  0  0  0  0  0  0  0
  179.2640   19.5090   46.9640 F   0  0  0  0  0  0  0  0  0  0  0  0
  178.3470   20.4650   45.2440 F   0  0  0  0  0  0  0  0  0  0  0  0
  179.5154   22.9026   48.0778 H   0  0  0  0  0  0  0  0  0  0  0  0
  179.4332   21.8722   46.6087 H   0  0  0  0  0  0  0  0  0  0  0  0
  178.6711   23.4989   46.6087 H   0  0  0  0  0  0  0  0  0  0  0  0
  177.0907   23.7802   48.8544 H   0  0  0  0  0  0  0  0  0  0  0  0
  171.7860   25.1111   48.2349 H   0  0  0  0  0  0  0  0  0  0  0  0
  170.1883   26.5922   49.4535 H   0  0  0  0  0  0  0  0  0  0  0  0
  170.3764   26.8649   51.9282 H   0  0  0  0  0  0  0  0  0  0  0  0
  172.8540   25.4170   53.9380 H   0  0  0  0  0  0  0  0  0  0  0  0
  176.4090   21.7740   51.5140 H   0  0  0  0  0  0  0  0  0  0  0  0
  174.2410   20.5446   49.0565 H   0  0  0  0  0  0  0  0  0  0  0  0
  175.6760   19.1863   47.5526 H   0  0  0  0  0  0  0  0  0  0  0  0
  1  2  1  0
  2  3  2  0
  3  4  1  0
  4  5  1  0
  5  6  1  0
  6  7  1  0
  7  8  2  0
  8  9  1  0
  9 10  2  0
 10 11  1  0
 11 12  1  0
 11 13  2  0
 13 14  1  0
 14 15  2  0
 14 16  1  0
 16 17  1  0
  4 18  2  0
 18 19  1  0
 19 20  2  0
 20 21  1  0
 21 22  1  0
 21 23  1  0
 21 24  1  0
 20  2  1  0
 16  5  2  0
 13  7  1  0
  1 25  1  0
  1 26  1  0
  1 27  1  0
  3 28  1  0
  8 29  1  0
  9 30  1  0
 10 31  1  0
 12 32  1  0
 17 33  1  0
 18 34  1  0
 19 35  1  0
M  END
>  <meeko>  (8) 
{"is_sidechain": [false], "free_energy": -7.625, "intermolecular_energy": -8.429, "internal_energy": -0.398}

$$$$
cand_003_out
     RDKit          3D

 35 37  0  0  0  0  0  0  0  0999 V2000
  182.8740   25.2440   47.3730 C   0  0  0  0  0  0  0  0  0  0  0  0
  182.6250   23.9160   48.0350 C   0  0  0  0  0  0  0  0  0  0  0  0
  181.2980   23.5080   48.2730 C   0  0  0  0  0  0  0  0  0  0  0  0
  181.0050   22.2750   48.8760 C   0  0  0  0  0  0  0  0  0  0  0  0
  179.5990   21.8980   49.1320 C   0  0  0  0  0  0  0  0  0  0  0  0
  178.9030   21.5850   47.9700 O   0  0  0  0  0  0  0  0  0  0  0  0
  177.5850   21.2160   48.0660 C   0  0  0  0  0  0  0  0  0  0  0  0
  176.9200   20.9250   46.8740 C   0  0  0  0  0  0  0  0  0  0  0  0
  175.5780   20.5410   46.9000 C   0  0  0  0  0  0  0  0  0  0  0  0
  174.9000   20.4480   48.1180 C   0  0  0  0  0  0  0  0  0  0  0  0
  175.5660   20.7390   49.3060 C   0  0  0  0  0  0  0  0  0  0  0  0
  174.8440   20.6270   50.4620 O   0  0  0  0  0  0  0  0  0  0  0  0
  176.9090   21.1240   49.2790 C   0  0  0  0  0  0  0  0  0  0  0  0
  177.6460   21.4380   50.5040 C   0  0  0  0  0  0  0  0  0  0  0  0
  177.1220   21.3730   51.6140 O   0  0  0  0  0  0  0  0  0  0  0  0
  179.0640   21.8430   50.3660 C   0  0  0  0  0  0  0  0  0  0  0  0
  179.7550   22.1250   51.5300 O   0  0  0  0  0  0  0  0  0  0  0  0
  182.0690   21.4510   49.2570 C   0  0  0  0  0  0  0  0  0  0  0  0
  183.3910   21.8400   49.0250 C   0  0  0  0  0  0  0  0  0  0  0  0
  183.6890   23.0680   48.4110 C   0  0  0  0  0  0  0  0  0  0  0  0
  185.1340   23.4540   48.1760 C   0  0  0  0  0  0  0  0  0  0  0  0
  186.0130   22.6000   48.7700 F   0  0  0  0  0  0  0  0  0  0  0  0
  185.4510   24.6940   48.6490 F   0  0  0  0  0  0  0  0  0  0  0  0
  185.4640   23.4730   46.8530 F   0  0  0  0  0  0  0  0  0  0  0  0
  183.0188   26.0161   48.1430 H   0  0  0  0  0  0  0  0  0  0  0  0
  183.7754   25.1779   46.7460 H   0  0  0  0  0  0  0  0  0  0  0  0
  182.0099   25.5089   46.7460 H   0  0  0  0  0  0  0  0  0  0  0  0
  180.4715   24.1717   47.9792 H   0  0  0  0  0  0  0  0  0  0  0  0
  177.4529   20.9982   45.9145 H   0  0  0  0  0  0  0  0  0  0  0  0
  175.0539   20.3114   45.9605 H   0  0  0  0  0  0  0  0  0  0  0  0
  173.8426   20.1456   48.1386 H   0  0  0  0  0  0  0  0  0  0  0  0
  175.2460   20.2810   51.2350 H   0  0  0  0  0  0  0  0  0  0  0  0
  179.3130   22.5280   52.2510 H   0  0  0  0  0  0  0  0  0  0  0  0
  181.8630   20.4866   49.7444 H   0  0  0  0  0  0  0  0  0  0  0  0
  184.2120   21.1736   49.3282 H   0  0  0  0  0  0  0  0  0  0  0  0
  1  2  1  0
  2  3  2  0
  3  4  1  0
  4  5  1  0
  5  6  1  0
  6  7  1  0
  7  8  2  0
  8  9  1  0
  9 10  2  0
 10 11  1  0
 11 12  1  0
 11 13  2  0
 13 14  1  0
 14 15  2  0
 14 16  1  0
 16 17  1  0
  4 18  2  0
 18 19  1  0
 19 20  2  0
 20 21  1  0
 21 22  1  0
 21 23  1  0
 21 24  1  0
 20  2  1  0
 16  5  2  0
 13  7  1  0
  1 25  1  0
  1 26  1  0
  1 27  1  0
  3 28  1  0
  8 29  1  0
  9 30  1  0
 10 31  1  0
 12 32  1  0
 17 33  1  0
 18 34  1  0
 19 35  1  0
M  END
>  <meeko>  (9) 
{"is_sidechain": [false], "free_energy": -7.585, "intermolecular_energy": -8.463, "internal_energy": -0.317}

$$$$
