cand_052_out
     RDKit          3D

 44 46  0  0  0  0  0  0  0  0999 V2000
  181.5550   15.8470   39.7920 C   0  0  0  0  0  0  0  0  0  0  0  0
  180.5770   15.4260   40.8770 C   0  0  0  0  0  0  0  0  0  0  0  0
  181.1890   14.3770   41.8060 C   0  0  0  0  0  0  0  0  0  0  0  0
  182.1090   15.0250   42.8440 C   0  0  0  0  0  0  0  0  0  0  0  0
  181.3630   16.0130   43.7150 C   0  0  0  0  0  0  0  0  0  0  0  0
  181.6580   17.3780   43.5790 C   0  0  0  0  0  0  0  0  0  0  0  0
  181.0100   18.3370   44.3610 C   0  0  0  0  0  0  0  0  0  0  0  0
  180.0440   17.9590   45.2980 C   0  0  0  0  0  0  0  0  0  0  0  0
  179.3590   18.9500   46.1550 C   0  0  0  0  0  0  0  0  0  0  0  0
  177.9770   18.8030   46.1490 O   0  0  0  0  0  0  0  0  0  0  0  0
  177.2150   19.6590   46.9040 C   0  0  0  0  0  0  0  0  0  0  0  0
  175.8340   19.4660   46.8790 C   0  0  0  0  0  0  0  0  0  0  0  0
  175.0000   20.3050   47.6250 C   0  0  0  0  0  0  0  0  0  0  0  0
  175.5490   21.3340   48.3920 C   0  0  0  0  0  0  0  0  0  0  0  0
  176.9280   21.5240   48.4140 C   0  0  0  0  0  0  0  0  0  0  0  0
  177.3980   22.5510   49.1860 O   0  0  0  0  0  0  0  0  0  0  0  0
  177.7610   20.6850   47.6690 C   0  0  0  0  0  0  0  0  0  0  0  0
  179.2160   20.8490   47.6640 C   0  0  0  0  0  0  0  0  0  0  0  0
  179.7730   21.7360   48.3090 O   0  0  0  0  0  0  0  0  0  0  0  0
  180.0100   19.9020   46.8480 C   0  0  0  0  0  0  0  0  0  0  0  0
  181.3820   20.0760   46.8400 O   0  0  0  0  0  0  0  0  0  0  0  0
  179.7600   16.5920   45.4440 C   0  0  0  0  0  0  0  0  0  0  0  0
  180.4090   15.6120   44.6710 C   0  0  0  0  0  0  0  0  0  0  0  0
  180.0400   14.1670   44.8700 C   0  0  0  0  0  0  0  0  0  0  0  0
  182.4708   16.2412   40.2567 H   0  0  0  0  0  0  0  0  0  0  0  0
  181.8061   14.9773   39.1671 H   0  0  0  0  0  0  0  0  0  0  0  0
  181.0958   16.6272   39.1671 H   0  0  0  0  0  0  0  0  0  0  0  0
  180.2986   16.3097   41.4699 H   0  0  0  0  0  0  0  0  0  0  0  0
  179.6931   14.9851   40.3930 H   0  0  0  0  0  0  0  0  0  0  0  0
  180.3802   13.8436   42.3269 H   0  0  0  0  0  0  0  0  0  0  0  0
  181.7856   13.6802   41.1990 H   0  0  0  0  0  0  0  0  0  0  0  0
  182.5356   14.2378   43.4830 H   0  0  0  0  0  0  0  0  0  0  0  0
  182.9001   15.5699   42.3080 H   0  0  0  0  0  0  0  0  0  0  0  0
  182.4118   17.6981   42.8446 H   0  0  0  0  0  0  0  0  0  0  0  0
  181.2624   19.4006   44.2382 H   0  0  0  0  0  0  0  0  0  0  0  0
  175.4016   18.6556   46.2738 H   0  0  0  0  0  0  0  0  0  0  0  0
  173.9106   20.1539   47.6073 H   0  0  0  0  0  0  0  0  0  0  0  0
  174.8928   21.9940   48.9784 H   0  0  0  0  0  0  0  0  0  0  0  0
  177.2030   23.4380   48.9550 H   0  0  0  0  0  0  0  0  0  0  0  0
  181.8520   20.0530   46.0290 H   0  0  0  0  0  0  0  0  0  0  0  0
  179.0088   16.2782   46.1837 H   0  0  0  0  0  0  0  0  0  0  0  0
  179.9840   13.9478   45.9465 H   0  0  0  0  0  0  0  0  0  0  0  0
  179.0629   13.9706   44.4045 H   0  0  0  0  0  0  0  0  0  0  0  0
  180.8033   13.5262   44.4045 H   0  0  0  0  0  0  0  0  0  0  0  0
  1  2  1  0
  2  3  1  0
  3  4  1  0
  4  5  1  0
  5  6  2  0
  6  7  1  0
  7  8  2  0
  8  9  1  0
  9 10  1  0
 10 11  1  0
 11 12  2  0
 12 13  1  0
 13 14  2  0
 14 15  1  0
 15 16  1  0
 15 17  2  0
 17 18  1  0
 18 19  2  0
 18 20  1  0
 20 21  1  0
  8 22  1  0
 22 23  2  0
 23 24  1  0
 23  5  1  0
 20  9  2  0
 17 11  1  0
  1 25  1  0
  1 26  1  0
  1 27  1  0
  2 28  1  0
  2 29  1  0
  3 30  1  0
  3 31  1  0
  4 32  1  0
  4 33  1  0
  6 34  1  0
  7 35  1  0
 12 36  1  0
 13 37  1  0
 14 38  1  0
 16 39  1  0
 21 40  1  0
 22 41  1  0
 24 42  1  0
 24 43  1  0
 24 44  1  0
M  END
>  <meeko>  (1) 
{"is_sidechain": [false], "free_energy": -8.305, "intermolecular_energy": -10.732, "internal_energy": -0.316}

$$$$
cand_052_out
     RDKit          3D

 44 46  0  0  0  0  0  0  0  0999 V2000
  175.7010   20.0220   49.9090 C   0  0  0  0  0  0  0  0  0  0  0  0
  175.2950   19.7450   48.4700 C   0  0  0  0  0  0  0  0  0  0  0  0
  175.0590   21.0420   47.6950 C   0  0  0  0  0  0  0  0  0  0  0  0
  176.0380   21.1730   46.5240 C   0  0  0  0  0  0  0  0  0  0  0  0
  177.4550   21.4080   47.0010 C   0  0  0  0  0  0  0  0  0  0  0  0
  177.7580   22.6350   47.6130 C   0  0  0  0  0  0  0  0  0  0  0  0
  179.0500   22.9140   48.0660 C   0  0  0  0  0  0  0  0  0  0  0  0
  180.0740   21.9730   47.9240 C   0  0  0  0  0  0  0  0  0  0  0  0
  181.4550   22.2510   48.3720 C   0  0  0  0  0  0  0  0  0  0  0  0
  182.2780   22.6940   47.3430 O   0  0  0  0  0  0  0  0  0  0  0  0
  183.5870   22.9910   47.6210 C   0  0  0  0  0  0  0  0  0  0  0  0
  184.3720   23.4450   46.5610 C   0  0  0  0  0  0  0  0  0  0  0  0
  185.7160   23.7630   46.7750 C   0  0  0  0  0  0  0  0  0  0  0  0
  186.2730   23.6250   48.0480 C   0  0  0  0  0  0  0  0  0  0  0  0
  185.4870   23.1700   49.1040 C   0  0  0  0  0  0  0  0  0  0  0  0
  186.0960   23.0580   50.3240 O   0  0  0  0  0  0  0  0  0  0  0  0
  184.1430   22.8530   48.8890 C   0  0  0  0  0  0  0  0  0  0  0  0
  183.2820   22.3730   49.9710 C   0  0  0  0  0  0  0  0  0  0  0  0
  183.7010   22.2190   51.1170 O   0  0  0  0  0  0  0  0  0  0  0  0
  181.8690   22.0730   49.6400 C   0  0  0  0  0  0  0  0  0  0  0  0
  181.0690   21.6060   50.6670 O   0  0  0  0  0  0  0  0  0  0  0  0
  179.7740   20.7530   47.2990 C   0  0  0  0  0  0  0  0  0  0  0  0
  178.4800   20.4580   46.8300 C   0  0  0  0  0  0  0  0  0  0  0  0
  178.2280   19.1220   46.1860 C   0  0  0  0  0  0  0  0  0  0  0  0
  174.9882   19.5357   50.5912 H   0  0  0  0  0  0  0  0  0  0  0  0
  176.7104   19.6234   50.0884 H   0  0  0  0  0  0  0  0  0  0  0  0
  175.6981   21.1073   50.0884 H   0  0  0  0  0  0  0  0  0  0  0  0
  176.0953   19.1741   47.9763 H   0  0  0  0  0  0  0  0  0  0  0  0
  174.3554   19.1732   48.4804 H   0  0  0  0  0  0  0  0  0  0  0  0
  174.0305   21.0450   47.3050 H   0  0  0  0  0  0  0  0  0  0  0  0
  175.2170   21.8897   48.3779 H   0  0  0  0  0  0  0  0  0  0  0  0
  176.0106   20.2467   45.9314 H   0  0  0  0  0  0  0  0  0  0  0  0
  175.7328   22.0387   45.9178 H   0  0  0  0  0  0  0  0  0  0  0  0
  176.9660   23.3881   47.7377 H   0  0  0  0  0  0  0  0  0  0  0  0
  179.2635   23.8838   48.5391 H   0  0  0  0  0  0  0  0  0  0  0  0
  183.9337   23.5526   45.5579 H   0  0  0  0  0  0  0  0  0  0  0  0
  186.3355   24.1223   45.9400 H   0  0  0  0  0  0  0  0  0  0  0  0
  187.3308   23.8752   48.2166 H   0  0  0  0  0  0  0  0  0  0  0  0
  187.0310   23.0480   50.3820 H   0  0  0  0  0  0  0  0  0  0  0  0
  181.2060   20.7470   51.0140 H   0  0  0  0  0  0  0  0  0  0  0  0
  180.5720   20.0066   47.1721 H   0  0  0  0  0  0  0  0  0  0  0  0
  178.0843   18.3601   46.9663 H   0  0  0  0  0  0  0  0  0  0  0  0
  177.3251   19.1810   45.5604 H   0  0  0  0  0  0  0  0  0  0  0  0
  179.0903   18.8480   45.5604 H   0  0  0  0  0  0  0  0  0  0  0  0
  1  2  1  0
  2  3  1  0
  3  4  1  0
  4  5  1  0
  5  6  2  0
  6  7  1  0
  7  8  2  0
  8  9  1  0
  9 10  1  0
 10 11  1  0
 11 12  2  0
 12 13  1  0
 13 14  2  0
 14 15  1  0
 15 16  1  0
 15 17  2  0
 17 18  1  0
 18 19  2  0
 18 20  1  0
 20 21  1  0
  8 22  1  0
 22 23  2  0
 23 24  1  0
 23  5  1  0
 20  9  2  0
 17 11  1  0
  1 25  1  0
  1 26  1  0
  1 27  1  0
  2 28  1  0
  2 29  1  0
  3 30  1  0
  3 31  1  0
  4 32  1  0
  4 33  1  0
  6 34  1  0
  7 35  1  0
 12 36  1  0
 13 37  1  0
 14 38  1  0
 16 39  1  0
 21 40  1  0
 22 41  1  0
 24 42  1  0
 24 43  1  0
 24 44  1  0
M  END
>  <meeko>  (2) 
{"is_sidechain": [false], "free_energy": -7.82, "intermolecular_energy": -9.422, "internal_energy": -0.999}

$$$$
cand_052_out
     RDKit          3D

 44 46  0  0  0  0  0  0  0  0999 V2000
  175.6190   19.9670   49.5480 C   0  0  0  0  0  0  0  0  0  0  0  0
  175.0860   19.9490   48.1240 C   0  0  0  0  0  0  0  0  0  0  0  0
  176.0820   19.3030   47.1610 C   0  0  0  0  0  0  0  0  0  0  0  0
  176.7120   20.3450   46.2330 C   0  0  0  0  0  0  0  0  0  0  0  0
  178.0460   20.8300   46.7570 C   0  0  0  0  0  0  0  0  0  0  0  0
  179.1640   19.9930   46.6150 C   0  0  0  0  0  0  0  0  0  0  0  0
  180.4200   20.3810   47.0860 C   0  0  0  0  0  0  0  0  0  0  0  0
  180.5960   21.6200   47.7090 C   0  0  0  0  0  0  0  0  0  0  0  0
  181.9090   22.0460   48.2380 C   0  0  0  0  0  0  0  0  0  0  0  0
  182.7360   22.5830   47.2580 O   0  0  0  0  0  0  0  0  0  0  0  0
  183.9870   23.0210   47.6120 C   0  0  0  0  0  0  0  0  0  0  0  0
  184.7770   23.5650   46.6000 C   0  0  0  0  0  0  0  0  0  0  0  0
  186.0630   24.0290   46.8920 C   0  0  0  0  0  0  0  0  0  0  0  0
  186.5560   23.9460   48.1960 C   0  0  0  0  0  0  0  0  0  0  0  0
  185.7650   23.4020   49.2040 C   0  0  0  0  0  0  0  0  0  0  0  0
  186.3100   23.3510   50.4580 O   0  0  0  0  0  0  0  0  0  0  0  0
  184.4790   22.9390   48.9110 C   0  0  0  0  0  0  0  0  0  0  0  0
  183.6150   22.3610   49.9410 C   0  0  0  0  0  0  0  0  0  0  0  0
  183.9800   22.2480   51.1090 O   0  0  0  0  0  0  0  0  0  0  0  0
  182.2660   21.9080   49.5280 C   0  0  0  0  0  0  0  0  0  0  0  0
  181.4630   21.3500   50.5060 O   0  0  0  0  0  0  0  0  0  0  0  0
  179.4760   22.4510   47.8640 C   0  0  0  0  0  0  0  0  0  0  0  0
  178.2020   22.0730   47.4010 C   0  0  0  0  0  0  0  0  0  0  0  0
  177.0500   23.0230   47.5870 C   0  0  0  0  0  0  0  0  0  0  0  0
  174.7769   19.9386   50.2551 H   0  0  0  0  0  0  0  0  0  0  0  0
  176.2632   19.0901   49.7095 H   0  0  0  0  0  0  0  0  0  0  0  0
  176.2025   20.8854   49.7095 H   0  0  0  0  0  0  0  0  0  0  0  0
  174.1457   19.3786   48.1015 H   0  0  0  0  0  0  0  0  0  0  0  0
  174.9212   20.9885   47.8041 H   0  0  0  0  0  0  0  0  0  0  0  0
  176.8770   18.8133   47.7425 H   0  0  0  0  0  0  0  0  0  0  0  0
  175.5432   18.5685   46.5444 H   0  0  0  0  0  0  0  0  0  0  0  0
  176.8617   19.8942   45.2409 H   0  0  0  0  0  0  0  0  0  0  0  0
  176.0324   21.2081   46.1764 H   0  0  0  0  0  0  0  0  0  0  0  0
  179.0487   19.0152   46.1245 H   0  0  0  0  0  0  0  0  0  0  0  0
  181.2794   19.7050   46.9656 H   0  0  0  0  0  0  0  0  0  0  0  0
  184.3887   23.6290   45.5728 H   0  0  0  0  0  0  0  0  0  0  0  0
  186.6866   24.4595   46.0946 H   0  0  0  0  0  0  0  0  0  0  0  0
  187.5681   24.3101   48.4263 H   0  0  0  0  0  0  0  0  0  0  0  0
  186.5320   24.1430   50.9050 H   0  0  0  0  0  0  0  0  0  0  0  0
  181.8470   20.8420   51.1930 H   0  0  0  0  0  0  0  0  0  0  0  0
  179.5972   23.4247   48.3611 H   0  0  0  0  0  0  0  0  0  0  0  0
  176.8682   23.1729   48.6615 H   0  0  0  0  0  0  0  0  0  0  0  0
  177.2913   23.9882   47.1178 H   0  0  0  0  0  0  0  0  0  0  0  0
  176.1484   22.6024   47.1178 H   0  0  0  0  0  0  0  0  0  0  0  0
  1  2  1  0
  2  3  1  0
  3  4  1  0
  4  5  1  0
  5  6  2  0
  6  7  1  0
  7  8  2  0
  8  9  1  0
  9 10  1  0
 10 11  1  0
 11 12  2  0
 12 13  1  0
 13 14  2  0
 14 15  1  0
 15 16  1  0
 15 17  2  0
 17 18  1  0
 18 19  2  0
 18 20  1  0
 20 21  1  0
  8 22  1  0
 22 23  2  0
 23 24  1  0
 23  5  1  0
 20  9  2  0
 17 11  1  0
  1 25  1  0
  1 26  1  0
  1 27  1  0
  2 28  1  0
  2 29  1  0
  3 30  1  0
  3 31  1  0
  4 32  1  0
  4 33  1  0
  6 34  1  0
  7 35  1  0
 12 36  1  0
 13 37  1  0
 14 38  1  0
 16 39  1  0
 21 40  1  0
 22 41  1  0
 24 42  1  0
 24 43  1  0
 24 44  1  0
M  END
>  <meeko>  (3) 
{"is_sidechain": [false], "free_energy": -7.752, "intermolecular_energy": -9.374, "internal_energy": -0.96}

$$$$
cand_052_out
     RDKit          3D

 44 46  0  0  0  0  0  0  0  0999 V2000
  181.5340   15.8800   39.5560 C   0  0  0  0  0  0  0  0  0  0  0  0
  181.0070   14.7620   40.4420 C   0  0  0  0  0  0  0  0  0  0  0  0
  181.8460   14.6090   41.7110 C   0  0  0  0  0  0  0  0  0  0  0  0
  180.9590   14.3810   42.9380 C   0  0  0  0  0  0  0  0  0  0  0  0
  180.7520   15.6570   43.7250 C   0  0  0  0  0  0  0  0  0  0  0  0
  181.3940   16.8250   43.2840 C   0  0  0  0  0  0  0  0  0  0  0  0
  181.2490   18.0310   43.9740 C   0  0  0  0  0  0  0  0  0  0  0  0
  180.4540   18.1050   45.1210 C   0  0  0  0  0  0  0  0  0  0  0  0
  180.3020   19.3620   45.8840 C   0  0  0  0  0  0  0  0  0  0  0  0
  181.5000   20.0530   46.0300 O   0  0  0  0  0  0  0  0  0  0  0  0
  181.5020   21.2390   46.7170 C   0  0  0  0  0  0  0  0  0  0  0  0
  182.7230   21.9050   46.8270 C   0  0  0  0  0  0  0  0  0  0  0  0
  182.7960   23.1190   47.5160 C   0  0  0  0  0  0  0  0  0  0  0  0
  181.6480   23.6640   48.0950 C   0  0  0  0  0  0  0  0  0  0  0  0
  180.4310   22.9970   47.9840 C   0  0  0  0  0  0  0  0  0  0  0  0
  179.3470   23.5870   48.5750 O   0  0  0  0  0  0  0  0  0  0  0  0
  180.3590   21.7830   47.2940 C   0  0  0  0  0  0  0  0  0  0  0  0
  179.1000   21.0510   47.1530 C   0  0  0  0  0  0  0  0  0  0  0  0
  178.0490   21.4630   47.6410 O   0  0  0  0  0  0  0  0  0  0  0  0
  179.1290   19.7780   46.3960 C   0  0  0  0  0  0  0  0  0  0  0  0
  177.9370   19.0870   46.2810 O   0  0  0  0  0  0  0  0  0  0  0  0
  179.8240   16.9340   45.5700 C   0  0  0  0  0  0  0  0  0  0  0  0
  179.9660   15.7090   44.8920 C   0  0  0  0  0  0  0  0  0  0  0  0
  179.2460   14.4980   45.4220 C   0  0  0  0  0  0  0  0  0  0  0  0
  181.9187   16.6961   40.1853 H   0  0  0  0  0  0  0  0  0  0  0  0
  182.3447   15.4933   38.9209 H   0  0  0  0  0  0  0  0  0  0  0  0
  180.7198   16.2592   38.9209 H   0  0  0  0  0  0  0  0  0  0  0  0
  179.9688   14.9899   40.7254 H   0  0  0  0  0  0  0  0  0  0  0  0
  181.0613   13.8197   39.8771 H   0  0  0  0  0  0  0  0  0  0  0  0
  182.5221   13.7494   41.5925 H   0  0  0  0  0  0  0  0  0  0  0  0
  182.4190   15.5356   41.8632 H   0  0  0  0  0  0  0  0  0  0  0  0
  179.9803   14.0048   42.6053 H   0  0  0  0  0  0  0  0  0  0  0  0
  181.4601   13.6525   43.5923 H   0  0  0  0  0  0  0  0  0  0  0  0
  182.0211   16.7900   42.3809 H   0  0  0  0  0  0  0  0  0  0  0  0
  181.7658   18.9315   43.6108 H   0  0  0  0  0  0  0  0  0  0  0  0
  183.6275   21.4751   46.3719 H   0  0  0  0  0  0  0  0  0  0  0  0
  183.7581   23.6453   47.6022 H   0  0  0  0  0  0  0  0  0  0  0  0
  181.7052   24.6189   48.6380 H   0  0  0  0  0  0  0  0  0  0  0  0
  179.4310   24.4310   48.9700 H   0  0  0  0  0  0  0  0  0  0  0  0
  177.6000   18.6090   47.0140 H   0  0  0  0  0  0  0  0  0  0  0  0
  179.2023   16.9748   46.4766 H   0  0  0  0  0  0  0  0  0  0  0  0
  179.2572   14.5169   46.5218 H   0  0  0  0  0  0  0  0  0  0  0  0
  178.2053   14.5051   45.0658 H   0  0  0  0  0  0  0  0  0  0  0  0
  179.7493   13.5871   45.0658 H   0  0  0  0  0  0  0  0  0  0  0  0
  1  2  1  0
  2  3  1  0
  3  4  1  0
  4  5  1  0
  5  6  2  0
  6  7  1  0
  7  8  2  0
  8  9  1  0
  9 10  1  0
 10 11  1  0
 11 12  2  0
 12 13  1  0
 13 14  2  0
 14 15  1  0
 15 16  1  0
 15 17  2  0
 17 18  1  0
 18 19  2  0
 18 20  1  0
 20 21  1  0
  8 22  1  0
 22 23  2  0
 23 24  1  0
 23  5  1  0
 20  9  2  0
 17 11  1  0
  1 25  1  0
  1 26  1  0
  1 27  1  0
  2 28  1  0
  2 29  1  0
  3 30  1  0
  3 31  1  0
  4 32  1  0
  4 33  1  0
  6 34  1  0
  7 35  1  0
 12 36  1  0
 13 37  1  0
 14 38  1  0
 16 39  1  0
 21 40  1  0
 22 41  1  0
 24 42  1  0
 24 43  1  0
 24 44  1  0
M  END
>  <meeko>  (4) 
{"is_sidechain": [false], "free_energy": -7.674, "intermolecular_energy": -9.914, "internal_energy": -0.318}

$$$$
cand_052_out
     RDKit          3D

 44 46  0  0  0  0  0  0  0  0999 V2000
  180.4120   20.7370   47.8550 C   0  0  0  0  0  0  0  0  0  0  0  0
  179.9460   20.0160   46.6000 C   0  0  0  0  0  0  0  0  0  0  0  0
  178.4430   19.7390   46.6390 C   0  0  0  0  0  0  0  0  0  0  0  0
  177.6410   20.9770   46.2270 C   0  0  0  0  0  0  0  0  0  0  0  0
  176.8300   21.5290   47.3790 C   0  0  0  0  0  0  0  0  0  0  0  0
  175.8160   20.7270   47.9260 C   0  0  0  0  0  0  0  0  0  0  0  0
  175.0280   21.1840   48.9850 C   0  0  0  0  0  0  0  0  0  0  0  0
  175.2340   22.4540   49.5300 C   0  0  0  0  0  0  0  0  0  0  0  0
  174.4000   22.9720   50.6350 C   0  0  0  0  0  0  0  0  0  0  0  0
  175.1390   23.2710   51.7750 O   0  0  0  0  0  0  0  0  0  0  0  0
  174.4890   23.7630   52.8770 C   0  0  0  0  0  0  0  0  0  0  0  0
  175.2720   24.0620   53.9920 C   0  0  0  0  0  0  0  0  0  0  0  0
  174.6720   24.5650   55.1510 C   0  0  0  0  0  0  0  0  0  0  0  0
  173.2910   24.7660   55.1920 C   0  0  0  0  0  0  0  0  0  0  0  0
  172.5120   24.4660   54.0770 C   0  0  0  0  0  0  0  0  0  0  0  0
  171.1660   24.6860   54.1860 O   0  0  0  0  0  0  0  0  0  0  0  0
  173.1130   23.9640   52.9190 C   0  0  0  0  0  0  0  0  0  0  0  0
  172.3310   23.6360   51.7260 C   0  0  0  0  0  0  0  0  0  0  0  0
  171.1110   23.7790   51.6870 O   0  0  0  0  0  0  0  0  0  0  0  0
  173.0650   23.1170   50.5480 C   0  0  0  0  0  0  0  0  0  0  0  0
  172.3150   22.7980   49.4310 O   0  0  0  0  0  0  0  0  0  0  0  0
  176.2380   23.2610   48.9740 C   0  0  0  0  0  0  0  0  0  0  0  0
  177.0360   22.8200   47.9020 C   0  0  0  0  0  0  0  0  0  0  0  0
  178.1060   23.7340   47.3680 C   0  0  0  0  0  0  0  0  0  0  0  0
  180.0597   20.1920   48.7432 H   0  0  0  0  0  0  0  0  0  0  0  0
  181.5110   20.7828   47.8649 H   0  0  0  0  0  0  0  0  0  0  0  0
  180.0024   21.7578   47.8649 H   0  0  0  0  0  0  0  0  0  0  0  0
  180.1717   20.6415   45.7237 H   0  0  0  0  0  0  0  0  0  0  0  0
  180.4733   19.0525   46.5393 H   0  0  0  0  0  0  0  0  0  0  0  0
  178.2119   18.9153   45.9476 H   0  0  0  0  0  0  0  0  0  0  0  0
  178.1648   19.4705   47.6688 H   0  0  0  0  0  0  0  0  0  0  0  0
  178.3380   21.7531   45.8779 H   0  0  0  0  0  0  0  0  0  0  0  0
  176.9446   20.6833   45.4278 H   0  0  0  0  0  0  0  0  0  0  0  0
  175.6391   19.7225   47.5141 H   0  0  0  0  0  0  0  0  0  0  0  0
  174.2374   20.5376   49.3940 H   0  0  0  0  0  0  0  0  0  0  0  0
  176.3599   23.9024   53.9598 H   0  0  0  0  0  0  0  0  0  0  0  0
  175.2884   24.8023   56.0306 H   0  0  0  0  0  0  0  0  0  0  0  0
  172.8188   25.1608   56.1037 H   0  0  0  0  0  0  0  0  0  0  0  0
  170.7750   25.4200   53.7560 H   0  0  0  0  0  0  0  0  0  0  0  0
  171.4260   22.5190   49.5280 H   0  0  0  0  0  0  0  0  0  0  0  0
  176.4061   24.2664   49.3875 H   0  0  0  0  0  0  0  0  0  0  0  0
  178.6464   24.1956   48.2075 H   0  0  0  0  0  0  0  0  0  0  0  0
  178.8101   23.1543   46.7531 H   0  0  0  0  0  0  0  0  0  0  0  0
  177.6434   24.5201   46.7531 H   0  0  0  0  0  0  0  0  0  0  0  0
  1  2  1  0
  2  3  1  0
  3  4  1  0
  4  5  1  0
  5  6  2  0
  6  7  1  0
  7  8  2  0
  8  9  1  0
  9 10  1  0
 10 11  1  0
 11 12  2  0
 12 13  1  0
 13 14  2  0
 14 15  1  0
 15 16  1  0
 15 17  2  0
 17 18  1  0
 18 19  2  0
 18 20  1  0
 20 21  1  0
  8 22  1  0
 22 23  2  0
 23 24  1  0
 23  5  1  0
 20  9  2  0
 17 11  1  0
  1 25  1  0
  1 26  1  0
  1 27  1  0
  2 28  1  0
  2 29  1  0
  3 30  1  0
  3 31  1  0
  4 32  1  0
  4 33  1  0
  6 34  1  0
  7 35  1  0
 12 36  1  0
 13 37  1  0
 14 38  1  0
 16 39  1  0
 21 40  1  0
 22 41  1  0
 24 42  1  0
 24 43  1  0
 24 44  1  0
M  END
>  <meeko>  (5) 
{"is_sidechain": [false], "free_energy": -7.671, "intermolecular_energy": -9.483, "internal_energy": -0.745}

$$$$
cand_052_out
     RDKit          3D

 44 46  0  0  0  0  0  0  0  0999 V2000
  182.5190   21.1670   45.8770 C   0  0  0  0  0  0  0  0  0  0  0  0
  181.7640   19.9130   45.4650 C   0  0  0  0  0  0  0  0  0  0  0  0
  180.2930   20.2130   45.1780 C   0  0  0  0  0  0  0  0  0  0  0  0
  179.3720   19.3320   46.0250 C   0  0  0  0  0  0  0  0  0  0  0  0
  178.6240   20.1390   47.0650 C   0  0  0  0  0  0  0  0  0  0  0  0
  179.3330   21.1020   47.7990 C   0  0  0  0  0  0  0  0  0  0  0  0
  178.7010   21.8720   48.7780 C   0  0  0  0  0  0  0  0  0  0  0  0
  177.3400   21.7040   49.0480 C   0  0  0  0  0  0  0  0  0  0  0  0
  176.6510   22.4890   50.0940 C   0  0  0  0  0  0  0  0  0  0  0  0
  175.6850   23.3460   49.5770 O   0  0  0  0  0  0  0  0  0  0  0  0
  174.9670   24.1340   50.4390 C   0  0  0  0  0  0  0  0  0  0  0  0
  174.0000   24.9680   49.8780 C   0  0  0  0  0  0  0  0  0  0  0  0
  173.2340   25.7990   50.7010 C   0  0  0  0  0  0  0  0  0  0  0  0
  173.4370   25.7950   52.0820 C   0  0  0  0  0  0  0  0  0  0  0  0
  174.4040   24.9620   52.6390 C   0  0  0  0  0  0  0  0  0  0  0  0
  174.5510   25.0090   53.9980 O   0  0  0  0  0  0  0  0  0  0  0  0
  175.1690   24.1310   51.8150 C   0  0  0  0  0  0  0  0  0  0  0  0
  176.1940   23.2400   52.3600 C   0  0  0  0  0  0  0  0  0  0  0  0
  176.4370   23.1850   53.5640 O   0  0  0  0  0  0  0  0  0  0  0  0
  176.9450   22.3930   51.4030 C   0  0  0  0  0  0  0  0  0  0  0  0
  177.9210   21.5660   51.9270 O   0  0  0  0  0  0  0  0  0  0  0  0
  176.6340   20.7310   48.3240 C   0  0  0  0  0  0  0  0  0  0  0  0
  177.2570   19.9410   47.3400 C   0  0  0  0  0  0  0  0  0  0  0  0
  176.4330   18.9290   46.5910 C   0  0  0  0  0  0  0  0  0  0  0  0
  182.5561   21.2286   46.9746 H   0  0  0  0  0  0  0  0  0  0  0  0
  183.5430   21.1265   45.4772 H   0  0  0  0  0  0  0  0  0  0  0  0
  182.0041   22.0530   45.4772 H   0  0  0  0  0  0  0  0  0  0  0  0
  182.2278   19.4986   44.5577 H   0  0  0  0  0  0  0  0  0  0  0  0
  181.8135   19.1924   46.2946 H   0  0  0  0  0  0  0  0  0  0  0  0
  180.0908   21.2693   45.4089 H   0  0  0  0  0  0  0  0  0  0  0  0
  180.0958   20.0028   44.1164 H   0  0  0  0  0  0  0  0  0  0  0  0
  178.6433   18.8397   45.3642 H   0  0  0  0  0  0  0  0  0  0  0  0
  179.9937   18.5909   46.5488 H   0  0  0  0  0  0  0  0  0  0  0  0
  180.4043   21.2530   47.6001 H   0  0  0  0  0  0  0  0  0  0  0  0
  179.2801   22.6180   49.3421 H   0  0  0  0  0  0  0  0  0  0  0  0
  173.8403   24.9719   48.7897 H   0  0  0  0  0  0  0  0  0  0  0  0
  172.4706   26.4566   50.2598 H   0  0  0  0  0  0  0  0  0  0  0  0
  172.8341   26.4488   52.7293 H   0  0  0  0  0  0  0  0  0  0  0  0
  174.4050   25.8110   54.4580 H   0  0  0  0  0  0  0  0  0  0  0  0
  177.7180   20.6740   52.1300 H   0  0  0  0  0  0  0  0  0  0  0  0
  175.5641   20.5817   48.5314 H   0  0  0  0  0  0  0  0  0  0  0  0
  175.9063   18.2821   47.3080 H   0  0  0  0  0  0  0  0  0  0  0  0
  175.6987   19.4496   45.9587 H   0  0  0  0  0  0  0  0  0  0  0  0
  177.0917   18.3155   45.9587 H   0  0  0  0  0  0  0  0  0  0  0  0
  1  2  1  0
  2  3  1  0
  3  4  1  0
  4  5  1  0
  5  6  2  0
  6  7  1  0
  7  8  2  0
  8  9  1  0
  9 10  1  0
 10 11  1  0
 11 12  2  0
 12 13  1  0
 13 14  2  0
 14 15  1  0
 15 16  1  0
 15 17  2  0
 17 18  1  0
 18 19  2  0
 18 20  1  0
 20 21  1  0
  8 22  1  0
 22 23  2  0
 23 24  1  0
 23  5  1  0
 20  9  2  0
 17 11  1  0
  1 25  1  0
  1 26  1  0
  1 27  1  0
  2 28  1  0
  2 29  1  0
  3 30  1  0
  3 31  1  0
  4 32  1  0
  4 33  1  0
  6 34  1  0
  7 35  1  0
 12 36  1  0
 13 37  1  0
 14 38  1  0
 16 39  1  0
 21 40  1  0
 22 41  1  0
 24 42  1  0
 24 43  1  0
 24 44  1  0
M  END
>  <meeko>  (6) 
{"is_sidechain": [false], "free_energy": -7.452, "intermolecular_energy": -9.345, "internal_energy": -0.6}

$$$$
cand_052_out
     RDKit          3D

 44 46  0  0  0  0  0  0  0  0999 V2000
  180.9990   16.2150   43.8060 C   0  0  0  0  0  0  0  0  0  0  0  0
  181.1910   17.7150   43.9560 C   0  0  0  0  0  0  0  0  0  0  0  0
  180.4570   18.2550   45.1840 C   0  0  0  0  0  0  0  0  0  0  0  0
  180.4810   19.7850   45.2160 C   0  0  0  0  0  0  0  0  0  0  0  0
  179.6130   20.3370   46.3260 C   0  0  0  0  0  0  0  0  0  0  0  0
  178.3010   19.8530   46.4510 C   0  0  0  0  0  0  0  0  0  0  0  0
  177.4490   20.3290   47.4500 C   0  0  0  0  0  0  0  0  0  0  0  0
  177.8850   21.3000   48.3560 C   0  0  0  0  0  0  0  0  0  0  0  0
  176.9980   21.8390   49.4080 C   0  0  0  0  0  0  0  0  0  0  0  0
  175.7850   22.2990   48.9070 O   0  0  0  0  0  0  0  0  0  0  0  0
  174.8640   22.8250   49.7760 C   0  0  0  0  0  0  0  0  0  0  0  0
  173.6560   23.2610   49.2320 C   0  0  0  0  0  0  0  0  0  0  0  0
  172.6750   23.8090   50.0620 C   0  0  0  0  0  0  0  0  0  0  0  0
  172.9030   23.9220   51.4350 C   0  0  0  0  0  0  0  0  0  0  0  0
  174.1110   23.4860   51.9750 C   0  0  0  0  0  0  0  0  0  0  0  0
  174.2690   23.6270   53.3270 O   0  0  0  0  0  0  0  0  0  0  0  0
  175.0910   22.9370   51.1440 C   0  0  0  0  0  0  0  0  0  0  0  0
  176.3730   22.4670   51.6710 C   0  0  0  0  0  0  0  0  0  0  0  0
  176.6510   22.5390   52.8670 O   0  0  0  0  0  0  0  0  0  0  0  0
  177.3410   21.8940   50.7070 C   0  0  0  0  0  0  0  0  0  0  0  0
  178.5550   21.4660   51.2150 O   0  0  0  0  0  0  0  0  0  0  0  0
  179.1920   21.7940   48.2220 C   0  0  0  0  0  0  0  0  0  0  0  0
  180.0610   21.3310   47.2170 C   0  0  0  0  0  0  0  0  0  0  0  0
  181.4550   21.8940   47.1450 C   0  0  0  0  0  0  0  0  0  0  0  0
  180.9397   15.7515   44.8018 H   0  0  0  0  0  0  0  0  0  0  0  0
  180.0683   16.0179   43.2538 H   0  0  0  0  0  0  0  0  0  0  0  0
  181.8500   15.7898   43.2538 H   0  0  0  0  0  0  0  0  0  0  0  0
  182.2650   17.9291   44.0590 H   0  0  0  0  0  0  0  0  0  0  0  0
  180.7770   18.2065   43.0632 H   0  0  0  0  0  0  0  0  0  0  0  0
  179.4118   17.9132   45.1561 H   0  0  0  0  0  0  0  0  0  0  0  0
  180.9643   17.8802   46.0852 H   0  0  0  0  0  0  0  0  0  0  0  0
  181.5164   20.1218   45.3726 H   0  0  0  0  0  0  0  0  0  0  0  0
  180.0864   20.1535   44.2576 H   0  0  0  0  0  0  0  0  0  0  0  0
  177.9382   19.0863   45.7506 H   0  0  0  0  0  0  0  0  0  0  0  0
  176.4244   19.9358   47.5246 H   0  0  0  0  0  0  0  0  0  0  0  0
  173.4759   23.1734   48.1504 H   0  0  0  0  0  0  0  0  0  0  0  0
  171.7217   24.1519   49.6334 H   0  0  0  0  0  0  0  0  0  0  0  0
  172.1309   24.3541   52.0885 H   0  0  0  0  0  0  0  0  0  0  0  0
  174.9350   24.1920   53.6650 H   0  0  0  0  0  0  0  0  0  0  0  0
  179.1050   20.9080   50.7020 H   0  0  0  0  0  0  0  0  0  0  0  0
  179.5467   22.5646   48.9222 H   0  0  0  0  0  0  0  0  0  0  0  0
  181.8406   22.0497   48.1634 H   0  0  0  0  0  0  0  0  0  0  0  0
  182.1079   21.1891   46.6095 H   0  0  0  0  0  0  0  0  0  0  0  0
  181.4353   22.8547   46.6095 H   0  0  0  0  0  0  0  0  0  0  0  0
  1  2  1  0
  2  3  1  0
  3  4  1  0
  4  5  1  0
  5  6  2  0
  6  7  1  0
  7  8  2  0
  8  9  1  0
  9 10  1  0
 10 11  1  0
 11 12  2  0
 12 13  1  0
 13 14  2  0
 14 15  1  0
 15 16  1  0
 15 17  2  0
 17 18  1  0
 18 19  2  0
 18 20  1  0
 20 21  1  0
  8 22  1  0
 22 23  2  0
 23 24  1  0
 23  5  1  0
 20  9  2  0
 17 11  1  0
  1 25  1  0
  1 26  1  0
  1 27  1  0
  2 28  1  0
  2 29  1  0
  3 30  1  0
  3 31  1  0
  4 32  1  0
  4 33  1  0
  6 34  1  0
  7 35  1  0
 12 36  1  0
 13 37  1  0
 14 38  1  0
 16 39  1  0
 21 40  1  0
 22 41  1  0
 24 42  1  0
 24 43  1  0
 24 44  1  0
M  END
>  <meeko>  (7) 
{"is_sidechain": [false], "free_energy": -7.308, "intermolecular_energy": -9.428, "internal_energy": -0.332}

$$$$
cand_052_out
     RDKit          3D

 44 46  0  0  0  0  0  0  0  0999 V2000
  181.5870   20.1290   47.5680 C   0  0  0  0  0  0  0  0  0  0  0  0
  180.9980   19.8340   46.1990 C   0  0  0  0  0  0  0  0  0  0  0  0
  179.5170   19.4640   46.2930 C   0  0  0  0  0  0  0  0  0  0  0  0
  178.6240   20.6710   45.9910 C   0  0  0  0  0  0  0  0  0  0  0  0
  177.9720   21.2130   47.2450 C   0  0  0  0  0  0  0  0  0  0  0  0
  176.8900   20.5070   47.7930 C   0  0  0  0  0  0  0  0  0  0  0  0
  176.2410   20.9620   48.9430 C   0  0  0  0  0  0  0  0  0  0  0  0
  176.6580   22.1340   49.5810 C   0  0  0  0  0  0  0  0  0  0  0  0
  175.9750   22.6500   50.7860 C   0  0  0  0  0  0  0  0  0  0  0  0
  174.6470   22.9890   50.5500 O   0  0  0  0  0  0  0  0  0  0  0  0
  173.8930   23.4810   51.5840 C   0  0  0  0  0  0  0  0  0  0  0  0
  172.5630   23.7940   51.3050 C   0  0  0  0  0  0  0  0  0  0  0  0
  171.7400   24.3020   52.3140 C   0  0  0  0  0  0  0  0  0  0  0  0
  172.2490   24.4980   53.5990 C   0  0  0  0  0  0  0  0  0  0  0  0
  173.5780   24.1850   53.8740 C   0  0  0  0  0  0  0  0  0  0  0  0
  174.0120   24.4020   55.1540 O   0  0  0  0  0  0  0  0  0  0  0  0
  174.4000   23.6770   52.8650 C   0  0  0  0  0  0  0  0  0  0  0  0
  175.8020   23.3350   53.1120 C   0  0  0  0  0  0  0  0  0  0  0  0
  176.3240   23.4850   54.2150 O   0  0  0  0  0  0  0  0  0  0  0  0
  176.5850   22.7940   51.9760 C   0  0  0  0  0  0  0  0  0  0  0  0
  177.9120   22.4880   52.2170 O   0  0  0  0  0  0  0  0  0  0  0  0
  177.7310   22.8470   49.0250 C   0  0  0  0  0  0  0  0  0  0  0  0
  178.3910   22.4070   47.8620 C   0  0  0  0  0  0  0  0  0  0  0  0
  179.5440   23.2150   47.3320 C   0  0  0  0  0  0  0  0  0  0  0  0
  180.8936   19.7817   48.3481 H   0  0  0  0  0  0  0  0  0  0  0  0
  182.5492   19.6064   47.6736 H   0  0  0  0  0  0  0  0  0  0  0  0
  181.7447   21.2125   47.6736 H   0  0  0  0  0  0  0  0  0  0  0  0
  181.1037   20.7265   45.5647 H   0  0  0  0  0  0  0  0  0  0  0  0
  181.5401   18.9797   45.7672 H   0  0  0  0  0  0  0  0  0  0  0  0
  179.2997   18.6665   45.5672 H   0  0  0  0  0  0  0  0  0  0  0  0
  179.3075   19.1237   47.3178 H   0  0  0  0  0  0  0  0  0  0  0  0
  179.2372   21.4634   45.5371 H   0  0  0  0  0  0  0  0  0  0  0  0
  177.8287   20.3457   45.3042 H   0  0  0  0  0  0  0  0  0  0  0  0
  176.5476   19.5804   47.3091 H   0  0  0  0  0  0  0  0  0  0  0  0
  175.3930   20.3923   49.3509 H   0  0  0  0  0  0  0  0  0  0  0  0
  172.1621   23.6413   50.2921 H   0  0  0  0  0  0  0  0  0  0  0  0
  170.6903   24.5476   52.0954 H   0  0  0  0  0  0  0  0  0  0  0  0
  171.6017   24.8989   54.3929 H   0  0  0  0  0  0  0  0  0  0  0  0
  173.9120   25.2470   55.5450 H   0  0  0  0  0  0  0  0  0  0  0  0
  178.3560   22.8740   52.9460 H   0  0  0  0  0  0  0  0  0  0  0  0
  178.0656   23.7752   49.5112 H   0  0  0  0  0  0  0  0  0  0  0  0
  180.1242   23.6216   48.1734 H   0  0  0  0  0  0  0  0  0  0  0  0
  180.1909   22.5716   46.7175 H   0  0  0  0  0  0  0  0  0  0  0  0
  179.1600   24.0426   46.7175 H   0  0  0  0  0  0  0  0  0  0  0  0
  1  2  1  0
  2  3  1  0
  3  4  1  0
  4  5  1  0
  5  6  2  0
  6  7  1  0
  7  8  2  0
  8  9  1  0
  9 10  1  0
 10 11  1  0
 11 12  2  0
 12 13  1  0
 13 14  2  0
 14 15  1  0
 15 16  1  0
 15 17  2  0
 17 18  1  0
 18 19  2  0
 18 20  1  0
 20 21  1  0
  8 22  1  0
 22 23  2  0
 23 24  1  0
 23  5  1  0
 20  9  2  0
 17 11  1  0
  1 25  1  0
  1 26  1  0
  1 27  1  0
  2 28  1  0
  2 29  1  0
  3 30  1  0
  3 31  1  0
  4 32  1  0
  4 33  1  0
  6 34  1  0
  7 35  1  0
 12 36  1  0
 13 37  1  0
 14 38  1  0
 16 39  1  0
 21 40  1  0
 22 41  1  0
 24 42  1  0
 24 43  1  0
 24 44  1  0
M  END
>  <meeko>  (8) 
{"is_sidechain": [false], "free_energy": -7.221, "intermolecular_energy": -8.845, "internal_energy": -0.802}

$$$$
cand_052_out
     RDKit          3D

 44 46  0  0  0  0  0  0  0  0999 V2000
  184.1640   22.6810   45.1620 C   0  0  0  0  0  0  0  0  0  0  0  0
  184.7130   23.8910   45.9000 C   0  0  0  0  0  0  0  0  0  0  0  0
  185.5010   23.4790   47.1440 C   0  0  0  0  0  0  0  0  0  0  0  0
  184.9000   24.0950   48.4100 C   0  0  0  0  0  0  0  0  0  0  0  0
  183.4890   23.6060   48.6570 C   0  0  0  0  0  0  0  0  0  0  0  0
  183.2890   22.2370   48.8950 C   0  0  0  0  0  0  0  0  0  0  0  0
  182.0090   21.7240   49.1200 C   0  0  0  0  0  0  0  0  0  0  0  0
  180.8930   22.5660   49.1180 C   0  0  0  0  0  0  0  0  0  0  0  0
  179.5260   22.0470   49.3300 C   0  0  0  0  0  0  0  0  0  0  0  0
  178.8410   21.8280   48.1400 O   0  0  0  0  0  0  0  0  0  0  0  0
  177.5590   21.3450   48.1910 C   0  0  0  0  0  0  0  0  0  0  0  0
  176.9150   21.1280   46.9730 C   0  0  0  0  0  0  0  0  0  0  0  0
  175.6060   20.6380   46.9530 C   0  0  0  0  0  0  0  0  0  0  0  0
  174.9430   20.3680   48.1520 C   0  0  0  0  0  0  0  0  0  0  0  0
  175.5880   20.5870   49.3660 C   0  0  0  0  0  0  0  0  0  0  0  0
  174.8800   20.3020   50.5020 O   0  0  0  0  0  0  0  0  0  0  0  0
  176.8970   21.0760   49.3850 C   0  0  0  0  0  0  0  0  0  0  0  0
  177.6110   21.3190   50.6390 C   0  0  0  0  0  0  0  0  0  0  0  0
  177.0920   21.1120   51.7350 O   0  0  0  0  0  0  0  0  0  0  0  0
  178.9990   21.8300   50.5490 C   0  0  0  0  0  0  0  0  0  0  0  0
  179.6590   22.0700   51.7410 O   0  0  0  0  0  0  0  0  0  0  0  0
  181.0920   23.9320   48.8660 C   0  0  0  0  0  0  0  0  0  0  0  0
  182.3730   24.4650   48.6300 C   0  0  0  0  0  0  0  0  0  0  0  0
  182.5110   25.9430   48.3830 C   0  0  0  0  0  0  0  0  0  0  0  0
  183.8235   21.9305   45.8906 H   0  0  0  0  0  0  0  0  0  0  0  0
  183.3177   22.9895   44.5306 H   0  0  0  0  0  0  0  0  0  0  0  0
  184.9535   22.2473   44.5306 H   0  0  0  0  0  0  0  0  0  0  0  0
  185.3775   24.4501   45.2249 H   0  0  0  0  0  0  0  0  0  0  0  0
  183.8648   24.5143   46.2196 H   0  0  0  0  0  0  0  0  0  0  0  0
  185.4814   22.3829   47.2343 H   0  0  0  0  0  0  0  0  0  0  0  0
  186.5341   23.8413   47.0374 H   0  0  0  0  0  0  0  0  0  0  0  0
  185.5274   23.8221   49.2713 H   0  0  0  0  0  0  0  0  0  0  0  0
  184.8655   25.1863   48.2764 H   0  0  0  0  0  0  0  0  0  0  0  0
  184.1538   21.5573   48.9045 H   0  0  0  0  0  0  0  0  0  0  0  0
  181.8781   20.6468   49.3005 H   0  0  0  0  0  0  0  0  0  0  0  0
  177.4369   21.3423   46.0287 H   0  0  0  0  0  0  0  0  0  0  0  0
  175.0981   20.4651   45.9927 H   0  0  0  0  0  0  0  0  0  0  0  0
  173.9127   19.9829   48.1372 H   0  0  0  0  0  0  0  0  0  0  0  0
  173.9470   20.2290   50.4660 H   0  0  0  0  0  0  0  0  0  0  0  0
  180.2380   22.8030   51.8160 H   0  0  0  0  0  0  0  0  0  0  0  0
  180.2222   24.6052   48.8525 H   0  0  0  0  0  0  0  0  0  0  0  0
  182.5605   26.4726   49.3458 H   0  0  0  0  0  0  0  0  0  0  0  0
  183.4310   26.1349   47.8113 H   0  0  0  0  0  0  0  0  0  0  0  0
  181.6425   26.3019   47.8113 H   0  0  0  0  0  0  0  0  0  0  0  0
  1  2  1  0
  2  3  1  0
  3  4  1  0
  4  5  1  0
  5  6  2  0
  6  7  1  0
  7  8  2  0
  8  9  1  0
  9 10  1  0
 10 11  1  0
 11 12  2  0
 12 13  1  0
 13 14  2  0
 14 15  1  0
 15 16  1  0
 15 17  2  0
 17 18  1  0
 18 19  2  0
 18 20  1  0
 20 21  1  0
  8 22  1  0
 22 23  2  0
 23 24  1  0
 23  5  1  0
 20  9  2  0
 17 11  1  0
  1 25  1  0
  1 26  1  0
  1 27  1  0
  2 28  1  0
  2 29  1  0
  3 30  1  0
  3 31  1  0
  4 32  1  0
  4 33  1  0
  6 34  1  0
  7 35  1  0
 12 36  1  0
 13 37  1  0
 14 38  1  0
 16 39  1  0
 21 40  1  0
 22 41  1  0
 24 42  1  0
 24 43  1  0
 24 44  1  0
M  END
>  <meeko>  (9) 
{"is_sidechain": [false], "free_energy": -7.145, "intermolecular_energy": -8.545, "internal_energy": -1.004}

$$$$
