cand_041_out
     RDKit          3D

 47 49  0  0  0  0  0  0  0  0999 V2000
  176.4030   18.2430   46.2250 C   0  0  0  0  0  0  0  0  0  0  0  0
  176.3340   19.3400   47.2510 C   0  0  0  0  0  0  0  0  0  0  0  0
  175.2250   19.4020   48.1070 C   0  0  0  0  0  0  0  0  0  0  0  0
  175.1200   20.4000   49.0790 C   0  0  0  0  0  0  0  0  0  0  0  0
  176.1200   21.3660   49.2220 C   0  0  0  0  0  0  0  0  0  0  0  0
  176.0010   22.4020   50.2700 C   0  0  0  0  0  0  0  0  0  0  0  0
  175.4950   23.6040   49.7890 O   0  0  0  0  0  0  0  0  0  0  0  0
  175.3330   24.6520   50.6580 C   0  0  0  0  0  0  0  0  0  0  0  0
  174.8080   25.8340   50.1340 C   0  0  0  0  0  0  0  0  0  0  0  0
  174.6190   26.9410   50.9650 C   0  0  0  0  0  0  0  0  0  0  0  0
  174.9570   26.8650   52.3180 C   0  0  0  0  0  0  0  0  0  0  0  0
  175.4810   25.6850   52.8380 C   0  0  0  0  0  0  0  0  0  0  0  0
  175.7900   25.6800   54.1700 O   0  0  0  0  0  0  0  0  0  0  0  0
  175.6690   24.5780   52.0060 C   0  0  0  0  0  0  0  0  0  0  0  0
  176.2170   23.3180   52.5120 C   0  0  0  0  0  0  0  0  0  0  0  0
  176.5440   23.1760   53.6880 O   0  0  0  0  0  0  0  0  0  0  0  0
  176.3690   22.2010   51.5500 C   0  0  0  0  0  0  0  0  0  0  0  0
  176.8990   21.0210   52.0360 O   0  0  0  0  0  0  0  0  0  0  0  0
  177.2390   21.2930   48.3800 C   0  0  0  0  0  0  0  0  0  0  0  0
  177.3630   20.2920   47.3960 C   0  0  0  0  0  0  0  0  0  0  0  0
  178.5920   20.3070   46.5090 C   0  0  0  0  0  0  0  0  0  0  0  0
  179.8880   20.3370   47.3380 C   0  0  0  0  0  0  0  0  0  0  0  0
  181.0300   19.6870   46.6630 N   0  0  0  0  0  0  0  0  0  0  0  0
  181.9660   20.6660   46.1070 C   0  0  0  0  0  0  0  0  0  0  0  0
  180.5420   18.8120   45.5930 C   0  0  0  0  0  0  0  0  0  0  0  0
  176.4642   17.2692   46.7329 H   0  0  0  0  0  0  0  0  0  0  0  0
  175.5012   18.2722   45.5957 H   0  0  0  0  0  0  0  0  0  0  0  0
  177.2940   18.3850   45.5957 H   0  0  0  0  0  0  0  0  0  0  0  0
  174.4251   18.6530   48.0116 H   0  0  0  0  0  0  0  0  0  0  0  0
  174.2405   20.4258   49.7391 H   0  0  0  0  0  0  0  0  0  0  0  0
  174.5433   25.8940   49.0680 H   0  0  0  0  0  0  0  0  0  0  0  0
  174.2038   27.8728   50.5535 H   0  0  0  0  0  0  0  0  0  0  0  0
  174.8092   27.7369   52.9721 H   0  0  0  0  0  0  0  0  0  0  0  0
  175.9610   26.4860   54.6140 H   0  0  0  0  0  0  0  0  0  0  0  0
  177.7940   20.9880   52.3120 H   0  0  0  0  0  0  0  0  0  0  0  0
  178.0415   22.0371   48.4906 H   0  0  0  0  0  0  0  0  0  0  0  0
  178.5904   19.4036   45.8814 H   0  0  0  0  0  0  0  0  0  0  0  0
  178.5584   21.2154   45.8896 H   0  0  0  0  0  0  0  0  0  0  0  0
  180.1512   21.3865   47.5362 H   0  0  0  0  0  0  0  0  0  0  0  0
  179.6949   19.7754   48.2639 H   0  0  0  0  0  0  0  0  0  0  0  0
  181.5320   19.1380   47.3620 H   0  0  0  0  0  0  0  0  0  0  0  0
  182.4726   21.1958   46.9272 H   0  0  0  0  0  0  0  0  0  0  0  0
  182.7135   20.1482   45.4881 H   0  0  0  0  0  0  0  0  0  0  0  0
  181.4152   21.3895   45.4881 H   0  0  0  0  0  0  0  0  0  0  0  0
  180.0512   17.9320   46.0342 H   0  0  0  0  0  0  0  0  0  0  0  0
  179.8199   19.3612   44.9709 H   0  0  0  0  0  0  0  0  0  0  0  0
  181.3887   18.4862   44.9709 H   0  0  0  0  0  0  0  0  0  0  0  0
  1  2  1  0
  2  3  2  0
  3  4  1  0
  4  5  2  0
  5  6  1  0
  6  7  1  0
  7  8  1  0
  8  9  2  0
  9 10  1  0
 10 11  2  0
 11 12  1  0
 12 13  1  0
 12 14  2  0
 14 15  1  0
 15 16  2  0
 15 17  1  0
 17 18  1  0
  5 19  1  0
 19 20  2  0
 20 21  1  0
 21 22  1  0
 22 23  1  0
 23 24  1  0
 23 25  1  0
 20  2  1  0
 17  6  2  0
 14  8  1  0
  1 26  1  0
  1 27  1  0
  1 28  1  0
  3 29  1  0
  4 30  1  0
  9 31  1  0
 10 32  1  0
 11 33  1  0
 13 34  1  0
 18 35  1  0
 19 36  1  0
 21 37  1  0
 21 38  1  0
 22 39  1  0
 22 40  1  0
 23 41  1  0
 24 42  1  0
 24 43  1  0
 24 44  1  0
 25 45  1  0
 25 46  1  0
 25 47  1  0
M  CHG  1  23   1
M  END
>  <meeko>  (1) 
{"is_sidechain": [false], "free_energy": -7.239, "intermolecular_energy": -9.355, "internal_energy": -0.552}

$$$$
cand_041_out
     RDKit          3D

 47 49  0  0  0  0  0  0  0  0999 V2000
  180.6130   19.3180   45.0750 C   0  0  0  0  0  0  0  0  0  0  0  0
  179.7690   19.9630   46.1400 C   0  0  0  0  0  0  0  0  0  0  0  0
  178.4490   19.5220   46.3210 C   0  0  0  0  0  0  0  0  0  0  0  0
  177.6300   20.0880   47.3010 C   0  0  0  0  0  0  0  0  0  0  0  0
  178.1050   21.1120   48.1260 C   0  0  0  0  0  0  0  0  0  0  0  0
  177.2290   21.6830   49.1710 C   0  0  0  0  0  0  0  0  0  0  0  0
  175.9780   22.0490   48.6880 O   0  0  0  0  0  0  0  0  0  0  0  0
  175.0650   22.5940   49.5540 C   0  0  0  0  0  0  0  0  0  0  0  0
  173.8170   22.9320   49.0290 C   0  0  0  0  0  0  0  0  0  0  0  0
  172.8420   23.4930   49.8560 C   0  0  0  0  0  0  0  0  0  0  0  0
  173.1160   23.7170   51.2070 C   0  0  0  0  0  0  0  0  0  0  0  0
  174.3610   23.3790   51.7290 C   0  0  0  0  0  0  0  0  0  0  0  0
  174.5620   23.6250   53.0590 O   0  0  0  0  0  0  0  0  0  0  0  0
  175.3360   22.8170   50.9000 C   0  0  0  0  0  0  0  0  0  0  0  0
  176.6580   22.4470   51.4070 C   0  0  0  0  0  0  0  0  0  0  0  0
  176.9770   22.6190   52.5820 O   0  0  0  0  0  0  0  0  0  0  0  0
  177.6180   21.8500   50.4490 C   0  0  0  0  0  0  0  0  0  0  0  0
  178.8680   21.5170   50.9370 O   0  0  0  0  0  0  0  0  0  0  0  0
  179.4300   21.5390   47.9590 C   0  0  0  0  0  0  0  0  0  0  0  0
  180.2710   20.9780   46.9780 C   0  0  0  0  0  0  0  0  0  0  0  0
  181.6800   21.5220   46.8450 C   0  0  0  0  0  0  0  0  0  0  0  0
  182.5360   21.1810   48.0780 C   0  0  0  0  0  0  0  0  0  0  0  0
  183.7550   22.0080   48.1910 N   0  0  0  0  0  0  0  0  0  0  0  0
  183.8940   22.5970   49.5250 C   0  0  0  0  0  0  0  0  0  0  0  0
  183.7280   23.0730   47.1840 C   0  0  0  0  0  0  0  0  0  0  0  0
  181.4022   18.7149   45.5478 H   0  0  0  0  0  0  0  0  0  0  0  0
  179.9817   18.6701   44.4492 H   0  0  0  0  0  0  0  0  0  0  0  0
  181.0724   20.0973   44.4492 H   0  0  0  0  0  0  0  0  0  0  0  0
  178.0535   18.7189   45.6818 H   0  0  0  0  0  0  0  0  0  0  0  0
  176.5995   19.7238   47.4250 H   0  0  0  0  0  0  0  0  0  0  0  0
  173.6016   22.7566   47.9646 H   0  0  0  0  0  0  0  0  0  0  0  0
  171.8576   23.7587   49.4433 H   0  0  0  0  0  0  0  0  0  0  0  0
  172.3482   24.1603   51.8581 H   0  0  0  0  0  0  0  0  0  0  0  0
  175.4320   23.7210   53.3910 H   0  0  0  0  0  0  0  0  0  0  0  0
  179.0500   20.6360   51.1960 H   0  0  0  0  0  0  0  0  0  0  0  0
  179.8231   22.3329   48.6111 H   0  0  0  0  0  0  0  0  0  0  0  0
  182.1494   21.0837   45.9519 H   0  0  0  0  0  0  0  0  0  0  0  0
  181.6201   22.6170   46.7590 H   0  0  0  0  0  0  0  0  0  0  0  0
  181.9254   21.3344   48.9800 H   0  0  0  0  0  0  0  0  0  0  0  0
  182.8608   20.1357   47.9696 H   0  0  0  0  0  0  0  0  0  0  0  0
  184.5590   21.3980   48.0340 H   0  0  0  0  0  0  0  0  0  0  0  0
  183.7119   21.8252   50.2874 H   0  0  0  0  0  0  0  0  0  0  0  0
  184.9114   22.9978   49.6447 H   0  0  0  0  0  0  0  0  0  0  0  0
  183.1631   23.4103   49.6447 H   0  0  0  0  0  0  0  0  0  0  0  0
  183.7032   24.0516   47.6858 H   0  0  0  0  0  0  0  0  0  0  0  0
  184.6281   23.0061   46.5553 H   0  0  0  0  0  0  0  0  0  0  0  0
  182.8324   22.9605   46.5553 H   0  0  0  0  0  0  0  0  0  0  0  0
  1  2  1  0
  2  3  2  0
  3  4  1  0
  4  5  2  0
  5  6  1  0
  6  7  1  0
  7  8  1  0
  8  9  2  0
  9 10  1  0
 10 11  2  0
 11 12  1  0
 12 13  1  0
 12 14  2  0
 14 15  1  0
 15 16  2  0
 15 17  1  0
 17 18  1  0
  5 19  1  0
 19 20  2  0
 20 21  1  0
 21 22  1  0
 22 23  1  0
 23 24  1  0
 23 25  1  0
 20  2  1  0
 17  6  2  0
 14  8  1  0
  1 26  1  0
  1 27  1  0
  1 28  1  0
  3 29  1  0
  4 30  1  0
  9 31  1  0
 10 32  1  0
 11 33  1  0
 13 34  1  0
 18 35  1  0
 19 36  1  0
 21 37  1  0
 21 38  1  0
 22 39  1  0
 22 40  1  0
 23 41  1  0
 24 42  1  0
 24 43  1  0
 24 44  1  0
 25 45  1  0
 25 46  1  0
 25 47  1  0
M  CHG  1  23   1
M  END
>  <meeko>  (2) 
{"is_sidechain": [false], "free_energy": -7.114, "intermolecular_energy": -9.463, "internal_energy": -0.284}

$$$$
cand_041_out
     RDKit          3D

 47 49  0  0  0  0  0  0  0  0999 V2000
  176.9900   19.7380   46.2160 C   0  0  0  0  0  0  0  0  0  0  0  0
  178.2620   20.3280   46.7610 C   0  0  0  0  0  0  0  0  0  0  0  0
  179.4680   19.6360   46.5720 C   0  0  0  0  0  0  0  0  0  0  0  0
  180.6740   20.1470   47.0560 C   0  0  0  0  0  0  0  0  0  0  0  0
  180.7110   21.3630   47.7450 C   0  0  0  0  0  0  0  0  0  0  0  0
  182.0010   21.8970   48.2310 C   0  0  0  0  0  0  0  0  0  0  0  0
  182.7140   22.5690   47.2460 O   0  0  0  0  0  0  0  0  0  0  0  0
  183.9320   23.1150   47.5620 C   0  0  0  0  0  0  0  0  0  0  0  0
  184.6050   23.7940   46.5470 C   0  0  0  0  0  0  0  0  0  0  0  0
  185.8510   24.3720   46.8020 C   0  0  0  0  0  0  0  0  0  0  0  0
  186.4220   24.2690   48.0720 C   0  0  0  0  0  0  0  0  0  0  0  0
  185.7480   23.5920   49.0840 C   0  0  0  0  0  0  0  0  0  0  0  0
  186.3650   23.5290   50.3040 O   0  0  0  0  0  0  0  0  0  0  0  0
  184.5010   23.0140   48.8280 C   0  0  0  0  0  0  0  0  0  0  0  0
  183.7590   22.2920   49.8630 C   0  0  0  0  0  0  0  0  0  0  0  0
  184.1980   22.1540   51.0030 O   0  0  0  0  0  0  0  0  0  0  0  0
  182.4420   21.7240   49.4920 C   0  0  0  0  0  0  0  0  0  0  0  0
  181.7560   21.0340   50.4740 O   0  0  0  0  0  0  0  0  0  0  0  0
  179.5090   22.0640   47.9170 C   0  0  0  0  0  0  0  0  0  0  0  0
  178.2840   21.5660   47.4340 C   0  0  0  0  0  0  0  0  0  0  0  0
  177.0280   22.3750   47.6910 C   0  0  0  0  0  0  0  0  0  0  0  0
  176.7080   22.4600   49.1940 C   0  0  0  0  0  0  0  0  0  0  0  0
  176.7170   21.1460   49.8700 N   0  0  0  0  0  0  0  0  0  0  0  0
  175.4580   20.4230   49.6780 C   0  0  0  0  0  0  0  0  0  0  0  0
  176.9660   21.3280   51.3040 C   0  0  0  0  0  0  0  0  0  0  0  0
  176.3391   19.4361   47.0498 H   0  0  0  0  0  0  0  0  0  0  0  0
  176.4725   20.4880   45.5998 H   0  0  0  0  0  0  0  0  0  0  0  0
  177.2283   18.8585   45.5998 H   0  0  0  0  0  0  0  0  0  0  0  0
  179.4633   18.6764   46.0344 H   0  0  0  0  0  0  0  0  0  0  0  0
  181.6061   19.5861   46.8932 H   0  0  0  0  0  0  0  0  0  0  0  0
  184.1552   23.8745   45.5464 H   0  0  0  0  0  0  0  0  0  0  0  0
  186.3824   24.9084   46.0021 H   0  0  0  0  0  0  0  0  0  0  0  0
  187.4038   24.7226   48.2725 H   0  0  0  0  0  0  0  0  0  0  0  0
  186.9670   24.1990   50.5590 H   0  0  0  0  0  0  0  0  0  0  0  0
  181.3590   21.5000   51.1840 H   0  0  0  0  0  0  0  0  0  0  0  0
  179.5235   23.0296   48.4438 H   0  0  0  0  0  0  0  0  0  0  0  0
  177.1718   23.3924   47.2983 H   0  0  0  0  0  0  0  0  0  0  0  0
  176.1873   21.8754   47.1874 H   0  0  0  0  0  0  0  0  0  0  0  0
  177.4585   23.1048   49.6746 H   0  0  0  0  0  0  0  0  0  0  0  0
  175.6903   22.8668   49.2873 H   0  0  0  0  0  0  0  0  0  0  0  0
  177.4640   20.5890   49.4540 H   0  0  0  0  0  0  0  0  0  0  0  0
  175.0249   20.1743   50.6581 H   0  0  0  0  0  0  0  0  0  0  0  0
  174.7545   21.0547   49.1159 H   0  0  0  0  0  0  0  0  0  0  0  0
  175.6490   19.4970   49.1159 H   0  0  0  0  0  0  0  0  0  0  0  0
  176.2097   20.7752   51.8805 H   0  0  0  0  0  0  0  0  0  0  0  0
  177.9675   20.9475   51.5534 H   0  0  0  0  0  0  0  0  0  0  0  0
  176.9076   22.3977   51.5534 H   0  0  0  0  0  0  0  0  0  0  0  0
  1  2  1  0
  2  3  2  0
  3  4  1  0
  4  5  2  0
  5  6  1  0
  6  7  1  0
  7  8  1  0
  8  9  2  0
  9 10  1  0
 10 11  2  0
 11 12  1  0
 12 13  1  0
 12 14  2  0
 14 15  1  0
 15 16  2  0
 15 17  1  0
 17 18  1  0
  5 19  1  0
 19 20  2  0
 20 21  1  0
 21 22  1  0
 22 23  1  0
 23 24  1  0
 23 25  1  0
 20  2  1  0
 17  6  2  0
 14  8  1  0
  1 26  1  0
  1 27  1  0
  1 28  1  0
  3 29  1  0
  4 30  1  0
  9 31  1  0
 10 32  1  0
 11 33  1  0
 13 34  1  0
 18 35  1  0
 19 36  1  0
 21 37  1  0
 21 38  1  0
 22 39  1  0
 22 40  1  0
 23 41  1  0
 24 42  1  0
 24 43  1  0
 24 44  1  0
 25 45  1  0
 25 46  1  0
 25 47  1  0
M  CHG  1  23   1
M  END
>  <meeko>  (3) 
{"is_sidechain": [false], "free_energy": -7.063, "intermolecular_energy": -8.971, "internal_energy": -0.709}

$$$$
cand_041_out
     RDKit          3D

 47 49  0  0  0  0  0  0  0  0999 V2000
  176.5740   18.9240   46.2140 C   0  0  0  0  0  0  0  0  0  0  0  0
  177.6490   19.7320   46.8880 C   0  0  0  0  0  0  0  0  0  0  0  0
  178.9410   19.7340   46.3440 C   0  0  0  0  0  0  0  0  0  0  0  0
  179.9690   20.4730   46.9340 C   0  0  0  0  0  0  0  0  0  0  0  0
  179.7360   21.2290   48.0860 C   0  0  0  0  0  0  0  0  0  0  0  0
  180.8320   22.0210   48.6830 C   0  0  0  0  0  0  0  0  0  0  0  0
  180.9510   23.2890   48.1240 O   0  0  0  0  0  0  0  0  0  0  0  0
  181.9310   24.1300   48.5870 C   0  0  0  0  0  0  0  0  0  0  0  0
  182.0030   25.3970   48.0080 C   0  0  0  0  0  0  0  0  0  0  0  0
  182.9790   26.3020   48.4320 C   0  0  0  0  0  0  0  0  0  0  0  0
  183.8820   25.9380   49.4330 C   0  0  0  0  0  0  0  0  0  0  0  0
  183.8080   24.6730   50.0090 C   0  0  0  0  0  0  0  0  0  0  0  0
  184.7230   24.3830   50.9830 O   0  0  0  0  0  0  0  0  0  0  0  0
  182.8310   23.7690   49.5840 C   0  0  0  0  0  0  0  0  0  0  0  0
  182.7180   22.4290   50.1630 C   0  0  0  0  0  0  0  0  0  0  0  0
  183.4800   22.0330   51.0430 O   0  0  0  0  0  0  0  0  0  0  0  0
  181.6420   21.5490   49.6500 C   0  0  0  0  0  0  0  0  0  0  0  0
  181.5540   20.2810   50.1950 O   0  0  0  0  0  0  0  0  0  0  0  0
  178.4400   21.2440   48.6200 C   0  0  0  0  0  0  0  0  0  0  0  0
  177.3900   20.5060   48.0370 C   0  0  0  0  0  0  0  0  0  0  0  0
  176.0270   20.5540   48.6980 C   0  0  0  0  0  0  0  0  0  0  0  0
  176.1400   20.7950   50.2130 C   0  0  0  0  0  0  0  0  0  0  0  0
  175.3200   21.9260   50.6900 N   0  0  0  0  0  0  0  0  0  0  0  0
  174.5430   22.5330   49.6070 C   0  0  0  0  0  0  0  0  0  0  0  0
  176.1820   22.9400   51.3050 C   0  0  0  0  0  0  0  0  0  0  0  0
  175.9405   18.4479   46.9769 H   0  0  0  0  0  0  0  0  0  0  0  0
  175.9581   19.5846   45.5861 H   0  0  0  0  0  0  0  0  0  0  0  0
  177.0373   18.1487   45.5861 H   0  0  0  0  0  0  0  0  0  0  0  0
  179.1484   19.1446   45.4387 H   0  0  0  0  0  0  0  0  0  0  0  0
  180.9738   20.4597   46.4866 H   0  0  0  0  0  0  0  0  0  0  0  0
  181.2923   25.6831   47.2187 H   0  0  0  0  0  0  0  0  0  0  0  0
  183.0362   27.3019   47.9771 H   0  0  0  0  0  0  0  0  0  0  0  0
  184.6512   26.6504   49.7661 H   0  0  0  0  0  0  0  0  0  0  0  0
  185.4840   24.9190   51.0850 H   0  0  0  0  0  0  0  0  0  0  0  0
  182.2200   19.9740   50.7770 H   0  0  0  0  0  0  0  0  0  0  0  0
  178.2371   21.8473   49.5172 H   0  0  0  0  0  0  0  0  0  0  0  0
  175.4414   21.3701   48.2495 H   0  0  0  0  0  0  0  0  0  0  0  0
  175.5339   19.5835   48.5401 H   0  0  0  0  0  0  0  0  0  0  0  0
  175.8148   19.8836   50.7361 H   0  0  0  0  0  0  0  0  0  0  0  0
  177.1904   21.0438   50.4245 H   0  0  0  0  0  0  0  0  0  0  0  0
  174.6610   21.5620   51.3800 H   0  0  0  0  0  0  0  0  0  0  0  0
  173.7441   23.1571   50.0341 H   0  0  0  0  0  0  0  0  0  0  0  0
  175.2036   23.1567   48.9868 H   0  0  0  0  0  0  0  0  0  0  0  0
  174.0977   21.7411   48.9868 H   0  0  0  0  0  0  0  0  0  0  0  0
  176.1158   22.8621   52.4002 H   0  0  0  0  0  0  0  0  0  0  0  0
  177.2228   22.7776   50.9881 H   0  0  0  0  0  0  0  0  0  0  0  0
  175.8542   23.9410   50.9881 H   0  0  0  0  0  0  0  0  0  0  0  0
  1  2  1  0
  2  3  2  0
  3  4  1  0
  4  5  2  0
  5  6  1  0
  6  7  1  0
  7  8  1  0
  8  9  2  0
  9 10  1  0
 10 11  2  0
 11 12  1  0
 12 13  1  0
 12 14  2  0
 14 15  1  0
 15 16  2  0
 15 17  1  0
 17 18  1  0
  5 19  1  0
 19 20  2  0
 20 21  1  0
 21 22  1  0
 22 23  1  0
 23 24  1  0
 23 25  1  0
 20  2  1  0
 17  6  2  0
 14  8  1  0
  1 26  1  0
  1 27  1  0
  1 28  1  0
  3 29  1  0
  4 30  1  0
  9 31  1  0
 10 32  1  0
 11 33  1  0
 13 34  1  0
 18 35  1  0
 19 36  1  0
 21 37  1  0
 21 38  1  0
 22 39  1  0
 22 40  1  0
 23 41  1  0
 24 42  1  0
 24 43  1  0
 24 44  1  0
 25 45  1  0
 25 46  1  0
 25 47  1  0
M  CHG  1  23   1
M  END
>  <meeko>  (4) 
{"is_sidechain": [false], "free_energy": -6.971, "intermolecular_energy": -8.86, "internal_energy": -0.7}

$$$$
cand_041_out
     RDKit          3D

 47 49  0  0  0  0  0  0  0  0999 V2000
  177.4730   20.7960   46.2170 C   0  0  0  0  0  0  0  0  0  0  0  0
  176.6760   21.3970   47.3420 C   0  0  0  0  0  0  0  0  0  0  0  0
  175.6050   20.6680   47.8810 C   0  0  0  0  0  0  0  0  0  0  0  0
  174.8400   21.1840   48.9300 C   0  0  0  0  0  0  0  0  0  0  0  0
  175.1210   22.4440   49.4680 C   0  0  0  0  0  0  0  0  0  0  0  0
  174.3120   22.9630   50.5920 C   0  0  0  0  0  0  0  0  0  0  0  0
  175.0720   23.2420   51.7220 O   0  0  0  0  0  0  0  0  0  0  0  0
  174.4460   23.7300   52.8390 C   0  0  0  0  0  0  0  0  0  0  0  0
  175.2500   24.0110   53.9450 C   0  0  0  0  0  0  0  0  0  0  0  0
  174.6740   24.5100   55.1160 C   0  0  0  0  0  0  0  0  0  0  0  0
  173.2960   24.7250   55.1810 C   0  0  0  0  0  0  0  0  0  0  0  0
  172.4960   24.4440   54.0770 C   0  0  0  0  0  0  0  0  0  0  0  0
  171.1550   24.6780   54.2100 O   0  0  0  0  0  0  0  0  0  0  0  0
  173.0730   23.9470   52.9050 C   0  0  0  0  0  0  0  0  0  0  0  0
  172.2690   23.6370   51.7220 C   0  0  0  0  0  0  0  0  0  0  0  0
  171.0500   23.7940   51.7040 O   0  0  0  0  0  0  0  0  0  0  0  0
  172.9770   23.1220   50.5270 C   0  0  0  0  0  0  0  0  0  0  0  0
  172.2050   22.8220   49.4200 O   0  0  0  0  0  0  0  0  0  0  0  0
  176.2030   23.1640   48.9430 C   0  0  0  0  0  0  0  0  0  0  0  0
  176.9880   22.6580   47.8870 C   0  0  0  0  0  0  0  0  0  0  0  0
  178.1190   23.5170   47.3590 C   0  0  0  0  0  0  0  0  0  0  0  0
  179.3070   23.5530   48.3380 C   0  0  0  0  0  0  0  0  0  0  0  0
  179.8620   22.2160   48.6340 N   0  0  0  0  0  0  0  0  0  0  0  0
  180.2870   22.0980   50.0300 C   0  0  0  0  0  0  0  0  0  0  0  0
  181.0000   21.9450   47.7500 C   0  0  0  0  0  0  0  0  0  0  0  0
  178.2867   20.1824   46.6311 H   0  0  0  0  0  0  0  0  0  0  0  0
  176.8169   20.1659   45.5986 H   0  0  0  0  0  0  0  0  0  0  0  0
  177.8984   21.6001   45.5986 H   0  0  0  0  0  0  0  0  0  0  0  0
  175.3642   19.6758   47.4716 H   0  0  0  0  0  0  0  0  0  0  0  0
  174.0070   20.5924   49.3375 H   0  0  0  0  0  0  0  0  0  0  0  0
  176.3354   23.8398   53.8947 H   0  0  0  0  0  0  0  0  0  0  0  0
  175.3068   24.7337   55.9875 H   0  0  0  0  0  0  0  0  0  0  0  0
  172.8429   25.1161   56.1039 H   0  0  0  0  0  0  0  0  0  0  0  0
  170.5770   23.9750   54.4300 H   0  0  0  0  0  0  0  0  0  0  0  0
  172.0740   23.4650   48.7520 H   0  0  0  0  0  0  0  0  0  0  0  0
  176.4460   24.1499   49.3661 H   0  0  0  0  0  0  0  0  0  0  0  0
  178.4608   23.1060   46.3976 H   0  0  0  0  0  0  0  0  0  0  0  0
  177.7432   24.5434   47.2356 H   0  0  0  0  0  0  0  0  0  0  0  0
  180.1031   24.1718   47.8982 H   0  0  0  0  0  0  0  0  0  0  0  0
  178.9349   23.9682   49.2862 H   0  0  0  0  0  0  0  0  0  0  0  0
  179.1230   21.5310   48.4730 H   0  0  0  0  0  0  0  0  0  0  0  0
  179.4406   22.3330   50.6921 H   0  0  0  0  0  0  0  0  0  0  0  0
  180.6296   21.0708   50.2234 H   0  0  0  0  0  0  0  0  0  0  0  0
  181.1102   22.8016   50.2234 H   0  0  0  0  0  0  0  0  0  0  0  0
  181.8928   21.7324   48.3564 H   0  0  0  0  0  0  0  0  0  0  0  0
  180.7724   21.0759   47.1152 H   0  0  0  0  0  0  0  0  0  0  0  0
  181.1885   22.8234   47.1152 H   0  0  0  0  0  0  0  0  0  0  0  0
  1  2  1  0
  2  3  2  0
  3  4  1  0
  4  5  2  0
  5  6  1  0
  6  7  1  0
  7  8  1  0
  8  9  2  0
  9 10  1  0
 10 11  2  0
 11 12  1  0
 12 13  1  0
 12 14  2  0
 14 15  1  0
 15 16  2  0
 15 17  1  0
 17 18  1  0
  5 19  1  0
 19 20  2  0
 20 21  1  0
 21 22  1  0
 22 23  1  0
 23 24  1  0
 23 25  1  0
 20  2  1  0
 17  6  2  0
 14  8  1  0
  1 26  1  0
  1 27  1  0
  1 28  1  0
  3 29  1  0
  4 30  1  0
  9 31  1  0
 10 32  1  0
 11 33  1  0
 13 34  1  0
 18 35  1  0
 19 36  1  0
 21 37  1  0
 21 38  1  0
 22 39  1  0
 22 40  1  0
 23 41  1  0
 24 42  1  0
 24 43  1  0
 24 44  1  0
 25 45  1  0
 25 46  1  0
 25 47  1  0
M  CHG  1  23   1
M  END
>  <meeko>  (5) 
{"is_sidechain": [false], "free_energy": -6.931, "intermolecular_energy": -9.002, "internal_energy": -0.507}

$$$$
cand_041_out
     RDKit          3D

 47 49  0  0  0  0  0  0  0  0999 V2000
  171.8690   24.4520   49.4530 C   0  0  0  0  0  0  0  0  0  0  0  0
  173.3120   24.0400   49.5520 C   0  0  0  0  0  0  0  0  0  0  0  0
  173.6670   22.7230   49.2260 C   0  0  0  0  0  0  0  0  0  0  0  0
  174.9950   22.2960   49.2990 C   0  0  0  0  0  0  0  0  0  0  0  0
  176.0060   23.1730   49.7020 C   0  0  0  0  0  0  0  0  0  0  0  0
  177.4090   22.7080   49.7530 C   0  0  0  0  0  0  0  0  0  0  0  0
  177.8120   22.0760   48.5820 O   0  0  0  0  0  0  0  0  0  0  0  0
  179.0930   21.5940   48.4940 C   0  0  0  0  0  0  0  0  0  0  0  0
  179.4590   20.9810   47.2950 C   0  0  0  0  0  0  0  0  0  0  0  0
  180.7480   20.4680   47.1410 C   0  0  0  0  0  0  0  0  0  0  0  0
  181.6700   20.5660   48.1850 C   0  0  0  0  0  0  0  0  0  0  0  0
  181.3030   21.1780   49.3800 C   0  0  0  0  0  0  0  0  0  0  0  0
  182.2540   21.2400   50.3610 O   0  0  0  0  0  0  0  0  0  0  0  0
  180.0130   21.6930   49.5340 C   0  0  0  0  0  0  0  0  0  0  0  0
  179.5850   22.3430   50.7730 C   0  0  0  0  0  0  0  0  0  0  0  0
  180.3370   22.4630   51.7390 O   0  0  0  0  0  0  0  0  0  0  0  0
  178.1990   22.8630   50.8320 C   0  0  0  0  0  0  0  0  0  0  0  0
  177.8030   23.4640   52.0130 O   0  0  0  0  0  0  0  0  0  0  0  0
  175.6560   24.4950   50.0100 C   0  0  0  0  0  0  0  0  0  0  0  0
  174.3220   24.9440   49.9400 C   0  0  0  0  0  0  0  0  0  0  0  0
  174.0270   26.3810   50.3200 C   0  0  0  0  0  0  0  0  0  0  0  0
  174.3780   26.6610   51.7920 C   0  0  0  0  0  0  0  0  0  0  0  0
  173.7270   25.7310   52.7360 N   0  0  0  0  0  0  0  0  0  0  0  0
  172.6400   26.3760   53.4770 C   0  0  0  0  0  0  0  0  0  0  0  0
  174.7190   25.2050   53.6790 C   0  0  0  0  0  0  0  0  0  0  0  0
  171.4515   24.5712   50.4637 H   0  0  0  0  0  0  0  0  0  0  0  0
  171.7966   25.4067   48.9114 H   0  0  0  0  0  0  0  0  0  0  0  0
  171.3034   23.6794   48.9114 H   0  0  0  0  0  0  0  0  0  0  0  0
  172.8875   22.0151   48.9078 H   0  0  0  0  0  0  0  0  0  0  0  0
  175.2479   21.2582   49.0364 H   0  0  0  0  0  0  0  0  0  0  0  0
  178.7328   20.9022   46.4725 H   0  0  0  0  0  0  0  0  0  0  0  0
  181.0379   19.9858   46.1958 H   0  0  0  0  0  0  0  0  0  0  0  0
  182.6851   20.1601   48.0632 H   0  0  0  0  0  0  0  0  0  0  0  0
  183.0130   21.7770   50.2440 H   0  0  0  0  0  0  0  0  0  0  0  0
  176.9070   23.4230   52.2820 H   0  0  0  0  0  0  0  0  0  0  0  0
  176.4433   25.2004   50.3143 H   0  0  0  0  0  0  0  0  0  0  0  0
  174.6202   27.0490   49.6782 H   0  0  0  0  0  0  0  0  0  0  0  0
  172.9502   26.5590   50.1831 H   0  0  0  0  0  0  0  0  0  0  0  0
  175.4679   26.5750   51.9132 H   0  0  0  0  0  0  0  0  0  0  0  0
  174.0126   27.6716   52.0269 H   0  0  0  0  0  0  0  0  0  0  0  0
  173.3230   24.9680   52.1920 H   0  0  0  0  0  0  0  0  0  0  0  0
  172.8190   26.2698   54.5571 H   0  0  0  0  0  0  0  0  0  0  0  0
  172.6008   27.4436   53.2151 H   0  0  0  0  0  0  0  0  0  0  0  0
  171.6841   25.8988   53.2151 H   0  0  0  0  0  0  0  0  0  0  0  0
  174.3778   25.3859   54.7090 H   0  0  0  0  0  0  0  0  0  0  0  0
  174.8409   24.1237   53.5177 H   0  0  0  0  0  0  0  0  0  0  0  0
  175.6824   25.7107   53.5177 H   0  0  0  0  0  0  0  0  0  0  0  0
  1  2  1  0
  2  3  2  0
  3  4  1  0
  4  5  2  0
  5  6  1  0
  6  7  1  0
  7  8  1  0
  8  9  2  0
  9 10  1  0
 10 11  2  0
 11 12  1  0
 12 13  1  0
 12 14  2  0
 14 15  1  0
 15 16  2  0
 15 17  1  0
 17 18  1  0
  5 19  1  0
 19 20  2  0
 20 21  1  0
 21 22  1  0
 22 23  1  0
 23 24  1  0
 23 25  1  0
 20  2  1  0
 17  6  2  0
 14  8  1  0
  1 26  1  0
  1 27  1  0
  1 28  1  0
  3 29  1  0
  4 30  1  0
  9 31  1  0
 10 32  1  0
 11 33  1  0
 13 34  1  0
 18 35  1  0
 19 36  1  0
 21 37  1  0
 21 38  1  0
 22 39  1  0
 22 40  1  0
 23 41  1  0
 24 42  1  0
 24 43  1  0
 24 44  1  0
 25 45  1  0
 25 46  1  0
 25 47  1  0
M  CHG  1  23   1
M  END
>  <meeko>  (6) 
{"is_sidechain": [false], "free_energy": -6.876, "intermolecular_energy": -8.945, "internal_energy": -0.493}

$$$$
cand_041_out
     RDKit          3D

 47 49  0  0  0  0  0  0  0  0999 V2000
  180.5850   21.3110   49.9240 C   0  0  0  0  0  0  0  0  0  0  0  0
  179.2200   21.9330   49.8190 C   0  0  0  0  0  0  0  0  0  0  0  0
  178.4440   22.0690   50.9800 C   0  0  0  0  0  0  0  0  0  0  0  0
  177.1720   22.6460   50.9310 C   0  0  0  0  0  0  0  0  0  0  0  0
  176.6390   23.1000   49.7210 C   0  0  0  0  0  0  0  0  0  0  0  0
  175.3000   23.7270   49.6940 C   0  0  0  0  0  0  0  0  0  0  0  0
  175.3320   25.0860   49.9820 O   0  0  0  0  0  0  0  0  0  0  0  0
  174.1560   25.7910   49.9920 C   0  0  0  0  0  0  0  0  0  0  0  0
  174.2380   27.1560   50.2710 C   0  0  0  0  0  0  0  0  0  0  0  0
  173.0770   27.9320   50.2980 C   0  0  0  0  0  0  0  0  0  0  0  0
  171.8360   27.3430   50.0470 C   0  0  0  0  0  0  0  0  0  0  0  0
  171.7570   25.9820   49.7690 C   0  0  0  0  0  0  0  0  0  0  0  0
  170.5110   25.4700   49.5340 O   0  0  0  0  0  0  0  0  0  0  0  0
  172.9190   25.2060   49.7420 C   0  0  0  0  0  0  0  0  0  0  0  0
  172.8810   23.7710   49.4540 C   0  0  0  0  0  0  0  0  0  0  0  0
  171.8270   23.1790   49.2300 O   0  0  0  0  0  0  0  0  0  0  0  0
  174.1700   23.0400   49.4400 C   0  0  0  0  0  0  0  0  0  0  0  0
  174.1200   21.6830   49.1800 O   0  0  0  0  0  0  0  0  0  0  0  0
  177.4230   22.9830   48.5640 C   0  0  0  0  0  0  0  0  0  0  0  0
  178.7080   22.4070   48.5950 C   0  0  0  0  0  0  0  0  0  0  0  0
  179.4740   22.2910   47.2920 C   0  0  0  0  0  0  0  0  0  0  0  0
  178.7780   21.3320   46.3100 C   0  0  0  0  0  0  0  0  0  0  0  0
  178.6570   19.9530   46.8250 N   0  0  0  0  0  0  0  0  0  0  0  0
  179.5420   19.0250   46.1170 C   0  0  0  0  0  0  0  0  0  0  0  0
  177.2690   19.4980   46.7040 C   0  0  0  0  0  0  0  0  0  0  0  0
  180.8519   21.1894   50.9842 H   0  0  0  0  0  0  0  0  0  0  0  0
  180.5784   20.3270   49.4323 H   0  0  0  0  0  0  0  0  0  0  0  0
  181.3232   21.9616   49.4323 H   0  0  0  0  0  0  0  0  0  0  0  0
  178.8425   21.7164   51.9427 H   0  0  0  0  0  0  0  0  0  0  0  0
  176.5835   22.7440   51.8551 H   0  0  0  0  0  0  0  0  0  0  0  0
  175.2154   27.6200   50.4693 H   0  0  0  0  0  0  0  0  0  0  0  0
  173.1403   29.0081   50.5172 H   0  0  0  0  0  0  0  0  0  0  0  0
  170.9218   27.9544   50.0690 H   0  0  0  0  0  0  0  0  0  0  0  0
  169.7520   25.9990   49.6780 H   0  0  0  0  0  0  0  0  0  0  0  0
  174.8990   21.1660   49.2370 H   0  0  0  0  0  0  0  0  0  0  0  0
  177.0239   23.3507   47.6072 H   0  0  0  0  0  0  0  0  0  0  0  0
  179.5446   23.2865   46.8294 H   0  0  0  0  0  0  0  0  0  0  0  0
  180.4738   21.8899   47.5148 H   0  0  0  0  0  0  0  0  0  0  0  0
  177.7686   21.7169   46.1028 H   0  0  0  0  0  0  0  0  0  0  0  0
  179.3995   21.2873   45.4035 H   0  0  0  0  0  0  0  0  0  0  0  0
  178.9370   19.9630   47.8070 H   0  0  0  0  0  0  0  0  0  0  0  0
  180.1095   18.4300   46.8477 H   0  0  0  0  0  0  0  0  0  0  0  0
  178.9406   18.3542   45.4858 H   0  0  0  0  0  0  0  0  0  0  0  0
  180.2405   19.5939   45.4858 H   0  0  0  0  0  0  0  0  0  0  0  0
  176.8404   19.3575   47.7073 H   0  0  0  0  0  0  0  0  0  0  0  0
  176.6827   20.2510   46.1570 H   0  0  0  0  0  0  0  0  0  0  0  0
  177.2422   18.5440   46.1570 H   0  0  0  0  0  0  0  0  0  0  0  0
  1  2  1  0
  2  3  2  0
  3  4  1  0
  4  5  2  0
  5  6  1  0
  6  7  1  0
  7  8  1  0
  8  9  2  0
  9 10  1  0
 10 11  2  0
 11 12  1  0
 12 13  1  0
 12 14  2  0
 14 15  1  0
 15 16  2  0
 15 17  1  0
 17 18  1  0
  5 19  1  0
 19 20  2  0
 20 21  1  0
 21 22  1  0
 22 23  1  0
 23 24  1  0
 23 25  1  0
 20  2  1  0
 17  6  2  0
 14  8  1  0
  1 26  1  0
  1 27  1  0
  1 28  1  0
  3 29  1  0
  4 30  1  0
  9 31  1  0
 10 32  1  0
 11 33  1  0
 13 34  1  0
 18 35  1  0
 19 36  1  0
 21 37  1  0
 21 38  1  0
 22 39  1  0
 22 40  1  0
 23 41  1  0
 24 42  1  0
 24 43  1  0
 24 44  1  0
 25 45  1  0
 25 46  1  0
 25 47  1  0
M  CHG  1  23   1
M  END
>  <meeko>  (7) 
{"is_sidechain": [false], "free_energy": -6.809, "intermolecular_energy": -8.642, "internal_energy": -0.71}

$$$$
cand_041_out
     RDKit          3D

 47 49  0  0  0  0  0  0  0  0999 V2000
  177.9140   19.2690   46.2870 C   0  0  0  0  0  0  0  0  0  0  0  0
  177.1390   20.2080   47.1710 C   0  0  0  0  0  0  0  0  0  0  0  0
  175.9210   19.7790   47.7180 C   0  0  0  0  0  0  0  0  0  0  0  0
  175.1700   20.6150   48.5470 C   0  0  0  0  0  0  0  0  0  0  0  0
  175.6130   21.9050   48.8520 C   0  0  0  0  0  0  0  0  0  0  0  0
  174.8140   22.7670   49.7480 C   0  0  0  0  0  0  0  0  0  0  0  0
  173.7990   23.4470   49.0840 O   0  0  0  0  0  0  0  0  0  0  0  0
  172.9810   24.2830   49.7980 C   0  0  0  0  0  0  0  0  0  0  0  0
  171.9670   24.9320   49.0930 C   0  0  0  0  0  0  0  0  0  0  0  0
  171.0990   25.7990   49.7610 C   0  0  0  0  0  0  0  0  0  0  0  0
  171.2470   26.0180   51.1330 C   0  0  0  0  0  0  0  0  0  0  0  0
  172.2590   25.3690   51.8340 C   0  0  0  0  0  0  0  0  0  0  0  0
  172.3480   25.6290   53.1740 O   0  0  0  0  0  0  0  0  0  0  0  0
  173.1270   24.5010   51.1650 C   0  0  0  0  0  0  0  0  0  0  0  0
  174.2050   23.7990   51.8640 C   0  0  0  0  0  0  0  0  0  0  0  0
  174.4030   23.9440   53.0680 O   0  0  0  0  0  0  0  0  0  0  0  0
  175.0640   22.8940   51.0650 C   0  0  0  0  0  0  0  0  0  0  0  0
  176.0870   22.2470   51.7340 O   0  0  0  0  0  0  0  0  0  0  0  0
  176.8400   22.3290   48.3210 C   0  0  0  0  0  0  0  0  0  0  0  0
  177.6120   21.4980   47.4850 C   0  0  0  0  0  0  0  0  0  0  0  0
  178.9110   22.0480   46.9300 C   0  0  0  0  0  0  0  0  0  0  0  0
  179.9060   22.3900   48.0530 C   0  0  0  0  0  0  0  0  0  0  0  0
  180.4550   21.1990   48.7330 N   0  0  0  0  0  0  0  0  0  0  0  0
  181.3250   21.5630   49.8540 C   0  0  0  0  0  0  0  0  0  0  0  0
  181.2050   20.3820   47.7740 C   0  0  0  0  0  0  0  0  0  0  0  0
  178.4907   18.5702   46.9108 H   0  0  0  0  0  0  0  0  0  0  0  0
  177.2162   18.7034   45.6520 H   0  0  0  0  0  0  0  0  0  0  0  0
  178.6016   19.8468   45.6520 H   0  0  0  0  0  0  0  0  0  0  0  0
  175.5515   18.7682   47.4905 H   0  0  0  0  0  0  0  0  0  0  0  0
  174.2186   20.2540   48.9648 H   0  0  0  0  0  0  0  0  0  0  0  0
  171.8512   24.7612   48.0125 H   0  0  0  0  0  0  0  0  0  0  0  0
  170.2981   26.3098   49.2063 H   0  0  0  0  0  0  0  0  0  0  0  0
  170.5646   26.7024   51.6583 H   0  0  0  0  0  0  0  0  0  0  0  0
  173.1860   25.7590   53.5710 H   0  0  0  0  0  0  0  0  0  0  0  0
  176.0040   21.3390   51.9500 H   0  0  0  0  0  0  0  0  0  0  0  0
  177.2092   23.3364   48.5635 H   0  0  0  0  0  0  0  0  0  0  0  0
  179.3640   21.2949   46.2685 H   0  0  0  0  0  0  0  0  0  0  0  0
  178.6855   22.9715   46.3766 H   0  0  0  0  0  0  0  0  0  0  0  0
  180.7409   22.9589   47.6179 H   0  0  0  0  0  0  0  0  0  0  0  0
  179.3562   22.9707   48.8083 H   0  0  0  0  0  0  0  0  0  0  0  0
  179.6690   20.6670   49.1080 H   0  0  0  0  0  0  0  0  0  0  0  0
  180.8106   21.3478   50.8022 H   0  0  0  0  0  0  0  0  0  0  0  0
  182.2555   20.9787   49.8008 H   0  0  0  0  0  0  0  0  0  0  0  0
  181.5621   22.6358   49.8008 H   0  0  0  0  0  0  0  0  0  0  0  0
  181.8513   19.6780   48.3186 H   0  0  0  0  0  0  0  0  0  0  0  0
  180.5016   19.8202   47.1419 H   0  0  0  0  0  0  0  0  0  0  0  0
  181.8248   21.0349   47.1419 H   0  0  0  0  0  0  0  0  0  0  0  0
  1  2  1  0
  2  3  2  0
  3  4  1  0
  4  5  2  0
  5  6  1  0
  6  7  1  0
  7  8  1  0
  8  9  2  0
  9 10  1  0
 10 11  2  0
 11 12  1  0
 12 13  1  0
 12 14  2  0
 14 15  1  0
 15 16  2  0
 15 17  1  0
 17 18  1  0
  5 19  1  0
 19 20  2  0
 20 21  1  0
 21 22  1  0
 22 23  1  0
 23 24  1  0
 23 25  1  0
 20  2  1  0
 17  6  2  0
 14  8  1  0
  1 26  1  0
  1 27  1  0
  1 28  1  0
  3 29  1  0
  4 30  1  0
  9 31  1  0
 10 32  1  0
 11 33  1  0
 13 34  1  0
 18 35  1  0
 19 36  1  0
 21 37  1  0
 21 38  1  0
 22 39  1  0
 22 40  1  0
 23 41  1  0
 24 42  1  0
 24 43  1  0
 24 44  1  0
 25 45  1  0
 25 46  1  0
 25 47  1  0
M  CHG  1  23   1
M  END
>  <meeko>  (8) 
{"is_sidechain": [false], "free_energy": -6.669, "intermolecular_energy": -8.473, "internal_energy": -0.697}

$$$$
cand_041_out
     RDKit          3D

 47 49  0  0  0  0  0  0  0  0999 V2000
  175.2810   27.5600   51.9770 C   0  0  0  0  0  0  0  0  0  0  0  0
  175.4270   26.3180   51.1410 C   0  0  0  0  0  0  0  0  0  0  0  0
  176.6440   25.6200   51.1670 C   0  0  0  0  0  0  0  0  0  0  0  0
  176.8240   24.4610   50.4100 C   0  0  0  0  0  0  0  0  0  0  0  0
  175.7950   23.9660   49.6030 C   0  0  0  0  0  0  0  0  0  0  0  0
  175.9990   22.7250   48.8260 C   0  0  0  0  0  0  0  0  0  0  0  0
  177.2700   22.6360   48.2710 O   0  0  0  0  0  0  0  0  0  0  0  0
  177.5930   21.5330   47.5230 C   0  0  0  0  0  0  0  0  0  0  0  0
  178.8850   21.4790   46.9980 C   0  0  0  0  0  0  0  0  0  0  0  0
  179.2780   20.3840   46.2260 C   0  0  0  0  0  0  0  0  0  0  0  0
  178.3790   19.3450   45.9770 C   0  0  0  0  0  0  0  0  0  0  0  0
  177.0910   19.4010   46.5020 C   0  0  0  0  0  0  0  0  0  0  0  0
  176.2620   18.3500   46.2190 O   0  0  0  0  0  0  0  0  0  0  0  0
  176.6990   20.4970   47.2750 C   0  0  0  0  0  0  0  0  0  0  0  0
  175.3540   20.5960   47.8450 C   0  0  0  0  0  0  0  0  0  0  0  0
  174.5050   19.7250   47.6660 O   0  0  0  0  0  0  0  0  0  0  0  0
  175.0400   21.7940   48.6570 C   0  0  0  0  0  0  0  0  0  0  0  0
  173.7630   21.8820   49.1800 O   0  0  0  0  0  0  0  0  0  0  0  0
  174.5720   24.6520   49.5920 C   0  0  0  0  0  0  0  0  0  0  0  0
  174.3710   25.8220   50.3510 C   0  0  0  0  0  0  0  0  0  0  0  0
  173.0280   26.5170   50.2550 C   0  0  0  0  0  0  0  0  0  0  0  0
  171.8640   25.5260   50.4310 C   0  0  0  0  0  0  0  0  0  0  0  0
  171.7090   25.0440   51.8190 N   0  0  0  0  0  0  0  0  0  0  0  0
  171.8380   23.5880   51.9100 C   0  0  0  0  0  0  0  0  0  0  0  0
  170.4040   25.4560   52.3440 C   0  0  0  0  0  0  0  0  0  0  0  0
  175.3127   27.2903   53.0430 H   0  0  0  0  0  0  0  0  0  0  0  0
  176.1038   28.2538   51.7497 H   0  0  0  0  0  0  0  0  0  0  0  0
  174.3198   28.0441   51.7497 H   0  0  0  0  0  0  0  0  0  0  0  0
  177.4685   25.9916   51.7932 H   0  0  0  0  0  0  0  0  0  0  0  0
  177.7870   23.9307   50.4488 H   0  0  0  0  0  0  0  0  0  0  0  0
  179.5929   22.2982   47.1922 H   0  0  0  0  0  0  0  0  0  0  0  0
  180.2968   20.3398   45.8136 H   0  0  0  0  0  0  0  0  0  0  0  0
  178.6881   18.4835   45.3669 H   0  0  0  0  0  0  0  0  0  0  0  0
  176.5140   17.7140   45.5800 H   0  0  0  0  0  0  0  0  0  0  0  0
  173.6380   22.1340   50.0730 H   0  0  0  0  0  0  0  0  0  0  0  0
  173.7475   24.2664   48.9743 H   0  0  0  0  0  0  0  0  0  0  0  0
  172.9659   27.2840   51.0410 H   0  0  0  0  0  0  0  0  0  0  0  0
  172.9458   26.9707   49.2563 H   0  0  0  0  0  0  0  0  0  0  0  0
  170.9318   26.0259   50.1293 H   0  0  0  0  0  0  0  0  0  0  0  0
  172.0866   24.6490   49.8055 H   0  0  0  0  0  0  0  0  0  0  0  0
  172.4570   25.4590   52.3760 H   0  0  0  0  0  0  0  0  0  0  0  0
  171.8646   23.2877   52.9679 H   0  0  0  0  0  0  0  0  0  0  0  0
  170.9785   23.1121   51.4152 H   0  0  0  0  0  0  0  0  0  0  0  0
  172.7678   23.2706   51.4152 H   0  0  0  0  0  0  0  0  0  0  0  0
  170.4318   25.4472   53.4436 H   0  0  0  0  0  0  0  0  0  0  0  0
  170.1708   26.4715   51.9912 H   0  0  0  0  0  0  0  0  0  0  0  0
  169.6300   24.7585   51.9912 H   0  0  0  0  0  0  0  0  0  0  0  0
  1  2  1  0
  2  3  2  0
  3  4  1  0
  4  5  2  0
  5  6  1  0
  6  7  1  0
  7  8  1  0
  8  9  2  0
  9 10  1  0
 10 11  2  0
 11 12  1  0
 12 13  1  0
 12 14  2  0
 14 15  1  0
 15 16  2  0
 15 17  1  0
 17 18  1  0
  5 19  1  0
 19 20  2  0
 20 21  1  0
 21 22  1  0
 22 23  1  0
 23 24  1  0
 23 25  1  0
 20  2  1  0
 17  6  2  0
 14  8  1  0
  1 26  1  0
  1 27  1  0
  1 28  1  0
  3 29  1  0
  4 30  1  0
  9 31  1  0
 10 32  1  0
 11 33  1  0
 13 34  1  0
 18 35  1  0
 19 36  1  0
 21 37  1  0
 21 38  1  0
 22 39  1  0
 22 40  1  0
 23 41  1  0
 24 42  1  0
 24 43  1  0
 24 44  1  0
 25 45  1  0
 25 46  1  0
 25 47  1  0
M  CHG  1  23   1
M  END
>  <meeko>  (9) 
{"is_sidechain": [false], "free_energy": -6.624, "intermolecular_energy": -8.844, "internal_energy": -0.268}

$$$$
