cand_006_out
     RDKit          3D

 47 50  0  0  0  0  0  0  0  0999 V2000
  176.4330   18.6290   46.2450 C   0  0  0  0  0  0  0  0  0  0  0  0
  176.3480   19.6680   47.3310 C   0  0  0  0  0  0  0  0  0  0  0  0
  175.1210   19.9180   47.9590 C   0  0  0  0  0  0  0  0  0  0  0  0
  175.0210   20.8740   48.9700 C   0  0  0  0  0  0  0  0  0  0  0  0
  176.1460   21.5980   49.3830 C   0  0  0  0  0  0  0  0  0  0  0  0
  176.0140   22.6240   50.4390 C   0  0  0  0  0  0  0  0  0  0  0  0
  175.5120   23.8300   49.9620 O   0  0  0  0  0  0  0  0  0  0  0  0
  175.3370   24.8700   50.8380 C   0  0  0  0  0  0  0  0  0  0  0  0
  174.8460   26.0660   50.3110 C   0  0  0  0  0  0  0  0  0  0  0  0
  174.6440   27.1640   51.1490 C   0  0  0  0  0  0  0  0  0  0  0  0
  174.9330   27.0670   52.5120 C   0  0  0  0  0  0  0  0  0  0  0  0
  175.4230   25.8730   53.0350 C   0  0  0  0  0  0  0  0  0  0  0  0
  175.6840   25.8480   54.3770 O   0  0  0  0  0  0  0  0  0  0  0  0
  175.6260   24.7740   52.1950 C   0  0  0  0  0  0  0  0  0  0  0  0
  176.1390   23.5010   52.7030 C   0  0  0  0  0  0  0  0  0  0  0  0
  176.4100   23.3360   53.8910 O   0  0  0  0  0  0  0  0  0  0  0  0
  176.3260   22.4010   51.7290 C   0  0  0  0  0  0  0  0  0  0  0  0
  176.7990   21.1990   52.2240 O   0  0  0  0  0  0  0  0  0  0  0  0
  177.3700   21.3520   48.7440 C   0  0  0  0  0  0  0  0  0  0  0  0
  177.4920   20.3910   47.7240 C   0  0  0  0  0  0  0  0  0  0  0  0
  178.7250   20.1270   47.0840 N   0  0  0  0  0  0  0  0  0  0  0  0
  179.8760   20.5210   47.9120 C   0  0  0  0  0  0  0  0  0  0  0  0
  181.1590   19.9990   47.2640 C   0  0  0  0  0  0  0  0  0  0  0  0
  181.2850   20.4840   45.8200 C   0  0  0  0  0  0  0  0  0  0  0  0
  180.0290   20.1440   45.0170 C   0  0  0  0  0  0  0  0  0  0  0  0
  178.7720   20.6630   45.7140 C   0  0  0  0  0  0  0  0  0  0  0  0
  176.5147   17.6302   46.6987 H   0  0  0  0  0  0  0  0  0  0  0  0
  175.5280   18.6755   45.6214 H   0  0  0  0  0  0  0  0  0  0  0  0
  177.3184   18.8220   45.6214 H   0  0  0  0  0  0  0  0  0  0  0  0
  174.2274   19.3548   47.6518 H   0  0  0  0  0  0  0  0  0  0  0  0
  174.0480   21.0610   49.4478 H   0  0  0  0  0  0  0  0  0  0  0  0
  174.6187   26.1429   49.2375 H   0  0  0  0  0  0  0  0  0  0  0  0
  174.2567   28.1068   50.7353 H   0  0  0  0  0  0  0  0  0  0  0  0
  174.7737   27.9328   53.1716 H   0  0  0  0  0  0  0  0  0  0  0  0
  175.9280   25.0450   54.7910 H   0  0  0  0  0  0  0  0  0  0  0  0
  177.4520   21.1930   52.8950 H   0  0  0  0  0  0  0  0  0  0  0  0
  178.2579   21.9256   49.0484 H   0  0  0  0  0  0  0  0  0  0  0  0
  179.9196   21.6177   47.9846 H   0  0  0  0  0  0  0  0  0  0  0  0
  179.7702   20.0957   48.9209 H   0  0  0  0  0  0  0  0  0  0  0  0
  182.0242   20.3587   47.8402 H   0  0  0  0  0  0  0  0  0  0  0  0
  181.1255   18.8995   47.2608 H   0  0  0  0  0  0  0  0  0  0  0  0
  181.4292   21.5745   45.8179 H   0  0  0  0  0  0  0  0  0  0  0  0
  182.1456   19.9810   45.3548 H   0  0  0  0  0  0  0  0  0  0  0  0
  180.1037   20.6051   44.0211 H   0  0  0  0  0  0  0  0  0  0  0  0
  179.9545   19.0498   44.9323 H   0  0  0  0  0  0  0  0  0  0  0  0
  178.7975   21.7621   45.7491 H   0  0  0  0  0  0  0  0  0  0  0  0
  177.8796   20.3390   45.1584 H   0  0  0  0  0  0  0  0  0  0  0  0
  1  2  1  0
  2  3  2  0
  3  4  1  0
  4  5  2  0
  5  6  1  0
  6  7  1  0
  7  8  1  0
  8  9  2  0
  9 10  1  0
 10 11  2  0
 11 12  1  0
 12 13  1  0
 12 14  2  0
 14 15  1  0
 15 16  2  0
 15 17  1  0
 17 18  1  0
  5 19  1  0
 19 20  2  0
 20 21  1  0
 21 22  1  0
 22 23  1  0
 23 24  1  0
 24 25  1  0
 25 26  1  0
 20  2  1  0
 26 21  1  0
 17  6  2  0
 14  8  1  0
  1 27  1  0
  1 28  1  0
  1 29  1  0
  3 30  1  0
  4 31  1  0
  9 32  1  0
 10 33  1  0
 11 34  1  0
 13 35  1  0
 18 36  1  0
 19 37  1  0
 22 38  1  0
 22 39  1  0
 23 40  1  0
 23 41  1  0
 24 42  1  0
 24 43  1  0
 25 44  1  0
 25 45  1  0
 26 46  1  0
 26 47  1  0
M  END
>  <meeko>  (1) 
{"is_sidechain": [false], "free_energy": -8.111, "intermolecular_energy": -9.533, "internal_energy": -0.419}

$$$$
cand_006_out
     RDKit          3D

 47 50  0  0  0  0  0  0  0  0999 V2000
  176.4200   22.2600   48.9390 C   0  0  0  0  0  0  0  0  0  0  0  0
  177.2750   21.3230   48.1300 C   0  0  0  0  0  0  0  0  0  0  0  0
  176.6690   20.3670   47.3050 C   0  0  0  0  0  0  0  0  0  0  0  0
  177.4430   19.4900   46.5440 C   0  0  0  0  0  0  0  0  0  0  0  0
  178.8410   19.5530   46.5840 C   0  0  0  0  0  0  0  0  0  0  0  0
  179.6430   18.5990   45.7890 C   0  0  0  0  0  0  0  0  0  0  0  0
  179.1490   17.3000   45.8430 O   0  0  0  0  0  0  0  0  0  0  0  0
  179.7980   16.3130   45.1480 C   0  0  0  0  0  0  0  0  0  0  0  0
  179.2760   15.0220   45.2440 C   0  0  0  0  0  0  0  0  0  0  0  0
  179.8890   13.9700   44.5610 C   0  0  0  0  0  0  0  0  0  0  0  0
  181.0230   14.2080   43.7810 C   0  0  0  0  0  0  0  0  0  0  0  0
  181.5420   15.4970   43.6870 C   0  0  0  0  0  0  0  0  0  0  0  0
  182.6540   15.6600   42.9070 O   0  0  0  0  0  0  0  0  0  0  0  0
  180.9290   16.5490   44.3730 C   0  0  0  0  0  0  0  0  0  0  0  0
  181.4420   17.9180   44.3010 C   0  0  0  0  0  0  0  0  0  0  0  0
  182.4310   18.2090   43.6320 O   0  0  0  0  0  0  0  0  0  0  0  0
  180.7230   18.9600   45.0720 C   0  0  0  0  0  0  0  0  0  0  0  0
  181.2100   20.2520   44.9860 O   0  0  0  0  0  0  0  0  0  0  0  0
  179.4430   20.5040   47.4200 C   0  0  0  0  0  0  0  0  0  0  0  0
  178.6800   21.3980   48.1930 C   0  0  0  0  0  0  0  0  0  0  0  0
  179.2790   22.3690   49.0280 N   0  0  0  0  0  0  0  0  0  0  0  0
  180.1180   23.3130   48.2700 C   0  0  0  0  0  0  0  0  0  0  0  0
  180.5390   24.4580   49.1930 C   0  0  0  0  0  0  0  0  0  0  0  0
  181.2400   23.9290   50.4440 C   0  0  0  0  0  0  0  0  0  0  0  0
  180.3810   22.8800   51.1490 C   0  0  0  0  0  0  0  0  0  0  0  0
  179.9640   21.7690   50.1850 C   0  0  0  0  0  0  0  0  0  0  0  0
  176.5875   22.0764   50.0106 H   0  0  0  0  0  0  0  0  0  0  0  0
  176.6871   23.2997   48.6990 H   0  0  0  0  0  0  0  0  0  0  0  0
  175.3602   22.0889   48.6990 H   0  0  0  0  0  0  0  0  0  0  0  0
  175.5717   20.3069   47.2565 H   0  0  0  0  0  0  0  0  0  0  0  0
  176.9497   18.7417   45.9063 H   0  0  0  0  0  0  0  0  0  0  0  0
  178.3824   14.8337   45.8573 H   0  0  0  0  0  0  0  0  0  0  0  0
  179.4784   12.9523   44.6372 H   0  0  0  0  0  0  0  0  0  0  0  0
  181.5051   13.3791   43.2421 H   0  0  0  0  0  0  0  0  0  0  0  0
  183.0700   14.9140   42.5240 H   0  0  0  0  0  0  0  0  0  0  0  0
  181.5970   20.6570   45.7360 H   0  0  0  0  0  0  0  0  0  0  0  0
  180.5407   20.5523   47.4728 H   0  0  0  0  0  0  0  0  0  0  0  0
  181.0123   22.7931   47.8960 H   0  0  0  0  0  0  0  0  0  0  0  0
  179.5496   23.7131   47.4174 H   0  0  0  0  0  0  0  0  0  0  0  0
  181.2271   25.1225   48.6498 H   0  0  0  0  0  0  0  0  0  0  0  0
  179.6367   25.0051   49.5038 H   0  0  0  0  0  0  0  0  0  0  0  0
  182.1985   23.4738   50.1542 H   0  0  0  0  0  0  0  0  0  0  0  0
  181.4063   24.7687   51.1349 H   0  0  0  0  0  0  0  0  0  0  0  0
  180.9582   22.4400   51.9756 H   0  0  0  0  0  0  0  0  0  0  0  0
  179.4729   23.3710   51.5287 H   0  0  0  0  0  0  0  0  0  0  0  0
  180.8560   21.2236   49.8431 H   0  0  0  0  0  0  0  0  0  0  0  0
  179.2862   21.0693   50.6959 H   0  0  0  0  0  0  0  0  0  0  0  0
  1  2  1  0
  2  3  2  0
  3  4  1  0
  4  5  2  0
  5  6  1  0
  6  7  1  0
  7  8  1  0
  8  9  2  0
  9 10  1  0
 10 11  2  0
 11 12  1  0
 12 13  1  0
 12 14  2  0
 14 15  1  0
 15 16  2  0
 15 17  1  0
 17 18  1  0
  5 19  1  0
 19 20  2  0
 20 21  1  0
 21 22  1  0
 22 23  1  0
 23 24  1  0
 24 25  1  0
 25 26  1  0
 20  2  1  0
 26 21  1  0
 17  6  2  0
 14  8  1  0
  1 27  1  0
  1 28  1  0
  1 29  1  0
  3 30  1  0
  4 31  1  0
  9 32  1  0
 10 33  1  0
 11 34  1  0
 13 35  1  0
 18 36  1  0
 19 37  1  0
 22 38  1  0
 22 39  1  0
 23 40  1  0
 23 41  1  0
 24 42  1  0
 24 43  1  0
 25 44  1  0
 25 45  1  0
 26 46  1  0
 26 47  1  0
M  END
>  <meeko>  (2) 
{"is_sidechain": [false], "free_energy": -7.733, "intermolecular_energy": -9.02, "internal_energy": -0.488}

$$$$
cand_006_out
     RDKit          3D

 47 50  0  0  0  0  0  0  0  0999 V2000
  177.0230   20.2160   46.1380 C   0  0  0  0  0  0  0  0  0  0  0  0
  178.2870   20.7690   46.7380 C   0  0  0  0  0  0  0  0  0  0  0  0
  179.5260   20.4500   46.1640 C   0  0  0  0  0  0  0  0  0  0  0  0
  180.7100   20.9540   46.7020 C   0  0  0  0  0  0  0  0  0  0  0  0
  180.6860   21.7940   47.8210 C   0  0  0  0  0  0  0  0  0  0  0  0
  181.9530   22.2980   48.3910 C   0  0  0  0  0  0  0  0  0  0  0  0
  182.5380   23.2920   47.6140 O   0  0  0  0  0  0  0  0  0  0  0  0
  183.7210   23.8500   48.0290 C   0  0  0  0  0  0  0  0  0  0  0  0
  184.2790   24.8330   47.2100 C   0  0  0  0  0  0  0  0  0  0  0  0
  185.4820   25.4420   47.5740 C   0  0  0  0  0  0  0  0  0  0  0  0
  186.1250   25.0690   48.7560 C   0  0  0  0  0  0  0  0  0  0  0  0
  185.5660   24.0880   49.5720 C   0  0  0  0  0  0  0  0  0  0  0  0
  186.2480   23.7720   50.7140 O   0  0  0  0  0  0  0  0  0  0  0  0
  184.3620   23.4770   49.2050 C   0  0  0  0  0  0  0  0  0  0  0  0
  183.7410   22.4430   50.0330 C   0  0  0  0  0  0  0  0  0  0  0  0
  184.2420   22.0660   51.0910 O   0  0  0  0  0  0  0  0  0  0  0  0
  182.4700   21.8540   49.5520 C   0  0  0  0  0  0  0  0  0  0  0  0
  181.8850   20.8860   50.3500 O   0  0  0  0  0  0  0  0  0  0  0  0
  179.4450   22.1020   48.3990 C   0  0  0  0  0  0  0  0  0  0  0  0
  178.2400   21.6060   47.8700 C   0  0  0  0  0  0  0  0  0  0  0  0
  176.9830   21.9220   48.4380 N   0  0  0  0  0  0  0  0  0  0  0  0
  176.8790   23.3460   48.7990 C   0  0  0  0  0  0  0  0  0  0  0  0
  175.4330   23.6570   49.1840 C   0  0  0  0  0  0  0  0  0  0  0  0
  174.9480   22.7350   50.3020 C   0  0  0  0  0  0  0  0  0  0  0  0
  175.1640   21.2680   49.9320 C   0  0  0  0  0  0  0  0  0  0  0  0
  176.6160   21.0080   49.5310 C   0  0  0  0  0  0  0  0  0  0  0  0
  176.3360   19.9155   46.9428 H   0  0  0  0  0  0  0  0  0  0  0  0
  176.5444   20.9870   45.5162 H   0  0  0  0  0  0  0  0  0  0  0  0
  177.2644   19.3413   45.5162 H   0  0  0  0  0  0  0  0  0  0  0  0
  179.5645   19.7957   45.2806 H   0  0  0  0  0  0  0  0  0  0  0  0
  181.6731   20.6883   46.2417 H   0  0  0  0  0  0  0  0  0  0  0  0
  183.7720   25.1275   46.2793 H   0  0  0  0  0  0  0  0  0  0  0  0
  185.9233   26.2161   46.9290 H   0  0  0  0  0  0  0  0  0  0  0  0
  187.0722   25.5494   49.0426 H   0  0  0  0  0  0  0  0  0  0  0  0
  187.0610   24.1950   50.9060 H   0  0  0  0  0  0  0  0  0  0  0  0
  181.6190   21.0970   51.2230 H   0  0  0  0  0  0  0  0  0  0  0  0
  179.4139   22.7480   49.2888 H   0  0  0  0  0  0  0  0  0  0  0  0
  177.5416   23.5600   49.6505 H   0  0  0  0  0  0  0  0  0  0  0  0
  177.1782   23.9693   47.9434 H   0  0  0  0  0  0  0  0  0  0  0  0
  175.3694   24.7004   49.5265 H   0  0  0  0  0  0  0  0  0  0  0  0
  174.7959   23.4989   48.3013 H   0  0  0  0  0  0  0  0  0  0  0  0
  175.5068   22.9603   51.2223 H   0  0  0  0  0  0  0  0  0  0  0  0
  173.8718   22.9040   50.4546 H   0  0  0  0  0  0  0  0  0  0  0  0
  174.9126   20.6385   50.7983 H   0  0  0  0  0  0  0  0  0  0  0  0
  174.5171   21.0253   49.0761 H   0  0  0  0  0  0  0  0  0  0  0  0
  177.2741   21.1834   50.3948 H   0  0  0  0  0  0  0  0  0  0  0  0
  176.7280   19.9659   49.1970 H   0  0  0  0  0  0  0  0  0  0  0  0
  1  2  1  0
  2  3  2  0
  3  4  1  0
  4  5  2  0
  5  6  1  0
  6  7  1  0
  7  8  1  0
  8  9  2  0
  9 10  1  0
 10 11  2  0
 11 12  1  0
 12 13  1  0
 12 14  2  0
 14 15  1  0
 15 16  2  0
 15 17  1  0
 17 18  1  0
  5 19  1  0
 19 20  2  0
 20 21  1  0
 21 22  1  0
 22 23  1  0
 23 24  1  0
 24 25  1  0
 25 26  1  0
 20  2  1  0
 26 21  1  0
 17  6  2  0
 14  8  1  0
  1 27  1  0
  1 28  1  0
  1 29  1  0
  3 30  1  0
  4 31  1  0
  9 32  1  0
 10 33  1  0
 11 34  1  0
 13 35  1  0
 18 36  1  0
 19 37  1  0
 22 38  1  0
 22 39  1  0
 23 40  1  0
 23 41  1  0
 24 42  1  0
 24 43  1  0
 25 44  1  0
 25 45  1  0
 26 46  1  0
 26 47  1  0
M  END
>  <meeko>  (3) 
{"is_sidechain": [false], "free_energy": -7.672, "intermolecular_energy": -8.782, "internal_energy": -0.654}

$$$$
cand_006_out
     RDKit          3D

 47 50  0  0  0  0  0  0  0  0999 V2000
  174.9240   23.7350   53.1670 C   0  0  0  0  0  0  0  0  0  0  0  0
  175.7060   23.1560   52.0190 C   0  0  0  0  0  0  0  0  0  0  0  0
  176.8840   22.4410   52.2720 C   0  0  0  0  0  0  0  0  0  0  0  0
  177.6240   21.8930   51.2230 C   0  0  0  0  0  0  0  0  0  0  0  0
  177.2000   22.0400   49.8970 C   0  0  0  0  0  0  0  0  0  0  0  0
  178.0100   21.4740   48.7980 C   0  0  0  0  0  0  0  0  0  0  0  0
  179.2910   22.0100   48.7380 O   0  0  0  0  0  0  0  0  0  0  0  0
  180.1510   21.5710   47.7650 C   0  0  0  0  0  0  0  0  0  0  0  0
  181.4210   22.1480   47.7340 C   0  0  0  0  0  0  0  0  0  0  0  0
  182.3460   21.7460   46.7680 C   0  0  0  0  0  0  0  0  0  0  0  0
  182.0000   20.7670   45.8340 C   0  0  0  0  0  0  0  0  0  0  0  0
  180.7330   20.1920   45.8670 C   0  0  0  0  0  0  0  0  0  0  0  0
  180.4620   19.2390   44.9240 O   0  0  0  0  0  0  0  0  0  0  0  0
  179.8070   20.5970   46.8330 C   0  0  0  0  0  0  0  0  0  0  0  0
  178.4640   20.0190   46.9030 C   0  0  0  0  0  0  0  0  0  0  0  0
  178.0880   19.1480   46.1210 O   0  0  0  0  0  0  0  0  0  0  0  0
  177.5560   20.5220   47.9610 C   0  0  0  0  0  0  0  0  0  0  0  0
  176.2950   19.9590   48.0250 O   0  0  0  0  0  0  0  0  0  0  0  0
  176.0260   22.7670   49.6480 C   0  0  0  0  0  0  0  0  0  0  0  0
  175.2660   23.3250   50.6920 C   0  0  0  0  0  0  0  0  0  0  0  0
  174.0740   24.0470   50.4510 N   0  0  0  0  0  0  0  0  0  0  0  0
  173.1750   23.3420   49.5210 C   0  0  0  0  0  0  0  0  0  0  0  0
  171.8260   24.0610   49.4910 C   0  0  0  0  0  0  0  0  0  0  0  0
  171.9940   25.5370   49.1330 C   0  0  0  0  0  0  0  0  0  0  0  0
  173.0090   26.2110   50.0560 C   0  0  0  0  0  0  0  0  0  0  0  0
  174.3320   25.4460   50.0740 C   0  0  0  0  0  0  0  0  0  0  0  0
  175.3693   23.4053   54.1173 H   0  0  0  0  0  0  0  0  0  0  0  0
  174.9500   24.8333   53.1114 H   0  0  0  0  0  0  0  0  0  0  0  0
  173.8811   23.3896   53.1114 H   0  0  0  0  0  0  0  0  0  0  0  0
  177.2293   22.3101   53.3082 H   0  0  0  0  0  0  0  0  0  0  0  0
  178.5497   21.3400   51.4405 H   0  0  0  0  0  0  0  0  0  0  0  0
  181.6935   22.9189   48.4698 H   0  0  0  0  0  0  0  0  0  0  0  0
  183.3474   22.2006   46.7428 H   0  0  0  0  0  0  0  0  0  0  0  0
  182.7284   20.4506   45.0728 H   0  0  0  0  0  0  0  0  0  0  0  0
  181.0030   19.1660   44.1640 H   0  0  0  0  0  0  0  0  0  0  0  0
  175.6450   20.1930   47.3910 H   0  0  0  0  0  0  0  0  0  0  0  0
  175.6911   22.9042   48.6092 H   0  0  0  0  0  0  0  0  0  0  0  0
  173.6147   23.3408   48.5127 H   0  0  0  0  0  0  0  0  0  0  0  0
  173.0351   22.3034   49.8552 H   0  0  0  0  0  0  0  0  0  0  0  0
  171.1803   23.5811   48.7408 H   0  0  0  0  0  0  0  0  0  0  0  0
  171.3738   23.9947   50.4916 H   0  0  0  0  0  0  0  0  0  0  0  0
  172.3439   25.6177   48.0932 H   0  0  0  0  0  0  0  0  0  0  0  0
  171.0230   26.0399   49.2522 H   0  0  0  0  0  0  0  0  0  0  0  0
  173.1918   27.2359   49.7009 H   0  0  0  0  0  0  0  0  0  0  0  0
  172.5987   26.2219   51.0766 H   0  0  0  0  0  0  0  0  0  0  0  0
  174.7906   25.4797   49.0747 H   0  0  0  0  0  0  0  0  0  0  0  0
  175.0163   25.9060   50.8022 H   0  0  0  0  0  0  0  0  0  0  0  0
  1  2  1  0
  2  3  2  0
  3  4  1  0
  4  5  2  0
  5  6  1  0
  6  7  1  0
  7  8  1  0
  8  9  2  0
  9 10  1  0
 10 11  2  0
 11 12  1  0
 12 13  1  0
 12 14  2  0
 14 15  1  0
 15 16  2  0
 15 17  1  0
 17 18  1  0
  5 19  1  0
 19 20  2  0
 20 21  1  0
 21 22  1  0
 22 23  1  0
 23 24  1  0
 24 25  1  0
 25 26  1  0
 20  2  1  0
 26 21  1  0
 17  6  2  0
 14  8  1  0
  1 27  1  0
  1 28  1  0
  1 29  1  0
  3 30  1  0
  4 31  1  0
  9 32  1  0
 10 33  1  0
 11 34  1  0
 13 35  1  0
 18 36  1  0
 19 37  1  0
 22 38  1  0
 22 39  1  0
 23 40  1  0
 23 41  1  0
 24 42  1  0
 24 43  1  0
 25 44  1  0
 25 45  1  0
 26 46  1  0
 26 47  1  0
M  END
>  <meeko>  (4) 
{"is_sidechain": [false], "free_energy": -7.651, "intermolecular_energy": -8.784, "internal_energy": -0.628}

$$$$
cand_006_out
     RDKit          3D

 47 50  0  0  0  0  0  0  0  0999 V2000
  181.4610   20.8050   45.9420 C   0  0  0  0  0  0  0  0  0  0  0  0
  180.4600   21.2520   46.9730 C   0  0  0  0  0  0  0  0  0  0  0  0
  179.2210   20.6050   47.0650 C   0  0  0  0  0  0  0  0  0  0  0  0
  178.2800   21.0010   48.0160 C   0  0  0  0  0  0  0  0  0  0  0  0
  178.5570   22.0480   48.9030 C   0  0  0  0  0  0  0  0  0  0  0  0
  177.5370   22.4690   49.8870 C   0  0  0  0  0  0  0  0  0  0  0  0
  176.4090   23.0240   49.2920 O   0  0  0  0  0  0  0  0  0  0  0  0
  175.3820   23.4560   50.0910 C   0  0  0  0  0  0  0  0  0  0  0  0
  174.2770   24.0200   49.4520 C   0  0  0  0  0  0  0  0  0  0  0  0
  173.1960   24.4810   50.2070 C   0  0  0  0  0  0  0  0  0  0  0  0
  173.2200   24.3760   51.6000 C   0  0  0  0  0  0  0  0  0  0  0  0
  174.3240   23.8120   52.2350 C   0  0  0  0  0  0  0  0  0  0  0  0
  174.2810   23.7400   53.6000 O   0  0  0  0  0  0  0  0  0  0  0  0
  175.4060   23.3540   51.4780 C   0  0  0  0  0  0  0  0  0  0  0  0
  176.5850   22.7550   52.1060 C   0  0  0  0  0  0  0  0  0  0  0  0
  176.6780   22.6220   53.3240 O   0  0  0  0  0  0  0  0  0  0  0  0
  177.6810   22.3070   51.2150 C   0  0  0  0  0  0  0  0  0  0  0  0
  178.7850   21.7310   51.8190 O   0  0  0  0  0  0  0  0  0  0  0  0
  179.7940   22.7000   48.8000 C   0  0  0  0  0  0  0  0  0  0  0  0
  180.7570   22.3140   47.8490 C   0  0  0  0  0  0  0  0  0  0  0  0
  182.0130   22.9580   47.7480 N   0  0  0  0  0  0  0  0  0  0  0  0
  182.9680   22.4750   48.7590 C   0  0  0  0  0  0  0  0  0  0  0  0
  184.3540   23.0370   48.4440 C   0  0  0  0  0  0  0  0  0  0  0  0
  184.3240   24.5630   48.3510 C   0  0  0  0  0  0  0  0  0  0  0  0
  183.2520   25.0290   47.3650 C   0  0  0  0  0  0  0  0  0  0  0  0
  181.8900   24.4230   47.7040 C   0  0  0  0  0  0  0  0  0  0  0  0
  182.3536   20.4064   46.4463 H   0  0  0  0  0  0  0  0  0  0  0  0
  181.0143   20.0209   45.3131 H   0  0  0  0  0  0  0  0  0  0  0  0
  181.7467   21.6610   45.3131 H   0  0  0  0  0  0  0  0  0  0  0  0
  178.9875   19.7762   46.3804 H   0  0  0  0  0  0  0  0  0  0  0  0
  177.3100   20.4850   48.0694 H   0  0  0  0  0  0  0  0  0  0  0  0
  174.2573   24.1014   48.3552 H   0  0  0  0  0  0  0  0  0  0  0  0
  172.3251   24.9271   49.7044 H   0  0  0  0  0  0  0  0  0  0  0  0
  172.3683   24.7382   52.1944 H   0  0  0  0  0  0  0  0  0  0  0  0
  174.6170   24.4450   54.1170 H   0  0  0  0  0  0  0  0  0  0  0  0
  178.7760   20.8210   52.0400 H   0  0  0  0  0  0  0  0  0  0  0  0
  180.0177   23.5350   49.4802 H   0  0  0  0  0  0  0  0  0  0  0  0
  182.6511   22.8130   49.7567 H   0  0  0  0  0  0  0  0  0  0  0  0
  183.0008   21.3756   48.7435 H   0  0  0  0  0  0  0  0  0  0  0  0
  185.0513   22.7398   49.2411 H   0  0  0  0  0  0  0  0  0  0  0  0
  184.6804   22.6353   47.4734 H   0  0  0  0  0  0  0  0  0  0  0  0
  184.1047   24.9801   49.3450 H   0  0  0  0  0  0  0  0  0  0  0  0
  185.3044   24.9126   47.9952 H   0  0  0  0  0  0  0  0  0  0  0  0
  183.1776   26.1257   47.4073 H   0  0  0  0  0  0  0  0  0  0  0  0
  183.5392   24.6991   46.3557 H   0  0  0  0  0  0  0  0  0  0  0  0
  181.5552   24.7942   48.6839 H   0  0  0  0  0  0  0  0  0  0  0  0
  181.1552   24.7105   46.9376 H   0  0  0  0  0  0  0  0  0  0  0  0
  1  2  1  0
  2  3  2  0
  3  4  1  0
  4  5  2  0
  5  6  1  0
  6  7  1  0
  7  8  1  0
  8  9  2  0
  9 10  1  0
 10 11  2  0
 11 12  1  0
 12 13  1  0
 12 14  2  0
 14 15  1  0
 15 16  2  0
 15 17  1  0
 17 18  1  0
  5 19  1  0
 19 20  2  0
 20 21  1  0
 21 22  1  0
 22 23  1  0
 23 24  1  0
 24 25  1  0
 25 26  1  0
 20  2  1  0
 26 21  1  0
 17  6  2  0
 14  8  1  0
  1 27  1  0
  1 28  1  0
  1 29  1  0
  3 30  1  0
  4 31  1  0
  9 32  1  0
 10 33  1  0
 11 34  1  0
 13 35  1  0
 18 36  1  0
 19 37  1  0
 22 38  1  0
 22 39  1  0
 23 40  1  0
 23 41  1  0
 24 42  1  0
 24 43  1  0
 25 44  1  0
 25 45  1  0
 26 46  1  0
 26 47  1  0
M  END
>  <meeko>  (5) 
{"is_sidechain": [false], "free_energy": -7.617, "intermolecular_energy": -8.684, "internal_energy": -0.687}

$$$$
cand_006_out
     RDKit          3D

 47 50  0  0  0  0  0  0  0  0999 V2000
  180.8670   21.3180   50.2000 C   0  0  0  0  0  0  0  0  0  0  0  0
  179.4890   21.9140   50.0900 C   0  0  0  0  0  0  0  0  0  0  0  0
  178.9680   22.6590   51.1560 C   0  0  0  0  0  0  0  0  0  0  0  0
  177.6940   23.2240   51.0740 C   0  0  0  0  0  0  0  0  0  0  0  0
  176.9140   23.0620   49.9230 C   0  0  0  0  0  0  0  0  0  0  0  0
  175.5570   23.6470   49.8650 C   0  0  0  0  0  0  0  0  0  0  0  0
  175.5520   25.0220   50.0700 O   0  0  0  0  0  0  0  0  0  0  0  0
  174.3570   25.6930   50.0410 C   0  0  0  0  0  0  0  0  0  0  0  0
  174.3980   27.0700   50.2660 C   0  0  0  0  0  0  0  0  0  0  0  0
  173.2170   27.8140   50.2500 C   0  0  0  0  0  0  0  0  0  0  0  0
  171.9960   27.1820   50.0070 C   0  0  0  0  0  0  0  0  0  0  0  0
  171.9570   25.8090   49.7820 C   0  0  0  0  0  0  0  0  0  0  0  0
  170.7280   25.2550   49.5510 O   0  0  0  0  0  0  0  0  0  0  0  0
  173.1400   25.0640   49.8010 C   0  0  0  0  0  0  0  0  0  0  0  0
  173.1440   23.6190   49.5690 C   0  0  0  0  0  0  0  0  0  0  0  0
  172.1110   22.9930   49.3420 O   0  0  0  0  0  0  0  0  0  0  0  0
  174.4510   22.9220   49.6170 C   0  0  0  0  0  0  0  0  0  0  0  0
  174.4430   21.5590   49.3840 O   0  0  0  0  0  0  0  0  0  0  0  0
  177.4360   22.3060   48.8630 C   0  0  0  0  0  0  0  0  0  0  0  0
  178.7180   21.7310   48.9260 C   0  0  0  0  0  0  0  0  0  0  0  0
  179.2570   20.9780   47.8570 N   0  0  0  0  0  0  0  0  0  0  0  0
  180.1330   21.7870   46.9930 C   0  0  0  0  0  0  0  0  0  0  0  0
  180.8540   20.8650   46.0100 C   0  0  0  0  0  0  0  0  0  0  0  0
  179.8590   20.0250   45.2090 C   0  0  0  0  0  0  0  0  0  0  0  0
  178.9040   19.2770   46.1380 C   0  0  0  0  0  0  0  0  0  0  0  0
  178.2240   20.2340   47.1180 C   0  0  0  0  0  0  0  0  0  0  0  0
  181.1331   21.2029   51.2611 H   0  0  0  0  0  0  0  0  0  0  0  0
  180.8809   20.3334   49.7096 H   0  0  0  0  0  0  0  0  0  0  0  0
  181.5940   21.9821   49.7096 H   0  0  0  0  0  0  0  0  0  0  0  0
  179.5687   22.8002   52.0666 H   0  0  0  0  0  0  0  0  0  0  0  0
  177.2992   23.8023   51.9224 H   0  0  0  0  0  0  0  0  0  0  0  0
  175.3601   27.5684   50.4557 H   0  0  0  0  0  0  0  0  0  0  0  0
  173.2483   28.8989   50.4290 H   0  0  0  0  0  0  0  0  0  0  0  0
  171.0656   27.7687   49.9934 H   0  0  0  0  0  0  0  0  0  0  0  0
  170.6240   24.3250   49.5600 H   0  0  0  0  0  0  0  0  0  0  0  0
  175.0070   21.1920   48.7310 H   0  0  0  0  0  0  0  0  0  0  0  0
  176.8268   22.1590   47.9589 H   0  0  0  0  0  0  0  0  0  0  0  0
  179.5283   22.5183   46.4366 H   0  0  0  0  0  0  0  0  0  0  0  0
  180.8707   22.3218   47.6093 H   0  0  0  0  0  0  0  0  0  0  0  0
  181.4489   21.4760   45.3152 H   0  0  0  0  0  0  0  0  0  0  0  0
  181.5030   20.1853   46.5817 H   0  0  0  0  0  0  0  0  0  0  0  0
  179.2766   20.6869   44.5511 H   0  0  0  0  0  0  0  0  0  0  0  0
  180.4196   19.2885   44.6147 H   0  0  0  0  0  0  0  0  0  0  0  0
  178.1340   18.7757   45.5332 H   0  0  0  0  0  0  0  0  0  0  0  0
  179.4836   18.5412   46.7147 H   0  0  0  0  0  0  0  0  0  0  0  0
  177.5877   20.9392   46.5632 H   0  0  0  0  0  0  0  0  0  0  0  0
  177.6015   19.6633   47.8229 H   0  0  0  0  0  0  0  0  0  0  0  0
  1  2  1  0
  2  3  2  0
  3  4  1  0
  4  5  2  0
  5  6  1  0
  6  7  1  0
  7  8  1  0
  8  9  2  0
  9 10  1  0
 10 11  2  0
 11 12  1  0
 12 13  1  0
 12 14  2  0
 14 15  1  0
 15 16  2  0
 15 17  1  0
 17 18  1  0
  5 19  1  0
 19 20  2  0
 20 21  1  0
 21 22  1  0
 22 23  1  0
 23 24  1  0
 24 25  1  0
 25 26  1  0
 20  2  1  0
 26 21  1  0
 17  6  2  0
 14  8  1  0
  1 27  1  0
  1 28  1  0
  1 29  1  0
  3 30  1  0
  4 31  1  0
  9 32  1  0
 10 33  1  0
 11 34  1  0
 13 35  1  0
 18 36  1  0
 19 37  1  0
 22 38  1  0
 22 39  1  0
 23 40  1  0
 23 41  1  0
 24 42  1  0
 24 43  1  0
 25 44  1  0
 25 45  1  0
 26 46  1  0
 26 47  1  0
M  END
>  <meeko>  (6) 
{"is_sidechain": [false], "free_energy": -7.606, "intermolecular_energy": -8.976, "internal_energy": -0.383}

$$$$
cand_006_out
     RDKit          3D

 47 50  0  0  0  0  0  0  0  0999 V2000
  185.4740   23.0010   49.3600 C   0  0  0  0  0  0  0  0  0  0  0  0
  183.9990   22.7070   49.3590 C   0  0  0  0  0  0  0  0  0  0  0  0
  183.3580   22.3600   50.5560 C   0  0  0  0  0  0  0  0  0  0  0  0
  181.9900   22.0860   50.5780 C   0  0  0  0  0  0  0  0  0  0  0  0
  181.2280   22.1590   49.4060 C   0  0  0  0  0  0  0  0  0  0  0  0
  179.7850   21.8410   49.4460 C   0  0  0  0  0  0  0  0  0  0  0  0
  179.2690   21.5140   48.1970 O   0  0  0  0  0  0  0  0  0  0  0  0
  177.9390   21.1950   48.0900 C   0  0  0  0  0  0  0  0  0  0  0  0
  177.4620   20.8890   46.8150 C   0  0  0  0  0  0  0  0  0  0  0  0
  176.1180   20.5550   46.6360 C   0  0  0  0  0  0  0  0  0  0  0  0
  175.2520   20.5270   47.7320 C   0  0  0  0  0  0  0  0  0  0  0  0
  175.7310   20.8330   49.0030 C   0  0  0  0  0  0  0  0  0  0  0  0
  174.8300   20.7850   50.0310 O   0  0  0  0  0  0  0  0  0  0  0  0
  177.0770   21.1690   49.1810 C   0  0  0  0  0  0  0  0  0  0  0  0
  177.6210   21.4970   50.4990 C   0  0  0  0  0  0  0  0  0  0  0  0
  176.9240   21.4870   51.5120 O   0  0  0  0  0  0  0  0  0  0  0  0
  179.0580   21.8460   50.5790 C   0  0  0  0  0  0  0  0  0  0  0  0
  179.5640   22.1420   51.8320 O   0  0  0  0  0  0  0  0  0  0  0  0
  181.8750   22.4950   48.2080 C   0  0  0  0  0  0  0  0  0  0  0  0
  183.2530   22.7770   48.1650 C   0  0  0  0  0  0  0  0  0  0  0  0
  183.9110   23.1300   46.9640 N   0  0  0  0  0  0  0  0  0  0  0  0
  183.7760   24.5640   46.6570 C   0  0  0  0  0  0  0  0  0  0  0  0
  184.6950   24.9120   45.4860 C   0  0  0  0  0  0  0  0  0  0  0  0
  184.4070   24.0260   44.2750 C   0  0  0  0  0  0  0  0  0  0  0  0
  184.4580   22.5460   44.6550 C   0  0  0  0  0  0  0  0  0  0  0  0
  183.5440   22.2490   45.8440 C   0  0  0  0  0  0  0  0  0  0  0  0
  185.8329   23.0725   50.3973 H   0  0  0  0  0  0  0  0  0  0  0  0
  186.0095   22.1919   48.8417 H   0  0  0  0  0  0  0  0  0  0  0  0
  185.6584   23.9536   48.8417 H   0  0  0  0  0  0  0  0  0  0  0  0
  183.9395   22.3030   51.4880 H   0  0  0  0  0  0  0  0  0  0  0  0
  181.5054   21.8098   51.5261 H   0  0  0  0  0  0  0  0  0  0  0  0
  178.1437   20.9108   45.9520 H   0  0  0  0  0  0  0  0  0  0  0  0
  175.7408   20.3137   45.6313 H   0  0  0  0  0  0  0  0  0  0  0  0
  174.1934   20.2636   47.5910 H   0  0  0  0  0  0  0  0  0  0  0  0
  174.3560   21.5560   50.2740 H   0  0  0  0  0  0  0  0  0  0  0  0
  180.1660   22.8510   51.9380 H   0  0  0  0  0  0  0  0  0  0  0  0
  181.2900   22.5393   47.2775 H   0  0  0  0  0  0  0  0  0  0  0  0
  182.7334   24.7864   46.3860 H   0  0  0  0  0  0  0  0  0  0  0  0
  184.0555   25.1602   47.5382 H   0  0  0  0  0  0  0  0  0  0  0  0
  184.5371   25.9641   45.2064 H   0  0  0  0  0  0  0  0  0  0  0  0
  185.7363   24.7458   45.7993 H   0  0  0  0  0  0  0  0  0  0  0  0
  183.4060   24.2632   43.8856 H   0  0  0  0  0  0  0  0  0  0  0  0
  185.1734   24.2181   43.5097 H   0  0  0  0  0  0  0  0  0  0  0  0
  184.1340   21.9430   43.7939 H   0  0  0  0  0  0  0  0  0  0  0  0
  185.4907   22.2943   44.9380 H   0  0  0  0  0  0  0  0  0  0  0  0
  182.4974   22.4318   45.5590 H   0  0  0  0  0  0  0  0  0  0  0  0
  183.6583   21.1975   46.1462 H   0  0  0  0  0  0  0  0  0  0  0  0
  1  2  1  0
  2  3  2  0
  3  4  1  0
  4  5  2  0
  5  6  1  0
  6  7  1  0
  7  8  1  0
  8  9  2  0
  9 10  1  0
 10 11  2  0
 11 12  1  0
 12 13  1  0
 12 14  2  0
 14 15  1  0
 15 16  2  0
 15 17  1  0
 17 18  1  0
  5 19  1  0
 19 20  2  0
 20 21  1  0
 21 22  1  0
 22 23  1  0
 23 24  1  0
 24 25  1  0
 25 26  1  0
 20  2  1  0
 26 21  1  0
 17  6  2  0
 14  8  1  0
  1 27  1  0
  1 28  1  0
  1 29  1  0
  3 30  1  0
  4 31  1  0
  9 32  1  0
 10 33  1  0
 11 34  1  0
 13 35  1  0
 18 36  1  0
 19 37  1  0
 22 38  1  0
 22 39  1  0
 23 40  1  0
 23 41  1  0
 24 42  1  0
 24 43  1  0
 25 44  1  0
 25 45  1  0
 26 46  1  0
 26 47  1  0
M  END
>  <meeko>  (7) 
{"is_sidechain": [false], "free_energy": -7.448, "intermolecular_energy": -9.077, "internal_energy": -0.095}

$$$$
cand_006_out
     RDKit          3D

 47 50  0  0  0  0  0  0  0  0999 V2000
  175.2840   25.9440   54.0170 C   0  0  0  0  0  0  0  0  0  0  0  0
  175.5590   24.9730   52.9000 C   0  0  0  0  0  0  0  0  0  0  0  0
  176.3520   23.8430   53.1420 C   0  0  0  0  0  0  0  0  0  0  0  0
  176.6160   22.9270   52.1230 C   0  0  0  0  0  0  0  0  0  0  0  0
  176.0900   23.1160   50.8390 C   0  0  0  0  0  0  0  0  0  0  0  0
  176.4020   22.1480   49.7660 C   0  0  0  0  0  0  0  0  0  0  0  0
  177.5770   22.4530   49.0880 O   0  0  0  0  0  0  0  0  0  0  0  0
  177.9870   21.6350   48.0670 C   0  0  0  0  0  0  0  0  0  0  0  0
  179.1640   21.9880   47.4050 C   0  0  0  0  0  0  0  0  0  0  0  0
  179.6370   21.1980   46.3560 C   0  0  0  0  0  0  0  0  0  0  0  0
  178.9350   20.0540   45.9710 C   0  0  0  0  0  0  0  0  0  0  0  0
  177.7610   19.7030   46.6330 C   0  0  0  0  0  0  0  0  0  0  0  0
  177.1250   18.5710   46.2040 O   0  0  0  0  0  0  0  0  0  0  0  0
  177.2870   20.4960   47.6820 C   0  0  0  0  0  0  0  0  0  0  0  0
  176.0590   20.1630   48.4040 C   0  0  0  0  0  0  0  0  0  0  0  0
  175.3890   19.1700   48.1280 O   0  0  0  0  0  0  0  0  0  0  0  0
  175.6380   21.0730   49.4950 C   0  0  0  0  0  0  0  0  0  0  0  0
  174.4830   20.7420   50.1790 O   0  0  0  0  0  0  0  0  0  0  0  0
  175.3060   24.2540   50.5990 C   0  0  0  0  0  0  0  0  0  0  0  0
  175.0260   25.1870   51.6140 C   0  0  0  0  0  0  0  0  0  0  0  0
  174.2260   26.3300   51.3840 N   0  0  0  0  0  0  0  0  0  0  0  0
  172.8280   25.9780   51.0840 C   0  0  0  0  0  0  0  0  0  0  0  0
  171.9830   27.2530   51.0780 C   0  0  0  0  0  0  0  0  0  0  0  0
  172.5480   28.2850   50.1020 C   0  0  0  0  0  0  0  0  0  0  0  0
  174.0270   28.5500   50.3830 C   0  0  0  0  0  0  0  0  0  0  0  0
  174.8270   27.2470   50.4030 C   0  0  0  0  0  0  0  0  0  0  0  0
  175.4267   25.4401   54.9843 H   0  0  0  0  0  0  0  0  0  0  0  0
  175.9763   26.7955   53.9414 H   0  0  0  0  0  0  0  0  0  0  0  0
  174.2480   26.3060   53.9414 H   0  0  0  0  0  0  0  0  0  0  0  0
  176.7706   23.6765   54.1455 H   0  0  0  0  0  0  0  0  0  0  0  0
  177.2435   22.0477   52.3304 H   0  0  0  0  0  0  0  0  0  0  0  0
  179.7183   22.8879   47.7097 H   0  0  0  0  0  0  0  0  0  0  0  0
  180.5633   21.4768   45.8323 H   0  0  0  0  0  0  0  0  0  0  0  0
  179.3089   19.4305   45.1455 H   0  0  0  0  0  0  0  0  0  0  0  0
  176.7020   18.5590   45.3690 H   0  0  0  0  0  0  0  0  0  0  0  0
  174.1820   19.8550   50.1870 H   0  0  0  0  0  0  0  0  0  0  0  0
  174.8994   24.4213   49.5907 H   0  0  0  0  0  0  0  0  0  0  0  0
  172.7731   25.4947   50.0974 H   0  0  0  0  0  0  0  0  0  0  0  0
  172.4476   25.2840   51.8480 H   0  0  0  0  0  0  0  0  0  0  0  0
  170.9550   27.0009   50.7786 H   0  0  0  0  0  0  0  0  0  0  0  0
  171.9970   27.6853   52.0894 H   0  0  0  0  0  0  0  0  0  0  0  0
  172.4388   27.9067   49.0749 H   0  0  0  0  0  0  0  0  0  0  0  0
  171.9928   29.2265   50.2261 H   0  0  0  0  0  0  0  0  0  0  0  0
  174.4296   29.2065   49.5976 H   0  0  0  0  0  0  0  0  0  0  0  0
  174.1143   29.0281   51.3698 H   0  0  0  0  0  0  0  0  0  0  0  0
  174.8046   26.7853   49.4048 H   0  0  0  0  0  0  0  0  0  0  0  0
  175.8705   27.4562   50.6811 H   0  0  0  0  0  0  0  0  0  0  0  0
  1  2  1  0
  2  3  2  0
  3  4  1  0
  4  5  2  0
  5  6  1  0
  6  7  1  0
  7  8  1  0
  8  9  2  0
  9 10  1  0
 10 11  2  0
 11 12  1  0
 12 13  1  0
 12 14  2  0
 14 15  1  0
 15 16  2  0
 15 17  1  0
 17 18  1  0
  5 19  1  0
 19 20  2  0
 20 21  1  0
 21 22  1  0
 22 23  1  0
 23 24  1  0
 24 25  1  0
 25 26  1  0
 20  2  1  0
 26 21  1  0
 17  6  2  0
 14  8  1  0
  1 27  1  0
  1 28  1  0
  1 29  1  0
  3 30  1  0
  4 31  1  0
  9 32  1  0
 10 33  1  0
 11 34  1  0
 13 35  1  0
 18 36  1  0
 19 37  1  0
 22 38  1  0
 22 39  1  0
 23 40  1  0
 23 41  1  0
 24 42  1  0
 24 43  1  0
 25 44  1  0
 25 45  1  0
 26 46  1  0
 26 47  1  0
M  END
>  <meeko>  (8) 
{"is_sidechain": [false], "free_energy": -7.313, "intermolecular_energy": -8.214, "internal_energy": -0.8}

$$$$
cand_006_out
     RDKit          3D

 47 50  0  0  0  0  0  0  0  0999 V2000
  185.1050   23.6300   48.7270 C   0  0  0  0  0  0  0  0  0  0  0  0
  183.6700   23.2190   48.9190 C   0  0  0  0  0  0  0  0  0  0  0  0
  183.2760   21.9090   48.6160 C   0  0  0  0  0  0  0  0  0  0  0  0
  181.9520   21.5050   48.7900 C   0  0  0  0  0  0  0  0  0  0  0  0
  180.9910   22.3990   49.2760 C   0  0  0  0  0  0  0  0  0  0  0  0
  179.5880   21.9600   49.4300 C   0  0  0  0  0  0  0  0  0  0  0  0
  178.9550   21.7350   48.2120 O   0  0  0  0  0  0  0  0  0  0  0  0
  177.6480   21.3210   48.2090 C   0  0  0  0  0  0  0  0  0  0  0  0
  177.0500   21.1220   46.9640 C   0  0  0  0  0  0  0  0  0  0  0  0
  175.7210   20.7000   46.8890 C   0  0  0  0  0  0  0  0  0  0  0  0
  174.9910   20.4760   48.0590 C   0  0  0  0  0  0  0  0  0  0  0  0
  175.5910   20.6750   49.3000 C   0  0  0  0  0  0  0  0  0  0  0  0
  174.8190   20.4370   50.4030 O   0  0  0  0  0  0  0  0  0  0  0  0
  176.9210   21.0990   49.3730 C   0  0  0  0  0  0  0  0  0  0  0  0
  177.5880   21.3200   50.6570 C   0  0  0  0  0  0  0  0  0  0  0  0
  177.0160   21.1380   51.7290 O   0  0  0  0  0  0  0  0  0  0  0  0
  178.9980   21.7770   50.6260 C   0  0  0  0  0  0  0  0  0  0  0  0
  179.6220   21.9700   51.8450 O   0  0  0  0  0  0  0  0  0  0  0  0
  181.3870   23.7130   49.5680 C   0  0  0  0  0  0  0  0  0  0  0  0
  182.7180   24.1380   49.4010 C   0  0  0  0  0  0  0  0  0  0  0  0
  183.1290   25.4570   49.7050 N   0  0  0  0  0  0  0  0  0  0  0  0
  183.1760   25.7040   51.1560 C   0  0  0  0  0  0  0  0  0  0  0  0
  183.8440   27.0550   51.4100 C   0  0  0  0  0  0  0  0  0  0  0  0
  183.1320   28.1750   50.6500 C   0  0  0  0  0  0  0  0  0  0  0  0
  183.0150   27.8370   49.1640 C   0  0  0  0  0  0  0  0  0  0  0  0
  182.3650   26.4680   48.9590 C   0  0  0  0  0  0  0  0  0  0  0  0
  185.5818   23.7666   49.7088 H   0  0  0  0  0  0  0  0  0  0  0  0
  185.6383   22.8485   48.1659 H   0  0  0  0  0  0  0  0  0  0  0  0
  185.1437   24.5753   48.1659 H   0  0  0  0  0  0  0  0  0  0  0  0
  184.0185   21.1914   48.2369 H   0  0  0  0  0  0  0  0  0  0  0  0
  181.6605   20.4736   48.5428 H   0  0  0  0  0  0  0  0  0  0  0  0
  177.6249   21.2974   46.0427 H   0  0  0  0  0  0  0  0  0  0  0  0
  175.2485   20.5438   45.9080 H   0  0  0  0  0  0  0  0  0  0  0  0
  173.9442   20.1431   48.0001 H   0  0  0  0  0  0  0  0  0  0  0  0
  173.9500   20.7810   50.4500 H   0  0  0  0  0  0  0  0  0  0  0  0
  179.9590   22.8140   52.0700 H   0  0  0  0  0  0  0  0  0  0  0  0
  180.6379   24.4291   49.9369 H   0  0  0  0  0  0  0  0  0  0  0  0
  182.1534   25.7163   51.5612 H   0  0  0  0  0  0  0  0  0  0  0  0
  183.7508   24.9068   51.6500 H   0  0  0  0  0  0  0  0  0  0  0  0
  183.8108   27.2749   52.4873 H   0  0  0  0  0  0  0  0  0  0  0  0
  184.8845   27.0012   51.0572 H   0  0  0  0  0  0  0  0  0  0  0  0
  182.1240   28.3103   51.0690 H   0  0  0  0  0  0  0  0  0  0  0  0
  183.7190   29.0993   50.7550 H   0  0  0  0  0  0  0  0  0  0  0  0
  182.4011   28.6037   48.6687 H   0  0  0  0  0  0  0  0  0  0  0  0
  184.0260   27.8114   48.7314 H   0  0  0  0  0  0  0  0  0  0  0  0
  181.3289   26.4931   49.3277 H   0  0  0  0  0  0  0  0  0  0  0  0
  182.3620   26.2153   47.8884 H   0  0  0  0  0  0  0  0  0  0  0  0
  1  2  1  0
  2  3  2  0
  3  4  1  0
  4  5  2  0
  5  6  1  0
  6  7  1  0
  7  8  1  0
  8  9  2  0
  9 10  1  0
 10 11  2  0
 11 12  1  0
 12 13  1  0
 12 14  2  0
 14 15  1  0
 15 16  2  0
 15 17  1  0
 17 18  1  0
  5 19  1  0
 19 20  2  0
 20 21  1  0
 21 22  1  0
 22 23  1  0
 23 24  1  0
 24 25  1  0
 25 26  1  0
 20  2  1  0
 26 21  1  0
 17  6  2  0
 14  8  1  0
  1 27  1  0
  1 28  1  0
  1 29  1  0
  3 30  1  0
  4 31  1  0
  9 32  1  0
 10 33  1  0
 11 34  1  0
 13 35  1  0
 18 36  1  0
 19 37  1  0
 22 38  1  0
 22 39  1  0
 23 40  1  0
 23 41  1  0
 24 42  1  0
 24 43  1  0
 25 44  1  0
 25 45  1  0
 26 46  1  0
 26 47  1  0
M  END
>  <meeko>  (9) 
{"is_sidechain": [false], "free_energy": -7.297, "intermolecular_energy": -8.259, "internal_energy": -0.736}

$$$$
