cand_007_out
     RDKit          3D

 35 37  0  0  0  0  0  0  0  0999 V2000
  171.0540   23.7600   51.6540 O   0  0  0  0  0  0  0  0  0  0  0  0
  172.2740   23.6300   51.7330 C   0  0  0  0  0  0  0  0  0  0  0  0
  173.0440   23.0740   50.5960 C   0  0  0  0  0  0  0  0  0  0  0  0
  172.3290   22.7050   49.4720 O   0  0  0  0  0  0  0  0  0  0  0  0
  174.3780   22.9460   50.7250 C   0  0  0  0  0  0  0  0  0  0  0  0
  175.2450   22.3930   49.6630 C   0  0  0  0  0  0  0  0  0  0  0  0
  176.1580   23.1920   48.9670 C   0  0  0  0  0  0  0  0  0  0  0  0
  176.9820   22.6430   47.9810 C   0  0  0  0  0  0  0  0  0  0  0  0
  176.9190   21.2750   47.6670 C   0  0  0  0  0  0  0  0  0  0  0  0
  177.8250   20.7110   46.5940 C   0  0  0  0  0  0  0  0  0  0  0  0
  177.1430   20.3900   45.4600 F   0  0  0  0  0  0  0  0  0  0  0  0
  178.7880   21.5940   46.2100 F   0  0  0  0  0  0  0  0  0  0  0  0
  178.4840   19.5790   46.9670 F   0  0  0  0  0  0  0  0  0  0  0  0
  176.0130   20.4520   48.3710 C   0  0  0  0  0  0  0  0  0  0  0  0
  175.8960   18.9740   48.0790 C   0  0  0  0  0  0  0  0  0  0  0  0
  175.1210   18.6980   46.9900 F   0  0  0  0  0  0  0  0  0  0  0  0
  175.1880   21.0250   49.3590 C   0  0  0  0  0  0  0  0  0  0  0  0
  175.0830   23.2970   51.8710 O   0  0  0  0  0  0  0  0  0  0  0  0
  174.3970   23.8180   52.9380 C   0  0  0  0  0  0  0  0  0  0  0  0
  175.1460   24.1640   54.0640 C   0  0  0  0  0  0  0  0  0  0  0  0
  174.5100   24.7000   55.1850 C   0  0  0  0  0  0  0  0  0  0  0  0
  173.1270   24.8900   55.1810 C   0  0  0  0  0  0  0  0  0  0  0  0
  172.3820   24.5440   54.0570 C   0  0  0  0  0  0  0  0  0  0  0  0
  171.0320   24.7560   54.1210 O   0  0  0  0  0  0  0  0  0  0  0  0
  173.0190   24.0080   52.9350 C   0  0  0  0  0  0  0  0  0  0  0  0
  172.3440   21.8150   49.1780 H   0  0  0  0  0  0  0  0  0  0  0  0
  176.2282   24.2651   49.1985 H   0  0  0  0  0  0  0  0  0  0  0  0
  177.6898   23.2909   47.4432 H   0  0  0  0  0  0  0  0  0  0  0  0
  176.9045   18.5726   47.9005 H   0  0  0  0  0  0  0  0  0  0  0  0
  175.4120   18.5075   48.9497 H   0  0  0  0  0  0  0  0  0  0  0  0
  174.4814   20.3833   49.9057 H   0  0  0  0  0  0  0  0  0  0  0  0
  176.2358   24.0145   54.0679 H   0  0  0  0  0  0  0  0  0  0  0  0
  175.0994   24.9730   56.0728 H   0  0  0  0  0  0  0  0  0  0  0  0
  172.6266   25.3125   56.0648 H   0  0  0  0  0  0  0  0  0  0  0  0
  170.6950   25.4890   54.5960 H   0  0  0  0  0  0  0  0  0  0  0  0
  1  2  2  0
  2  3  1  0
  3  4  1  0
  3  5  2  0
  5  6  1  0
  6  7  2  0
  7  8  1  0
  8  9  2  0
  9 10  1  0
 10 11  1  0
 10 12  1  0
 10 13  1  0
  9 14  1  0
 14 15  1  0
 15 16  1  0
 14 17  2  0
  5 18  1  0
 18 19  1  0
 19 20  2  0
 20 21  1  0
 21 22  2  0
 22 23  1  0
 23 24  1  0
 23 25  2  0
 25  2  1  0
 17  6  1  0
 25 19  1  0
  4 26  1  0
  7 27  1  0
  8 28  1  0
 15 29  1  0
 15 30  1  0
 17 31  1  0
 20 32  1  0
 21 33  1  0
 22 34  1  0
 24 35  1  0
M  END
>  <meeko>  (1) 
{"is_sidechain": [false], "free_energy": -7.687, "intermolecular_energy": -9.485, "internal_energy": -0.429}

$$$$
cand_007_out
     RDKit          3D

 35 37  0  0  0  0  0  0  0  0999 V2000
  176.6620   22.6420   53.2310 O   0  0  0  0  0  0  0  0  0  0  0  0
  176.4790   22.8050   52.0260 C   0  0  0  0  0  0  0  0  0  0  0  0
  177.4280   22.2380   51.0400 C   0  0  0  0  0  0  0  0  0  0  0  0
  178.5150   21.5440   51.5390 O   0  0  0  0  0  0  0  0  0  0  0  0
  177.1920   22.4410   49.7300 C   0  0  0  0  0  0  0  0  0  0  0  0
  178.0760   21.9350   48.6590 C   0  0  0  0  0  0  0  0  0  0  0  0
  179.2840   22.5650   48.3420 C   0  0  0  0  0  0  0  0  0  0  0  0
  180.1130   22.0570   47.3390 C   0  0  0  0  0  0  0  0  0  0  0  0
  179.7600   20.8970   46.6280 C   0  0  0  0  0  0  0  0  0  0  0  0
  180.6810   20.3720   45.5490 C   0  0  0  0  0  0  0  0  0  0  0  0
  180.0880   20.3690   44.3230 F   0  0  0  0  0  0  0  0  0  0  0  0
  181.8080   21.1240   45.4140 F   0  0  0  0  0  0  0  0  0  0  0  0
  181.1080   19.0960   45.7600 F   0  0  0  0  0  0  0  0  0  0  0  0
  178.5520   20.2400   46.9480 C   0  0  0  0  0  0  0  0  0  0  0  0
  178.1150   18.9900   46.2190 C   0  0  0  0  0  0  0  0  0  0  0  0
  176.7660   18.7880   46.2560 F   0  0  0  0  0  0  0  0  0  0  0  0
  177.7270   20.7700   47.9590 C   0  0  0  0  0  0  0  0  0  0  0  0
  176.1090   23.1640   49.2410 O   0  0  0  0  0  0  0  0  0  0  0  0
  175.2110   23.6950   50.1310 C   0  0  0  0  0  0  0  0  0  0  0  0
  174.1350   24.4050   49.5950 C   0  0  0  0  0  0  0  0  0  0  0  0
  173.1830   24.9730   50.4450 C   0  0  0  0  0  0  0  0  0  0  0  0
  173.3080   24.8320   51.8280 C   0  0  0  0  0  0  0  0  0  0  0  0
  174.3820   24.1240   52.3600 C   0  0  0  0  0  0  0  0  0  0  0  0
  174.4430   24.0250   53.7230 O   0  0  0  0  0  0  0  0  0  0  0  0
  175.3340   23.5550   51.5090 C   0  0  0  0  0  0  0  0  0  0  0  0
  178.7510   21.6290   52.4420 H   0  0  0  0  0  0  0  0  0  0  0  0
  179.5846   23.4709   48.8888 H   0  0  0  0  0  0  0  0  0  0  0  0
  181.0556   22.5722   47.1022 H   0  0  0  0  0  0  0  0  0  0  0  0
  178.4272   19.0718   45.1674 H   0  0  0  0  0  0  0  0  0  0  0  0
  178.5867   18.1352   46.7258 H   0  0  0  0  0  0  0  0  0  0  0  0
  176.7854   20.2578   48.2061 H   0  0  0  0  0  0  0  0  0  0  0  0
  174.0370   24.5170   48.5051 H   0  0  0  0  0  0  0  0  0  0  0  0
  172.3342   25.5318   50.0241 H   0  0  0  0  0  0  0  0  0  0  0  0
  172.5585   25.2800   52.4970 H   0  0  0  0  0  0  0  0  0  0  0  0
  175.0850   23.4750   54.1250 H   0  0  0  0  0  0  0  0  0  0  0  0
  1  2  2  0
  2  3  1  0
  3  4  1  0
  3  5  2  0
  5  6  1  0
  6  7  2  0
  7  8  1  0
  8  9  2  0
  9 10  1  0
 10 11  1  0
 10 12  1  0
 10 13  1  0
  9 14  1  0
 14 15  1  0
 15 16  1  0
 14 17  2  0
  5 18  1  0
 18 19  1  0
 19 20  2  0
 20 21  1  0
 21 22  2  0
 22 23  1  0
 23 24  1  0
 23 25  2  0
 25  2  1  0
 17  6  1  0
 25 19  1  0
  4 26  1  0
  7 27  1  0
  8 28  1  0
 15 29  1  0
 15 30  1  0
 17 31  1  0
 20 32  1  0
 21 33  1  0
 22 34  1  0
 24 35  1  0
M  END
>  <meeko>  (2) 
{"is_sidechain": [false], "free_energy": -7.434, "intermolecular_energy": -9.194, "internal_energy": -0.408}

$$$$
cand_007_out
     RDKit          3D

 35 37  0  0  0  0  0  0  0  0999 V2000
  177.5890   20.9560   47.7400 O   0  0  0  0  0  0  0  0  0  0  0  0
  178.7090   20.5340   47.4570 C   0  0  0  0  0  0  0  0  0  0  0  0
  178.8750   19.4730   46.4370 C   0  0  0  0  0  0  0  0  0  0  0  0
  177.7250   18.9830   45.8450 O   0  0  0  0  0  0  0  0  0  0  0  0
  180.1180   19.0380   46.1590 C   0  0  0  0  0  0  0  0  0  0  0  0
  180.4020   17.9760   45.1710 C   0  0  0  0  0  0  0  0  0  0  0  0
  181.0820   18.2420   43.9780 C   0  0  0  0  0  0  0  0  0  0  0  0
  181.3580   17.2180   43.0680 C   0  0  0  0  0  0  0  0  0  0  0  0
  180.9660   15.8950   43.3300 C   0  0  0  0  0  0  0  0  0  0  0  0
  181.2790   14.8080   42.3250 C   0  0  0  0  0  0  0  0  0  0  0  0
  180.8200   15.1110   41.0780 F   0  0  0  0  0  0  0  0  0  0  0  0
  182.6180   14.5990   42.1860 F   0  0  0  0  0  0  0  0  0  0  0  0
  180.7440   13.5960   42.6360 F   0  0  0  0  0  0  0  0  0  0  0  0
  180.2920   15.6070   44.5370 C   0  0  0  0  0  0  0  0  0  0  0  0
  179.8430   14.2040   44.8760 C   0  0  0  0  0  0  0  0  0  0  0  0
  178.5220   13.9820   44.6140 F   0  0  0  0  0  0  0  0  0  0  0  0
  180.0200   16.6530   45.4400 C   0  0  0  0  0  0  0  0  0  0  0  0
  181.2650   19.5200   46.7800 O   0  0  0  0  0  0  0  0  0  0  0  0
  181.1420   20.5070   47.7240 C   0  0  0  0  0  0  0  0  0  0  0  0
  182.3200   20.9660   48.3160 C   0  0  0  0  0  0  0  0  0  0  0  0
  182.2660   21.9700   49.2860 C   0  0  0  0  0  0  0  0  0  0  0  0
  181.0370   22.5120   49.6640 C   0  0  0  0  0  0  0  0  0  0  0  0
  179.8630   22.0520   49.0730 C   0  0  0  0  0  0  0  0  0  0  0  0
  178.6940   22.6270   49.4910 O   0  0  0  0  0  0  0  0  0  0  0  0
  179.9170   21.0480   48.1020 C   0  0  0  0  0  0  0  0  0  0  0  0
  177.2280   19.5260   45.2650 H   0  0  0  0  0  0  0  0  0  0  0  0
  181.4034   19.2697   43.7534 H   0  0  0  0  0  0  0  0  0  0  0  0
  181.8896   17.4513   42.1337 H   0  0  0  0  0  0  0  0  0  0  0  0
  180.4403   13.4939   44.2852 H   0  0  0  0  0  0  0  0  0  0  0  0
  179.9880   14.0679   45.9579 H   0  0  0  0  0  0  0  0  0  0  0  0
  179.4949   16.4271   46.3798 H   0  0  0  0  0  0  0  0  0  0  0  0
  183.2889   20.5380   48.0193 H   0  0  0  0  0  0  0  0  0  0  0  0
  183.1935   22.3337   49.7523 H   0  0  0  0  0  0  0  0  0  0  0  0
  180.9956   23.3020   50.4283 H   0  0  0  0  0  0  0  0  0  0  0  0
  177.9250   22.5600   48.9620 H   0  0  0  0  0  0  0  0  0  0  0  0
  1  2  2  0
  2  3  1  0
  3  4  1  0
  3  5  2  0
  5  6  1  0
  6  7  2  0
  7  8  1  0
  8  9  2  0
  9 10  1  0
 10 11  1  0
 10 12  1  0
 10 13  1  0
  9 14  1  0
 14 15  1  0
 15 16  1  0
 14 17  2  0
  5 18  1  0
 18 19  1  0
 19 20  2  0
 20 21  1  0
 21 22  2  0
 22 23  1  0
 23 24  1  0
 23 25  2  0
 25  2  1  0
 17  6  1  0
 25 19  1  0
  4 26  1  0
  7 27  1  0
  8 28  1  0
 15 29  1  0
 15 30  1  0
 17 31  1  0
 20 32  1  0
 21 33  1  0
 22 34  1  0
 24 35  1  0
M  END
>  <meeko>  (3) 
{"is_sidechain": [false], "free_energy": -7.393, "intermolecular_energy": -9.651, "internal_energy": 0.1}

$$$$
cand_007_out
     RDKit          3D

 35 37  0  0  0  0  0  0  0  0999 V2000
  184.5660   22.2890   51.0060 O   0  0  0  0  0  0  0  0  0  0  0  0
  184.1040   22.4580   49.8790 C   0  0  0  0  0  0  0  0  0  0  0  0
  182.7880   21.8840   49.5150 C   0  0  0  0  0  0  0  0  0  0  0  0
  182.1300   21.1510   50.4850 O   0  0  0  0  0  0  0  0  0  0  0  0
  182.3190   22.0910   48.2700 C   0  0  0  0  0  0  0  0  0  0  0  0
  181.0270   21.5560   47.7920 C   0  0  0  0  0  0  0  0  0  0  0  0
  180.9060   20.2530   47.2960 C   0  0  0  0  0  0  0  0  0  0  0  0
  179.6700   19.7620   46.8690 C   0  0  0  0  0  0  0  0  0  0  0  0
  178.5150   20.5600   46.9300 C   0  0  0  0  0  0  0  0  0  0  0  0
  177.1910   19.9990   46.4600 C   0  0  0  0  0  0  0  0  0  0  0  0
  176.7430   20.6150   45.3310 F   0  0  0  0  0  0  0  0  0  0  0  0
  177.2670   18.6740   46.1540 F   0  0  0  0  0  0  0  0  0  0  0  0
  176.1870   20.1130   47.3730 F   0  0  0  0  0  0  0  0  0  0  0  0
  178.6170   21.8720   47.4420 C   0  0  0  0  0  0  0  0  0  0  0  0
  177.4130   22.7810   47.5330 C   0  0  0  0  0  0  0  0  0  0  0  0
  177.6720   24.0610   47.1410 F   0  0  0  0  0  0  0  0  0  0  0  0
  179.8730   22.3510   47.8650 C   0  0  0  0  0  0  0  0  0  0  0  0
  183.0020   22.8070   47.2940 O   0  0  0  0  0  0  0  0  0  0  0  0
  184.2200   23.3550   47.6040 C   0  0  0  0  0  0  0  0  0  0  0  0
  184.8670   24.0730   46.5960 C   0  0  0  0  0  0  0  0  0  0  0  0
  186.1110   24.6570   46.8460 C   0  0  0  0  0  0  0  0  0  0  0  0
  186.7080   24.5220   48.1000 C   0  0  0  0  0  0  0  0  0  0  0  0
  186.0610   23.8050   49.1040 C   0  0  0  0  0  0  0  0  0  0  0  0
  186.7040   23.7120   50.3080 O   0  0  0  0  0  0  0  0  0  0  0  0
  184.8160   23.2210   48.8540 C   0  0  0  0  0  0  0  0  0  0  0  0
  182.3870   20.2670   50.6600 H   0  0  0  0  0  0  0  0  0  0  0  0
  181.7951   19.6076   47.2417 H   0  0  0  0  0  0  0  0  0  0  0  0
  179.5998   18.7357   46.4793 H   0  0  0  0  0  0  0  0  0  0  0  0
  176.6185   22.3733   46.8907 H   0  0  0  0  0  0  0  0  0  0  0  0
  177.1129   22.8189   48.5906 H   0  0  0  0  0  0  0  0  0  0  0  0
  179.9507   23.3738   48.2624 H   0  0  0  0  0  0  0  0  0  0  0  0
  184.3977   24.1785   45.6067 H   0  0  0  0  0  0  0  0  0  0  0  0
  186.6208   25.2241   46.0532 H   0  0  0  0  0  0  0  0  0  0  0  0
  187.6883   24.9812   48.2955 H   0  0  0  0  0  0  0  0  0  0  0  0
  186.4580   24.2740   51.0150 H   0  0  0  0  0  0  0  0  0  0  0  0
  1  2  2  0
  2  3  1  0
  3  4  1  0
  3  5  2  0
  5  6  1  0
  6  7  2  0
  7  8  1  0
  8  9  2  0
  9 10  1  0
 10 11  1  0
 10 12  1  0
 10 13  1  0
  9 14  1  0
 14 15  1  0
 15 16  1  0
 14 17  2  0
  5 18  1  0
 18 19  1  0
 19 20  2  0
 20 21  1  0
 21 22  2  0
 22 23  1  0
 23 24  1  0
 23 25  2  0
 25  2  1  0
 17  6  1  0
 25 19  1  0
  4 26  1  0
  7 27  1  0
  8 28  1  0
 15 29  1  0
 15 30  1  0
 17 31  1  0
 20 32  1  0
 21 33  1  0
 22 34  1  0
 24 35  1  0
M  END
>  <meeko>  (4) 
{"is_sidechain": [false], "free_energy": -7.357, "intermolecular_energy": -9.087, "internal_energy": -0.42}

$$$$
cand_007_out
     RDKit          3D

 35 37  0  0  0  0  0  0  0  0999 V2000
  183.5850   21.9920   51.0760 O   0  0  0  0  0  0  0  0  0  0  0  0
  182.7520   22.4730   50.3100 C   0  0  0  0  0  0  0  0  0  0  0  0
  181.5940   21.6660   49.8600 C   0  0  0  0  0  0  0  0  0  0  0  0
  181.5130   20.3660   50.3260 O   0  0  0  0  0  0  0  0  0  0  0  0
  180.7060   22.2290   49.0190 C   0  0  0  0  0  0  0  0  0  0  0  0
  179.5230   21.5160   48.4950 C   0  0  0  0  0  0  0  0  0  0  0  0
  179.5920   20.7120   47.3520 C   0  0  0  0  0  0  0  0  0  0  0  0
  178.4650   20.0320   46.8860 C   0  0  0  0  0  0  0  0  0  0  0  0
  177.2330   20.1310   47.5560 C   0  0  0  0  0  0  0  0  0  0  0  0
  176.0310   19.3810   47.0270 C   0  0  0  0  0  0  0  0  0  0  0  0
  176.2970   18.7430   45.8530 F   0  0  0  0  0  0  0  0  0  0  0  0
  175.6020   18.4140   47.8850 F   0  0  0  0  0  0  0  0  0  0  0  0
  174.9490   20.1710   46.7860 F   0  0  0  0  0  0  0  0  0  0  0  0
  177.1500   20.9260   48.7200 C   0  0  0  0  0  0  0  0  0  0  0  0
  175.8550   21.0750   49.4850 C   0  0  0  0  0  0  0  0  0  0  0  0
  175.5980   20.0280   50.3200 F   0  0  0  0  0  0  0  0  0  0  0  0
  178.2970   21.6070   49.1720 C   0  0  0  0  0  0  0  0  0  0  0  0
  180.8140   23.5280   48.5350 O   0  0  0  0  0  0  0  0  0  0  0  0
  181.8720   24.3000   48.9390 C   0  0  0  0  0  0  0  0  0  0  0  0
  181.9350   25.6010   48.4360 C   0  0  0  0  0  0  0  0  0  0  0  0
  182.9870   26.4410   48.8070 C   0  0  0  0  0  0  0  0  0  0  0  0
  183.9760   25.9810   49.6790 C   0  0  0  0  0  0  0  0  0  0  0  0
  183.9110   24.6830   50.1800 C   0  0  0  0  0  0  0  0  0  0  0  0
  184.9120   24.2980   51.0290 O   0  0  0  0  0  0  0  0  0  0  0  0
  182.8570   23.8430   49.8090 C   0  0  0  0  0  0  0  0  0  0  0  0
  182.2340   19.7790   50.2070 H   0  0  0  0  0  0  0  0  0  0  0  0
  180.5463   20.6144   46.8136 H   0  0  0  0  0  0  0  0  0  0  0  0
  178.5422   19.4101   45.9820 H   0  0  0  0  0  0  0  0  0  0  0  0
  175.9080   21.9953   50.0852 H   0  0  0  0  0  0  0  0  0  0  0  0
  175.0417   21.1088   48.7451 H   0  0  0  0  0  0  0  0  0  0  0  0
  178.2302   22.2260   50.0788 H   0  0  0  0  0  0  0  0  0  0  0  0
  181.1569   25.9638   47.7483 H   0  0  0  0  0  0  0  0  0  0  0  0
  183.0367   27.4664   48.4119 H   0  0  0  0  0  0  0  0  0  0  0  0
  184.8052   26.6428   49.9698 H   0  0  0  0  0  0  0  0  0  0  0  0
  185.6940   23.9130   50.6870 H   0  0  0  0  0  0  0  0  0  0  0  0
  1  2  2  0
  2  3  1  0
  3  4  1  0
  3  5  2  0
  5  6  1  0
  6  7  2  0
  7  8  1  0
  8  9  2  0
  9 10  1  0
 10 11  1  0
 10 12  1  0
 10 13  1  0
  9 14  1  0
 14 15  1  0
 15 16  1  0
 14 17  2  0
  5 18  1  0
 18 19  1  0
 19 20  2  0
 20 21  1  0
 21 22  2  0
 22 23  1  0
 23 24  1  0
 23 25  2  0
 25  2  1  0
 17  6  1  0
 25 19  1  0
  4 26  1  0
  7 27  1  0
  8 28  1  0
 15 29  1  0
 15 30  1  0
 17 31  1  0
 20 32  1  0
 21 33  1  0
 22 34  1  0
 24 35  1  0
M  END
>  <meeko>  (5) 
{"is_sidechain": [false], "free_energy": -7.338, "intermolecular_energy": -8.954, "internal_energy": -0.529}

$$$$
cand_007_out
     RDKit          3D

 35 37  0  0  0  0  0  0  0  0999 V2000
  171.2500   23.9670   51.3230 O   0  0  0  0  0  0  0  0  0  0  0  0
  172.4390   23.6990   51.4860 C   0  0  0  0  0  0  0  0  0  0  0  0
  173.2030   23.0050   50.4230 C   0  0  0  0  0  0  0  0  0  0  0  0
  172.5170   22.6680   49.2710 O   0  0  0  0  0  0  0  0  0  0  0  0
  174.5020   22.7280   50.6430 C   0  0  0  0  0  0  0  0  0  0  0  0
  175.3580   22.0280   49.6620 C   0  0  0  0  0  0  0  0  0  0  0  0
  175.1640   20.6800   49.3430 C   0  0  0  0  0  0  0  0  0  0  0  0
  175.9730   20.0450   48.3980 C   0  0  0  0  0  0  0  0  0  0  0  0
  176.9970   20.7430   47.7370 C   0  0  0  0  0  0  0  0  0  0  0  0
  177.8550   20.0270   46.7180 C   0  0  0  0  0  0  0  0  0  0  0  0
  179.1420   19.8790   47.1400 F   0  0  0  0  0  0  0  0  0  0  0  0
  177.4060   18.7700   46.4510 F   0  0  0  0  0  0  0  0  0  0  0  0
  177.9280   20.6600   45.5140 F   0  0  0  0  0  0  0  0  0  0  0  0
  177.1960   22.1090   48.0360 C   0  0  0  0  0  0  0  0  0  0  0  0
  178.2820   22.9160   47.3620 C   0  0  0  0  0  0  0  0  0  0  0  0
  177.9020   24.1920   47.0670 F   0  0  0  0  0  0  0  0  0  0  0  0
  176.3730   22.7310   48.9950 C   0  0  0  0  0  0  0  0  0  0  0  0
  175.1750   23.0470   51.8170 O   0  0  0  0  0  0  0  0  0  0  0  0
  174.4940   23.6950   52.8150 C   0  0  0  0  0  0  0  0  0  0  0  0
  175.2110   24.0030   53.9730 C   0  0  0  0  0  0  0  0  0  0  0  0
  174.5790   24.6630   55.0280 C   0  0  0  0  0  0  0  0  0  0  0  0
  173.2310   25.0130   54.9280 C   0  0  0  0  0  0  0  0  0  0  0  0
  172.5180   24.7040   53.7730 C   0  0  0  0  0  0  0  0  0  0  0  0
  171.2020   25.0750   53.7420 O   0  0  0  0  0  0  0  0  0  0  0  0
  173.1520   24.0440   52.7160 C   0  0  0  0  0  0  0  0  0  0  0  0
  172.5480   23.2340   48.5250 H   0  0  0  0  0  0  0  0  0  0  0  0
  174.3645   20.1131   49.8425 H   0  0  0  0  0  0  0  0  0  0  0  0
  175.8057   18.9824   48.1680 H   0  0  0  0  0  0  0  0  0  0  0  0
  179.1532   22.9574   48.0323 H   0  0  0  0  0  0  0  0  0  0  0  0
  178.5149   22.4172   46.4097 H   0  0  0  0  0  0  0  0  0  0  0  0
  176.5298   23.7948   49.2270 H   0  0  0  0  0  0  0  0  0  0  0  0
  176.2725   23.7258   54.0536 H   0  0  0  0  0  0  0  0  0  0  0  0
  175.1437   24.9078   55.9397 H   0  0  0  0  0  0  0  0  0  0  0  0
  172.7333   25.5320   55.7604 H   0  0  0  0  0  0  0  0  0  0  0  0
  170.9540   25.9430   53.9880 H   0  0  0  0  0  0  0  0  0  0  0  0
  1  2  2  0
  2  3  1  0
  3  4  1  0
  3  5  2  0
  5  6  1  0
  6  7  2  0
  7  8  1  0
  8  9  2  0
  9 10  1  0
 10 11  1  0
 10 12  1  0
 10 13  1  0
  9 14  1  0
 14 15  1  0
 15 16  1  0
 14 17  2  0
  5 18  1  0
 18 19  1  0
 19 20  2  0
 20 21  1  0
 21 22  2  0
 22 23  1  0
 23 24  1  0
 23 25  2  0
 25  2  1  0
 17  6  1  0
 25 19  1  0
  4 26  1  0
  7 27  1  0
  8 28  1  0
 15 29  1  0
 15 30  1  0
 17 31  1  0
 20 32  1  0
 21 33  1  0
 22 34  1  0
 24 35  1  0
M  END
>  <meeko>  (6) 
{"is_sidechain": [false], "free_energy": -7.301, "intermolecular_energy": -9.094, "internal_energy": -0.344}

$$$$
cand_007_out
     RDKit          3D

 35 37  0  0  0  0  0  0  0  0999 V2000
  180.3590   22.3780   51.6950 O   0  0  0  0  0  0  0  0  0  0  0  0
  179.6290   22.2620   50.7130 C   0  0  0  0  0  0  0  0  0  0  0  0
  178.2480   22.7970   50.7380 C   0  0  0  0  0  0  0  0  0  0  0  0
  177.8290   23.4060   51.9070 O   0  0  0  0  0  0  0  0  0  0  0  0
  177.4800   22.6470   49.6420 C   0  0  0  0  0  0  0  0  0  0  0  0
  176.0850   23.1280   49.5580 C   0  0  0  0  0  0  0  0  0  0  0  0
  175.0370   22.2850   49.1750 C   0  0  0  0  0  0  0  0  0  0  0  0
  173.7230   22.7570   49.1220 C   0  0  0  0  0  0  0  0  0  0  0  0
  173.4190   24.0870   49.4580 C   0  0  0  0  0  0  0  0  0  0  0  0
  171.9860   24.5670   49.3910 C   0  0  0  0  0  0  0  0  0  0  0  0
  171.2170   23.7830   48.5860 F   0  0  0  0  0  0  0  0  0  0  0  0
  171.3760   24.5560   50.6090 F   0  0  0  0  0  0  0  0  0  0  0  0
  171.8500   25.8360   48.9180 F   0  0  0  0  0  0  0  0  0  0  0  0
  174.4640   24.9460   49.8620 C   0  0  0  0  0  0  0  0  0  0  0  0
  174.2030   26.3870   50.2350 C   0  0  0  0  0  0  0  0  0  0  0  0
  173.6960   26.5360   51.4930 F   0  0  0  0  0  0  0  0  0  0  0  0
  175.7830   24.4530   49.9060 C   0  0  0  0  0  0  0  0  0  0  0  0
  177.9030   22.0090   48.4820 O   0  0  0  0  0  0  0  0  0  0  0  0
  179.1790   21.5080   48.4280 C   0  0  0  0  0  0  0  0  0  0  0  0
  179.5640   20.8830   47.2400 C   0  0  0  0  0  0  0  0  0  0  0  0
  180.8490   20.3520   47.1180 C   0  0  0  0  0  0  0  0  0  0  0  0
  181.7480   20.4440   48.1820 C   0  0  0  0  0  0  0  0  0  0  0  0
  181.3620   21.0680   49.3650 C   0  0  0  0  0  0  0  0  0  0  0  0
  182.2930   21.1220   50.3670 O   0  0  0  0  0  0  0  0  0  0  0  0
  180.0760   21.6000   49.4870 C   0  0  0  0  0  0  0  0  0  0  0  0
  176.9750   23.7900   51.9560 H   0  0  0  0  0  0  0  0  0  0  0  0
  175.2496   21.2382   48.9124 H   0  0  0  0  0  0  0  0  0  0  0  0
  172.9150   22.0777   48.8128 H   0  0  0  0  0  0  0  0  0  0  0  0
  175.1514   26.9409   50.1730 H   0  0  0  0  0  0  0  0  0  0  0  0
  173.4501   26.7739   49.5326 H   0  0  0  0  0  0  0  0  0  0  0  0
  176.5961   25.1236   50.2210 H   0  0  0  0  0  0  0  0  0  0  0  0
  178.8556   20.8093   46.4017 H   0  0  0  0  0  0  0  0  0  0  0  0
  181.1537   19.8604   46.1823 H   0  0  0  0  0  0  0  0  0  0  0  0
  182.7601   20.0240   48.0857 H   0  0  0  0  0  0  0  0  0  0  0  0
  182.0660   21.4910   51.1970 H   0  0  0  0  0  0  0  0  0  0  0  0
  1  2  2  0
  2  3  1  0
  3  4  1  0
  3  5  2  0
  5  6  1  0
  6  7  2  0
  7  8  1  0
  8  9  2  0
  9 10  1  0
 10 11  1  0
 10 12  1  0
 10 13  1  0
  9 14  1  0
 14 15  1  0
 15 16  1  0
 14 17  2  0
  5 18  1  0
 18 19  1  0
 19 20  2  0
 20 21  1  0
 21 22  2  0
 22 23  1  0
 23 24  1  0
 23 25  2  0
 25  2  1  0
 17  6  1  0
 25 19  1  0
  4 26  1  0
  7 27  1  0
  8 28  1  0
 15 29  1  0
 15 30  1  0
 17 31  1  0
 20 32  1  0
 21 33  1  0
 22 34  1  0
 24 35  1  0
M  END
>  <meeko>  (7) 
{"is_sidechain": [false], "free_energy": -7.249, "intermolecular_energy": -9.241, "internal_energy": -0.133}

$$$$
cand_007_out
     RDKit          3D

 35 37  0  0  0  0  0  0  0  0999 V2000
  176.5550   22.9440   53.3520 O   0  0  0  0  0  0  0  0  0  0  0  0
  176.3230   22.9240   52.1450 C   0  0  0  0  0  0  0  0  0  0  0  0
  177.2250   22.1990   51.2200 C   0  0  0  0  0  0  0  0  0  0  0  0
  178.3260   21.5730   51.7760 O   0  0  0  0  0  0  0  0  0  0  0  0
  176.9370   22.2030   49.9050 C   0  0  0  0  0  0  0  0  0  0  0  0
  177.7710   21.5260   48.8910 C   0  0  0  0  0  0  0  0  0  0  0  0
  177.2670   20.4940   48.0920 C   0  0  0  0  0  0  0  0  0  0  0  0
  178.0690   19.8820   47.1250 C   0  0  0  0  0  0  0  0  0  0  0  0
  179.3980   20.2900   46.9250 C   0  0  0  0  0  0  0  0  0  0  0  0
  180.2400   19.6080   45.8690 C   0  0  0  0  0  0  0  0  0  0  0  0
  181.4820   19.2880   46.3280 F   0  0  0  0  0  0  0  0  0  0  0  0
  179.6900   18.4370   45.4420 F   0  0  0  0  0  0  0  0  0  0  0  0
  180.4370   20.3570   44.7500 F   0  0  0  0  0  0  0  0  0  0  0  0
  179.9170   21.3410   47.7130 C   0  0  0  0  0  0  0  0  0  0  0  0
  181.3390   21.8250   47.5480 C   0  0  0  0  0  0  0  0  0  0  0  0
  181.4500   23.1850   47.5420 F   0  0  0  0  0  0  0  0  0  0  0  0
  179.0950   21.9430   48.6850 C   0  0  0  0  0  0  0  0  0  0  0  0
  175.8410   22.8590   49.3550 O   0  0  0  0  0  0  0  0  0  0  0  0
  174.9850   23.5340   50.1870 C   0  0  0  0  0  0  0  0  0  0  0  0
  173.8950   24.1700   49.5920 C   0  0  0  0  0  0  0  0  0  0  0  0
  172.9840   24.8750   50.3820 C   0  0  0  0  0  0  0  0  0  0  0  0
  173.1650   24.9460   51.7640 C   0  0  0  0  0  0  0  0  0  0  0  0
  174.2540   24.3110   52.3560 C   0  0  0  0  0  0  0  0  0  0  0  0
  174.3710   24.4200   53.7140 O   0  0  0  0  0  0  0  0  0  0  0  0
  175.1640   23.6040   51.5650 C   0  0  0  0  0  0  0  0  0  0  0  0
  178.6000   21.7910   52.6460 H   0  0  0  0  0  0  0  0  0  0  0  0
  176.2274   20.1605   48.2265 H   0  0  0  0  0  0  0  0  0  0  0  0
  177.6534   19.0690   46.5116 H   0  0  0  0  0  0  0  0  0  0  0  0
  181.9409   21.4294   48.3794 H   0  0  0  0  0  0  0  0  0  0  0  0
  181.6938   21.4653   46.5709 H   0  0  0  0  0  0  0  0  0  0  0  0
  179.5010   22.7609   49.2984 H   0  0  0  0  0  0  0  0  0  0  0  0
  173.7533   24.1163   48.5025 H   0  0  0  0  0  0  0  0  0  0  0  0
  172.1229   25.3748   49.9143 H   0  0  0  0  0  0  0  0  0  0  0  0
  172.4481   25.5030   52.3852 H   0  0  0  0  0  0  0  0  0  0  0  0
  173.6040   24.4920   54.2460 H   0  0  0  0  0  0  0  0  0  0  0  0
  1  2  2  0
  2  3  1  0
  3  4  1  0
  3  5  2  0
  5  6  1  0
  6  7  2  0
  7  8  1  0
  8  9  2  0
  9 10  1  0
 10 11  1  0
 10 12  1  0
 10 13  1  0
  9 14  1  0
 14 15  1  0
 15 16  1  0
 14 17  2  0
  5 18  1  0
 18 19  1  0
 19 20  2  0
 20 21  1  0
 21 22  2  0
 22 23  1  0
 23 24  1  0
 23 25  2  0
 25  2  1  0
 17  6  1  0
 25 19  1  0
  4 26  1  0
  7 27  1  0
  8 28  1  0
 15 29  1  0
 15 30  1  0
 17 31  1  0
 20 32  1  0
 21 33  1  0
 22 34  1  0
 24 35  1  0
M  END
>  <meeko>  (8) 
{"is_sidechain": [false], "free_energy": -7.199, "intermolecular_energy": -9.1, "internal_energy": -0.211}

$$$$
cand_007_out
     RDKit          3D

 35 37  0  0  0  0  0  0  0  0999 V2000
  177.0550   21.4420   51.6350 O   0  0  0  0  0  0  0  0  0  0  0  0
  177.5960   21.5190   50.5340 C   0  0  0  0  0  0  0  0  0  0  0  0
  179.0260   21.8880   50.4250 C   0  0  0  0  0  0  0  0  0  0  0  0
  179.7010   22.1510   51.6040 O   0  0  0  0  0  0  0  0  0  0  0  0
  179.5790   21.9630   49.2000 C   0  0  0  0  0  0  0  0  0  0  0  0
  180.9920   22.3340   48.9700 C   0  0  0  0  0  0  0  0  0  0  0  0
  182.0410   21.4540   49.2550 C   0  0  0  0  0  0  0  0  0  0  0  0
  183.3670   21.8200   49.0110 C   0  0  0  0  0  0  0  0  0  0  0  0
  183.6810   23.0760   48.4660 C   0  0  0  0  0  0  0  0  0  0  0  0
  185.1270   23.4420   48.2120 C   0  0  0  0  0  0  0  0  0  0  0  0
  185.9900   22.5390   48.7560 F   0  0  0  0  0  0  0  0  0  0  0  0
  185.4270   23.4880   46.8850 F   0  0  0  0  0  0  0  0  0  0  0  0
  185.4880   24.6540   48.7170 F   0  0  0  0  0  0  0  0  0  0  0  0
  182.6320   23.9700   48.1580 C   0  0  0  0  0  0  0  0  0  0  0  0
  182.9040   25.3360   47.5720 C   0  0  0  0  0  0  0  0  0  0  0  0
  183.1750   25.3070   46.2350 F   0  0  0  0  0  0  0  0  0  0  0  0
  181.3020   23.5850   48.4150 C   0  0  0  0  0  0  0  0  0  0  0  0
  178.8840   21.7220   48.0200 O   0  0  0  0  0  0  0  0  0  0  0  0
  177.5600   21.3730   48.0910 C   0  0  0  0  0  0  0  0  0  0  0  0
  176.9040   21.1320   46.8820 C   0  0  0  0  0  0  0  0  0  0  0  0
  175.5550   20.7730   46.8820 C   0  0  0  0  0  0  0  0  0  0  0  0
  174.8620   20.6550   48.0880 C   0  0  0  0  0  0  0  0  0  0  0  0
  175.5180   20.8960   49.2920 C   0  0  0  0  0  0  0  0  0  0  0  0
  174.7790   20.7630   50.4360 O   0  0  0  0  0  0  0  0  0  0  0  0
  176.8690   21.2550   49.2920 C   0  0  0  0  0  0  0  0  0  0  0  0
  179.2260   22.2240   52.4090 H   0  0  0  0  0  0  0  0  0  0  0  0
  181.8194   20.4623   49.6761 H   0  0  0  0  0  0  0  0  0  0  0  0
  184.1767   21.1145   49.2491 H   0  0  0  0  0  0  0  0  0  0  0  0
  182.0186   25.9681   47.7349 H   0  0  0  0  0  0  0  0  0  0  0  0
  183.7969   25.7342   48.0762 H   0  0  0  0  0  0  0  0  0  0  0  0
  180.4858   24.2822   48.1747 H   0  0  0  0  0  0  0  0  0  0  0  0
  177.4494   21.2249   45.9312 H   0  0  0  0  0  0  0  0  0  0  0  0
  175.0373   20.5828   45.9302 H   0  0  0  0  0  0  0  0  0  0  0  0
  173.7990   20.3720   48.0870 H   0  0  0  0  0  0  0  0  0  0  0  0
  174.3320   21.5030   50.7930 H   0  0  0  0  0  0  0  0  0  0  0  0
  1  2  2  0
  2  3  1  0
  3  4  1  0
  3  5  2  0
  5  6  1  0
  6  7  2  0
  7  8  1  0
  8  9  2  0
  9 10  1  0
 10 11  1  0
 10 12  1  0
 10 13  1  0
  9 14  1  0
 14 15  1  0
 15 16  1  0
 14 17  2  0
  5 18  1  0
 18 19  1  0
 19 20  2  0
 20 21  1  0
 21 22  2  0
 22 23  1  0
 23 24  1  0
 23 25  2  0
 25  2  1  0
 17  6  1  0
 25 19  1  0
  4 26  1  0
  7 27  1  0
  8 28  1  0
 15 29  1  0
 15 30  1  0
 17 31  1  0
 20 32  1  0
 21 33  1  0
 22 34  1  0
 24 35  1  0
M  END
>  <meeko>  (9) 
{"is_sidechain": [false], "free_energy": -7.142, "intermolecular_energy": -8.764, "internal_energy": -0.478}

$$$$
