
 OpenBabel08202615343D

 41 43  0  0  0  0  0  0  0  0999 V2000
   -4.7061   -2.3710   -0.1449 C   0  0  0  0  0  0  0  0  0  0  0  0
   -4.3415   -1.2312    0.7952 C   0  0  0  0  0  0  0  0  0  0  0  0
   -2.9036   -0.7959    0.6244 C   0  0  0  0  0  0  0  0  0  0  0  0
   -1.9196   -1.4547    1.3809 C   0  0  0  0  0  0  0  0  0  0  0  0
   -0.5705   -1.1112    1.2684 C   0  0  0  0  0  0  0  0  0  0  0  0
   -0.1638   -0.0950    0.3986 C   0  0  0  0  0  0  0  0  0  0  0  0
    1.2707    0.2408    0.2774 C   0  0  0  0  0  0  0  0  0  0  0  0
    2.0802   -0.8832    0.1578 O   0  0  0  0  0  0  0  0  0  0  0  0
    3.4358   -0.7146    0.0371 C   0  0  0  0  0  0  0  0  0  0  0  0
    4.2084   -1.8692   -0.0958 C   0  0  0  0  0  0  0  0  0  0  0  0
    5.5958   -1.7682   -0.2211 C   0  0  0  0  0  0  0  0  0  0  0  0
    6.2100   -0.5142   -0.2130 C   0  0  0  0  0  0  0  0  0  0  0  0
    5.4366    0.6360   -0.0802 C   0  0  0  0  0  0  0  0  0  0  0  0
    6.1022    1.8313   -0.0795 O   0  0  0  0  0  0  0  0  0  0  0  0
    4.0482    0.5347    0.0443 C   0  0  0  0  0  0  0  0  0  0  0  0
    3.1988    1.7181    0.1859 C   0  0  0  0  0  0  0  0  0  0  0  0
    3.6657    2.8551    0.2090 O   0  0  0  0  0  0  0  0  0  0  0  0
    1.7381    1.5029    0.3032 C   0  0  0  0  0  0  0  0  0  0  0  0
    0.9468    2.6272    0.4497 O   0  0  0  0  0  0  0  0  0  0  0  0
   -1.1418    0.5513   -0.3701 C   0  0  0  0  0  0  0  0  0  0  0  0
   -2.5081    0.2142   -0.2748 C   0  0  0  0  0  0  0  0  0  0  0  0
   -3.4878    0.9872   -1.1291 C   0  0  0  0  0  0  0  0  0  0  0  0
   -3.9703    2.2526   -0.4350 C   0  0  0  0  0  0  0  0  0  0  0  0
   -5.7285   -2.6468    0.0087 H   0  0  0  0  0  0  0  0  0  0  0  0
   -4.0759   -3.2126    0.0537 H   0  0  0  0  0  0  0  0  0  0  0  0
   -4.5703   -2.0550   -1.1581 H   0  0  0  0  0  0  0  0  0  0  0  0
   -4.4870   -1.5555    1.8044 H   0  0  0  0  0  0  0  0  0  0  0  0
   -4.9698   -0.3968    0.5632 H   0  0  0  0  0  0  0  0  0  0  0  0
   -2.1988   -2.2058    2.0313 H   0  0  0  0  0  0  0  0  0  0  0  0
    0.1331   -1.6125    1.8329 H   0  0  0  0  0  0  0  0  0  0  0  0
    3.7552   -2.7964   -0.1015 H   0  0  0  0  0  0  0  0  0  0  0  0
    6.1678   -2.6215   -0.3198 H   0  0  0  0  0  0  0  0  0  0  0  0
    7.2352   -0.4401   -0.3053 H   0  0  0  0  0  0  0  0  0  0  0  0
    7.0351    1.8481   -0.1658 H   0  0  0  0  0  0  0  0  0  0  0  0
    1.3390    3.4781    0.4592 H   0  0  0  0  0  0  0  0  0  0  0  0
   -0.8538    1.2953   -1.0247 H   0  0  0  0  0  0  0  0  0  0  0  0
   -4.3320    0.3637   -1.3377 H   0  0  0  0  0  0  0  0  0  0  0  0
   -2.9877    1.2735   -2.0307 H   0  0  0  0  0  0  0  0  0  0  0  0
   -4.4750    1.9917    0.4717 H   0  0  0  0  0  0  0  0  0  0  0  0
   -4.6436    2.7783   -1.0794 H   0  0  0  0  0  0  0  0  0  0  0  0
   -3.1316    2.8775   -0.2093 H   0  0  0  0  0  0  0  0  0  0  0  0
  1  2  1  0  0  0  0
  1 24  1  0  0  0  0
  1 25  1  0  0  0  0
  1 26  1  0  0  0  0
  2  3  1  0  0  0  0
  2 27  1  0  0  0  0
  2 28  1  0  0  0  0
  3  4  2  0  0  0  0
  4  5  1  0  0  0  0
  4 29  1  0  0  0  0
  5  6  2  0  0  0  0
  5 30  1  0  0  0  0
  6  7  1  0  0  0  0
  6 20  1  0  0  0  0
  7  8  1  0  0  0  0
  8  9  1  0  0  0  0
  9 10  2  0  0  0  0
 10 11  1  0  0  0  0
 10 31  1  0  0  0  0
 11 12  2  0  0  0  0
 11 32  1  0  0  0  0
 12 13  1  0  0  0  0
 12 33  1  0  0  0  0
 13 14  1  0  0  0  0
 13 15  2  0  0  0  0
 14 34  1  0  0  0  0
 15 16  1  0  0  0  0
 15  9  1  0  0  0  0
 16 17  2  0  0  0  0
 16 18  1  0  0  0  0
 18 19  1  0  0  0  0
 18  7  2  0  0  0  0
 19 35  1  0  0  0  0
 20 21  2  0  0  0  0
 20 36  1  0  0  0  0
 21 22  1  0  0  0  0
 21  3  1  0  0  0  0
 22 23  1  0  0  0  0
 22 37  1  0  0  0  0
 22 38  1  0  0  0  0
 23 39  1  0  0  0  0
 23 40  1  0  0  0  0
 23 41  1  0  0  0  0
M  END
$$$$
