
 OpenBabel08202615353D

 47 49  0  0  0  0  0  0  0  0999 V2000
   -2.0101   -3.2185   -1.3336 C   0  0  0  0  0  0  0  0  0  0  0  0
   -1.9849   -2.3760   -0.0663 C   0  0  0  0  0  0  0  0  0  0  0  0
   -1.4559   -0.9829   -0.3268 C   0  0  0  0  0  0  0  0  0  0  0  0
   -0.0586   -0.7931   -0.2946 C   0  0  0  0  0  0  0  0  0  0  0  0
    0.5285    0.4524   -0.5641 C   0  0  0  0  0  0  0  0  0  0  0  0
    1.9968    0.6064   -0.4883 C   0  0  0  0  0  0  0  0  0  0  0  0
    2.5427    0.0213    0.6487 O   0  0  0  0  0  0  0  0  0  0  0  0
    3.8982    0.0902    0.8448 C   0  0  0  0  0  0  0  0  0  0  0  0
    4.4009   -0.4978    2.0064 C   0  0  0  0  0  0  0  0  0  0  0  0
    5.7729   -0.4649    2.2660 C   0  0  0  0  0  0  0  0  0  0  0  0
    6.6411    0.1549    1.3650 C   0  0  0  0  0  0  0  0  0  0  0  0
    6.1366    0.7407    0.2069 C   0  0  0  0  0  0  0  0  0  0  0  0
    7.0423    1.3300   -0.6322 O   0  0  0  0  0  0  0  0  0  0  0  0
    4.7637    0.7083   -0.0522 C   0  0  0  0  0  0  0  0  0  0  0  0
    4.1924    1.3116   -1.2570 C   0  0  0  0  0  0  0  0  0  0  0  0
    4.8922    1.8689   -2.1002 O   0  0  0  0  0  0  0  0  0  0  0  0
    2.7242    1.2294   -1.4342 C   0  0  0  0  0  0  0  0  0  0  0  0
    2.1972    1.7910   -2.5826 O   0  0  0  0  0  0  0  0  0  0  0  0
   -0.3111    1.5278   -0.8623 C   0  0  0  0  0  0  0  0  0  0  0  0
   -1.6970    1.3580   -0.9043 C   0  0  0  0  0  0  0  0  0  0  0  0
   -2.2881    0.1109   -0.6388 C   0  0  0  0  0  0  0  0  0  0  0  0
   -3.7987    0.0078   -0.6928 C   0  0  0  0  0  0  0  0  0  0  0  0
   -4.4854    0.1408    0.6822 C   0  0  0  0  0  0  0  0  0  0  0  0
   -4.3994    1.5642    1.2390 C   0  0  0  0  0  0  0  0  0  0  0  0
   -5.9539   -0.2765    0.5676 C   0  0  0  0  0  0  0  0  0  0  0  0
   -2.3894   -4.1929   -1.1066 H   0  0  0  0  0  0  0  0  0  0  0  0
   -1.0178   -3.3042   -1.7247 H   0  0  0  0  0  0  0  0  0  0  0  0
   -2.6408   -2.7507   -2.0604 H   0  0  0  0  0  0  0  0  0  0  0  0
   -1.3571   -2.8553    0.6555 H   0  0  0  0  0  0  0  0  0  0  0  0
   -2.9886   -2.2881    0.2940 H   0  0  0  0  0  0  0  0  0  0  0  0
    0.5502   -1.5944   -0.0659 H   0  0  0  0  0  0  0  0  0  0  0  0
    3.7598   -0.9563    2.6726 H   0  0  0  0  0  0  0  0  0  0  0  0
    6.1454   -0.8992    3.1248 H   0  0  0  0  0  0  0  0  0  0  0  0
    7.6548    0.1788    1.5571 H   0  0  0  0  0  0  0  0  0  0  0  0
    7.9538    1.3261   -0.4150 H   0  0  0  0  0  0  0  0  0  0  0  0
    2.7625    2.2106   -3.2009 H   0  0  0  0  0  0  0  0  0  0  0  0
    0.0961    2.4566   -1.0534 H   0  0  0  0  0  0  0  0  0  0  0  0
   -2.2987    2.1642   -1.1348 H   0  0  0  0  0  0  0  0  0  0  0  0
   -4.0565   -0.9444   -1.1071 H   0  0  0  0  0  0  0  0  0  0  0  0
   -4.1439    0.8244   -1.2919 H   0  0  0  0  0  0  0  0  0  0  0  0
   -3.9686   -0.5037    1.3622 H   0  0  0  0  0  0  0  0  0  0  0  0
   -4.9084    2.2363    0.5801 H   0  0  0  0  0  0  0  0  0  0  0  0
   -3.3726    1.8539    1.3204 H   0  0  0  0  0  0  0  0  0  0  0  0
   -4.8571    1.5973    2.2056 H   0  0  0  0  0  0  0  0  0  0  0  0
   -6.4578    0.3758   -0.1147 H   0  0  0  0  0  0  0  0  0  0  0  0
   -6.4185   -0.2144    1.5295 H   0  0  0  0  0  0  0  0  0  0  0  0
   -6.0118   -1.2826    0.2079 H   0  0  0  0  0  0  0  0  0  0  0  0
  1  2  1  0  0  0  0
  1 26  1  0  0  0  0
  1 27  1  0  0  0  0
  1 28  1  0  0  0  0
  2  3  1  0  0  0  0
  2 29  1  0  0  0  0
  2 30  1  0  0  0  0
  3  4  2  0  0  0  0
  4  5  1  0  0  0  0
  4 31  1  0  0  0  0
  5  6  1  0  0  0  0
  5 19  2  0  0  0  0
  6  7  1  0  0  0  0
  7  8  1  0  0  0  0
  8  9  2  0  0  0  0
  9 10  1  0  0  0  0
  9 32  1  0  0  0  0
 10 11  2  0  0  0  0
 10 33  1  0  0  0  0
 11 12  1  0  0  0  0
 11 34  1  0  0  0  0
 12 13  1  0  0  0  0
 12 14  2  0  0  0  0
 13 35  1  0  0  0  0
 14 15  1  0  0  0  0
 14  8  1  0  0  0  0
 15 16  2  0  0  0  0
 15 17  1  0  0  0  0
 17 18  1  0  0  0  0
 17  6  2  0  0  0  0
 18 36  1  0  0  0  0
 19 20  1  0  0  0  0
 19 37  1  0  0  0  0
 20 21  2  0  0  0  0
 20 38  1  0  0  0  0
 21 22  1  0  0  0  0
 21  3  1  0  0  0  0
 22 23  1  0  0  0  0
 22 39  1  0  0  0  0
 22 40  1  0  0  0  0
 23 24  1  0  0  0  0
 23 25  1  0  0  0  0
 23 41  1  0  0  0  0
 24 42  1  0  0  0  0
 24 43  1  0  0  0  0
 24 44  1  0  0  0  0
 25 45  1  0  0  0  0
 25 46  1  0  0  0  0
 25 47  1  0  0  0  0
M  END
$$$$
