
 OpenBabel08202615313D

 36 38  0  0  0  0  0  0  0  0999 V2000
   -3.7327    2.1257   -1.4863 C   0  0  0  0  0  0  0  0  0  0  0  0
   -3.9305    0.9595   -0.8598 C   0  0  0  0  0  0  0  0  0  0  0  0
   -3.0072    0.4444    0.1589 C   0  0  0  0  0  0  0  0  0  0  0  0
   -1.6723    0.1879   -0.2050 C   0  0  0  0  0  0  0  0  0  0  0  0
   -0.7444   -0.3227    0.7155 C   0  0  0  0  0  0  0  0  0  0  0  0
    0.6547   -0.5533    0.2982 C   0  0  0  0  0  0  0  0  0  0  0  0
    1.1883    0.5126   -0.4167 O   0  0  0  0  0  0  0  0  0  0  0  0
    2.4811    0.4280   -0.8669 C   0  0  0  0  0  0  0  0  0  0  0  0
    2.9806    1.5259   -1.5688 C   0  0  0  0  0  0  0  0  0  0  0  0
    4.2893    1.5041   -2.0560 C   0  0  0  0  0  0  0  0  0  0  0  0
    5.0975    0.3856   -1.8420 C   0  0  0  0  0  0  0  0  0  0  0  0
    4.5965   -0.7086   -1.1416 C   0  0  0  0  0  0  0  0  0  0  0  0
    5.4412   -1.7705   -0.9685 O   0  0  0  0  0  0  0  0  0  0  0  0
    3.2872   -0.6862   -0.6536 C   0  0  0  0  0  0  0  0  0  0  0  0
    2.7217   -1.8149    0.0871 C   0  0  0  0  0  0  0  0  0  0  0  0
    3.3669   -2.8370    0.3103 O   0  0  0  0  0  0  0  0  0  0  0  0
    1.3263   -1.6882    0.5671 C   0  0  0  0  0  0  0  0  0  0  0  0
    0.7958   -2.7651    1.2532 O   0  0  0  0  0  0  0  0  0  0  0  0
   -1.1719   -0.5641    2.0248 C   0  0  0  0  0  0  0  0  0  0  0  0
   -2.4960   -0.3191    2.3989 C   0  0  0  0  0  0  0  0  0  0  0  0
   -3.4304    0.1828    1.4747 C   0  0  0  0  0  0  0  0  0  0  0  0
   -4.8499    0.4458    1.9182 C   0  0  0  0  0  0  0  0  0  0  0  0
   -5.2018    1.7591    1.8342 F   0  0  0  0  0  0  0  0  0  0  0  0
   -5.0832    0.0923    3.2164 F   0  0  0  0  0  0  0  0  0  0  0  0
   -5.7729   -0.2427    1.1883 F   0  0  0  0  0  0  0  0  0  0  0  0
   -4.4071    2.4508   -2.1966 H   0  0  0  0  0  0  0  0  0  0  0  0
   -2.9058    2.6998   -1.2591 H   0  0  0  0  0  0  0  0  0  0  0  0
   -4.7639    0.4011   -1.1021 H   0  0  0  0  0  0  0  0  0  0  0  0
   -1.3684    0.3800   -1.1723 H   0  0  0  0  0  0  0  0  0  0  0  0
    2.3838    2.3527   -1.7276 H   0  0  0  0  0  0  0  0  0  0  0  0
    4.6596    2.3157   -2.5749 H   0  0  0  0  0  0  0  0  0  0  0  0
    6.0644    0.3700   -2.2023 H   0  0  0  0  0  0  0  0  0  0  0  0
    6.3113   -1.7383   -1.3147 H   0  0  0  0  0  0  0  0  0  0  0  0
    1.3195   -3.5268    1.4068 H   0  0  0  0  0  0  0  0  0  0  0  0
   -0.5029   -0.9268    2.7219 H   0  0  0  0  0  0  0  0  0  0  0  0
   -2.7931   -0.5094    3.3687 H   0  0  0  0  0  0  0  0  0  0  0  0
  1  2  2  0  0  0  0
  1 26  1  0  0  0  0
  1 27  1  0  0  0  0
  2  3  1  0  0  0  0
  2 28  1  0  0  0  0
  3  4  2  0  0  0  0
  4  5  1  0  0  0  0
  4 29  1  0  0  0  0
  5  6  1  0  0  0  0
  5 19  2  0  0  0  0
  6  7  1  0  0  0  0
  7  8  1  0  0  0  0
  8  9  2  0  0  0  0
  9 10  1  0  0  0  0
  9 30  1  0  0  0  0
 10 11  2  0  0  0  0
 10 31  1  0  0  0  0
 11 12  1  0  0  0  0
 11 32  1  0  0  0  0
 12 13  1  0  0  0  0
 12 14  2  0  0  0  0
 13 33  1  0  0  0  0
 14 15  1  0  0  0  0
 14  8  1  0  0  0  0
 15 16  2  0  0  0  0
 15 17  1  0  0  0  0
 17 18  1  0  0  0  0
 17  6  2  0  0  0  0
 18 34  1  0  0  0  0
 19 20  1  0  0  0  0
 19 35  1  0  0  0  0
 20 21  2  0  0  0  0
 20 36  1  0  0  0  0
 21 22  1  0  0  0  0
 21  3  1  0  0  0  0
 22 23  1  0  0  0  0
 22 24  1  0  0  0  0
 22 25  1  0  0  0  0
M  END
$$$$
