
 OpenBabel08202615353D

 50 53  0  0  0  0  0  0  0  0999 V2000
   -6.1355   -0.6705    1.5645 C   0  0  0  0  0  0  0  0  0  0  0  0
   -4.7223   -0.5564    1.2103 N   0  3  0  0  0  0  0  0  0  0  0  0
   -4.4700   -1.1593   -0.1201 C   0  0  0  0  0  0  0  0  0  0  0  0
   -2.9954   -1.0124   -0.5654 C   0  0  0  0  0  0  0  0  0  0  0  0
   -2.6108    0.4194   -0.5679 N   0  0  0  0  0  0  0  0  0  0  0  0
   -1.3252    0.6550   -1.0862 C   0  0  0  0  0  0  0  0  0  0  0  0
   -0.1714    0.1138   -0.4878 C   0  0  0  0  0  0  0  0  0  0  0  0
    1.1108    0.3407   -1.0099 C   0  0  0  0  0  0  0  0  0  0  0  0
    2.3200   -0.2144   -0.3666 C   0  0  0  0  0  0  0  0  0  0  0  0
    3.3257    0.7302   -0.1992 O   0  0  0  0  0  0  0  0  0  0  0  0
    4.5044    0.3462    0.3878 C   0  0  0  0  0  0  0  0  0  0  0  0
    5.4811    1.3297    0.5502 C   0  0  0  0  0  0  0  0  0  0  0  0
    6.7051    1.0049    1.1393 C   0  0  0  0  0  0  0  0  0  0  0  0
    6.9524   -0.3018    1.5651 C   0  0  0  0  0  0  0  0  0  0  0  0
    5.9761   -1.2811    1.4017 C   0  0  0  0  0  0  0  0  0  0  0  0
    6.2844   -2.5397    1.8403 O   0  0  0  0  0  0  0  0  0  0  0  0
    4.7512   -0.9558    0.8129 C   0  0  0  0  0  0  0  0  0  0  0  0
    3.6986   -1.9548    0.6223 C   0  0  0  0  0  0  0  0  0  0  0  0
    3.8429   -3.1267    0.9638 O   0  0  0  0  0  0  0  0  0  0  0  0
    2.4342   -1.5057   -0.0047 C   0  0  0  0  0  0  0  0  0  0  0  0
    1.4507   -2.4593   -0.1928 O   0  0  0  0  0  0  0  0  0  0  0  0
    1.2337    1.1472   -2.1457 C   0  0  0  0  0  0  0  0  0  0  0  0
    0.1018    1.6964   -2.7511 C   0  0  0  0  0  0  0  0  0  0  0  0
   -1.1837    1.4571   -2.2321 C   0  0  0  0  0  0  0  0  0  0  0  0
   -2.3922    2.0597   -2.9071 C   0  0  0  0  0  0  0  0  0  0  0  0
   -2.0619    2.8120   -4.0031 F   0  0  0  0  0  0  0  0  0  0  0  0
   -3.1015    2.9074   -2.1063 F   0  0  0  0  0  0  0  0  0  0  0  0
   -3.2796    1.1350   -3.3752 F   0  0  0  0  0  0  0  0  0  0  0  0
   -2.8291    1.0425    0.7589 C   0  0  0  0  0  0  0  0  0  0  0  0
   -4.3055    0.8655    1.1868 C   0  0  0  0  0  0  0  0  0  0  0  0
   -6.4180   -1.7025    1.5765 H   0  0  0  0  0  0  0  0  0  0  0  0
   -6.7274   -0.1470    0.8431 H   0  0  0  0  0  0  0  0  0  0  0  0
   -6.2958   -0.2456    2.5333 H   0  0  0  0  0  0  0  0  0  0  0  0
   -4.1803   -1.0554    1.9157 H   0  0  0  0  0  0  0  0  0  0  0  0
   -5.0961   -0.6758   -0.8406 H   0  0  0  0  0  0  0  0  0  0  0  0
   -4.6867   -2.2048   -0.0504 H   0  0  0  0  0  0  0  0  0  0  0  0
   -2.8806   -1.4126   -1.5511 H   0  0  0  0  0  0  0  0  0  0  0  0
   -2.3662   -1.5456    0.1162 H   0  0  0  0  0  0  0  0  0  0  0  0
   -0.2718   -0.4667    0.3595 H   0  0  0  0  0  0  0  0  0  0  0  0
    5.2992    2.2956    0.2355 H   0  0  0  0  0  0  0  0  0  0  0  0
    7.4278    1.7317    1.2601 H   0  0  0  0  0  0  0  0  0  0  0  0
    7.8571   -0.5413    2.0001 H   0  0  0  0  0  0  0  0  0  0  0  0
    7.1201   -2.7088    2.2290 H   0  0  0  0  0  0  0  0  0  0  0  0
    1.5959   -3.3428    0.0834 H   0  0  0  0  0  0  0  0  0  0  0  0
    2.1684    1.3379   -2.5395 H   0  0  0  0  0  0  0  0  0  0  0  0
    0.2097    2.2862   -3.5911 H   0  0  0  0  0  0  0  0  0  0  0  0
   -2.5984    2.0859    0.7032 H   0  0  0  0  0  0  0  0  0  0  0  0
   -2.1943    0.5698    1.4790 H   0  0  0  0  0  0  0  0  0  0  0  0
   -4.9288    1.3945    0.4965 H   0  0  0  0  0  0  0  0  0  0  0  0
   -4.4047    1.2501    2.1803 H   0  0  0  0  0  0  0  0  0  0  0  0
  1  2  1  0  0  0  0
  1 31  1  0  0  0  0
  1 32  1  0  0  0  0
  1 33  1  0  0  0  0
  2  3  1  0  0  0  0
  2 34  1  0  0  0  0
  3  4  1  0  0  0  0
  3 35  1  0  0  0  0
  3 36  1  0  0  0  0
  4  5  1  0  0  0  0
  4 37  1  0  0  0  0
  4 38  1  0  0  0  0
  5  6  1  0  0  0  0
  5 29  1  0  0  0  0
  6  7  2  0  0  0  0
  7  8  1  0  0  0  0
  7 39  1  0  0  0  0
  8  9  1  0  0  0  0
  8 22  2  0  0  0  0
  9 10  1  0  0  0  0
 10 11  1  0  0  0  0
 11 12  2  0  0  0  0
 12 13  1  0  0  0  0
 12 40  1  0  0  0  0
 13 14  2  0  0  0  0
 13 41  1  0  0  0  0
 14 15  1  0  0  0  0
 14 42  1  0  0  0  0
 15 16  1  0  0  0  0
 15 17  2  0  0  0  0
 16 43  1  0  0  0  0
 17 18  1  0  0  0  0
 17 11  1  0  0  0  0
 18 19  2  0  0  0  0
 18 20  1  0  0  0  0
 20 21  1  0  0  0  0
 20  9  2  0  0  0  0
 21 44  1  0  0  0  0
 22 23  1  0  0  0  0
 22 45  1  0  0  0  0
 23 24  2  0  0  0  0
 23 46  1  0  0  0  0
 24 25  1  0  0  0  0
 24  6  1  0  0  0  0
 25 26  1  0  0  0  0
 25 27  1  0  0  0  0
 25 28  1  0  0  0  0
 29 30  1  0  0  0  0
 29 47  1  0  0  0  0
 29 48  1  0  0  0  0
 30  2  1  0  0  0  0
 30 49  1  0  0  0  0
 30 50  1  0  0  0  0
M  CHG  1   2   1
M  END
$$$$
