
 OpenBabel08202615323D

 44 47  0  0  0  0  0  0  0  0999 V2000
   -3.2345   -2.1700    2.6940 C   0  0  0  0  0  0  0  0  0  0  0  0
   -2.0198   -1.6945    1.9439 C   0  0  0  0  0  0  0  0  0  0  0  0
   -0.7721   -2.2745    2.2169 C   0  0  0  0  0  0  0  0  0  0  0  0
    0.3720   -1.8566    1.5358 C   0  0  0  0  0  0  0  0  0  0  0  0
    0.2940   -0.8595    0.5576 C   0  0  0  0  0  0  0  0  0  0  0  0
    1.5194   -0.4184   -0.1417 C   0  0  0  0  0  0  0  0  0  0  0  0
    2.5816   -0.1876    0.7249 O   0  0  0  0  0  0  0  0  0  0  0  0
    3.7818    0.2275    0.2075 C   0  0  0  0  0  0  0  0  0  0  0  0
    4.8158    0.4620    1.1150 C   0  0  0  0  0  0  0  0  0  0  0  0
    6.0645    0.8850    0.6539 C   0  0  0  0  0  0  0  0  0  0  0  0
    6.2792    1.0729   -0.7130 C   0  0  0  0  0  0  0  0  0  0  0  0
    5.2457    0.8380   -1.6162 C   0  0  0  0  0  0  0  0  0  0  0  0
    5.5241    1.0411   -2.9401 O   0  0  0  0  0  0  0  0  0  0  0  0
    3.9961    0.4155   -1.1543 C   0  0  0  0  0  0  0  0  0  0  0  0
    2.8833    0.1576   -2.0693 C   0  0  0  0  0  0  0  0  0  0  0  0
    2.9957    0.2936   -3.2859 O   0  0  0  0  0  0  0  0  0  0  0  0
    1.5973   -0.2789   -1.4783 C   0  0  0  0  0  0  0  0  0  0  0  0
    0.5571   -0.5320   -2.3537 O   0  0  0  0  0  0  0  0  0  0  0  0
   -0.9559   -0.2791    0.2925 C   0  0  0  0  0  0  0  0  0  0  0  0
   -2.1218   -0.6798    0.9713 C   0  0  0  0  0  0  0  0  0  0  0  0
   -3.3818   -0.1293    0.6799 N   0  0  0  0  0  0  0  0  0  0  0  0
   -3.9937   -0.7400   -0.5167 C   0  0  0  0  0  0  0  0  0  0  0  0
   -4.8383    0.3790   -1.1151 C   0  0  0  0  0  0  0  0  0  0  0  0
   -3.9902    1.6060   -0.8359 C   0  0  0  0  0  0  0  0  0  0  0  0
   -3.4667    1.3382    0.5715 C   0  0  0  0  0  0  0  0  0  0  0  0
   -2.9505   -2.9384    3.3823 H   0  0  0  0  0  0  0  0  0  0  0  0
   -3.9517   -2.5587    2.0016 H   0  0  0  0  0  0  0  0  0  0  0  0
   -3.6650   -1.3510    3.2314 H   0  0  0  0  0  0  0  0  0  0  0  0
   -0.6995   -3.0180    2.9289 H   0  0  0  0  0  0  0  0  0  0  0  0
    1.2838   -2.2870    1.7557 H   0  0  0  0  0  0  0  0  0  0  0  0
    4.6580    0.3231    2.1254 H   0  0  0  0  0  0  0  0  0  0  0  0
    6.8295    1.0589    1.3244 H   0  0  0  0  0  0  0  0  0  0  0  0
    7.2021    1.3853   -1.0532 H   0  0  0  0  0  0  0  0  0  0  0  0
    6.3781    1.3250   -3.2011 H   0  0  0  0  0  0  0  0  0  0  0  0
    0.6808   -0.4138   -3.2749 H   0  0  0  0  0  0  0  0  0  0  0  0
   -1.0221    0.4634   -0.4212 H   0  0  0  0  0  0  0  0  0  0  0  0
   -4.6060   -1.5747   -0.2461 H   0  0  0  0  0  0  0  0  0  0  0  0
   -3.2649   -1.1165   -1.2037 H   0  0  0  0  0  0  0  0  0  0  0  0
   -5.7903    0.4473   -0.6315 H   0  0  0  0  0  0  0  0  0  0  0  0
   -5.0633    0.2395   -2.1518 H   0  0  0  0  0  0  0  0  0  0  0  0
   -4.5806    2.4979   -0.8648 H   0  0  0  0  0  0  0  0  0  0  0  0
   -3.2136    1.7584   -1.5561 H   0  0  0  0  0  0  0  0  0  0  0  0
   -4.1415    1.7300    1.3036 H   0  0  0  0  0  0  0  0  0  0  0  0
   -2.5201    1.8071    0.7419 H   0  0  0  0  0  0  0  0  0  0  0  0
  1  2  1  0  0  0  0
  1 26  1  0  0  0  0
  1 27  1  0  0  0  0
  1 28  1  0  0  0  0
  2  3  2  0  0  0  0
  3  4  1  0  0  0  0
  3 29  1  0  0  0  0
  4  5  2  0  0  0  0
  4 30  1  0  0  0  0
  5  6  1  0  0  0  0
  5 19  1  0  0  0  0
  6  7  1  0  0  0  0
  7  8  1  0  0  0  0
  8  9  2  0  0  0  0
  9 10  1  0  0  0  0
  9 31  1  0  0  0  0
 10 11  2  0  0  0  0
 10 32  1  0  0  0  0
 11 12  1  0  0  0  0
 11 33  1  0  0  0  0
 12 13  1  0  0  0  0
 12 14  2  0  0  0  0
 13 34  1  0  0  0  0
 14 15  1  0  0  0  0
 14  8  1  0  0  0  0
 15 16  2  0  0  0  0
 15 17  1  0  0  0  0
 17 18  1  0  0  0  0
 17  6  2  0  0  0  0
 18 35  1  0  0  0  0
 19 20  2  0  0  0  0
 19 36  1  0  0  0  0
 20 21  1  0  0  0  0
 20  2  1  0  0  0  0
 21 22  1  0  0  0  0
 22 23  1  0  0  0  0
 22 37  1  0  0  0  0
 22 38  1  0  0  0  0
 23 24  1  0  0  0  0
 23 39  1  0  0  0  0
 23 40  1  0  0  0  0
 24 25  1  0  0  0  0
 24 41  1  0  0  0  0
 24 42  1  0  0  0  0
 25 21  1  0  0  0  0
 25 43  1  0  0  0  0
 25 44  1  0  0  0  0
M  END
$$$$
