
 OpenBabel08202615343D

 44 46  0  0  0  0  0  0  0  0999 V2000
   -5.0313    2.2220   -0.5809 C   0  0  0  0  0  0  0  0  0  0  0  0
   -3.8699    1.2770   -0.8451 C   0  0  0  0  0  0  0  0  0  0  0  0
   -3.2852    0.7331    0.4599 C   0  0  0  0  0  0  0  0  0  0  0  0
   -2.1376   -0.2202    0.2053 C   0  0  0  0  0  0  0  0  0  0  0  0
   -0.8428    0.3251    0.0820 C   0  0  0  0  0  0  0  0  0  0  0  0
    0.2772   -0.4772   -0.1765 C   0  0  0  0  0  0  0  0  0  0  0  0
    1.6373    0.0928   -0.2786 C   0  0  0  0  0  0  0  0  0  0  0  0
    2.5762   -0.6142    0.4642 O   0  0  0  0  0  0  0  0  0  0  0  0
    3.8809   -0.1918    0.4589 C   0  0  0  0  0  0  0  0  0  0  0  0
    4.7863   -0.9216    1.2305 C   0  0  0  0  0  0  0  0  0  0  0  0
    6.1309   -0.5460    1.2677 C   0  0  0  0  0  0  0  0  0  0  0  0
    6.5699    0.5579    0.5338 C   0  0  0  0  0  0  0  0  0  0  0  0
    5.6644    1.2841   -0.2353 C   0  0  0  0  0  0  0  0  0  0  0  0
    6.1614    2.3531   -0.9294 O   0  0  0  0  0  0  0  0  0  0  0  0
    4.3188    0.9084   -0.2716 C   0  0  0  0  0  0  0  0  0  0  0  0
    3.3345    1.6441   -1.0667 C   0  0  0  0  0  0  0  0  0  0  0  0
    3.6451    2.6216   -1.7445 O   0  0  0  0  0  0  0  0  0  0  0  0
    1.9321    1.1693   -1.0309 C   0  0  0  0  0  0  0  0  0  0  0  0
    1.0134    1.8641   -1.7960 O   0  0  0  0  0  0  0  0  0  0  0  0
    0.0889   -1.8572   -0.2972 C   0  0  0  0  0  0  0  0  0  0  0  0
   -1.1867   -2.4147   -0.1842 C   0  0  0  0  0  0  0  0  0  0  0  0
   -2.3133   -1.6103    0.0569 C   0  0  0  0  0  0  0  0  0  0  0  0
   -3.6595   -2.2886    0.1752 C   0  0  0  0  0  0  0  0  0  0  0  0
   -3.9504   -2.7298    1.6024 C   0  0  0  0  0  0  0  0  0  0  0  0
   -5.4160    2.5833   -1.5117 H   0  0  0  0  0  0  0  0  0  0  0  0
   -4.6922    3.0475    0.0094 H   0  0  0  0  0  0  0  0  0  0  0  0
   -5.8030    1.7002   -0.0545 H   0  0  0  0  0  0  0  0  0  0  0  0
   -3.1053    1.8048   -1.3759 H   0  0  0  0  0  0  0  0  0  0  0  0
   -4.2317    0.4516   -1.4219 H   0  0  0  0  0  0  0  0  0  0  0  0
   -4.0537    0.2154    0.9949 H   0  0  0  0  0  0  0  0  0  0  0  0
   -2.9122    1.5596    1.0280 H   0  0  0  0  0  0  0  0  0  0  0  0
   -0.7163    1.3441    0.1851 H   0  0  0  0  0  0  0  0  0  0  0  0
    4.4626   -1.7377    1.7729 H   0  0  0  0  0  0  0  0  0  0  0  0
    6.8009   -1.0850    1.8383 H   0  0  0  0  0  0  0  0  0  0  0  0
    7.5636    0.8350    0.5614 H   0  0  0  0  0  0  0  0  0  0  0  0
    7.0722    2.5657   -0.8731 H   0  0  0  0  0  0  0  0  0  0  0  0
    1.2874    2.6068   -2.2973 H   0  0  0  0  0  0  0  0  0  0  0  0
    0.9006   -2.4702   -0.4716 H   0  0  0  0  0  0  0  0  0  0  0  0
   -1.3039   -3.4356   -0.2795 H   0  0  0  0  0  0  0  0  0  0  0  0
   -3.6705   -3.1485   -0.4615 H   0  0  0  0  0  0  0  0  0  0  0  0
   -4.4116   -1.5845   -0.1136 H   0  0  0  0  0  0  0  0  0  0  0  0
   -3.2101   -3.4362    1.9153 H   0  0  0  0  0  0  0  0  0  0  0  0
   -4.9179   -3.1847    1.6449 H   0  0  0  0  0  0  0  0  0  0  0  0
   -3.9277   -1.8787    2.2505 H   0  0  0  0  0  0  0  0  0  0  0  0
  1  2  1  0  0  0  0
  1 25  1  0  0  0  0
  1 26  1  0  0  0  0
  1 27  1  0  0  0  0
  2  3  1  0  0  0  0
  2 28  1  0  0  0  0
  2 29  1  0  0  0  0
  3  4  1  0  0  0  0
  3 30  1  0  0  0  0
  3 31  1  0  0  0  0
  4  5  2  0  0  0  0
  5  6  1  0  0  0  0
  5 32  1  0  0  0  0
  6  7  1  0  0  0  0
  6 20  2  0  0  0  0
  7  8  1  0  0  0  0
  8  9  1  0  0  0  0
  9 10  2  0  0  0  0
 10 11  1  0  0  0  0
 10 33  1  0  0  0  0
 11 12  2  0  0  0  0
 11 34  1  0  0  0  0
 12 13  1  0  0  0  0
 12 35  1  0  0  0  0
 13 14  1  0  0  0  0
 13 15  2  0  0  0  0
 14 36  1  0  0  0  0
 15 16  1  0  0  0  0
 15  9  1  0  0  0  0
 16 17  2  0  0  0  0
 16 18  1  0  0  0  0
 18 19  1  0  0  0  0
 18  7  2  0  0  0  0
 19 37  1  0  0  0  0
 20 21  1  0  0  0  0
 20 38  1  0  0  0  0
 21 22  2  0  0  0  0
 21 39  1  0  0  0  0
 22 23  1  0  0  0  0
 22  4  1  0  0  0  0
 23 24  1  0  0  0  0
 23 40  1  0  0  0  0
 23 41  1  0  0  0  0
 24 42  1  0  0  0  0
 24 43  1  0  0  0  0
 24 44  1  0  0  0  0
M  END
$$$$
