
 OpenBabel08202615333D

 36 38  0  0  0  0  0  0  0  0999 V2000
    4.3687   -1.9661    0.9141 C   0  0  0  0  0  0  0  0  0  0  0  0
    4.1873   -0.6401    0.8849 C   0  0  0  0  0  0  0  0  0  0  0  0
    3.1490    0.0004    0.0666 C   0  0  0  0  0  0  0  0  0  0  0  0
    1.8034   -0.3574    0.2658 C   0  0  0  0  0  0  0  0  0  0  0  0
    0.7711    0.2290   -0.4808 C   0  0  0  0  0  0  0  0  0  0  0  0
   -0.6454   -0.1299   -0.2611 C   0  0  0  0  0  0  0  0  0  0  0  0
   -1.4714    0.9803   -0.1321 O   0  0  0  0  0  0  0  0  0  0  0  0
   -2.8130    0.7870    0.0780 C   0  0  0  0  0  0  0  0  0  0  0  0
   -3.6032    1.9287    0.2180 C   0  0  0  0  0  0  0  0  0  0  0  0
   -4.9776    1.8023    0.4320 C   0  0  0  0  0  0  0  0  0  0  0  0
   -5.5612    0.5358    0.5055 C   0  0  0  0  0  0  0  0  0  0  0  0
   -4.7703   -0.6017    0.3654 C   0  0  0  0  0  0  0  0  0  0  0  0
   -5.4064   -1.8101    0.4473 O   0  0  0  0  0  0  0  0  0  0  0  0
   -3.3951   -0.4749    0.1521 C   0  0  0  0  0  0  0  0  0  0  0  0
   -2.5281   -1.6444   -0.0005 C   0  0  0  0  0  0  0  0  0  0  0  0
   -2.9673   -2.7916    0.0443 O   0  0  0  0  0  0  0  0  0  0  0  0
   -1.0829   -1.4017   -0.2150 C   0  0  0  0  0  0  0  0  0  0  0  0
   -0.2737   -2.5121   -0.3717 O   0  0  0  0  0  0  0  0  0  0  0  0
    1.1043    1.2076   -1.4241 C   0  0  0  0  0  0  0  0  0  0  0  0
    2.4362    1.5768   -1.6283 C   0  0  0  0  0  0  0  0  0  0  0  0
    3.4721    0.9800   -0.8905 C   0  0  0  0  0  0  0  0  0  0  0  0
    4.9018    1.3873   -1.1489 C   0  0  0  0  0  0  0  0  0  0  0  0
    5.4924    1.9597   -0.0619 F   0  0  0  0  0  0  0  0  0  0  0  0
    5.0301    2.3043   -2.1528 F   0  0  0  0  0  0  0  0  0  0  0  0
    5.1114   -2.3724    1.5043 H   0  0  0  0  0  0  0  0  0  0  0  0
    3.7658   -2.5820    0.3464 H   0  0  0  0  0  0  0  0  0  0  0  0
    4.8019   -0.0436    1.4607 H   0  0  0  0  0  0  0  0  0  0  0  0
    1.5704   -1.0675    0.9775 H   0  0  0  0  0  0  0  0  0  0  0  0
   -3.1727    2.8650    0.1635 H   0  0  0  0  0  0  0  0  0  0  0  0
   -5.5626    2.6461    0.5359 H   0  0  0  0  0  0  0  0  0  0  0  0
   -6.5768    0.4430    0.6634 H   0  0  0  0  0  0  0  0  0  0  0  0
   -6.3316   -1.8437    0.5916 H   0  0  0  0  0  0  0  0  0  0  0  0
   -0.6441   -3.3717   -0.3282 H   0  0  0  0  0  0  0  0  0  0  0  0
    0.3585    1.6612   -1.9746 H   0  0  0  0  0  0  0  0  0  0  0  0
    2.6622    2.2980   -2.3310 H   0  0  0  0  0  0  0  0  0  0  0  0
    5.3743    0.4639   -1.4115 H   0  0  0  0  0  0  0  0  0  0  0  0
  1  2  2  0  0  0  0
  1 25  1  0  0  0  0
  1 26  1  0  0  0  0
  2  3  1  0  0  0  0
  2 27  1  0  0  0  0
  3  4  2  0  0  0  0
  4  5  1  0  0  0  0
  4 28  1  0  0  0  0
  5  6  1  0  0  0  0
  5 19  2  0  0  0  0
  6  7  1  0  0  0  0
  7  8  1  0  0  0  0
  8  9  2  0  0  0  0
  9 10  1  0  0  0  0
  9 29  1  0  0  0  0
 10 11  2  0  0  0  0
 10 30  1  0  0  0  0
 11 12  1  0  0  0  0
 11 31  1  0  0  0  0
 12 13  1  0  0  0  0
 12 14  2  0  0  0  0
 13 32  1  0  0  0  0
 14 15  1  0  0  0  0
 14  8  1  0  0  0  0
 15 16  2  0  0  0  0
 15 17  1  0  0  0  0
 17 18  1  0  0  0  0
 17  6  2  0  0  0  0
 18 33  1  0  0  0  0
 19 20  1  0  0  0  0
 19 34  1  0  0  0  0
 20 21  2  0  0  0  0
 20 35  1  0  0  0  0
 21 22  1  0  0  0  0
 21  3  1  0  0  0  0
 22 23  1  0  0  0  0
 22 24  1  0  0  0  0
 22 36  1  0  0  0  0
M  END
$$$$
