
 OpenBabel08202615313D

 35 37  0  0  0  0  0  0  0  0999 V2000
   -5.1842   -1.0002   -0.0318 C   0  0  0  0  0  0  0  0  0  0  0  0
   -3.7163   -0.6721    0.0279 C   0  0  0  0  0  0  0  0  0  0  0  0
   -2.8224   -1.6268    0.5330 C   0  0  0  0  0  0  0  0  0  0  0  0
   -1.4527   -1.3604    0.5999 C   0  0  0  0  0  0  0  0  0  0  0  0
   -0.9392   -0.1326    0.1680 C   0  0  0  0  0  0  0  0  0  0  0  0
    0.5158    0.1201    0.2308 C   0  0  0  0  0  0  0  0  0  0  0  0
    1.2713   -0.9390   -0.2585 O   0  0  0  0  0  0  0  0  0  0  0  0
    2.6388   -0.8336   -0.2573 C   0  0  0  0  0  0  0  0  0  0  0  0
    3.3578   -1.9136   -0.7715 C   0  0  0  0  0  0  0  0  0  0  0  0
    4.7536   -1.8716   -0.7978 C   0  0  0  0  0  0  0  0  0  0  0  0
    5.4297   -0.7514   -0.3101 C   0  0  0  0  0  0  0  0  0  0  0  0
    4.7099    0.3247    0.2024 C   0  0  0  0  0  0  0  0  0  0  0  0
    5.4349    1.3891    0.6638 O   0  0  0  0  0  0  0  0  0  0  0  0
    3.3133    0.2829    0.2279 C   0  0  0  0  0  0  0  0  0  0  0  0
    2.5189    1.3922    0.7579 C   0  0  0  0  0  0  0  0  0  0  0  0
    3.0403    2.4087    1.2115 O   0  0  0  0  0  0  0  0  0  0  0  0
    1.0448    1.2515    0.7322 C   0  0  0  0  0  0  0  0  0  0  0  0
    0.3021    2.2983    1.2464 O   0  0  0  0  0  0  0  0  0  0  0  0
   -1.8309    0.8159   -0.3529 C   0  0  0  0  0  0  0  0  0  0  0  0
   -3.2166    0.5659   -0.4303 C   0  0  0  0  0  0  0  0  0  0  0  0
   -4.1314    1.6320   -0.9935 C   0  0  0  0  0  0  0  0  0  0  0  0
   -5.0145    2.1075   -0.0715 F   0  0  0  0  0  0  0  0  0  0  0  0
   -3.4707    2.7265   -1.4680 F   0  0  0  0  0  0  0  0  0  0  0  0
   -4.8846    1.1827   -2.0368 F   0  0  0  0  0  0  0  0  0  0  0  0
   -5.3467   -1.9813    0.3630 H   0  0  0  0  0  0  0  0  0  0  0  0
   -5.5164   -0.9652   -1.0483 H   0  0  0  0  0  0  0  0  0  0  0  0
   -5.7329   -0.2872    0.5475 H   0  0  0  0  0  0  0  0  0  0  0  0
   -3.1808   -2.5378    0.8595 H   0  0  0  0  0  0  0  0  0  0  0  0
   -0.8116   -2.0781    0.9725 H   0  0  0  0  0  0  0  0  0  0  0  0
    2.8589   -2.7420   -1.1318 H   0  0  0  0  0  0  0  0  0  0  0  0
    5.2860   -2.6696   -1.1782 H   0  0  0  0  0  0  0  0  0  0  0  0
    6.4611   -0.7211   -0.3295 H   0  0  0  0  0  0  0  0  0  0  0  0
    6.3709    1.3703    0.6254 H   0  0  0  0  0  0  0  0  0  0  0  0
    0.7342    3.0595    1.5806 H   0  0  0  0  0  0  0  0  0  0  0  0
   -1.4637    1.7202   -0.6883 H   0  0  0  0  0  0  0  0  0  0  0  0
  1  2  1  0  0  0  0
  1 25  1  0  0  0  0
  1 26  1  0  0  0  0
  1 27  1  0  0  0  0
  2  3  2  0  0  0  0
  3  4  1  0  0  0  0
  3 28  1  0  0  0  0
  4  5  2  0  0  0  0
  4 29  1  0  0  0  0
  5  6  1  0  0  0  0
  5 19  1  0  0  0  0
  6  7  1  0  0  0  0
  7  8  1  0  0  0  0
  8  9  2  0  0  0  0
  9 10  1  0  0  0  0
  9 30  1  0  0  0  0
 10 11  2  0  0  0  0
 10 31  1  0  0  0  0
 11 12  1  0  0  0  0
 11 32  1  0  0  0  0
 12 13  1  0  0  0  0
 12 14  2  0  0  0  0
 13 33  1  0  0  0  0
 14 15  1  0  0  0  0
 14  8  1  0  0  0  0
 15 16  2  0  0  0  0
 15 17  1  0  0  0  0
 17 18  1  0  0  0  0
 17  6  2  0  0  0  0
 18 34  1  0  0  0  0
 19 20  2  0  0  0  0
 19 35  1  0  0  0  0
 20 21  1  0  0  0  0
 20  2  1  0  0  0  0
 21 22  1  0  0  0  0
 21 23  1  0  0  0  0
 21 24  1  0  0  0  0
M  END
$$$$
