
 OpenBabel08202615323D

 50 53  0  0  0  0  0  0  0  0999 V2000
    3.4791   -2.2824   -2.4251 C   0  0  0  0  0  0  0  0  0  0  0  0
    2.9838   -2.5711   -1.0157 C   0  0  0  0  0  0  0  0  0  0  0  0
    1.6551   -1.9059   -0.7333 C   0  0  0  0  0  0  0  0  0  0  0  0
    0.4740   -2.6324   -0.9522 C   0  0  0  0  0  0  0  0  0  0  0  0
   -0.7749   -2.0527   -0.7226 C   0  0  0  0  0  0  0  0  0  0  0  0
   -0.8760   -0.7305   -0.2764 C   0  0  0  0  0  0  0  0  0  0  0  0
   -2.2068   -0.1440   -0.0097 C   0  0  0  0  0  0  0  0  0  0  0  0
   -3.0366   -0.9945    0.7121 O   0  0  0  0  0  0  0  0  0  0  0  0
   -4.3033   -0.5751    1.0284 C   0  0  0  0  0  0  0  0  0  0  0  0
   -5.0964   -1.4551    1.7661 C   0  0  0  0  0  0  0  0  0  0  0  0
   -6.3973   -1.0903    2.1203 C   0  0  0  0  0  0  0  0  0  0  0  0
   -6.9046    0.1528    1.7369 C   0  0  0  0  0  0  0  0  0  0  0  0
   -6.1111    1.0288    1.0007 C   0  0  0  0  0  0  0  0  0  0  0  0
   -6.6704    2.2293    0.6580 O   0  0  0  0  0  0  0  0  0  0  0  0
   -4.8093    0.6637    0.6471 C   0  0  0  0  0  0  0  0  0  0  0  0
   -3.9422    1.5541   -0.1256 C   0  0  0  0  0  0  0  0  0  0  0  0
   -4.3187    2.6611   -0.5055 O   0  0  0  0  0  0  0  0  0  0  0  0
   -2.5765    1.0761   -0.4420 C   0  0  0  0  0  0  0  0  0  0  0  0
   -1.7713    1.9211   -1.1835 O   0  0  0  0  0  0  0  0  0  0  0  0
    0.3062   -0.0081   -0.0549 C   0  0  0  0  0  0  0  0  0  0  0  0
    1.5751   -0.5706   -0.2888 C   0  0  0  0  0  0  0  0  0  0  0  0
    2.7658    0.1606   -0.0761 N   0  0  0  0  0  0  0  0  0  0  0  0
    2.8306    1.4040   -0.8614 C   0  0  0  0  0  0  0  0  0  0  0  0
    4.2405    1.9860   -0.7510 C   0  0  0  0  0  0  0  0  0  0  0  0
    4.6326    2.2034    0.7101 C   0  0  0  0  0  0  0  0  0  0  0  0
    4.4520    0.9206    1.5210 C   0  0  0  0  0  0  0  0  0  0  0  0
    3.0413    0.3532    1.3568 C   0  0  0  0  0  0  0  0  0  0  0  0
    4.4183   -2.7710   -2.5801 H   0  0  0  0  0  0  0  0  0  0  0  0
    3.6010   -1.2269   -2.5511 H   0  0  0  0  0  0  0  0  0  0  0  0
    2.7662   -2.6463   -3.1352 H   0  0  0  0  0  0  0  0  0  0  0  0
    3.7068   -2.2093   -0.3148 H   0  0  0  0  0  0  0  0  0  0  0  0
    2.8496   -3.6286   -0.9233 H   0  0  0  0  0  0  0  0  0  0  0  0
    0.5297   -3.6070   -1.2870 H   0  0  0  0  0  0  0  0  0  0  0  0
   -1.6319   -2.6047   -0.8835 H   0  0  0  0  0  0  0  0  0  0  0  0
   -4.7222   -2.3742    2.0495 H   0  0  0  0  0  0  0  0  0  0  0  0
   -6.9843   -1.7404    2.6661 H   0  0  0  0  0  0  0  0  0  0  0  0
   -7.8659    0.4219    1.9987 H   0  0  0  0  0  0  0  0  0  0  0  0
   -7.5481    2.4287    0.9186 H   0  0  0  0  0  0  0  0  0  0  0  0
   -2.0933    2.7590   -1.4520 H   0  0  0  0  0  0  0  0  0  0  0  0
    0.2437    0.9629    0.2891 H   0  0  0  0  0  0  0  0  0  0  0  0
    2.1206    2.1075   -0.4795 H   0  0  0  0  0  0  0  0  0  0  0  0
    2.6024    1.1981   -1.8863 H   0  0  0  0  0  0  0  0  0  0  0  0
    4.2727    2.9240   -1.2648 H   0  0  0  0  0  0  0  0  0  0  0  0
    4.9293    1.2939   -1.1886 H   0  0  0  0  0  0  0  0  0  0  0  0
    4.0156    2.9714    1.1277 H   0  0  0  0  0  0  0  0  0  0  0  0
    5.6630    2.4892    0.7482 H   0  0  0  0  0  0  0  0  0  0  0  0
    4.6232    1.1350    2.5552 H   0  0  0  0  0  0  0  0  0  0  0  0
    5.1518    0.1941    1.1640 H   0  0  0  0  0  0  0  0  0  0  0  0
    2.3294    1.0367    1.7702 H   0  0  0  0  0  0  0  0  0  0  0  0
    2.9668   -0.5837    1.8683 H   0  0  0  0  0  0  0  0  0  0  0  0
  1  2  1  0  0  0  0
  1 28  1  0  0  0  0
  1 29  1  0  0  0  0
  1 30  1  0  0  0  0
  2  3  1  0  0  0  0
  2 31  1  0  0  0  0
  2 32  1  0  0  0  0
  3  4  2  0  0  0  0
  4  5  1  0  0  0  0
  4 33  1  0  0  0  0
  5  6  2  0  0  0  0
  5 34  1  0  0  0  0
  6  7  1  0  0  0  0
  6 20  1  0  0  0  0
  7  8  1  0  0  0  0
  8  9  1  0  0  0  0
  9 10  2  0  0  0  0
 10 11  1  0  0  0  0
 10 35  1  0  0  0  0
 11 12  2  0  0  0  0
 11 36  1  0  0  0  0
 12 13  1  0  0  0  0
 12 37  1  0  0  0  0
 13 14  1  0  0  0  0
 13 15  2  0  0  0  0
 14 38  1  0  0  0  0
 15 16  1  0  0  0  0
 15  9  1  0  0  0  0
 16 17  2  0  0  0  0
 16 18  1  0  0  0  0
 18 19  1  0  0  0  0
 18  7  2  0  0  0  0
 19 39  1  0  0  0  0
 20 21  2  0  0  0  0
 20 40  1  0  0  0  0
 21 22  1  0  0  0  0
 21  3  1  0  0  0  0
 22 23  1  0  0  0  0
 23 24  1  0  0  0  0
 23 41  1  0  0  0  0
 23 42  1  0  0  0  0
 24 25  1  0  0  0  0
 24 43  1  0  0  0  0
 24 44  1  0  0  0  0
 25 26  1  0  0  0  0
 25 45  1  0  0  0  0
 25 46  1  0  0  0  0
 26 27  1  0  0  0  0
 26 47  1  0  0  0  0
 26 48  1  0  0  0  0
 27 22  1  0  0  0  0
 27 49  1  0  0  0  0
 27 50  1  0  0  0  0
M  END
$$$$
