
 OpenBabel08202615333D

 38 40  0  0  0  0  0  0  0  0999 V2000
   -5.1805   -1.7805   -0.1791 C   0  0  0  0  0  0  0  0  0  0  0  0
   -4.7925   -0.3638   -0.5776 C   0  0  0  0  0  0  0  0  0  0  0  0
   -3.3040   -0.1254   -0.4494 C   0  0  0  0  0  0  0  0  0  0  0  0
   -2.4721   -0.5399   -1.5030 C   0  0  0  0  0  0  0  0  0  0  0  0
   -1.0892   -0.3551   -1.4449 C   0  0  0  0  0  0  0  0  0  0  0  0
   -0.4972    0.2537   -0.3343 C   0  0  0  0  0  0  0  0  0  0  0  0
    0.9694    0.4250   -0.2822 C   0  0  0  0  0  0  0  0  0  0  0  0
    1.6623   -0.7286   -0.6292 O   0  0  0  0  0  0  0  0  0  0  0  0
    3.0336   -0.7060   -0.6182 C   0  0  0  0  0  0  0  0  0  0  0  0
    3.6895   -1.8905   -0.9563 C   0  0  0  0  0  0  0  0  0  0  0  0
    5.0854   -1.9349   -0.9670 C   0  0  0  0  0  0  0  0  0  0  0  0
    5.8247   -0.7961   -0.6407 C   0  0  0  0  0  0  0  0  0  0  0  0
    5.1677    0.3845   -0.3037 C   0  0  0  0  0  0  0  0  0  0  0  0
    5.9526    1.4618    0.0043 O   0  0  0  0  0  0  0  0  0  0  0  0
    3.7709    0.4284   -0.2920 C   0  0  0  0  0  0  0  0  0  0  0  0
    3.0415    1.6488    0.0562 C   0  0  0  0  0  0  0  0  0  0  0  0
    3.6204    2.6935    0.3468 O   0  0  0  0  0  0  0  0  0  0  0  0
    1.5618    1.5878    0.0465 C   0  0  0  0  0  0  0  0  0  0  0  0
    0.8804    2.7485    0.3640 O   0  0  0  0  0  0  0  0  0  0  0  0
   -1.3234    0.6532    0.7256 C   0  0  0  0  0  0  0  0  0  0  0  0
   -2.7213    0.4704    0.6892 C   0  0  0  0  0  0  0  0  0  0  0  0
   -3.5466    0.9570    1.8589 C   0  0  0  0  0  0  0  0  0  0  0  0
   -4.4333    0.0284    2.3144 F   0  0  0  0  0  0  0  0  0  0  0  0
   -2.7996    1.3028    2.9475 F   0  0  0  0  0  0  0  0  0  0  0  0
   -6.2381   -1.9038   -0.2849 H   0  0  0  0  0  0  0  0  0  0  0  0
   -4.9013   -1.9537    0.8392 H   0  0  0  0  0  0  0  0  0  0  0  0
   -4.6749   -2.4800   -0.8115 H   0  0  0  0  0  0  0  0  0  0  0  0
   -5.3086    0.3267    0.0562 H   0  0  0  0  0  0  0  0  0  0  0  0
   -5.0620   -0.2240   -1.6036 H   0  0  0  0  0  0  0  0  0  0  0  0
   -2.8899   -0.9882   -2.3334 H   0  0  0  0  0  0  0  0  0  0  0  0
   -0.4982   -0.6711   -2.2297 H   0  0  0  0  0  0  0  0  0  0  0  0
    3.1439   -2.7324   -1.1981 H   0  0  0  0  0  0  0  0  0  0  0  0
    5.5712   -2.8106   -1.2164 H   0  0  0  0  0  0  0  0  0  0  0  0
    6.8561   -0.8294   -0.6493 H   0  0  0  0  0  0  0  0  0  0  0  0
    6.8860    1.3829   -0.0177 H   0  0  0  0  0  0  0  0  0  0  0  0
    1.3556    3.5254    0.5843 H   0  0  0  0  0  0  0  0  0  0  0  0
   -0.8966    1.0934    1.5557 H   0  0  0  0  0  0  0  0  0  0  0  0
   -4.0492    1.8093    1.4517 H   0  0  0  0  0  0  0  0  0  0  0  0
  1  2  1  0  0  0  0
  1 25  1  0  0  0  0
  1 26  1  0  0  0  0
  1 27  1  0  0  0  0
  2  3  1  0  0  0  0
  2 28  1  0  0  0  0
  2 29  1  0  0  0  0
  3  4  2  0  0  0  0
  4  5  1  0  0  0  0
  4 30  1  0  0  0  0
  5  6  2  0  0  0  0
  5 31  1  0  0  0  0
  6  7  1  0  0  0  0
  6 20  1  0  0  0  0
  7  8  1  0  0  0  0
  8  9  1  0  0  0  0
  9 10  2  0  0  0  0
 10 11  1  0  0  0  0
 10 32  1  0  0  0  0
 11 12  2  0  0  0  0
 11 33  1  0  0  0  0
 12 13  1  0  0  0  0
 12 34  1  0  0  0  0
 13 14  1  0  0  0  0
 13 15  2  0  0  0  0
 14 35  1  0  0  0  0
 15 16  1  0  0  0  0
 15  9  1  0  0  0  0
 16 17  2  0  0  0  0
 16 18  1  0  0  0  0
 18 19  1  0  0  0  0
 18  7  2  0  0  0  0
 19 36  1  0  0  0  0
 20 21  2  0  0  0  0
 20 37  1  0  0  0  0
 21 22  1  0  0  0  0
 21  3  1  0  0  0  0
 22 23  1  0  0  0  0
 22 24  1  0  0  0  0
 22 38  1  0  0  0  0
M  END
$$$$
