
 OpenBabel08202615353D

 46 48  0  0  0  0  0  0  0  0999 V2000
    3.5044    0.7153   -2.2303 C   0  0  0  0  0  0  0  0  0  0  0  0
    3.2534   -0.5901   -1.4869 C   0  0  0  0  0  0  0  0  0  0  0  0
    3.2155   -0.3817   -0.0247 N   0  0  0  0  0  0  0  0  0  0  0  0
    3.3910   -1.6090    0.7776 C   0  0  0  0  0  0  0  0  0  0  0  0
    4.8704   -1.9470    0.9042 C   0  0  0  0  0  0  0  0  0  0  0  0
    2.0676    0.3294    0.4152 C   0  0  0  0  0  0  0  0  0  0  0  0
    0.7635   -0.1497    0.1903 C   0  0  0  0  0  0  0  0  0  0  0  0
   -0.3661    0.5467    0.6451 C   0  0  0  0  0  0  0  0  0  0  0  0
   -1.7367    0.0574    0.3858 C   0  0  0  0  0  0  0  0  0  0  0  0
   -2.5807    1.0490   -0.1011 O   0  0  0  0  0  0  0  0  0  0  0  0
   -3.8840    0.7305   -0.3847 C   0  0  0  0  0  0  0  0  0  0  0  0
   -4.6915    1.7527   -0.8855 C   0  0  0  0  0  0  0  0  0  0  0  0
   -6.0293    1.4958   -1.1935 C   0  0  0  0  0  0  0  0  0  0  0  0
   -6.5593    0.2184   -1.0004 C   0  0  0  0  0  0  0  0  0  0  0  0
   -5.7514   -0.7995   -0.5004 C   0  0  0  0  0  0  0  0  0  0  0  0
   -6.3343   -2.0261   -0.3354 O   0  0  0  0  0  0  0  0  0  0  0  0
   -4.4125   -0.5422   -0.1930 C   0  0  0  0  0  0  0  0  0  0  0  0
   -3.5292   -1.5833    0.3342 C   0  0  0  0  0  0  0  0  0  0  0  0
   -3.9231   -2.7299    0.5379 O   0  0  0  0  0  0  0  0  0  0  0  0
   -2.1247   -1.2100    0.6201 C   0  0  0  0  0  0  0  0  0  0  0  0
   -1.3030   -2.1985    1.1301 O   0  0  0  0  0  0  0  0  0  0  0  0
   -0.1757    1.7537    1.3278 C   0  0  0  0  0  0  0  0  0  0  0  0
    1.1105    2.2401    1.5701 C   0  0  0  0  0  0  0  0  0  0  0  0
    2.2375    1.5347    1.1257 C   0  0  0  0  0  0  0  0  0  0  0  0
    3.6116    2.0779    1.4068 C   0  0  0  0  0  0  0  0  0  0  0  0
    3.5255    0.5276   -3.2835 H   0  0  0  0  0  0  0  0  0  0  0  0
    4.4431    1.1263   -1.9224 H   0  0  0  0  0  0  0  0  0  0  0  0
    2.7209    1.4091   -2.0073 H   0  0  0  0  0  0  0  0  0  0  0  0
    4.0381   -1.2792   -1.7197 H   0  0  0  0  0  0  0  0  0  0  0  0
    2.3042   -0.9753   -1.7959 H   0  0  0  0  0  0  0  0  0  0  0  0
    2.8828   -2.4199    0.2990 H   0  0  0  0  0  0  0  0  0  0  0  0
    2.9845   -1.4489    1.7543 H   0  0  0  0  0  0  0  0  0  0  0  0
    5.2839   -2.1085   -0.0694 H   0  0  0  0  0  0  0  0  0  0  0  0
    4.9846   -2.8339    1.4918 H   0  0  0  0  0  0  0  0  0  0  0  0
    5.3822   -1.1361    1.3791 H   0  0  0  0  0  0  0  0  0  0  0  0
    0.6350   -1.0361   -0.3224 H   0  0  0  0  0  0  0  0  0  0  0  0
   -4.3006    2.6971   -1.0280 H   0  0  0  0  0  0  0  0  0  0  0  0
   -6.6269    2.2510   -1.5643 H   0  0  0  0  0  0  0  0  0  0  0  0
   -7.5480    0.0291   -1.2279 H   0  0  0  0  0  0  0  0  0  0  0  0
   -7.2366   -2.1495   -0.5560 H   0  0  0  0  0  0  0  0  0  0  0  0
   -1.6394   -3.0620    1.2688 H   0  0  0  0  0  0  0  0  0  0  0  0
   -0.9945    2.2897    1.6555 H   0  0  0  0  0  0  0  0  0  0  0  0
    1.2327    3.1280    2.0816 H   0  0  0  0  0  0  0  0  0  0  0  0
    3.5280    2.9940    1.9533 H   0  0  0  0  0  0  0  0  0  0  0  0
    4.1195    2.2589    0.4826 H   0  0  0  0  0  0  0  0  0  0  0  0
    4.1648    1.3672    1.9845 H   0  0  0  0  0  0  0  0  0  0  0  0
  1  2  1  0  0  0  0
  1 26  1  0  0  0  0
  1 27  1  0  0  0  0
  1 28  1  0  0  0  0
  2  3  1  0  0  0  0
  2 29  1  0  0  0  0
  2 30  1  0  0  0  0
  3  4  1  0  0  0  0
  3  6  1  0  0  0  0
  4  5  1  0  0  0  0
  4 31  1  0  0  0  0
  4 32  1  0  0  0  0
  5 33  1  0  0  0  0
  5 34  1  0  0  0  0
  5 35  1  0  0  0  0
  6  7  2  0  0  0  0
  7  8  1  0  0  0  0
  7 36  1  0  0  0  0
  8  9  1  0  0  0  0
  8 22  2  0  0  0  0
  9 10  1  0  0  0  0
 10 11  1  0  0  0  0
 11 12  2  0  0  0  0
 12 13  1  0  0  0  0
 12 37  1  0  0  0  0
 13 14  2  0  0  0  0
 13 38  1  0  0  0  0
 14 15  1  0  0  0  0
 14 39  1  0  0  0  0
 15 16  1  0  0  0  0
 15 17  2  0  0  0  0
 16 40  1  0  0  0  0
 17 18  1  0  0  0  0
 17 11  1  0  0  0  0
 18 19  2  0  0  0  0
 18 20  1  0  0  0  0
 20 21  1  0  0  0  0
 20  9  2  0  0  0  0
 21 41  1  0  0  0  0
 22 23  1  0  0  0  0
 22 42  1  0  0  0  0
 23 24  2  0  0  0  0
 23 43  1  0  0  0  0
 24 25  1  0  0  0  0
 24  6  1  0  0  0  0
 25 44  1  0  0  0  0
 25 45  1  0  0  0  0
 25 46  1  0  0  0  0
M  END
$$$$
