
 OpenBabel08202615323D

 38 40  0  0  0  0  0  0  0  0999 V2000
   -4.1842   -1.6493   -1.1765 C   0  0  0  0  0  0  0  0  0  0  0  0
   -3.9854   -1.1463    0.2460 C   0  0  0  0  0  0  0  0  0  0  0  0
   -2.9265   -0.0680    0.3234 C   0  0  0  0  0  0  0  0  0  0  0  0
   -1.5755   -0.4678    0.3815 C   0  0  0  0  0  0  0  0  0  0  0  0
   -0.5309    0.4648    0.4487 C   0  0  0  0  0  0  0  0  0  0  0  0
    0.8858    0.0453    0.4862 C   0  0  0  0  0  0  0  0  0  0  0  0
    1.6803    0.7432   -0.4161 O   0  0  0  0  0  0  0  0  0  0  0  0
    3.0185    0.4510   -0.4854 C   0  0  0  0  0  0  0  0  0  0  0  0
    3.7753    1.1643   -1.4160 C   0  0  0  0  0  0  0  0  0  0  0  0
    5.1446    0.9168   -1.5363 C   0  0  0  0  0  0  0  0  0  0  0  0
    5.7565   -0.0423   -0.7267 C   0  0  0  0  0  0  0  0  0  0  0  0
    4.9990   -0.7525    0.2010 C   0  0  0  0  0  0  0  0  0  0  0  0
    5.6615   -1.6764    0.9618 O   0  0  0  0  0  0  0  0  0  0  0  0
    3.6287   -0.5053    0.3205 C   0  0  0  0  0  0  0  0  0  0  0  0
    2.7962   -1.2291    1.2824 C   0  0  0  0  0  0  0  0  0  0  0  0
    3.2619   -2.0825    2.0348 O   0  0  0  0  0  0  0  0  0  0  0  0
    1.3532   -0.8982    1.3245 C   0  0  0  0  0  0  0  0  0  0  0  0
    0.5781   -1.5785    2.2458 O   0  0  0  0  0  0  0  0  0  0  0  0
   -0.8550    1.8251    0.4368 C   0  0  0  0  0  0  0  0  0  0  0  0
   -2.1877    2.2402    0.3751 C   0  0  0  0  0  0  0  0  0  0  0  0
   -3.2379    1.3080    0.3139 C   0  0  0  0  0  0  0  0  0  0  0  0
   -4.6624    1.8130    0.2708 C   0  0  0  0  0  0  0  0  0  0  0  0
   -5.3905    1.2774   -0.7482 F   0  0  0  0  0  0  0  0  0  0  0  0
   -4.7556    3.1650    0.1083 F   0  0  0  0  0  0  0  0  0  0  0  0
   -4.9389   -2.4078   -1.1844 H   0  0  0  0  0  0  0  0  0  0  0  0
   -3.2650   -2.0569   -1.5424 H   0  0  0  0  0  0  0  0  0  0  0  0
   -4.4884   -0.8369   -1.8028 H   0  0  0  0  0  0  0  0  0  0  0  0
   -3.6881   -1.9674    0.8643 H   0  0  0  0  0  0  0  0  0  0  0  0
   -4.9107   -0.7253    0.5800 H   0  0  0  0  0  0  0  0  0  0  0  0
   -1.3495   -1.4747    0.3744 H   0  0  0  0  0  0  0  0  0  0  0  0
    3.3238    1.8736   -2.0144 H   0  0  0  0  0  0  0  0  0  0  0  0
    5.7049    1.4435   -2.2245 H   0  0  0  0  0  0  0  0  0  0  0  0
    6.7684   -0.2245   -0.8158 H   0  0  0  0  0  0  0  0  0  0  0  0
    6.5820   -1.8064    0.8448 H   0  0  0  0  0  0  0  0  0  0  0  0
    0.9687   -2.2250    2.8002 H   0  0  0  0  0  0  0  0  0  0  0  0
   -0.1019    2.5298    0.4740 H   0  0  0  0  0  0  0  0  0  0  0  0
   -2.4048    3.2491    0.3745 H   0  0  0  0  0  0  0  0  0  0  0  0
   -5.0477    1.5140    1.2232 H   0  0  0  0  0  0  0  0  0  0  0  0
  1  2  1  0  0  0  0
  1 25  1  0  0  0  0
  1 26  1  0  0  0  0
  1 27  1  0  0  0  0
  2  3  1  0  0  0  0
  2 28  1  0  0  0  0
  2 29  1  0  0  0  0
  3  4  2  0  0  0  0
  4  5  1  0  0  0  0
  4 30  1  0  0  0  0
  5  6  1  0  0  0  0
  5 19  2  0  0  0  0
  6  7  1  0  0  0  0
  7  8  1  0  0  0  0
  8  9  2  0  0  0  0
  9 10  1  0  0  0  0
  9 31  1  0  0  0  0
 10 11  2  0  0  0  0
 10 32  1  0  0  0  0
 11 12  1  0  0  0  0
 11 33  1  0  0  0  0
 12 13  1  0  0  0  0
 12 14  2  0  0  0  0
 13 34  1  0  0  0  0
 14 15  1  0  0  0  0
 14  8  1  0  0  0  0
 15 16  2  0  0  0  0
 15 17  1  0  0  0  0
 17 18  1  0  0  0  0
 17  6  2  0  0  0  0
 18 35  1  0  0  0  0
 19 20  1  0  0  0  0
 19 36  1  0  0  0  0
 20 21  2  0  0  0  0
 20 37  1  0  0  0  0
 21 22  1  0  0  0  0
 21  3  1  0  0  0  0
 22 23  1  0  0  0  0
 22 24  1  0  0  0  0
 22 38  1  0  0  0  0
M  END
$$$$
