
 OpenBabel08202615343D

 36 38  0  0  0  0  0  0  0  0999 V2000
    3.5968   -2.6341    0.7279 C   0  0  0  0  0  0  0  0  0  0  0  0
    3.8998   -1.4258    0.2366 C   0  0  0  0  0  0  0  0  0  0  0  0
    3.0206   -0.2541    0.3695 C   0  0  0  0  0  0  0  0  0  0  0  0
    1.6711   -0.3550   -0.0140 C   0  0  0  0  0  0  0  0  0  0  0  0
    0.8008    0.7439    0.0597 C   0  0  0  0  0  0  0  0  0  0  0  0
   -0.6178    0.5847   -0.3248 C   0  0  0  0  0  0  0  0  0  0  0  0
   -1.1973   -0.5593    0.2121 O   0  0  0  0  0  0  0  0  0  0  0  0
   -2.5122   -0.8306   -0.0672 C   0  0  0  0  0  0  0  0  0  0  0  0
   -3.0565   -1.9821    0.5033 C   0  0  0  0  0  0  0  0  0  0  0  0
   -4.3900   -2.3174    0.2579 C   0  0  0  0  0  0  0  0  0  0  0  0
   -5.1781   -1.5024   -0.5573 C   0  0  0  0  0  0  0  0  0  0  0  0
   -4.6323   -0.3542   -1.1252 C   0  0  0  0  0  0  0  0  0  0  0  0
   -5.4595    0.3982   -1.9134 O   0  0  0  0  0  0  0  0  0  0  0  0
   -3.2982   -0.0186   -0.8789 C   0  0  0  0  0  0  0  0  0  0  0  0
   -2.6855    1.1787   -1.4562 C   0  0  0  0  0  0  0  0  0  0  0  0
   -3.3120    1.9418   -2.1887 O   0  0  0  0  0  0  0  0  0  0  0  0
   -1.2666    1.4483   -1.1279 C   0  0  0  0  0  0  0  0  0  0  0  0
   -0.6940    2.5743   -1.6899 O   0  0  0  0  0  0  0  0  0  0  0  0
    1.3038    1.9590    0.5347 C   0  0  0  0  0  0  0  0  0  0  0  0
    2.6445    2.0784    0.9093 C   0  0  0  0  0  0  0  0  0  0  0  0
    3.5150    0.9805    0.8321 C   0  0  0  0  0  0  0  0  0  0  0  0
    4.9515    1.1583    1.2444 C   0  0  0  0  0  0  0  0  0  0  0  0
    4.2532   -3.4208    0.6043 H   0  0  0  0  0  0  0  0  0  0  0  0
    2.7069   -2.7786    1.2301 H   0  0  0  0  0  0  0  0  0  0  0  0
    4.7966   -1.3107   -0.2610 H   0  0  0  0  0  0  0  0  0  0  0  0
    1.3119   -1.2592   -0.3580 H   0  0  0  0  0  0  0  0  0  0  0  0
   -2.4745   -2.5850    1.1056 H   0  0  0  0  0  0  0  0  0  0  0  0
   -4.7934   -3.1686    0.6796 H   0  0  0  0  0  0  0  0  0  0  0  0
   -6.1633   -1.7506   -0.7385 H   0  0  0  0  0  0  0  0  0  0  0  0
   -6.3476    0.1318   -2.0489 H   0  0  0  0  0  0  0  0  0  0  0  0
   -1.2046    3.1340   -2.2412 H   0  0  0  0  0  0  0  0  0  0  0  0
    0.6781    2.7763    0.6094 H   0  0  0  0  0  0  0  0  0  0  0  0
    2.9995    2.9865    1.2474 H   0  0  0  0  0  0  0  0  0  0  0  0
    5.1095    2.1683    1.5604 H   0  0  0  0  0  0  0  0  0  0  0  0
    5.5904    0.9403    0.4143 H   0  0  0  0  0  0  0  0  0  0  0  0
    5.1759    0.4928    2.0516 H   0  0  0  0  0  0  0  0  0  0  0  0
  1  2  2  0  0  0  0
  1 23  1  0  0  0  0
  1 24  1  0  0  0  0
  2  3  1  0  0  0  0
  2 25  1  0  0  0  0
  3  4  2  0  0  0  0
  4  5  1  0  0  0  0
  4 26  1  0  0  0  0
  5  6  1  0  0  0  0
  5 19  2  0  0  0  0
  6  7  1  0  0  0  0
  7  8  1  0  0  0  0
  8  9  2  0  0  0  0
  9 10  1  0  0  0  0
  9 27  1  0  0  0  0
 10 11  2  0  0  0  0
 10 28  1  0  0  0  0
 11 12  1  0  0  0  0
 11 29  1  0  0  0  0
 12 13  1  0  0  0  0
 12 14  2  0  0  0  0
 13 30  1  0  0  0  0
 14 15  1  0  0  0  0
 14  8  1  0  0  0  0
 15 16  2  0  0  0  0
 15 17  1  0  0  0  0
 17 18  1  0  0  0  0
 17  6  2  0  0  0  0
 18 31  1  0  0  0  0
 19 20  1  0  0  0  0
 19 32  1  0  0  0  0
 20 21  2  0  0  0  0
 20 33  1  0  0  0  0
 21 22  1  0  0  0  0
 21  3  1  0  0  0  0
 22 34  1  0  0  0  0
 22 35  1  0  0  0  0
 22 36  1  0  0  0  0
M  END
$$$$
