
 OpenBabel08202615323D

 35 37  0  0  0  0  0  0  0  0999 V2000
   -4.1084    1.9231    0.1954 C   0  0  0  0  0  0  0  0  0  0  0  0
   -3.2121    0.7150    0.1407 C   0  0  0  0  0  0  0  0  0  0  0  0
   -1.8327    0.9004   -0.0687 C   0  0  0  0  0  0  0  0  0  0  0  0
   -0.9447   -0.1839   -0.1200 C   0  0  0  0  0  0  0  0  0  0  0  0
    0.5071    0.0086   -0.3204 C   0  0  0  0  0  0  0  0  0  0  0  0
    1.2780   -0.7103    0.5858 O   0  0  0  0  0  0  0  0  0  0  0  0
    2.6445   -0.6207    0.5115 C   0  0  0  0  0  0  0  0  0  0  0  0
    3.3790   -1.3463    1.4505 C   0  0  0  0  0  0  0  0  0  0  0  0
    4.7747   -1.3004    1.4292 C   0  0  0  0  0  0  0  0  0  0  0  0
    5.4354   -0.5303    0.4698 C   0  0  0  0  0  0  0  0  0  0  0  0
    4.7000    0.1927   -0.4658 C   0  0  0  0  0  0  0  0  0  0  0  0
    5.4102    0.9252   -1.3772 O   0  0  0  0  0  0  0  0  0  0  0  0
    3.3034    0.1472   -0.4437 C   0  0  0  0  0  0  0  0  0  0  0  0
    2.4929    0.8918   -1.4086 C   0  0  0  0  0  0  0  0  0  0  0  0
    3.0000    1.5858   -2.2875 O   0  0  0  0  0  0  0  0  0  0  0  0
    1.0203    0.7826   -1.2946 C   0  0  0  0  0  0  0  0  0  0  0  0
    0.2639    1.4793   -2.2191 O   0  0  0  0  0  0  0  0  0  0  0  0
   -1.4569   -1.4724    0.0671 C   0  0  0  0  0  0  0  0  0  0  0  0
   -2.8221   -1.6726    0.2865 C   0  0  0  0  0  0  0  0  0  0  0  0
   -3.7139   -0.5886    0.3333 C   0  0  0  0  0  0  0  0  0  0  0  0
   -5.1859   -0.8510    0.5566 C   0  0  0  0  0  0  0  0  0  0  0  0
   -5.4580   -2.1347    0.9311 F   0  0  0  0  0  0  0  0  0  0  0  0
   -5.7272   -0.0680    1.5314 F   0  0  0  0  0  0  0  0  0  0  0  0
   -3.5283    2.8057    0.0238 H   0  0  0  0  0  0  0  0  0  0  0  0
   -4.5700    1.9814    1.1590 H   0  0  0  0  0  0  0  0  0  0  0  0
   -4.8640    1.8410   -0.5577 H   0  0  0  0  0  0  0  0  0  0  0  0
   -1.4657    1.8576   -0.1874 H   0  0  0  0  0  0  0  0  0  0  0  0
    2.8915   -1.9160    2.1596 H   0  0  0  0  0  0  0  0  0  0  0  0
    5.3185   -1.8364    2.1235 H   0  0  0  0  0  0  0  0  0  0  0  0
    6.4667   -0.4971    0.4542 H   0  0  0  0  0  0  0  0  0  0  0  0
    6.3469    0.9239   -1.3516 H   0  0  0  0  0  0  0  0  0  0  0  0
    0.6867    2.0009   -2.8727 H   0  0  0  0  0  0  0  0  0  0  0  0
   -0.8194   -2.2836    0.0428 H   0  0  0  0  0  0  0  0  0  0  0  0
   -3.1807   -2.6316    0.4161 H   0  0  0  0  0  0  0  0  0  0  0  0
   -5.6139   -0.6325   -0.3994 H   0  0  0  0  0  0  0  0  0  0  0  0
  1  2  1  0  0  0  0
  1 24  1  0  0  0  0
  1 25  1  0  0  0  0
  1 26  1  0  0  0  0
  2  3  2  0  0  0  0
  3  4  1  0  0  0  0
  3 27  1  0  0  0  0
  4  5  1  0  0  0  0
  4 18  2  0  0  0  0
  5  6  1  0  0  0  0
  6  7  1  0  0  0  0
  7  8  2  0  0  0  0
  8  9  1  0  0  0  0
  8 28  1  0  0  0  0
  9 10  2  0  0  0  0
  9 29  1  0  0  0  0
 10 11  1  0  0  0  0
 10 30  1  0  0  0  0
 11 12  1  0  0  0  0
 11 13  2  0  0  0  0
 12 31  1  0  0  0  0
 13 14  1  0  0  0  0
 13  7  1  0  0  0  0
 14 15  2  0  0  0  0
 14 16  1  0  0  0  0
 16 17  1  0  0  0  0
 16  5  2  0  0  0  0
 17 32  1  0  0  0  0
 18 19  1  0  0  0  0
 18 33  1  0  0  0  0
 19 20  2  0  0  0  0
 19 34  1  0  0  0  0
 20 21  1  0  0  0  0
 20  2  1  0  0  0  0
 21 22  1  0  0  0  0
 21 23  1  0  0  0  0
 21 35  1  0  0  0  0
M  END
$$$$
