
 OpenBabel08202615333D

 50 53  0  0  0  0  0  0  0  0999 V2000
   -2.0312   -2.7080   -1.6116 C   0  0  0  0  0  0  0  0  0  0  0  0
   -1.6309   -1.2993   -2.0243 C   0  0  0  0  0  0  0  0  0  0  0  0
   -1.0293   -0.5211   -0.8751 C   0  0  0  0  0  0  0  0  0  0  0  0
    0.3698   -0.5313   -0.7089 C   0  0  0  0  0  0  0  0  0  0  0  0
    0.9898    0.1502    0.3486 C   0  0  0  0  0  0  0  0  0  0  0  0
    2.4633    0.1383    0.4692 C   0  0  0  0  0  0  0  0  0  0  0  0
    3.1058    0.3682   -0.7423 O   0  0  0  0  0  0  0  0  0  0  0  0
    4.4766    0.3816   -0.7747 C   0  0  0  0  0  0  0  0  0  0  0  0
    5.0787    0.6289   -2.0091 C   0  0  0  0  0  0  0  0  0  0  0  0
    6.4714    0.6548   -2.1120 C   0  0  0  0  0  0  0  0  0  0  0  0
    7.2610    0.4335   -0.9818 C   0  0  0  0  0  0  0  0  0  0  0  0
    6.6574    0.1869    0.2486 C   0  0  0  0  0  0  0  0  0  0  0  0
    7.4897   -0.0220    1.3141 O   0  0  0  0  0  0  0  0  0  0  0  0
    5.2639    0.1616    0.3512 C   0  0  0  0  0  0  0  0  0  0  0  0
    4.5894   -0.0941    1.6246 C   0  0  0  0  0  0  0  0  0  0  0  0
    5.2151   -0.3043    2.6617 O   0  0  0  0  0  0  0  0  0  0  0  0
    3.1082   -0.0929    1.6279 C   0  0  0  0  0  0  0  0  0  0  0  0
    2.4825   -0.3494    2.8340 O   0  0  0  0  0  0  0  0  0  0  0  0
    0.1823    0.8618    1.2405 C   0  0  0  0  0  0  0  0  0  0  0  0
   -1.2084    0.8730    1.0921 C   0  0  0  0  0  0  0  0  0  0  0  0
   -1.8344    0.1799    0.0448 C   0  0  0  0  0  0  0  0  0  0  0  0
   -3.2361    0.1816   -0.1203 N   0  0  0  0  0  0  0  0  0  0  0  0
   -3.9643   -0.3218    1.0550 C   0  0  0  0  0  0  0  0  0  0  0  0
   -5.4355   -0.5105    0.6834 C   0  0  0  0  0  0  0  0  0  0  0  0
   -6.0366    0.7861    0.1420 C   0  0  0  0  0  0  0  0  0  0  0  0
   -5.1971    1.3384   -1.0093 C   0  0  0  0  0  0  0  0  0  0  0  0
   -3.7282    1.4803   -0.6080 C   0  0  0  0  0  0  0  0  0  0  0  0
   -2.4505   -3.2203   -2.4522 H   0  0  0  0  0  0  0  0  0  0  0  0
   -2.7567   -2.6571   -0.8267 H   0  0  0  0  0  0  0  0  0  0  0  0
   -1.1680   -3.2372   -1.2656 H   0  0  0  0  0  0  0  0  0  0  0  0
   -2.4996   -0.7820   -2.3744 H   0  0  0  0  0  0  0  0  0  0  0  0
   -0.8909   -1.3780   -2.7932 H   0  0  0  0  0  0  0  0  0  0  0  0
    0.9528   -1.0531   -1.3819 H   0  0  0  0  0  0  0  0  0  0  0  0
    4.4957    0.7924   -2.8448 H   0  0  0  0  0  0  0  0  0  0  0  0
    6.9174    0.8377   -3.0245 H   0  0  0  0  0  0  0  0  0  0  0  0
    8.2900    0.4527   -1.0582 H   0  0  0  0  0  0  0  0  0  0  0  0
    8.4187    0.0049    1.1952 H   0  0  0  0  0  0  0  0  0  0  0  0
    2.9941   -0.5020    3.6040 H   0  0  0  0  0  0  0  0  0  0  0  0
    0.6170    1.3846    2.0169 H   0  0  0  0  0  0  0  0  0  0  0  0
   -1.7851    1.4010    1.7656 H   0  0  0  0  0  0  0  0  0  0  0  0
   -3.8838    0.3828    1.8562 H   0  0  0  0  0  0  0  0  0  0  0  0
   -3.5467   -1.2562    1.3671 H   0  0  0  0  0  0  0  0  0  0  0  0
   -5.9800   -0.8114    1.5539 H   0  0  0  0  0  0  0  0  0  0  0  0
   -5.5004   -1.2593   -0.0782 H   0  0  0  0  0  0  0  0  0  0  0  0
   -6.0722    1.5107    0.9285 H   0  0  0  0  0  0  0  0  0  0  0  0
   -7.0215    0.5801   -0.2218 H   0  0  0  0  0  0  0  0  0  0  0  0
   -5.5767    2.2993   -1.2877 H   0  0  0  0  0  0  0  0  0  0  0  0
   -5.2583    0.6547   -1.8301 H   0  0  0  0  0  0  0  0  0  0  0  0
   -3.6374    2.2122    0.1672 H   0  0  0  0  0  0  0  0  0  0  0  0
   -3.1511    1.7906   -1.4539 H   0  0  0  0  0  0  0  0  0  0  0  0
  1  2  1  0  0  0  0
  1 28  1  0  0  0  0
  1 29  1  0  0  0  0
  1 30  1  0  0  0  0
  2  3  1  0  0  0  0
  2 31  1  0  0  0  0
  2 32  1  0  0  0  0
  3  4  2  0  0  0  0
  4  5  1  0  0  0  0
  4 33  1  0  0  0  0
  5  6  1  0  0  0  0
  5 19  2  0  0  0  0
  6  7  1  0  0  0  0
  7  8  1  0  0  0  0
  8  9  2  0  0  0  0
  9 10  1  0  0  0  0
  9 34  1  0  0  0  0
 10 11  2  0  0  0  0
 10 35  1  0  0  0  0
 11 12  1  0  0  0  0
 11 36  1  0  0  0  0
 12 13  1  0  0  0  0
 12 14  2  0  0  0  0
 13 37  1  0  0  0  0
 14 15  1  0  0  0  0
 14  8  1  0  0  0  0
 15 16  2  0  0  0  0
 15 17  1  0  0  0  0
 17 18  1  0  0  0  0
 17  6  2  0  0  0  0
 18 38  1  0  0  0  0
 19 20  1  0  0  0  0
 19 39  1  0  0  0  0
 20 21  2  0  0  0  0
 20 40  1  0  0  0  0
 21 22  1  0  0  0  0
 21  3  1  0  0  0  0
 22 23  1  0  0  0  0
 23 24  1  0  0  0  0
 23 41  1  0  0  0  0
 23 42  1  0  0  0  0
 24 25  1  0  0  0  0
 24 43  1  0  0  0  0
 24 44  1  0  0  0  0
 25 26  1  0  0  0  0
 25 45  1  0  0  0  0
 25 46  1  0  0  0  0
 26 27  1  0  0  0  0
 26 47  1  0  0  0  0
 26 48  1  0  0  0  0
 27 22  1  0  0  0  0
 27 49  1  0  0  0  0
 27 50  1  0  0  0  0
M  END
$$$$
