
 OpenBabel08202615353D

 39 41  0  0  0  0  0  0  0  0999 V2000
   -2.8925   -2.5076    2.0503 C   0  0  0  0  0  0  0  0  0  0  0  0
   -3.2555   -1.7204    1.0296 C   0  0  0  0  0  0  0  0  0  0  0  0
   -2.5273   -0.4991    0.6557 C   0  0  0  0  0  0  0  0  0  0  0  0
   -1.1443   -0.5794    0.4076 C   0  0  0  0  0  0  0  0  0  0  0  0
   -0.3988    0.5425    0.0132 C   0  0  0  0  0  0  0  0  0  0  0  0
    1.0575    0.4167   -0.2073 C   0  0  0  0  0  0  0  0  0  0  0  0
    1.6979   -0.2876    0.8060 O   0  0  0  0  0  0  0  0  0  0  0  0
    3.0532   -0.4802    0.7259 C   0  0  0  0  0  0  0  0  0  0  0  0
    3.6564   -1.1812    1.7712 C   0  0  0  0  0  0  0  0  0  0  0  0
    5.0335   -1.4133    1.7507 C   0  0  0  0  0  0  0  0  0  0  0  0
    5.8065   -0.9455    0.6861 C   0  0  0  0  0  0  0  0  0  0  0  0
    5.2020   -0.2466   -0.3556 C   0  0  0  0  0  0  0  0  0  0  0  0
    6.0175    0.1826   -1.3667 O   0  0  0  0  0  0  0  0  0  0  0  0
    3.8241   -0.0139   -0.3344 C   0  0  0  0  0  0  0  0  0  0  0  0
    3.1493    0.7157   -1.4088 C   0  0  0  0  0  0  0  0  0  0  0  0
    3.7598    1.1528   -2.3822 O   0  0  0  0  0  0  0  0  0  0  0  0
    1.6866    0.9148   -1.2880 C   0  0  0  0  0  0  0  0  0  0  0  0
    1.0571    1.5930   -2.3154 O   0  0  0  0  0  0  0  0  0  0  0  0
   -1.0622    1.7650   -0.1252 C   0  0  0  0  0  0  0  0  0  0  0  0
   -2.4362    1.8597    0.1078 C   0  0  0  0  0  0  0  0  0  0  0  0
   -3.1846    0.7368    0.5004 C   0  0  0  0  0  0  0  0  0  0  0  0
   -4.6701    0.9115    0.7274 C   0  0  0  0  0  0  0  0  0  0  0  0
   -5.4669    0.7407   -0.5578 C   0  0  0  0  0  0  0  0  0  0  0  0
   -3.4404   -3.3543    2.2691 H   0  0  0  0  0  0  0  0  0  0  0  0
   -2.0648   -2.2676    2.6181 H   0  0  0  0  0  0  0  0  0  0  0  0
   -4.0872   -1.9839    0.4784 H   0  0  0  0  0  0  0  0  0  0  0  0
   -0.6658   -1.4870    0.5186 H   0  0  0  0  0  0  0  0  0  0  0  0
    3.0857   -1.5276    2.5582 H   0  0  0  0  0  0  0  0  0  0  0  0
    5.4803   -1.9312    2.5234 H   0  0  0  0  0  0  0  0  0  0  0  0
    6.8240   -1.1174    0.6713 H   0  0  0  0  0  0  0  0  0  0  0  0
    6.9364    0.0020   -1.3361 H   0  0  0  0  0  0  0  0  0  0  0  0
    1.5568    1.9141   -3.0401 H   0  0  0  0  0  0  0  0  0  0  0  0
   -0.5317    2.6058   -0.4022 H   0  0  0  0  0  0  0  0  0  0  0  0
   -2.9095    2.7691   -0.0103 H   0  0  0  0  0  0  0  0  0  0  0  0
   -4.8472    1.8926    1.1159 H   0  0  0  0  0  0  0  0  0  0  0  0
   -4.9899    0.1586    1.4172 H   0  0  0  0  0  0  0  0  0  0  0  0
   -5.1650    1.4838   -1.2660 H   0  0  0  0  0  0  0  0  0  0  0  0
   -6.5103    0.8511   -0.3479 H   0  0  0  0  0  0  0  0  0  0  0  0
   -5.2857   -0.2328   -0.9631 H   0  0  0  0  0  0  0  0  0  0  0  0
  1  2  2  0  0  0  0
  1 24  1  0  0  0  0
  1 25  1  0  0  0  0
  2  3  1  0  0  0  0
  2 26  1  0  0  0  0
  3  4  2  0  0  0  0
  4  5  1  0  0  0  0
  4 27  1  0  0  0  0
  5  6  1  0  0  0  0
  5 19  2  0  0  0  0
  6  7  1  0  0  0  0
  7  8  1  0  0  0  0
  8  9  2  0  0  0  0
  9 10  1  0  0  0  0
  9 28  1  0  0  0  0
 10 11  2  0  0  0  0
 10 29  1  0  0  0  0
 11 12  1  0  0  0  0
 11 30  1  0  0  0  0
 12 13  1  0  0  0  0
 12 14  2  0  0  0  0
 13 31  1  0  0  0  0
 14 15  1  0  0  0  0
 14  8  1  0  0  0  0
 15 16  2  0  0  0  0
 15 17  1  0  0  0  0
 17 18  1  0  0  0  0
 17  6  2  0  0  0  0
 18 32  1  0  0  0  0
 19 20  1  0  0  0  0
 19 33  1  0  0  0  0
 20 21  2  0  0  0  0
 20 34  1  0  0  0  0
 21 22  1  0  0  0  0
 21  3  1  0  0  0  0
 22 23  1  0  0  0  0
 22 35  1  0  0  0  0
 22 36  1  0  0  0  0
 23 37  1  0  0  0  0
 23 38  1  0  0  0  0
 23 39  1  0  0  0  0
M  END
$$$$
