
 OpenBabel08202615333D

 44 46  0  0  0  0  0  0  0  0999 V2000
   -4.0322    1.8333   -1.4033 C   0  0  0  0  0  0  0  0  0  0  0  0
   -2.6139    1.4438   -1.0790 C   0  0  0  0  0  0  0  0  0  0  0  0
   -1.6172    2.2440   -1.6802 C   0  0  0  0  0  0  0  0  0  0  0  0
   -0.2607    2.0109   -1.4714 C   0  0  0  0  0  0  0  0  0  0  0  0
    0.1458    0.9696   -0.6461 C   0  0  0  0  0  0  0  0  0  0  0  0
    1.5762    0.6776   -0.4097 C   0  0  0  0  0  0  0  0  0  0  0  0
    1.8839   -0.6700   -0.5590 O   0  0  0  0  0  0  0  0  0  0  0  0
    3.1780   -1.0804   -0.3658 C   0  0  0  0  0  0  0  0  0  0  0  0
    3.4439   -2.4395   -0.5382 C   0  0  0  0  0  0  0  0  0  0  0  0
    4.7410   -2.9240   -0.3549 C   0  0  0  0  0  0  0  0  0  0  0  0
    5.7708   -2.0505    0.0006 C   0  0  0  0  0  0  0  0  0  0  0  0
    5.5024   -0.6950    0.1719 C   0  0  0  0  0  0  0  0  0  0  0  0
    6.5566    0.1042    0.5207 O   0  0  0  0  0  0  0  0  0  0  0  0
    4.2046   -0.2104   -0.0122 C   0  0  0  0  0  0  0  0  0  0  0  0
    3.8796    1.2065    0.1580 C   0  0  0  0  0  0  0  0  0  0  0  0
    4.7299    2.0354    0.4762 O   0  0  0  0  0  0  0  0  0  0  0  0
    2.4749    1.6189   -0.0664 C   0  0  0  0  0  0  0  0  0  0  0  0
    2.1763    2.9573    0.1106 O   0  0  0  0  0  0  0  0  0  0  0  0
   -0.8431    0.1550   -0.0639 C   0  0  0  0  0  0  0  0  0  0  0  0
   -2.2363    0.3433   -0.2661 C   0  0  0  0  0  0  0  0  0  0  0  0
   -3.2332   -0.6232    0.4322 C   0  0  0  0  0  0  0  0  0  0  0  0
   -4.3721   -1.0943   -0.5006 C   0  0  0  0  0  0  0  0  0  0  0  0
   -3.8254    0.0736    1.6748 C   0  0  0  0  0  0  0  0  0  0  0  0
   -2.5678   -1.9351    0.9393 C   0  0  0  0  0  0  0  0  0  0  0  0
   -4.0294    2.6980   -2.0335 H   0  0  0  0  0  0  0  0  0  0  0  0
   -4.5575    2.0538   -0.4976 H   0  0  0  0  0  0  0  0  0  0  0  0
   -4.5173    1.0248   -1.9092 H   0  0  0  0  0  0  0  0  0  0  0  0
   -1.9030    3.0243   -2.2922 H   0  0  0  0  0  0  0  0  0  0  0  0
    0.4427    2.6113   -1.9294 H   0  0  0  0  0  0  0  0  0  0  0  0
    2.6832   -3.0856   -0.8007 H   0  0  0  0  0  0  0  0  0  0  0  0
    4.9386   -3.9289   -0.4824 H   0  0  0  0  0  0  0  0  0  0  0  0
    6.7290   -2.4089    0.1361 H   0  0  0  0  0  0  0  0  0  0  0  0
    7.4094   -0.2676    0.6328 H   0  0  0  0  0  0  0  0  0  0  0  0
    2.8522    3.5604    0.3503 H   0  0  0  0  0  0  0  0  0  0  0  0
   -0.5392   -0.6220    0.5435 H   0  0  0  0  0  0  0  0  0  0  0  0
   -4.8852   -0.2424   -0.8954 H   0  0  0  0  0  0  0  0  0  0  0  0
   -5.0592   -1.6995    0.0530 H   0  0  0  0  0  0  0  0  0  0  0  0
   -3.9603   -1.6671   -1.3051 H   0  0  0  0  0  0  0  0  0  0  0  0
   -4.2980    0.9872    1.3801 H   0  0  0  0  0  0  0  0  0  0  0  0
   -3.0419    0.2860    2.3719 H   0  0  0  0  0  0  0  0  0  0  0  0
   -4.5470   -0.5692    2.1342 H   0  0  0  0  0  0  0  0  0  0  0  0
   -2.1386   -2.4603    0.1117 H   0  0  0  0  0  0  0  0  0  0  0  0
   -3.3061   -2.5512    1.4086 H   0  0  0  0  0  0  0  0  0  0  0  0
   -1.8011   -1.6960    1.6463 H   0  0  0  0  0  0  0  0  0  0  0  0
  1  2  1  0  0  0  0
  1 25  1  0  0  0  0
  1 26  1  0  0  0  0
  1 27  1  0  0  0  0
  2  3  2  0  0  0  0
  3  4  1  0  0  0  0
  3 28  1  0  0  0  0
  4  5  2  0  0  0  0
  4 29  1  0  0  0  0
  5  6  1  0  0  0  0
  5 19  1  0  0  0  0
  6  7  1  0  0  0  0
  7  8  1  0  0  0  0
  8  9  2  0  0  0  0
  9 10  1  0  0  0  0
  9 30  1  0  0  0  0
 10 11  2  0  0  0  0
 10 31  1  0  0  0  0
 11 12  1  0  0  0  0
 11 32  1  0  0  0  0
 12 13  1  0  0  0  0
 12 14  2  0  0  0  0
 13 33  1  0  0  0  0
 14 15  1  0  0  0  0
 14  8  1  0  0  0  0
 15 16  2  0  0  0  0
 15 17  1  0  0  0  0
 17 18  1  0  0  0  0
 17  6  2  0  0  0  0
 18 34  1  0  0  0  0
 19 20  2  0  0  0  0
 19 35  1  0  0  0  0
 20 21  1  0  0  0  0
 20  2  1  0  0  0  0
 21 22  1  0  0  0  0
 21 23  1  0  0  0  0
 21 24  1  0  0  0  0
 22 36  1  0  0  0  0
 22 37  1  0  0  0  0
 22 38  1  0  0  0  0
 23 39  1  0  0  0  0
 23 40  1  0  0  0  0
 23 41  1  0  0  0  0
 24 42  1  0  0  0  0
 24 43  1  0  0  0  0
 24 44  1  0  0  0  0
M  END
$$$$
