
 OpenBabel08202615323D

 36 38  0  0  0  0  0  0  0  0999 V2000
    5.9570    0.2714    0.7432 C   0  0  0  0  0  0  0  0  0  0  0  0
    5.0530   -0.1780   -0.1342 C   0  0  0  0  0  0  0  0  0  0  0  0
    5.5056   -0.7995   -1.2459 F   0  0  0  0  0  0  0  0  0  0  0  0
    3.5957   -0.0130    0.0084 C   0  0  0  0  0  0  0  0  0  0  0  0
    2.9907   -0.2321    1.2575 C   0  0  0  0  0  0  0  0  0  0  0  0
    1.6073   -0.1108    1.4250 C   0  0  0  0  0  0  0  0  0  0  0  0
    0.7860    0.2320    0.3477 C   0  0  0  0  0  0  0  0  0  0  0  0
   -0.6818    0.3360    0.4898 C   0  0  0  0  0  0  0  0  0  0  0  0
   -1.3710   -0.3300   -0.5172 O   0  0  0  0  0  0  0  0  0  0  0  0
   -2.7422   -0.3132   -0.5055 C   0  0  0  0  0  0  0  0  0  0  0  0
   -3.3930   -1.0068   -1.5269 C   0  0  0  0  0  0  0  0  0  0  0  0
   -4.7887   -1.0281   -1.5746 C   0  0  0  0  0  0  0  0  0  0  0  0
   -5.5328   -0.3564   -0.6025 C   0  0  0  0  0  0  0  0  0  0  0  0
   -4.8809    0.3349    0.4153 C   0  0  0  0  0  0  0  0  0  0  0  0
   -5.6702    0.9710    1.3339 O   0  0  0  0  0  0  0  0  0  0  0  0
   -3.4843    0.3554    0.4633 C   0  0  0  0  0  0  0  0  0  0  0  0
   -2.7599    1.0695    1.5156 C   0  0  0  0  0  0  0  0  0  0  0  0
   -3.3432    1.6898    2.4022 O   0  0  0  0  0  0  0  0  0  0  0  0
   -1.2799    1.0233    1.4805 C   0  0  0  0  0  0  0  0  0  0  0  0
   -0.6052    1.7122    2.4716 O   0  0  0  0  0  0  0  0  0  0  0  0
    1.3838    0.4345   -0.9054 C   0  0  0  0  0  0  0  0  0  0  0  0
    2.7772    0.3255   -1.0885 C   0  0  0  0  0  0  0  0  0  0  0  0
    3.3409    0.5584   -2.4657 C   0  0  0  0  0  0  0  0  0  0  0  0
    6.9630    0.1164    0.5728 H   0  0  0  0  0  0  0  0  0  0  0  0
    5.6485    0.7732    1.5906 H   0  0  0  0  0  0  0  0  0  0  0  0
    3.5781   -0.4874    2.0667 H   0  0  0  0  0  0  0  0  0  0  0  0
    1.1889   -0.2762    2.3538 H   0  0  0  0  0  0  0  0  0  0  0  0
   -2.8437   -1.5032   -2.2459 H   0  0  0  0  0  0  0  0  0  0  0  0
   -5.2707   -1.5410   -2.3293 H   0  0  0  0  0  0  0  0  0  0  0  0
   -6.5641   -0.3723   -0.6384 H   0  0  0  0  0  0  0  0  0  0  0  0
   -6.6033    0.9283    1.2595 H   0  0  0  0  0  0  0  0  0  0  0  0
   -1.0849    2.1709    3.1330 H   0  0  0  0  0  0  0  0  0  0  0  0
    0.7876    0.6694   -1.7144 H   0  0  0  0  0  0  0  0  0  0  0  0
    2.5464    0.8016   -3.1398 H   0  0  0  0  0  0  0  0  0  0  0  0
    3.8361   -0.3281   -2.8030 H   0  0  0  0  0  0  0  0  0  0  0  0
    4.0407    1.3671   -2.4326 H   0  0  0  0  0  0  0  0  0  0  0  0
  1  2  2  0  0  0  0
  1 24  1  0  0  0  0
  1 25  1  0  0  0  0
  2  3  1  0  0  0  0
  2  4  1  0  0  0  0
  4  5  2  0  0  0  0
  5  6  1  0  0  0  0
  5 26  1  0  0  0  0
  6  7  2  0  0  0  0
  6 27  1  0  0  0  0
  7  8  1  0  0  0  0
  7 21  1  0  0  0  0
  8  9  1  0  0  0  0
  9 10  1  0  0  0  0
 10 11  2  0  0  0  0
 11 12  1  0  0  0  0
 11 28  1  0  0  0  0
 12 13  2  0  0  0  0
 12 29  1  0  0  0  0
 13 14  1  0  0  0  0
 13 30  1  0  0  0  0
 14 15  1  0  0  0  0
 14 16  2  0  0  0  0
 15 31  1  0  0  0  0
 16 17  1  0  0  0  0
 16 10  1  0  0  0  0
 17 18  2  0  0  0  0
 17 19  1  0  0  0  0
 19 20  1  0  0  0  0
 19  8  2  0  0  0  0
 20 32  1  0  0  0  0
 21 22  2  0  0  0  0
 21 33  1  0  0  0  0
 22 23  1  0  0  0  0
 22  4  1  0  0  0  0
 23 34  1  0  0  0  0
 23 35  1  0  0  0  0
 23 36  1  0  0  0  0
M  END
$$$$
