cand_035_out
     RDKit          3D

 36 38  0  0  0  0  0  0  0  0999 V2000
   47.3600  159.5880   30.9440 C   0  0  0  0  0  0  0  0  0  0  0  0
   48.3630  158.8370   31.4120 C   0  0  0  0  0  0  0  0  0  0  0  0
   49.7120  158.9040   30.8410 C   0  0  0  0  0  0  0  0  0  0  0  0
   50.1680  157.7970   30.1060 C   0  0  0  0  0  0  0  0  0  0  0  0
   51.4460  157.7820   29.5280 C   0  0  0  0  0  0  0  0  0  0  0  0
   51.9030  156.5890   28.7840 C   0  0  0  0  0  0  0  0  0  0  0  0
   52.4980  156.9070   27.5680 O   0  0  0  0  0  0  0  0  0  0  0  0
   52.9680  155.8920   26.7740 C   0  0  0  0  0  0  0  0  0  0  0  0
   53.5450  156.2540   25.5560 C   0  0  0  0  0  0  0  0  0  0  0  0
   54.0450  155.2690   24.7020 C   0  0  0  0  0  0  0  0  0  0  0  0
   53.9690  153.9230   25.0660 C   0  0  0  0  0  0  0  0  0  0  0  0
   53.3930  153.5640   26.2820 C   0  0  0  0  0  0  0  0  0  0  0  0
   53.3520  152.2280   26.5750 O   0  0  0  0  0  0  0  0  0  0  0  0
   52.8920  154.5500   27.1360 C   0  0  0  0  0  0  0  0  0  0  0  0
   52.2800  154.2150   28.4230 C   0  0  0  0  0  0  0  0  0  0  0  0
   52.1830  153.0560   28.8160 O   0  0  0  0  0  0  0  0  0  0  0  0
   51.7740  155.3340   29.2510 C   0  0  0  0  0  0  0  0  0  0  0  0
   51.2100  155.0100   30.4710 O   0  0  0  0  0  0  0  0  0  0  0  0
   52.2730  158.8960   29.7130 C   0  0  0  0  0  0  0  0  0  0  0  0
   51.8290  160.0020   30.4430 C   0  0  0  0  0  0  0  0  0  0  0  0
   50.5470  160.0220   31.0120 C   0  0  0  0  0  0  0  0  0  0  0  0
   50.0990  161.2300   31.7950 C   0  0  0  0  0  0  0  0  0  0  0  0
   50.0800  161.0270   33.1450 F   0  0  0  0  0  0  0  0  0  0  0  0
   46.3598  159.5131   31.3955 H   0  0  0  0  0  0  0  0  0  0  0  0
   47.5354  160.2806   30.1076 H   0  0  0  0  0  0  0  0  0  0  0  0
   48.1705  158.1496   32.2489 H   0  0  0  0  0  0  0  0  0  0  0  0
   49.5097  156.9246   29.9813 H   0  0  0  0  0  0  0  0  0  0  0  0
   53.6058  157.3142   25.2690 H   0  0  0  0  0  0  0  0  0  0  0  0
   54.4993  155.5536   23.7414 H   0  0  0  0  0  0  0  0  0  0  0  0
   54.3636  153.1474   24.3932 H   0  0  0  0  0  0  0  0  0  0  0  0
   52.5320  151.8110   26.7520 H   0  0  0  0  0  0  0  0  0  0  0  0
   51.3300  154.1530   30.8300 H   0  0  0  0  0  0  0  0  0  0  0  0
   53.2837  158.9010   29.2790 H   0  0  0  0  0  0  0  0  0  0  0  0
   52.4939  160.8686   30.5731 H   0  0  0  0  0  0  0  0  0  0  0  0
   50.7864  162.0607   31.5774 H   0  0  0  0  0  0  0  0  0  0  0  0
   49.0667  161.4514   31.4863 H   0  0  0  0  0  0  0  0  0  0  0  0
  1  2  2  0
  2  3  1  0
  3  4  2  0
  4  5  1  0
  5  6  1  0
  6  7  1  0
  7  8  1  0
  8  9  2  0
  9 10  1  0
 10 11  2  0
 11 12  1  0
 12 13  1  0
 12 14  2  0
 14 15  1  0
 15 16  2  0
 15 17  1  0
 17 18  1  0
  5 19  2  0
 19 20  1  0
 20 21  2  0
 21 22  1  0
 22 23  1  0
 21  3  1  0
 17  6  2  0
 14  8  1  0
  1 24  1  0
  1 25  1  0
  2 26  1  0
  4 27  1  0
  9 28  1  0
 10 29  1  0
 11 30  1  0
 13 31  1  0
 18 32  1  0
 19 33  1  0
 20 34  1  0
 22 35  1  0
 22 36  1  0
M  END
>  <meeko>  (1) 
{"is_sidechain": [false], "free_energy": -10.496, "intermolecular_energy": -12.95, "internal_energy": -0.065}

$$$$
cand_035_out
     RDKit          3D

 36 38  0  0  0  0  0  0  0  0999 V2000
   52.7190  161.3870   31.5140 C   0  0  0  0  0  0  0  0  0  0  0  0
   52.0020  161.0820   30.4260 C   0  0  0  0  0  0  0  0  0  0  0  0
   51.2110  159.8510   30.3400 C   0  0  0  0  0  0  0  0  0  0  0  0
   51.7790  158.7520   29.6740 C   0  0  0  0  0  0  0  0  0  0  0  0
   51.0870  157.5370   29.5480 C   0  0  0  0  0  0  0  0  0  0  0  0
   51.7040  156.4110   28.8170 C   0  0  0  0  0  0  0  0  0  0  0  0
   52.2750  156.8000   27.6100 O   0  0  0  0  0  0  0  0  0  0  0  0
   52.8840  155.8510   26.8290 C   0  0  0  0  0  0  0  0  0  0  0  0
   53.4320  156.2820   25.6200 C   0  0  0  0  0  0  0  0  0  0  0  0
   54.0680  155.3670   24.7780 C   0  0  0  0  0  0  0  0  0  0  0  0
   54.1560  154.0220   25.1450 C   0  0  0  0  0  0  0  0  0  0  0  0
   53.6080  153.5950   26.3520 C   0  0  0  0  0  0  0  0  0  0  0  0
   53.7310  152.2650   26.6500 O   0  0  0  0  0  0  0  0  0  0  0  0
   52.9720  154.5110   27.1940 C   0  0  0  0  0  0  0  0  0  0  0  0
   52.3840  154.1030   28.4710 C   0  0  0  0  0  0  0  0  0  0  0  0
   52.4270  152.9410   28.8670 O   0  0  0  0  0  0  0  0  0  0  0  0
   51.7250  155.1500   29.2860 C   0  0  0  0  0  0  0  0  0  0  0  0
   51.1860  154.7590   30.4970 O   0  0  0  0  0  0  0  0  0  0  0  0
   49.8010  157.4460   30.0910 C   0  0  0  0  0  0  0  0  0  0  0  0
   49.2260  158.5340   30.7560 C   0  0  0  0  0  0  0  0  0  0  0  0
   49.9220  159.7450   30.8910 C   0  0  0  0  0  0  0  0  0  0  0  0
   49.2740  160.8990   31.6130 C   0  0  0  0  0  0  0  0  0  0  0  0
   48.3190  161.5350   30.8720 F   0  0  0  0  0  0  0  0  0  0  0  0
   53.3016  162.3195   31.5451 H   0  0  0  0  0  0  0  0  0  0  0  0
   52.7258  160.7052   32.3772 H   0  0  0  0  0  0  0  0  0  0  0  0
   52.0064  161.7750   29.5717 H   0  0  0  0  0  0  0  0  0  0  0  0
   52.7865  158.8455   29.2425 H   0  0  0  0  0  0  0  0  0  0  0  0
   53.3631  157.3410   25.3306 H   0  0  0  0  0  0  0  0  0  0  0  0
   54.5001  155.7058   23.8248 H   0  0  0  0  0  0  0  0  0  0  0  0
   54.6572  153.3015   24.4819 H   0  0  0  0  0  0  0  0  0  0  0  0
   54.4120  151.7570   26.2530 H   0  0  0  0  0  0  0  0  0  0  0  0
   51.6030  155.0070   31.2980 H   0  0  0  0  0  0  0  0  0  0  0  0
   49.2352  156.5077   29.9939 H   0  0  0  0  0  0  0  0  0  0  0  0
   48.2149  158.4391   31.1787 H   0  0  0  0  0  0  0  0  0  0  0  0
   48.8052  160.5165   32.5316 H   0  0  0  0  0  0  0  0  0  0  0  0
   50.0641  161.6345   31.8246 H   0  0  0  0  0  0  0  0  0  0  0  0
  1  2  2  0
  2  3  1  0
  3  4  2  0
  4  5  1  0
  5  6  1  0
  6  7  1  0
  7  8  1  0
  8  9  2  0
  9 10  1  0
 10 11  2  0
 11 12  1  0
 12 13  1  0
 12 14  2  0
 14 15  1  0
 15 16  2  0
 15 17  1  0
 17 18  1  0
  5 19  2  0
 19 20  1  0
 20 21  2  0
 21 22  1  0
 22 23  1  0
 21  3  1  0
 17  6  2  0
 14  8  1  0
  1 24  1  0
  1 25  1  0
  2 26  1  0
  4 27  1  0
  9 28  1  0
 10 29  1  0
 11 30  1  0
 13 31  1  0
 18 32  1  0
 19 33  1  0
 20 34  1  0
 22 35  1  0
 22 36  1  0
M  END
>  <meeko>  (2) 
{"is_sidechain": [false], "free_energy": -10.355, "intermolecular_energy": -12.621, "internal_energy": -0.22}

$$$$
cand_035_out
     RDKit          3D

 36 38  0  0  0  0  0  0  0  0999 V2000
   54.0190  156.4330   25.1210 C   0  0  0  0  0  0  0  0  0  0  0  0
   53.5460  155.2530   25.5390 C   0  0  0  0  0  0  0  0  0  0  0  0
   52.8660  155.1040   26.8290 C   0  0  0  0  0  0  0  0  0  0  0  0
   52.4650  156.2730   27.4980 C   0  0  0  0  0  0  0  0  0  0  0  0
   51.8100  156.2160   28.7370 C   0  0  0  0  0  0  0  0  0  0  0  0
   51.4270  157.4670   29.4250 C   0  0  0  0  0  0  0  0  0  0  0  0
   50.1040  157.4640   29.8530 O   0  0  0  0  0  0  0  0  0  0  0  0
   49.6160  158.5660   30.5080 C   0  0  0  0  0  0  0  0  0  0  0  0
   48.2800  158.5260   30.9080 C   0  0  0  0  0  0  0  0  0  0  0  0
   47.7210  159.6150   31.5810 C   0  0  0  0  0  0  0  0  0  0  0  0
   48.4990  160.7420   31.8540 C   0  0  0  0  0  0  0  0  0  0  0  0
   49.8320  160.7800   31.4530 C   0  0  0  0  0  0  0  0  0  0  0  0
   50.5350  161.9140   31.7540 O   0  0  0  0  0  0  0  0  0  0  0  0
   50.3900  159.6900   30.7790 C   0  0  0  0  0  0  0  0  0  0  0  0
   51.7870  159.6890   30.3420 C   0  0  0  0  0  0  0  0  0  0  0  0
   52.5360  160.6400   30.5520 O   0  0  0  0  0  0  0  0  0  0  0  0
   52.2790  158.4870   29.6290 C   0  0  0  0  0  0  0  0  0  0  0  0
   53.6030  158.4890   29.2330 O   0  0  0  0  0  0  0  0  0  0  0  0
   51.5750  154.9600   29.3070 C   0  0  0  0  0  0  0  0  0  0  0  0
   51.9700  153.7920   28.6510 C   0  0  0  0  0  0  0  0  0  0  0  0
   52.6160  153.8470   27.4070 C   0  0  0  0  0  0  0  0  0  0  0  0
   53.0300  152.5680   26.7250 C   0  0  0  0  0  0  0  0  0  0  0  0
   52.0580  151.6090   26.7330 F   0  0  0  0  0  0  0  0  0  0  0  0
   54.5243  156.5091   24.1469 H   0  0  0  0  0  0  0  0  0  0  0  0
   53.9025  157.3268   25.7515 H   0  0  0  0  0  0  0  0  0  0  0  0
   53.6711  154.3693   24.8960 H   0  0  0  0  0  0  0  0  0  0  0  0
   52.6689  157.2525   27.0408 H   0  0  0  0  0  0  0  0  0  0  0  0
   47.6675  157.6378   30.6936 H   0  0  0  0  0  0  0  0  0  0  0  0
   46.6675  159.5848   31.8960 H   0  0  0  0  0  0  0  0  0  0  0  0
   48.0593  161.5990   32.3853 H   0  0  0  0  0  0  0  0  0  0  0  0
   51.0720  161.9440   32.5210 H   0  0  0  0  0  0  0  0  0  0  0  0
   53.8620  158.0240   28.4610 H   0  0  0  0  0  0  0  0  0  0  0  0
   51.0731  154.8917   30.2835 H   0  0  0  0  0  0  0  0  0  0  0  0
   51.7718  152.8152   29.1164 H   0  0  0  0  0  0  0  0  0  0  0  0
   53.2849  152.7971   25.6798 H   0  0  0  0  0  0  0  0  0  0  0  0
   53.8875  152.1653   27.2840 H   0  0  0  0  0  0  0  0  0  0  0  0
  1  2  2  0
  2  3  1  0
  3  4  2  0
  4  5  1  0
  5  6  1  0
  6  7  1  0
  7  8  1  0
  8  9  2  0
  9 10  1  0
 10 11  2  0
 11 12  1  0
 12 13  1  0
 12 14  2  0
 14 15  1  0
 15 16  2  0
 15 17  1  0
 17 18  1  0
  5 19  2  0
 19 20  1  0
 20 21  2  0
 21 22  1  0
 22 23  1  0
 21  3  1  0
 17  6  2  0
 14  8  1  0
  1 24  1  0
  1 25  1  0
  2 26  1  0
  4 27  1  0
  9 28  1  0
 10 29  1  0
 11 30  1  0
 13 31  1  0
 18 32  1  0
 19 33  1  0
 20 34  1  0
 22 35  1  0
 22 36  1  0
M  END
>  <meeko>  (3) 
{"is_sidechain": [false], "free_energy": -10.285, "intermolecular_energy": -12.503, "internal_energy": -0.252}

$$$$
cand_035_out
     RDKit          3D

 36 38  0  0  0  0  0  0  0  0999 V2000
   54.0600  156.6480   25.2050 C   0  0  0  0  0  0  0  0  0  0  0  0
   53.5400  155.4460   25.4810 C   0  0  0  0  0  0  0  0  0  0  0  0
   52.9320  155.1470   26.7810 C   0  0  0  0  0  0  0  0  0  0  0  0
   52.3120  156.2010   27.4740 C   0  0  0  0  0  0  0  0  0  0  0  0
   51.7080  155.9970   28.7240 C   0  0  0  0  0  0  0  0  0  0  0  0
   51.0890  157.1340   29.4360 C   0  0  0  0  0  0  0  0  0  0  0  0
   51.9850  158.1700   29.6800 O   0  0  0  0  0  0  0  0  0  0  0  0
   51.5410  159.2900   30.3350 C   0  0  0  0  0  0  0  0  0  0  0  0
   52.4760  160.2980   30.5710 C   0  0  0  0  0  0  0  0  0  0  0  0
   52.0890  161.4660   31.2330 C   0  0  0  0  0  0  0  0  0  0  0  0
   50.7680  161.6250   31.6570 C   0  0  0  0  0  0  0  0  0  0  0  0
   49.8370  160.6160   31.4210 C   0  0  0  0  0  0  0  0  0  0  0  0
   48.5610  160.8390   31.8620 O   0  0  0  0  0  0  0  0  0  0  0  0
   50.2250  159.4480   30.7590 C   0  0  0  0  0  0  0  0  0  0  0  0
   49.2780  158.3650   30.4910 C   0  0  0  0  0  0  0  0  0  0  0  0
   48.0980  158.4330   30.8260 O   0  0  0  0  0  0  0  0  0  0  0  0
   49.7910  157.1660   29.7890 C   0  0  0  0  0  0  0  0  0  0  0  0
   48.8870  156.1540   29.5260 O   0  0  0  0  0  0  0  0  0  0  0  0
   51.7480  154.7140   29.2800 C   0  0  0  0  0  0  0  0  0  0  0  0
   52.3620  153.6580   28.5990 C   0  0  0  0  0  0  0  0  0  0  0  0
   52.9580  153.8590   27.3450 C   0  0  0  0  0  0  0  0  0  0  0  0
   53.6130  152.7000   26.6380 C   0  0  0  0  0  0  0  0  0  0  0  0
   52.7440  151.6930   26.3270 F   0  0  0  0  0  0  0  0  0  0  0  0
   54.5090  156.8398   24.2193 H   0  0  0  0  0  0  0  0  0  0  0  0
   54.0383  157.4440   25.9638 H   0  0  0  0  0  0  0  0  0  0  0  0
   53.5697  154.6608   24.7112 H   0  0  0  0  0  0  0  0  0  0  0  0
   52.3000  157.2062   27.0274 H   0  0  0  0  0  0  0  0  0  0  0  0
   53.5165  160.1735   30.2364 H   0  0  0  0  0  0  0  0  0  0  0  0
   52.8257  162.2611   31.4204 H   0  0  0  0  0  0  0  0  0  0  0  0
   50.4631  162.5454   32.1765 H   0  0  0  0  0  0  0  0  0  0  0  0
   48.0730  160.1420   32.2550 H   0  0  0  0  0  0  0  0  0  0  0  0
   49.0500  155.5480   28.8300 H   0  0  0  0  0  0  0  0  0  0  0  0
   51.2912  154.5336   30.2643 H   0  0  0  0  0  0  0  0  0  0  0  0
   52.3778  152.6561   29.0528 H   0  0  0  0  0  0  0  0  0  0  0  0
   54.0652  153.0705   25.7062 H   0  0  0  0  0  0  0  0  0  0  0  0
   54.3622  152.2814   27.3261 H   0  0  0  0  0  0  0  0  0  0  0  0
  1  2  2  0
  2  3  1  0
  3  4  2  0
  4  5  1  0
  5  6  1  0
  6  7  1  0
  7  8  1  0
  8  9  2  0
  9 10  1  0
 10 11  2  0
 11 12  1  0
 12 13  1  0
 12 14  2  0
 14 15  1  0
 15 16  2  0
 15 17  1  0
 17 18  1  0
  5 19  2  0
 19 20  1  0
 20 21  2  0
 21 22  1  0
 22 23  1  0
 21  3  1  0
 17  6  2  0
 14  8  1  0
  1 24  1  0
  1 25  1  0
  2 26  1  0
  4 27  1  0
  9 28  1  0
 10 29  1  0
 11 30  1  0
 13 31  1  0
 18 32  1  0
 19 33  1  0
 20 34  1  0
 22 35  1  0
 22 36  1  0
M  END
>  <meeko>  (4) 
{"is_sidechain": [false], "free_energy": -9.171, "intermolecular_energy": -10.953, "internal_energy": -0.427}

$$$$
cand_035_out
     RDKit          3D

 36 38  0  0  0  0  0  0  0  0999 V2000
   51.6240  152.4300   28.0330 C   0  0  0  0  0  0  0  0  0  0  0  0
   51.9810  153.4150   28.8660 C   0  0  0  0  0  0  0  0  0  0  0  0
   52.2160  154.7820   28.3920 C   0  0  0  0  0  0  0  0  0  0  0  0
   51.7700  155.8420   29.2000 C   0  0  0  0  0  0  0  0  0  0  0  0
   51.9560  157.1790   28.8180 C   0  0  0  0  0  0  0  0  0  0  0  0
   51.4500  158.2680   29.6800 C   0  0  0  0  0  0  0  0  0  0  0  0
   50.1120  158.1070   30.0220 O   0  0  0  0  0  0  0  0  0  0  0  0
   49.5140  159.0480   30.8210 C   0  0  0  0  0  0  0  0  0  0  0  0
   48.1670  158.8560   31.1290 C   0  0  0  0  0  0  0  0  0  0  0  0
   47.4990  159.7770   31.9390 C   0  0  0  0  0  0  0  0  0  0  0  0
   48.1780  160.8890   32.4420 C   0  0  0  0  0  0  0  0  0  0  0  0
   49.5230  161.0790   32.1330 C   0  0  0  0  0  0  0  0  0  0  0  0
   50.1260  162.1880   32.6600 O   0  0  0  0  0  0  0  0  0  0  0  0
   50.1910  160.1570   31.3220 C   0  0  0  0  0  0  0  0  0  0  0  0
   51.6030  160.3200   30.9740 C   0  0  0  0  0  0  0  0  0  0  0  0
   52.2700  161.2670   31.3830 O   0  0  0  0  0  0  0  0  0  0  0  0
   52.2150  159.2900   30.1020 C   0  0  0  0  0  0  0  0  0  0  0  0
   53.5530  159.4440   29.7910 O   0  0  0  0  0  0  0  0  0  0  0  0
   52.5850  157.4400   27.5960 C   0  0  0  0  0  0  0  0  0  0  0  0
   53.0320  156.3930   26.7840 C   0  0  0  0  0  0  0  0  0  0  0  0
   52.8560  155.0560   27.1710 C   0  0  0  0  0  0  0  0  0  0  0  0
   53.3490  153.9500   26.2720 C   0  0  0  0  0  0  0  0  0  0  0  0
   52.6300  153.8290   25.1170 F   0  0  0  0  0  0  0  0  0  0  0  0
   51.4554  151.4149   28.4218 H   0  0  0  0  0  0  0  0  0  0  0  0
   51.4992  152.6356   26.9596 H   0  0  0  0  0  0  0  0  0  0  0  0
   52.1014  153.1924   29.9365 H   0  0  0  0  0  0  0  0  0  0  0  0
   51.2648  155.6187   30.1513 H   0  0  0  0  0  0  0  0  0  0  0  0
   47.6315  157.9800   30.7342 H   0  0  0  0  0  0  0  0  0  0  0  0
   46.4366  159.6263   32.1811 H   0  0  0  0  0  0  0  0  0  0  0  0
   47.6517  161.6134   33.0809 H   0  0  0  0  0  0  0  0  0  0  0  0
   50.1710  162.9790   32.1600 H   0  0  0  0  0  0  0  0  0  0  0  0
   54.0300  158.7330   29.4080 H   0  0  0  0  0  0  0  0  0  0  0  0
   52.7296  158.4806   27.2702 H   0  0  0  0  0  0  0  0  0  0  0  0
   53.5283  156.6207   25.8291 H   0  0  0  0  0  0  0  0  0  0  0  0
   54.3976  154.1547   26.0102 H   0  0  0  0  0  0  0  0  0  0  0  0
   53.2354  153.0063   26.8257 H   0  0  0  0  0  0  0  0  0  0  0  0
  1  2  2  0
  2  3  1  0
  3  4  2  0
  4  5  1  0
  5  6  1  0
  6  7  1  0
  7  8  1  0
  8  9  2  0
  9 10  1  0
 10 11  2  0
 11 12  1  0
 12 13  1  0
 12 14  2  0
 14 15  1  0
 15 16  2  0
 15 17  1  0
 17 18  1  0
  5 19  2  0
 19 20  1  0
 20 21  2  0
 21 22  1  0
 22 23  1  0
 21  3  1  0
 17  6  2  0
 14  8  1  0
  1 24  1  0
  1 25  1  0
  2 26  1  0
  4 27  1  0
  9 28  1  0
 10 29  1  0
 11 30  1  0
 13 31  1  0
 18 32  1  0
 19 33  1  0
 20 34  1  0
 22 35  1  0
 22 36  1  0
M  END
>  <meeko>  (5) 
{"is_sidechain": [false], "free_energy": -8.585, "intermolecular_energy": -10.947, "internal_energy": 0.29}

$$$$
cand_035_out
     RDKit          3D

 36 38  0  0  0  0  0  0  0  0999 V2000
   51.1250  160.3900   30.0600 C   0  0  0  0  0  0  0  0  0  0  0  0
   51.8440  159.2620   30.0670 C   0  0  0  0  0  0  0  0  0  0  0  0
   51.2630  157.9700   29.6890 C   0  0  0  0  0  0  0  0  0  0  0  0
   51.9760  157.1720   28.7780 C   0  0  0  0  0  0  0  0  0  0  0  0
   51.4880  155.9230   28.3650 C   0  0  0  0  0  0  0  0  0  0  0  0
   52.2520  155.1230   27.3850 C   0  0  0  0  0  0  0  0  0  0  0  0
   51.9560  153.7650   27.4500 O   0  0  0  0  0  0  0  0  0  0  0  0
   52.5950  152.9060   26.5940 C   0  0  0  0  0  0  0  0  0  0  0  0
   52.2790  151.5510   26.7020 C   0  0  0  0  0  0  0  0  0  0  0  0
   52.8930  150.6230   25.8580 C   0  0  0  0  0  0  0  0  0  0  0  0
   53.8230  151.0490   24.9070 C   0  0  0  0  0  0  0  0  0  0  0  0
   54.1370  152.4020   24.8020 C   0  0  0  0  0  0  0  0  0  0  0  0
   55.0540  152.7490   23.8480 O   0  0  0  0  0  0  0  0  0  0  0  0
   53.5220  153.3300   25.6460 C   0  0  0  0  0  0  0  0  0  0  0  0
   53.8240  154.7600   25.5670 C   0  0  0  0  0  0  0  0  0  0  0  0
   54.6240  155.2130   24.7520 O   0  0  0  0  0  0  0  0  0  0  0  0
   53.1230  155.6600   26.5120 C   0  0  0  0  0  0  0  0  0  0  0  0
   53.4030  157.0110   26.4210 O   0  0  0  0  0  0  0  0  0  0  0  0
   50.2570  155.4910   28.8700 C   0  0  0  0  0  0  0  0  0  0  0  0
   49.5400  156.2770   29.7760 C   0  0  0  0  0  0  0  0  0  0  0  0
   50.0320  157.5210   30.1970 C   0  0  0  0  0  0  0  0  0  0  0  0
   49.2330  158.3460   31.1750 C   0  0  0  0  0  0  0  0  0  0  0  0
   48.0230  158.7470   30.6850 F   0  0  0  0  0  0  0  0  0  0  0  0
   51.5931  161.3424   30.3496 H   0  0  0  0  0  0  0  0  0  0  0  0
   50.0657  160.3652   29.7647 H   0  0  0  0  0  0  0  0  0  0  0  0
   52.9020  159.3050   30.3650 H   0  0  0  0  0  0  0  0  0  0  0  0
   52.9359  157.5338   28.3808 H   0  0  0  0  0  0  0  0  0  0  0  0
   51.5472  151.2143   27.4510 H   0  0  0  0  0  0  0  0  0  0  0  0
   52.6438  149.5549   25.9424 H   0  0  0  0  0  0  0  0  0  0  0  0
   54.3064  150.3177   24.2425 H   0  0  0  0  0  0  0  0  0  0  0  0
   55.2720  152.1460   23.1650 H   0  0  0  0  0  0  0  0  0  0  0  0
   54.2930  157.3040   26.3920 H   0  0  0  0  0  0  0  0  0  0  0  0
   49.8486  154.5210   28.5501 H   0  0  0  0  0  0  0  0  0  0  0  0
   48.5765  155.9150   30.1643 H   0  0  0  0  0  0  0  0  0  0  0  0
   49.0608  157.7443   32.0796 H   0  0  0  0  0  0  0  0  0  0  0  0
   49.8157  159.2551   31.3849 H   0  0  0  0  0  0  0  0  0  0  0  0
  1  2  2  0
  2  3  1  0
  3  4  2  0
  4  5  1  0
  5  6  1  0
  6  7  1  0
  7  8  1  0
  8  9  2  0
  9 10  1  0
 10 11  2  0
 11 12  1  0
 12 13  1  0
 12 14  2  0
 14 15  1  0
 15 16  2  0
 15 17  1  0
 17 18  1  0
  5 19  2  0
 19 20  1  0
 20 21  2  0
 21 22  1  0
 22 23  1  0
 21  3  1  0
 17  6  2  0
 14  8  1  0
  1 24  1  0
  1 25  1  0
  2 26  1  0
  4 27  1  0
  9 28  1  0
 10 29  1  0
 11 30  1  0
 13 31  1  0
 18 32  1  0
 19 33  1  0
 20 34  1  0
 22 35  1  0
 22 36  1  0
M  END
>  <meeko>  (6) 
{"is_sidechain": [false], "free_energy": -8.399, "intermolecular_energy": -10.982, "internal_energy": 0.554}

$$$$
cand_035_out
     RDKit          3D

 36 38  0  0  0  0  0  0  0  0999 V2000
   54.9880  154.9340   24.4210 C   0  0  0  0  0  0  0  0  0  0  0  0
   53.7330  154.5020   24.5850 C   0  0  0  0  0  0  0  0  0  0  0  0
   53.1580  154.2780   25.9150 C   0  0  0  0  0  0  0  0  0  0  0  0
   52.7430  155.4030   26.6470 C   0  0  0  0  0  0  0  0  0  0  0  0
   52.1830  155.2740   27.9280 C   0  0  0  0  0  0  0  0  0  0  0  0
   51.7830  156.4810   28.6800 C   0  0  0  0  0  0  0  0  0  0  0  0
   50.4780  156.4110   29.1580 O   0  0  0  0  0  0  0  0  0  0  0  0
   49.9770  157.4670   29.8750 C   0  0  0  0  0  0  0  0  0  0  0  0
   48.6600  157.3610   30.3230 C   0  0  0  0  0  0  0  0  0  0  0  0
   48.0890  158.4000   31.0610 C   0  0  0  0  0  0  0  0  0  0  0  0
   48.8360  159.5440   31.3510 C   0  0  0  0  0  0  0  0  0  0  0  0
   50.1500  159.6480   30.9020 C   0  0  0  0  0  0  0  0  0  0  0  0
   50.8230  160.7950   31.2230 O   0  0  0  0  0  0  0  0  0  0  0  0
   50.7210  158.6070   30.1640 C   0  0  0  0  0  0  0  0  0  0  0  0
   52.0980  158.6760   29.6740 C   0  0  0  0  0  0  0  0  0  0  0  0
   52.8200  159.6450   29.8950 O   0  0  0  0  0  0  0  0  0  0  0  0
   52.6050  157.5230   28.8950 C   0  0  0  0  0  0  0  0  0  0  0  0
   53.9120  157.5910   28.4490 O   0  0  0  0  0  0  0  0  0  0  0  0
   52.0610  153.9910   28.4730 C   0  0  0  0  0  0  0  0  0  0  0  0
   52.4710  152.8660   27.7530 C   0  0  0  0  0  0  0  0  0  0  0  0
   53.0210  152.9930   26.4690 C   0  0  0  0  0  0  0  0  0  0  0  0
   53.4540  151.7590   25.7180 C   0  0  0  0  0  0  0  0  0  0  0  0
   52.9640  150.6010   26.2490 F   0  0  0  0  0  0  0  0  0  0  0  0
   55.3875  155.0915   23.4083 H   0  0  0  0  0  0  0  0  0  0  0  0
   55.6207  155.1318   25.2988 H   0  0  0  0  0  0  0  0  0  0  0  0
   53.1142  154.3091   23.6963 H   0  0  0  0  0  0  0  0  0  0  0  0
   52.8591  156.4048   26.2078 H   0  0  0  0  0  0  0  0  0  0  0  0
   48.0719  156.4598   30.0951 H   0  0  0  0  0  0  0  0  0  0  0  0
   47.0505  158.3174   31.4141 H   0  0  0  0  0  0  0  0  0  0  0  0
   48.3868  160.3619   31.9334 H   0  0  0  0  0  0  0  0  0  0  0  0
   50.5010  161.6250   30.9310 H   0  0  0  0  0  0  0  0  0  0  0  0
   54.6080  157.7480   29.0580 H   0  0  0  0  0  0  0  0  0  0  0  0
   51.6372  153.8666   29.4804 H   0  0  0  0  0  0  0  0  0  0  0  0
   52.3609  151.8667   28.1994 H   0  0  0  0  0  0  0  0  0  0  0  0
   53.1027  151.8421   24.6789 H   0  0  0  0  0  0  0  0  0  0  0  0
   54.5508  151.7074   25.7834 H   0  0  0  0  0  0  0  0  0  0  0  0
  1  2  2  0
  2  3  1  0
  3  4  2  0
  4  5  1  0
  5  6  1  0
  6  7  1  0
  7  8  1  0
  8  9  2  0
  9 10  1  0
 10 11  2  0
 11 12  1  0
 12 13  1  0
 12 14  2  0
 14 15  1  0
 15 16  2  0
 15 17  1  0
 17 18  1  0
  5 19  2  0
 19 20  1  0
 20 21  2  0
 21 22  1  0
 22 23  1  0
 21  3  1  0
 17  6  2  0
 14  8  1  0
  1 24  1  0
  1 25  1  0
  2 26  1  0
  4 27  1  0
  9 28  1  0
 10 29  1  0
 11 30  1  0
 13 31  1  0
 18 32  1  0
 19 33  1  0
 20 34  1  0
 22 35  1  0
 22 36  1  0
M  END
>  <meeko>  (7) 
{"is_sidechain": [false], "free_energy": -8.241, "intermolecular_energy": -9.955, "internal_energy": -0.277}

$$$$
cand_035_out
     RDKit          3D

 36 38  0  0  0  0  0  0  0  0999 V2000
   51.9020  152.0230   27.1490 C   0  0  0  0  0  0  0  0  0  0  0  0
   51.9850  152.9220   28.1360 C   0  0  0  0  0  0  0  0  0  0  0  0
   52.2410  154.3410   27.8710 C   0  0  0  0  0  0  0  0  0  0  0  0
   51.6530  155.2860   28.7290 C   0  0  0  0  0  0  0  0  0  0  0  0
   51.8490  156.6630   28.5430 C   0  0  0  0  0  0  0  0  0  0  0  0
   51.1930  157.6280   29.4490 C   0  0  0  0  0  0  0  0  0  0  0  0
   51.9890  158.7340   29.7280 O   0  0  0  0  0  0  0  0  0  0  0  0
   51.5010  159.7100   30.5580 C   0  0  0  0  0  0  0  0  0  0  0  0
   52.3390  160.7950   30.8220 C   0  0  0  0  0  0  0  0  0  0  0  0
   51.9020  161.8250   31.6580 C   0  0  0  0  0  0  0  0  0  0  0  0
   50.6280  161.7700   32.2300 C   0  0  0  0  0  0  0  0  0  0  0  0
   49.7950  160.6860   31.9650 C   0  0  0  0  0  0  0  0  0  0  0  0
   48.5610  160.6970   32.5560 O   0  0  0  0  0  0  0  0  0  0  0  0
   50.2330  159.6550   31.1280 C   0  0  0  0  0  0  0  0  0  0  0  0
   49.3880  158.4990   30.8240 C   0  0  0  0  0  0  0  0  0  0  0  0
   48.2540  158.3830   31.2820 O   0  0  0  0  0  0  0  0  0  0  0  0
   49.9490  157.4580   29.9320 C   0  0  0  0  0  0  0  0  0  0  0  0
   49.1390  156.3780   29.6380 O   0  0  0  0  0  0  0  0  0  0  0  0
   52.6370  157.0820   27.4650 C   0  0  0  0  0  0  0  0  0  0  0  0
   53.2260  156.1510   26.6050 C   0  0  0  0  0  0  0  0  0  0  0  0
   53.0390  154.7740   26.7970 C   0  0  0  0  0  0  0  0  0  0  0  0
   53.6880  153.7960   25.8510 C   0  0  0  0  0  0  0  0  0  0  0  0
   53.2070  153.8740   24.5750 F   0  0  0  0  0  0  0  0  0  0  0  0
   51.7087  150.9657   27.3829 H   0  0  0  0  0  0  0  0  0  0  0  0
   52.0270  152.3410   26.1034 H   0  0  0  0  0  0  0  0  0  0  0  0
   51.8576  152.5871   29.1760 H   0  0  0  0  0  0  0  0  0  0  0  0
   51.0261  154.9391   29.5637 H   0  0  0  0  0  0  0  0  0  0  0  0
   53.3419  160.8386   30.3723 H   0  0  0  0  0  0  0  0  0  0  0  0
   52.5613  162.6805   31.8665 H   0  0  0  0  0  0  0  0  0  0  0  0
   50.2840  162.5814   32.8882 H   0  0  0  0  0  0  0  0  0  0  0  0
   48.0470  161.4810   32.5540 H   0  0  0  0  0  0  0  0  0  0  0  0
   48.8360  155.8180   30.3260 H   0  0  0  0  0  0  0  0  0  0  0  0
   52.7947  158.1569   27.2925 H   0  0  0  0  0  0  0  0  0  0  0  0
   53.8446  156.5028   25.7662 H   0  0  0  0  0  0  0  0  0  0  0  0
   54.7691  153.9976   25.8289 H   0  0  0  0  0  0  0  0  0  0  0  0
   53.4605  152.7858   26.2223 H   0  0  0  0  0  0  0  0  0  0  0  0
  1  2  2  0
  2  3  1  0
  3  4  2  0
  4  5  1  0
  5  6  1  0
  6  7  1  0
  7  8  1  0
  8  9  2  0
  9 10  1  0
 10 11  2  0
 11 12  1  0
 12 13  1  0
 12 14  2  0
 14 15  1  0
 15 16  2  0
 15 17  1  0
 17 18  1  0
  5 19  2  0
 19 20  1  0
 20 21  2  0
 21 22  1  0
 22 23  1  0
 21  3  1  0
 17  6  2  0
 14  8  1  0
  1 24  1  0
  1 25  1  0
  2 26  1  0
  4 27  1  0
  9 28  1  0
 10 29  1  0
 11 30  1  0
 13 31  1  0
 18 32  1  0
 19 33  1  0
 20 34  1  0
 22 35  1  0
 22 36  1  0
M  END
>  <meeko>  (8) 
{"is_sidechain": [false], "free_energy": -7.864, "intermolecular_energy": -10.409, "internal_energy": 0.64}

$$$$
