cand_047_out
     RDKit          3D

 38 40  0  0  0  0  0  0  0  0999 V2000
   52.2110  161.1360   30.6110 C   0  0  0  0  0  0  0  0  0  0  0  0
   51.3700  159.9010   30.4350 C   0  0  0  0  0  0  0  0  0  0  0  0
   51.9270  158.7930   29.7660 C   0  0  0  0  0  0  0  0  0  0  0  0
   51.1970  157.6130   29.5620 C   0  0  0  0  0  0  0  0  0  0  0  0
   51.7730  156.4570   28.8420 C   0  0  0  0  0  0  0  0  0  0  0  0
   52.3290  156.8060   27.6170 O   0  0  0  0  0  0  0  0  0  0  0  0
   52.9010  155.8280   26.8450 C   0  0  0  0  0  0  0  0  0  0  0  0
   53.4600  156.2250   25.6300 C   0  0  0  0  0  0  0  0  0  0  0  0
   54.0570  155.2770   24.7950 C   0  0  0  0  0  0  0  0  0  0  0  0
   54.0920  153.9340   25.1740 C   0  0  0  0  0  0  0  0  0  0  0  0
   53.5320  153.5400   26.3860 C   0  0  0  0  0  0  0  0  0  0  0  0
   53.6000  152.2090   26.6950 O   0  0  0  0  0  0  0  0  0  0  0  0
   52.9370  154.4890   27.2220 C   0  0  0  0  0  0  0  0  0  0  0  0
   52.3360  154.1170   28.5040 C   0  0  0  0  0  0  0  0  0  0  0  0
   52.3210  152.9550   28.9040 O   0  0  0  0  0  0  0  0  0  0  0  0
   51.7380  155.1990   29.3200 C   0  0  0  0  0  0  0  0  0  0  0  0
   51.1620  154.8360   30.5240 O   0  0  0  0  0  0  0  0  0  0  0  0
   49.8780  157.5590   30.0220 C   0  0  0  0  0  0  0  0  0  0  0  0
   49.3080  158.6510   30.6810 C   0  0  0  0  0  0  0  0  0  0  0  0
   50.0400  159.8310   30.8920 C   0  0  0  0  0  0  0  0  0  0  0  0
   49.3740  160.9680   31.6320 C   0  0  0  0  0  0  0  0  0  0  0  0
   48.6230  160.4890   32.8640 C   0  0  0  0  0  0  0  0  0  0  0  0
   49.5210  159.9760   33.7500 F   0  0  0  0  0  0  0  0  0  0  0  0
   52.3477  161.3367   31.6839 H   0  0  0  0  0  0  0  0  0  0  0  0
   53.1925  160.9816   30.1389 H   0  0  0  0  0  0  0  0  0  0  0  0
   51.7077  161.9927   30.1389 H   0  0  0  0  0  0  0  0  0  0  0  0
   52.9605  158.8551   29.3944 H   0  0  0  0  0  0  0  0  0  0  0  0
   53.4308  157.2828   25.3298 H   0  0  0  0  0  0  0  0  0  0  0  0
   54.4999  155.5894   23.8378 H   0  0  0  0  0  0  0  0  0  0  0  0
   54.5615  153.1881   24.5158 H   0  0  0  0  0  0  0  0  0  0  0  0
   54.4340  151.7980   26.8130 H   0  0  0  0  0  0  0  0  0  0  0  0
   51.6720  154.8520   31.3090 H   0  0  0  0  0  0  0  0  0  0  0  0
   49.2830  156.6475   29.8635 H   0  0  0  0  0  0  0  0  0  0  0  0
   48.2703  158.5857   31.0400 H   0  0  0  0  0  0  0  0  0  0  0  0
   50.1453  161.6873   31.9446 H   0  0  0  0  0  0  0  0  0  0  0  0
   48.6454  161.4331   30.9517 H   0  0  0  0  0  0  0  0  0  0  0  0
   48.0899  161.3339   33.3244 H   0  0  0  0  0  0  0  0  0  0  0  0
   47.8922  159.7170   32.5812 H   0  0  0  0  0  0  0  0  0  0  0  0
  1  2  1  0
  2  3  2  0
  3  4  1  0
  4  5  1  0
  5  6  1  0
  6  7  1  0
  7  8  2  0
  8  9  1  0
  9 10  2  0
 10 11  1  0
 11 12  1  0
 11 13  2  0
 13 14  1  0
 14 15  2  0
 14 16  1  0
 16 17  1  0
  4 18  2  0
 18 19  1  0
 19 20  2  0
 20 21  1  0
 21 22  1  0
 22 23  1  0
 20  2  1  0
 16  5  2  0
 13  7  1  0
  1 24  1  0
  1 25  1  0
  1 26  1  0
  3 27  1  0
  8 28  1  0
  9 29  1  0
 10 30  1  0
 12 31  1  0
 17 32  1  0
 18 33  1  0
 19 34  1  0
 21 35  1  0
 21 36  1  0
 22 37  1  0
 22 38  1  0
M  END
>  <meeko>  (1) 
{"is_sidechain": [false], "free_energy": -10.684, "intermolecular_energy": -13.183, "internal_energy": -0.303}

$$$$
cand_047_out
     RDKit          3D

 38 40  0  0  0  0  0  0  0  0999 V2000
   47.9940  158.8700   31.2170 C   0  0  0  0  0  0  0  0  0  0  0  0
   49.4120  158.9110   30.7160 C   0  0  0  0  0  0  0  0  0  0  0  0
   49.9190  157.7900   30.0310 C   0  0  0  0  0  0  0  0  0  0  0  0
   51.2330  157.7590   29.5420 C   0  0  0  0  0  0  0  0  0  0  0  0
   51.7750  156.5740   28.8420 C   0  0  0  0  0  0  0  0  0  0  0  0
   52.3430  156.8850   27.6120 O   0  0  0  0  0  0  0  0  0  0  0  0
   52.8860  155.8780   26.8580 C   0  0  0  0  0  0  0  0  0  0  0  0
   53.4590  156.2370   25.6380 C   0  0  0  0  0  0  0  0  0  0  0  0
   54.0280  155.2580   24.8200 C   0  0  0  0  0  0  0  0  0  0  0  0
   54.0220  153.9210   25.2210 C   0  0  0  0  0  0  0  0  0  0  0  0
   53.4480  153.5640   26.4390 C   0  0  0  0  0  0  0  0  0  0  0  0
   53.4760  152.2380   26.7700 O   0  0  0  0  0  0  0  0  0  0  0  0
   52.8810  154.5450   27.2570 C   0  0  0  0  0  0  0  0  0  0  0  0
   52.2680  154.2120   28.5450 C   0  0  0  0  0  0  0  0  0  0  0  0
   52.2170  153.0580   28.9630 O   0  0  0  0  0  0  0  0  0  0  0  0
   51.7010  155.3260   29.3410 C   0  0  0  0  0  0  0  0  0  0  0  0
   51.1130  155.0000   30.5490 O   0  0  0  0  0  0  0  0  0  0  0  0
   52.0530  158.8680   29.7670 C   0  0  0  0  0  0  0  0  0  0  0  0
   51.5670  159.9870   30.4500 C   0  0  0  0  0  0  0  0  0  0  0  0
   50.2500  160.0210   30.9340 C   0  0  0  0  0  0  0  0  0  0  0  0
   49.7770  161.2690   31.6440 C   0  0  0  0  0  0  0  0  0  0  0  0
   50.1280  161.2550   33.1230 C   0  0  0  0  0  0  0  0  0  0  0  0
   49.3020  160.3800   33.7590 F   0  0  0  0  0  0  0  0  0  0  0  0
   47.9936  158.8700   32.3170 H   0  0  0  0  0  0  0  0  0  0  0  0
   47.4498  159.7528   30.8502 H   0  0  0  0  0  0  0  0  0  0  0  0
   47.5018  157.9572   30.8502 H   0  0  0  0  0  0  0  0  0  0  0  0
   49.2682  156.9169   29.8756 H   0  0  0  0  0  0  0  0  0  0  0  0
   53.4628  157.2901   25.3203 H   0  0  0  0  0  0  0  0  0  0  0  0
   54.4814  155.5411   23.8586 H   0  0  0  0  0  0  0  0  0  0  0  0
   54.4698  153.1505   24.5762 H   0  0  0  0  0  0  0  0  0  0  0  0
   53.1690  151.5960   26.1590 H   0  0  0  0  0  0  0  0  0  0  0  0
   50.7940  155.6780   31.1120 H   0  0  0  0  0  0  0  0  0  0  0  0
   53.0911  158.8605   29.4032 H   0  0  0  0  0  0  0  0  0  0  0  0
   52.2261  160.8529   30.6103 H   0  0  0  0  0  0  0  0  0  0  0  0
   50.2507  162.1443   31.1756 H   0  0  0  0  0  0  0  0  0  0  0  0
   48.6813  161.3128   31.5569 H   0  0  0  0  0  0  0  0  0  0  0  0
   51.1734  160.9381   33.2524 H   0  0  0  0  0  0  0  0  0  0  0  0
   50.0050  162.2625   33.5471 H   0  0  0  0  0  0  0  0  0  0  0  0
  1  2  1  0
  2  3  2  0
  3  4  1  0
  4  5  1  0
  5  6  1  0
  6  7  1  0
  7  8  2  0
  8  9  1  0
  9 10  2  0
 10 11  1  0
 11 12  1  0
 11 13  2  0
 13 14  1  0
 14 15  2  0
 14 16  1  0
 16 17  1  0
  4 18  2  0
 18 19  1  0
 19 20  2  0
 20 21  1  0
 21 22  1  0
 22 23  1  0
 20  2  1  0
 16  5  2  0
 13  7  1  0
  1 24  1  0
  1 25  1  0
  1 26  1  0
  3 27  1  0
  8 28  1  0
  9 29  1  0
 10 30  1  0
 12 31  1  0
 17 32  1  0
 18 33  1  0
 19 34  1  0
 21 35  1  0
 21 36  1  0
 22 37  1  0
 22 38  1  0
M  END
>  <meeko>  (2) 
{"is_sidechain": [false], "free_energy": -10.412, "intermolecular_energy": -12.82, "internal_energy": -0.33}

$$$$
cand_047_out
     RDKit          3D

 38 40  0  0  0  0  0  0  0  0999 V2000
   53.5870  156.1290   25.7050 C   0  0  0  0  0  0  0  0  0  0  0  0
   52.8440  155.8990   26.9920 C   0  0  0  0  0  0  0  0  0  0  0  0
   52.3980  157.0170   27.7250 C   0  0  0  0  0  0  0  0  0  0  0  0
   51.7050  156.8750   28.9350 C   0  0  0  0  0  0  0  0  0  0  0  0
   51.2550  158.0470   29.7170 C   0  0  0  0  0  0  0  0  0  0  0  0
   49.9150  157.9740   30.0780 O   0  0  0  0  0  0  0  0  0  0  0  0
   49.3690  158.9980   30.8080 C   0  0  0  0  0  0  0  0  0  0  0  0
   48.0240  158.8770   31.1620 C   0  0  0  0  0  0  0  0  0  0  0  0
   47.4060  159.8850   31.9050 C   0  0  0  0  0  0  0  0  0  0  0  0
   48.1310  161.0140   32.2920 C   0  0  0  0  0  0  0  0  0  0  0  0
   49.4720  161.1340   31.9360 C   0  0  0  0  0  0  0  0  0  0  0  0
   50.1220  162.2650   32.3460 O   0  0  0  0  0  0  0  0  0  0  0  0
   50.0900  160.1230   31.1940 C   0  0  0  0  0  0  0  0  0  0  0  0
   51.4980  160.2090   30.8000 C   0  0  0  0  0  0  0  0  0  0  0  0
   52.1990  161.1740   31.0960 O   0  0  0  0  0  0  0  0  0  0  0  0
   52.0610  159.0820   30.0220 C   0  0  0  0  0  0  0  0  0  0  0  0
   53.3870  159.1780   29.6440 O   0  0  0  0  0  0  0  0  0  0  0  0
   51.4770  155.5850   29.4240 C   0  0  0  0  0  0  0  0  0  0  0  0
   51.9170  154.4650   28.7130 C   0  0  0  0  0  0  0  0  0  0  0  0
   52.6060  154.6070   27.4970 C   0  0  0  0  0  0  0  0  0  0  0  0
   53.0360  153.3570   26.7650 C   0  0  0  0  0  0  0  0  0  0  0  0
   51.9350  152.3100   26.7200 C   0  0  0  0  0  0  0  0  0  0  0  0
   52.4790  151.1210   26.3400 F   0  0  0  0  0  0  0  0  0  0  0  0
   54.6161  156.4475   25.9276 H   0  0  0  0  0  0  0  0  0  0  0  0
   53.6098  155.1959   25.1230 H   0  0  0  0  0  0  0  0  0  0  0  0
   53.0786  156.9118   25.1230 H   0  0  0  0  0  0  0  0  0  0  0  0
   52.5989  158.0268   27.3377 H   0  0  0  0  0  0  0  0  0  0  0  0
   47.4518  157.9888   30.8560 H   0  0  0  0  0  0  0  0  0  0  0  0
   46.3467  159.7896   32.1858 H   0  0  0  0  0  0  0  0  0  0  0  0
   47.6435  161.8076   32.8773 H   0  0  0  0  0  0  0  0  0  0  0  0
   49.9850  162.5950   33.2130 H   0  0  0  0  0  0  0  0  0  0  0  0
   54.0430  159.3740   30.2830 H   0  0  0  0  0  0  0  0  0  0  0  0
   50.9460  155.4503   30.3779 H   0  0  0  0  0  0  0  0  0  0  0  0
   51.7211  153.4584   29.1111 H   0  0  0  0  0  0  0  0  0  0  0  0
   53.3105  153.6268   25.7345 H   0  0  0  0  0  0  0  0  0  0  0  0
   53.8902  152.9254   27.3072 H   0  0  0  0  0  0  0  0  0  0  0  0
   51.4806  152.2076   27.7165 H   0  0  0  0  0  0  0  0  0  0  0  0
   51.1583  152.6133   26.0026 H   0  0  0  0  0  0  0  0  0  0  0  0
  1  2  1  0
  2  3  2  0
  3  4  1  0
  4  5  1  0
  5  6  1  0
  6  7  1  0
  7  8  2  0
  8  9  1  0
  9 10  2  0
 10 11  1  0
 11 12  1  0
 11 13  2  0
 13 14  1  0
 14 15  2  0
 14 16  1  0
 16 17  1  0
  4 18  2  0
 18 19  1  0
 19 20  2  0
 20 21  1  0
 21 22  1  0
 22 23  1  0
 20  2  1  0
 16  5  2  0
 13  7  1  0
  1 24  1  0
  1 25  1  0
  1 26  1  0
  3 27  1  0
  8 28  1  0
  9 29  1  0
 10 30  1  0
 12 31  1  0
 17 32  1  0
 18 33  1  0
 19 34  1  0
 21 35  1  0
 21 36  1  0
 22 37  1  0
 22 38  1  0
M  END
>  <meeko>  (3) 
{"is_sidechain": [false], "free_energy": -9.791, "intermolecular_energy": -12.217, "internal_energy": -0.166}

$$$$
cand_047_out
     RDKit          3D

 38 40  0  0  0  0  0  0  0  0999 V2000
   51.8860  153.2900   28.8790 C   0  0  0  0  0  0  0  0  0  0  0  0
   52.1570  154.7010   28.4310 C   0  0  0  0  0  0  0  0  0  0  0  0
   51.7150  155.7640   29.2410 C   0  0  0  0  0  0  0  0  0  0  0  0
   51.9290  157.1030   28.8800 C   0  0  0  0  0  0  0  0  0  0  0  0
   51.4470  158.2210   29.7180 C   0  0  0  0  0  0  0  0  0  0  0  0
   50.1060  158.0990   30.0630 O   0  0  0  0  0  0  0  0  0  0  0  0
   49.5300  159.0700   30.8420 C   0  0  0  0  0  0  0  0  0  0  0  0
   48.1860  158.9000   31.1760 C   0  0  0  0  0  0  0  0  0  0  0  0
   47.5380  159.8530   31.9660 C   0  0  0  0  0  0  0  0  0  0  0  0
   48.2340  160.9760   32.4180 C   0  0  0  0  0  0  0  0  0  0  0  0
   49.5740  161.1440   32.0820 C   0  0  0  0  0  0  0  0  0  0  0  0
   50.1950  162.2670   32.5570 O   0  0  0  0  0  0  0  0  0  0  0  0
   50.2220  160.1890   31.2930 C   0  0  0  0  0  0  0  0  0  0  0  0
   51.6300  160.3280   30.9180 C   0  0  0  0  0  0  0  0  0  0  0  0
   52.3070  161.2910   31.2700 O   0  0  0  0  0  0  0  0  0  0  0  0
   52.2260  159.2560   30.0860 C   0  0  0  0  0  0  0  0  0  0  0  0
   53.5530  159.4030   29.7250 O   0  0  0  0  0  0  0  0  0  0  0  0
   52.5810  157.3700   27.6730 C   0  0  0  0  0  0  0  0  0  0  0  0
   53.0210  156.3260   26.8550 C   0  0  0  0  0  0  0  0  0  0  0  0
   52.8130  154.9860   27.2180 C   0  0  0  0  0  0  0  0  0  0  0  0
   53.3330  153.9030   26.3010 C   0  0  0  0  0  0  0  0  0  0  0  0
   53.9890  154.4730   25.0540 C   0  0  0  0  0  0  0  0  0  0  0  0
   53.3740  153.9470   23.9590 F   0  0  0  0  0  0  0  0  0  0  0  0
   51.8782  153.2494   29.9782 H   0  0  0  0  0  0  0  0  0  0  0  0
   50.9088  152.9640   28.4931 H   0  0  0  0  0  0  0  0  0  0  0  0
   52.6729  152.6252   28.4931 H   0  0  0  0  0  0  0  0  0  0  0  0
   51.1887  155.5394   30.1804 H   0  0  0  0  0  0  0  0  0  0  0  0
   47.6371  158.0166   30.8177 H   0  0  0  0  0  0  0  0  0  0  0  0
   46.4791  159.7186   32.2320 H   0  0  0  0  0  0  0  0  0  0  0  0
   47.7237  161.7270   33.0389 H   0  0  0  0  0  0  0  0  0  0  0  0
   50.5920  162.8700   31.9600 H   0  0  0  0  0  0  0  0  0  0  0  0
   54.2180  159.4090   30.3840 H   0  0  0  0  0  0  0  0  0  0  0  0
   52.7495  158.4121   27.3639 H   0  0  0  0  0  0  0  0  0  0  0  0
   53.5382  156.5577   25.9123 H   0  0  0  0  0  0  0  0  0  0  0  0
   54.0741  153.3015   26.8477 H   0  0  0  0  0  0  0  0  0  0  0  0
   52.4768  153.2903   25.9823 H   0  0  0  0  0  0  0  0  0  0  0  0
   53.8836  155.5679   25.0477 H   0  0  0  0  0  0  0  0  0  0  0  0
   55.0588  154.2173   25.0426 H   0  0  0  0  0  0  0  0  0  0  0  0
  1  2  1  0
  2  3  2  0
  3  4  1  0
  4  5  1  0
  5  6  1  0
  6  7  1  0
  7  8  2  0
  8  9  1  0
  9 10  2  0
 10 11  1  0
 11 12  1  0
 11 13  2  0
 13 14  1  0
 14 15  2  0
 14 16  1  0
 16 17  1  0
  4 18  2  0
 18 19  1  0
 19 20  2  0
 20 21  1  0
 21 22  1  0
 22 23  1  0
 20  2  1  0
 16  5  2  0
 13  7  1  0
  1 24  1  0
  1 25  1  0
  1 26  1  0
  3 27  1  0
  8 28  1  0
  9 29  1  0
 10 30  1  0
 12 31  1  0
 17 32  1  0
 18 33  1  0
 19 34  1  0
 21 35  1  0
 21 36  1  0
 22 37  1  0
 22 38  1  0
M  END
>  <meeko>  (4) 
{"is_sidechain": [false], "free_energy": -9.237, "intermolecular_energy": -11.509, "internal_energy": -0.191}

$$$$
cand_047_out
     RDKit          3D

 38 40  0  0  0  0  0  0  0  0999 V2000
   49.0420  157.4410   30.7660 C   0  0  0  0  0  0  0  0  0  0  0  0
   50.3400  157.5040   30.0070 C   0  0  0  0  0  0  0  0  0  0  0  0
   50.7260  156.3920   29.2350 C   0  0  0  0  0  0  0  0  0  0  0  0
   51.9250  156.3810   28.5080 C   0  0  0  0  0  0  0  0  0  0  0  0
   52.3430  155.2060   27.7130 C   0  0  0  0  0  0  0  0  0  0  0  0
   53.0940  155.5490   26.5950 O   0  0  0  0  0  0  0  0  0  0  0  0
   53.5480  154.5520   25.7700 C   0  0  0  0  0  0  0  0  0  0  0  0
   54.3110  154.9400   24.6680 C   0  0  0  0  0  0  0  0  0  0  0  0
   54.8030  153.9740   23.7860 C   0  0  0  0  0  0  0  0  0  0  0  0
   54.5300  152.6230   24.0060 C   0  0  0  0  0  0  0  0  0  0  0  0
   53.7680  152.2380   25.1060 C   0  0  0  0  0  0  0  0  0  0  0  0
   53.5380  150.8990   25.2610 O   0  0  0  0  0  0  0  0  0  0  0  0
   53.2770  153.2050   25.9880 C   0  0  0  0  0  0  0  0  0  0  0  0
   52.4720  152.8430   27.1560 C   0  0  0  0  0  0  0  0  0  0  0  0
   52.1830  151.6770   27.4130 O   0  0  0  0  0  0  0  0  0  0  0  0
   52.0070  153.9420   28.0340 C   0  0  0  0  0  0  0  0  0  0  0  0
   51.2360  153.5920   29.1270 O   0  0  0  0  0  0  0  0  0  0  0  0
   52.7570  157.5020   28.5800 C   0  0  0  0  0  0  0  0  0  0  0  0
   52.3920  158.6120   29.3470 C   0  0  0  0  0  0  0  0  0  0  0  0
   51.1880  158.6260   30.0700 C   0  0  0  0  0  0  0  0  0  0  0  0
   50.8390  159.8650   30.8620 C   0  0  0  0  0  0  0  0  0  0  0  0
   49.5710  160.5320   30.3550 C   0  0  0  0  0  0  0  0  0  0  0  0
   49.6890  160.7280   29.0120 F   0  0  0  0  0  0  0  0  0  0  0  0
   49.2482  157.4510   31.8465 H   0  0  0  0  0  0  0  0  0  0  0  0
   48.4210  158.3101   30.5032 H   0  0  0  0  0  0  0  0  0  0  0  0
   48.5081  156.5159   30.5032 H   0  0  0  0  0  0  0  0  0  0  0  0
   50.0705  155.5093   29.2012 H   0  0  0  0  0  0  0  0  0  0  0  0
   54.5250  156.0048   24.4937 H   0  0  0  0  0  0  0  0  0  0  0  0
   55.4058  154.2786   22.9178 H   0  0  0  0  0  0  0  0  0  0  0  0
   54.9165  151.8630   23.3110 H   0  0  0  0  0  0  0  0  0  0  0  0
   53.0610  150.5890   26.0070 H   0  0  0  0  0  0  0  0  0  0  0  0
   50.4460  154.0590   29.3120 H   0  0  0  0  0  0  0  0  0  0  0  0
   53.7082  157.5106   28.0277 H   0  0  0  0  0  0  0  0  0  0  0  0
   53.0573  159.4872   29.3849 H   0  0  0  0  0  0  0  0  0  0  0  0
   50.6941  159.5830   31.9153 H   0  0  0  0  0  0  0  0  0  0  0  0
   51.6658  160.5818   30.7496 H   0  0  0  0  0  0  0  0  0  0  0  0
   48.7050  159.8856   30.5603 H   0  0  0  0  0  0  0  0  0  0  0  0
   49.4250  161.4963   30.8637 H   0  0  0  0  0  0  0  0  0  0  0  0
  1  2  1  0
  2  3  2  0
  3  4  1  0
  4  5  1  0
  5  6  1  0
  6  7  1  0
  7  8  2  0
  8  9  1  0
  9 10  2  0
 10 11  1  0
 11 12  1  0
 11 13  2  0
 13 14  1  0
 14 15  2  0
 14 16  1  0
 16 17  1  0
  4 18  2  0
 18 19  1  0
 19 20  2  0
 20 21  1  0
 21 22  1  0
 22 23  1  0
 20  2  1  0
 16  5  2  0
 13  7  1  0
  1 24  1  0
  1 25  1  0
  1 26  1  0
  3 27  1  0
  8 28  1  0
  9 29  1  0
 10 30  1  0
 12 31  1  0
 17 32  1  0
 18 33  1  0
 19 34  1  0
 21 35  1  0
 21 36  1  0
 22 37  1  0
 22 38  1  0
M  END
>  <meeko>  (5) 
{"is_sidechain": [false], "free_energy": -8.912, "intermolecular_energy": -11.505, "internal_energy": 0.206}

$$$$
cand_047_out
     RDKit          3D

 38 40  0  0  0  0  0  0  0  0999 V2000
   53.7520  155.8850   25.5300 C   0  0  0  0  0  0  0  0  0  0  0  0
   53.0040  155.5370   26.7880 C   0  0  0  0  0  0  0  0  0  0  0  0
   52.3800  156.5710   27.5120 C   0  0  0  0  0  0  0  0  0  0  0  0
   51.6720  156.3170   28.6960 C   0  0  0  0  0  0  0  0  0  0  0  0
   51.0340  157.4050   29.4690 C   0  0  0  0  0  0  0  0  0  0  0  0
   51.9070  158.4470   29.7580 O   0  0  0  0  0  0  0  0  0  0  0  0
   51.4430  159.5230   30.4700 C   0  0  0  0  0  0  0  0  0  0  0  0
   52.3490  160.5530   30.7240 C   0  0  0  0  0  0  0  0  0  0  0  0
   51.9410  161.6770   31.4460 C   0  0  0  0  0  0  0  0  0  0  0  0
   50.6290  161.7700   31.9140 C   0  0  0  0  0  0  0  0  0  0  0  0
   49.7270  160.7400   31.6600 C   0  0  0  0  0  0  0  0  0  0  0  0
   48.4590  160.8950   32.1490 O   0  0  0  0  0  0  0  0  0  0  0  0
   50.1360  159.6160   30.9370 C   0  0  0  0  0  0  0  0  0  0  0  0
   49.2190  158.5120   30.6480 C   0  0  0  0  0  0  0  0  0  0  0  0
   48.0520  158.5160   31.0330 O   0  0  0  0  0  0  0  0  0  0  0  0
   49.7480  157.3700   29.8660 C   0  0  0  0  0  0  0  0  0  0  0  0
   48.8780  156.3260   29.6100 O   0  0  0  0  0  0  0  0  0  0  0  0
   51.6110  155.0020   29.1660 C   0  0  0  0  0  0  0  0  0  0  0  0
   52.2300  153.9650   28.4630 C   0  0  0  0  0  0  0  0  0  0  0  0
   52.9340  154.2170   27.2750 C   0  0  0  0  0  0  0  0  0  0  0  0
   53.5620  153.0500   26.5490 C   0  0  0  0  0  0  0  0  0  0  0  0
   52.5630  151.9370   26.2790 C   0  0  0  0  0  0  0  0  0  0  0  0
   53.2070  150.9160   25.6490 F   0  0  0  0  0  0  0  0  0  0  0  0
   54.7206  156.3356   25.7921 H   0  0  0  0  0  0  0  0  0  0  0  0
   53.9200  154.9726   24.9390 H   0  0  0  0  0  0  0  0  0  0  0  0
   53.1623  156.6012   24.9390 H   0  0  0  0  0  0  0  0  0  0  0  0
   52.4495  157.6038   27.1398 H   0  0  0  0  0  0  0  0  0  0  0  0
   53.3831  160.4801   30.3562 H   0  0  0  0  0  0  0  0  0  0  0  0
   52.6544  162.4900   31.6461 H   0  0  0  0  0  0  0  0  0  0  0  0
   50.3083  162.6555   32.4824 H   0  0  0  0  0  0  0  0  0  0  0  0
   47.8960  161.5520   31.7890 H   0  0  0  0  0  0  0  0  0  0  0  0
   48.1490  156.1750   30.1780 H   0  0  0  0  0  0  0  0  0  0  0  0
   51.0705  154.7813   30.0983 H   0  0  0  0  0  0  0  0  0  0  0  0
   52.1646  152.9360   28.8462 H   0  0  0  0  0  0  0  0  0  0  0  0
   53.9646  153.4052   25.5889 H   0  0  0  0  0  0  0  0  0  0  0  0
   54.3572  152.6418   27.1901 H   0  0  0  0  0  0  0  0  0  0  0  0
   52.1422  151.5785   27.2300 H   0  0  0  0  0  0  0  0  0  0  0  0
   51.7457  152.3123   25.6456 H   0  0  0  0  0  0  0  0  0  0  0  0
  1  2  1  0
  2  3  2  0
  3  4  1  0
  4  5  1  0
  5  6  1  0
  6  7  1  0
  7  8  2  0
  8  9  1  0
  9 10  2  0
 10 11  1  0
 11 12  1  0
 11 13  2  0
 13 14  1  0
 14 15  2  0
 14 16  1  0
 16 17  1  0
  4 18  2  0
 18 19  1  0
 19 20  2  0
 20 21  1  0
 21 22  1  0
 22 23  1  0
 20  2  1  0
 16  5  2  0
 13  7  1  0
  1 24  1  0
  1 25  1  0
  1 26  1  0
  3 27  1  0
  8 28  1  0
  9 29  1  0
 10 30  1  0
 12 31  1  0
 17 32  1  0
 18 33  1  0
 19 34  1  0
 21 35  1  0
 21 36  1  0
 22 37  1  0
 22 38  1  0
M  END
>  <meeko>  (6) 
{"is_sidechain": [false], "free_energy": -8.843, "intermolecular_energy": -11.032, "internal_energy": -0.181}

$$$$
cand_047_out
     RDKit          3D

 38 40  0  0  0  0  0  0  0  0999 V2000
   51.9480  159.2970   30.0480 C   0  0  0  0  0  0  0  0  0  0  0  0
   51.3780  157.9640   29.6450 C   0  0  0  0  0  0  0  0  0  0  0  0
   52.0940  157.1730   28.7250 C   0  0  0  0  0  0  0  0  0  0  0  0
   51.6180  155.9230   28.3020 C   0  0  0  0  0  0  0  0  0  0  0  0
   52.3560  155.1010   27.3200 C   0  0  0  0  0  0  0  0  0  0  0  0
   52.0530  153.7480   27.4100 O   0  0  0  0  0  0  0  0  0  0  0  0
   52.6680  152.8720   26.5530 C   0  0  0  0  0  0  0  0  0  0  0  0
   52.3230  151.5250   26.6690 C   0  0  0  0  0  0  0  0  0  0  0  0
   52.9140  150.5790   25.8280 C   0  0  0  0  0  0  0  0  0  0  0  0
   53.8510  150.9800   24.8730 C   0  0  0  0  0  0  0  0  0  0  0  0
   54.1940  152.3250   24.7600 C   0  0  0  0  0  0  0  0  0  0  0  0
   55.1190  152.6490   23.8060 O   0  0  0  0  0  0  0  0  0  0  0  0
   53.6010  153.2710   25.6020 C   0  0  0  0  0  0  0  0  0  0  0  0
   53.9340  154.6940   25.5160 C   0  0  0  0  0  0  0  0  0  0  0  0
   54.7540  155.1230   24.7080 O   0  0  0  0  0  0  0  0  0  0  0  0
   53.2440  155.6160   26.4480 C   0  0  0  0  0  0  0  0  0  0  0  0
   53.5750  156.9560   26.3680 O   0  0  0  0  0  0  0  0  0  0  0  0
   50.3910  155.4750   28.8010 C   0  0  0  0  0  0  0  0  0  0  0  0
   49.6660  156.2500   29.7110 C   0  0  0  0  0  0  0  0  0  0  0  0
   50.1450  157.4990   30.1390 C   0  0  0  0  0  0  0  0  0  0  0  0
   49.3250  158.2780   31.1410 C   0  0  0  0  0  0  0  0  0  0  0  0
   48.1900  159.0450   30.4820 C   0  0  0  0  0  0  0  0  0  0  0  0
   48.7220  159.9510   29.6160 F   0  0  0  0  0  0  0  0  0  0  0  0
   51.9777  159.3664   31.1454 H   0  0  0  0  0  0  0  0  0  0  0  0
   52.9673  159.3964   29.6466 H   0  0  0  0  0  0  0  0  0  0  0  0
   51.3157  160.1026   29.6466 H   0  0  0  0  0  0  0  0  0  0  0  0
   53.0503  157.5449   28.3284 H   0  0  0  0  0  0  0  0  0  0  0  0
   51.5863  151.2083   27.4220 H   0  0  0  0  0  0  0  0  0  0  0  0
   52.6411  149.5172   25.9180 H   0  0  0  0  0  0  0  0  0  0  0  0
   54.3171  150.2349   24.2115 H   0  0  0  0  0  0  0  0  0  0  0  0
   55.2880  153.5490   23.6050 H   0  0  0  0  0  0  0  0  0  0  0  0
   54.2770  157.2960   26.8860 H   0  0  0  0  0  0  0  0  0  0  0  0
   49.9923  154.5032   28.4743 H   0  0  0  0  0  0  0  0  0  0  0  0
   48.7064  155.8761   30.0975 H   0  0  0  0  0  0  0  0  0  0  0  0
   48.8998  157.5758   31.8731 H   0  0  0  0  0  0  0  0  0  0  0  0
   49.9893  159.0085   31.6259 H   0  0  0  0  0  0  0  0  0  0  0  0
   47.5400  158.3467   29.9344 H   0  0  0  0  0  0  0  0  0  0  0  0
   47.5930  159.5628   31.2471 H   0  0  0  0  0  0  0  0  0  0  0  0
  1  2  1  0
  2  3  2  0
  3  4  1  0
  4  5  1  0
  5  6  1  0
  6  7  1  0
  7  8  2  0
  8  9  1  0
  9 10  2  0
 10 11  1  0
 11 12  1  0
 11 13  2  0
 13 14  1  0
 14 15  2  0
 14 16  1  0
 16 17  1  0
  4 18  2  0
 18 19  1  0
 19 20  2  0
 20 21  1  0
 21 22  1  0
 22 23  1  0
 20  2  1  0
 16  5  2  0
 13  7  1  0
  1 24  1  0
  1 25  1  0
  1 26  1  0
  3 27  1  0
  8 28  1  0
  9 29  1  0
 10 30  1  0
 12 31  1  0
 17 32  1  0
 18 33  1  0
 19 34  1  0
 21 35  1  0
 21 36  1  0
 22 37  1  0
 22 38  1  0
M  END
>  <meeko>  (7) 
{"is_sidechain": [false], "free_energy": -8.781, "intermolecular_energy": -11.074, "internal_energy": -0.063}

$$$$
cand_047_out
     RDKit          3D

 38 40  0  0  0  0  0  0  0  0999 V2000
   51.9080  160.3190   30.4440 C   0  0  0  0  0  0  0  0  0  0  0  0
   51.2380  158.9970   30.1820 C   0  0  0  0  0  0  0  0  0  0  0  0
   51.8660  158.0820   29.3140 C   0  0  0  0  0  0  0  0  0  0  0  0
   51.2940  156.8360   29.0210 C   0  0  0  0  0  0  0  0  0  0  0  0
   51.9400  155.8830   28.0930 C   0  0  0  0  0  0  0  0  0  0  0  0
   51.5210  154.5710   28.2860 O   0  0  0  0  0  0  0  0  0  0  0  0
   52.0420  153.5850   27.4890 C   0  0  0  0  0  0  0  0  0  0  0  0
   51.5820  152.2850   27.7080 C   0  0  0  0  0  0  0  0  0  0  0  0
   52.0730  151.2330   26.9320 C   0  0  0  0  0  0  0  0  0  0  0  0
   53.0250  151.4790   25.9400 C   0  0  0  0  0  0  0  0  0  0  0  0
   53.4830  152.7760   25.7250 C   0  0  0  0  0  0  0  0  0  0  0  0
   54.4150  152.9470   24.7390 O   0  0  0  0  0  0  0  0  0  0  0  0
   52.9890  153.8290   26.5010 C   0  0  0  0  0  0  0  0  0  0  0  0
   53.4450  155.2070   26.3070 C   0  0  0  0  0  0  0  0  0  0  0  0
   54.2850  155.5020   25.4610 O   0  0  0  0  0  0  0  0  0  0  0  0
   52.8540  156.2520   27.1760 C   0  0  0  0  0  0  0  0  0  0  0  0
   53.3000  157.5480   26.9940 O   0  0  0  0  0  0  0  0  0  0  0  0
   50.0600  156.5180   29.5960 C   0  0  0  0  0  0  0  0  0  0  0  0
   49.4210  157.4170   30.4540 C   0  0  0  0  0  0  0  0  0  0  0  0
   49.9960  158.6620   30.7530 C   0  0  0  0  0  0  0  0  0  0  0  0
   49.2670  159.5810   31.7070 C   0  0  0  0  0  0  0  0  0  0  0  0
   47.9430  160.0640   31.1380 C   0  0  0  0  0  0  0  0  0  0  0  0
   46.9310  159.4100   31.7720 F   0  0  0  0  0  0  0  0  0  0  0  0
   51.9896  160.4800   31.5291 H   0  0  0  0  0  0  0  0  0  0  0  0
   52.9132  160.3156   29.9972 H   0  0  0  0  0  0  0  0  0  0  0  0
   51.3109  161.1276   29.9972 H   0  0  0  0  0  0  0  0  0  0  0  0
   52.8286  158.3518   28.8550 H   0  0  0  0  0  0  0  0  0  0  0  0
   50.8340  152.0898   28.4906 H   0  0  0  0  0  0  0  0  0  0  0  0
   51.7094  150.2089   27.1022 H   0  0  0  0  0  0  0  0  0  0  0  0
   53.4121  150.6496   25.3299 H   0  0  0  0  0  0  0  0  0  0  0  0
   54.2710  152.5780   23.8900 H   0  0  0  0  0  0  0  0  0  0  0  0
   53.8470  157.7560   26.2620 H   0  0  0  0  0  0  0  0  0  0  0  0
   49.5874  155.5506   29.3708 H   0  0  0  0  0  0  0  0  0  0  0  0
   48.4536  157.1451   30.9014 H   0  0  0  0  0  0  0  0  0  0  0  0
   49.0732  159.0380   32.6438 H   0  0  0  0  0  0  0  0  0  0  0  0
   49.9024  160.4621   31.8798 H   0  0  0  0  0  0  0  0  0  0  0  0
   47.8432  161.1472   31.3011 H   0  0  0  0  0  0  0  0  0  0  0  0
   47.9025  159.8600   30.0578 H   0  0  0  0  0  0  0  0  0  0  0  0
  1  2  1  0
  2  3  2  0
  3  4  1  0
  4  5  1  0
  5  6  1  0
  6  7  1  0
  7  8  2  0
  8  9  1  0
  9 10  2  0
 10 11  1  0
 11 12  1  0
 11 13  2  0
 13 14  1  0
 14 15  2  0
 14 16  1  0
 16 17  1  0
  4 18  2  0
 18 19  1  0
 19 20  2  0
 20 21  1  0
 21 22  1  0
 22 23  1  0
 20  2  1  0
 16  5  2  0
 13  7  1  0
  1 24  1  0
  1 25  1  0
  1 26  1  0
  3 27  1  0
  8 28  1  0
  9 29  1  0
 10 30  1  0
 12 31  1  0
 17 32  1  0
 18 33  1  0
 19 34  1  0
 21 35  1  0
 21 36  1  0
 22 37  1  0
 22 38  1  0
M  END
>  <meeko>  (8) 
{"is_sidechain": [false], "free_energy": -7.88, "intermolecular_energy": -10.097, "internal_energy": 0.072}

$$$$
