cand_019_out
     RDKit          3D

 35 37  0  0  0  0  0  0  0  0999 V2000
   52.1620  152.9550   28.8270 O   0  0  0  0  0  0  0  0  0  0  0  0
   52.2810  154.1110   28.4280 C   0  0  0  0  0  0  0  0  0  0  0  0
   51.7930  155.2440   29.2470 C   0  0  0  0  0  0  0  0  0  0  0  0
   51.1940  154.9340   30.4550 O   0  0  0  0  0  0  0  0  0  0  0  0
   51.9430  156.4930   28.7710 C   0  0  0  0  0  0  0  0  0  0  0  0
   51.4820  157.6980   29.4960 C   0  0  0  0  0  0  0  0  0  0  0  0
   52.3150  158.8040   29.6900 C   0  0  0  0  0  0  0  0  0  0  0  0
   51.8510  159.9400   30.3580 C   0  0  0  0  0  0  0  0  0  0  0  0
   50.5390  160.0010   30.8490 C   0  0  0  0  0  0  0  0  0  0  0  0
   50.0680  161.2450   31.5580 C   0  0  0  0  0  0  0  0  0  0  0  0
   50.0770  161.1050   32.9140 F   0  0  0  0  0  0  0  0  0  0  0  0
   49.6760  158.9040   30.6390 C   0  0  0  0  0  0  0  0  0  0  0  0
   48.2440  158.9260   31.1260 C   0  0  0  0  0  0  0  0  0  0  0  0
   48.1580  158.9360   32.4860 F   0  0  0  0  0  0  0  0  0  0  0  0
   47.5550  160.0310   30.7160 F   0  0  0  0  0  0  0  0  0  0  0  0
   50.1630  157.7650   29.9680 C   0  0  0  0  0  0  0  0  0  0  0  0
   52.5220  156.7910   27.5430 O   0  0  0  0  0  0  0  0  0  0  0  0
   52.9900  155.7630   26.7640 C   0  0  0  0  0  0  0  0  0  0  0  0
   53.5730  156.1080   25.5440 C   0  0  0  0  0  0  0  0  0  0  0  0
   54.0690  155.1090   24.7030 C   0  0  0  0  0  0  0  0  0  0  0  0
   53.9810  153.7680   25.0800 C   0  0  0  0  0  0  0  0  0  0  0  0
   53.3980  153.4270   26.2990 C   0  0  0  0  0  0  0  0  0  0  0  0
   53.3450  152.0950   26.6050 O   0  0  0  0  0  0  0  0  0  0  0  0
   52.9030  154.4260   27.1400 C   0  0  0  0  0  0  0  0  0  0  0  0
   51.6620  154.4370   31.0970 H   0  0  0  0  0  0  0  0  0  0  0  0
   53.3478  158.7795   29.3123 H   0  0  0  0  0  0  0  0  0  0  0  0
   52.5241  160.7982   30.5007 H   0  0  0  0  0  0  0  0  0  0  0  0
   50.7303  162.0797   31.2846 H   0  0  0  0  0  0  0  0  0  0  0  0
   49.0302  161.4356   31.2473 H   0  0  0  0  0  0  0  0  0  0  0  0
   47.8114  158.0101   30.6970 H   0  0  0  0  0  0  0  0  0  0  0  0
   49.4924  156.9074   29.8104 H   0  0  0  0  0  0  0  0  0  0  0  0
   53.6418  157.1644   25.2452 H   0  0  0  0  0  0  0  0  0  0  0  0
   54.5299  155.3797   23.7416 H   0  0  0  0  0  0  0  0  0  0  0  0
   54.3709  152.9821   24.4164 H   0  0  0  0  0  0  0  0  0  0  0  0
   54.0740  151.5400   26.4140 H   0  0  0  0  0  0  0  0  0  0  0  0
  1  2  2  0
  2  3  1  0
  3  4  1  0
  3  5  2  0
  5  6  1  0
  6  7  2  0
  7  8  1  0
  8  9  2  0
  9 10  1  0
 10 11  1  0
  9 12  1  0
 12 13  1  0
 13 14  1  0
 13 15  1  0
 12 16  2  0
  5 17  1  0
 17 18  1  0
 18 19  2  0
 19 20  1  0
 20 21  2  0
 21 22  1  0
 22 23  1  0
 22 24  2  0
 24  2  1  0
 16  6  1  0
 24 18  1  0
  4 25  1  0
  7 26  1  0
  8 27  1  0
 10 28  1  0
 10 29  1  0
 13 30  1  0
 16 31  1  0
 19 32  1  0
 20 33  1  0
 21 34  1  0
 23 35  1  0
M  END
>  <meeko>  (1) 
{"is_sidechain": [false], "free_energy": -10.616, "intermolecular_energy": -13.098, "internal_energy": -0.155}

$$$$
cand_019_out
     RDKit          3D

 35 37  0  0  0  0  0  0  0  0999 V2000
   52.5020  160.6740   30.5560 O   0  0  0  0  0  0  0  0  0  0  0  0
   51.7700  159.7050   30.3640 C   0  0  0  0  0  0  0  0  0  0  0  0
   52.2810  158.5030   29.6660 C   0  0  0  0  0  0  0  0  0  0  0  0
   53.5950  158.5350   29.2380 O   0  0  0  0  0  0  0  0  0  0  0  0
   51.4440  157.4670   29.4750 C   0  0  0  0  0  0  0  0  0  0  0  0
   51.8410  156.2220   28.7810 C   0  0  0  0  0  0  0  0  0  0  0  0
   51.5670  154.9600   29.3180 C   0  0  0  0  0  0  0  0  0  0  0  0
   51.9310  153.7970   28.6330 C   0  0  0  0  0  0  0  0  0  0  0  0
   52.5770  153.8670   27.3910 C   0  0  0  0  0  0  0  0  0  0  0  0
   52.9490  152.5930   26.6750 C   0  0  0  0  0  0  0  0  0  0  0  0
   51.9570  151.6600   26.7240 F   0  0  0  0  0  0  0  0  0  0  0  0
   52.8380  155.1320   26.8210 C   0  0  0  0  0  0  0  0  0  0  0  0
   53.5110  155.2630   25.4730 C   0  0  0  0  0  0  0  0  0  0  0  0
   52.6800  154.9360   24.4430 F   0  0  0  0  0  0  0  0  0  0  0  0
   53.9290  156.5350   25.2040 F   0  0  0  0  0  0  0  0  0  0  0  0
   52.4690  156.2920   27.5280 C   0  0  0  0  0  0  0  0  0  0  0  0
   50.1160  157.4560   29.8850 O   0  0  0  0  0  0  0  0  0  0  0  0
   49.6160  158.5530   30.5400 C   0  0  0  0  0  0  0  0  0  0  0  0
   48.2810  158.4960   30.9430 C   0  0  0  0  0  0  0  0  0  0  0  0
   47.7090  159.5790   31.6140 C   0  0  0  0  0  0  0  0  0  0  0  0
   48.4700  160.7190   31.8800 C   0  0  0  0  0  0  0  0  0  0  0  0
   49.8020  160.7730   31.4770 C   0  0  0  0  0  0  0  0  0  0  0  0
   50.4890  161.9190   31.7700 O   0  0  0  0  0  0  0  0  0  0  0  0
   50.3740  159.6890   30.8060 C   0  0  0  0  0  0  0  0  0  0  0  0
   54.2850  158.2950   29.8260 H   0  0  0  0  0  0  0  0  0  0  0  0
   51.0592  154.8817   30.2906 H   0  0  0  0  0  0  0  0  0  0  0  0
   51.7076  152.8145   29.0743 H   0  0  0  0  0  0  0  0  0  0  0  0
   53.1602  152.8288   25.6215 H   0  0  0  0  0  0  0  0  0  0  0  0
   53.8311  152.1709   27.1787 H   0  0  0  0  0  0  0  0  0  0  0  0
   54.3648  154.5730   25.5428 H   0  0  0  0  0  0  0  0  0  0  0  0
   52.6781  157.2779   27.0873 H   0  0  0  0  0  0  0  0  0  0  0  0
   47.6800  157.5991   30.7323 H   0  0  0  0  0  0  0  0  0  0  0  0
   46.6574  159.5338   31.9334 H   0  0  0  0  0  0  0  0  0  0  0  0
   48.0185  161.5726   32.4067 H   0  0  0  0  0  0  0  0  0  0  0  0
   51.4260  161.9150   31.7760 H   0  0  0  0  0  0  0  0  0  0  0  0
  1  2  2  0
  2  3  1  0
  3  4  1  0
  3  5  2  0
  5  6  1  0
  6  7  2  0
  7  8  1  0
  8  9  2  0
  9 10  1  0
 10 11  1  0
  9 12  1  0
 12 13  1  0
 13 14  1  0
 13 15  1  0
 12 16  2  0
  5 17  1  0
 17 18  1  0
 18 19  2  0
 19 20  1  0
 20 21  2  0
 21 22  1  0
 22 23  1  0
 22 24  2  0
 24  2  1  0
 16  6  1  0
 24 18  1  0
  4 25  1  0
  7 26  1  0
  8 27  1  0
 10 28  1  0
 10 29  1  0
 13 30  1  0
 16 31  1  0
 19 32  1  0
 20 33  1  0
 21 34  1  0
 23 35  1  0
M  END
>  <meeko>  (2) 
{"is_sidechain": [false], "free_energy": -10.476, "intermolecular_energy": -12.808, "internal_energy": -0.273}

$$$$
cand_019_out
     RDKit          3D

 35 37  0  0  0  0  0  0  0  0999 V2000
   52.4830  153.0260   28.8240 O   0  0  0  0  0  0  0  0  0  0  0  0
   52.4260  154.1960   28.4530 C   0  0  0  0  0  0  0  0  0  0  0  0
   51.7400  155.2140   29.2820 C   0  0  0  0  0  0  0  0  0  0  0  0
   51.1670  154.7810   30.4630 O   0  0  0  0  0  0  0  0  0  0  0  0
   51.6990  156.4830   28.8370 C   0  0  0  0  0  0  0  0  0  0  0  0
   51.0320  157.5790   29.5730 C   0  0  0  0  0  0  0  0  0  0  0  0
   49.7270  157.4530   30.0580 C   0  0  0  0  0  0  0  0  0  0  0  0
   49.1250  158.4940   30.7710 C   0  0  0  0  0  0  0  0  0  0  0  0
   49.8150  159.6880   31.0210 C   0  0  0  0  0  0  0  0  0  0  0  0
   49.1390  160.7880   31.8000 C   0  0  0  0  0  0  0  0  0  0  0  0
   48.5890  161.7360   30.9910 F   0  0  0  0  0  0  0  0  0  0  0  0
   51.1440  159.8230   30.5630 C   0  0  0  0  0  0  0  0  0  0  0  0
   51.9430  161.0810   30.8260 C   0  0  0  0  0  0  0  0  0  0  0  0
   52.3060  161.2010   32.1330 F   0  0  0  0  0  0  0  0  0  0  0  0
   53.1130  161.1290   30.1230 F   0  0  0  0  0  0  0  0  0  0  0  0
   51.7320  158.7660   29.8410 C   0  0  0  0  0  0  0  0  0  0  0  0
   52.2550  156.9020   27.6340 O   0  0  0  0  0  0  0  0  0  0  0  0
   52.9030  155.9830   26.8470 C   0  0  0  0  0  0  0  0  0  0  0  0
   53.4550  156.4480   25.6530 C   0  0  0  0  0  0  0  0  0  0  0  0
   54.1270  155.5640   24.8050 C   0  0  0  0  0  0  0  0  0  0  0  0
   54.2450  154.2170   25.1510 C   0  0  0  0  0  0  0  0  0  0  0  0
   53.6930  153.7550   26.3440 C   0  0  0  0  0  0  0  0  0  0  0  0
   53.8470  152.4240   26.6200 O   0  0  0  0  0  0  0  0  0  0  0  0
   53.0220  154.6400   27.1910 C   0  0  0  0  0  0  0  0  0  0  0  0
   51.6940  154.6870   31.2330 H   0  0  0  0  0  0  0  0  0  0  0  0
   49.1671  156.5237   29.8765 H   0  0  0  0  0  0  0  0  0  0  0  0
   48.0959  158.3744   31.1408 H   0  0  0  0  0  0  0  0  0  0  0  0
   48.3432  160.3457   32.4173 H   0  0  0  0  0  0  0  0  0  0  0  0
   49.9042  161.2790   32.4191 H   0  0  0  0  0  0  0  0  0  0  0  0
   51.2638  161.8889   30.5164 H   0  0  0  0  0  0  0  0  0  0  0  0
   52.7649  158.8733   29.4783 H   0  0  0  0  0  0  0  0  0  0  0  0
   53.3613  157.5093   25.3796 H   0  0  0  0  0  0  0  0  0  0  0  0
   54.5634  155.9299   23.8639 H   0  0  0  0  0  0  0  0  0  0  0  0
   54.7731  153.5210   24.4827 H   0  0  0  0  0  0  0  0  0  0  0  0
   53.1530  151.8240   26.4330 H   0  0  0  0  0  0  0  0  0  0  0  0
  1  2  2  0
  2  3  1  0
  3  4  1  0
  3  5  2  0
  5  6  1  0
  6  7  2  0
  7  8  1  0
  8  9  2  0
  9 10  1  0
 10 11  1  0
  9 12  1  0
 12 13  1  0
 13 14  1  0
 13 15  1  0
 12 16  2  0
  5 17  1  0
 17 18  1  0
 18 19  2  0
 19 20  1  0
 20 21  2  0
 21 22  1  0
 22 23  1  0
 22 24  2  0
 24  2  1  0
 16  6  1  0
 24 18  1  0
  4 25  1  0
  7 26  1  0
  8 27  1  0
 10 28  1  0
 10 29  1  0
 13 30  1  0
 16 31  1  0
 19 32  1  0
 20 33  1  0
 21 34  1  0
 23 35  1  0
M  END
>  <meeko>  (3) 
{"is_sidechain": [false], "free_energy": -10.445, "intermolecular_energy": -12.717, "internal_energy": -0.326}

$$$$
cand_019_out
     RDKit          3D

 35 37  0  0  0  0  0  0  0  0999 V2000
   48.0780  158.5090   30.7760 O   0  0  0  0  0  0  0  0  0  0  0  0
   49.2640  158.4400   30.4600 C   0  0  0  0  0  0  0  0  0  0  0  0
   49.7910  157.2370   29.7750 C   0  0  0  0  0  0  0  0  0  0  0  0
   48.8960  156.2110   29.5290 O   0  0  0  0  0  0  0  0  0  0  0  0
   51.0960  157.2030   29.4490 C   0  0  0  0  0  0  0  0  0  0  0  0
   51.7330  156.0510   28.7750 C   0  0  0  0  0  0  0  0  0  0  0  0
   51.6680  154.7590   29.3070 C   0  0  0  0  0  0  0  0  0  0  0  0
   52.2580  153.6810   28.6410 C   0  0  0  0  0  0  0  0  0  0  0  0
   52.9270  153.8670   27.4230 C   0  0  0  0  0  0  0  0  0  0  0  0
   53.5460  152.6810   26.7270 C   0  0  0  0  0  0  0  0  0  0  0  0
   52.6430  151.9910   25.9750 F   0  0  0  0  0  0  0  0  0  0  0  0
   52.9790  155.1590   26.8570 C   0  0  0  0  0  0  0  0  0  0  0  0
   53.6680  155.4120   25.5340 C   0  0  0  0  0  0  0  0  0  0  0  0
   52.9160  155.0070   24.4720 F   0  0  0  0  0  0  0  0  0  0  0  0
   53.9250  156.7340   25.3080 F   0  0  0  0  0  0  0  0  0  0  0  0
   52.3840  156.2340   27.5460 C   0  0  0  0  0  0  0  0  0  0  0  0
   51.9910  158.2290   29.7260 O   0  0  0  0  0  0  0  0  0  0  0  0
   51.5320  159.3590   30.3540 C   0  0  0  0  0  0  0  0  0  0  0  0
   52.4630  160.3680   30.6030 C   0  0  0  0  0  0  0  0  0  0  0  0
   52.0610  161.5450   31.2400 C   0  0  0  0  0  0  0  0  0  0  0  0
   50.7300  161.7110   31.6280 C   0  0  0  0  0  0  0  0  0  0  0  0
   49.8030  160.7020   31.3780 C   0  0  0  0  0  0  0  0  0  0  0  0
   48.5170  160.9310   31.7840 O   0  0  0  0  0  0  0  0  0  0  0  0
   50.2060  159.5260   30.7410 C   0  0  0  0  0  0  0  0  0  0  0  0
   48.1760  156.0680   30.1120 H   0  0  0  0  0  0  0  0  0  0  0  0
   51.1465  154.5893   30.2606 H   0  0  0  0  0  0  0  0  0  0  0  0
   52.1966  152.6735   29.0782 H   0  0  0  0  0  0  0  0  0  0  0  0
   54.3530  153.0382   26.0704 H   0  0  0  0  0  0  0  0  0  0  0  0
   53.9284  151.9995   27.5012 H   0  0  0  0  0  0  0  0  0  0  0  0
   54.6025  154.8373   25.6142 H   0  0  0  0  0  0  0  0  0  0  0  0
   52.4311  157.2425   27.1092 H   0  0  0  0  0  0  0  0  0  0  0  0
   53.5118  160.2371   30.2983 H   0  0  0  0  0  0  0  0  0  0  0  0
   52.7939  162.3416   31.4360 H   0  0  0  0  0  0  0  0  0  0  0  0
   50.4141  162.6372   32.1303 H   0  0  0  0  0  0  0  0  0  0  0  0
   47.8700  161.2010   31.1630 H   0  0  0  0  0  0  0  0  0  0  0  0
  1  2  2  0
  2  3  1  0
  3  4  1  0
  3  5  2  0
  5  6  1  0
  6  7  2  0
  7  8  1  0
  8  9  2  0
  9 10  1  0
 10 11  1  0
  9 12  1  0
 12 13  1  0
 13 14  1  0
 13 15  1  0
 12 16  2  0
  5 17  1  0
 17 18  1  0
 18 19  2  0
 19 20  1  0
 20 21  2  0
 21 22  1  0
 22 23  1  0
 22 24  2  0
 24  2  1  0
 16  6  1  0
 24 18  1  0
  4 25  1  0
  7 26  1  0
  8 27  1  0
 10 28  1  0
 10 29  1  0
 13 30  1  0
 16 31  1  0
 19 32  1  0
 20 33  1  0
 21 34  1  0
 23 35  1  0
M  END
>  <meeko>  (4) 
{"is_sidechain": [false], "free_energy": -9.439, "intermolecular_energy": -11.359, "internal_energy": -0.442}

$$$$
cand_019_out
     RDKit          3D

 35 37  0  0  0  0  0  0  0  0999 V2000
   52.3040  161.2690   31.4620 O   0  0  0  0  0  0  0  0  0  0  0  0
   51.6250  160.3420   31.0260 C   0  0  0  0  0  0  0  0  0  0  0  0
   52.2250  159.3260   30.1300 C   0  0  0  0  0  0  0  0  0  0  0  0
   53.5610  159.4850   29.8060 O   0  0  0  0  0  0  0  0  0  0  0  0
   51.4450  158.3290   29.6750 C   0  0  0  0  0  0  0  0  0  0  0  0
   51.9340  157.2690   28.7660 C   0  0  0  0  0  0  0  0  0  0  0  0
   52.5320  157.5690   27.5380 C   0  0  0  0  0  0  0  0  0  0  0  0
   53.0070  156.5510   26.7060 C   0  0  0  0  0  0  0  0  0  0  0  0
   52.8970  155.2050   27.0820 C   0  0  0  0  0  0  0  0  0  0  0  0
   53.4260  154.1320   26.1650 C   0  0  0  0  0  0  0  0  0  0  0  0
   52.9630  154.2640   24.8900 F   0  0  0  0  0  0  0  0  0  0  0  0
   52.3200  154.8850   28.3300 C   0  0  0  0  0  0  0  0  0  0  0  0
   52.1990  153.4500   28.7960 C   0  0  0  0  0  0  0  0  0  0  0  0
   51.6990  153.3550   30.0600 F   0  0  0  0  0  0  0  0  0  0  0  0
   51.3570  152.7050   28.0210 F   0  0  0  0  0  0  0  0  0  0  0  0
   51.8430  155.9230   29.1530 C   0  0  0  0  0  0  0  0  0  0  0  0
   50.0970  158.1960   29.9850 O   0  0  0  0  0  0  0  0  0  0  0  0
   49.5140  159.1170   30.8180 C   0  0  0  0  0  0  0  0  0  0  0  0
   48.1610  158.9390   31.1110 C   0  0  0  0  0  0  0  0  0  0  0  0
   47.5060  159.8420   31.9520 C   0  0  0  0  0  0  0  0  0  0  0  0
   48.2030  160.9220   32.4980 C   0  0  0  0  0  0  0  0  0  0  0  0
   49.5530  161.0970   32.2030 C   0  0  0  0  0  0  0  0  0  0  0  0
   50.1740  162.1750   32.7710 O   0  0  0  0  0  0  0  0  0  0  0  0
   50.2070  160.1930   31.3620 C   0  0  0  0  0  0  0  0  0  0  0  0
   53.8730  160.3140   29.5000 H   0  0  0  0  0  0  0  0  0  0  0  0
   52.6298  158.6184   27.2230 H   0  0  0  0  0  0  0  0  0  0  0  0
   53.4731  156.8095   25.7438 H   0  0  0  0  0  0  0  0  0  0  0  0
   54.5244  154.1901   26.1498 H   0  0  0  0  0  0  0  0  0  0  0  0
   53.0792  153.1614   26.5491 H   0  0  0  0  0  0  0  0  0  0  0  0
   53.2297  153.0704   28.7365 H   0  0  0  0  0  0  0  0  0  0  0  0
   51.3880  155.6730   30.1228 H   0  0  0  0  0  0  0  0  0  0  0  0
   47.6113  158.0890   30.6804 H   0  0  0  0  0  0  0  0  0  0  0  0
   46.4400  159.7022   32.1844 H   0  0  0  0  0  0  0  0  0  0  0  0
   47.6869  161.6331   33.1598 H   0  0  0  0  0  0  0  0  0  0  0  0
   50.2880  162.2150   33.7000 H   0  0  0  0  0  0  0  0  0  0  0  0
  1  2  2  0
  2  3  1  0
  3  4  1  0
  3  5  2  0
  5  6  1  0
  6  7  2  0
  7  8  1  0
  8  9  2  0
  9 10  1  0
 10 11  1  0
  9 12  1  0
 12 13  1  0
 13 14  1  0
 13 15  1  0
 12 16  2  0
  5 17  1  0
 17 18  1  0
 18 19  2  0
 19 20  1  0
 20 21  2  0
 21 22  1  0
 22 23  1  0
 22 24  2  0
 24  2  1  0
 16  6  1  0
 24 18  1  0
  4 25  1  0
  7 26  1  0
  8 27  1  0
 10 28  1  0
 10 29  1  0
 13 30  1  0
 16 31  1  0
 19 32  1  0
 20 33  1  0
 21 34  1  0
 23 35  1  0
M  END
>  <meeko>  (5) 
{"is_sidechain": [false], "free_energy": -8.867, "intermolecular_energy": -10.765, "internal_energy": -0.331}

$$$$
cand_019_out
     RDKit          3D

 35 37  0  0  0  0  0  0  0  0999 V2000
   48.4870  158.1450   31.2190 O   0  0  0  0  0  0  0  0  0  0  0  0
   49.5860  158.3140   30.6950 C   0  0  0  0  0  0  0  0  0  0  0  0
   50.1270  157.3160   29.7440 C   0  0  0  0  0  0  0  0  0  0  0  0
   49.3510  156.1990   29.4950 O   0  0  0  0  0  0  0  0  0  0  0  0
   51.3350  157.5400   29.1940 C   0  0  0  0  0  0  0  0  0  0  0  0
   51.9780  156.6080   28.2430 C   0  0  0  0  0  0  0  0  0  0  0  0
   52.7790  157.0650   27.1910 C   0  0  0  0  0  0  0  0  0  0  0  0
   53.3960  156.1640   26.3190 C   0  0  0  0  0  0  0  0  0  0  0  0
   53.2290  154.7810   26.4760 C   0  0  0  0  0  0  0  0  0  0  0  0
   53.9150  153.8370   25.5220 C   0  0  0  0  0  0  0  0  0  0  0  0
   53.3610  153.8640   24.2770 F   0  0  0  0  0  0  0  0  0  0  0  0
   52.4470  154.3010   27.5490 C   0  0  0  0  0  0  0  0  0  0  0  0
   52.2540  152.8180   27.7790 C   0  0  0  0  0  0  0  0  0  0  0  0
   51.5750  152.5560   28.9310 F   0  0  0  0  0  0  0  0  0  0  0  0
   51.5310  152.2120   26.7920 F   0  0  0  0  0  0  0  0  0  0  0  0
   51.8280  155.2230   28.4140 C   0  0  0  0  0  0  0  0  0  0  0  0
   52.1190  158.6540   29.4730 O   0  0  0  0  0  0  0  0  0  0  0  0
   51.6420  159.5990   30.3450 C   0  0  0  0  0  0  0  0  0  0  0  0
   52.4570  160.7060   30.5880 C   0  0  0  0  0  0  0  0  0  0  0  0
   52.0310  161.7050   31.4660 C   0  0  0  0  0  0  0  0  0  0  0  0
   50.7920  161.5970   32.1020 C   0  0  0  0  0  0  0  0  0  0  0  0
   49.9810  160.4910   31.8570 C   0  0  0  0  0  0  0  0  0  0  0  0
   48.7810  160.4500   32.5130 O   0  0  0  0  0  0  0  0  0  0  0  0
   50.4070  159.4930   30.9790 C   0  0  0  0  0  0  0  0  0  0  0  0
   48.5100  156.2930   29.0930 H   0  0  0  0  0  0  0  0  0  0  0  0
   52.9248  158.1460   27.0486 H   0  0  0  0  0  0  0  0  0  0  0  0
   54.0213  156.5452   25.4982 H   0  0  0  0  0  0  0  0  0  0  0  0
   54.9745  154.1220   25.4436 H   0  0  0  0  0  0  0  0  0  0  0  0
   53.8005  152.8173   25.9183 H   0  0  0  0  0  0  0  0  0  0  0  0
   53.2811  152.4255   27.8126 H   0  0  0  0  0  0  0  0  0  0  0  0
   51.2114  154.8488   29.2445 H   0  0  0  0  0  0  0  0  0  0  0  0
   53.4334  160.7913   30.0886 H   0  0  0  0  0  0  0  0  0  0  0  0
   52.6721  162.5782   31.6570 H   0  0  0  0  0  0  0  0  0  0  0  0
   50.4574  162.3833   32.7946 H   0  0  0  0  0  0  0  0  0  0  0  0
   48.0630  159.9740   32.1460 H   0  0  0  0  0  0  0  0  0  0  0  0
  1  2  2  0
  2  3  1  0
  3  4  1  0
  3  5  2  0
  5  6  1  0
  6  7  2  0
  7  8  1  0
  8  9  2  0
  9 10  1  0
 10 11  1  0
  9 12  1  0
 12 13  1  0
 13 14  1  0
 13 15  1  0
 12 16  2  0
  5 17  1  0
 17 18  1  0
 18 19  2  0
 19 20  1  0
 20 21  2  0
 21 22  1  0
 22 23  1  0
 22 24  2  0
 24  2  1  0
 16  6  1  0
 24 18  1  0
  4 25  1  0
  7 26  1  0
  8 27  1  0
 10 28  1  0
 10 29  1  0
 13 30  1  0
 16 31  1  0
 19 32  1  0
 20 33  1  0
 21 34  1  0
 23 35  1  0
M  END
>  <meeko>  (6) 
{"is_sidechain": [false], "free_energy": -8.442, "intermolecular_energy": -10.468, "internal_energy": -0.102}

$$$$
cand_019_out
     RDKit          3D

 35 37  0  0  0  0  0  0  0  0999 V2000
   54.6980  155.2250   24.8160 O   0  0  0  0  0  0  0  0  0  0  0  0
   53.8630  154.7790   25.6000 C   0  0  0  0  0  0  0  0  0  0  0  0
   53.1280  155.6850   26.5120 C   0  0  0  0  0  0  0  0  0  0  0  0
   53.4390  157.0310   26.4460 O   0  0  0  0  0  0  0  0  0  0  0  0
   52.2230  155.1540   27.3550 C   0  0  0  0  0  0  0  0  0  0  0  0
   51.4410  155.9610   28.3170 C   0  0  0  0  0  0  0  0  0  0  0  0
   50.3050  155.4510   28.9530 C   0  0  0  0  0  0  0  0  0  0  0  0
   49.5940  156.2230   29.8760 C   0  0  0  0  0  0  0  0  0  0  0  0
   50.0040  157.5270   30.1900 C   0  0  0  0  0  0  0  0  0  0  0  0
   49.2190  158.3300   31.1960 C   0  0  0  0  0  0  0  0  0  0  0  0
   48.0550  158.8150   30.6800 F   0  0  0  0  0  0  0  0  0  0  0  0
   51.1650  158.0480   29.5780 C   0  0  0  0  0  0  0  0  0  0  0  0
   51.6640  159.4400   29.8990 C   0  0  0  0  0  0  0  0  0  0  0  0
   50.7980  160.4090   29.4920 F   0  0  0  0  0  0  0  0  0  0  0  0
   51.8370  159.6520   31.2370 F   0  0  0  0  0  0  0  0  0  0  0  0
   51.8640  157.2580   28.6470 C   0  0  0  0  0  0  0  0  0  0  0  0
   51.9390  153.7960   27.4320 O   0  0  0  0  0  0  0  0  0  0  0  0
   52.5990  152.9320   26.5950 C   0  0  0  0  0  0  0  0  0  0  0  0
   52.2750  151.5780   26.7000 C   0  0  0  0  0  0  0  0  0  0  0  0
   52.9110  150.6450   25.8770 C   0  0  0  0  0  0  0  0  0  0  0  0
   53.8700  151.0650   24.9530 C   0  0  0  0  0  0  0  0  0  0  0  0
   54.1900  152.4170   24.8510 C   0  0  0  0  0  0  0  0  0  0  0  0
   55.1370  152.7580   23.9250 O   0  0  0  0  0  0  0  0  0  0  0  0
   53.5540  153.3490   25.6740 C   0  0  0  0  0  0  0  0  0  0  0  0
   53.1090  157.5540   25.7410 H   0  0  0  0  0  0  0  0  0  0  0  0
   49.9667  154.4296   28.7241 H   0  0  0  0  0  0  0  0  0  0  0  0
   48.7015  155.8025   30.3624 H   0  0  0  0  0  0  0  0  0  0  0  0
   48.9827  157.6854   32.0554 H   0  0  0  0  0  0  0  0  0  0  0  0
   49.8371  159.1896   31.4943 H   0  0  0  0  0  0  0  0  0  0  0  0
   52.6228  159.5007   29.3633 H   0  0  0  0  0  0  0  0  0  0  0  0
   52.7646  157.6670   28.1657 H   0  0  0  0  0  0  0  0  0  0  0  0
   51.5208  151.2465   27.4289 H   0  0  0  0  0  0  0  0  0  0  0  0
   52.6558  149.5780   25.9571 H   0  0  0  0  0  0  0  0  0  0  0  0
   54.3718  150.3297   24.3069 H   0  0  0  0  0  0  0  0  0  0  0  0
   55.3060  152.1930   23.1970 H   0  0  0  0  0  0  0  0  0  0  0  0
  1  2  2  0
  2  3  1  0
  3  4  1  0
  3  5  2  0
  5  6  1  0
  6  7  2  0
  7  8  1  0
  8  9  2  0
  9 10  1  0
 10 11  1  0
  9 12  1  0
 12 13  1  0
 13 14  1  0
 13 15  1  0
 12 16  2  0
  5 17  1  0
 17 18  1  0
 18 19  2  0
 19 20  1  0
 20 21  2  0
 21 22  1  0
 22 23  1  0
 22 24  2  0
 24  2  1  0
 16  6  1  0
 24 18  1  0
  4 25  1  0
  7 26  1  0
  8 27  1  0
 10 28  1  0
 10 29  1  0
 13 30  1  0
 16 31  1  0
 19 32  1  0
 20 33  1  0
 21 34  1  0
 23 35  1  0
M  END
>  <meeko>  (7) 
{"is_sidechain": [false], "free_energy": -8.201, "intermolecular_energy": -10.547, "internal_energy": 0.273}

$$$$
cand_019_out
     RDKit          3D

 35 37  0  0  0  0  0  0  0  0999 V2000
   54.6750  154.7510   24.2220 O   0  0  0  0  0  0  0  0  0  0  0  0
   53.9670  154.5320   25.2030 C   0  0  0  0  0  0  0  0  0  0  0  0
   53.5440  155.6420   26.0880 C   0  0  0  0  0  0  0  0  0  0  0  0
   53.9930  156.9090   25.7650 O   0  0  0  0  0  0  0  0  0  0  0  0
   52.7710  155.3570   27.1510 C   0  0  0  0  0  0  0  0  0  0  0  0
   52.3000  156.3810   28.1080 C   0  0  0  0  0  0  0  0  0  0  0  0
   53.0730  157.5010   28.4290 C   0  0  0  0  0  0  0  0  0  0  0  0
   52.5980  158.4680   29.3190 C   0  0  0  0  0  0  0  0  0  0  0  0
   51.3330  158.3420   29.9110 C   0  0  0  0  0  0  0  0  0  0  0  0
   50.8470  159.4070   30.8600 C   0  0  0  0  0  0  0  0  0  0  0  0
   50.3670  160.5040   30.2090 F   0  0  0  0  0  0  0  0  0  0  0  0
   50.5270  157.2320   29.5780 C   0  0  0  0  0  0  0  0  0  0  0  0
   49.1450  157.0580   30.1690 C   0  0  0  0  0  0  0  0  0  0  0  0
   48.3540  158.1490   29.9680 F   0  0  0  0  0  0  0  0  0  0  0  0
   48.4570  156.0120   29.6250 F   0  0  0  0  0  0  0  0  0  0  0  0
   51.0250  156.2650   28.6840 C   0  0  0  0  0  0  0  0  0  0  0  0
   52.3480  154.0750   27.4810 O   0  0  0  0  0  0  0  0  0  0  0  0
   52.7180  153.0270   26.6770 C   0  0  0  0  0  0  0  0  0  0  0  0
   52.2640  151.7580   27.0400 C   0  0  0  0  0  0  0  0  0  0  0  0
   52.6050  150.6470   26.2650 C   0  0  0  0  0  0  0  0  0  0  0  0
   53.4020  150.8050   25.1280 C   0  0  0  0  0  0  0  0  0  0  0  0
   53.8540  152.0730   24.7690 C   0  0  0  0  0  0  0  0  0  0  0  0
   54.6290  152.1550   23.6450 O   0  0  0  0  0  0  0  0  0  0  0  0
   53.5120  153.1830   25.5450 C   0  0  0  0  0  0  0  0  0  0  0  0
   54.5630  157.0320   25.0310 H   0  0  0  0  0  0  0  0  0  0  0  0
   54.0676  157.6225   27.9752 H   0  0  0  0  0  0  0  0  0  0  0  0
   53.2248  159.3397   29.5584 H   0  0  0  0  0  0  0  0  0  0  0  0
   50.0435  158.9858   31.4820 H   0  0  0  0  0  0  0  0  0  0  0  0
   51.7037  159.7279   31.4708 H   0  0  0  0  0  0  0  0  0  0  0  0
   49.3404  156.8874   31.2380 H   0  0  0  0  0  0  0  0  0  0  0  0
   50.3992  155.3966   28.4304 H   0  0  0  0  0  0  0  0  0  0  0  0
   51.6381  151.6329   27.9358 H   0  0  0  0  0  0  0  0  0  0  0  0
   52.2459  149.6470   26.5499 H   0  0  0  0  0  0  0  0  0  0  0  0
   53.6718  149.9303   24.5180 H   0  0  0  0  0  0  0  0  0  0  0  0
   54.9110  152.9910   23.3300 H   0  0  0  0  0  0  0  0  0  0  0  0
  1  2  2  0
  2  3  1  0
  3  4  1  0
  3  5  2  0
  5  6  1  0
  6  7  2  0
  7  8  1  0
  8  9  2  0
  9 10  1  0
 10 11  1  0
  9 12  1  0
 12 13  1  0
 13 14  1  0
 13 15  1  0
 12 16  2  0
  5 17  1  0
 17 18  1  0
 18 19  2  0
 19 20  1  0
 20 21  2  0
 21 22  1  0
 22 23  1  0
 22 24  2  0
 24  2  1  0
 16  6  1  0
 24 18  1  0
  4 25  1  0
  7 26  1  0
  8 27  1  0
 10 28  1  0
 10 29  1  0
 13 30  1  0
 16 31  1  0
 19 32  1  0
 20 33  1  0
 21 34  1  0
 23 35  1  0
M  END
>  <meeko>  (8) 
{"is_sidechain": [false], "free_energy": -7.911, "intermolecular_energy": -9.907, "internal_energy": -0.009}

$$$$
