cand_055_out
     RDKit          3D

 41 43  0  0  0  0  0  0  0  0999 V2000
   48.7110  161.5180   33.6930 C   0  0  0  0  0  0  0  0  0  0  0  0
   50.0280  161.1480   33.0300 C   0  0  0  0  0  0  0  0  0  0  0  0
   49.9390  161.2670   31.5080 C   0  0  0  0  0  0  0  0  0  0  0  0
   50.4080  160.0060   30.8160 C   0  0  0  0  0  0  0  0  0  0  0  0
   51.7290  159.9580   30.3410 C   0  0  0  0  0  0  0  0  0  0  0  0
   52.2170  158.8250   29.6860 C   0  0  0  0  0  0  0  0  0  0  0  0
   51.4010  157.7070   29.4920 C   0  0  0  0  0  0  0  0  0  0  0  0
   51.8850  156.5040   28.7800 C   0  0  0  0  0  0  0  0  0  0  0  0
   52.4480  156.7980   27.5440 O   0  0  0  0  0  0  0  0  0  0  0  0
   52.9380  155.7720   26.7770 C   0  0  0  0  0  0  0  0  0  0  0  0
   53.5080  156.1140   25.5500 C   0  0  0  0  0  0  0  0  0  0  0  0
   54.0250  155.1170   24.7190 C   0  0  0  0  0  0  0  0  0  0  0  0
   53.9700  153.7790   25.1150 C   0  0  0  0  0  0  0  0  0  0  0  0
   53.4020  153.4410   26.3400 C   0  0  0  0  0  0  0  0  0  0  0  0
   53.3800  152.1120   26.6650 O   0  0  0  0  0  0  0  0  0  0  0  0
   52.8850  154.4390   27.1710 C   0  0  0  0  0  0  0  0  0  0  0  0
   52.2790  154.1260   28.4660 C   0  0  0  0  0  0  0  0  0  0  0  0
   52.1880  152.9720   28.8800 O   0  0  0  0  0  0  0  0  0  0  0  0
   51.7680  155.2570   29.2740 C   0  0  0  0  0  0  0  0  0  0  0  0
   51.1860  154.9480   30.4900 O   0  0  0  0  0  0  0  0  0  0  0  0
   50.0770  157.7600   29.9530 C   0  0  0  0  0  0  0  0  0  0  0  0
   49.5660  158.8970   30.6080 C   0  0  0  0  0  0  0  0  0  0  0  0
   48.1420  158.8770   31.0910 C   0  0  0  0  0  0  0  0  0  0  0  0
   48.8288  161.4849   34.7862 H   0  0  0  0  0  0  0  0  0  0  0  0
   48.4185  162.5331   33.3863 H   0  0  0  0  0  0  0  0  0  0  0  0
   47.9327  160.8038   33.3863 H   0  0  0  0  0  0  0  0  0  0  0  0
   50.8153  161.8232   33.3964 H   0  0  0  0  0  0  0  0  0  0  0  0
   50.2613  160.1031   33.2826 H   0  0  0  0  0  0  0  0  0  0  0  0
   48.8931  161.4592   31.2267 H   0  0  0  0  0  0  0  0  0  0  0  0
   50.5926  162.0932   31.1915 H   0  0  0  0  0  0  0  0  0  0  0  0
   52.3891  160.8257   30.4871 H   0  0  0  0  0  0  0  0  0  0  0  0
   53.2540  158.8125   29.3192 H   0  0  0  0  0  0  0  0  0  0  0  0
   53.5502  157.1678   25.2373 H   0  0  0  0  0  0  0  0  0  0  0  0
   54.4756  155.3861   23.7523 H   0  0  0  0  0  0  0  0  0  0  0  0
   54.3749  152.9935   24.4600 H   0  0  0  0  0  0  0  0  0  0  0  0
   53.6820  151.8300   27.5060 H   0  0  0  0  0  0  0  0  0  0  0  0
   50.7830  154.1120   30.6170 H   0  0  0  0  0  0  0  0  0  0  0  0
   49.4209  156.8906   29.7988 H   0  0  0  0  0  0  0  0  0  0  0  0
   48.1279  158.8768   32.1909 H   0  0  0  0  0  0  0  0  0  0  0  0
   47.6156  159.7678   30.7177 H   0  0  0  0  0  0  0  0  0  0  0  0
   47.6409  157.9717   30.7177 H   0  0  0  0  0  0  0  0  0  0  0  0
  1  2  1  0
  2  3  1  0
  3  4  1  0
  4  5  2  0
  5  6  1  0
  6  7  2  0
  7  8  1  0
  8  9  1  0
  9 10  1  0
 10 11  2  0
 11 12  1  0
 12 13  2  0
 13 14  1  0
 14 15  1  0
 14 16  2  0
 16 17  1  0
 17 18  2  0
 17 19  1  0
 19 20  1  0
  7 21  1  0
 21 22  2  0
 22 23  1  0
 22  4  1  0
 19  8  2  0
 16 10  1  0
  1 24  1  0
  1 25  1  0
  1 26  1  0
  2 27  1  0
  2 28  1  0
  3 29  1  0
  3 30  1  0
  5 31  1  0
  6 32  1  0
 11 33  1  0
 12 34  1  0
 13 35  1  0
 15 36  1  0
 20 37  1  0
 21 38  1  0
 23 39  1  0
 23 40  1  0
 23 41  1  0
M  END
>  <meeko>  (1) 
{"is_sidechain": [false], "free_energy": -10.852, "intermolecular_energy": -13.389, "internal_energy": -0.321}

$$$$
cand_055_out
     RDKit          3D

 41 43  0  0  0  0  0  0  0  0999 V2000
   46.9300  159.8870   31.4620 C   0  0  0  0  0  0  0  0  0  0  0  0
   48.1580  160.6350   30.9690 C   0  0  0  0  0  0  0  0  0  0  0  0
   49.4330  160.1140   31.6340 C   0  0  0  0  0  0  0  0  0  0  0  0
   50.1570  159.1150   30.7570 C   0  0  0  0  0  0  0  0  0  0  0  0
   49.5380  157.8800   30.5020 C   0  0  0  0  0  0  0  0  0  0  0  0
   50.1600  156.9140   29.7080 C   0  0  0  0  0  0  0  0  0  0  0  0
   51.4150  157.1560   29.1420 C   0  0  0  0  0  0  0  0  0  0  0  0
   52.1070  156.1420   28.3180 C   0  0  0  0  0  0  0  0  0  0  0  0
   52.6590  156.6740   27.1580 O   0  0  0  0  0  0  0  0  0  0  0  0
   53.3310  155.8410   26.3010 C   0  0  0  0  0  0  0  0  0  0  0  0
   53.8820  156.4200   25.1560 C   0  0  0  0  0  0  0  0  0  0  0  0
   54.5770  155.6280   24.2400 C   0  0  0  0  0  0  0  0  0  0  0  0
   54.7210  154.2580   24.4680 C   0  0  0  0  0  0  0  0  0  0  0  0
   54.1710  153.6830   25.6110 C   0  0  0  0  0  0  0  0  0  0  0  0
   54.3480  152.3360   25.7710 O   0  0  0  0  0  0  0  0  0  0  0  0
   53.4760  154.4760   26.5270 C   0  0  0  0  0  0  0  0  0  0  0  0
   52.8820  153.9120   27.7400 C   0  0  0  0  0  0  0  0  0  0  0  0
   52.9600  152.7140   28.0070 O   0  0  0  0  0  0  0  0  0  0  0  0
   52.1720  154.8390   28.6510 C   0  0  0  0  0  0  0  0  0  0  0  0
   51.6040  154.2920   29.7870 O   0  0  0  0  0  0  0  0  0  0  0  0
   52.0400  158.3840   29.4090 C   0  0  0  0  0  0  0  0  0  0  0  0
   51.4310  159.3660   30.2130 C   0  0  0  0  0  0  0  0  0  0  0  0
   52.1530  160.6660   30.4420 C   0  0  0  0  0  0  0  0  0  0  0  0
   46.9211  159.8815   32.5619 H   0  0  0  0  0  0  0  0  0  0  0  0
   46.0229  160.3861   31.0904 H   0  0  0  0  0  0  0  0  0  0  0  0
   46.9574  158.8520   31.0904 H   0  0  0  0  0  0  0  0  0  0  0  0
   48.2433  160.5046   29.8801 H   0  0  0  0  0  0  0  0  0  0  0  0
   48.0426  161.6981   31.2269 H   0  0  0  0  0  0  0  0  0  0  0  0
   50.1028  160.9633   31.8339 H   0  0  0  0  0  0  0  0  0  0  0  0
   49.1486  159.6063   32.5674 H   0  0  0  0  0  0  0  0  0  0  0  0
   48.5484  157.6706   30.9343 H   0  0  0  0  0  0  0  0  0  0  0  0
   49.6571  155.9527   29.5261 H   0  0  0  0  0  0  0  0  0  0  0  0
   53.7686  157.4992   24.9758 H   0  0  0  0  0  0  0  0  0  0  0  0
   55.0115  156.0837   23.3380 H   0  0  0  0  0  0  0  0  0  0  0  0
   55.2680  153.6339   23.7460 H   0  0  0  0  0  0  0  0  0  0  0  0
   54.0380  151.9110   26.5460 H   0  0  0  0  0  0  0  0  0  0  0  0
   50.8340  154.6760   30.1570 H   0  0  0  0  0  0  0  0  0  0  0  0
   53.0322  158.5844   28.9785 H   0  0  0  0  0  0  0  0  0  0  0  0
   52.2523  160.8448   31.5228 H   0  0  0  0  0  0  0  0  0  0  0  0
   53.1525  160.6157   29.9853 H   0  0  0  0  0  0  0  0  0  0  0  0
   51.5821  161.4879   29.9853 H   0  0  0  0  0  0  0  0  0  0  0  0
  1  2  1  0
  2  3  1  0
  3  4  1  0
  4  5  2  0
  5  6  1  0
  6  7  2  0
  7  8  1  0
  8  9  1  0
  9 10  1  0
 10 11  2  0
 11 12  1  0
 12 13  2  0
 13 14  1  0
 14 15  1  0
 14 16  2  0
 16 17  1  0
 17 18  2  0
 17 19  1  0
 19 20  1  0
  7 21  1  0
 21 22  2  0
 22 23  1  0
 22  4  1  0
 19  8  2  0
 16 10  1  0
  1 24  1  0
  1 25  1  0
  1 26  1  0
  2 27  1  0
  2 28  1  0
  3 29  1  0
  3 30  1  0
  5 31  1  0
  6 32  1  0
 11 33  1  0
 12 34  1  0
 13 35  1  0
 15 36  1  0
 20 37  1  0
 21 38  1  0
 23 39  1  0
 23 40  1  0
 23 41  1  0
M  END
>  <meeko>  (2) 
{"is_sidechain": [false], "free_energy": -10.288, "intermolecular_energy": -12.846, "internal_energy": -0.168}

$$$$
cand_055_out
     RDKit          3D

 41 43  0  0  0  0  0  0  0  0999 V2000
   54.3280  151.1320   24.8060 C   0  0  0  0  0  0  0  0  0  0  0  0
   54.1310  152.1400   25.9260 C   0  0  0  0  0  0  0  0  0  0  0  0
   52.6560  152.2670   26.3100 C   0  0  0  0  0  0  0  0  0  0  0  0
   52.3740  153.5630   27.0370 C   0  0  0  0  0  0  0  0  0  0  0  0
   51.9160  153.4980   28.3640 C   0  0  0  0  0  0  0  0  0  0  0  0
   51.6290  154.6590   29.0850 C   0  0  0  0  0  0  0  0  0  0  0  0
   51.7960  155.9190   28.5030 C   0  0  0  0  0  0  0  0  0  0  0  0
   51.4770  157.1630   29.2350 C   0  0  0  0  0  0  0  0  0  0  0  0
   50.1630  157.2000   29.6900 O   0  0  0  0  0  0  0  0  0  0  0  0
   49.7330  158.3000   30.3870 C   0  0  0  0  0  0  0  0  0  0  0  0
   48.4120  158.2880   30.8380 C   0  0  0  0  0  0  0  0  0  0  0  0
   47.9100  159.3780   31.5520 C   0  0  0  0  0  0  0  0  0  0  0  0
   48.7280  160.4790   31.8140 C   0  0  0  0  0  0  0  0  0  0  0  0
   50.0450  160.4880   31.3640 C   0  0  0  0  0  0  0  0  0  0  0  0
   50.7900  161.5980   31.6550 O   0  0  0  0  0  0  0  0  0  0  0  0
   50.5470  159.3970   30.6500 C   0  0  0  0  0  0  0  0  0  0  0  0
   51.9260  159.3670   30.1580 C   0  0  0  0  0  0  0  0  0  0  0  0
   52.7040  160.3000   30.3430 O   0  0  0  0  0  0  0  0  0  0  0  0
   52.3630  158.1600   29.4180 C   0  0  0  0  0  0  0  0  0  0  0  0
   53.6630  158.1480   28.9470 O   0  0  0  0  0  0  0  0  0  0  0  0
   52.2380  155.9850   27.1730 C   0  0  0  0  0  0  0  0  0  0  0  0
   52.5250  154.8240   26.4290 C   0  0  0  0  0  0  0  0  0  0  0  0
   53.0110  154.9720   25.0130 C   0  0  0  0  0  0  0  0  0  0  0  0
   54.5221  150.1386   25.2367 H   0  0  0  0  0  0  0  0  0  0  0  0
   53.4208  151.0916   24.1853 H   0  0  0  0  0  0  0  0  0  0  0  0
   55.1837  151.4361   24.1853 H   0  0  0  0  0  0  0  0  0  0  0  0
   54.7031  151.8127   26.8067 H   0  0  0  0  0  0  0  0  0  0  0  0
   54.4827  153.1211   25.5743 H   0  0  0  0  0  0  0  0  0  0  0  0
   52.0458  152.2318   25.3955 H   0  0  0  0  0  0  0  0  0  0  0  0
   52.4057  151.4352   26.9848 H   0  0  0  0  0  0  0  0  0  0  0  0
   51.7814  152.5167   28.8425 H   0  0  0  0  0  0  0  0  0  0  0  0
   51.2680  154.5813   30.1211 H   0  0  0  0  0  0  0  0  0  0  0  0
   47.7673  157.4210   30.6312 H   0  0  0  0  0  0  0  0  0  0  0  0
   46.8694  159.3694   31.9083 H   0  0  0  0  0  0  0  0  0  0  0  0
   48.3320  161.3381   32.3753 H   0  0  0  0  0  0  0  0  0  0  0  0
   50.3890  162.4460   31.6490 H   0  0  0  0  0  0  0  0  0  0  0  0
   54.2350  158.8660   29.1330 H   0  0  0  0  0  0  0  0  0  0  0  0
   52.3637  156.9695   26.6988 H   0  0  0  0  0  0  0  0  0  0  0  0
   54.0633  155.2924   25.0181 H   0  0  0  0  0  0  0  0  0  0  0  0
   52.9242  154.0067   24.4928 H   0  0  0  0  0  0  0  0  0  0  0  0
   52.4009  155.7251   24.4928 H   0  0  0  0  0  0  0  0  0  0  0  0
  1  2  1  0
  2  3  1  0
  3  4  1  0
  4  5  2  0
  5  6  1  0
  6  7  2  0
  7  8  1  0
  8  9  1  0
  9 10  1  0
 10 11  2  0
 11 12  1  0
 12 13  2  0
 13 14  1  0
 14 15  1  0
 14 16  2  0
 16 17  1  0
 17 18  2  0
 17 19  1  0
 19 20  1  0
  7 21  1  0
 21 22  2  0
 22 23  1  0
 22  4  1  0
 19  8  2  0
 16 10  1  0
  1 24  1  0
  1 25  1  0
  1 26  1  0
  2 27  1  0
  2 28  1  0
  3 29  1  0
  3 30  1  0
  5 31  1  0
  6 32  1  0
 11 33  1  0
 12 34  1  0
 13 35  1  0
 15 36  1  0
 20 37  1  0
 21 38  1  0
 23 39  1  0
 23 40  1  0
 23 41  1  0
M  END
>  <meeko>  (3) 
{"is_sidechain": [false], "free_energy": -9.965, "intermolecular_energy": -12.554, "internal_energy": -0.062}

$$$$
cand_055_out
     RDKit          3D

 41 43  0  0  0  0  0  0  0  0999 V2000
   52.2430  161.5850   31.6340 C   0  0  0  0  0  0  0  0  0  0  0  0
   51.7790  160.8410   30.3920 C   0  0  0  0  0  0  0  0  0  0  0  0
   50.8630  159.6700   30.7530 C   0  0  0  0  0  0  0  0  0  0  0  0
   51.2090  158.4230   29.9700 C   0  0  0  0  0  0  0  0  0  0  0  0
   52.4820  158.3370   29.3820 C   0  0  0  0  0  0  0  0  0  0  0  0
   52.8570  157.2150   28.6390 C   0  0  0  0  0  0  0  0  0  0  0  0
   51.9730  156.1460   28.4670 C   0  0  0  0  0  0  0  0  0  0  0  0
   52.3360  154.9570   27.6660 C   0  0  0  0  0  0  0  0  0  0  0  0
   53.0580  155.2760   26.5220 O   0  0  0  0  0  0  0  0  0  0  0  0
   53.4590  154.2660   25.6870 C   0  0  0  0  0  0  0  0  0  0  0  0
   54.1940  154.6310   24.5570 C   0  0  0  0  0  0  0  0  0  0  0  0
   54.6330  153.6510   23.6640 C   0  0  0  0  0  0  0  0  0  0  0  0
   54.3350  152.3070   23.8990 C   0  0  0  0  0  0  0  0  0  0  0  0
   53.6020  151.9460   25.0270 C   0  0  0  0  0  0  0  0  0  0  0  0
   53.3450  150.6130   25.1950 O   0  0  0  0  0  0  0  0  0  0  0  0
   53.1650  152.9270   25.9200 C   0  0  0  0  0  0  0  0  0  0  0  0
   52.3910  152.5890   27.1160 C   0  0  0  0  0  0  0  0  0  0  0  0
   52.0840  151.4310   27.3880 O   0  0  0  0  0  0  0  0  0  0  0  0
   51.9810  153.7030   28.0040 C   0  0  0  0  0  0  0  0  0  0  0  0
   51.2400  153.3730   29.1240 O   0  0  0  0  0  0  0  0  0  0  0  0
   50.6960  156.2380   29.0420 C   0  0  0  0  0  0  0  0  0  0  0  0
   50.2990  157.3640   29.7870 C   0  0  0  0  0  0  0  0  0  0  0  0
   48.9210  157.3870   30.3880 C   0  0  0  0  0  0  0  0  0  0  0  0
   51.9066  161.0456   32.5317 H   0  0  0  0  0  0  0  0  0  0  0  0
   53.3412  161.6486   31.6345 H   0  0  0  0  0  0  0  0  0  0  0  0
   51.8170  162.5992   31.6345 H   0  0  0  0  0  0  0  0  0  0  0  0
   51.2299  161.5377   29.7416 H   0  0  0  0  0  0  0  0  0  0  0  0
   52.6648  160.4417   29.8762 H   0  0  0  0  0  0  0  0  0  0  0  0
   50.9657  159.4558   31.8270 H   0  0  0  0  0  0  0  0  0  0  0  0
   49.8302  159.9546   30.5032 H   0  0  0  0  0  0  0  0  0  0  0  0
   53.1942  159.1657   29.5086 H   0  0  0  0  0  0  0  0  0  0  0  0
   53.8579  157.1724   28.1848 H   0  0  0  0  0  0  0  0  0  0  0  0
   54.4270  155.6897   24.3704 H   0  0  0  0  0  0  0  0  0  0  0  0
   55.2138  153.9379   22.7750 H   0  0  0  0  0  0  0  0  0  0  0  0
   54.6785  151.5350   23.1947 H   0  0  0  0  0  0  0  0  0  0  0  0
   53.5990  150.0000   24.5330 H   0  0  0  0  0  0  0  0  0  0  0  0
   51.5240  153.6520   29.9720 H   0  0  0  0  0  0  0  0  0  0  0  0
   49.9868  155.4081   28.9068 H   0  0  0  0  0  0  0  0  0  0  0  0
   48.9994  157.3857   31.4852 H   0  0  0  0  0  0  0  0  0  0  0  0
   48.3927  158.2941   30.0593 H   0  0  0  0  0  0  0  0  0  0  0  0
   48.3627  156.4980   30.0593 H   0  0  0  0  0  0  0  0  0  0  0  0
  1  2  1  0
  2  3  1  0
  3  4  1  0
  4  5  2  0
  5  6  1  0
  6  7  2  0
  7  8  1  0
  8  9  1  0
  9 10  1  0
 10 11  2  0
 11 12  1  0
 12 13  2  0
 13 14  1  0
 14 15  1  0
 14 16  2  0
 16 17  1  0
 17 18  2  0
 17 19  1  0
 19 20  1  0
  7 21  1  0
 21 22  2  0
 22 23  1  0
 22  4  1  0
 19  8  2  0
 16 10  1  0
  1 24  1  0
  1 25  1  0
  1 26  1  0
  2 27  1  0
  2 28  1  0
  3 29  1  0
  3 30  1  0
  5 31  1  0
  6 32  1  0
 11 33  1  0
 12 34  1  0
 13 35  1  0
 15 36  1  0
 20 37  1  0
 21 38  1  0
 23 39  1  0
 23 40  1  0
 23 41  1  0
M  END
>  <meeko>  (4) 
{"is_sidechain": [false], "free_energy": -9.174, "intermolecular_energy": -11.49, "internal_energy": -0.151}

$$$$
cand_055_out
     RDKit          3D

 41 43  0  0  0  0  0  0  0  0999 V2000
   53.3720  150.9810   25.5130 C   0  0  0  0  0  0  0  0  0  0  0  0
   52.6920  152.1210   26.2540 C   0  0  0  0  0  0  0  0  0  0  0  0
   53.6170  153.3330   26.3820 C   0  0  0  0  0  0  0  0  0  0  0  0
   52.9750  154.4490   27.1760 C   0  0  0  0  0  0  0  0  0  0  0  0
   52.2740  154.1160   28.3460 C   0  0  0  0  0  0  0  0  0  0  0  0
   51.6520  155.1020   29.1170 C   0  0  0  0  0  0  0  0  0  0  0  0
   51.7170  156.4460   28.7420 C   0  0  0  0  0  0  0  0  0  0  0  0
   51.0470  157.5070   29.5260 C   0  0  0  0  0  0  0  0  0  0  0  0
   51.8930  158.5660   29.8350 O   0  0  0  0  0  0  0  0  0  0  0  0
   51.3990  159.6200   30.5590 C   0  0  0  0  0  0  0  0  0  0  0  0
   52.2790  160.6680   30.8340 C   0  0  0  0  0  0  0  0  0  0  0  0
   51.8410  161.7710   31.5700 C   0  0  0  0  0  0  0  0  0  0  0  0
   50.5240  161.8260   32.0320 C   0  0  0  0  0  0  0  0  0  0  0  0
   49.6480  160.7790   31.7560 C   0  0  0  0  0  0  0  0  0  0  0  0
   48.3740  160.8960   32.2390 O   0  0  0  0  0  0  0  0  0  0  0  0
   50.0870  159.6760   31.0190 C   0  0  0  0  0  0  0  0  0  0  0  0
   49.1990  158.5540   30.7080 C   0  0  0  0  0  0  0  0  0  0  0  0
   48.0300  158.5260   31.0850 O   0  0  0  0  0  0  0  0  0  0  0  0
   49.7600  157.4360   29.9140 C   0  0  0  0  0  0  0  0  0  0  0  0
   48.9150  156.3760   29.6380 O   0  0  0  0  0  0  0  0  0  0  0  0
   52.4040  156.7770   27.5640 C   0  0  0  0  0  0  0  0  0  0  0  0
   53.0310  155.7970   26.7720 C   0  0  0  0  0  0  0  0  0  0  0  0
   53.7640  156.2260   25.5320 C   0  0  0  0  0  0  0  0  0  0  0  0
   53.7950  150.2719   26.2398 H   0  0  0  0  0  0  0  0  0  0  0  0
   52.6352  150.4630   24.8815 H   0  0  0  0  0  0  0  0  0  0  0  0
   54.1779  151.3832   24.8815 H   0  0  0  0  0  0  0  0  0  0  0  0
   51.7876  152.4175   25.7025 H   0  0  0  0  0  0  0  0  0  0  0  0
   52.4353  151.7726   27.2653 H   0  0  0  0  0  0  0  0  0  0  0  0
   54.5426  153.0224   26.8888 H   0  0  0  0  0  0  0  0  0  0  0  0
   53.8273  153.7106   25.3705 H   0  0  0  0  0  0  0  0  0  0  0  0
   52.2134  153.0637   28.6605 H   0  0  0  0  0  0  0  0  0  0  0  0
   51.1058  154.8168   30.0282 H   0  0  0  0  0  0  0  0  0  0  0  0
   53.3166  160.6251   30.4713 H   0  0  0  0  0  0  0  0  0  0  0  0
   52.5340  162.5975   31.7862 H   0  0  0  0  0  0  0  0  0  0  0  0
   50.1794  162.6944   32.6126 H   0  0  0  0  0  0  0  0  0  0  0  0
   48.0460  161.7350   32.4980 H   0  0  0  0  0  0  0  0  0  0  0  0
   49.2710  155.5490   29.3800 H   0  0  0  0  0  0  0  0  0  0  0  0
   52.4538  157.8304   27.2513 H   0  0  0  0  0  0  0  0  0  0  0  0
   54.6813  156.7628   25.8155 H   0  0  0  0  0  0  0  0  0  0  0  0
   54.0273  155.3394   24.9365 H   0  0  0  0  0  0  0  0  0  0  0  0
   53.1199  156.8897   24.9365 H   0  0  0  0  0  0  0  0  0  0  0  0
  1  2  1  0
  2  3  1  0
  3  4  1  0
  4  5  2  0
  5  6  1  0
  6  7  2  0
  7  8  1  0
  8  9  1  0
  9 10  1  0
 10 11  2  0
 11 12  1  0
 12 13  2  0
 13 14  1  0
 14 15  1  0
 14 16  2  0
 16 17  1  0
 17 18  2  0
 17 19  1  0
 19 20  1  0
  7 21  1  0
 21 22  2  0
 22 23  1  0
 22  4  1  0
 19  8  2  0
 16 10  1  0
  1 24  1  0
  1 25  1  0
  1 26  1  0
  2 27  1  0
  2 28  1  0
  3 29  1  0
  3 30  1  0
  5 31  1  0
  6 32  1  0
 11 33  1  0
 12 34  1  0
 13 35  1  0
 15 36  1  0
 20 37  1  0
 21 38  1  0
 23 39  1  0
 23 40  1  0
 23 41  1  0
M  END
>  <meeko>  (5) 
{"is_sidechain": [false], "free_energy": -9.067, "intermolecular_energy": -11.22, "internal_energy": -0.288}

$$$$
cand_055_out
     RDKit          3D

 41 43  0  0  0  0  0  0  0  0999 V2000
   47.3220  159.6850   31.4630 C   0  0  0  0  0  0  0  0  0  0  0  0
   48.4120  159.2560   30.4940 C   0  0  0  0  0  0  0  0  0  0  0  0
   49.4010  158.2950   31.1560 C   0  0  0  0  0  0  0  0  0  0  0  0
   50.1860  157.5030   30.1340 C   0  0  0  0  0  0  0  0  0  0  0  0
   49.6830  156.2560   29.7270 C   0  0  0  0  0  0  0  0  0  0  0  0
   50.3670  155.4740   28.7930 C   0  0  0  0  0  0  0  0  0  0  0  0
   51.5700  155.9170   28.2370 C   0  0  0  0  0  0  0  0  0  0  0  0
   52.3270  155.0990   27.2650 C   0  0  0  0  0  0  0  0  0  0  0  0
   52.0380  153.7420   27.3610 O   0  0  0  0  0  0  0  0  0  0  0  0
   52.6710  152.8680   26.5170 C   0  0  0  0  0  0  0  0  0  0  0  0
   52.3410  151.5170   26.6380 C   0  0  0  0  0  0  0  0  0  0  0  0
   52.9510  150.5730   25.8090 C   0  0  0  0  0  0  0  0  0  0  0  0
   53.8920  150.9790   24.8600 C   0  0  0  0  0  0  0  0  0  0  0  0
   54.2190  152.3270   24.7410 C   0  0  0  0  0  0  0  0  0  0  0  0
   55.1490  152.6550   23.7930 O   0  0  0  0  0  0  0  0  0  0  0  0
   53.6080  153.2710   25.5710 C   0  0  0  0  0  0  0  0  0  0  0  0
   53.9250  154.6970   25.4780 C   0  0  0  0  0  0  0  0  0  0  0  0
   54.7460  155.1310   24.6730 O   0  0  0  0  0  0  0  0  0  0  0  0
   53.2160  155.6170   26.3980 C   0  0  0  0  0  0  0  0  0  0  0  0
   53.5320  156.9610   26.3100 O   0  0  0  0  0  0  0  0  0  0  0  0
   52.0810  157.1560   28.6550 C   0  0  0  0  0  0  0  0  0  0  0  0
   51.4080  157.9530   29.6000 C   0  0  0  0  0  0  0  0  0  0  0  0
   52.0060  159.2780   29.9880 C   0  0  0  0  0  0  0  0  0  0  0  0
   47.6742  159.5464   32.4958 H   0  0  0  0  0  0  0  0  0  0  0  0
   47.0805  160.7453   31.2972 H   0  0  0  0  0  0  0  0  0  0  0  0
   46.4226  159.0738   31.2972 H   0  0  0  0  0  0  0  0  0  0  0  0
   47.9476  158.7541   29.6324 H   0  0  0  0  0  0  0  0  0  0  0  0
   48.9626  160.1527   30.1734 H   0  0  0  0  0  0  0  0  0  0  0  0
   50.1033  158.8757   31.7721 H   0  0  0  0  0  0  0  0  0  0  0  0
   48.8280  157.5855   31.7710 H   0  0  0  0  0  0  0  0  0  0  0  0
   48.7361  155.8897   30.1502 H   0  0  0  0  0  0  0  0  0  0  0  0
   49.9544  154.4997   28.4922 H   0  0  0  0  0  0  0  0  0  0  0  0
   51.6009  151.1961   27.3859 H   0  0  0  0  0  0  0  0  0  0  0  0
   52.6901  149.5086   25.9035 H   0  0  0  0  0  0  0  0  0  0  0  0
   54.3736  150.2353   24.2081 H   0  0  0  0  0  0  0  0  0  0  0  0
   55.1400  152.2260   22.9590 H   0  0  0  0  0  0  0  0  0  0  0  0
   53.3580  157.4320   25.5190 H   0  0  0  0  0  0  0  0  0  0  0  0
   53.0320  157.5132   28.2331 H   0  0  0  0  0  0  0  0  0  0  0  0
   52.0417  159.3571   31.0846 H   0  0  0  0  0  0  0  0  0  0  0  0
   53.0254  159.3533   29.5816 H   0  0  0  0  0  0  0  0  0  0  0  0
   51.3881  160.0923   29.5816 H   0  0  0  0  0  0  0  0  0  0  0  0
  1  2  1  0
  2  3  1  0
  3  4  1  0
  4  5  2  0
  5  6  1  0
  6  7  2  0
  7  8  1  0
  8  9  1  0
  9 10  1  0
 10 11  2  0
 11 12  1  0
 12 13  2  0
 13 14  1  0
 14 15  1  0
 14 16  2  0
 16 17  1  0
 17 18  2  0
 17 19  1  0
 19 20  1  0
  7 21  1  0
 21 22  2  0
 22 23  1  0
 22  4  1  0
 19  8  2  0
 16 10  1  0
  1 24  1  0
  1 25  1  0
  1 26  1  0
  2 27  1  0
  2 28  1  0
  3 29  1  0
  3 30  1  0
  5 31  1  0
  6 32  1  0
 11 33  1  0
 12 34  1  0
 13 35  1  0
 15 36  1  0
 20 37  1  0
 21 38  1  0
 23 39  1  0
 23 40  1  0
 23 41  1  0
M  END
>  <meeko>  (6) 
{"is_sidechain": [false], "free_energy": -8.985, "intermolecular_energy": -11.464, "internal_energy": 0.056}

$$$$
cand_055_out
     RDKit          3D

 41 43  0  0  0  0  0  0  0  0999 V2000
   54.1340  152.9250   23.6850 C   0  0  0  0  0  0  0  0  0  0  0  0
   53.4450  153.9470   24.5750 C   0  0  0  0  0  0  0  0  0  0  0  0
   53.6940  153.6560   26.0560 C   0  0  0  0  0  0  0  0  0  0  0  0
   53.0060  154.6640   26.9500 C   0  0  0  0  0  0  0  0  0  0  0  0
   53.2300  156.0300   26.7120 C   0  0  0  0  0  0  0  0  0  0  0  0
   52.6310  157.0070   27.5100 C   0  0  0  0  0  0  0  0  0  0  0  0
   51.7870  156.6480   28.5650 C   0  0  0  0  0  0  0  0  0  0  0  0
   51.1590  157.6610   29.4400 C   0  0  0  0  0  0  0  0  0  0  0  0
   51.9980  158.7380   29.7070 O   0  0  0  0  0  0  0  0  0  0  0  0
   51.5400  159.7520   30.5070 C   0  0  0  0  0  0  0  0  0  0  0  0
   52.4090  160.8200   30.7370 C   0  0  0  0  0  0  0  0  0  0  0  0
   52.0060  161.8860   31.5450 C   0  0  0  0  0  0  0  0  0  0  0  0
   50.7350  161.8830   32.1240 C   0  0  0  0  0  0  0  0  0  0  0  0
   49.8700  160.8170   31.8920 C   0  0  0  0  0  0  0  0  0  0  0  0
   48.6410  160.8780   32.4910 O   0  0  0  0  0  0  0  0  0  0  0  0
   50.2740  159.7510   31.0830 C   0  0  0  0  0  0  0  0  0  0  0  0
   49.3950  158.6110   30.8160 C   0  0  0  0  0  0  0  0  0  0  0  0
   48.2660  158.5340   31.2940 O   0  0  0  0  0  0  0  0  0  0  0  0
   49.9160  157.5370   29.9390 C   0  0  0  0  0  0  0  0  0  0  0  0
   49.0810  156.4590   29.7040 O   0  0  0  0  0  0  0  0  0  0  0  0
   51.5760  155.2830   28.8130 C   0  0  0  0  0  0  0  0  0  0  0  0
   52.1770  154.2840   28.0240 C   0  0  0  0  0  0  0  0  0  0  0  0
   51.8910  152.8420   28.3370 C   0  0  0  0  0  0  0  0  0  0  0  0
   54.6396  152.1751   24.3112 H   0  0  0  0  0  0  0  0  0  0  0  0
   53.3858  152.4282   23.0499 H   0  0  0  0  0  0  0  0  0  0  0  0
   54.8752  153.4323   23.0499 H   0  0  0  0  0  0  0  0  0  0  0  0
   53.8332  154.9483   24.3369 H   0  0  0  0  0  0  0  0  0  0  0  0
   52.3621  153.8936   24.3892 H   0  0  0  0  0  0  0  0  0  0  0  0
   53.3110  152.6519   26.2909 H   0  0  0  0  0  0  0  0  0  0  0  0
   54.7767  153.7191   26.2395 H   0  0  0  0  0  0  0  0  0  0  0  0
   53.8873  156.3349   25.8844 H   0  0  0  0  0  0  0  0  0  0  0  0
   52.8254  158.0704   27.3063 H   0  0  0  0  0  0  0  0  0  0  0  0
   53.4106  160.8222   30.2822 H   0  0  0  0  0  0  0  0  0  0  0  0
   52.6901  162.7283   31.7253 H   0  0  0  0  0  0  0  0  0  0  0  0
   50.4180  162.7211   32.7620 H   0  0  0  0  0  0  0  0  0  0  0  0
   48.5710  161.1190   33.3940 H   0  0  0  0  0  0  0  0  0  0  0  0
   48.1990  156.4730   30.0160 H   0  0  0  0  0  0  0  0  0  0  0  0
   50.9231  154.9855   29.6468 H   0  0  0  0  0  0  0  0  0  0  0  0
   51.8632  152.7021   29.4277 H   0  0  0  0  0  0  0  0  0  0  0  0
   50.9192  152.5590   27.9062 H   0  0  0  0  0  0  0  0  0  0  0  0
   52.6812  152.2096   27.9062 H   0  0  0  0  0  0  0  0  0  0  0  0
  1  2  1  0
  2  3  1  0
  3  4  1  0
  4  5  2  0
  5  6  1  0
  6  7  2  0
  7  8  1  0
  8  9  1  0
  9 10  1  0
 10 11  2  0
 11 12  1  0
 12 13  2  0
 13 14  1  0
 14 15  1  0
 14 16  2  0
 16 17  1  0
 17 18  2  0
 17 19  1  0
 19 20  1  0
  7 21  1  0
 21 22  2  0
 22 23  1  0
 22  4  1  0
 19  8  2  0
 16 10  1  0
  1 24  1  0
  1 25  1  0
  1 26  1  0
  2 27  1  0
  2 28  1  0
  3 29  1  0
  3 30  1  0
  5 31  1  0
  6 32  1  0
 11 33  1  0
 12 34  1  0
 13 35  1  0
 15 36  1  0
 20 37  1  0
 21 38  1  0
 23 39  1  0
 23 40  1  0
 23 41  1  0
M  END
>  <meeko>  (7) 
{"is_sidechain": [false], "free_energy": -8.713, "intermolecular_energy": -10.957, "internal_energy": -0.114}

$$$$
cand_055_out
     RDKit          3D

 41 43  0  0  0  0  0  0  0  0999 V2000
   48.7890  160.9320   31.0700 C   0  0  0  0  0  0  0  0  0  0  0  0
   49.7320  160.2480   30.0940 C   0  0  0  0  0  0  0  0  0  0  0  0
   50.6510  159.2550   30.8090 C   0  0  0  0  0  0  0  0  0  0  0  0
   51.1460  158.1740   29.8750 C   0  0  0  0  0  0  0  0  0  0  0  0
   52.3920  158.3510   29.2510 C   0  0  0  0  0  0  0  0  0  0  0  0
   52.8990  157.3930   28.3700 C   0  0  0  0  0  0  0  0  0  0  0  0
   52.1780  156.2280   28.0920 C   0  0  0  0  0  0  0  0  0  0  0  0
   52.6810  155.2090   27.1460 C   0  0  0  0  0  0  0  0  0  0  0  0
   52.2570  153.9230   27.4620 O   0  0  0  0  0  0  0  0  0  0  0  0
   52.6500  152.8800   26.6640 C   0  0  0  0  0  0  0  0  0  0  0  0
   52.1900  151.6080   27.0100 C   0  0  0  0  0  0  0  0  0  0  0  0
   52.5550  150.5020   26.2410 C   0  0  0  0  0  0  0  0  0  0  0  0
   53.3810  150.6650   25.1270 C   0  0  0  0  0  0  0  0  0  0  0  0
   53.8390  151.9350   24.7840 C   0  0  0  0  0  0  0  0  0  0  0  0
   54.6460  152.0240   23.6830 O   0  0  0  0  0  0  0  0  0  0  0  0
   53.4730  153.0420   25.5540 C   0  0  0  0  0  0  0  0  0  0  0  0
   53.9330  154.3930   25.2280 C   0  0  0  0  0  0  0  0  0  0  0  0
   54.6670  154.6170   24.2680 O   0  0  0  0  0  0  0  0  0  0  0  0
   53.4810  155.5000   26.1040 C   0  0  0  0  0  0  0  0  0  0  0  0
   53.9320  156.7700   25.7930 O   0  0  0  0  0  0  0  0  0  0  0  0
   50.9270  156.0580   28.7030 C   0  0  0  0  0  0  0  0  0  0  0  0
   50.3970  157.0170   29.5870 C   0  0  0  0  0  0  0  0  0  0  0  0
   49.0570  156.7590   30.2190 C   0  0  0  0  0  0  0  0  0  0  0  0
   49.1006  160.7060   32.1004 H   0  0  0  0  0  0  0  0  0  0  0  0
   48.8193  162.0196   30.9080 H   0  0  0  0  0  0  0  0  0  0  0  0
   47.7646  160.5655   30.9080 H   0  0  0  0  0  0  0  0  0  0  0  0
   49.1385  159.7084   29.3413 H   0  0  0  0  0  0  0  0  0  0  0  0
   50.3572  161.0183   29.6189 H   0  0  0  0  0  0  0  0  0  0  0  0
   51.5168  159.7994   31.2139 H   0  0  0  0  0  0  0  0  0  0  0  0
   50.0746  158.7741   31.6130 H   0  0  0  0  0  0  0  0  0  0  0  0
   52.9777  159.2584   29.4595 H   0  0  0  0  0  0  0  0  0  0  0  0
   53.8752  157.5568   27.8902 H   0  0  0  0  0  0  0  0  0  0  0  0
   51.5404  151.4776   27.8881 H   0  0  0  0  0  0  0  0  0  0  0  0
   52.1913  149.5001   26.5129 H   0  0  0  0  0  0  0  0  0  0  0  0
   53.6693  149.7928   24.5219 H   0  0  0  0  0  0  0  0  0  0  0  0
   54.2710  152.1880   22.8400 H   0  0  0  0  0  0  0  0  0  0  0  0
   53.6800  157.4990   26.3240 H   0  0  0  0  0  0  0  0  0  0  0  0
   50.3442  155.1508   28.4856 H   0  0  0  0  0  0  0  0  0  0  0  0
   49.1583  156.7785   31.3142 H   0  0  0  0  0  0  0  0  0  0  0  0
   48.3465  157.5368   29.9026 H   0  0  0  0  0  0  0  0  0  0  0  0
   48.6861  155.7730   29.9026 H   0  0  0  0  0  0  0  0  0  0  0  0
  1  2  1  0
  2  3  1  0
  3  4  1  0
  4  5  2  0
  5  6  1  0
  6  7  2  0
  7  8  1  0
  8  9  1  0
  9 10  1  0
 10 11  2  0
 11 12  1  0
 12 13  2  0
 13 14  1  0
 14 15  1  0
 14 16  2  0
 16 17  1  0
 17 18  2  0
 17 19  1  0
 19 20  1  0
  7 21  1  0
 21 22  2  0
 22 23  1  0
 22  4  1  0
 19  8  2  0
 16 10  1  0
  1 24  1  0
  1 25  1  0
  1 26  1  0
  2 27  1  0
  2 28  1  0
  3 29  1  0
  3 30  1  0
  5 31  1  0
  6 32  1  0
 11 33  1  0
 12 34  1  0
 13 35  1  0
 15 36  1  0
 20 37  1  0
 21 38  1  0
 23 39  1  0
 23 40  1  0
 23 41  1  0
M  END
>  <meeko>  (8) 
{"is_sidechain": [false], "free_energy": -8.267, "intermolecular_energy": -10.457, "internal_energy": -0.065}

$$$$
