cand_005_out
     RDKit          3D

 36 38  0  0  0  0  0  0  0  0999 V2000
   47.3630  159.4030   30.8690 C   0  0  0  0  0  0  0  0  0  0  0  0
   48.4110  158.7780   31.4190 C   0  0  0  0  0  0  0  0  0  0  0  0
   49.7590  158.8390   30.8410 C   0  0  0  0  0  0  0  0  0  0  0  0
   50.2350  157.7290   30.1180 C   0  0  0  0  0  0  0  0  0  0  0  0
   51.5220  157.7150   29.5560 C   0  0  0  0  0  0  0  0  0  0  0  0
   51.9720  156.5390   28.7820 C   0  0  0  0  0  0  0  0  0  0  0  0
   52.5330  156.8790   27.5570 O   0  0  0  0  0  0  0  0  0  0  0  0
   52.9910  155.8790   26.7370 C   0  0  0  0  0  0  0  0  0  0  0  0
   53.5580  156.2660   25.5220 C   0  0  0  0  0  0  0  0  0  0  0  0
   54.0430  155.2990   24.6410 C   0  0  0  0  0  0  0  0  0  0  0  0
   53.9610  153.9440   24.9720 C   0  0  0  0  0  0  0  0  0  0  0  0
   53.3930  153.5610   26.1850 C   0  0  0  0  0  0  0  0  0  0  0  0
   53.3440  152.2200   26.4460 O   0  0  0  0  0  0  0  0  0  0  0  0
   52.9090  154.5300   27.0680 C   0  0  0  0  0  0  0  0  0  0  0  0
   52.3060  154.1690   28.3520 C   0  0  0  0  0  0  0  0  0  0  0  0
   52.1910  153.0000   28.7130 O   0  0  0  0  0  0  0  0  0  0  0  0
   51.8300  155.2730   29.2180 C   0  0  0  0  0  0  0  0  0  0  0  0
   51.2480  154.9220   30.4220 O   0  0  0  0  0  0  0  0  0  0  0  0
   52.3290  158.8450   29.7170 C   0  0  0  0  0  0  0  0  0  0  0  0
   51.8700  159.9520   30.4360 C   0  0  0  0  0  0  0  0  0  0  0  0
   50.5860  159.9640   31.0090 C   0  0  0  0  0  0  0  0  0  0  0  0
   50.1200  161.1830   31.7710 C   0  0  0  0  0  0  0  0  0  0  0  0
   49.1250  161.8620   31.1360 F   0  0  0  0  0  0  0  0  0  0  0  0
   51.1110  162.1000   31.9750 F   0  0  0  0  0  0  0  0  0  0  0  0
   49.6460  160.8860   33.0140 F   0  0  0  0  0  0  0  0  0  0  0  0
   46.3706  159.3291   31.3376 H   0  0  0  0  0  0  0  0  0  0  0  0
   47.4941  159.9906   29.9484 H   0  0  0  0  0  0  0  0  0  0  0  0
   48.2562  158.1962   32.3396 H   0  0  0  0  0  0  0  0  0  0  0  0
   49.5836  156.8519   29.9902 H   0  0  0  0  0  0  0  0  0  0  0  0
   53.6225  157.3322   25.2592 H   0  0  0  0  0  0  0  0  0  0  0  0
   54.4909  155.6040   23.6837 H   0  0  0  0  0  0  0  0  0  0  0  0
   54.3437  153.1821   24.2770 H   0  0  0  0  0  0  0  0  0  0  0  0
   52.6410  151.7010   26.1080 H   0  0  0  0  0  0  0  0  0  0  0  0
   50.9000  154.0610   30.5420 H   0  0  0  0  0  0  0  0  0  0  0  0
   53.3354  158.8631   29.2733 H   0  0  0  0  0  0  0  0  0  0  0  0
   52.5240  160.8284   30.5556 H   0  0  0  0  0  0  0  0  0  0  0  0
  1  2  2  0
  2  3  1  0
  3  4  2  0
  4  5  1  0
  5  6  1  0
  6  7  1  0
  7  8  1  0
  8  9  2  0
  9 10  1  0
 10 11  2  0
 11 12  1  0
 12 13  1  0
 12 14  2  0
 14 15  1  0
 15 16  2  0
 15 17  1  0
 17 18  1  0
  5 19  2  0
 19 20  1  0
 20 21  2  0
 21 22  1  0
 22 23  1  0
 22 24  1  0
 22 25  1  0
 21  3  1  0
 17  6  2  0
 14  8  1  0
  1 26  1  0
  1 27  1  0
  2 28  1  0
  4 29  1  0
  9 30  1  0
 10 31  1  0
 11 32  1  0
 13 33  1  0
 18 34  1  0
 19 35  1  0
 20 36  1  0
M  END
>  <meeko>  (1) 
{"is_sidechain": [false], "free_energy": -11.148, "intermolecular_energy": -13.755, "internal_energy": -0.065}

$$$$
cand_005_out
     RDKit          3D

 36 38  0  0  0  0  0  0  0  0999 V2000
   52.7480  161.3510   30.5210 C   0  0  0  0  0  0  0  0  0  0  0  0
   51.6830  160.9260   31.2110 C   0  0  0  0  0  0  0  0  0  0  0  0
   50.9170  159.7330   30.8260 C   0  0  0  0  0  0  0  0  0  0  0  0
   51.5620  158.7230   30.0890 C   0  0  0  0  0  0  0  0  0  0  0  0
   50.8830  157.5670   29.6740 C   0  0  0  0  0  0  0  0  0  0  0  0
   51.6060  156.5200   28.9230 C   0  0  0  0  0  0  0  0  0  0  0  0
   52.1400  156.9840   27.7270 O   0  0  0  0  0  0  0  0  0  0  0  0
   52.8360  156.1110   26.9300 C   0  0  0  0  0  0  0  0  0  0  0  0
   53.3680  156.6210   25.7440 C   0  0  0  0  0  0  0  0  0  0  0  0
   54.0860  155.7860   24.8860 C   0  0  0  0  0  0  0  0  0  0  0  0
   54.2740  154.4410   25.2130 C   0  0  0  0  0  0  0  0  0  0  0  0
   53.7410  153.9340   26.3960 C   0  0  0  0  0  0  0  0  0  0  0  0
   53.9620  152.6090   26.6530 O   0  0  0  0  0  0  0  0  0  0  0  0
   53.0240  154.7710   27.2540 C   0  0  0  0  0  0  0  0  0  0  0  0
   52.4490  154.2780   28.5070 C   0  0  0  0  0  0  0  0  0  0  0  0
   52.5650  153.1070   28.8610 O   0  0  0  0  0  0  0  0  0  0  0  0
   51.7110  155.2480   29.3500 C   0  0  0  0  0  0  0  0  0  0  0  0
   51.1590  154.7700   30.5240 O   0  0  0  0  0  0  0  0  0  0  0  0
   49.5360  157.4270   30.0240 C   0  0  0  0  0  0  0  0  0  0  0  0
   48.8820  158.4240   30.7530 C   0  0  0  0  0  0  0  0  0  0  0  0
   49.5580  159.5880   31.1600 C   0  0  0  0  0  0  0  0  0  0  0  0
   48.8210  160.6400   31.9550 C   0  0  0  0  0  0  0  0  0  0  0  0
   49.3540  160.8470   33.1910 F   0  0  0  0  0  0  0  0  0  0  0  0
   47.5100  160.3270   32.1750 F   0  0  0  0  0  0  0  0  0  0  0  0
   48.8000  161.8570   31.3410 F   0  0  0  0  0  0  0  0  0  0  0  0
   53.2913  162.2503   30.8468 H   0  0  0  0  0  0  0  0  0  0  0  0
   53.0801  160.8011   29.6281 H   0  0  0  0  0  0  0  0  0  0  0  0
   51.3691  161.4917   32.1006 H   0  0  0  0  0  0  0  0  0  0  0  0
   52.6248  158.8423   29.8317 H   0  0  0  0  0  0  0  0  0  0  0  0
   53.2214  157.6802   25.4859 H   0  0  0  0  0  0  0  0  0  0  0  0
   54.5042  156.1877   23.9513 H   0  0  0  0  0  0  0  0  0  0  0  0
   54.8416  153.7837   24.5379 H   0  0  0  0  0  0  0  0  0  0  0  0
   53.8860  152.2820   27.5280 H   0  0  0  0  0  0  0  0  0  0  0  0
   51.0190  155.3490   31.2470 H   0  0  0  0  0  0  0  0  0  0  0  0
   48.9861  156.5233   29.7225 H   0  0  0  0  0  0  0  0  0  0  0  0
   47.8208  158.2961   31.0127 H   0  0  0  0  0  0  0  0  0  0  0  0
  1  2  2  0
  2  3  1  0
  3  4  2  0
  4  5  1  0
  5  6  1  0
  6  7  1  0
  7  8  1  0
  8  9  2  0
  9 10  1  0
 10 11  2  0
 11 12  1  0
 12 13  1  0
 12 14  2  0
 14 15  1  0
 15 16  2  0
 15 17  1  0
 17 18  1  0
  5 19  2  0
 19 20  1  0
 20 21  2  0
 21 22  1  0
 22 23  1  0
 22 24  1  0
 22 25  1  0
 21  3  1  0
 17  6  2  0
 14  8  1  0
  1 26  1  0
  1 27  1  0
  2 28  1  0
  4 29  1  0
  9 30  1  0
 10 31  1  0
 11 32  1  0
 13 33  1  0
 18 34  1  0
 19 35  1  0
 20 36  1  0
M  END
>  <meeko>  (2) 
{"is_sidechain": [false], "free_energy": -11.06, "intermolecular_energy": -13.287, "internal_energy": -0.424}

$$$$
cand_005_out
     RDKit          3D

 36 38  0  0  0  0  0  0  0  0999 V2000
   54.0470  156.5710   25.0080 C   0  0  0  0  0  0  0  0  0  0  0  0
   53.6820  155.3720   25.4740 C   0  0  0  0  0  0  0  0  0  0  0  0
   52.9330  155.2050   26.7270 C   0  0  0  0  0  0  0  0  0  0  0  0
   52.5720  156.3530   27.4560 C   0  0  0  0  0  0  0  0  0  0  0  0
   51.8720  156.2620   28.6700 C   0  0  0  0  0  0  0  0  0  0  0  0
   51.4900  157.4950   29.3910 C   0  0  0  0  0  0  0  0  0  0  0  0
   50.1570  157.4990   29.7850 O   0  0  0  0  0  0  0  0  0  0  0  0
   49.6700  158.5870   30.4630 C   0  0  0  0  0  0  0  0  0  0  0  0
   48.3300  158.5450   30.8520 C   0  0  0  0  0  0  0  0  0  0  0  0
   47.7720  159.6210   31.5440 C   0  0  0  0  0  0  0  0  0  0  0  0
   48.5510  160.7390   31.8490 C   0  0  0  0  0  0  0  0  0  0  0  0
   49.8880  160.7790   31.4590 C   0  0  0  0  0  0  0  0  0  0  0  0
   50.5930  161.9040   31.7880 O   0  0  0  0  0  0  0  0  0  0  0  0
   50.4470  159.7020   30.7670 C   0  0  0  0  0  0  0  0  0  0  0  0
   51.8470  159.7040   30.3400 C   0  0  0  0  0  0  0  0  0  0  0  0
   52.5950  160.6530   30.5640 O   0  0  0  0  0  0  0  0  0  0  0  0
   52.3440  158.5100   29.6180 C   0  0  0  0  0  0  0  0  0  0  0  0
   53.6630  158.5270   29.2060 O   0  0  0  0  0  0  0  0  0  0  0  0
   51.5240  154.9930   29.1420 C   0  0  0  0  0  0  0  0  0  0  0  0
   51.8810  153.8450   28.4300 C   0  0  0  0  0  0  0  0  0  0  0  0
   52.5910  153.9330   27.2190 C   0  0  0  0  0  0  0  0  0  0  0  0
   52.9500  152.6700   26.4720 C   0  0  0  0  0  0  0  0  0  0  0  0
   54.2590  152.3200   26.6110 F   0  0  0  0  0  0  0  0  0  0  0  0
   52.7430  152.7650   25.1250 F   0  0  0  0  0  0  0  0  0  0  0  0
   52.2220  151.5890   26.8710 F   0  0  0  0  0  0  0  0  0  0  0  0
   54.6073  156.6471   24.0644 H   0  0  0  0  0  0  0  0  0  0  0  0
   53.7870  157.4813   25.5682 H   0  0  0  0  0  0  0  0  0  0  0  0
   53.9530  154.4757   24.8968 H   0  0  0  0  0  0  0  0  0  0  0  0
   52.8444  157.3448   27.0660 H   0  0  0  0  0  0  0  0  0  0  0  0
   47.7146  157.6650   30.6134 H   0  0  0  0  0  0  0  0  0  0  0  0
   46.7159  159.5882   31.8499 H   0  0  0  0  0  0  0  0  0  0  0  0
   48.1104  161.5858   32.3956 H   0  0  0  0  0  0  0  0  0  0  0  0
   50.6870  162.1510   32.6870 H   0  0  0  0  0  0  0  0  0  0  0  0
   54.3520  158.4270   29.8330 H   0  0  0  0  0  0  0  0  0  0  0  0
   50.9634  154.8973   30.0836 H   0  0  0  0  0  0  0  0  0  0  0  0
   51.6022  152.8562   28.8230 H   0  0  0  0  0  0  0  0  0  0  0  0
  1  2  2  0
  2  3  1  0
  3  4  2  0
  4  5  1  0
  5  6  1  0
  6  7  1  0
  7  8  1  0
  8  9  2  0
  9 10  1  0
 10 11  2  0
 11 12  1  0
 12 13  1  0
 12 14  2  0
 14 15  1  0
 15 16  2  0
 15 17  1  0
 17 18  1  0
  5 19  2  0
 19 20  1  0
 20 21  2  0
 21 22  1  0
 22 23  1  0
 22 24  1  0
 22 25  1  0
 21  3  1  0
 17  6  2  0
 14  8  1  0
  1 26  1  0
  1 27  1  0
  2 28  1  0
  4 29  1  0
  9 30  1  0
 10 31  1  0
 11 32  1  0
 13 33  1  0
 18 34  1  0
 19 35  1  0
 20 36  1  0
M  END
>  <meeko>  (3) 
{"is_sidechain": [false], "free_energy": -11.006, "intermolecular_energy": -13.482, "internal_energy": -0.163}

$$$$
cand_005_out
     RDKit          3D

 36 38  0  0  0  0  0  0  0  0999 V2000
   54.1620  156.6540   25.1800 C   0  0  0  0  0  0  0  0  0  0  0  0
   53.5050  155.5070   25.3840 C   0  0  0  0  0  0  0  0  0  0  0  0
   52.8190  155.2020   26.6460 C   0  0  0  0  0  0  0  0  0  0  0  0
   52.2830  156.2640   27.3980 C   0  0  0  0  0  0  0  0  0  0  0  0
   51.6320  156.0430   28.6220 C   0  0  0  0  0  0  0  0  0  0  0  0
   51.0610  157.1850   29.3670 C   0  0  0  0  0  0  0  0  0  0  0  0
   51.9880  158.1920   29.6070 O   0  0  0  0  0  0  0  0  0  0  0  0
   51.5880  159.3110   30.2930 C   0  0  0  0  0  0  0  0  0  0  0  0
   52.5470  160.3030   30.5000 C   0  0  0  0  0  0  0  0  0  0  0  0
   52.2060  161.4670   31.1920 C   0  0  0  0  0  0  0  0  0  0  0  0
   50.9070  161.6390   31.6760 C   0  0  0  0  0  0  0  0  0  0  0  0
   49.9520  160.6460   31.4690 C   0  0  0  0  0  0  0  0  0  0  0  0
   48.7020  160.8790   31.9700 O   0  0  0  0  0  0  0  0  0  0  0  0
   50.2940  159.4820   30.7750 C   0  0  0  0  0  0  0  0  0  0  0  0
   49.3200  158.4160   30.5350 C   0  0  0  0  0  0  0  0  0  0  0  0
   48.1610  158.4890   30.9360 O   0  0  0  0  0  0  0  0  0  0  0  0
   49.7820  157.2250   29.7840 C   0  0  0  0  0  0  0  0  0  0  0  0
   48.8600  156.2160   29.5750 O   0  0  0  0  0  0  0  0  0  0  0  0
   51.5120  154.7280   29.0820 C   0  0  0  0  0  0  0  0  0  0  0  0
   52.0440  153.6640   28.3480 C   0  0  0  0  0  0  0  0  0  0  0  0
   52.7060  153.8850   27.1260 C   0  0  0  0  0  0  0  0  0  0  0  0
   53.2590  152.7100   26.3550 C   0  0  0  0  0  0  0  0  0  0  0  0
   54.5890  152.5090   26.5670 F   0  0  0  0  0  0  0  0  0  0  0  0
   53.1250  152.8430   25.0030 F   0  0  0  0  0  0  0  0  0  0  0  0
   52.6420  151.5330   26.6610 F   0  0  0  0  0  0  0  0  0  0  0  0
   54.6612  156.8382   24.2173 H   0  0  0  0  0  0  0  0  0  0  0  0
   54.2031  157.4132   25.9750 H   0  0  0  0  0  0  0  0  0  0  0  0
   53.4775  154.7628   24.5745 H   0  0  0  0  0  0  0  0  0  0  0  0
   52.3764  157.2919   27.0176 H   0  0  0  0  0  0  0  0  0  0  0  0
   53.5700  160.1684   30.1187 H   0  0  0  0  0  0  0  0  0  0  0  0
   52.9614  162.2496   31.3562 H   0  0  0  0  0  0  0  0  0  0  0  0
   50.6386  162.5569   32.2196 H   0  0  0  0  0  0  0  0  0  0  0  0
   48.5860  161.4750   32.6840 H   0  0  0  0  0  0  0  0  0  0  0  0
   48.0380  156.2320   30.0240 H   0  0  0  0  0  0  0  0  0  0  0  0
   50.9935  154.5287   30.0315 H   0  0  0  0  0  0  0  0  0  0  0  0
   51.9436  152.6379   28.7316 H   0  0  0  0  0  0  0  0  0  0  0  0
  1  2  2  0
  2  3  1  0
  3  4  2  0
  4  5  1  0
  5  6  1  0
  6  7  1  0
  7  8  1  0
  8  9  2  0
  9 10  1  0
 10 11  2  0
 11 12  1  0
 12 13  1  0
 12 14  2  0
 14 15  1  0
 15 16  2  0
 15 17  1  0
 17 18  1  0
  5 19  2  0
 19 20  1  0
 20 21  2  0
 21 22  1  0
 22 23  1  0
 22 24  1  0
 22 25  1  0
 21  3  1  0
 17  6  2  0
 14  8  1  0
  1 26  1  0
  1 27  1  0
  2 28  1  0
  4 29  1  0
  9 30  1  0
 10 31  1  0
 11 32  1  0
 13 33  1  0
 18 34  1  0
 19 35  1  0
 20 36  1  0
M  END
>  <meeko>  (4) 
{"is_sidechain": [false], "free_energy": -9.65, "intermolecular_energy": -11.778, "internal_energy": -0.194}

$$$$
cand_005_out
     RDKit          3D

 36 38  0  0  0  0  0  0  0  0999 V2000
   51.4210  152.4380   28.2160 C   0  0  0  0  0  0  0  0  0  0  0  0
   52.1870  153.3440   28.8340 C   0  0  0  0  0  0  0  0  0  0  0  0
   52.3340  154.7210   28.3440 C   0  0  0  0  0  0  0  0  0  0  0  0
   51.8630  155.7780   29.1460 C   0  0  0  0  0  0  0  0  0  0  0  0
   51.9570  157.1150   28.7280 C   0  0  0  0  0  0  0  0  0  0  0  0
   51.4730  158.1960   29.6130 C   0  0  0  0  0  0  0  0  0  0  0  0
   50.1290  158.0650   29.9410 O   0  0  0  0  0  0  0  0  0  0  0  0
   49.5520  159.0060   30.7570 C   0  0  0  0  0  0  0  0  0  0  0  0
   48.2040  158.8290   31.0720 C   0  0  0  0  0  0  0  0  0  0  0  0
   47.5550  159.7510   31.8960 C   0  0  0  0  0  0  0  0  0  0  0  0
   48.2530  160.8480   32.4050 C   0  0  0  0  0  0  0  0  0  0  0  0
   49.5980  161.0220   32.0880 C   0  0  0  0  0  0  0  0  0  0  0  0
   50.2200  162.1180   32.6190 O   0  0  0  0  0  0  0  0  0  0  0  0
   50.2470  160.0990   31.2640 C   0  0  0  0  0  0  0  0  0  0  0  0
   51.6590  160.2450   30.9070 C   0  0  0  0  0  0  0  0  0  0  0  0
   52.3390  161.1860   31.3090 O   0  0  0  0  0  0  0  0  0  0  0  0
   52.2540  159.2080   30.0320 C   0  0  0  0  0  0  0  0  0  0  0  0
   53.5850  159.3620   29.6890 O   0  0  0  0  0  0  0  0  0  0  0  0
   52.5460  157.3840   27.4890 C   0  0  0  0  0  0  0  0  0  0  0  0
   53.0130  156.3440   26.6810 C   0  0  0  0  0  0  0  0  0  0  0  0
   52.9110  155.0030   27.0930 C   0  0  0  0  0  0  0  0  0  0  0  0
   53.4370  153.9050   26.1980 C   0  0  0  0  0  0  0  0  0  0  0  0
   54.0980  152.9290   26.8800 F   0  0  0  0  0  0  0  0  0  0  0  0
   54.3230  154.3540   25.2600 F   0  0  0  0  0  0  0  0  0  0  0  0
   52.4550  153.2770   25.4900 F   0  0  0  0  0  0  0  0  0  0  0  0
   51.3412  151.4179   28.6198 H   0  0  0  0  0  0  0  0  0  0  0  0
   50.8709  152.7131   27.3040 H   0  0  0  0  0  0  0  0  0  0  0  0
   52.7278  153.0463   29.7444 H   0  0  0  0  0  0  0  0  0  0  0  0
   51.4109  155.5510   30.1228 H   0  0  0  0  0  0  0  0  0  0  0  0
   47.6536  157.9647   30.6719 H   0  0  0  0  0  0  0  0  0  0  0  0
   46.4924  159.6128   32.1444 H   0  0  0  0  0  0  0  0  0  0  0  0
   47.7417  161.5733   33.0550 H   0  0  0  0  0  0  0  0  0  0  0  0
   49.8810  162.9750   32.4560 H   0  0  0  0  0  0  0  0  0  0  0  0
   54.2490  158.9080   30.1690 H   0  0  0  0  0  0  0  0  0  0  0  0
   52.6428  158.4249   27.1467 H   0  0  0  0  0  0  0  0  0  0  0  0
   53.4677  156.5778   25.7070 H   0  0  0  0  0  0  0  0  0  0  0  0
  1  2  2  0
  2  3  1  0
  3  4  2  0
  4  5  1  0
  5  6  1  0
  6  7  1  0
  7  8  1  0
  8  9  2  0
  9 10  1  0
 10 11  2  0
 11 12  1  0
 12 13  1  0
 12 14  2  0
 14 15  1  0
 15 16  2  0
 15 17  1  0
 17 18  1  0
  5 19  2  0
 19 20  1  0
 20 21  2  0
 21 22  1  0
 22 23  1  0
 22 24  1  0
 22 25  1  0
 21  3  1  0
 17  6  2  0
 14  8  1  0
  1 26  1  0
  1 27  1  0
  2 28  1  0
  4 29  1  0
  9 30  1  0
 10 31  1  0
 11 32  1  0
 13 33  1  0
 18 34  1  0
 19 35  1  0
 20 36  1  0
M  END
>  <meeko>  (5) 
{"is_sidechain": [false], "free_energy": -8.941, "intermolecular_energy": -11.301, "internal_energy": 0.204}

$$$$
cand_005_out
     RDKit          3D

 36 38  0  0  0  0  0  0  0  0999 V2000
   51.5560  152.0920   27.8500 C   0  0  0  0  0  0  0  0  0  0  0  0
   52.4150  152.9520   28.4090 C   0  0  0  0  0  0  0  0  0  0  0  0
   52.4830  154.3670   28.0210 C   0  0  0  0  0  0  0  0  0  0  0  0
   51.8460  155.3230   28.8340 C   0  0  0  0  0  0  0  0  0  0  0  0
   51.8580  156.6890   28.5090 C   0  0  0  0  0  0  0  0  0  0  0  0
   51.1980  157.6620   29.4050 C   0  0  0  0  0  0  0  0  0  0  0  0
   52.0030  158.7560   29.7020 O   0  0  0  0  0  0  0  0  0  0  0  0
   51.5120  159.7350   30.5260 C   0  0  0  0  0  0  0  0  0  0  0  0
   52.3470  160.8220   30.7870 C   0  0  0  0  0  0  0  0  0  0  0  0
   51.9090  161.8530   31.6200 C   0  0  0  0  0  0  0  0  0  0  0  0
   50.6370  161.7990   32.1920 C   0  0  0  0  0  0  0  0  0  0  0  0
   49.8050  160.7130   31.9310 C   0  0  0  0  0  0  0  0  0  0  0  0
   48.5730  160.7230   32.5240 O   0  0  0  0  0  0  0  0  0  0  0  0
   50.2440  159.6810   31.0970 C   0  0  0  0  0  0  0  0  0  0  0  0
   49.4010  158.5230   30.7970 C   0  0  0  0  0  0  0  0  0  0  0  0
   48.2720  158.3980   31.2670 O   0  0  0  0  0  0  0  0  0  0  0  0
   49.9570  157.4870   29.8950 C   0  0  0  0  0  0  0  0  0  0  0  0
   49.1600  156.3900   29.6290 O   0  0  0  0  0  0  0  0  0  0  0  0
   52.5350  157.0900   27.3540 C   0  0  0  0  0  0  0  0  0  0  0  0
   53.1670  156.1510   26.5350 C   0  0  0  0  0  0  0  0  0  0  0  0
   53.1480  154.7810   26.8530 C   0  0  0  0  0  0  0  0  0  0  0  0
   53.8510  153.7960   25.9490 C   0  0  0  0  0  0  0  0  0  0  0  0
   53.0030  153.1360   25.1140 F   0  0  0  0  0  0  0  0  0  0  0  0
   54.5170  152.8200   26.6330 F   0  0  0  0  0  0  0  0  0  0  0  0
   54.7920  154.3800   25.1530 F   0  0  0  0  0  0  0  0  0  0  0  0
   51.5415  151.0407   28.1733 H   0  0  0  0  0  0  0  0  0  0  0  0
   50.8642  152.4362   27.0671 H   0  0  0  0  0  0  0  0  0  0  0  0
   53.0972  152.5849   29.1899 H   0  0  0  0  0  0  0  0  0  0  0  0
   51.3265  154.9923   29.7455 H   0  0  0  0  0  0  0  0  0  0  0  0
   53.3496  160.8665   30.3367 H   0  0  0  0  0  0  0  0  0  0  0  0
   52.5676  162.7096   31.8260 H   0  0  0  0  0  0  0  0  0  0  0  0
   50.2924  162.6124   32.8475 H   0  0  0  0  0  0  0  0  0  0  0  0
   48.0410  159.9520   32.5140 H   0  0  0  0  0  0  0  0  0  0  0  0
   48.2270  156.4790   29.6180 H   0  0  0  0  0  0  0  0  0  0  0  0
   52.5706  158.1565   27.0869 H   0  0  0  0  0  0  0  0  0  0  0  0
   53.6879  156.4885   25.6268 H   0  0  0  0  0  0  0  0  0  0  0  0
  1  2  2  0
  2  3  1  0
  3  4  2  0
  4  5  1  0
  5  6  1  0
  6  7  1  0
  7  8  1  0
  8  9  2  0
  9 10  1  0
 10 11  2  0
 11 12  1  0
 12 13  1  0
 12 14  2  0
 14 15  1  0
 15 16  2  0
 15 17  1  0
 17 18  1  0
  5 19  2  0
 19 20  1  0
 20 21  2  0
 21 22  1  0
 22 23  1  0
 22 24  1  0
 22 25  1  0
 21  3  1  0
 17  6  2  0
 14  8  1  0
  1 26  1  0
  1 27  1  0
  2 28  1  0
  4 29  1  0
  9 30  1  0
 10 31  1  0
 11 32  1  0
 13 33  1  0
 18 34  1  0
 19 35  1  0
 20 36  1  0
M  END
>  <meeko>  (6) 
{"is_sidechain": [false], "free_energy": -8.407, "intermolecular_energy": -10.376, "internal_energy": -0.062}

$$$$
cand_005_out
     RDKit          3D

 36 38  0  0  0  0  0  0  0  0999 V2000
   47.9480  158.7300   30.0820 C   0  0  0  0  0  0  0  0  0  0  0  0
   48.9540  158.0490   30.6420 C   0  0  0  0  0  0  0  0  0  0  0  0
   50.3090  158.0300   30.0740 C   0  0  0  0  0  0  0  0  0  0  0  0
   50.6910  156.9380   29.2740 C   0  0  0  0  0  0  0  0  0  0  0  0
   51.9760  156.8490   28.7160 C   0  0  0  0  0  0  0  0  0  0  0  0
   52.3280  155.6970   27.8600 C   0  0  0  0  0  0  0  0  0  0  0  0
   51.8390  154.4910   28.3480 O   0  0  0  0  0  0  0  0  0  0  0  0
   52.0960  153.3400   27.6480 C   0  0  0  0  0  0  0  0  0  0  0  0
   51.5750  152.1530   28.1670 C   0  0  0  0  0  0  0  0  0  0  0  0
   51.8010  150.9460   27.5040 C   0  0  0  0  0  0  0  0  0  0  0  0
   52.5470  150.9220   26.3240 C   0  0  0  0  0  0  0  0  0  0  0  0
   53.0670  152.1080   25.8100 C   0  0  0  0  0  0  0  0  0  0  0  0
   53.7880  152.0130   24.6520 O   0  0  0  0  0  0  0  0  0  0  0  0
   52.8390  153.3170   26.4730 C   0  0  0  0  0  0  0  0  0  0  0  0
   53.3670  154.5840   25.9650 C   0  0  0  0  0  0  0  0  0  0  0  0
   54.0390  154.6460   24.9370 O   0  0  0  0  0  0  0  0  0  0  0  0
   53.0640  155.8100   26.7390 C   0  0  0  0  0  0  0  0  0  0  0  0
   53.5790  157.0010   26.2600 O   0  0  0  0  0  0  0  0  0  0  0  0
   52.8790  157.8880   28.9630 C   0  0  0  0  0  0  0  0  0  0  0  0
   52.5150  158.9760   29.7600 C   0  0  0  0  0  0  0  0  0  0  0  0
   51.2310  159.0610   30.3280 C   0  0  0  0  0  0  0  0  0  0  0  0
   50.8680  160.2580   31.1750 C   0  0  0  0  0  0  0  0  0  0  0  0
   50.1810  159.9260   32.3030 F   0  0  0  0  0  0  0  0  0  0  0  0
   50.0780  161.1600   30.5230 F   0  0  0  0  0  0  0  0  0  0  0  0
   51.9560  160.9690   31.5880 F   0  0  0  0  0  0  0  0  0  0  0  0
   46.9496  158.7149   30.5434 H   0  0  0  0  0  0  0  0  0  0  0  0
   48.1192  159.3051   29.1601 H   0  0  0  0  0  0  0  0  0  0  0  0
   48.7593  157.4811   31.5637 H   0  0  0  0  0  0  0  0  0  0  0  0
   49.9652  156.1343   29.0809 H   0  0  0  0  0  0  0  0  0  0  0  0
   50.9875  152.1693   29.0968 H   0  0  0  0  0  0  0  0  0  0  0  0
   51.3902  150.0108   27.9122 H   0  0  0  0  0  0  0  0  0  0  0  0
   52.7236  149.9700   25.8020 H   0  0  0  0  0  0  0  0  0  0  0  0
   53.6760  151.2730   24.0880 H   0  0  0  0  0  0  0  0  0  0  0  0
   53.0340  157.5840   25.7700 H   0  0  0  0  0  0  0  0  0  0  0  0
   53.8872  157.8480   28.5248 H   0  0  0  0  0  0  0  0  0  0  0  0
   53.2437  159.7786   29.9463 H   0  0  0  0  0  0  0  0  0  0  0  0
  1  2  2  0
  2  3  1  0
  3  4  2  0
  4  5  1  0
  5  6  1  0
  6  7  1  0
  7  8  1  0
  8  9  2  0
  9 10  1  0
 10 11  2  0
 11 12  1  0
 12 13  1  0
 12 14  2  0
 14 15  1  0
 15 16  2  0
 15 17  1  0
 17 18  1  0
  5 19  2  0
 19 20  1  0
 20 21  2  0
 21 22  1  0
 22 23  1  0
 22 24  1  0
 22 25  1  0
 21  3  1  0
 17  6  2  0
 14  8  1  0
  1 26  1  0
  1 27  1  0
  2 28  1  0
  4 29  1  0
  9 30  1  0
 10 31  1  0
 11 32  1  0
 13 33  1  0
 18 34  1  0
 19 35  1  0
 20 36  1  0
M  END
>  <meeko>  (7) 
{"is_sidechain": [false], "free_energy": -8.308, "intermolecular_energy": -10.244, "internal_energy": -0.073}

$$$$
