cand_018_out
     RDKit          3D

 44 47  0  0  0  0  0  0  0  0999 V2000
   52.3820  152.4830   26.9780 C   0  0  0  0  0  0  0  0  0  0  0  0
   52.1300  153.8180   27.6240 C   0  0  0  0  0  0  0  0  0  0  0  0
   51.6320  153.8640   28.9360 C   0  0  0  0  0  0  0  0  0  0  0  0
   51.3900  155.0870   29.5630 C   0  0  0  0  0  0  0  0  0  0  0  0
   51.6530  156.2910   28.9010 C   0  0  0  0  0  0  0  0  0  0  0  0
   51.3750  157.5770   29.5750 C   0  0  0  0  0  0  0  0  0  0  0  0
   50.0840  157.6500   30.0870 O   0  0  0  0  0  0  0  0  0  0  0  0
   49.6920  158.7920   30.7390 C   0  0  0  0  0  0  0  0  0  0  0  0
   48.3830  158.8270   31.2210 C   0  0  0  0  0  0  0  0  0  0  0  0
   47.9210  159.9590   31.8960 C   0  0  0  0  0  0  0  0  0  0  0  0
   48.7670  161.0530   32.0890 C   0  0  0  0  0  0  0  0  0  0  0  0
   50.0720  161.0140   31.6070 C   0  0  0  0  0  0  0  0  0  0  0  0
   50.8470  162.1190   31.8310 O   0  0  0  0  0  0  0  0  0  0  0  0
   50.5340  159.8810   30.9310 C   0  0  0  0  0  0  0  0  0  0  0  0
   51.8990  159.8000   30.4070 C   0  0  0  0  0  0  0  0  0  0  0  0
   52.7040  160.7190   30.5430 O   0  0  0  0  0  0  0  0  0  0  0  0
   52.2870  158.5580   29.6980 C   0  0  0  0  0  0  0  0  0  0  0  0
   53.5830  158.4880   29.2200 O   0  0  0  0  0  0  0  0  0  0  0  0
   52.1460  156.2390   27.5880 C   0  0  0  0  0  0  0  0  0  0  0  0
   52.3910  155.0180   26.9330 C   0  0  0  0  0  0  0  0  0  0  0  0
   52.9220  154.9610   25.6330 N   0  0  0  0  0  0  0  0  0  0  0  0
   54.1320  154.1180   25.5610 C   0  0  0  0  0  0  0  0  0  0  0  0
   54.9580  154.7460   24.4460 C   0  0  0  0  0  0  0  0  0  0  0  0
   54.6760  156.2260   24.6310 C   0  0  0  0  0  0  0  0  0  0  0  0
   53.1860  156.2440   24.9570 C   0  0  0  0  0  0  0  0  0  0  0  0
   52.5260  151.7200   27.7571 H   0  0  0  0  0  0  0  0  0  0  0  0
   51.5196  152.2098   26.3522 H   0  0  0  0  0  0  0  0  0  0  0  0
   53.2847  152.5430   26.3522 H   0  0  0  0  0  0  0  0  0  0  0  0
   51.4306  152.9265   29.4751 H   0  0  0  0  0  0  0  0  0  0  0  0
   50.9888  155.1045   30.5871 H   0  0  0  0  0  0  0  0  0  0  0  0
   47.7166  157.9650   31.0697 H   0  0  0  0  0  0  0  0  0  0  0  0
   46.8892  159.9888   32.2761 H   0  0  0  0  0  0  0  0  0  0  0  0
   48.4026  161.9441   32.6211 H   0  0  0  0  0  0  0  0  0  0  0  0
   51.5040  162.1030   32.4990 H   0  0  0  0  0  0  0  0  0  0  0  0
   54.1560  157.8080   29.5170 H   0  0  0  0  0  0  0  0  0  0  0  0
   52.3467  157.1803   27.0554 H   0  0  0  0  0  0  0  0  0  0  0  0
   54.6810  154.1411   26.5139 H   0  0  0  0  0  0  0  0  0  0  0  0
   53.8983  153.0605   25.3683 H   0  0  0  0  0  0  0  0  0  0  0  0
   56.0285  154.5256   24.5703 H   0  0  0  0  0  0  0  0  0  0  0  0
   54.7040  154.3705   23.4438 H   0  0  0  0  0  0  0  0  0  0  0  0
   55.2685  156.6424   25.4590 H   0  0  0  0  0  0  0  0  0  0  0  0
   54.9385  156.8340   23.7527 H   0  0  0  0  0  0  0  0  0  0  0  0
   52.9470  157.0868   25.6223 H   0  0  0  0  0  0  0  0  0  0  0  0
   52.5694  156.3673   24.0544 H   0  0  0  0  0  0  0  0  0  0  0  0
  1  2  1  0
  2  3  2  0
  3  4  1  0
  4  5  2  0
  5  6  1  0
  6  7  1  0
  7  8  1  0
  8  9  2  0
  9 10  1  0
 10 11  2  0
 11 12  1  0
 12 13  1  0
 12 14  2  0
 14 15  1  0
 15 16  2  0
 15 17  1  0
 17 18  1  0
  5 19  1  0
 19 20  2  0
 20 21  1  0
 21 22  1  0
 22 23  1  0
 23 24  1  0
 24 25  1  0
 20  2  1  0
 25 21  1  0
 17  6  2  0
 14  8  1  0
  1 26  1  0
  1 27  1  0
  1 28  1  0
  3 29  1  0
  4 30  1  0
  9 31  1  0
 10 32  1  0
 11 33  1  0
 13 34  1  0
 18 35  1  0
 19 36  1  0
 22 37  1  0
 22 38  1  0
 23 39  1  0
 23 40  1  0
 24 41  1  0
 24 42  1  0
 25 43  1  0
 25 44  1  0
M  END
>  <meeko>  (1) 
{"is_sidechain": [false], "free_energy": -10.748, "intermolecular_energy": -12.633, "internal_energy": 0.325}

$$$$
cand_018_out
     RDKit          3D

 44 47  0  0  0  0  0  0  0  0999 V2000
   50.7720  160.7940   31.2020 C   0  0  0  0  0  0  0  0  0  0  0  0
   51.0690  159.5030   30.4890 C   0  0  0  0  0  0  0  0  0  0  0  0
   52.3020  159.3450   29.8370 C   0  0  0  0  0  0  0  0  0  0  0  0
   52.6080  158.1580   29.1700 C   0  0  0  0  0  0  0  0  0  0  0  0
   51.6960  157.0980   29.1490 C   0  0  0  0  0  0  0  0  0  0  0  0
   52.0290  155.8540   28.4230 C   0  0  0  0  0  0  0  0  0  0  0  0
   52.5420  156.0920   27.1520 O   0  0  0  0  0  0  0  0  0  0  0  0
   52.8940  155.0230   26.3680 C   0  0  0  0  0  0  0  0  0  0  0  0
   53.3890  155.3090   25.0950 C   0  0  0  0  0  0  0  0  0  0  0  0
   53.7680  154.2670   24.2460 C   0  0  0  0  0  0  0  0  0  0  0  0
   53.6530  152.9410   24.6700 C   0  0  0  0  0  0  0  0  0  0  0  0
   53.1600  152.6600   25.9410 C   0  0  0  0  0  0  0  0  0  0  0  0
   53.0740  151.3410   26.2930 O   0  0  0  0  0  0  0  0  0  0  0  0
   52.7800  153.7030   26.7900 C   0  0  0  0  0  0  0  0  0  0  0  0
   52.2560  153.4510   28.1330 C   0  0  0  0  0  0  0  0  0  0  0  0
   52.1320  152.3130   28.5810 O   0  0  0  0  0  0  0  0  0  0  0  0
   51.8740  154.6260   28.9510 C   0  0  0  0  0  0  0  0  0  0  0  0
   51.3930  154.3750   30.2230 O   0  0  0  0  0  0  0  0  0  0  0  0
   50.4620  157.2630   29.7980 C   0  0  0  0  0  0  0  0  0  0  0  0
   50.1300  158.4530   30.4720 C   0  0  0  0  0  0  0  0  0  0  0  0
   48.9120  158.6080   31.1570 N   0  0  0  0  0  0  0  0  0  0  0  0
   47.8720  159.2260   30.3110 C   0  0  0  0  0  0  0  0  0  0  0  0
   47.0010  159.9970   31.2960 C   0  0  0  0  0  0  0  0  0  0  0  0
   48.0200  160.4980   32.3020 C   0  0  0  0  0  0  0  0  0  0  0  0
   48.9540  159.3010   32.4570 C   0  0  0  0  0  0  0  0  0  0  0  0
   50.8098  160.6296   32.2890 H   0  0  0  0  0  0  0  0  0  0  0  0
   51.5198  161.5495   30.9192 H   0  0  0  0  0  0  0  0  0  0  0  0
   49.7692  161.1468   30.9192 H   0  0  0  0  0  0  0  0  0  0  0  0
   53.0347  160.1654   29.8520 H   0  0  0  0  0  0  0  0  0  0  0  0
   53.5752  158.0552   28.6562 H   0  0  0  0  0  0  0  0  0  0  0  0
   53.4805  156.3531   24.7610 H   0  0  0  0  0  0  0  0  0  0  0  0
   54.1576  154.4907   23.2419 H   0  0  0  0  0  0  0  0  0  0  0  0
   53.9514  152.1205   24.0008 H   0  0  0  0  0  0  0  0  0  0  0  0
   52.4530  151.0680   26.9390 H   0  0  0  0  0  0  0  0  0  0  0  0
   50.6300  154.8230   30.5320 H   0  0  0  0  0  0  0  0  0  0  0  0
   49.7339  156.4386   29.7791 H   0  0  0  0  0  0  0  0  0  0  0  0
   48.3223  159.9059   29.5728 H   0  0  0  0  0  0  0  0  0  0  0  0
   47.3011  158.4836   29.7340 H   0  0  0  0  0  0  0  0  0  0  0  0
   46.4843  160.8329   30.8018 H   0  0  0  0  0  0  0  0  0  0  0  0
   46.1995  159.3914   31.7441 H   0  0  0  0  0  0  0  0  0  0  0  0
   48.5600  161.3753   31.9164 H   0  0  0  0  0  0  0  0  0  0  0  0
   47.5715  160.8277   33.2507 H   0  0  0  0  0  0  0  0  0  0  0  0
   49.9770  159.6365   32.6825 H   0  0  0  0  0  0  0  0  0  0  0  0
   48.6466  158.6437   33.2837 H   0  0  0  0  0  0  0  0  0  0  0  0
  1  2  1  0
  2  3  2  0
  3  4  1  0
  4  5  2  0
  5  6  1  0
  6  7  1  0
  7  8  1  0
  8  9  2  0
  9 10  1  0
 10 11  2  0
 11 12  1  0
 12 13  1  0
 12 14  2  0
 14 15  1  0
 15 16  2  0
 15 17  1  0
 17 18  1  0
  5 19  1  0
 19 20  2  0
 20 21  1  0
 21 22  1  0
 22 23  1  0
 23 24  1  0
 24 25  1  0
 20  2  1  0
 25 21  1  0
 17  6  2  0
 14  8  1  0
  1 26  1  0
  1 27  1  0
  1 28  1  0
  3 29  1  0
  4 30  1  0
  9 31  1  0
 10 32  1  0
 11 33  1  0
 13 34  1  0
 18 35  1  0
 19 36  1  0
 22 37  1  0
 22 38  1  0
 23 39  1  0
 23 40  1  0
 24 41  1  0
 24 42  1  0
 25 43  1  0
 25 44  1  0
M  END
>  <meeko>  (2) 
{"is_sidechain": [false], "free_energy": -10.321, "intermolecular_energy": -13.073, "internal_energy": 1.268}

$$$$
cand_018_out
     RDKit          3D

 44 47  0  0  0  0  0  0  0  0999 V2000
   48.8730  160.8010   31.9120 C   0  0  0  0  0  0  0  0  0  0  0  0
   49.6080  159.7370   31.1430 C   0  0  0  0  0  0  0  0  0  0  0  0
   48.9450  158.5450   30.8110 C   0  0  0  0  0  0  0  0  0  0  0  0
   49.5990  157.5410   30.0960 C   0  0  0  0  0  0  0  0  0  0  0  0
   50.9250  157.7090   29.6840 C   0  0  0  0  0  0  0  0  0  0  0  0
   51.6080  156.6280   28.9420 C   0  0  0  0  0  0  0  0  0  0  0  0
   52.1740  157.0670   27.7500 O   0  0  0  0  0  0  0  0  0  0  0  0
   52.8390  156.1650   26.9600 C   0  0  0  0  0  0  0  0  0  0  0  0
   53.3770  156.6460   25.7650 C   0  0  0  0  0  0  0  0  0  0  0  0
   54.0690  155.7800   24.9160 C   0  0  0  0  0  0  0  0  0  0  0  0
   54.2240  154.4360   25.2600 C   0  0  0  0  0  0  0  0  0  0  0  0
   53.6870  153.9590   26.4530 C   0  0  0  0  0  0  0  0  0  0  0  0
   53.8750  152.6330   26.7300 O   0  0  0  0  0  0  0  0  0  0  0  0
   52.9940  154.8260   27.3030 C   0  0  0  0  0  0  0  0  0  0  0  0
   52.4120  154.3660   28.5650 C   0  0  0  0  0  0  0  0  0  0  0  0
   52.5120  153.2000   28.9410 O   0  0  0  0  0  0  0  0  0  0  0  0
   51.6900  155.3620   29.3900 C   0  0  0  0  0  0  0  0  0  0  0  0
   51.1570  154.9190   30.5870 O   0  0  0  0  0  0  0  0  0  0  0  0
   51.5860  158.9010   30.0230 C   0  0  0  0  0  0  0  0  0  0  0  0
   50.9480  159.9250   30.7480 C   0  0  0  0  0  0  0  0  0  0  0  0
   51.5930  161.1350   31.0550 N   0  0  0  0  0  0  0  0  0  0  0  0
   52.2600  161.7250   29.8770 C   0  0  0  0  0  0  0  0  0  0  0  0
   53.4520  162.4730   30.4610 C   0  0  0  0  0  0  0  0  0  0  0  0
   53.8700  161.5700   31.6060 C   0  0  0  0  0  0  0  0  0  0  0  0
   52.5310  161.1300   32.1910 C   0  0  0  0  0  0  0  0  0  0  0  0
   48.9952  160.6242   32.9908 H   0  0  0  0  0  0  0  0  0  0  0  0
   49.2822  161.7888   31.6537 H   0  0  0  0  0  0  0  0  0  0  0  0
   47.8043  160.7679   31.6537 H   0  0  0  0  0  0  0  0  0  0  0  0
   47.8985  158.4009   31.1178 H   0  0  0  0  0  0  0  0  0  0  0  0
   49.0670  156.6091   29.8542 H   0  0  0  0  0  0  0  0  0  0  0  0
   53.2560  157.7049   25.4928 H   0  0  0  0  0  0  0  0  0  0  0  0
   54.4930  156.1577   23.9739 H   0  0  0  0  0  0  0  0  0  0  0  0
   54.7693  153.7550   24.5900 H   0  0  0  0  0  0  0  0  0  0  0  0
   53.7560  152.3150   27.6030 H   0  0  0  0  0  0  0  0  0  0  0  0
   51.5160  154.1620   31.0070 H   0  0  0  0  0  0  0  0  0  0  0  0
   52.6324  159.0383   29.7130 H   0  0  0  0  0  0  0  0  0  0  0  0
   52.5937  160.9395   29.1830 H   0  0  0  0  0  0  0  0  0  0  0  0
   51.5927  162.3803   29.2980 H   0  0  0  0  0  0  0  0  0  0  0  0
   54.2588  162.5770   29.7206 H   0  0  0  0  0  0  0  0  0  0  0  0
   53.2170  163.5011   30.7737 H   0  0  0  0  0  0  0  0  0  0  0  0
   54.4462  160.7071   31.2408 H   0  0  0  0  0  0  0  0  0  0  0  0
   54.5243  162.0666   32.3376 H   0  0  0  0  0  0  0  0  0  0  0  0
   52.6109  160.1206   32.6209 H   0  0  0  0  0  0  0  0  0  0  0  0
   52.1983  161.7946   33.0019 H   0  0  0  0  0  0  0  0  0  0  0  0
  1  2  1  0
  2  3  2  0
  3  4  1  0
  4  5  2  0
  5  6  1  0
  6  7  1  0
  7  8  1  0
  8  9  2  0
  9 10  1  0
 10 11  2  0
 11 12  1  0
 12 13  1  0
 12 14  2  0
 14 15  1  0
 15 16  2  0
 15 17  1  0
 17 18  1  0
  5 19  1  0
 19 20  2  0
 20 21  1  0
 21 22  1  0
 22 23  1  0
 23 24  1  0
 24 25  1  0
 20  2  1  0
 25 21  1  0
 17  6  2  0
 14  8  1  0
  1 26  1  0
  1 27  1  0
  1 28  1  0
  3 29  1  0
  4 30  1  0
  9 31  1  0
 10 32  1  0
 11 33  1  0
 13 34  1  0
 18 35  1  0
 19 36  1  0
 22 37  1  0
 22 38  1  0
 23 39  1  0
 23 40  1  0
 24 41  1  0
 24 42  1  0
 25 43  1  0
 25 44  1  0
M  END
>  <meeko>  (3) 
{"is_sidechain": [false], "free_energy": -9.127, "intermolecular_energy": -9.868, "internal_energy": -0.534}

$$$$
cand_018_out
     RDKit          3D

 44 47  0  0  0  0  0  0  0  0999 V2000
   53.1920  152.4300   26.7470 C   0  0  0  0  0  0  0  0  0  0  0  0
   52.6420  153.6580   27.4230 C   0  0  0  0  0  0  0  0  0  0  0  0
   52.1500  153.5590   28.7340 C   0  0  0  0  0  0  0  0  0  0  0  0
   51.6370  154.6800   29.3880 C   0  0  0  0  0  0  0  0  0  0  0  0
   51.6160  155.9260   28.7540 C   0  0  0  0  0  0  0  0  0  0  0  0
   51.0540  157.1000   29.4560 C   0  0  0  0  0  0  0  0  0  0  0  0
   51.9910  158.1080   29.6560 O   0  0  0  0  0  0  0  0  0  0  0  0
   51.6020  159.2560   30.2980 C   0  0  0  0  0  0  0  0  0  0  0  0
   52.5790  160.2340   30.4920 C   0  0  0  0  0  0  0  0  0  0  0  0
   52.2490  161.4280   31.1360 C   0  0  0  0  0  0  0  0  0  0  0  0
   50.9450  161.6450   31.5850 C   0  0  0  0  0  0  0  0  0  0  0  0
   49.9730  160.6680   31.3900 C   0  0  0  0  0  0  0  0  0  0  0  0
   48.7160  160.9450   31.8540 O   0  0  0  0  0  0  0  0  0  0  0  0
   50.3030  159.4720   30.7450 C   0  0  0  0  0  0  0  0  0  0  0  0
   49.3120  158.4190   30.5200 C   0  0  0  0  0  0  0  0  0  0  0  0
   48.1420  158.5380   30.8800 O   0  0  0  0  0  0  0  0  0  0  0  0
   49.7660  157.1860   29.8350 C   0  0  0  0  0  0  0  0  0  0  0  0
   48.8170  156.2040   29.6160 O   0  0  0  0  0  0  0  0  0  0  0  0
   52.1050  156.0190   27.4410 C   0  0  0  0  0  0  0  0  0  0  0  0
   52.6210  154.9000   26.7600 C   0  0  0  0  0  0  0  0  0  0  0  0
   53.1480  154.9960   25.4600 N   0  0  0  0  0  0  0  0  0  0  0  0
   54.4090  154.2420   25.3130 C   0  0  0  0  0  0  0  0  0  0  0  0
   55.1880  155.0200   24.2600 C   0  0  0  0  0  0  0  0  0  0  0  0
   54.8130  156.4560   24.5780 C   0  0  0  0  0  0  0  0  0  0  0  0
   53.3260  156.3490   24.9030 C   0  0  0  0  0  0  0  0  0  0  0  0
   53.5162  151.7061   27.5091 H   0  0  0  0  0  0  0  0  0  0  0  0
   52.4111  151.9763   26.1190 H   0  0  0  0  0  0  0  0  0  0  0  0
   54.0505  152.7105   26.1190 H   0  0  0  0  0  0  0  0  0  0  0  0
   52.1690  152.5882   29.2509 H   0  0  0  0  0  0  0  0  0  0  0  0
   51.2457  154.5824   30.4114 H   0  0  0  0  0  0  0  0  0  0  0  0
   53.6066  160.0643   30.1382 H   0  0  0  0  0  0  0  0  0  0  0  0
   53.0180  162.1993   31.2899 H   0  0  0  0  0  0  0  0  0  0  0  0
   50.6862  162.5863   32.0919 H   0  0  0  0  0  0  0  0  0  0  0  0
   48.3290  160.4010   32.5120 H   0  0  0  0  0  0  0  0  0  0  0  0
   48.8370  155.4130   30.1180 H   0  0  0  0  0  0  0  0  0  0  0  0
   52.0843  156.9931   26.9304 H   0  0  0  0  0  0  0  0  0  0  0  0
   54.9601  154.2139   26.2646 H   0  0  0  0  0  0  0  0  0  0  0  0
   54.2423  153.1935   25.0251 H   0  0  0  0  0  0  0  0  0  0  0  0
   56.2710  154.8582   24.3649 H   0  0  0  0  0  0  0  0  0  0  0  0
   54.9536  154.7212   23.2276 H   0  0  0  0  0  0  0  0  0  0  0  0
   55.3817  156.8329   25.4409 H   0  0  0  0  0  0  0  0  0  0  0  0
   55.0319  157.1565   23.7586 H   0  0  0  0  0  0  0  0  0  0  0  0
   53.0369  157.1112   25.6415 H   0  0  0  0  0  0  0  0  0  0  0  0
   52.6984  156.5135   24.0147 H   0  0  0  0  0  0  0  0  0  0  0  0
  1  2  1  0
  2  3  2  0
  3  4  1  0
  4  5  2  0
  5  6  1  0
  6  7  1  0
  7  8  1  0
  8  9  2  0
  9 10  1  0
 10 11  2  0
 11 12  1  0
 12 13  1  0
 12 14  2  0
 14 15  1  0
 15 16  2  0
 15 17  1  0
 17 18  1  0
  5 19  1  0
 19 20  2  0
 20 21  1  0
 21 22  1  0
 22 23  1  0
 23 24  1  0
 24 25  1  0
 20  2  1  0
 25 21  1  0
 17  6  2  0
 14  8  1  0
  1 26  1  0
  1 27  1  0
  1 28  1  0
  3 29  1  0
  4 30  1  0
  9 31  1  0
 10 32  1  0
 11 33  1  0
 13 34  1  0
 18 35  1  0
 19 36  1  0
 22 37  1  0
 22 38  1  0
 23 39  1  0
 23 40  1  0
 24 41  1  0
 24 42  1  0
 25 43  1  0
 25 44  1  0
M  END
>  <meeko>  (4) 
{"is_sidechain": [false], "free_energy": -9.065, "intermolecular_energy": -10.886, "internal_energy": 0.557}

$$$$
