cand_027_out
     RDKit          3D

 44 46  0  0  0  0  0  0  0  0999 V2000
   52.8750  152.4140   26.7230 C   0  0  0  0  0  0  0  0  0  0  0  0
   52.5710  153.7610   27.3240 C   0  0  0  0  0  0  0  0  0  0  0  0
   51.9030  153.7290   28.5680 C   0  0  0  0  0  0  0  0  0  0  0  0
   51.5590  154.8920   29.2500 C   0  0  0  0  0  0  0  0  0  0  0  0
   51.8780  156.1330   28.7110 C   0  0  0  0  0  0  0  0  0  0  0  0
   51.5170  157.3930   29.3940 C   0  0  0  0  0  0  0  0  0  0  0  0
   50.1920  157.4190   29.8150 O   0  0  0  0  0  0  0  0  0  0  0  0
   49.7230  158.5330   30.4620 C   0  0  0  0  0  0  0  0  0  0  0  0
   48.3910  158.5110   30.8770 C   0  0  0  0  0  0  0  0  0  0  0  0
   47.8490  159.6140   31.5410 C   0  0  0  0  0  0  0  0  0  0  0  0
   48.6400  160.7390   31.7880 C   0  0  0  0  0  0  0  0  0  0  0  0
   49.9680  160.7580   31.3730 C   0  0  0  0  0  0  0  0  0  0  0  0
   50.6840  161.8920   31.6470 O   0  0  0  0  0  0  0  0  0  0  0  0
   50.5100  159.6540   30.7100 C   0  0  0  0  0  0  0  0  0  0  0  0
   51.9000  159.6340   30.2560 C   0  0  0  0  0  0  0  0  0  0  0  0
   52.6560  160.5870   30.4310 O   0  0  0  0  0  0  0  0  0  0  0  0
   52.3790  158.4120   29.5680 C   0  0  0  0  0  0  0  0  0  0  0  0
   53.6910  158.4090   29.1310 O   0  0  0  0  0  0  0  0  0  0  0  0
   52.5220  156.1710   27.4600 C   0  0  0  0  0  0  0  0  0  0  0  0
   52.8730  155.0100   26.7210 C   0  0  0  0  0  0  0  0  0  0  0  0
   53.5830  155.1800   25.3490 C   0  0  0  0  0  0  0  0  0  0  0  0
   54.1120  156.6140   25.1160 C   0  0  0  0  0  0  0  0  0  0  0  0
   52.6040  154.7900   24.2220 C   0  0  0  0  0  0  0  0  0  0  0  0
   54.8310  154.2660   25.1830 C   0  0  0  0  0  0  0  0  0  0  0  0
   53.0401  151.6823   27.5276 H   0  0  0  0  0  0  0  0  0  0  0  0
   52.0273  152.0902   26.1012 H   0  0  0  0  0  0  0  0  0  0  0  0
   53.7796  152.4856   26.1012 H   0  0  0  0  0  0  0  0  0  0  0  0
   51.6470  152.7553   29.0111 H   0  0  0  0  0  0  0  0  0  0  0  0
   51.0349  154.8294   30.2151 H   0  0  0  0  0  0  0  0  0  0  0  0
   47.7682  157.6257   30.6814 H   0  0  0  0  0  0  0  0  0  0  0  0
   46.7993  159.5969   31.8695 H   0  0  0  0  0  0  0  0  0  0  0  0
   48.2135  161.6084   32.3098 H   0  0  0  0  0  0  0  0  0  0  0  0
   51.2710  162.2410   31.0060 H   0  0  0  0  0  0  0  0  0  0  0  0
   54.3500  158.8530   29.6260 H   0  0  0  0  0  0  0  0  0  0  0  0
   52.7669  157.1539   27.0311 H   0  0  0  0  0  0  0  0  0  0  0  0
   54.2915  157.1007   26.0860 H   0  0  0  0  0  0  0  0  0  0  0  0
   55.0530  156.5699   24.5481 H   0  0  0  0  0  0  0  0  0  0  0  0
   53.3678  157.1916   24.5481 H   0  0  0  0  0  0  0  0  0  0  0  0
   51.6676  154.4170   24.6625 H   0  0  0  0  0  0  0  0  0  0  0  0
   52.3908  155.6719   23.6000 H   0  0  0  0  0  0  0  0  0  0  0  0
   53.0556  154.0031   23.6000 H   0  0  0  0  0  0  0  0  0  0  0  0
   55.2144  153.9852   26.1750 H   0  0  0  0  0  0  0  0  0  0  0  0
   54.5498  153.3587   24.6283 H   0  0  0  0  0  0  0  0  0  0  0  0
   55.6112  154.8079   24.6283 H   0  0  0  0  0  0  0  0  0  0  0  0
  1  2  1  0
  2  3  2  0
  3  4  1  0
  4  5  2  0
  5  6  1  0
  6  7  1  0
  7  8  1  0
  8  9  2  0
  9 10  1  0
 10 11  2  0
 11 12  1  0
 12 13  1  0
 12 14  2  0
 14 15  1  0
 15 16  2  0
 15 17  1  0
 17 18  1  0
  5 19  1  0
 19 20  2  0
 20 21  1  0
 21 22  1  0
 21 23  1  0
 21 24  1  0
 20  2  1  0
 17  6  2  0
 14  8  1  0
  1 25  1  0
  1 26  1  0
  1 27  1  0
  3 28  1  0
  4 29  1  0
  9 30  1  0
 10 31  1  0
 11 32  1  0
 13 33  1  0
 18 34  1  0
 19 35  1  0
 22 36  1  0
 22 37  1  0
 22 38  1  0
 23 39  1  0
 23 40  1  0
 23 41  1  0
 24 42  1  0
 24 43  1  0
 24 44  1  0
M  END
>  <meeko>  (1) 
{"is_sidechain": [false], "free_energy": -10.286, "intermolecular_energy": -12.091, "internal_energy": 0.086}

$$$$
cand_027_out
     RDKit          3D

 44 46  0  0  0  0  0  0  0  0999 V2000
   51.3690  161.3240   31.2330 C   0  0  0  0  0  0  0  0  0  0  0  0
   51.4620  159.9840   30.5510 C   0  0  0  0  0  0  0  0  0  0  0  0
   52.7450  159.6410   30.0710 C   0  0  0  0  0  0  0  0  0  0  0  0
   52.9900  158.4330   29.4240 C   0  0  0  0  0  0  0  0  0  0  0  0
   51.9580  157.5220   29.2390 C   0  0  0  0  0  0  0  0  0  0  0  0
   52.1710  156.2360   28.5420 C   0  0  0  0  0  0  0  0  0  0  0  0
   52.6510  156.3960   27.2470 O   0  0  0  0  0  0  0  0  0  0  0  0
   52.8910  155.2810   26.4860 C   0  0  0  0  0  0  0  0  0  0  0  0
   53.3830  155.4880   25.1970 C   0  0  0  0  0  0  0  0  0  0  0  0
   53.6480  154.3950   24.3680 C   0  0  0  0  0  0  0  0  0  0  0  0
   53.4190  153.0960   24.8280 C   0  0  0  0  0  0  0  0  0  0  0  0
   52.9280  152.8930   26.1150 C   0  0  0  0  0  0  0  0  0  0  0  0
   52.7270  151.5960   26.5010 O   0  0  0  0  0  0  0  0  0  0  0  0
   52.6640  153.9860   26.9440 C   0  0  0  0  0  0  0  0  0  0  0  0
   52.1470  153.8170   28.3020 C   0  0  0  0  0  0  0  0  0  0  0  0
   51.9150  152.7070   28.7760 O   0  0  0  0  0  0  0  0  0  0  0  0
   51.9060  155.0400   29.1020 C   0  0  0  0  0  0  0  0  0  0  0  0
   51.4050  154.8690   30.3780 O   0  0  0  0  0  0  0  0  0  0  0  0
   50.6720  157.8700   29.6940 C   0  0  0  0  0  0  0  0  0  0  0  0
   50.3730  159.0980   30.3410 C   0  0  0  0  0  0  0  0  0  0  0  0
   48.9130  159.3690   30.8000 C   0  0  0  0  0  0  0  0  0  0  0  0
   48.7280  159.2470   32.3300 C   0  0  0  0  0  0  0  0  0  0  0  0
   47.9660  158.3890   30.0760 C   0  0  0  0  0  0  0  0  0  0  0  0
   48.4130  160.8000   30.4530 C   0  0  0  0  0  0  0  0  0  0  0  0
   51.3789  161.1818   32.3237 H   0  0  0  0  0  0  0  0  0  0  0  0
   52.2261  161.9465   30.9366 H   0  0  0  0  0  0  0  0  0  0  0  0
   50.4341  161.8222   30.9366 H   0  0  0  0  0  0  0  0  0  0  0  0
   53.5749  160.3490   30.2125 H   0  0  0  0  0  0  0  0  0  0  0  0
   54.0012  158.1999   29.0592 H   0  0  0  0  0  0  0  0  0  0  0  0
   53.5621  156.5107   24.8337 H   0  0  0  0  0  0  0  0  0  0  0  0
   54.0373  154.5575   23.3521 H   0  0  0  0  0  0  0  0  0  0  0  0
   53.6261  152.2354   24.1749 H   0  0  0  0  0  0  0  0  0  0  0  0
   53.3890  150.9530   26.3440 H   0  0  0  0  0  0  0  0  0  0  0  0
   51.1550  155.6160   30.8870 H   0  0  0  0  0  0  0  0  0  0  0  0
   49.8539  157.1510   29.5398 H   0  0  0  0  0  0  0  0  0  0  0  0
   49.5409  159.7831   32.8415 H   0  0  0  0  0  0  0  0  0  0  0  0
   47.7612  159.6853   32.6186 H   0  0  0  0  0  0  0  0  0  0  0  0
   48.7502  158.1857   32.6186 H   0  0  0  0  0  0  0  0  0  0  0  0
   47.4029  157.8063   30.8198 H   0  0  0  0  0  0  0  0  0  0  0  0
   47.2642  158.9552   29.4460 H   0  0  0  0  0  0  0  0  0  0  0  0
   48.5559  157.7070   29.4460 H   0  0  0  0  0  0  0  0  0  0  0  0
   48.2188  161.3559   31.3821 H   0  0  0  0  0  0  0  0  0  0  0  0
   49.1811  161.3244   29.8657 H   0  0  0  0  0  0  0  0  0  0  0  0
   47.4854  160.7319   29.8657 H   0  0  0  0  0  0  0  0  0  0  0  0
  1  2  1  0
  2  3  2  0
  3  4  1  0
  4  5  2  0
  5  6  1  0
  6  7  1  0
  7  8  1  0
  8  9  2  0
  9 10  1  0
 10 11  2  0
 11 12  1  0
 12 13  1  0
 12 14  2  0
 14 15  1  0
 15 16  2  0
 15 17  1  0
 17 18  1  0
  5 19  1  0
 19 20  2  0
 20 21  1  0
 21 22  1  0
 21 23  1  0
 21 24  1  0
 20  2  1  0
 17  6  2  0
 14  8  1  0
  1 25  1  0
  1 26  1  0
  1 27  1  0
  3 28  1  0
  4 29  1  0
  9 30  1  0
 10 31  1  0
 11 32  1  0
 13 33  1  0
 18 34  1  0
 19 35  1  0
 22 36  1  0
 22 37  1  0
 22 38  1  0
 23 39  1  0
 23 40  1  0
 23 41  1  0
 24 42  1  0
 24 43  1  0
 24 44  1  0
M  END
>  <meeko>  (2) 
{"is_sidechain": [false], "free_energy": -10.254, "intermolecular_energy": -11.899, "internal_energy": -0.067}

$$$$
cand_027_out
     RDKit          3D

 44 46  0  0  0  0  0  0  0  0999 V2000
   53.5970  152.4870   26.7330 C   0  0  0  0  0  0  0  0  0  0  0  0
   52.9970  153.7360   27.3210 C   0  0  0  0  0  0  0  0  0  0  0  0
   52.3670  153.5700   28.5750 C   0  0  0  0  0  0  0  0  0  0  0  0
   51.7710  154.6330   29.2460 C   0  0  0  0  0  0  0  0  0  0  0  0
   51.7900  155.9050   28.6880 C   0  0  0  0  0  0  0  0  0  0  0  0
   51.1540  157.0590   29.3600 C   0  0  0  0  0  0  0  0  0  0  0  0
   52.0460  158.0960   29.6120 O   0  0  0  0  0  0  0  0  0  0  0  0
   51.5880  159.2280   30.2340 C   0  0  0  0  0  0  0  0  0  0  0  0
   52.5150  160.2480   30.4560 C   0  0  0  0  0  0  0  0  0  0  0  0
   52.1150  161.4280   31.0870 C   0  0  0  0  0  0  0  0  0  0  0  0
   50.7890  161.5880   31.4960 C   0  0  0  0  0  0  0  0  0  0  0  0
   49.8670  160.5680   31.2740 C   0  0  0  0  0  0  0  0  0  0  0  0
   48.5860  160.7910   31.7010 O   0  0  0  0  0  0  0  0  0  0  0  0
   50.2670  159.3880   30.6420 C   0  0  0  0  0  0  0  0  0  0  0  0
   49.3310  158.2930   30.3900 C   0  0  0  0  0  0  0  0  0  0  0  0
   48.1500  158.3560   30.7260 O   0  0  0  0  0  0  0  0  0  0  0  0
   49.8540  157.0870   29.7080 C   0  0  0  0  0  0  0  0  0  0  0  0
   48.9640  156.0520   29.4870 O   0  0  0  0  0  0  0  0  0  0  0  0
   52.3940  156.0710   27.4280 C   0  0  0  0  0  0  0  0  0  0  0  0
   52.9960  155.0120   26.6980 C   0  0  0  0  0  0  0  0  0  0  0  0
   53.6330  155.3200   25.3150 C   0  0  0  0  0  0  0  0  0  0  0  0
   54.1060  156.7860   25.1800 C   0  0  0  0  0  0  0  0  0  0  0  0
   52.6130  154.9910   24.2050 C   0  0  0  0  0  0  0  0  0  0  0  0
   54.8990  154.4670   25.0160 C   0  0  0  0  0  0  0  0  0  0  0  0
   53.9186  151.8176   27.5445 H   0  0  0  0  0  0  0  0  0  0  0  0
   52.8459  151.9764   26.1124 H   0  0  0  0  0  0  0  0  0  0  0  0
   54.4650  152.7542   26.1124 H   0  0  0  0  0  0  0  0  0  0  0  0
   52.3473  152.5706   29.0342 H   0  0  0  0  0  0  0  0  0  0  0  0
   51.2847  154.4662   30.2185 H   0  0  0  0  0  0  0  0  0  0  0  0
   53.5594  160.1224   30.1343 H   0  0  0  0  0  0  0  0  0  0  0  0
   52.8449  162.2321   31.2621 H   0  0  0  0  0  0  0  0  0  0  0  0
   50.4737  162.5176   31.9924 H   0  0  0  0  0  0  0  0  0  0  0  0
   48.4300  161.1090   32.5680 H   0  0  0  0  0  0  0  0  0  0  0  0
   49.2670  155.2440   29.1230 H   0  0  0  0  0  0  0  0  0  0  0  0
   52.4002  157.0772   26.9836 H   0  0  0  0  0  0  0  0  0  0  0  0
   54.2460  157.2198   26.1811 H   0  0  0  0  0  0  0  0  0  0  0  0
   55.0590  156.8147   24.6314 H   0  0  0  0  0  0  0  0  0  0  0  0
   53.3495  157.3663   24.6314 H   0  0  0  0  0  0  0  0  0  0  0  0
   51.6606  154.6838   24.6616 H   0  0  0  0  0  0  0  0  0  0  0  0
   52.4499  155.8821   23.5810 H   0  0  0  0  0  0  0  0  0  0  0  0
   53.0013  154.1726   23.5810 H   0  0  0  0  0  0  0  0  0  0  0  0
   55.3627  154.1545   25.9633 H   0  0  0  0  0  0  0  0  0  0  0  0
   54.6129  153.5768   24.4366 H   0  0  0  0  0  0  0  0  0  0  0  0
   55.6166  155.0665   24.4366 H   0  0  0  0  0  0  0  0  0  0  0  0
  1  2  1  0
  2  3  2  0
  3  4  1  0
  4  5  2  0
  5  6  1  0
  6  7  1  0
  7  8  1  0
  8  9  2  0
  9 10  1  0
 10 11  2  0
 11 12  1  0
 12 13  1  0
 12 14  2  0
 14 15  1  0
 15 16  2  0
 15 17  1  0
 17 18  1  0
  5 19  1  0
 19 20  2  0
 20 21  1  0
 21 22  1  0
 21 23  1  0
 21 24  1  0
 20  2  1  0
 17  6  2  0
 14  8  1  0
  1 25  1  0
  1 26  1  0
  1 27  1  0
  3 28  1  0
  4 29  1  0
  9 30  1  0
 10 31  1  0
 11 32  1  0
 13 33  1  0
 18 34  1  0
 19 35  1  0
 22 36  1  0
 22 37  1  0
 22 38  1  0
 23 39  1  0
 23 40  1  0
 23 41  1  0
 24 42  1  0
 24 43  1  0
 24 44  1  0
M  END
>  <meeko>  (3) 
{"is_sidechain": [false], "free_energy": -8.785, "intermolecular_energy": -10.342, "internal_energy": 0.102}

$$$$
cand_027_out
     RDKit          3D

 44 46  0  0  0  0  0  0  0  0999 V2000
   48.1430  159.3270   31.5900 C   0  0  0  0  0  0  0  0  0  0  0  0
   49.1500  158.5400   30.7930 C   0  0  0  0  0  0  0  0  0  0  0  0
   48.7390  157.2430   30.4150 C   0  0  0  0  0  0  0  0  0  0  0  0
   49.5590  156.3980   29.6720 C   0  0  0  0  0  0  0  0  0  0  0  0
   50.8190  156.8260   29.2750 C   0  0  0  0  0  0  0  0  0  0  0  0
   51.7280  155.9550   28.4990 C   0  0  0  0  0  0  0  0  0  0  0  0
   52.1690  156.5480   27.3210 O   0  0  0  0  0  0  0  0  0  0  0  0
   53.0170  155.8470   26.5030 C   0  0  0  0  0  0  0  0  0  0  0  0
   53.4440  156.4850   25.3370 C   0  0  0  0  0  0  0  0  0  0  0  0
   54.3080  155.8270   24.4590 C   0  0  0  0  0  0  0  0  0  0  0  0
   54.7430  154.5300   24.7450 C   0  0  0  0  0  0  0  0  0  0  0  0
   54.3150  153.8970   25.9090 C   0  0  0  0  0  0  0  0  0  0  0  0
   54.7790  152.6280   26.1270 O   0  0  0  0  0  0  0  0  0  0  0  0
   53.4520  154.5560   26.7880 C   0  0  0  0  0  0  0  0  0  0  0  0
   52.9780  153.9260   28.0200 C   0  0  0  0  0  0  0  0  0  0  0  0
   53.3110  152.7860   28.3380 O   0  0  0  0  0  0  0  0  0  0  0  0
   52.0690  154.7120   28.8870 C   0  0  0  0  0  0  0  0  0  0  0  0
   51.6170  154.1020   30.0420 O   0  0  0  0  0  0  0  0  0  0  0  0
   51.2430  158.1090   29.6700 C   0  0  0  0  0  0  0  0  0  0  0  0
   50.4500  158.9950   30.4450 C   0  0  0  0  0  0  0  0  0  0  0  0
   51.0270  160.3880   30.8190 C   0  0  0  0  0  0  0  0  0  0  0  0
   50.8730  160.7240   32.3200 C   0  0  0  0  0  0  0  0  0  0  0  0
   50.3330  161.4690   29.9640 C   0  0  0  0  0  0  0  0  0  0  0  0
   52.5520  160.5190   30.5380 C   0  0  0  0  0  0  0  0  0  0  0  0
   48.3302  159.1807   32.6640 H   0  0  0  0  0  0  0  0  0  0  0  0
   48.2347  160.3952   31.3440 H   0  0  0  0  0  0  0  0  0  0  0  0
   47.1286  158.9799   31.3440 H   0  0  0  0  0  0  0  0  0  0  0  0
   47.7418  156.8899   30.7164 H   0  0  0  0  0  0  0  0  0  0  0  0
   49.2088  155.3915   29.3995 H   0  0  0  0  0  0  0  0  0  0  0  0
   53.1003  157.5050   25.1100 H   0  0  0  0  0  0  0  0  0  0  0  0
   54.6465  156.3301   23.5413 H   0  0  0  0  0  0  0  0  0  0  0  0
   55.4217  154.0106   24.0524 H   0  0  0  0  0  0  0  0  0  0  0  0
   54.7760  152.2710   26.9920 H   0  0  0  0  0  0  0  0  0  0  0  0
   52.2110  153.6140   30.5770 H   0  0  0  0  0  0  0  0  0  0  0  0
   52.2443  158.4433   29.3609 H   0  0  0  0  0  0  0  0  0  0  0  0
   51.2560  159.8883   32.9240 H   0  0  0  0  0  0  0  0  0  0  0  0
   51.4432  161.6356   32.5520 H   0  0  0  0  0  0  0  0  0  0  0  0
   49.8102  160.8872   32.5520 H   0  0  0  0  0  0  0  0  0  0  0  0
   49.8577  162.2094   30.6242 H   0  0  0  0  0  0  0  0  0  0  0  0
   51.0791  161.9693   29.3292 H   0  0  0  0  0  0  0  0  0  0  0  0
   49.5675  160.9989   29.3292 H   0  0  0  0  0  0  0  0  0  0  0  0
   53.0979  160.5659   31.4918 H   0  0  0  0  0  0  0  0  0  0  0  0
   52.8949  159.6470   29.9618 H   0  0  0  0  0  0  0  0  0  0  0  0
   52.7412  161.4367   29.9618 H   0  0  0  0  0  0  0  0  0  0  0  0
  1  2  1  0
  2  3  2  0
  3  4  1  0
  4  5  2  0
  5  6  1  0
  6  7  1  0
  7  8  1  0
  8  9  2  0
  9 10  1  0
 10 11  2  0
 11 12  1  0
 12 13  1  0
 12 14  2  0
 14 15  1  0
 15 16  2  0
 15 17  1  0
 17 18  1  0
  5 19  1  0
 19 20  2  0
 20 21  1  0
 21 22  1  0
 21 23  1  0
 21 24  1  0
 20  2  1  0
 17  6  2  0
 14  8  1  0
  1 25  1  0
  1 26  1  0
  1 27  1  0
  3 28  1  0
  4 29  1  0
  9 30  1  0
 10 31  1  0
 11 32  1  0
 13 33  1  0
 18 34  1  0
 19 35  1  0
 22 36  1  0
 22 37  1  0
 22 38  1  0
 23 39  1  0
 23 40  1  0
 23 41  1  0
 24 42  1  0
 24 43  1  0
 24 44  1  0
M  END
>  <meeko>  (4) 
{"is_sidechain": [false], "free_energy": -8.571, "intermolecular_energy": -9.934, "internal_energy": -0.054}

$$$$
cand_027_out
     RDKit          3D

 44 46  0  0  0  0  0  0  0  0999 V2000
   49.4770  161.0870   31.6980 C   0  0  0  0  0  0  0  0  0  0  0  0
   50.1700  159.9770   30.9540 C   0  0  0  0  0  0  0  0  0  0  0  0
   49.3780  158.8350   30.7000 C   0  0  0  0  0  0  0  0  0  0  0  0
   49.8770  157.7300   30.0180 C   0  0  0  0  0  0  0  0  0  0  0  0
   51.1880  157.7310   29.5580 C   0  0  0  0  0  0  0  0  0  0  0  0
   51.7620  156.5710   28.8430 C   0  0  0  0  0  0  0  0  0  0  0  0
   52.3240  156.9160   27.6190 O   0  0  0  0  0  0  0  0  0  0  0  0
   52.8920  155.9330   26.8490 C   0  0  0  0  0  0  0  0  0  0  0  0
   53.4550  156.3260   25.6340 C   0  0  0  0  0  0  0  0  0  0  0  0
   54.0480  155.3740   24.8010 C   0  0  0  0  0  0  0  0  0  0  0  0
   54.0770  154.0310   25.1830 C   0  0  0  0  0  0  0  0  0  0  0  0
   53.5150  153.6430   26.3960 C   0  0  0  0  0  0  0  0  0  0  0  0
   53.5780  152.3110   26.7070 O   0  0  0  0  0  0  0  0  0  0  0  0
   52.9220  154.5940   27.2290 C   0  0  0  0  0  0  0  0  0  0  0  0
   52.3200  154.2280   28.5110 C   0  0  0  0  0  0  0  0  0  0  0  0
   52.3010  153.0670   28.9130 O   0  0  0  0  0  0  0  0  0  0  0  0
   51.7220  155.3140   29.3230 C   0  0  0  0  0  0  0  0  0  0  0  0
   51.1430  154.9550   30.5260 O   0  0  0  0  0  0  0  0  0  0  0  0
   51.9880  158.8560   29.8290 C   0  0  0  0  0  0  0  0  0  0  0  0
   51.5280  159.9960   30.5390 C   0  0  0  0  0  0  0  0  0  0  0  0
   52.5070  161.1790   30.7760 C   0  0  0  0  0  0  0  0  0  0  0  0
   53.9780  160.8180   30.4670 C   0  0  0  0  0  0  0  0  0  0  0  0
   52.3780  161.6560   32.2380 C   0  0  0  0  0  0  0  0  0  0  0  0
   52.2070  162.4170   29.8820 C   0  0  0  0  0  0  0  0  0  0  0  0
   49.5797  160.9226   32.7808 H   0  0  0  0  0  0  0  0  0  0  0  0
   49.9343  162.0504   31.4284 H   0  0  0  0  0  0  0  0  0  0  0  0
   48.4106  161.0991   31.4284 H   0  0  0  0  0  0  0  0  0  0  0  0
   48.3359  158.8191   31.0519 H   0  0  0  0  0  0  0  0  0  0  0  0
   49.2335  156.8552   29.8429 H   0  0  0  0  0  0  0  0  0  0  0  0
   53.4319  157.3837   25.3327 H   0  0  0  0  0  0  0  0  0  0  0  0
   54.4925  155.6825   23.8433 H   0  0  0  0  0  0  0  0  0  0  0  0
   54.5430  153.2813   24.5267 H   0  0  0  0  0  0  0  0  0  0  0  0
   53.6380  152.0420   27.6020 H   0  0  0  0  0  0  0  0  0  0  0  0
   51.1280  155.5640   31.2380 H   0  0  0  0  0  0  0  0  0  0  0  0
   53.0280  158.8521   29.4708 H   0  0  0  0  0  0  0  0  0  0  0  0
   54.5282  160.6830   31.4099 H   0  0  0  0  0  0  0  0  0  0  0  0
   54.0122  159.8848   29.8856 H   0  0  0  0  0  0  0  0  0  0  0  0
   54.4403  161.6293   29.8856 H   0  0  0  0  0  0  0  0  0  0  0  0
   52.6038  160.8209   32.9174 H   0  0  0  0  0  0  0  0  0  0  0  0
   53.0861  162.4780   32.4193 H   0  0  0  0  0  0  0  0  0  0  0  0
   51.3521  162.0091   32.4193 H   0  0  0  0  0  0  0  0  0  0  0  0
   51.9960  163.2877   30.5203 H   0  0  0  0  0  0  0  0  0  0  0  0
   53.0794  162.6307   29.2469 H   0  0  0  0  0  0  0  0  0  0  0  0
   51.3336  162.2077   29.2469 H   0  0  0  0  0  0  0  0  0  0  0  0
  1  2  1  0
  2  3  2  0
  3  4  1  0
  4  5  2  0
  5  6  1  0
  6  7  1  0
  7  8  1  0
  8  9  2  0
  9 10  1  0
 10 11  2  0
 11 12  1  0
 12 13  1  0
 12 14  2  0
 14 15  1  0
 15 16  2  0
 15 17  1  0
 17 18  1  0
  5 19  1  0
 19 20  2  0
 20 21  1  0
 21 22  1  0
 21 23  1  0
 21 24  1  0
 20  2  1  0
 17  6  2  0
 14  8  1  0
  1 25  1  0
  1 26  1  0
  1 27  1  0
  3 28  1  0
  4 29  1  0
  9 30  1  0
 10 31  1  0
 11 32  1  0
 13 33  1  0
 18 34  1  0
 19 35  1  0
 22 36  1  0
 22 37  1  0
 22 38  1  0
 23 39  1  0
 23 40  1  0
 23 41  1  0
 24 42  1  0
 24 43  1  0
 24 44  1  0
M  END
>  <meeko>  (5) 
{"is_sidechain": [false], "free_energy": -7.293, "intermolecular_energy": -8.587, "internal_energy": 0.1}

$$$$
