cand_022_out
     RDKit          3D

 41 43  0  0  0  0  0  0  0  0999 V2000
   55.3450  153.9580   24.5100 C   0  0  0  0  0  0  0  0  0  0  0  0
   54.4880  155.1620   24.8670 C   0  0  0  0  0  0  0  0  0  0  0  0
   53.0100  154.7830   24.9750 C   0  0  0  0  0  0  0  0  0  0  0  0
   52.5590  154.6910   26.4160 C   0  0  0  0  0  0  0  0  0  0  0  0
   52.2710  155.8890   27.1020 C   0  0  0  0  0  0  0  0  0  0  0  0
   51.8680  155.8930   28.4440 C   0  0  0  0  0  0  0  0  0  0  0  0
   51.5400  157.1450   29.1560 C   0  0  0  0  0  0  0  0  0  0  0  0
   50.2290  157.1770   29.6180 O   0  0  0  0  0  0  0  0  0  0  0  0
   49.7930  158.2850   30.2990 C   0  0  0  0  0  0  0  0  0  0  0  0
   48.4650  158.2810   30.7310 C   0  0  0  0  0  0  0  0  0  0  0  0
   47.9580  159.3770   31.4310 C   0  0  0  0  0  0  0  0  0  0  0  0
   48.7750  160.4770   31.6990 C   0  0  0  0  0  0  0  0  0  0  0  0
   50.0990  160.4790   31.2670 C   0  0  0  0  0  0  0  0  0  0  0  0
   50.8440  161.5870   31.5630 O   0  0  0  0  0  0  0  0  0  0  0  0
   50.6070  159.3810   30.5650 C   0  0  0  0  0  0  0  0  0  0  0  0
   51.9920  159.3430   30.0930 C   0  0  0  0  0  0  0  0  0  0  0  0
   52.7740  160.2690   30.2960 O   0  0  0  0  0  0  0  0  0  0  0  0
   52.4290  158.1370   29.3530 C   0  0  0  0  0  0  0  0  0  0  0  0
   53.7430  158.1060   28.9230 O   0  0  0  0  0  0  0  0  0  0  0  0
   51.7370  154.6640   29.0990 C   0  0  0  0  0  0  0  0  0  0  0  0
   52.0230  153.4670   28.4370 C   0  0  0  0  0  0  0  0  0  0  0  0
   52.4440  153.4650   27.0980 C   0  0  0  0  0  0  0  0  0  0  0  0
   52.7340  152.1500   26.4290 C   0  0  0  0  0  0  0  0  0  0  0  0
   55.6929  153.4692   25.4320 H   0  0  0  0  0  0  0  0  0  0  0  0
   54.7494  153.2460   23.9199 H   0  0  0  0  0  0  0  0  0  0  0  0
   56.2128  154.2876   23.9199 H   0  0  0  0  0  0  0  0  0  0  0  0
   54.8249  155.5674   25.8325 H   0  0  0  0  0  0  0  0  0  0  0  0
   54.5956  155.9121   24.0696 H   0  0  0  0  0  0  0  0  0  0  0  0
   52.4078  155.5468   24.4612 H   0  0  0  0  0  0  0  0  0  0  0  0
   52.8748  153.7953   24.5100 H   0  0  0  0  0  0  0  0  0  0  0  0
   52.3653  156.8466   26.5689 H   0  0  0  0  0  0  0  0  0  0  0  0
   47.8196  157.4156   30.5200 H   0  0  0  0  0  0  0  0  0  0  0  0
   46.9123  159.3741   31.7723 H   0  0  0  0  0  0  0  0  0  0  0  0
   48.3738  161.3403   32.2502 H   0  0  0  0  0  0  0  0  0  0  0  0
   50.6010  162.1360   32.2810 H   0  0  0  0  0  0  0  0  0  0  0  0
   54.4340  157.9530   29.5370 H   0  0  0  0  0  0  0  0  0  0  0  0
   51.4050  154.6395   30.1474 H   0  0  0  0  0  0  0  0  0  0  0  0
   51.9166  152.5124   28.9731 H   0  0  0  0  0  0  0  0  0  0  0  0
   52.9041  151.3787   27.1947 H   0  0  0  0  0  0  0  0  0  0  0  0
   51.8780  151.8612   25.8015 H   0  0  0  0  0  0  0  0  0  0  0  0
   53.6321  152.2480   25.8015 H   0  0  0  0  0  0  0  0  0  0  0  0
  1  2  1  0
  2  3  1  0
  3  4  1  0
  4  5  2  0
  5  6  1  0
  6  7  1  0
  7  8  1  0
  8  9  1  0
  9 10  2  0
 10 11  1  0
 11 12  2  0
 12 13  1  0
 13 14  1  0
 13 15  2  0
 15 16  1  0
 16 17  2  0
 16 18  1  0
 18 19  1  0
  6 20  2  0
 20 21  1  0
 21 22  2  0
 22 23  1  0
 22  4  1  0
 18  7  2  0
 15  9  1  0
  1 24  1  0
  1 25  1  0
  1 26  1  0
  2 27  1  0
  2 28  1  0
  3 29  1  0
  3 30  1  0
  5 31  1  0
 10 32  1  0
 11 33  1  0
 12 34  1  0
 14 35  1  0
 19 36  1  0
 20 37  1  0
 21 38  1  0
 23 39  1  0
 23 40  1  0
 23 41  1  0
M  END
>  <meeko>  (1) 
{"is_sidechain": [false], "free_energy": -10.007, "intermolecular_energy": -12.347, "internal_energy": -0.562}

$$$$
cand_022_out
     RDKit          3D

 41 43  0  0  0  0  0  0  0  0999 V2000
   46.6880  160.0870   31.5270 C   0  0  0  0  0  0  0  0  0  0  0  0
   47.6440  159.3860   30.5760 C   0  0  0  0  0  0  0  0  0  0  0  0
   48.6720  158.5460   31.3360 C   0  0  0  0  0  0  0  0  0  0  0  0
   50.0180  158.5470   30.6440 C   0  0  0  0  0  0  0  0  0  0  0  0
   50.4050  157.3910   29.9360 C   0  0  0  0  0  0  0  0  0  0  0  0
   51.6430  157.3030   29.2860 C   0  0  0  0  0  0  0  0  0  0  0  0
   52.0390  156.1020   28.5210 C   0  0  0  0  0  0  0  0  0  0  0  0
   52.5630  156.4070   27.2700 O   0  0  0  0  0  0  0  0  0  0  0  0
   52.9710  155.3820   26.4550 C   0  0  0  0  0  0  0  0  0  0  0  0
   53.4770  155.7320   25.2020 C   0  0  0  0  0  0  0  0  0  0  0  0
   53.9110  154.7380   24.3230 C   0  0  0  0  0  0  0  0  0  0  0  0
   53.8400  153.3940   24.6960 C   0  0  0  0  0  0  0  0  0  0  0  0
   53.3360  153.0470   25.9460 C   0  0  0  0  0  0  0  0  0  0  0  0
   53.2950  151.7140   26.2480 O   0  0  0  0  0  0  0  0  0  0  0  0
   52.9000  154.0430   26.8260 C   0  0  0  0  0  0  0  0  0  0  0  0
   52.3620  153.7210   28.1490 C   0  0  0  0  0  0  0  0  0  0  0  0
   52.2750  152.5630   28.5510 O   0  0  0  0  0  0  0  0  0  0  0  0
   51.9210  154.8490   29.0000 C   0  0  0  0  0  0  0  0  0  0  0  0
   51.4270  154.5350   30.2530 O   0  0  0  0  0  0  0  0  0  0  0  0
   52.4980  158.4080   29.3390 C   0  0  0  0  0  0  0  0  0  0  0  0
   52.1340  159.5610   30.0410 C   0  0  0  0  0  0  0  0  0  0  0  0
   50.9010  159.6420   30.7060 C   0  0  0  0  0  0  0  0  0  0  0  0
   50.5540  160.9060   31.4420 C   0  0  0  0  0  0  0  0  0  0  0  0
   46.9807  159.8724   32.5654 H   0  0  0  0  0  0  0  0  0  0  0  0
   46.7268  161.1723   31.3520 H   0  0  0  0  0  0  0  0  0  0  0  0
   45.6646  159.7237   31.3520 H   0  0  0  0  0  0  0  0  0  0  0  0
   47.0672  158.7283   29.9091 H   0  0  0  0  0  0  0  0  0  0  0  0
   48.1820  160.1525   29.9989 H   0  0  0  0  0  0  0  0  0  0  0  0
   48.7915  158.9592   32.3484 H   0  0  0  0  0  0  0  0  0  0  0  0
   48.3068  157.5091   31.3737 H   0  0  0  0  0  0  0  0  0  0  0  0
   49.7160  156.5346   29.8927 H   0  0  0  0  0  0  0  0  0  0  0  0
   53.5337  156.7903   24.9074 H   0  0  0  0  0  0  0  0  0  0  0  0
   54.3094  155.0137   23.3354 H   0  0  0  0  0  0  0  0  0  0  0  0
   54.1818  152.6111   24.0030 H   0  0  0  0  0  0  0  0  0  0  0  0
   53.9460  151.3400   26.8090 H   0  0  0  0  0  0  0  0  0  0  0  0
   51.7960  154.9350   31.0160 H   0  0  0  0  0  0  0  0  0  0  0  0
   53.4684  158.3698   28.8224 H   0  0  0  0  0  0  0  0  0  0  0  0
   52.8241  160.4170   30.0725 H   0  0  0  0  0  0  0  0  0  0  0  0
   50.6038  160.7247   32.5258 H   0  0  0  0  0  0  0  0  0  0  0  0
   51.2683  161.6969   31.1694 H   0  0  0  0  0  0  0  0  0  0  0  0
   49.5361  161.2214   31.1694 H   0  0  0  0  0  0  0  0  0  0  0  0
  1  2  1  0
  2  3  1  0
  3  4  1  0
  4  5  2  0
  5  6  1  0
  6  7  1  0
  7  8  1  0
  8  9  1  0
  9 10  2  0
 10 11  1  0
 11 12  2  0
 12 13  1  0
 13 14  1  0
 13 15  2  0
 15 16  1  0
 16 17  2  0
 16 18  1  0
 18 19  1  0
  6 20  2  0
 20 21  1  0
 21 22  2  0
 22 23  1  0
 22  4  1  0
 18  7  2  0
 15  9  1  0
  1 24  1  0
  1 25  1  0
  1 26  1  0
  2 27  1  0
  2 28  1  0
  3 29  1  0
  3 30  1  0
  5 31  1  0
 10 32  1  0
 11 33  1  0
 12 34  1  0
 14 35  1  0
 19 36  1  0
 20 37  1  0
 21 38  1  0
 23 39  1  0
 23 40  1  0
 23 41  1  0
M  END
>  <meeko>  (2) 
{"is_sidechain": [false], "free_energy": -9.875, "intermolecular_energy": -12.526, "internal_energy": -0.22}

$$$$
cand_022_out
     RDKit          3D

 41 43  0  0  0  0  0  0  0  0999 V2000
   53.9570  162.2500   31.0480 C   0  0  0  0  0  0  0  0  0  0  0  0
   52.9340  161.1760   31.3820 C   0  0  0  0  0  0  0  0  0  0  0  0
   51.7660  161.1910   30.3930 C   0  0  0  0  0  0  0  0  0  0  0  0
   51.0560  159.8560   30.3450 C   0  0  0  0  0  0  0  0  0  0  0  0
   51.6640  158.8020   29.6330 C   0  0  0  0  0  0  0  0  0  0  0  0
   51.0610  157.5410   29.5220 C   0  0  0  0  0  0  0  0  0  0  0  0
   51.7090  156.4290   28.7980 C   0  0  0  0  0  0  0  0  0  0  0  0
   52.2840  156.8270   27.5970 O   0  0  0  0  0  0  0  0  0  0  0  0
   52.9210  155.8900   26.8230 C   0  0  0  0  0  0  0  0  0  0  0  0
   53.4710  156.3320   25.6180 C   0  0  0  0  0  0  0  0  0  0  0  0
   54.1340  155.4300   24.7840 C   0  0  0  0  0  0  0  0  0  0  0  0
   54.2480  154.0880   25.1530 C   0  0  0  0  0  0  0  0  0  0  0  0
   53.6990  153.6510   26.3560 C   0  0  0  0  0  0  0  0  0  0  0  0
   53.8480  152.3250   26.6570 O   0  0  0  0  0  0  0  0  0  0  0  0
   53.0350  154.5540   27.1910 C   0  0  0  0  0  0  0  0  0  0  0  0
   52.4430  154.1350   28.4630 C   0  0  0  0  0  0  0  0  0  0  0  0
   52.5090  152.9730   28.8590 O   0  0  0  0  0  0  0  0  0  0  0  0
   51.7540  155.1680   29.2690 C   0  0  0  0  0  0  0  0  0  0  0  0
   51.2100  154.7640   30.4750 O   0  0  0  0  0  0  0  0  0  0  0  0
   49.8320  157.3380   30.1580 C   0  0  0  0  0  0  0  0  0  0  0  0
   49.2120  158.3720   30.8640 C   0  0  0  0  0  0  0  0  0  0  0  0
   49.8070  159.6390   30.9600 C   0  0  0  0  0  0  0  0  0  0  0  0
   49.1020  160.7170   31.7360 C   0  0  0  0  0  0  0  0  0  0  0  0
   54.3608  162.6740   31.9792 H   0  0  0  0  0  0  0  0  0  0  0  0
   54.7755  161.8071   30.4616 H   0  0  0  0  0  0  0  0  0  0  0  0
   53.4748  163.0460   30.4616 H   0  0  0  0  0  0  0  0  0  0  0  0
   53.4231  160.1914   31.3435 H   0  0  0  0  0  0  0  0  0  0  0  0
   52.5381  161.3758   32.3886 H   0  0  0  0  0  0  0  0  0  0  0  0
   51.0482  161.9656   30.7008 H   0  0  0  0  0  0  0  0  0  0  0  0
   52.1679  161.4017   29.3910 H   0  0  0  0  0  0  0  0  0  0  0  0
   52.6380  158.9735   29.1514 H   0  0  0  0  0  0  0  0  0  0  0  0
   53.3820  157.3889   25.3265 H   0  0  0  0  0  0  0  0  0  0  0  0
   54.5674  155.7770   23.8344 H   0  0  0  0  0  0  0  0  0  0  0  0
   54.7702  153.3778   24.4951 H   0  0  0  0  0  0  0  0  0  0  0  0
   54.5930  151.8530   26.3400 H   0  0  0  0  0  0  0  0  0  0  0  0
   51.6690  154.9310   31.2750 H   0  0  0  0  0  0  0  0  0  0  0  0
   49.3475  156.3520   30.1017 H   0  0  0  0  0  0  0  0  0  0  0  0
   48.2430  158.1900   31.3518 H   0  0  0  0  0  0  0  0  0  0  0  0
   49.2230  160.5319   32.8135 H   0  0  0  0  0  0  0  0  0  0  0  0
   49.5353  161.6954   31.4811 H   0  0  0  0  0  0  0  0  0  0  0  0
   48.0320  160.7122   31.4811 H   0  0  0  0  0  0  0  0  0  0  0  0
  1  2  1  0
  2  3  1  0
  3  4  1  0
  4  5  2  0
  5  6  1  0
  6  7  1  0
  7  8  1  0
  8  9  1  0
  9 10  2  0
 10 11  1  0
 11 12  2  0
 12 13  1  0
 13 14  1  0
 13 15  2  0
 15 16  1  0
 16 17  2  0
 16 18  1  0
 18 19  1  0
  6 20  2  0
 20 21  1  0
 21 22  2  0
 22 23  1  0
 22  4  1  0
 18  7  2  0
 15  9  1  0
  1 24  1  0
  1 25  1  0
  1 26  1  0
  2 27  1  0
  2 28  1  0
  3 29  1  0
  3 30  1  0
  5 31  1  0
 10 32  1  0
 11 33  1  0
 12 34  1  0
 14 35  1  0
 19 36  1  0
 20 37  1  0
 21 38  1  0
 23 39  1  0
 23 40  1  0
 23 41  1  0
M  END
>  <meeko>  (3) 
{"is_sidechain": [false], "free_energy": -9.633, "intermolecular_energy": -12.234, "internal_energy": -0.214}

$$$$
cand_022_out
     RDKit          3D

 41 43  0  0  0  0  0  0  0  0999 V2000
   55.1220  156.7250   24.3640 C   0  0  0  0  0  0  0  0  0  0  0  0
   53.8300  156.6700   25.1640 C   0  0  0  0  0  0  0  0  0  0  0  0
   53.3490  155.2290   25.3480 C   0  0  0  0  0  0  0  0  0  0  0  0
   52.7890  154.9990   26.7350 C   0  0  0  0  0  0  0  0  0  0  0  0
   52.2320  156.0980   27.4200 C   0  0  0  0  0  0  0  0  0  0  0  0
   51.7110  155.9740   28.7160 C   0  0  0  0  0  0  0  0  0  0  0  0
   51.1040  157.1190   29.4240 C   0  0  0  0  0  0  0  0  0  0  0  0
   52.0040  158.1540   29.6510 O   0  0  0  0  0  0  0  0  0  0  0  0
   51.5700  159.2800   30.3020 C   0  0  0  0  0  0  0  0  0  0  0  0
   52.5110  160.2880   30.5220 C   0  0  0  0  0  0  0  0  0  0  0  0
   52.1340  161.4620   31.1770 C   0  0  0  0  0  0  0  0  0  0  0  0
   50.8170  161.6300   31.6120 C   0  0  0  0  0  0  0  0  0  0  0  0
   49.8810  160.6230   31.3910 C   0  0  0  0  0  0  0  0  0  0  0  0
   48.6100  160.8520   31.8420 O   0  0  0  0  0  0  0  0  0  0  0  0
   50.2590  159.4480   30.7360 C   0  0  0  0  0  0  0  0  0  0  0  0
   49.3050  158.3650   30.4840 C   0  0  0  0  0  0  0  0  0  0  0  0
   48.1280  158.4420   30.8300 O   0  0  0  0  0  0  0  0  0  0  0  0
   49.8080  157.1590   29.7890 C   0  0  0  0  0  0  0  0  0  0  0  0
   48.8960  156.1480   29.5450 O   0  0  0  0  0  0  0  0  0  0  0  0
   51.7380  154.7140   29.3210 C   0  0  0  0  0  0  0  0  0  0  0  0
   52.2900  153.6140   28.6590 C   0  0  0  0  0  0  0  0  0  0  0  0
   52.8280  153.7420   27.3690 C   0  0  0  0  0  0  0  0  0  0  0  0
   53.4050  152.5270   26.6980 C   0  0  0  0  0  0  0  0  0  0  0  0
   55.9787  156.7615   25.0531 H   0  0  0  0  0  0  0  0  0  0  0  0
   55.1992  155.8293   23.7301 H   0  0  0  0  0  0  0  0  0  0  0  0
   55.1228  157.6240   23.7301 H   0  0  0  0  0  0  0  0  0  0  0  0
   54.0021  157.1191   26.1533 H   0  0  0  0  0  0  0  0  0  0  0  0
   53.0571  157.2255   24.6126 H   0  0  0  0  0  0  0  0  0  0  0  0
   52.5640  155.0178   24.6070 H   0  0  0  0  0  0  0  0  0  0  0  0
   54.2109  154.5595   25.2106 H   0  0  0  0  0  0  0  0  0  0  0  0
   52.2053  157.0796   26.9243 H   0  0  0  0  0  0  0  0  0  0  0  0
   53.5482  160.1572   30.1796 H   0  0  0  0  0  0  0  0  0  0  0  0
   52.8752  162.2560   31.3508 H   0  0  0  0  0  0  0  0  0  0  0  0
   50.5203  162.5552   32.1277 H   0  0  0  0  0  0  0  0  0  0  0  0
   48.4460  160.9300   32.7620 H   0  0  0  0  0  0  0  0  0  0  0  0
   48.7960  155.4490   30.1600 H   0  0  0  0  0  0  0  0  0  0  0  0
   51.3197  154.5869   30.3304 H   0  0  0  0  0  0  0  0  0  0  0  0
   52.3030  152.6330   29.1565 H   0  0  0  0  0  0  0  0  0  0  0  0
   53.7443  151.8124   27.4623 H   0  0  0  0  0  0  0  0  0  0  0  0
   52.6351  152.0544   26.0703 H   0  0  0  0  0  0  0  0  0  0  0  0
   54.2578  152.8250   26.0703 H   0  0  0  0  0  0  0  0  0  0  0  0
  1  2  1  0
  2  3  1  0
  3  4  1  0
  4  5  2  0
  5  6  1  0
  6  7  1  0
  7  8  1  0
  8  9  1  0
  9 10  2  0
 10 11  1  0
 11 12  2  0
 12 13  1  0
 13 14  1  0
 13 15  2  0
 15 16  1  0
 16 17  2  0
 16 18  1  0
 18 19  1  0
  6 20  2  0
 20 21  1  0
 21 22  2  0
 22 23  1  0
 22  4  1  0
 18  7  2  0
 15  9  1  0
  1 24  1  0
  1 25  1  0
  1 26  1  0
  2 27  1  0
  2 28  1  0
  3 29  1  0
  3 30  1  0
  5 31  1  0
 10 32  1  0
 11 33  1  0
 12 34  1  0
 14 35  1  0
 19 36  1  0
 20 37  1  0
 21 38  1  0
 23 39  1  0
 23 40  1  0
 23 41  1  0
M  END
>  <meeko>  (4) 
{"is_sidechain": [false], "free_energy": -8.7, "intermolecular_energy": -10.855, "internal_energy": -0.442}

$$$$
cand_022_out
     RDKit          3D

 41 43  0  0  0  0  0  0  0  0999 V2000
   50.8990  161.2740   31.2310 C   0  0  0  0  0  0  0  0  0  0  0  0
   50.7710  160.3210   30.0530 C   0  0  0  0  0  0  0  0  0  0  0  0
   51.8620  159.2490   30.0810 C   0  0  0  0  0  0  0  0  0  0  0  0
   51.3340  157.9020   29.6380 C   0  0  0  0  0  0  0  0  0  0  0  0
   52.0690  157.1830   28.6730 C   0  0  0  0  0  0  0  0  0  0  0  0
   51.6370  155.9380   28.1940 C   0  0  0  0  0  0  0  0  0  0  0  0
   52.4190  155.1710   27.2030 C   0  0  0  0  0  0  0  0  0  0  0  0
   52.1460  153.8090   27.2350 O   0  0  0  0  0  0  0  0  0  0  0  0
   52.8050  152.9790   26.3640 C   0  0  0  0  0  0  0  0  0  0  0  0
   52.5110  151.6160   26.4420 C   0  0  0  0  0  0  0  0  0  0  0  0
   53.1460  150.7170   25.5830 C   0  0  0  0  0  0  0  0  0  0  0  0
   54.0730  151.1780   24.6460 C   0  0  0  0  0  0  0  0  0  0  0  0
   54.3640  152.5380   24.5710 C   0  0  0  0  0  0  0  0  0  0  0  0
   55.2810  152.9220   23.6310 O   0  0  0  0  0  0  0  0  0  0  0  0
   53.7290  153.4380   25.4320 C   0  0  0  0  0  0  0  0  0  0  0  0
   54.0070  154.8750   25.3850 C   0  0  0  0  0  0  0  0  0  0  0  0
   54.8050  155.3570   24.5840 O   0  0  0  0  0  0  0  0  0  0  0  0
   53.2870  155.7420   26.3450 C   0  0  0  0  0  0  0  0  0  0  0  0
   53.5470  157.0980   26.2840 O   0  0  0  0  0  0  0  0  0  0  0  0
   50.4530  155.4040   28.7120 C   0  0  0  0  0  0  0  0  0  0  0  0
   49.7100  156.1050   29.6650 C   0  0  0  0  0  0  0  0  0  0  0  0
   50.1320  157.3590   30.1310 C   0  0  0  0  0  0  0  0  0  0  0  0
   49.2990  158.0700   31.1620 C   0  0  0  0  0  0  0  0  0  0  0  0
   50.8229  160.7075   32.1709 H   0  0  0  0  0  0  0  0  0  0  0  0
   51.8735  161.7824   31.1872 H   0  0  0  0  0  0  0  0  0  0  0  0
   50.0932  162.0215   31.1872 H   0  0  0  0  0  0  0  0  0  0  0  0
   49.7869  159.8312   30.0942 H   0  0  0  0  0  0  0  0  0  0  0  0
   50.8797  160.9013   29.1249 H   0  0  0  0  0  0  0  0  0  0  0  0
   52.6768  159.5518   29.4069 H   0  0  0  0  0  0  0  0  0  0  0  0
   52.2220  159.1529   31.1160 H   0  0  0  0  0  0  0  0  0  0  0  0
   53.0059  157.6100   28.2858 H   0  0  0  0  0  0  0  0  0  0  0  0
   51.7804  151.2513   27.1790 H   0  0  0  0  0  0  0  0  0  0  0  0
   52.9155  149.6432   25.6445 H   0  0  0  0  0  0  0  0  0  0  0  0
   54.5720  150.4690   23.9690 H   0  0  0  0  0  0  0  0  0  0  0  0
   55.0160  153.4610   22.9110 H   0  0  0  0  0  0  0  0  0  0  0  0
   53.6590  157.5170   25.4530 H   0  0  0  0  0  0  0  0  0  0  0  0
   50.1026  154.4207   28.3651 H   0  0  0  0  0  0  0  0  0  0  0  0
   48.7798  155.6669   30.0559 H   0  0  0  0  0  0  0  0  0  0  0  0
   49.6366  157.7818   32.1685 H   0  0  0  0  0  0  0  0  0  0  0  0
   49.4087  159.1572   31.0358 H   0  0  0  0  0  0  0  0  0  0  0  0
   48.2425  157.7910   31.0358 H   0  0  0  0  0  0  0  0  0  0  0  0
  1  2  1  0
  2  3  1  0
  3  4  1  0
  4  5  2  0
  5  6  1  0
  6  7  1  0
  7  8  1  0
  8  9  1  0
  9 10  2  0
 10 11  1  0
 11 12  2  0
 12 13  1  0
 13 14  1  0
 13 15  2  0
 15 16  1  0
 16 17  2  0
 16 18  1  0
 18 19  1  0
  6 20  2  0
 20 21  1  0
 21 22  2  0
 22 23  1  0
 22  4  1  0
 18  7  2  0
 15  9  1  0
  1 24  1  0
  1 25  1  0
  1 26  1  0
  2 27  1  0
  2 28  1  0
  3 29  1  0
  3 30  1  0
  5 31  1  0
 10 32  1  0
 11 33  1  0
 12 34  1  0
 14 35  1  0
 19 36  1  0
 20 37  1  0
 21 38  1  0
 23 39  1  0
 23 40  1  0
 23 41  1  0
M  END
>  <meeko>  (5) 
{"is_sidechain": [false], "free_energy": -7.982, "intermolecular_energy": -11.033, "internal_energy": 0.623}

$$$$
cand_022_out
     RDKit          3D

 41 43  0  0  0  0  0  0  0  0999 V2000
   51.1810  161.3810   31.3990 C   0  0  0  0  0  0  0  0  0  0  0  0
   50.9440  160.4750   30.2010 C   0  0  0  0  0  0  0  0  0  0  0  0
   51.9550  159.3270   30.1610 C   0  0  0  0  0  0  0  0  0  0  0  0
   51.2980  158.0160   29.7850 C   0  0  0  0  0  0  0  0  0  0  0  0
   51.9820  157.1580   28.8990 C   0  0  0  0  0  0  0  0  0  0  0  0
   51.4340  155.9370   28.4840 C   0  0  0  0  0  0  0  0  0  0  0  0
   52.1610  155.0250   27.5770 C   0  0  0  0  0  0  0  0  0  0  0  0
   52.9170  155.6980   26.6250 O   0  0  0  0  0  0  0  0  0  0  0  0
   53.6440  154.9690   25.7180 C   0  0  0  0  0  0  0  0  0  0  0  0
   54.3770  155.6870   24.7710 C   0  0  0  0  0  0  0  0  0  0  0  0
   55.1390  155.0060   23.8190 C   0  0  0  0  0  0  0  0  0  0  0  0
   55.1710  153.6100   23.8150 C   0  0  0  0  0  0  0  0  0  0  0  0
   54.4390  152.8970   24.7610 C   0  0  0  0  0  0  0  0  0  0  0  0
   54.5140  151.5320   24.7010 O   0  0  0  0  0  0  0  0  0  0  0  0
   53.6750  153.5790   25.7130 C   0  0  0  0  0  0  0  0  0  0  0  0
   52.8910  152.8680   26.7250 C   0  0  0  0  0  0  0  0  0  0  0  0
   52.8740  151.6400   26.7900 O   0  0  0  0  0  0  0  0  0  0  0  0
   52.1100  153.6830   27.6820 C   0  0  0  0  0  0  0  0  0  0  0  0
   51.3840  153.0020   28.6420 O   0  0  0  0  0  0  0  0  0  0  0  0
   50.1810  155.5690   28.9850 C   0  0  0  0  0  0  0  0  0  0  0  0
   49.4870  156.4090   29.8600 C   0  0  0  0  0  0  0  0  0  0  0  0
   50.0280  157.6400   30.2620 C   0  0  0  0  0  0  0  0  0  0  0  0
   49.2430  158.5050   31.2090 C   0  0  0  0  0  0  0  0  0  0  0  0
   51.0314  160.8090   32.3266 H   0  0  0  0  0  0  0  0  0  0  0  0
   52.2104  161.7674   31.3685 H   0  0  0  0  0  0  0  0  0  0  0  0
   50.4726  162.2220   31.3685 H   0  0  0  0  0  0  0  0  0  0  0  0
   49.9289  160.0560   30.2643 H   0  0  0  0  0  0  0  0  0  0  0  0
   51.0628  161.0732   29.2855 H   0  0  0  0  0  0  0  0  0  0  0  0
   52.7323  159.5620   29.4190 H   0  0  0  0  0  0  0  0  0  0  0  0
   52.3897  159.2173   31.1655 H   0  0  0  0  0  0  0  0  0  0  0  0
   52.9723  157.4553   28.5237 H   0  0  0  0  0  0  0  0  0  0  0  0
   54.3544  156.7868   24.7747 H   0  0  0  0  0  0  0  0  0  0  0  0
   55.7150  155.5704   23.0709 H   0  0  0  0  0  0  0  0  0  0  0  0
   55.7732  153.0746   23.0661 H   0  0  0  0  0  0  0  0  0  0  0  0
   54.9150  151.0550   25.4010 H   0  0  0  0  0  0  0  0  0  0  0  0
   51.7450  152.2390   29.0480 H   0  0  0  0  0  0  0  0  0  0  0  0
   49.7370  154.6078   28.6869 H   0  0  0  0  0  0  0  0  0  0  0  0
   48.5016  156.1006   30.2395 H   0  0  0  0  0  0  0  0  0  0  0  0
   49.4905  158.2323   32.2455 H   0  0  0  0  0  0  0  0  0  0  0  0
   49.4972  159.5613   31.0371 H   0  0  0  0  0  0  0  0  0  0  0  0
   48.1670  158.3542   31.0371 H   0  0  0  0  0  0  0  0  0  0  0  0
  1  2  1  0
  2  3  1  0
  3  4  1  0
  4  5  2  0
  5  6  1  0
  6  7  1  0
  7  8  1  0
  8  9  1  0
  9 10  2  0
 10 11  1  0
 11 12  2  0
 12 13  1  0
 13 14  1  0
 13 15  2  0
 15 16  1  0
 16 17  2  0
 16 18  1  0
 18 19  1  0
  6 20  2  0
 20 21  1  0
 21 22  2  0
 22 23  1  0
 22  4  1  0
 18  7  2  0
 15  9  1  0
  1 24  1  0
  1 25  1  0
  1 26  1  0
  2 27  1  0
  2 28  1  0
  3 29  1  0
  3 30  1  0
  5 31  1  0
 10 32  1  0
 11 33  1  0
 12 34  1  0
 14 35  1  0
 19 36  1  0
 20 37  1  0
 21 38  1  0
 23 39  1  0
 23 40  1  0
 23 41  1  0
M  END
>  <meeko>  (6) 
{"is_sidechain": [false], "free_energy": -7.853, "intermolecular_energy": -11.065, "internal_energy": 0.813}

$$$$
cand_022_out
     RDKit          3D

 41 43  0  0  0  0  0  0  0  0999 V2000
   51.5270  150.9470   28.1260 C   0  0  0  0  0  0  0  0  0  0  0  0
   51.5270  152.4100   27.7140 C   0  0  0  0  0  0  0  0  0  0  0  0
   51.9570  153.3150   28.8710 C   0  0  0  0  0  0  0  0  0  0  0  0
   52.1940  154.7370   28.4110 C   0  0  0  0  0  0  0  0  0  0  0  0
   51.7070  155.7880   29.2150 C   0  0  0  0  0  0  0  0  0  0  0  0
   51.8660  157.1320   28.8490 C   0  0  0  0  0  0  0  0  0  0  0  0
   51.3790  158.2340   29.7030 C   0  0  0  0  0  0  0  0  0  0  0  0
   50.0460  158.0880   30.0670 O   0  0  0  0  0  0  0  0  0  0  0  0
   49.4660  159.0450   30.8620 C   0  0  0  0  0  0  0  0  0  0  0  0
   48.1210  158.8660   31.1910 C   0  0  0  0  0  0  0  0  0  0  0  0
   47.4710  159.8020   31.9970 C   0  0  0  0  0  0  0  0  0  0  0  0
   48.1650  160.9150   32.4770 C   0  0  0  0  0  0  0  0  0  0  0  0
   49.5060  161.0910   32.1480 C   0  0  0  0  0  0  0  0  0  0  0  0
   50.1250  162.2030   32.6500 O   0  0  0  0  0  0  0  0  0  0  0  0
   50.1560  160.1540   31.3390 C   0  0  0  0  0  0  0  0  0  0  0  0
   51.5660  160.3020   30.9690 C   0  0  0  0  0  0  0  0  0  0  0  0
   52.2440  161.2510   31.3570 O   0  0  0  0  0  0  0  0  0  0  0  0
   52.1580  159.2580   30.1020 C   0  0  0  0  0  0  0  0  0  0  0  0
   53.4930  159.4010   29.7700 O   0  0  0  0  0  0  0  0  0  0  0  0
   52.5440  157.4180   27.6600 C   0  0  0  0  0  0  0  0  0  0  0  0
   53.0290  156.3890   26.8480 C   0  0  0  0  0  0  0  0  0  0  0  0
   52.8540  155.0430   27.2050 C   0  0  0  0  0  0  0  0  0  0  0  0
   53.4000  153.9740   26.3000 C   0  0  0  0  0  0  0  0  0  0  0  0
   52.5641  150.5941   28.2254 H   0  0  0  0  0  0  0  0  0  0  0  0
   51.0085  150.8375   29.0899 H   0  0  0  0  0  0  0  0  0  0  0  0
   51.0085  150.3506   27.3609 H   0  0  0  0  0  0  0  0  0  0  0  0
   52.2251  152.5457   26.8748 H   0  0  0  0  0  0  0  0  0  0  0  0
   50.5041  152.6870   27.4190 H   0  0  0  0  0  0  0  0  0  0  0  0
   51.1669  153.3149   29.6363 H   0  0  0  0  0  0  0  0  0  0  0  0
   52.9010  152.9247   29.2790 H   0  0  0  0  0  0  0  0  0  0  0  0
   51.1884  155.5469   30.1546 H   0  0  0  0  0  0  0  0  0  0  0  0
   47.5743  157.9884   30.8155 H   0  0  0  0  0  0  0  0  0  0  0  0
   46.4107  159.6629   32.2545 H   0  0  0  0  0  0  0  0  0  0  0  0
   47.6527  161.6512   33.1139 H   0  0  0  0  0  0  0  0  0  0  0  0
   50.9840  162.1330   33.0190 H   0  0  0  0  0  0  0  0  0  0  0  0
   54.1390  159.4670   30.4450 H   0  0  0  0  0  0  0  0  0  0  0  0
   52.6975  158.4652   27.3602 H   0  0  0  0  0  0  0  0  0  0  0  0
   53.5558  156.6379   25.9150 H   0  0  0  0  0  0  0  0  0  0  0  0
   53.8172  153.1573   26.9074 H   0  0  0  0  0  0  0  0  0  0  0  0
   52.5913  153.5827   25.6652 H   0  0  0  0  0  0  0  0  0  0  0  0
   54.1910  154.3998   25.6652 H   0  0  0  0  0  0  0  0  0  0  0  0
  1  2  1  0
  2  3  1  0
  3  4  1  0
  4  5  2  0
  5  6  1  0
  6  7  1  0
  7  8  1  0
  8  9  1  0
  9 10  2  0
 10 11  1  0
 11 12  2  0
 12 13  1  0
 13 14  1  0
 13 15  2  0
 15 16  1  0
 16 17  2  0
 16 18  1  0
 18 19  1  0
  6 20  2  0
 20 21  1  0
 21 22  2  0
 22 23  1  0
 22  4  1  0
 18  7  2  0
 15  9  1  0
  1 24  1  0
  1 25  1  0
  1 26  1  0
  2 27  1  0
  2 28  1  0
  3 29  1  0
  3 30  1  0
  5 31  1  0
 10 32  1  0
 11 33  1  0
 12 34  1  0
 14 35  1  0
 19 36  1  0
 20 37  1  0
 21 38  1  0
 23 39  1  0
 23 40  1  0
 23 41  1  0
M  END
>  <meeko>  (7) 
{"is_sidechain": [false], "free_energy": -7.421, "intermolecular_energy": -10.2, "internal_energy": 0.481}

$$$$
cand_022_out
     RDKit          3D

 41 43  0  0  0  0  0  0  0  0999 V2000
   47.2960  159.7050   31.3540 C   0  0  0  0  0  0  0  0  0  0  0  0
   48.0150  158.9890   30.2220 C   0  0  0  0  0  0  0  0  0  0  0  0
   48.9030  157.8610   30.7500 C   0  0  0  0  0  0  0  0  0  0  0  0
   50.2720  157.8780   30.1060 C   0  0  0  0  0  0  0  0  0  0  0  0
   50.6510  156.7740   29.3150 C   0  0  0  0  0  0  0  0  0  0  0  0
   51.9090  156.7020   28.7010 C   0  0  0  0  0  0  0  0  0  0  0  0
   52.2970  155.5590   27.8500 C   0  0  0  0  0  0  0  0  0  0  0  0
   51.8010  154.3460   28.3140 O   0  0  0  0  0  0  0  0  0  0  0  0
   52.0870  153.2010   27.6150 C   0  0  0  0  0  0  0  0  0  0  0  0
   51.5810  152.0040   28.1260 C   0  0  0  0  0  0  0  0  0  0  0  0
   51.8340  150.8020   27.4620 C   0  0  0  0  0  0  0  0  0  0  0  0
   52.5910  150.7950   26.2890 C   0  0  0  0  0  0  0  0  0  0  0  0
   53.0940  151.9910   25.7820 C   0  0  0  0  0  0  0  0  0  0  0  0
   53.8270  151.9130   24.6290 O   0  0  0  0  0  0  0  0  0  0  0  0
   52.8410  153.1940   26.4470 C   0  0  0  0  0  0  0  0  0  0  0  0
   53.3520  154.4720   25.9480 C   0  0  0  0  0  0  0  0  0  0  0  0
   54.0200  154.5480   24.9180 O   0  0  0  0  0  0  0  0  0  0  0  0
   53.0350  155.6880   26.7310 C   0  0  0  0  0  0  0  0  0  0  0  0
   53.5110  156.8910   26.2430 O   0  0  0  0  0  0  0  0  0  0  0  0
   52.7930  157.7720   28.8760 C   0  0  0  0  0  0  0  0  0  0  0  0
   52.4360  158.8720   29.6620 C   0  0  0  0  0  0  0  0  0  0  0  0
   51.1840  158.9350   30.2900 C   0  0  0  0  0  0  0  0  0  0  0  0
   50.8470  160.1430   31.1200 C   0  0  0  0  0  0  0  0  0  0  0  0
   47.6698  159.3328   32.3193 H   0  0  0  0  0  0  0  0  0  0  0  0
   47.4827  160.7866   31.2809 H   0  0  0  0  0  0  0  0  0  0  0  0
   46.2152  159.5138   31.2809 H   0  0  0  0  0  0  0  0  0  0  0  0
   47.2678  158.5647   29.5352 H   0  0  0  0  0  0  0  0  0  0  0  0
   48.6539  159.7179   29.7018 H   0  0  0  0  0  0  0  0  0  0  0  0
   49.0192  157.9782   31.8375 H   0  0  0  0  0  0  0  0  0  0  0  0
   48.4213  156.9027   30.5059 H   0  0  0  0  0  0  0  0  0  0  0  0
   49.9398  155.9464   29.1759 H   0  0  0  0  0  0  0  0  0  0  0  0
   50.9842  152.0080   29.0500 H   0  0  0  0  0  0  0  0  0  0  0  0
   51.4360  149.8586   27.8640 H   0  0  0  0  0  0  0  0  0  0  0  0
   52.7897  149.8476   25.7665 H   0  0  0  0  0  0  0  0  0  0  0  0
   54.3140  151.1360   24.4360 H   0  0  0  0  0  0  0  0  0  0  0  0
   54.3950  156.9570   25.9410 H   0  0  0  0  0  0  0  0  0  0  0  0
   53.7795  157.7478   28.3901 H   0  0  0  0  0  0  0  0  0  0  0  0
   53.1482  159.7005   29.7896 H   0  0  0  0  0  0  0  0  0  0  0  0
   50.9186  159.8862   32.1872 H   0  0  0  0  0  0  0  0  0  0  0  0
   51.5530  160.9545   30.8899 H   0  0  0  0  0  0  0  0  0  0  0  0
   49.8228  160.4718   30.8899 H   0  0  0  0  0  0  0  0  0  0  0  0
  1  2  1  0
  2  3  1  0
  3  4  1  0
  4  5  2  0
  5  6  1  0
  6  7  1  0
  7  8  1  0
  8  9  1  0
  9 10  2  0
 10 11  1  0
 11 12  2  0
 12 13  1  0
 13 14  1  0
 13 15  2  0
 15 16  1  0
 16 17  2  0
 16 18  1  0
 18 19  1  0
  6 20  2  0
 20 21  1  0
 21 22  2  0
 22 23  1  0
 22  4  1  0
 18  7  2  0
 15  9  1  0
  1 24  1  0
  1 25  1  0
  1 26  1  0
  2 27  1  0
  2 28  1  0
  3 29  1  0
  3 30  1  0
  5 31  1  0
 10 32  1  0
 11 33  1  0
 12 34  1  0
 14 35  1  0
 19 36  1  0
 20 37  1  0
 21 38  1  0
 23 39  1  0
 23 40  1  0
 23 41  1  0
M  END
>  <meeko>  (8) 
{"is_sidechain": [false], "free_energy": -7.345, "intermolecular_energy": -9.815, "internal_energy": 0.19}

$$$$
cand_022_out
     RDKit          3D

 41 43  0  0  0  0  0  0  0  0999 V2000
   52.5380  151.0290   26.1960 C   0  0  0  0  0  0  0  0  0  0  0  0
   51.8460  152.1280   26.9850 C   0  0  0  0  0  0  0  0  0  0  0  0
   52.8370  152.8930   27.8640 C   0  0  0  0  0  0  0  0  0  0  0  0
   52.8270  154.3750   27.5600 C   0  0  0  0  0  0  0  0  0  0  0  0
   52.1640  155.2360   28.4580 C   0  0  0  0  0  0  0  0  0  0  0  0
   52.0900  156.6190   28.2380 C   0  0  0  0  0  0  0  0  0  0  0  0
   51.4190  157.5250   29.1920 C   0  0  0  0  0  0  0  0  0  0  0  0
   52.1620  158.6680   29.4650 O   0  0  0  0  0  0  0  0  0  0  0  0
   51.6540  159.5960   30.3380 C   0  0  0  0  0  0  0  0  0  0  0  0
   52.4400  160.7210   30.5950 C   0  0  0  0  0  0  0  0  0  0  0  0
   51.9810  161.7060   31.4720 C   0  0  0  0  0  0  0  0  0  0  0  0
   50.7370  161.5670   32.0920 C   0  0  0  0  0  0  0  0  0  0  0  0
   49.9550  160.4450   31.8330 C   0  0  0  0  0  0  0  0  0  0  0  0
   48.7470  160.3720   32.4720 O   0  0  0  0  0  0  0  0  0  0  0  0
   50.4150  159.4590   30.9550 C   0  0  0  0  0  0  0  0  0  0  0  0
   49.6240  158.2630   30.6560 C   0  0  0  0  0  0  0  0  0  0  0  0
   48.5170  158.0740   31.1560 O   0  0  0  0  0  0  0  0  0  0  0  0
   50.2060  157.2760   29.7190 C   0  0  0  0  0  0  0  0  0  0  0  0
   49.4450  156.1570   29.4340 O   0  0  0  0  0  0  0  0  0  0  0  0
   52.7120  157.1410   27.0990 C   0  0  0  0  0  0  0  0  0  0  0  0
   53.3690  156.3020   26.1950 C   0  0  0  0  0  0  0  0  0  0  0  0
   53.4270  154.9160   26.4070 C   0  0  0  0  0  0  0  0  0  0  0  0
   54.1510  154.0570   25.4070 C   0  0  0  0  0  0  0  0  0  0  0  0
   52.9919  150.3082   26.8920 H   0  0  0  0  0  0  0  0  0  0  0  0
   51.8015  150.5131   25.5624 H   0  0  0  0  0  0  0  0  0  0  0  0
   53.3215  151.4702   25.5624 H   0  0  0  0  0  0  0  0  0  0  0  0
   51.3747  152.8307   26.2821 H   0  0  0  0  0  0  0  0  0  0  0  0
   51.0919  151.6634   27.6373 H   0  0  0  0  0  0  0  0  0  0  0  0
   52.5660  152.7439   28.9196 H   0  0  0  0  0  0  0  0  0  0  0  0
   53.8464  152.5076   27.6577 H   0  0  0  0  0  0  0  0  0  0  0  0
   51.6917  154.8113   29.3561 H   0  0  0  0  0  0  0  0  0  0  0  0
   53.4197  160.8313   30.1072 H   0  0  0  0  0  0  0  0  0  0  0  0
   52.5998  162.5925   31.6749 H   0  0  0  0  0  0  0  0  0  0  0  0
   50.3761  162.3426   32.7835 H   0  0  0  0  0  0  0  0  0  0  0  0
   47.9530  160.4450   31.9800 H   0  0  0  0  0  0  0  0  0  0  0  0
   48.9810  156.1000   28.6210 H   0  0  0  0  0  0  0  0  0  0  0  0
   52.6836  158.2247   26.9127 H   0  0  0  0  0  0  0  0  0  0  0  0
   53.8478  156.7344   25.3040 H   0  0  0  0  0  0  0  0  0  0  0  0
   54.7719  153.3203   25.9379 H   0  0  0  0  0  0  0  0  0  0  0  0
   53.4186  153.5324   24.7759 H   0  0  0  0  0  0  0  0  0  0  0  0
   54.7921  154.6900   24.7759 H   0  0  0  0  0  0  0  0  0  0  0  0
  1  2  1  0
  2  3  1  0
  3  4  1  0
  4  5  2  0
  5  6  1  0
  6  7  1  0
  7  8  1  0
  8  9  1  0
  9 10  2  0
 10 11  1  0
 11 12  2  0
 12 13  1  0
 13 14  1  0
 13 15  2  0
 15 16  1  0
 16 17  2  0
 16 18  1  0
 18 19  1  0
  6 20  2  0
 20 21  1  0
 21 22  2  0
 22 23  1  0
 22  4  1  0
 18  7  2  0
 15  9  1  0
  1 24  1  0
  1 25  1  0
  1 26  1  0
  2 27  1  0
  2 28  1  0
  3 29  1  0
  3 30  1  0
  5 31  1  0
 10 32  1  0
 11 33  1  0
 12 34  1  0
 14 35  1  0
 19 36  1  0
 20 37  1  0
 21 38  1  0
 23 39  1  0
 23 40  1  0
 23 41  1  0
M  END
>  <meeko>  (9) 
{"is_sidechain": [false], "free_energy": -7.322, "intermolecular_energy": -9.443, "internal_energy": -0.154}

$$$$
