cand_024_out
     RDKit          3D

 47 49  0  0  0  0  0  0  0  0999 V2000
   54.1460  152.2790   23.8430 C   0  0  0  0  0  0  0  0  0  0  0  0
   54.4560  151.6230   25.1160 N   0  0  0  0  0  0  0  0  0  0  0  0
   53.7660  150.3300   25.1790 C   0  0  0  0  0  0  0  0  0  0  0  0
   54.0650  152.4560   26.2700 C   0  0  0  0  0  0  0  0  0  0  0  0
   52.5690  152.8210   26.2760 C   0  0  0  0  0  0  0  0  0  0  0  0
   52.3020  154.1030   27.0440 C   0  0  0  0  0  0  0  0  0  0  0  0
   51.6760  154.0060   28.2980 C   0  0  0  0  0  0  0  0  0  0  0  0
   51.3930  155.1480   29.0500 C   0  0  0  0  0  0  0  0  0  0  0  0
   51.7320  156.4190   28.5760 C   0  0  0  0  0  0  0  0  0  0  0  0
   51.4070  157.6160   29.3800 C   0  0  0  0  0  0  0  0  0  0  0  0
   50.0860  157.6390   29.8090 O   0  0  0  0  0  0  0  0  0  0  0  0
   49.6540  158.6960   30.5680 C   0  0  0  0  0  0  0  0  0  0  0  0
   48.3160  158.6860   30.9650 C   0  0  0  0  0  0  0  0  0  0  0  0
   47.8110  159.7320   31.7410 C   0  0  0  0  0  0  0  0  0  0  0  0
   48.6440  160.7870   32.1180 C   0  0  0  0  0  0  0  0  0  0  0  0
   49.9780  160.7950   31.7220 C   0  0  0  0  0  0  0  0  0  0  0  0
   50.7370  161.8590   32.1270 O   0  0  0  0  0  0  0  0  0  0  0  0
   50.4820  159.7490   30.9450 C   0  0  0  0  0  0  0  0  0  0  0  0
   51.8790  159.7190   30.5060 C   0  0  0  0  0  0  0  0  0  0  0  0
   52.6740  160.6060   30.8040 O   0  0  0  0  0  0  0  0  0  0  0  0
   52.3110  158.5680   29.6800 C   0  0  0  0  0  0  0  0  0  0  0  0
   53.6350  158.5400   29.2810 O   0  0  0  0  0  0  0  0  0  0  0  0
   52.3440  156.5180   27.3180 C   0  0  0  0  0  0  0  0  0  0  0  0
   52.6370  155.3780   26.5390 C   0  0  0  0  0  0  0  0  0  0  0  0
   53.3190  155.5640   25.2010 C   0  0  0  0  0  0  0  0  0  0  0  0
   54.6180  155.1490   25.1840 F   0  0  0  0  0  0  0  0  0  0  0  0
   52.7020  154.8810   24.1970 F   0  0  0  0  0  0  0  0  0  0  0  0
   53.3530  156.8680   24.8010 F   0  0  0  0  0  0  0  0  0  0  0  0
   53.6835  153.2578   24.0380 H   0  0  0  0  0  0  0  0  0  0  0  0
   55.0729  152.4196   23.2677 H   0  0  0  0  0  0  0  0  0  0  0  0
   53.4489  151.6521   23.2677 H   0  0  0  0  0  0  0  0  0  0  0  0
   55.4650  151.4830   25.1640 H   0  0  0  0  0  0  0  0  0  0  0  0
   53.6145  150.0461   26.2309 H   0  0  0  0  0  0  0  0  0  0  0  0
   52.7907  150.4100   24.6767 H   0  0  0  0  0  0  0  0  0  0  0  0
   54.3754  149.5643   24.6767 H   0  0  0  0  0  0  0  0  0  0  0  0
   54.2937  151.9036   27.1933 H   0  0  0  0  0  0  0  0  0  0  0  0
   54.6306  153.3969   26.2004 H   0  0  0  0  0  0  0  0  0  0  0  0
   52.2307  152.9516   25.2375 H   0  0  0  0  0  0  0  0  0  0  0  0
   52.0213  152.0062   26.7721 H   0  0  0  0  0  0  0  0  0  0  0  0
   51.4048  153.0159   28.6932 H   0  0  0  0  0  0  0  0  0  0  0  0
   50.8975  155.0465   30.0268 H   0  0  0  0  0  0  0  0  0  0  0  0
   47.6596  157.8551   30.6670 H   0  0  0  0  0  0  0  0  0  0  0  0
   46.7568  159.7244   32.0551 H   0  0  0  0  0  0  0  0  0  0  0  0
   48.2460  161.6115   32.7278 H   0  0  0  0  0  0  0  0  0  0  0  0
   50.9850  161.9410   33.0270 H   0  0  0  0  0  0  0  0  0  0  0  0
   54.3110  158.3900   29.9120 H   0  0  0  0  0  0  0  0  0  0  0  0
   52.6032  157.5130   26.9270 H   0  0  0  0  0  0  0  0  0  0  0  0
  1  2  1  0
  2  3  1  0
  2  4  1  0
  4  5  1  0
  5  6  1  0
  6  7  2  0
  7  8  1  0
  8  9  2  0
  9 10  1  0
 10 11  1  0
 11 12  1  0
 12 13  2  0
 13 14  1  0
 14 15  2  0
 15 16  1  0
 16 17  1  0
 16 18  2  0
 18 19  1  0
 19 20  2  0
 19 21  1  0
 21 22  1  0
  9 23  1  0
 23 24  2  0
 24 25  1  0
 25 26  1  0
 25 27  1  0
 25 28  1  0
 24  6  1  0
 21 10  2  0
 18 12  1  0
  1 29  1  0
  1 30  1  0
  1 31  1  0
  2 32  1  0
  3 33  1  0
  3 34  1  0
  3 35  1  0
  4 36  1  0
  4 37  1  0
  5 38  1  0
  5 39  1  0
  7 40  1  0
  8 41  1  0
 13 42  1  0
 14 43  1  0
 15 44  1  0
 17 45  1  0
 22 46  1  0
 23 47  1  0
M  CHG  1   2   1
M  END
>  <meeko>  (1) 
{"is_sidechain": [false], "free_energy": -10.531, "intermolecular_energy": -14.225, "internal_energy": -0.093}

$$$$
cand_024_out
     RDKit          3D

 47 49  0  0  0  0  0  0  0  0999 V2000
   49.0270  161.2810   34.1870 C   0  0  0  0  0  0  0  0  0  0  0  0
   49.8460  161.8680   33.1220 N   0  0  0  0  0  0  0  0  0  0  0  0
   48.9710  162.4440   32.0960 C   0  0  0  0  0  0  0  0  0  0  0  0
   50.7460  160.8710   32.5120 C   0  0  0  0  0  0  0  0  0  0  0  0
   50.8240  160.9840   30.9780 C   0  0  0  0  0  0  0  0  0  0  0  0
   51.0680  159.6360   30.3230 C   0  0  0  0  0  0  0  0  0  0  0  0
   52.3700  159.3360   29.8890 C   0  0  0  0  0  0  0  0  0  0  0  0
   52.6580  158.1180   29.2690 C   0  0  0  0  0  0  0  0  0  0  0  0
   51.6560  157.1620   29.0700 C   0  0  0  0  0  0  0  0  0  0  0  0
   51.9790  155.8860   28.3960 C   0  0  0  0  0  0  0  0  0  0  0  0
   52.4650  156.0630   27.1070 O   0  0  0  0  0  0  0  0  0  0  0  0
   52.8060  154.9570   26.3700 C   0  0  0  0  0  0  0  0  0  0  0  0
   53.2760  155.1790   25.0750 C   0  0  0  0  0  0  0  0  0  0  0  0
   53.6420  154.0970   24.2720 C   0  0  0  0  0  0  0  0  0  0  0  0
   53.5370  152.7940   24.7630 C   0  0  0  0  0  0  0  0  0  0  0  0
   53.0680  152.5750   26.0550 C   0  0  0  0  0  0  0  0  0  0  0  0
   52.9910  151.2750   26.4730 O   0  0  0  0  0  0  0  0  0  0  0  0
   52.7010  153.6580   26.8590 C   0  0  0  0  0  0  0  0  0  0  0  0
   52.2030  153.4720   28.2230 C   0  0  0  0  0  0  0  0  0  0  0  0
   52.0890  152.3580   28.7280 O   0  0  0  0  0  0  0  0  0  0  0  0
   51.8350  154.6860   28.9880 C   0  0  0  0  0  0  0  0  0  0  0  0
   51.3780  154.5020   30.2800 O   0  0  0  0  0  0  0  0  0  0  0  0
   50.3540  157.4660   29.4910 C   0  0  0  0  0  0  0  0  0  0  0  0
   50.0390  158.6920   30.1170 C   0  0  0  0  0  0  0  0  0  0  0  0
   48.6140  158.9380   30.5620 C   0  0  0  0  0  0  0  0  0  0  0  0
   48.1530  160.1880   30.2640 F   0  0  0  0  0  0  0  0  0  0  0  0
   47.7280  158.0750   29.9910 F   0  0  0  0  0  0  0  0  0  0  0  0
   48.4490  158.8070   31.9090 F   0  0  0  0  0  0  0  0  0  0  0  0
   49.4345  161.5731   35.1661 H   0  0  0  0  0  0  0  0  0  0  0  0
   47.9928  161.6448   34.0970 H   0  0  0  0  0  0  0  0  0  0  0  0
   49.0392  160.1848   34.0970 H   0  0  0  0  0  0  0  0  0  0  0  0
   50.4280  162.5980   33.5350 H   0  0  0  0  0  0  0  0  0  0  0  0
   48.1461  162.9870   32.5804 H   0  0  0  0  0  0  0  0  0  0  0  0
   49.5491  163.1387   31.4690 H   0  0  0  0  0  0  0  0  0  0  0  0
   48.5614  161.6383   31.4690 H   0  0  0  0  0  0  0  0  0  0  0  0
   51.7557  161.0122   32.9250 H   0  0  0  0  0  0  0  0  0  0  0  0
   50.3396  159.8761   32.7468 H   0  0  0  0  0  0  0  0  0  0  0  0
   49.8752  161.3952   30.6029 H   0  0  0  0  0  0  0  0  0  0  0  0
   51.6683  161.6429   30.7270 H   0  0  0  0  0  0  0  0  0  0  0  0
   53.1744  160.0710   30.0396 H   0  0  0  0  0  0  0  0  0  0  0  0
   53.6843  157.9080   28.9334 H   0  0  0  0  0  0  0  0  0  0  0  0
   53.3581  156.2051   24.6873 H   0  0  0  0  0  0  0  0  0  0  0  0
   54.0135  154.2712   23.2514 H   0  0  0  0  0  0  0  0  0  0  0  0
   53.8245  151.9419   24.1296 H   0  0  0  0  0  0  0  0  0  0  0  0
   52.7520  150.6020   25.8660 H   0  0  0  0  0  0  0  0  0  0  0  0
   51.5230  155.1650   30.9270 H   0  0  0  0  0  0  0  0  0  0  0  0
   49.5544  156.7281   29.3290 H   0  0  0  0  0  0  0  0  0  0  0  0
  1  2  1  0
  2  3  1  0
  2  4  1  0
  4  5  1  0
  5  6  1  0
  6  7  2  0
  7  8  1  0
  8  9  2  0
  9 10  1  0
 10 11  1  0
 11 12  1  0
 12 13  2  0
 13 14  1  0
 14 15  2  0
 15 16  1  0
 16 17  1  0
 16 18  2  0
 18 19  1  0
 19 20  2  0
 19 21  1  0
 21 22  1  0
  9 23  1  0
 23 24  2  0
 24 25  1  0
 25 26  1  0
 25 27  1  0
 25 28  1  0
 24  6  1  0
 21 10  2  0
 18 12  1  0
  1 29  1  0
  1 30  1  0
  1 31  1  0
  2 32  1  0
  3 33  1  0
  3 34  1  0
  3 35  1  0
  4 36  1  0
  4 37  1  0
  5 38  1  0
  5 39  1  0
  7 40  1  0
  8 41  1  0
 13 42  1  0
 14 43  1  0
 15 44  1  0
 17 45  1  0
 22 46  1  0
 23 47  1  0
M  CHG  1   2   1
M  END
>  <meeko>  (2) 
{"is_sidechain": [false], "free_energy": -10.149, "intermolecular_energy": -13.332, "internal_energy": -0.47}

$$$$
cand_024_out
     RDKit          3D

 47 49  0  0  0  0  0  0  0  0999 V2000
   54.9620  161.9160   31.5930 C   0  0  0  0  0  0  0  0  0  0  0  0
   53.7360  161.7140   30.8160 N   0  0  0  0  0  0  0  0  0  0  0  0
   53.3560  162.9750   30.1700 C   0  0  0  0  0  0  0  0  0  0  0  0
   52.6260  161.2310   31.6610 C   0  0  0  0  0  0  0  0  0  0  0  0
   51.3750  160.8390   30.8520 C   0  0  0  0  0  0  0  0  0  0  0  0
   51.5280  159.4770   30.2000 C   0  0  0  0  0  0  0  0  0  0  0  0
   52.7890  159.1230   29.6900 C   0  0  0  0  0  0  0  0  0  0  0  0
   52.9920  157.8890   29.0690 C   0  0  0  0  0  0  0  0  0  0  0  0
   51.9460  156.9700   28.9430 C   0  0  0  0  0  0  0  0  0  0  0  0
   52.1790  155.6760   28.2660 C   0  0  0  0  0  0  0  0  0  0  0  0
   52.7370  155.8200   27.0020 O   0  0  0  0  0  0  0  0  0  0  0  0
   53.0070  154.6940   26.2660 C   0  0  0  0  0  0  0  0  0  0  0  0
   53.5540  154.8840   24.9960 C   0  0  0  0  0  0  0  0  0  0  0  0
   53.8540  153.7810   24.1950 C   0  0  0  0  0  0  0  0  0  0  0  0
   53.6060  152.4890   24.6620 C   0  0  0  0  0  0  0  0  0  0  0  0
   53.0600  152.3020   25.9290 C   0  0  0  0  0  0  0  0  0  0  0  0
   52.8440  151.0100   26.3240 O   0  0  0  0  0  0  0  0  0  0  0  0
   52.7600  153.4060   26.7310 C   0  0  0  0  0  0  0  0  0  0  0  0
   52.1850  153.2540   28.0680 C   0  0  0  0  0  0  0  0  0  0  0  0
   51.9450  152.1500   28.5520 O   0  0  0  0  0  0  0  0  0  0  0  0
   51.8970  154.4890   28.8330 C   0  0  0  0  0  0  0  0  0  0  0  0
   51.3660  154.3360   30.1010 O   0  0  0  0  0  0  0  0  0  0  0  0
   50.6830  157.3280   29.4390 C   0  0  0  0  0  0  0  0  0  0  0  0
   50.4540  158.5700   30.0680 C   0  0  0  0  0  0  0  0  0  0  0  0
   49.0690  158.8750   30.5960 C   0  0  0  0  0  0  0  0  0  0  0  0
   48.9940  158.8980   31.9590 F   0  0  0  0  0  0  0  0  0  0  0  0
   48.6030  160.0860   30.1830 F   0  0  0  0  0  0  0  0  0  0  0  0
   48.1380  157.9600   30.2010 F   0  0  0  0  0  0  0  0  0  0  0  0
   54.7262  161.8771   32.6667 H   0  0  0  0  0  0  0  0  0  0  0  0
   55.6860  161.1250   31.3478 H   0  0  0  0  0  0  0  0  0  0  0  0
   55.3940  162.8974   31.3478 H   0  0  0  0  0  0  0  0  0  0  0  0
   53.9200  161.0010   30.1100 H   0  0  0  0  0  0  0  0  0  0  0  0
   53.1292  163.7275   30.9396 H   0  0  0  0  0  0  0  0  0  0  0  0
   54.1868  163.3307   29.5430 H   0  0  0  0  0  0  0  0  0  0  0  0
   52.4670  162.8124   29.5430 H   0  0  0  0  0  0  0  0  0  0  0  0
   52.9708  160.3493   32.2211 H   0  0  0  0  0  0  0  0  0  0  0  0
   52.3389  162.0572   32.3280 H   0  0  0  0  0  0  0  0  0  0  0  0
   50.5074  160.8146   31.5278 H   0  0  0  0  0  0  0  0  0  0  0  0
   51.2357  161.5850   30.0557 H   0  0  0  0  0  0  0  0  0  0  0  0
   53.6281  159.8283   29.7814 H   0  0  0  0  0  0  0  0  0  0  0  0
   53.9872  157.6368   28.6740 H   0  0  0  0  0  0  0  0  0  0  0  0
   53.7484  155.9018   24.6268 H   0  0  0  0  0  0  0  0  0  0  0  0
   54.2864  153.9300   23.1946 H   0  0  0  0  0  0  0  0  0  0  0  0
   53.8416  151.6201   24.0299 H   0  0  0  0  0  0  0  0  0  0  0  0
   53.1900  150.7050   27.1400 H   0  0  0  0  0  0  0  0  0  0  0  0
   51.4440  153.5140   30.5460 H   0  0  0  0  0  0  0  0  0  0  0  0
   49.8476  156.6200   29.3344 H   0  0  0  0  0  0  0  0  0  0  0  0
  1  2  1  0
  2  3  1  0
  2  4  1  0
  4  5  1  0
  5  6  1  0
  6  7  2  0
  7  8  1  0
  8  9  2  0
  9 10  1  0
 10 11  1  0
 11 12  1  0
 12 13  2  0
 13 14  1  0
 14 15  2  0
 15 16  1  0
 16 17  1  0
 16 18  2  0
 18 19  1  0
 19 20  2  0
 19 21  1  0
 21 22  1  0
  9 23  1  0
 23 24  2  0
 24 25  1  0
 25 26  1  0
 25 27  1  0
 25 28  1  0
 24  6  1  0
 21 10  2  0
 18 12  1  0
  1 29  1  0
  1 30  1  0
  1 31  1  0
  2 32  1  0
  3 33  1  0
  3 34  1  0
  3 35  1  0
  4 36  1  0
  4 37  1  0
  5 38  1  0
  5 39  1  0
  7 40  1  0
  8 41  1  0
 13 42  1  0
 14 43  1  0
 15 44  1  0
 17 45  1  0
 22 46  1  0
 23 47  1  0
M  CHG  1   2   1
M  END
>  <meeko>  (3) 
{"is_sidechain": [false], "free_energy": -10.004, "intermolecular_energy": -13.458, "internal_energy": -0.148}

$$$$
cand_024_out
     RDKit          3D

 47 49  0  0  0  0  0  0  0  0999 V2000
   53.6820  149.8520   25.1340 C   0  0  0  0  0  0  0  0  0  0  0  0
   53.2980  151.2410   24.8700 N   0  0  0  0  0  0  0  0  0  0  0  0
   54.4610  151.9820   24.3720 C   0  0  0  0  0  0  0  0  0  0  0  0
   52.7650  151.9010   26.0780 C   0  0  0  0  0  0  0  0  0  0  0  0
   53.7840  152.8300   26.7620 C   0  0  0  0  0  0  0  0  0  0  0  0
   53.1110  154.0200   27.4220 C   0  0  0  0  0  0  0  0  0  0  0  0
   52.6030  153.8580   28.7220 C   0  0  0  0  0  0  0  0  0  0  0  0
   51.9630  154.9100   29.3800 C   0  0  0  0  0  0  0  0  0  0  0  0
   51.8170  156.1570   28.7630 C   0  0  0  0  0  0  0  0  0  0  0  0
   51.1210  157.2520   29.4710 C   0  0  0  0  0  0  0  0  0  0  0  0
   51.9510  158.3310   29.7480 O   0  0  0  0  0  0  0  0  0  0  0  0
   51.4290  159.4180   30.4010 C   0  0  0  0  0  0  0  0  0  0  0  0
   52.3010  160.4740   30.6720 C   0  0  0  0  0  0  0  0  0  0  0  0
   51.8330  161.6110   31.3340 C   0  0  0  0  0  0  0  0  0  0  0  0
   50.4950  161.6930   31.7240 C   0  0  0  0  0  0  0  0  0  0  0  0
   49.6270  160.6390   31.4520 C   0  0  0  0  0  0  0  0  0  0  0  0
   48.3300  160.7850   31.8610 O   0  0  0  0  0  0  0  0  0  0  0  0
   50.0950  159.5000   30.7910 C   0  0  0  0  0  0  0  0  0  0  0  0
   49.2160  158.3700   30.4860 C   0  0  0  0  0  0  0  0  0  0  0  0
   48.0260  158.3700   30.7900 O   0  0  0  0  0  0  0  0  0  0  0  0
   49.8140  157.2080   29.7880 C   0  0  0  0  0  0  0  0  0  0  0  0
   48.9740  156.1500   29.4920 O   0  0  0  0  0  0  0  0  0  0  0  0
   52.3120  156.3160   27.4610 C   0  0  0  0  0  0  0  0  0  0  0  0
   52.9590  155.2650   26.7750 C   0  0  0  0  0  0  0  0  0  0  0  0
   53.4860  155.5210   25.3790 C   0  0  0  0  0  0  0  0  0  0  0  0
   54.7850  155.1420   25.2040 F   0  0  0  0  0  0  0  0  0  0  0  0
   52.7780  154.8590   24.4210 F   0  0  0  0  0  0  0  0  0  0  0  0
   53.4450  156.8390   25.0310 F   0  0  0  0  0  0  0  0  0  0  0  0
   53.7283  149.6845   26.2202 H   0  0  0  0  0  0  0  0  0  0  0  0
   52.9373  149.1750   24.6900 H   0  0  0  0  0  0  0  0  0  0  0  0
   54.6687  149.6536   24.6900 H   0  0  0  0  0  0  0  0  0  0  0  0
   52.5580  151.2390   24.1670 H   0  0  0  0  0  0  0  0  0  0  0  0
   55.0489  152.3566   25.2229 H   0  0  0  0  0  0  0  0  0  0  0  0
   55.0859  151.3152   23.7597 H   0  0  0  0  0  0  0  0  0  0  0  0
   54.1207  152.8301   23.7597 H   0  0  0  0  0  0  0  0  0  0  0  0
   51.8860  152.4971   25.7915 H   0  0  0  0  0  0  0  0  0  0  0  0
   52.5109  151.1089   26.7977 H   0  0  0  0  0  0  0  0  0  0  0  0
   54.3276  152.2585   27.5287 H   0  0  0  0  0  0  0  0  0  0  0  0
   54.4697  153.2106   25.9907 H   0  0  0  0  0  0  0  0  0  0  0  0
   52.7112  152.8878   29.2289 H   0  0  0  0  0  0  0  0  0  0  0  0
   51.5690  154.7565   30.3955 H   0  0  0  0  0  0  0  0  0  0  0  0
   53.3552  160.4105   30.3645 H   0  0  0  0  0  0  0  0  0  0  0  0
   52.5196  162.4432   31.5485 H   0  0  0  0  0  0  0  0  0  0  0  0
   50.1271  162.5890   32.2454 H   0  0  0  0  0  0  0  0  0  0  0  0
   47.6280  160.6230   31.2610 H   0  0  0  0  0  0  0  0  0  0  0  0
   48.9580  155.7930   28.6250 H   0  0  0  0  0  0  0  0  0  0  0  0
   52.1929  157.2877   26.9593 H   0  0  0  0  0  0  0  0  0  0  0  0
  1  2  1  0
  2  3  1  0
  2  4  1  0
  4  5  1  0
  5  6  1  0
  6  7  2  0
  7  8  1  0
  8  9  2  0
  9 10  1  0
 10 11  1  0
 11 12  1  0
 12 13  2  0
 13 14  1  0
 14 15  2  0
 15 16  1  0
 16 17  1  0
 16 18  2  0
 18 19  1  0
 19 20  2  0
 19 21  1  0
 21 22  1  0
  9 23  1  0
 23 24  2  0
 24 25  1  0
 25 26  1  0
 25 27  1  0
 25 28  1  0
 24  6  1  0
 21 10  2  0
 18 12  1  0
  1 29  1  0
  1 30  1  0
  1 31  1  0
  2 32  1  0
  3 33  1  0
  3 34  1  0
  3 35  1  0
  4 36  1  0
  4 37  1  0
  5 38  1  0
  5 39  1  0
  7 40  1  0
  8 41  1  0
 13 42  1  0
 14 43  1  0
 15 44  1  0
 17 45  1  0
 22 46  1  0
 23 47  1  0
M  CHG  1   2   1
M  END
>  <meeko>  (4) 
{"is_sidechain": [false], "free_energy": -9.742, "intermolecular_energy": -12.518, "internal_energy": -0.733}

$$$$
cand_024_out
     RDKit          3D

 47 49  0  0  0  0  0  0  0  0999 V2000
   48.0710  161.7630   34.3910 C   0  0  0  0  0  0  0  0  0  0  0  0
   49.3670  161.3320   33.8600 N   0  0  0  0  0  0  0  0  0  0  0  0
   49.9380  162.4050   33.0390 C   0  0  0  0  0  0  0  0  0  0  0  0
   49.2480  160.0990   33.0580 C   0  0  0  0  0  0  0  0  0  0  0  0
   49.1750  160.3640   31.5430 C   0  0  0  0  0  0  0  0  0  0  0  0
   49.9330  159.3160   30.7480 C   0  0  0  0  0  0  0  0  0  0  0  0
   49.2640  158.1260   30.4140 C   0  0  0  0  0  0  0  0  0  0  0  0
   49.9080  157.1190   29.6940 C   0  0  0  0  0  0  0  0  0  0  0  0
   51.2360  157.2710   29.2800 C   0  0  0  0  0  0  0  0  0  0  0  0
   51.9040  156.1840   28.5330 C   0  0  0  0  0  0  0  0  0  0  0  0
   52.4570  156.6120   27.3330 O   0  0  0  0  0  0  0  0  0  0  0  0
   53.1100  155.7010   26.5420 C   0  0  0  0  0  0  0  0  0  0  0  0
   53.6380  156.1710   25.3390 C   0  0  0  0  0  0  0  0  0  0  0  0
   54.3160  155.2960   24.4870 C   0  0  0  0  0  0  0  0  0  0  0  0
   54.4660  153.9530   24.8380 C   0  0  0  0  0  0  0  0  0  0  0  0
   53.9380  153.4870   26.0400 C   0  0  0  0  0  0  0  0  0  0  0  0
   54.1210  152.1610   26.3220 O   0  0  0  0  0  0  0  0  0  0  0  0
   53.2590  154.3620   26.8910 C   0  0  0  0  0  0  0  0  0  0  0  0
   52.6900  153.9130   28.1630 C   0  0  0  0  0  0  0  0  0  0  0  0
   52.7860  152.7500   28.5450 O   0  0  0  0  0  0  0  0  0  0  0  0
   51.9830  154.9200   28.9890 C   0  0  0  0  0  0  0  0  0  0  0  0
   51.4590  154.4910   30.1940 O   0  0  0  0  0  0  0  0  0  0  0  0
   51.9080  158.4520   29.6250 C   0  0  0  0  0  0  0  0  0  0  0  0
   51.2780  159.4830   30.3550 C   0  0  0  0  0  0  0  0  0  0  0  0
   52.0640  160.7380   30.6700 C   0  0  0  0  0  0  0  0  0  0  0  0
   51.4730  161.8830   30.2210 F   0  0  0  0  0  0  0  0  0  0  0  0
   52.2490  160.9200   32.0080 F   0  0  0  0  0  0  0  0  0  0  0  0
   53.3100  160.7360   30.1170 F   0  0  0  0  0  0  0  0  0  0  0  0
   48.1033  161.7523   35.4905 H   0  0  0  0  0  0  0  0  0  0  0  0
   47.8518  162.7824   34.0406 H   0  0  0  0  0  0  0  0  0  0  0  0
   47.2850  161.0779   34.0406 H   0  0  0  0  0  0  0  0  0  0  0  0
   49.9820  161.1300   34.6480 H   0  0  0  0  0  0  0  0  0  0  0  0
   50.3534  163.1857   33.6932 H   0  0  0  0  0  0  0  0  0  0  0  0
   50.7373  161.9951   32.4041 H   0  0  0  0  0  0  0  0  0  0  0  0
   49.1515  162.8389   32.4041 H   0  0  0  0  0  0  0  0  0  0  0  0
   50.1239  159.4650   33.2600 H   0  0  0  0  0  0  0  0  0  0  0  0
   48.3069  159.6097   33.3494 H   0  0  0  0  0  0  0  0  0  0  0  0
   48.1204  160.3535   31.2305 H   0  0  0  0  0  0  0  0  0  0  0  0
   49.6373  161.3423   31.3453 H   0  0  0  0  0  0  0  0  0  0  0  0
   48.2180  157.9865   30.7245 H   0  0  0  0  0  0  0  0  0  0  0  0
   49.3650  156.1943   29.4488 H   0  0  0  0  0  0  0  0  0  0  0  0
   53.5205  157.2290   25.0619 H   0  0  0  0  0  0  0  0  0  0  0  0
   54.7323  155.6656   23.5382 H   0  0  0  0  0  0  0  0  0  0  0  0
   55.0000  153.2643   24.1668 H   0  0  0  0  0  0  0  0  0  0  0  0
   53.7540  151.7930   27.1020 H   0  0  0  0  0  0  0  0  0  0  0  0
   52.0300  154.1740   30.8670 H   0  0  0  0  0  0  0  0  0  0  0  0
   52.9566  158.5790   29.3180 H   0  0  0  0  0  0  0  0  0  0  0  0
  1  2  1  0
  2  3  1  0
  2  4  1  0
  4  5  1  0
  5  6  1  0
  6  7  2  0
  7  8  1  0
  8  9  2  0
  9 10  1  0
 10 11  1  0
 11 12  1  0
 12 13  2  0
 13 14  1  0
 14 15  2  0
 15 16  1  0
 16 17  1  0
 16 18  2  0
 18 19  1  0
 19 20  2  0
 19 21  1  0
 21 22  1  0
  9 23  1  0
 23 24  2  0
 24 25  1  0
 25 26  1  0
 25 27  1  0
 25 28  1  0
 24  6  1  0
 21 10  2  0
 18 12  1  0
  1 29  1  0
  1 30  1  0
  1 31  1  0
  2 32  1  0
  3 33  1  0
  3 34  1  0
  3 35  1  0
  4 36  1  0
  4 37  1  0
  5 38  1  0
  5 39  1  0
  7 40  1  0
  8 41  1  0
 13 42  1  0
 14 43  1  0
 15 44  1  0
 17 45  1  0
 22 46  1  0
 23 47  1  0
M  CHG  1   2   1
M  END
>  <meeko>  (5) 
{"is_sidechain": [false], "free_energy": -9.556, "intermolecular_energy": -12.584, "internal_energy": -0.417}

$$$$
cand_024_out
     RDKit          3D

 47 49  0  0  0  0  0  0  0  0999 V2000
   54.1400  152.2390   24.0600 C   0  0  0  0  0  0  0  0  0  0  0  0
   53.9170  153.6620   23.7910 N   0  0  0  0  0  0  0  0  0  0  0  0
   55.2040  154.3650   23.7870 C   0  0  0  0  0  0  0  0  0  0  0  0
   53.0160  154.2740   24.7870 C   0  0  0  0  0  0  0  0  0  0  0  0
   53.4990  154.0870   26.2370 C   0  0  0  0  0  0  0  0  0  0  0  0
   52.9250  155.1430   27.1650 C   0  0  0  0  0  0  0  0  0  0  0  0
   53.0150  156.4900   26.7720 C   0  0  0  0  0  0  0  0  0  0  0  0
   52.5170  157.5090   27.5850 C   0  0  0  0  0  0  0  0  0  0  0  0
   51.9090  157.2160   28.8100 C   0  0  0  0  0  0  0  0  0  0  0  0
   51.4030  158.3120   29.6630 C   0  0  0  0  0  0  0  0  0  0  0  0
   50.0730  158.1460   30.0270 O   0  0  0  0  0  0  0  0  0  0  0  0
   49.4800  159.0930   30.8220 C   0  0  0  0  0  0  0  0  0  0  0  0
   48.1380  158.8940   31.1520 C   0  0  0  0  0  0  0  0  0  0  0  0
   47.4750  159.8210   31.9590 C   0  0  0  0  0  0  0  0  0  0  0  0
   48.1520  160.9450   32.4360 C   0  0  0  0  0  0  0  0  0  0  0  0
   49.4900  161.1410   32.1060 C   0  0  0  0  0  0  0  0  0  0  0  0
   50.0920  162.2620   32.6070 O   0  0  0  0  0  0  0  0  0  0  0  0
   50.1540  160.2140   31.2980 C   0  0  0  0  0  0  0  0  0  0  0  0
   51.5600  160.3830   30.9270 C   0  0  0  0  0  0  0  0  0  0  0  0
   52.2250  161.3410   31.3130 O   0  0  0  0  0  0  0  0  0  0  0  0
   52.1670  159.3470   30.0600 C   0  0  0  0  0  0  0  0  0  0  0  0
   53.5000  159.5060   29.7250 O   0  0  0  0  0  0  0  0  0  0  0  0
   51.8310  155.8730   29.2090 C   0  0  0  0  0  0  0  0  0  0  0  0
   52.3310  154.8260   28.4050 C   0  0  0  0  0  0  0  0  0  0  0  0
   52.1900  153.4010   28.8940 C   0  0  0  0  0  0  0  0  0  0  0  0
   51.5150  152.5880   28.0310 F   0  0  0  0  0  0  0  0  0  0  0  0
   53.3930  152.7960   29.1030 F   0  0  0  0  0  0  0  0  0  0  0  0
   51.5150  153.3100   30.0750 F   0  0  0  0  0  0  0  0  0  0  0  0
   54.1663  152.0710   25.1468 H   0  0  0  0  0  0  0  0  0  0  0  0
   53.3232  151.6498   23.6176 H   0  0  0  0  0  0  0  0  0  0  0  0
   55.0979  151.9279   23.6176 H   0  0  0  0  0  0  0  0  0  0  0  0
   53.4710  153.7470   22.8770 H   0  0  0  0  0  0  0  0  0  0  0  0
   55.5283  154.5421   24.8231 H   0  0  0  0  0  0  0  0  0  0  0  0
   55.9551  153.7519   23.2675 H   0  0  0  0  0  0  0  0  0  0  0  0
   55.0940  155.3283   23.2675 H   0  0  0  0  0  0  0  0  0  0  0  0
   52.9446  155.3517   24.5784 H   0  0  0  0  0  0  0  0  0  0  0  0
   52.0417  153.7710   24.6994 H   0  0  0  0  0  0  0  0  0  0  0  0
   53.1855  153.0939   26.5911 H   0  0  0  0  0  0  0  0  0  0  0  0
   54.5947  154.1835   26.2467 H   0  0  0  0  0  0  0  0  0  0  0  0
   53.4845  156.7441   25.8102 H   0  0  0  0  0  0  0  0  0  0  0  0
   52.6037  158.5558   27.2583 H   0  0  0  0  0  0  0  0  0  0  0  0
   47.6039  158.0085   30.7770 H   0  0  0  0  0  0  0  0  0  0  0  0
   46.4176  159.6654   32.2193 H   0  0  0  0  0  0  0  0  0  0  0  0
   47.6288  161.6746   33.0716 H   0  0  0  0  0  0  0  0  0  0  0  0
   50.5730  162.2170   33.4110 H   0  0  0  0  0  0  0  0  0  0  0  0
   54.1180  159.7710   30.3780 H   0  0  0  0  0  0  0  0  0  0  0  0
   51.3669  155.6291   30.1760 H   0  0  0  0  0  0  0  0  0  0  0  0
  1  2  1  0
  2  3  1  0
  2  4  1  0
  4  5  1  0
  5  6  1  0
  6  7  2  0
  7  8  1  0
  8  9  2  0
  9 10  1  0
 10 11  1  0
 11 12  1  0
 12 13  2  0
 13 14  1  0
 14 15  2  0
 15 16  1  0
 16 17  1  0
 16 18  2  0
 18 19  1  0
 19 20  2  0
 19 21  1  0
 21 22  1  0
  9 23  1  0
 23 24  2  0
 24 25  1  0
 25 26  1  0
 25 27  1  0
 25 28  1  0
 24  6  1  0
 21 10  2  0
 18 12  1  0
  1 29  1  0
  1 30  1  0
  1 31  1  0
  2 32  1  0
  3 33  1  0
  3 34  1  0
  3 35  1  0
  4 36  1  0
  4 37  1  0
  5 38  1  0
  5 39  1  0
  7 40  1  0
  8 41  1  0
 13 42  1  0
 14 43  1  0
 15 44  1  0
 17 45  1  0
 22 46  1  0
 23 47  1  0
M  CHG  1   2   1
M  END
>  <meeko>  (6) 
{"is_sidechain": [false], "free_energy": -9.47, "intermolecular_energy": -12.37, "internal_energy": -0.515}

$$$$
cand_024_out
     RDKit          3D

 47 49  0  0  0  0  0  0  0  0999 V2000
   48.2290  161.5610   30.7380 C   0  0  0  0  0  0  0  0  0  0  0  0
   47.8950  160.3160   31.4340 N   0  0  0  0  0  0  0  0  0  0  0  0
   48.6680  160.2300   32.6770 C   0  0  0  0  0  0  0  0  0  0  0  0
   48.1620  159.1310   30.5950 C   0  0  0  0  0  0  0  0  0  0  0  0
   49.1300  158.1300   31.2520 C   0  0  0  0  0  0  0  0  0  0  0  0
   49.9940  157.4220   30.2240 C   0  0  0  0  0  0  0  0  0  0  0  0
   49.6090  156.1360   29.8070 C   0  0  0  0  0  0  0  0  0  0  0  0
   50.3670  155.4270   28.8730 C   0  0  0  0  0  0  0  0  0  0  0  0
   51.5270  155.9820   28.3220 C   0  0  0  0  0  0  0  0  0  0  0  0
   52.3240  155.2080   27.3470 C   0  0  0  0  0  0  0  0  0  0  0  0
   52.0360  153.8490   27.3710 O   0  0  0  0  0  0  0  0  0  0  0  0
   52.7050  153.0150   26.5120 C   0  0  0  0  0  0  0  0  0  0  0  0
   52.3960  151.6550   26.5800 C   0  0  0  0  0  0  0  0  0  0  0  0
   53.0410  150.7520   25.7320 C   0  0  0  0  0  0  0  0  0  0  0  0
   53.9930  151.2070   24.8190 C   0  0  0  0  0  0  0  0  0  0  0  0
   54.3000  152.5630   24.7530 C   0  0  0  0  0  0  0  0  0  0  0  0
   55.2420  152.9400   23.8350 O   0  0  0  0  0  0  0  0  0  0  0  0
   53.6560  153.4670   25.6020 C   0  0  0  0  0  0  0  0  0  0  0  0
   53.9490  154.9010   25.5660 C   0  0  0  0  0  0  0  0  0  0  0  0
   54.7680  155.3790   24.7850 O   0  0  0  0  0  0  0  0  0  0  0  0
   53.2150  155.7730   26.5120 C   0  0  0  0  0  0  0  0  0  0  0  0
   53.4880  157.1280   26.4630 O   0  0  0  0  0  0  0  0  0  0  0  0
   51.9190  157.2600   28.7480 C   0  0  0  0  0  0  0  0  0  0  0  0
   51.1700  157.9940   29.6940 C   0  0  0  0  0  0  0  0  0  0  0  0
   51.6460  159.3750   30.0870 C   0  0  0  0  0  0  0  0  0  0  0  0
   51.5470  159.6310   31.4230 F   0  0  0  0  0  0  0  0  0  0  0  0
   52.9530  159.5910   29.7670 F   0  0  0  0  0  0  0  0  0  0  0  0
   50.9430  160.3720   29.4770 F   0  0  0  0  0  0  0  0  0  0  0  0
   48.4403  162.3485   31.4764 H   0  0  0  0  0  0  0  0  0  0  0  0
   49.1162  161.4020   30.1075 H   0  0  0  0  0  0  0  0  0  0  0  0
   47.3813  161.8674   30.1075 H   0  0  0  0  0  0  0  0  0  0  0  0
   46.8960  160.3270   31.6440 H   0  0  0  0  0  0  0  0  0  0  0  0
   47.9875  160.3057   33.5379 H   0  0  0  0  0  0  0  0  0  0  0  0
   49.1989  159.2672   32.7128 H   0  0  0  0  0  0  0  0  0  0  0  0
   49.3975  161.0525   32.7128 H   0  0  0  0  0  0  0  0  0  0  0  0
   47.2084  158.6187   30.3995 H   0  0  0  0  0  0  0  0  0  0  0  0
   48.6370  159.4860   29.6685 H   0  0  0  0  0  0  0  0  0  0  0  0
   49.7823  158.6728   31.9519 H   0  0  0  0  0  0  0  0  0  0  0  0
   48.5317  157.3704   31.7765 H   0  0  0  0  0  0  0  0  0  0  0  0
   48.6974  155.6817   30.2225 H   0  0  0  0  0  0  0  0  0  0  0  0
   50.0482  154.4198   28.5667 H   0  0  0  0  0  0  0  0  0  0  0  0
   51.6461  151.2956   27.3000 H   0  0  0  0  0  0  0  0  0  0  0  0
   52.7981  149.6804   25.7839 H   0  0  0  0  0  0  0  0  0  0  0  0
   54.5005  150.4946   24.1519 H   0  0  0  0  0  0  0  0  0  0  0  0
   56.0970  152.5580   23.8580 H   0  0  0  0  0  0  0  0  0  0  0  0
   53.4890  157.5750   25.6390 H   0  0  0  0  0  0  0  0  0  0  0  0
   52.8363  157.7032   28.3332 H   0  0  0  0  0  0  0  0  0  0  0  0
  1  2  1  0
  2  3  1  0
  2  4  1  0
  4  5  1  0
  5  6  1  0
  6  7  2  0
  7  8  1  0
  8  9  2  0
  9 10  1  0
 10 11  1  0
 11 12  1  0
 12 13  2  0
 13 14  1  0
 14 15  2  0
 15 16  1  0
 16 17  1  0
 16 18  2  0
 18 19  1  0
 19 20  2  0
 19 21  1  0
 21 22  1  0
  9 23  1  0
 23 24  2  0
 24 25  1  0
 25 26  1  0
 25 27  1  0
 25 28  1  0
 24  6  1  0
 21 10  2  0
 18 12  1  0
  1 29  1  0
  1 30  1  0
  1 31  1  0
  2 32  1  0
  3 33  1  0
  3 34  1  0
  3 35  1  0
  4 36  1  0
  4 37  1  0
  5 38  1  0
  5 39  1  0
  7 40  1  0
  8 41  1  0
 13 42  1  0
 14 43  1  0
 15 44  1  0
 17 45  1  0
 22 46  1  0
 23 47  1  0
M  CHG  1   2   1
M  END
>  <meeko>  (7) 
{"is_sidechain": [false], "free_energy": -8.802, "intermolecular_energy": -11.847, "internal_energy": -0.135}

$$$$
cand_024_out
     RDKit          3D

 47 49  0  0  0  0  0  0  0  0999 V2000
   53.9980  152.0350   24.3590 C   0  0  0  0  0  0  0  0  0  0  0  0
   53.7680  153.3950   23.8650 N   0  0  0  0  0  0  0  0  0  0  0  0
   55.0560  154.0290   23.5630 C   0  0  0  0  0  0  0  0  0  0  0  0
   53.0230  154.2140   24.8410 C   0  0  0  0  0  0  0  0  0  0  0  0
   53.7690  154.3940   26.1750 C   0  0  0  0  0  0  0  0  0  0  0  0
   53.0050  155.2890   27.1340 C   0  0  0  0  0  0  0  0  0  0  0  0
   53.0210  156.6750   26.9030 C   0  0  0  0  0  0  0  0  0  0  0  0
   52.3480  157.5540   27.7540 C   0  0  0  0  0  0  0  0  0  0  0  0
   51.6320  157.0750   28.8560 C   0  0  0  0  0  0  0  0  0  0  0  0
   50.9410  158.0240   29.7540 C   0  0  0  0  0  0  0  0  0  0  0  0
   51.7350  159.1060   30.1140 O   0  0  0  0  0  0  0  0  0  0  0  0
   51.2120  160.0640   30.9440 C   0  0  0  0  0  0  0  0  0  0  0  0
   52.0480  161.1260   31.2930 C   0  0  0  0  0  0  0  0  0  0  0  0
   51.5780  162.1360   32.1340 C   0  0  0  0  0  0  0  0  0  0  0  0
   50.2730  162.0850   32.6270 C   0  0  0  0  0  0  0  0  0  0  0  0
   49.4400  161.0260   32.2780 C   0  0  0  0  0  0  0  0  0  0  0  0
   48.1740  161.0390   32.7950 O   0  0  0  0  0  0  0  0  0  0  0  0
   49.9110  160.0140   31.4370 C   0  0  0  0  0  0  0  0  0  0  0  0
   49.0690  158.8830   31.0460 C   0  0  0  0  0  0  0  0  0  0  0  0
   47.9080  158.7710   31.4320 O   0  0  0  0  0  0  0  0  0  0  0  0
   49.6670  157.8600   30.1560 C   0  0  0  0  0  0  0  0  0  0  0  0
   48.8600  156.8020   29.7800 O   0  0  0  0  0  0  0  0  0  0  0  0
   51.6270  155.6930   29.0960 C   0  0  0  0  0  0  0  0  0  0  0  0
   52.3030  154.7870   28.2510 C   0  0  0  0  0  0  0  0  0  0  0  0
   52.2320  153.3080   28.5630 C   0  0  0  0  0  0  0  0  0  0  0  0
   51.6840  152.5610   27.5620 F   0  0  0  0  0  0  0  0  0  0  0  0
   53.4570  152.7610   28.8000 F   0  0  0  0  0  0  0  0  0  0  0  0
   51.4800  153.0350   29.6680 F   0  0  0  0  0  0  0  0  0  0  0  0
   53.9973  152.0394   25.4590 H   0  0  0  0  0  0  0  0  0  0  0  0
   53.1991  151.3725   23.9945 H   0  0  0  0  0  0  0  0  0  0  0  0
   54.9703  151.6720   23.9945 H   0  0  0  0  0  0  0  0  0  0  0  0
   53.2020  153.3330   23.0170 H   0  0  0  0  0  0  0  0  0  0  0  0
   55.5695  154.2818   24.5024 H   0  0  0  0  0  0  0  0  0  0  0  0
   55.6788  153.3345   22.9801 H   0  0  0  0  0  0  0  0  0  0  0  0
   54.8855  154.9461   22.9801 H   0  0  0  0  0  0  0  0  0  0  0  0
   52.8468  155.2071   24.4020 H   0  0  0  0  0  0  0  0  0  0  0  0
   52.0828  153.6869   25.0604 H   0  0  0  0  0  0  0  0  0  0  0  0
   53.9061  153.4074   26.6418 H   0  0  0  0  0  0  0  0  0  0  0  0
   54.7377  154.8699   25.9626 H   0  0  0  0  0  0  0  0  0  0  0  0
   53.5721  157.0736   26.0385 H   0  0  0  0  0  0  0  0  0  0  0  0
   52.3813  158.6354   27.5555 H   0  0  0  0  0  0  0  0  0  0  0  0
   53.0767  161.1669   30.9054 H   0  0  0  0  0  0  0  0  0  0  0  0
   52.2367  162.9731   32.4086 H   0  0  0  0  0  0  0  0  0  0  0  0
   49.9035  162.8808   33.2905 H   0  0  0  0  0  0  0  0  0  0  0  0
   47.5270  161.6140   32.4360 H   0  0  0  0  0  0  0  0  0  0  0  0
   48.0280  156.6770   30.1940 H   0  0  0  0  0  0  0  0  0  0  0  0
   51.0805  155.3042   29.9679 H   0  0  0  0  0  0  0  0  0  0  0  0
  1  2  1  0
  2  3  1  0
  2  4  1  0
  4  5  1  0
  5  6  1  0
  6  7  2  0
  7  8  1  0
  8  9  2  0
  9 10  1  0
 10 11  1  0
 11 12  1  0
 12 13  2  0
 13 14  1  0
 14 15  2  0
 15 16  1  0
 16 17  1  0
 16 18  2  0
 18 19  1  0
 19 20  2  0
 19 21  1  0
 21 22  1  0
  9 23  1  0
 23 24  2  0
 24 25  1  0
 25 26  1  0
 25 27  1  0
 25 28  1  0
 24  6  1  0
 21 10  2  0
 18 12  1  0
  1 29  1  0
  1 30  1  0
  1 31  1  0
  2 32  1  0
  3 33  1  0
  3 34  1  0
  3 35  1  0
  4 36  1  0
  4 37  1  0
  5 38  1  0
  5 39  1  0
  7 40  1  0
  8 41  1  0
 13 42  1  0
 14 43  1  0
 15 44  1  0
 17 45  1  0
 22 46  1  0
 23 47  1  0
M  CHG  1   2   1
M  END
>  <meeko>  (8) 
{"is_sidechain": [false], "free_energy": -8.8, "intermolecular_energy": -11.488, "internal_energy": -0.492}

$$$$
cand_024_out
     RDKit          3D

 47 49  0  0  0  0  0  0  0  0999 V2000
   48.3980  161.5120   32.2600 C   0  0  0  0  0  0  0  0  0  0  0  0
   47.5820  160.6380   31.4130 N   0  0  0  0  0  0  0  0  0  0  0  0
   46.7560  159.7710   32.2610 C   0  0  0  0  0  0  0  0  0  0  0  0
   48.4140  159.8140   30.5150 C   0  0  0  0  0  0  0  0  0  0  0  0
   49.0520  158.6030   31.2210 C   0  0  0  0  0  0  0  0  0  0  0  0
   49.9160  157.7880   30.2750 C   0  0  0  0  0  0  0  0  0  0  0  0
   49.4560  156.5190   29.8840 C   0  0  0  0  0  0  0  0  0  0  0  0
   50.2080  155.7150   29.0250 C   0  0  0  0  0  0  0  0  0  0  0  0
   51.4390  156.1560   28.5270 C   0  0  0  0  0  0  0  0  0  0  0  0
   52.2280  155.2820   27.6330 C   0  0  0  0  0  0  0  0  0  0  0  0
   52.9250  155.9890   26.6610 O   0  0  0  0  0  0  0  0  0  0  0  0
   53.7000  155.2960   25.7660 C   0  0  0  0  0  0  0  0  0  0  0  0
   54.3710  156.0440   24.7980 C   0  0  0  0  0  0  0  0  0  0  0  0
   55.1780  155.4020   23.8570 C   0  0  0  0  0  0  0  0  0  0  0  0
   55.3130  154.0120   23.8840 C   0  0  0  0  0  0  0  0  0  0  0  0
   54.6430  153.2680   24.8510 C   0  0  0  0  0  0  0  0  0  0  0  0
   54.8200  151.9120   24.8200 O   0  0  0  0  0  0  0  0  0  0  0  0
   53.8350  153.9110   25.7920 C   0  0  0  0  0  0  0  0  0  0  0  0
   53.1120  153.1670   26.8250 C   0  0  0  0  0  0  0  0  0  0  0  0
   53.1860  151.9440   26.9180 O   0  0  0  0  0  0  0  0  0  0  0  0
   52.2770  153.9440   27.7700 C   0  0  0  0  0  0  0  0  0  0  0  0
   51.6090  153.2340   28.7510 O   0  0  0  0  0  0  0  0  0  0  0  0
   51.9060  157.4160   28.9280 C   0  0  0  0  0  0  0  0  0  0  0  0
   51.1630  158.2450   29.7980 C   0  0  0  0  0  0  0  0  0  0  0  0
   51.7240  159.6010   30.1680 C   0  0  0  0  0  0  0  0  0  0  0  0
   53.0490  159.7440   29.8790 F   0  0  0  0  0  0  0  0  0  0  0  0
   51.0950  160.6230   29.5230 F   0  0  0  0  0  0  0  0  0  0  0  0
   51.6150  159.8740   31.4990 F   0  0  0  0  0  0  0  0  0  0  0  0
   48.1931  161.2925   33.3182 H   0  0  0  0  0  0  0  0  0  0  0  0
   49.4632  161.3369   32.0488 H   0  0  0  0  0  0  0  0  0  0  0  0
   48.1502  162.5627   32.0488 H   0  0  0  0  0  0  0  0  0  0  0  0
   46.9860  161.2260   30.8290 H   0  0  0  0  0  0  0  0  0  0  0  0
   46.9630  159.9883   33.3193 H   0  0  0  0  0  0  0  0  0  0  0  0
   45.6926  159.9569   32.0497 H   0  0  0  0  0  0  0  0  0  0  0  0
   46.9932  158.7178   32.0497 H   0  0  0  0  0  0  0  0  0  0  0  0
   47.7827  159.4466   29.6925 H   0  0  0  0  0  0  0  0  0  0  0  0
   49.2344  160.4511   30.1530 H   0  0  0  0  0  0  0  0  0  0  0  0
   49.6764  158.9637   32.0517 H   0  0  0  0  0  0  0  0  0  0  0  0
   48.2417  157.9553   31.5869 H   0  0  0  0  0  0  0  0  0  0  0  0
   48.4891  156.1536   30.2603 H   0  0  0  0  0  0  0  0  0  0  0  0
   49.8284  154.7237   28.7365 H   0  0  0  0  0  0  0  0  0  0  0  0
   54.2642  157.1386   24.7763 H   0  0  0  0  0  0  0  0  0  0  0  0
   55.7078  155.9911   23.0939 H   0  0  0  0  0  0  0  0  0  0  0  0
   55.9480  153.5059   23.1420 H   0  0  0  0  0  0  0  0  0  0  0  0
   55.6800  151.5540   24.7140 H   0  0  0  0  0  0  0  0  0  0  0  0
   51.9110  152.3830   29.0020 H   0  0  0  0  0  0  0  0  0  0  0  0
   52.8786  157.7690   28.5545 H   0  0  0  0  0  0  0  0  0  0  0  0
  1  2  1  0
  2  3  1  0
  2  4  1  0
  4  5  1  0
  5  6  1  0
  6  7  2  0
  7  8  1  0
  8  9  2  0
  9 10  1  0
 10 11  1  0
 11 12  1  0
 12 13  2  0
 13 14  1  0
 14 15  2  0
 15 16  1  0
 16 17  1  0
 16 18  2  0
 18 19  1  0
 19 20  2  0
 19 21  1  0
 21 22  1  0
  9 23  1  0
 23 24  2  0
 24 25  1  0
 25 26  1  0
 25 27  1  0
 25 28  1  0
 24  6  1  0
 21 10  2  0
 18 12  1  0
  1 29  1  0
  1 30  1  0
  1 31  1  0
  2 32  1  0
  3 33  1  0
  3 34  1  0
  3 35  1  0
  4 36  1  0
  4 37  1  0
  5 38  1  0
  5 39  1  0
  7 40  1  0
  8 41  1  0
 13 42  1  0
 14 43  1  0
 15 44  1  0
 17 45  1  0
 22 46  1  0
 23 47  1  0
M  CHG  1   2   1
M  END
>  <meeko>  (9) 
{"is_sidechain": [false], "free_energy": -8.31, "intermolecular_energy": -11.424, "internal_energy": 0.106}

$$$$
