cand_006_out
     RDKit          3D

 47 50  0  0  0  0  0  0  0  0999 V2000
   52.2480  152.4230   27.2720 C   0  0  0  0  0  0  0  0  0  0  0  0
   52.0140  153.7810   27.8750 C   0  0  0  0  0  0  0  0  0  0  0  0
   51.3390  153.8920   29.0980 C   0  0  0  0  0  0  0  0  0  0  0  0
   51.1140  155.1420   29.6770 C   0  0  0  0  0  0  0  0  0  0  0  0
   51.5660  156.3100   29.0510 C   0  0  0  0  0  0  0  0  0  0  0  0
   51.2960  157.6260   29.6680 C   0  0  0  0  0  0  0  0  0  0  0  0
   50.0040  157.7340   30.1700 O   0  0  0  0  0  0  0  0  0  0  0  0
   49.6200  158.9050   30.7710 C   0  0  0  0  0  0  0  0  0  0  0  0
   48.3090  158.9730   31.2460 C   0  0  0  0  0  0  0  0  0  0  0  0
   47.8540  160.1370   31.8700 C   0  0  0  0  0  0  0  0  0  0  0  0
   48.7100  161.2310   32.0190 C   0  0  0  0  0  0  0  0  0  0  0  0
   50.0170  161.1600   31.5450 C   0  0  0  0  0  0  0  0  0  0  0  0
   50.8000  162.2670   31.7240 O   0  0  0  0  0  0  0  0  0  0  0  0
   50.4710  159.9950   30.9190 C   0  0  0  0  0  0  0  0  0  0  0  0
   51.8370  159.8790   30.4060 C   0  0  0  0  0  0  0  0  0  0  0  0
   52.6500  160.7960   30.5060 O   0  0  0  0  0  0  0  0  0  0  0  0
   52.2170  158.6050   29.7530 C   0  0  0  0  0  0  0  0  0  0  0  0
   53.5140  158.5020   29.2840 O   0  0  0  0  0  0  0  0  0  0  0  0
   52.2310  156.1950   27.8220 C   0  0  0  0  0  0  0  0  0  0  0  0
   52.4690  154.9440   27.2240 C   0  0  0  0  0  0  0  0  0  0  0  0
   53.1510  154.8180   25.9910 N   0  0  0  0  0  0  0  0  0  0  0  0
   54.0120  153.6250   25.9520 C   0  0  0  0  0  0  0  0  0  0  0  0
   54.5290  153.4290   24.5270 C   0  0  0  0  0  0  0  0  0  0  0  0
   55.2460  154.6820   24.0220 C   0  0  0  0  0  0  0  0  0  0  0  0
   54.3560  155.9160   24.1710 C   0  0  0  0  0  0  0  0  0  0  0  0
   53.8430  156.0580   25.6040 C   0  0  0  0  0  0  0  0  0  0  0  0
   52.3756  151.6823   28.0751 H   0  0  0  0  0  0  0  0  0  0  0  0
   51.3846  152.1443   26.6500 H   0  0  0  0  0  0  0  0  0  0  0  0
   53.1548  152.4493   26.6500 H   0  0  0  0  0  0  0  0  0  0  0  0
   50.9827  152.9844   29.6072 H   0  0  0  0  0  0  0  0  0  0  0  0
   50.5764  155.2101   30.6343 H   0  0  0  0  0  0  0  0  0  0  0  0
   47.6353  158.1113   31.1291 H   0  0  0  0  0  0  0  0  0  0  0  0
   46.8211  160.1922   32.2443 H   0  0  0  0  0  0  0  0  0  0  0  0
   48.3516  162.1476   32.5104 H   0  0  0  0  0  0  0  0  0  0  0  0
   50.4120  163.0760   31.9910 H   0  0  0  0  0  0  0  0  0  0  0  0
   53.8430  157.6740   28.9960 H   0  0  0  0  0  0  0  0  0  0  0  0
   52.5756  157.1067   27.3121 H   0  0  0  0  0  0  0  0  0  0  0  0
   54.8619  153.7613   26.6369 H   0  0  0  0  0  0  0  0  0  0  0  0
   53.4355  152.7411   26.2624 H   0  0  0  0  0  0  0  0  0  0  0  0
   55.2321  152.5832   24.5135 H   0  0  0  0  0  0  0  0  0  0  0  0
   53.6703  153.2298   23.8690 H   0  0  0  0  0  0  0  0  0  0  0  0
   56.1672  154.8296   24.6048 H   0  0  0  0  0  0  0  0  0  0  0  0
   55.4836  154.5461   22.9566 H   0  0  0  0  0  0  0  0  0  0  0  0
   54.9376  156.8118   23.9077 H   0  0  0  0  0  0  0  0  0  0  0  0
   53.4909  155.8044   23.5008 H   0  0  0  0  0  0  0  0  0  0  0  0
   54.6901  156.2348   26.2830 H   0  0  0  0  0  0  0  0  0  0  0  0
   53.1464  156.9070   25.6667 H   0  0  0  0  0  0  0  0  0  0  0  0
  1  2  1  0
  2  3  2  0
  3  4  1  0
  4  5  2  0
  5  6  1  0
  6  7  1  0
  7  8  1  0
  8  9  2  0
  9 10  1  0
 10 11  2  0
 11 12  1  0
 12 13  1  0
 12 14  2  0
 14 15  1  0
 15 16  2  0
 15 17  1  0
 17 18  1  0
  5 19  1  0
 19 20  2  0
 20 21  1  0
 21 22  1  0
 22 23  1  0
 23 24  1  0
 24 25  1  0
 25 26  1  0
 20  2  1  0
 26 21  1  0
 17  6  2  0
 14  8  1  0
  1 27  1  0
  1 28  1  0
  1 29  1  0
  3 30  1  0
  4 31  1  0
  9 32  1  0
 10 33  1  0
 11 34  1  0
 13 35  1  0
 18 36  1  0
 19 37  1  0
 22 38  1  0
 22 39  1  0
 23 40  1  0
 23 41  1  0
 24 42  1  0
 24 43  1  0
 25 44  1  0
 25 45  1  0
 26 46  1  0
 26 47  1  0
M  END
>  <meeko>  (1) 
{"is_sidechain": [false], "free_energy": -10.616, "intermolecular_energy": -12.477, "internal_energy": 0.91}

$$$$
cand_006_out
     RDKit          3D

 47 50  0  0  0  0  0  0  0  0999 V2000
   51.7170  161.4350   31.1710 C   0  0  0  0  0  0  0  0  0  0  0  0
   51.8320  160.0980   30.4900 C   0  0  0  0  0  0  0  0  0  0  0  0
   53.0800  159.6590   30.0270 C   0  0  0  0  0  0  0  0  0  0  0  0
   53.2100  158.4220   29.3960 C   0  0  0  0  0  0  0  0  0  0  0  0
   52.0980  157.5900   29.2190 C   0  0  0  0  0  0  0  0  0  0  0  0
   52.2530  156.2930   28.5250 C   0  0  0  0  0  0  0  0  0  0  0  0
   52.8010  156.4220   27.2540 O   0  0  0  0  0  0  0  0  0  0  0  0
   53.0010  155.2950   26.5000 C   0  0  0  0  0  0  0  0  0  0  0  0
   53.5400  155.4730   25.2240 C   0  0  0  0  0  0  0  0  0  0  0  0
   53.7690  154.3660   24.4040 C   0  0  0  0  0  0  0  0  0  0  0  0
   53.4600  153.0830   24.8590 C   0  0  0  0  0  0  0  0  0  0  0  0
   52.9230  152.9070   26.1320 C   0  0  0  0  0  0  0  0  0  0  0  0
   52.6450  151.6240   26.5130 O   0  0  0  0  0  0  0  0  0  0  0  0
   52.6920  154.0160   26.9510 C   0  0  0  0  0  0  0  0  0  0  0  0
   52.1300  153.8760   28.2950 C   0  0  0  0  0  0  0  0  0  0  0  0
   51.8390  152.7790   28.7690 O   0  0  0  0  0  0  0  0  0  0  0  0
   51.9170  155.1140   29.0810 C   0  0  0  0  0  0  0  0  0  0  0  0
   51.3970  154.9680   30.3540 O   0  0  0  0  0  0  0  0  0  0  0  0
   50.8490  158.0380   29.6740 C   0  0  0  0  0  0  0  0  0  0  0  0
   50.6980  159.2810   30.3140 C   0  0  0  0  0  0  0  0  0  0  0  0
   49.4450  159.7350   30.7880 N   0  0  0  0  0  0  0  0  0  0  0  0
   49.4340  159.9080   32.2500 C   0  0  0  0  0  0  0  0  0  0  0  0
   48.1400  160.6130   32.6590 C   0  0  0  0  0  0  0  0  0  0  0  0
   46.9130  159.8550   32.1510 C   0  0  0  0  0  0  0  0  0  0  0  0
   47.0090  159.6070   30.6460 C   0  0  0  0  0  0  0  0  0  0  0  0
   48.3270  158.9240   30.2810 C   0  0  0  0  0  0  0  0  0  0  0  0
   51.7292  161.2932   32.2617 H   0  0  0  0  0  0  0  0  0  0  0  0
   52.5637  162.0715   30.8745 H   0  0  0  0  0  0  0  0  0  0  0  0
   50.7740  161.9176   30.8745 H   0  0  0  0  0  0  0  0  0  0  0  0
   53.9660  160.2966   30.1627 H   0  0  0  0  0  0  0  0  0  0  0  0
   54.1964  158.0967   29.0337 H   0  0  0  0  0  0  0  0  0  0  0  0
   53.7839  156.4839   24.8653 H   0  0  0  0  0  0  0  0  0  0  0  0
   54.1932  154.5052   23.3987 H   0  0  0  0  0  0  0  0  0  0  0  0
   53.6405  152.2115   24.2125 H   0  0  0  0  0  0  0  0  0  0  0  0
   52.1080  151.0800   25.9720 H   0  0  0  0  0  0  0  0  0  0  0  0
   50.7160  154.3440   30.5130 H   0  0  0  0  0  0  0  0  0  0  0  0
   49.9648  157.4005   29.5263 H   0  0  0  0  0  0  0  0  0  0  0  0
   49.4877  158.9237   32.7381 H   0  0  0  0  0  0  0  0  0  0  0  0
   50.2997  160.5123   32.5589 H   0  0  0  0  0  0  0  0  0  0  0  0
   48.0956  160.6732   33.7565 H   0  0  0  0  0  0  0  0  0  0  0  0
   48.1363  161.6194   32.2149 H   0  0  0  0  0  0  0  0  0  0  0  0
   46.8459  158.8883   32.6716 H   0  0  0  0  0  0  0  0  0  0  0  0
   46.0177  160.4621   32.3505 H   0  0  0  0  0  0  0  0  0  0  0  0
   46.1731  158.9634   30.3344 H   0  0  0  0  0  0  0  0  0  0  0  0
   46.9650  160.5773   30.1297 H   0  0  0  0  0  0  0  0  0  0  0  0
   48.3618  157.9231   30.7360 H   0  0  0  0  0  0  0  0  0  0  0  0
   48.4045  158.8274   29.1880 H   0  0  0  0  0  0  0  0  0  0  0  0
  1  2  1  0
  2  3  2  0
  3  4  1  0
  4  5  2  0
  5  6  1  0
  6  7  1  0
  7  8  1  0
  8  9  2  0
  9 10  1  0
 10 11  2  0
 11 12  1  0
 12 13  1  0
 12 14  2  0
 14 15  1  0
 15 16  2  0
 15 17  1  0
 17 18  1  0
  5 19  1  0
 19 20  2  0
 20 21  1  0
 21 22  1  0
 22 23  1  0
 23 24  1  0
 24 25  1  0
 25 26  1  0
 20  2  1  0
 26 21  1  0
 17  6  2  0
 14  8  1  0
  1 27  1  0
  1 28  1  0
  1 29  1  0
  3 30  1  0
  4 31  1  0
  9 32  1  0
 10 33  1  0
 11 34  1  0
 13 35  1  0
 18 36  1  0
 19 37  1  0
 22 38  1  0
 22 39  1  0
 23 40  1  0
 23 41  1  0
 24 42  1  0
 24 43  1  0
 25 44  1  0
 25 45  1  0
 26 46  1  0
 26 47  1  0
M  END
>  <meeko>  (2) 
{"is_sidechain": [false], "free_energy": -10.3, "intermolecular_energy": -11.184, "internal_energy": -0.012}

$$$$
cand_006_out
     RDKit          3D

 47 50  0  0  0  0  0  0  0  0999 V2000
   53.2740  152.6360   27.3250 C   0  0  0  0  0  0  0  0  0  0  0  0
   52.6600  153.8730   27.9230 C   0  0  0  0  0  0  0  0  0  0  0  0
   51.8330  153.7640   29.0490 C   0  0  0  0  0  0  0  0  0  0  0  0
   51.2570  154.8990   29.6210 C   0  0  0  0  0  0  0  0  0  0  0  0
   51.4990  156.1700   29.0870 C   0  0  0  0  0  0  0  0  0  0  0  0
   50.8600  157.3570   29.6930 C   0  0  0  0  0  0  0  0  0  0  0  0
   51.7650  158.3740   29.9740 O   0  0  0  0  0  0  0  0  0  0  0  0
   51.3040  159.5360   30.5380 C   0  0  0  0  0  0  0  0  0  0  0  0
   52.2500  160.5240   30.8170 C   0  0  0  0  0  0  0  0  0  0  0  0
   51.8480  161.7310   31.3910 C   0  0  0  0  0  0  0  0  0  0  0  0
   50.5010  161.9510   31.6860 C   0  0  0  0  0  0  0  0  0  0  0  0
   49.5580  160.9650   31.4060 C   0  0  0  0  0  0  0  0  0  0  0  0
   48.2570  161.2470   31.7200 O   0  0  0  0  0  0  0  0  0  0  0  0
   49.9620  159.7550   30.8330 C   0  0  0  0  0  0  0  0  0  0  0  0
   49.0050  158.6930   30.5240 C   0  0  0  0  0  0  0  0  0  0  0  0
   47.8020  158.8130   30.7470 O   0  0  0  0  0  0  0  0  0  0  0  0
   49.5360  157.4460   29.9240 C   0  0  0  0  0  0  0  0  0  0  0  0
   48.6210  156.4540   29.6240 O   0  0  0  0  0  0  0  0  0  0  0  0
   52.3190  156.2730   27.9540 C   0  0  0  0  0  0  0  0  0  0  0  0
   52.9110  155.1410   27.3640 C   0  0  0  0  0  0  0  0  0  0  0  0
   53.7500  155.2380   26.2290 N   0  0  0  0  0  0  0  0  0  0  0  0
   53.7870  156.6040   25.6800 C   0  0  0  0  0  0  0  0  0  0  0  0
   54.8800  156.6820   24.6140 C   0  0  0  0  0  0  0  0  0  0  0  0
   54.6730  155.6230   23.5310 C   0  0  0  0  0  0  0  0  0  0  0  0
   54.5400  154.2310   24.1470 C   0  0  0  0  0  0  0  0  0  0  0  0
   53.4540  154.2050   25.2230 C   0  0  0  0  0  0  0  0  0  0  0  0
   53.6068  151.9655   28.1310 H   0  0  0  0  0  0  0  0  0  0  0  0
   52.5275  152.1199   26.7035 H   0  0  0  0  0  0  0  0  0  0  0  0
   54.1365  152.9185   26.7035 H   0  0  0  0  0  0  0  0  0  0  0  0
   51.6360  152.7741   29.4862 H   0  0  0  0  0  0  0  0  0  0  0  0
   50.6057  154.7937   30.5012 H   0  0  0  0  0  0  0  0  0  0  0  0
   53.3112  160.3514   30.5847 H   0  0  0  0  0  0  0  0  0  0  0  0
   52.5930  162.5098   31.6112 H   0  0  0  0  0  0  0  0  0  0  0  0
   50.1849  162.9022   32.1391 H   0  0  0  0  0  0  0  0  0  0  0  0
   47.5820  160.6340   31.5090 H   0  0  0  0  0  0  0  0  0  0  0  0
   48.9190  155.6040   29.3660 H   0  0  0  0  0  0  0  0  0  0  0  0
   52.5042  157.2645   27.5151 H   0  0  0  0  0  0  0  0  0  0  0  0
   52.8136  156.8467   25.2287 H   0  0  0  0  0  0  0  0  0  0  0  0
   54.0007  157.3226   26.4850 H   0  0  0  0  0  0  0  0  0  0  0  0
   54.8579  157.6790   24.1498 H   0  0  0  0  0  0  0  0  0  0  0  0
   55.8513  156.5005   25.0973 H   0  0  0  0  0  0  0  0  0  0  0  0
   53.7568  155.8571   22.9690 H   0  0  0  0  0  0  0  0  0  0  0  0
   55.5464  155.6291   22.8623 H   0  0  0  0  0  0  0  0  0  0  0  0
   54.2793  153.5120   23.3564 H   0  0  0  0  0  0  0  0  0  0  0  0
   55.4995  153.9629   24.6134 H   0  0  0  0  0  0  0  0  0  0  0  0
   52.4752  154.4074   24.7638 H   0  0  0  0  0  0  0  0  0  0  0  0
   53.4304  153.2155   25.7028 H   0  0  0  0  0  0  0  0  0  0  0  0
  1  2  1  0
  2  3  2  0
  3  4  1  0
  4  5  2  0
  5  6  1  0
  6  7  1  0
  7  8  1  0
  8  9  2  0
  9 10  1  0
 10 11  2  0
 11 12  1  0
 12 13  1  0
 12 14  2  0
 14 15  1  0
 15 16  2  0
 15 17  1  0
 17 18  1  0
  5 19  1  0
 19 20  2  0
 20 21  1  0
 21 22  1  0
 22 23  1  0
 23 24  1  0
 24 25  1  0
 25 26  1  0
 20  2  1  0
 26 21  1  0
 17  6  2  0
 14  8  1  0
  1 27  1  0
  1 28  1  0
  1 29  1  0
  3 30  1  0
  4 31  1  0
  9 32  1  0
 10 33  1  0
 11 34  1  0
 13 35  1  0
 18 36  1  0
 19 37  1  0
 22 38  1  0
 22 39  1  0
 23 40  1  0
 23 41  1  0
 24 42  1  0
 24 43  1  0
 25 44  1  0
 25 45  1  0
 26 46  1  0
 26 47  1  0
M  END
>  <meeko>  (3) 
{"is_sidechain": [false], "free_energy": -8.954, "intermolecular_energy": -10.238, "internal_energy": 0.624}

$$$$
cand_006_out
     RDKit          3D

 47 50  0  0  0  0  0  0  0  0999 V2000
   48.6290  160.0060   31.5790 C   0  0  0  0  0  0  0  0  0  0  0  0
   49.4530  159.0170   30.8000 C   0  0  0  0  0  0  0  0  0  0  0  0
   48.9180  157.7620   30.4850 C   0  0  0  0  0  0  0  0  0  0  0  0
   49.6630  156.8310   29.7610 C   0  0  0  0  0  0  0  0  0  0  0  0
   50.9590  157.1350   29.3290 C   0  0  0  0  0  0  0  0  0  0  0  0
   51.7430  156.1260   28.5840 C   0  0  0  0  0  0  0  0  0  0  0  0
   52.2500  156.6130   27.3850 O   0  0  0  0  0  0  0  0  0  0  0  0
   52.9990  155.7800   26.5930 C   0  0  0  0  0  0  0  0  0  0  0  0
   53.4750  156.3070   25.3920 C   0  0  0  0  0  0  0  0  0  0  0  0
   54.2440  155.5120   24.5390 C   0  0  0  0  0  0  0  0  0  0  0  0
   54.5380  154.1920   24.8890 C   0  0  0  0  0  0  0  0  0  0  0  0
   54.0620  153.6690   26.0880 C   0  0  0  0  0  0  0  0  0  0  0  0
   54.3880  152.3710   26.3680 O   0  0  0  0  0  0  0  0  0  0  0  0
   53.2900  154.4650   26.9400 C   0  0  0  0  0  0  0  0  0  0  0  0
   52.7710  153.9550   28.2100 C   0  0  0  0  0  0  0  0  0  0  0  0
   52.9930  152.8070   28.5900 O   0  0  0  0  0  0  0  0  0  0  0  0
   51.9580  154.8770   29.0370 C   0  0  0  0  0  0  0  0  0  0  0  0
   51.4830  154.3870   30.2400 O   0  0  0  0  0  0  0  0  0  0  0  0
   51.4960  158.3890   29.6560 C   0  0  0  0  0  0  0  0  0  0  0  0
   50.7590  159.3410   30.3830 C   0  0  0  0  0  0  0  0  0  0  0  0
   51.2880  160.6130   30.7060 N   0  0  0  0  0  0  0  0  0  0  0  0
   52.7120  160.7300   30.3510 C   0  0  0  0  0  0  0  0  0  0  0  0
   53.1480  162.1870   30.5100 C   0  0  0  0  0  0  0  0  0  0  0  0
   52.8540  162.7000   31.9200 C   0  0  0  0  0  0  0  0  0  0  0  0
   51.3890  162.4710   32.2910 C   0  0  0  0  0  0  0  0  0  0  0  0
   50.9920  161.0080   32.0930 C   0  0  0  0  0  0  0  0  0  0  0  0
   48.7719  159.8345   32.6561 H   0  0  0  0  0  0  0  0  0  0  0  0
   48.9464  161.0282   31.3252 H   0  0  0  0  0  0  0  0  0  0  0  0
   47.5663  159.8784   31.3252 H   0  0  0  0  0  0  0  0  0  0  0  0
   47.8991  157.5074   30.8120 H   0  0  0  0  0  0  0  0  0  0  0  0
   49.2275  155.8483   29.5273 H   0  0  0  0  0  0  0  0  0  0  0  0
   53.2450  157.3470   25.1173 H   0  0  0  0  0  0  0  0  0  0  0  0
   54.6184  155.9256   23.5910 H   0  0  0  0  0  0  0  0  0  0  0  0
   55.1450  153.5665   24.2179 H   0  0  0  0  0  0  0  0  0  0  0  0
   53.9890  151.9340   27.0940 H   0  0  0  0  0  0  0  0  0  0  0  0
   50.5690  154.4360   30.4370 H   0  0  0  0  0  0  0  0  0  0  0  0
   52.5194  158.6340   29.3357 H   0  0  0  0  0  0  0  0  0  0  0  0
   53.3114  160.0912   31.0163 H   0  0  0  0  0  0  0  0  0  0  0  0
   52.8624  160.4092   29.3096 H   0  0  0  0  0  0  0  0  0  0  0  0
   54.2287  162.2613   30.3190 H   0  0  0  0  0  0  0  0  0  0  0  0
   52.5847  162.8002   29.7911 H   0  0  0  0  0  0  0  0  0  0  0  0
   53.4946  162.1667   32.6378 H   0  0  0  0  0  0  0  0  0  0  0  0
   53.0587  163.7804   31.9500 H   0  0  0  0  0  0  0  0  0  0  0  0
   51.2389  162.7441   33.3459 H   0  0  0  0  0  0  0  0  0  0  0  0
   50.7619  163.0943   31.6366 H   0  0  0  0  0  0  0  0  0  0  0  0
   51.5636  160.3739   32.7867 H   0  0  0  0  0  0  0  0  0  0  0  0
   49.9173  160.8850   32.2925 H   0  0  0  0  0  0  0  0  0  0  0  0
  1  2  1  0
  2  3  2  0
  3  4  1  0
  4  5  2  0
  5  6  1  0
  6  7  1  0
  7  8  1  0
  8  9  2  0
  9 10  1  0
 10 11  2  0
 11 12  1  0
 12 13  1  0
 12 14  2  0
 14 15  1  0
 15 16  2  0
 15 17  1  0
 17 18  1  0
  5 19  1  0
 19 20  2  0
 20 21  1  0
 21 22  1  0
 22 23  1  0
 23 24  1  0
 24 25  1  0
 25 26  1  0
 20  2  1  0
 26 21  1  0
 17  6  2  0
 14  8  1  0
  1 27  1  0
  1 28  1  0
  1 29  1  0
  3 30  1  0
  4 31  1  0
  9 32  1  0
 10 33  1  0
 11 34  1  0
 13 35  1  0
 18 36  1  0
 19 37  1  0
 22 38  1  0
 22 39  1  0
 23 40  1  0
 23 41  1  0
 24 42  1  0
 24 43  1  0
 25 44  1  0
 25 45  1  0
 26 46  1  0
 26 47  1  0
M  END
>  <meeko>  (4) 
{"is_sidechain": [false], "free_energy": -8.848, "intermolecular_energy": -10.112, "internal_energy": 0.622}

$$$$
cand_006_out
     RDKit          3D

 47 50  0  0  0  0  0  0  0  0999 V2000
   55.0920  153.9220   24.1100 C   0  0  0  0  0  0  0  0  0  0  0  0
   54.2480  154.5760   25.1710 C   0  0  0  0  0  0  0  0  0  0  0  0
   54.1840  155.9740   25.2440 C   0  0  0  0  0  0  0  0  0  0  0  0
   53.4050  156.6010   26.2180 C   0  0  0  0  0  0  0  0  0  0  0  0
   52.6660  155.8460   27.1360 C   0  0  0  0  0  0  0  0  0  0  0  0
   51.8670  156.5290   28.1760 C   0  0  0  0  0  0  0  0  0  0  0  0
   52.3900  157.7660   28.5350 O   0  0  0  0  0  0  0  0  0  0  0  0
   51.7450  158.5080   29.4900 C   0  0  0  0  0  0  0  0  0  0  0  0
   52.3150  159.7370   29.8300 C   0  0  0  0  0  0  0  0  0  0  0  0
   51.7080  160.5430   30.7950 C   0  0  0  0  0  0  0  0  0  0  0  0
   50.5320  160.1220   31.4190 C   0  0  0  0  0  0  0  0  0  0  0  0
   49.9650  158.8970   31.0780 C   0  0  0  0  0  0  0  0  0  0  0  0
   48.8130  158.5470   31.7270 O   0  0  0  0  0  0  0  0  0  0  0  0
   50.5740  158.0890   30.1130 C   0  0  0  0  0  0  0  0  0  0  0  0
   50.0120  156.7950   29.7250 C   0  0  0  0  0  0  0  0  0  0  0  0
   48.9760  156.3590   30.2240 O   0  0  0  0  0  0  0  0  0  0  0  0
   50.7380  156.0130   28.6980 C   0  0  0  0  0  0  0  0  0  0  0  0
   50.1900  154.7970   28.3310 O   0  0  0  0  0  0  0  0  0  0  0  0
   52.7420  154.4470   27.0660 C   0  0  0  0  0  0  0  0  0  0  0  0
   53.5200  153.7960   26.0910 C   0  0  0  0  0  0  0  0  0  0  0  0
   53.5910  152.3870   26.0050 N   0  0  0  0  0  0  0  0  0  0  0  0
   54.2070  151.9380   24.7450 C   0  0  0  0  0  0  0  0  0  0  0  0
   54.4610  150.4320   24.8230 C   0  0  0  0  0  0  0  0  0  0  0  0
   53.1750  149.6710   25.1480 C   0  0  0  0  0  0  0  0  0  0  0  0
   52.5130  150.2310   26.4060 C   0  0  0  0  0  0  0  0  0  0  0  0
   52.3010  151.7410   26.2940 C   0  0  0  0  0  0  0  0  0  0  0  0
   55.8754  153.3149   24.5872 H   0  0  0  0  0  0  0  0  0  0  0  0
   54.4585  153.2766   23.4837 H   0  0  0  0  0  0  0  0  0  0  0  0
   55.5588  154.6965   23.4837 H   0  0  0  0  0  0  0  0  0  0  0  0
   54.7533  156.5834   24.5266 H   0  0  0  0  0  0  0  0  0  0  0  0
   53.3716  157.6995   26.2645 H   0  0  0  0  0  0  0  0  0  0  0  0
   53.2410  160.0695   29.3381 H   0  0  0  0  0  0  0  0  0  0  0  0
   52.1567  161.5107   31.0640 H   0  0  0  0  0  0  0  0  0  0  0  0
   50.0541  160.7574   32.1791 H   0  0  0  0  0  0  0  0  0  0  0  0
   48.6420  157.6480   31.9250 H   0  0  0  0  0  0  0  0  0  0  0  0
   49.4520  154.7710   27.7550 H   0  0  0  0  0  0  0  0  0  0  0  0
   52.1785  153.8431   27.7925 H   0  0  0  0  0  0  0  0  0  0  0  0
   53.5297  152.1546   23.9058 H   0  0  0  0  0  0  0  0  0  0  0  0
   55.1583  152.4673   24.5875 H   0  0  0  0  0  0  0  0  0  0  0  0
   54.8497  150.0830   23.8550 H   0  0  0  0  0  0  0  0  0  0  0  0
   55.1902  150.2425   25.6245 H   0  0  0  0  0  0  0  0  0  0  0  0
   52.4778  149.7643   24.3023 H   0  0  0  0  0  0  0  0  0  0  0  0
   53.4267  148.6147   25.3239 H   0  0  0  0  0  0  0  0  0  0  0  0
   51.5381  149.7413   26.5467 H   0  0  0  0  0  0  0  0  0  0  0  0
   53.1731  150.0347   27.2637 H   0  0  0  0  0  0  0  0  0  0  0  0
   51.5916  151.9543   25.4808 H   0  0  0  0  0  0  0  0  0  0  0  0
   51.8948  152.1298   27.2394 H   0  0  0  0  0  0  0  0  0  0  0  0
  1  2  1  0
  2  3  2  0
  3  4  1  0
  4  5  2  0
  5  6  1  0
  6  7  1  0
  7  8  1  0
  8  9  2  0
  9 10  1  0
 10 11  2  0
 11 12  1  0
 12 13  1  0
 12 14  2  0
 14 15  1  0
 15 16  2  0
 15 17  1  0
 17 18  1  0
  5 19  1  0
 19 20  2  0
 20 21  1  0
 21 22  1  0
 22 23  1  0
 23 24  1  0
 24 25  1  0
 25 26  1  0
 20  2  1  0
 26 21  1  0
 17  6  2  0
 14  8  1  0
  1 27  1  0
  1 28  1  0
  1 29  1  0
  3 30  1  0
  4 31  1  0
  9 32  1  0
 10 33  1  0
 11 34  1  0
 13 35  1  0
 18 36  1  0
 19 37  1  0
 22 38  1  0
 22 39  1  0
 23 40  1  0
 23 41  1  0
 24 42  1  0
 24 43  1  0
 25 44  1  0
 25 45  1  0
 26 46  1  0
 26 47  1  0
M  END
>  <meeko>  (5) 
{"is_sidechain": [false], "free_energy": -7.751, "intermolecular_energy": -9.866, "internal_energy": 1.665}

$$$$
