cand_020_out
     RDKit          3D

 50 53  0  0  0  0  0  0  0  0999 V2000
   53.1170  162.1910   30.8990 C   0  0  0  0  0  0  0  0  0  0  0  0
   51.8370  161.3930   31.0940 C   0  0  0  0  0  0  0  0  0  0  0  0
   51.9040  160.0380   30.4240 C   0  0  0  0  0  0  0  0  0  0  0  0
   53.1380  159.5870   29.9310 C   0  0  0  0  0  0  0  0  0  0  0  0
   53.2440  158.3520   29.2890 C   0  0  0  0  0  0  0  0  0  0  0  0
   52.1180  157.5390   29.1180 C   0  0  0  0  0  0  0  0  0  0  0  0
   52.2550  156.2210   28.4620 C   0  0  0  0  0  0  0  0  0  0  0  0
   52.7690  156.3110   27.1730 O   0  0  0  0  0  0  0  0  0  0  0  0
   52.9470  155.1610   26.4490 C   0  0  0  0  0  0  0  0  0  0  0  0
   53.4790  155.2970   25.1660 C   0  0  0  0  0  0  0  0  0  0  0  0
   53.6850  154.1640   24.3740 C   0  0  0  0  0  0  0  0  0  0  0  0
   53.3600  152.8980   24.8640 C   0  0  0  0  0  0  0  0  0  0  0  0
   52.8300  152.7660   26.1450 C   0  0  0  0  0  0  0  0  0  0  0  0
   52.5340  151.4980   26.5630 O   0  0  0  0  0  0  0  0  0  0  0  0
   52.6240  153.8990   26.9370 C   0  0  0  0  0  0  0  0  0  0  0  0
   52.0690  153.8040   28.2880 C   0  0  0  0  0  0  0  0  0  0  0  0
   51.7530  152.7260   28.7870 O   0  0  0  0  0  0  0  0  0  0  0  0
   51.8990  155.0640   29.0490 C   0  0  0  0  0  0  0  0  0  0  0  0
   51.3620  154.9620   30.3190 O   0  0  0  0  0  0  0  0  0  0  0  0
   50.8860  157.9910   29.6140 C   0  0  0  0  0  0  0  0  0  0  0  0
   50.7570  159.2380   30.2560 C   0  0  0  0  0  0  0  0  0  0  0  0
   49.5130  159.6970   30.7480 N   0  0  0  0  0  0  0  0  0  0  0  0
   48.3700  158.9070   30.2640 C   0  0  0  0  0  0  0  0  0  0  0  0
   47.0750  159.6230   30.6460 C   0  0  0  0  0  0  0  0  0  0  0  0
   47.0090  159.8740   32.1520 C   0  0  0  0  0  0  0  0  0  0  0  0
   48.2600  160.6030   32.6400 C   0  0  0  0  0  0  0  0  0  0  0  0
   49.5330  159.8720   32.2090 C   0  0  0  0  0  0  0  0  0  0  0  0
   53.5384  162.4537   31.8805 H   0  0  0  0  0  0  0  0  0  0  0  0
   53.8443  161.5860   30.3377 H   0  0  0  0  0  0  0  0  0  0  0  0
   52.8940  163.1104   30.3377 H   0  0  0  0  0  0  0  0  0  0  0  0
   51.6699  161.2481   32.1715 H   0  0  0  0  0  0  0  0  0  0  0  0
   51.0122  161.9577   30.6349 H   0  0  0  0  0  0  0  0  0  0  0  0
   54.0332  160.2147   30.0520 H   0  0  0  0  0  0  0  0  0  0  0  0
   54.2216  158.0148   28.9141 H   0  0  0  0  0  0  0  0  0  0  0  0
   53.7357  156.2941   24.7788 H   0  0  0  0  0  0  0  0  0  0  0  0
   54.1041  154.2701   23.3625 H   0  0  0  0  0  0  0  0  0  0  0  0
   53.5221  152.0068   24.2398 H   0  0  0  0  0  0  0  0  0  0  0  0
   52.1640  150.8810   25.9610 H   0  0  0  0  0  0  0  0  0  0  0  0
   50.4390  154.8430   30.4300 H   0  0  0  0  0  0  0  0  0  0  0  0
   49.9966  157.3542   29.4984 H   0  0  0  0  0  0  0  0  0  0  0  0
   48.4274  158.8067   29.1701 H   0  0  0  0  0  0  0  0  0  0  0  0
   48.3900  157.9058   30.7191 H   0  0  0  0  0  0  0  0  0  0  0  0
   47.0286  160.5872   30.1187 H   0  0  0  0  0  0  0  0  0  0  0  0
   46.2256  158.9850   30.3605 H   0  0  0  0  0  0  0  0  0  0  0  0
   46.1242  160.4880   32.3761 H   0  0  0  0  0  0  0  0  0  0  0  0
   46.9449  158.9040   32.6669 H   0  0  0  0  0  0  0  0  0  0  0  0
   48.2700  161.6190   32.2185 H   0  0  0  0  0  0  0  0  0  0  0  0
   48.2349  160.6380   33.7392 H   0  0  0  0  0  0  0  0  0  0  0  0
   50.4140  160.4640   32.4976 H   0  0  0  0  0  0  0  0  0  0  0  0
   49.5820  158.8892   32.7006 H   0  0  0  0  0  0  0  0  0  0  0  0
  1  2  1  0
  2  3  1  0
  3  4  2  0
  4  5  1  0
  5  6  2  0
  6  7  1  0
  7  8  1  0
  8  9  1  0
  9 10  2  0
 10 11  1  0
 11 12  2  0
 12 13  1  0
 13 14  1  0
 13 15  2  0
 15 16  1  0
 16 17  2  0
 16 18  1  0
 18 19  1  0
  6 20  1  0
 20 21  2  0
 21 22  1  0
 22 23  1  0
 23 24  1  0
 24 25  1  0
 25 26  1  0
 26 27  1  0
 21  3  1  0
 27 22  1  0
 18  7  2  0
 15  9  1  0
  1 28  1  0
  1 29  1  0
  1 30  1  0
  2 31  1  0
  2 32  1  0
  4 33  1  0
  5 34  1  0
 10 35  1  0
 11 36  1  0
 12 37  1  0
 14 38  1  0
 19 39  1  0
 20 40  1  0
 23 41  1  0
 23 42  1  0
 24 43  1  0
 24 44  1  0
 25 45  1  0
 25 46  1  0
 26 47  1  0
 26 48  1  0
 27 49  1  0
 27 50  1  0
M  END
>  <meeko>  (1) 
{"is_sidechain": [false], "free_energy": -9.667, "intermolecular_energy": -11.927, "internal_energy": -0.144}

$$$$
cand_020_out
     RDKit          3D

 50 53  0  0  0  0  0  0  0  0999 V2000
   51.6270  151.3390   28.0190 C   0  0  0  0  0  0  0  0  0  0  0  0
   52.4220  152.4290   27.3170 C   0  0  0  0  0  0  0  0  0  0  0  0
   52.1500  153.7970   27.9010 C   0  0  0  0  0  0  0  0  0  0  0  0
   51.4690  153.8880   29.1250 C   0  0  0  0  0  0  0  0  0  0  0  0
   51.1790  155.1300   29.6930 C   0  0  0  0  0  0  0  0  0  0  0  0
   51.5560  156.3130   29.0480 C   0  0  0  0  0  0  0  0  0  0  0  0
   51.2670  157.6190   29.6790 C   0  0  0  0  0  0  0  0  0  0  0  0
   49.9590  157.7150   30.1430 O   0  0  0  0  0  0  0  0  0  0  0  0
   49.5560  158.8760   30.7510 C   0  0  0  0  0  0  0  0  0  0  0  0
   48.2410  158.9240   31.2160 C   0  0  0  0  0  0  0  0  0  0  0  0
   47.7650  160.0770   31.8430 C   0  0  0  0  0  0  0  0  0  0  0  0
   48.6030  161.1820   32.0070 C   0  0  0  0  0  0  0  0  0  0  0  0
   49.9150  161.1310   31.5430 C   0  0  0  0  0  0  0  0  0  0  0  0
   50.6820  162.2480   31.7350 O   0  0  0  0  0  0  0  0  0  0  0  0
   50.3920  159.9770   30.9150 C   0  0  0  0  0  0  0  0  0  0  0  0
   51.7630  159.8820   30.4130 C   0  0  0  0  0  0  0  0  0  0  0  0
   52.5580  160.8140   30.5140 O   0  0  0  0  0  0  0  0  0  0  0  0
   52.1710  158.6110   29.7710 C   0  0  0  0  0  0  0  0  0  0  0  0
   53.4650  158.5380   29.2890 O   0  0  0  0  0  0  0  0  0  0  0  0
   52.2380  156.2200   27.8250 C   0  0  0  0  0  0  0  0  0  0  0  0
   52.5320  154.9770   27.2320 C   0  0  0  0  0  0  0  0  0  0  0  0
   53.2100  154.8840   25.9950 N   0  0  0  0  0  0  0  0  0  0  0  0
   53.9250  156.1170   25.6310 C   0  0  0  0  0  0  0  0  0  0  0  0
   54.4110  156.0000   24.1860 C   0  0  0  0  0  0  0  0  0  0  0  0
   55.2750  154.7530   23.9960 C   0  0  0  0  0  0  0  0  0  0  0  0
   54.5440  153.5030   24.4830 C   0  0  0  0  0  0  0  0  0  0  0  0
   54.0450  153.6740   25.9190 C   0  0  0  0  0  0  0  0  0  0  0  0
   51.7174  151.4630   29.1082 H   0  0  0  0  0  0  0  0  0  0  0  0
   50.5686  151.4121   27.7283 H   0  0  0  0  0  0  0  0  0  0  0  0
   52.0199  150.3536   27.7283 H   0  0  0  0  0  0  0  0  0  0  0  0
   53.4946  152.2069   27.4184 H   0  0  0  0  0  0  0  0  0  0  0  0
   52.1158  152.4446   26.2606 H   0  0  0  0  0  0  0  0  0  0  0  0
   51.1597  152.9686   29.6436 H   0  0  0  0  0  0  0  0  0  0  0  0
   50.6495  155.1789   30.6560 H   0  0  0  0  0  0  0  0  0  0  0  0
   47.5801  158.0540   31.0886 H   0  0  0  0  0  0  0  0  0  0  0  0
   46.7282  160.1151   32.2084 H   0  0  0  0  0  0  0  0  0  0  0  0
   48.2278  162.0902   32.5013 H   0  0  0  0  0  0  0  0  0  0  0  0
   51.3340  162.4830   31.1030 H   0  0  0  0  0  0  0  0  0  0  0  0
   53.7250  157.8180   28.7490 H   0  0  0  0  0  0  0  0  0  0  0  0
   52.5515  157.1432   27.3157 H   0  0  0  0  0  0  0  0  0  0  0  0
   53.2469  156.9781   25.7238 H   0  0  0  0  0  0  0  0  0  0  0  0
   54.7842  156.2614   26.3025 H   0  0  0  0  0  0  0  0  0  0  0  0
   53.5395  155.9387   23.5176 H   0  0  0  0  0  0  0  0  0  0  0  0
   55.0184  156.8858   23.9485 H   0  0  0  0  0  0  0  0  0  0  0  0
   55.5118  154.6384   22.9279 H   0  0  0  0  0  0  0  0  0  0  0  0
   56.1972  154.8719   24.5838 H   0  0  0  0  0  0  0  0  0  0  0  0
   53.6833  153.3122   23.8251 H   0  0  0  0  0  0  0  0  0  0  0  0
   55.2478  152.6580   24.4587 H   0  0  0  0  0  0  0  0  0  0  0  0
   53.4494  152.7960   26.2095 H   0  0  0  0  0  0  0  0  0  0  0  0
   54.9023  153.7704   26.6015 H   0  0  0  0  0  0  0  0  0  0  0  0
  1  2  1  0
  2  3  1  0
  3  4  2  0
  4  5  1  0
  5  6  2  0
  6  7  1  0
  7  8  1  0
  8  9  1  0
  9 10  2  0
 10 11  1  0
 11 12  2  0
 12 13  1  0
 13 14  1  0
 13 15  2  0
 15 16  1  0
 16 17  2  0
 16 18  1  0
 18 19  1  0
  6 20  1  0
 20 21  2  0
 21 22  1  0
 22 23  1  0
 23 24  1  0
 24 25  1  0
 25 26  1  0
 26 27  1  0
 21  3  1  0
 27 22  1  0
 18  7  2  0
 15  9  1  0
  1 28  1  0
  1 29  1  0
  1 30  1  0
  2 31  1  0
  2 32  1  0
  4 33  1  0
  5 34  1  0
 10 35  1  0
 11 36  1  0
 12 37  1  0
 14 38  1  0
 19 39  1  0
 20 40  1  0
 23 41  1  0
 23 42  1  0
 24 43  1  0
 24 44  1  0
 25 45  1  0
 25 46  1  0
 26 47  1  0
 26 48  1  0
 27 49  1  0
 27 50  1  0
M  END
>  <meeko>  (2) 
{"is_sidechain": [false], "free_energy": -9.191, "intermolecular_energy": -12.318, "internal_energy": 0.834}

$$$$
cand_020_out
     RDKit          3D

 50 53  0  0  0  0  0  0  0  0999 V2000
   47.2360  159.8080   31.5840 C   0  0  0  0  0  0  0  0  0  0  0  0
   48.7040  160.2020   31.5300 C   0  0  0  0  0  0  0  0  0  0  0  0
   49.5360  159.1930   30.7690 C   0  0  0  0  0  0  0  0  0  0  0  0
   48.9790  157.9390   30.4760 C   0  0  0  0  0  0  0  0  0  0  0  0
   49.7160  156.9700   29.7940 C   0  0  0  0  0  0  0  0  0  0  0  0
   51.0310  157.2270   29.3930 C   0  0  0  0  0  0  0  0  0  0  0  0
   51.7870  156.1990   28.6450 C   0  0  0  0  0  0  0  0  0  0  0  0
   52.2760  156.6680   27.4300 O   0  0  0  0  0  0  0  0  0  0  0  0
   52.9970  155.8160   26.6330 C   0  0  0  0  0  0  0  0  0  0  0  0
   53.4810  156.3320   25.4310 C   0  0  0  0  0  0  0  0  0  0  0  0
   54.2210  155.5170   24.5710 C   0  0  0  0  0  0  0  0  0  0  0  0
   54.4770  154.1880   24.9130 C   0  0  0  0  0  0  0  0  0  0  0  0
   53.9930  153.6760   26.1140 C   0  0  0  0  0  0  0  0  0  0  0  0
   54.2790  152.3670   26.3870 O   0  0  0  0  0  0  0  0  0  0  0  0
   53.2520  154.4910   26.9750 C   0  0  0  0  0  0  0  0  0  0  0  0
   52.7250  153.9930   28.2450 C   0  0  0  0  0  0  0  0  0  0  0  0
   52.9030  152.8340   28.6130 O   0  0  0  0  0  0  0  0  0  0  0  0
   51.9600  154.9410   29.0890 C   0  0  0  0  0  0  0  0  0  0  0  0
   51.4570  154.4540   30.2810 O   0  0  0  0  0  0  0  0  0  0  0  0
   51.5860  158.4830   29.6850 C   0  0  0  0  0  0  0  0  0  0  0  0
   50.8620  159.4700   30.3800 C   0  0  0  0  0  0  0  0  0  0  0  0
   51.4240  160.7320   30.6820 N   0  0  0  0  0  0  0  0  0  0  0  0
   51.0850  161.2090   32.0330 C   0  0  0  0  0  0  0  0  0  0  0  0
   51.5260  162.6660   32.1690 C   0  0  0  0  0  0  0  0  0  0  0  0
   53.0140  162.8220   31.8560 C   0  0  0  0  0  0  0  0  0  0  0  0
   53.3520  162.2200   30.4920 C   0  0  0  0  0  0  0  0  0  0  0  0
   52.8640  160.7740   30.3850 C   0  0  0  0  0  0  0  0  0  0  0  0
   46.9177  159.7226   32.6335 H   0  0  0  0  0  0  0  0  0  0  0  0
   46.6315  160.5757   31.0788 H   0  0  0  0  0  0  0  0  0  0  0  0
   47.0971  158.8408   31.0788 H   0  0  0  0  0  0  0  0  0  0  0  0
   48.7909  161.1799   31.0338 H   0  0  0  0  0  0  0  0  0  0  0  0
   49.0820  160.2435   32.5622 H   0  0  0  0  0  0  0  0  0  0  0  0
   47.9478  157.7168   30.7880 H   0  0  0  0  0  0  0  0  0  0  0  0
   49.2585  155.9951   29.5697 H   0  0  0  0  0  0  0  0  0  0  0  0
   53.2803  157.3792   25.1606 H   0  0  0  0  0  0  0  0  0  0  0  0
   54.6027  155.9232   23.6226 H   0  0  0  0  0  0  0  0  0  0  0  0
   55.0597  153.5468   24.2353 H   0  0  0  0  0  0  0  0  0  0  0  0
   53.8050  151.6830   25.9540 H   0  0  0  0  0  0  0  0  0  0  0  0
   50.9850  155.0230   30.8570 H   0  0  0  0  0  0  0  0  0  0  0  0
   52.6145  158.7018   29.3619 H   0  0  0  0  0  0  0  0  0  0  0  0
   49.9985  161.1361   32.1885 H   0  0  0  0  0  0  0  0  0  0  0  0
   51.5985  160.5925   32.7855 H   0  0  0  0  0  0  0  0  0  0  0  0
   50.9449  163.2841   31.4688 H   0  0  0  0  0  0  0  0  0  0  0  0
   51.3514  162.9886   33.2060 H   0  0  0  0  0  0  0  0  0  0  0  0
   53.2705  163.8917   31.8508 H   0  0  0  0  0  0  0  0  0  0  0  0
   53.5922  162.2913   32.6268 H   0  0  0  0  0  0  0  0  0  0  0  0
   52.8695  162.8199   29.7063 H   0  0  0  0  0  0  0  0  0  0  0  0
   54.4453  162.2268   30.3713 H   0  0  0  0  0  0  0  0  0  0  0  0
   53.0416  160.3991   29.3662 H   0  0  0  0  0  0  0  0  0  0  0  0
   53.4101  160.1432   31.1018 H   0  0  0  0  0  0  0  0  0  0  0  0
  1  2  1  0
  2  3  1  0
  3  4  2  0
  4  5  1  0
  5  6  2  0
  6  7  1  0
  7  8  1  0
  8  9  1  0
  9 10  2  0
 10 11  1  0
 11 12  2  0
 12 13  1  0
 13 14  1  0
 13 15  2  0
 15 16  1  0
 16 17  2  0
 16 18  1  0
 18 19  1  0
  6 20  1  0
 20 21  2  0
 21 22  1  0
 22 23  1  0
 23 24  1  0
 24 25  1  0
 25 26  1  0
 26 27  1  0
 21  3  1  0
 27 22  1  0
 18  7  2  0
 15  9  1  0
  1 28  1  0
  1 29  1  0
  1 30  1  0
  2 31  1  0
  2 32  1  0
  4 33  1  0
  5 34  1  0
 10 35  1  0
 11 36  1  0
 12 37  1  0
 14 38  1  0
 19 39  1  0
 20 40  1  0
 23 41  1  0
 23 42  1  0
 24 43  1  0
 24 44  1  0
 25 45  1  0
 25 46  1  0
 26 47  1  0
 26 48  1  0
 27 49  1  0
 27 50  1  0
M  END
>  <meeko>  (3) 
{"is_sidechain": [false], "free_energy": -8.747, "intermolecular_energy": -11.359, "internal_energy": 0.424}

$$$$
cand_020_out
     RDKit          3D

 50 53  0  0  0  0  0  0  0  0999 V2000
   52.1670  151.7130   26.7940 C   0  0  0  0  0  0  0  0  0  0  0  0
   53.2330  152.6740   27.2980 C   0  0  0  0  0  0  0  0  0  0  0  0
   52.6330  153.9290   27.8910 C   0  0  0  0  0  0  0  0  0  0  0  0
   51.7580  153.8120   28.9820 C   0  0  0  0  0  0  0  0  0  0  0  0
   51.1660  154.9410   29.5490 C   0  0  0  0  0  0  0  0  0  0  0  0
   51.4270  156.2160   29.0350 C   0  0  0  0  0  0  0  0  0  0  0  0
   50.8140  157.4040   29.6680 C   0  0  0  0  0  0  0  0  0  0  0  0
   51.7440  158.3910   29.9770 O   0  0  0  0  0  0  0  0  0  0  0  0
   51.3110  159.5490   30.5690 C   0  0  0  0  0  0  0  0  0  0  0  0
   52.2760  160.5170   30.8480 C   0  0  0  0  0  0  0  0  0  0  0  0
   51.9010  161.7200   31.4530 C   0  0  0  0  0  0  0  0  0  0  0  0
   50.5640  161.9540   31.7780 C   0  0  0  0  0  0  0  0  0  0  0  0
   49.6030  160.9850   31.4980 C   0  0  0  0  0  0  0  0  0  0  0  0
   48.3130  161.2780   31.8440 O   0  0  0  0  0  0  0  0  0  0  0  0
   49.9780  159.7820   30.8930 C   0  0  0  0  0  0  0  0  0  0  0  0
   49.0000  158.7380   30.5830 C   0  0  0  0  0  0  0  0  0  0  0  0
   47.8060  158.8670   30.8440 O   0  0  0  0  0  0  0  0  0  0  0  0
   49.4990  157.5040   29.9330 C   0  0  0  0  0  0  0  0  0  0  0  0
   48.5670  156.5200   29.6560 O   0  0  0  0  0  0  0  0  0  0  0  0
   52.3050  156.3320   27.9460 C   0  0  0  0  0  0  0  0  0  0  0  0
   52.9050  155.2040   27.3550 C   0  0  0  0  0  0  0  0  0  0  0  0
   53.7810  155.3190   26.2510 N   0  0  0  0  0  0  0  0  0  0  0  0
   53.5850  154.2640   25.2430 C   0  0  0  0  0  0  0  0  0  0  0  0
   54.7270  154.3320   24.2280 C   0  0  0  0  0  0  0  0  0  0  0  0
   54.8230  155.7220   23.6000 C   0  0  0  0  0  0  0  0  0  0  0  0
   54.9170  156.8020   24.6760 C   0  0  0  0  0  0  0  0  0  0  0  0
   53.7770  156.6790   25.6890 C   0  0  0  0  0  0  0  0  0  0  0  0
   51.6548  151.2513   27.6510 H   0  0  0  0  0  0  0  0  0  0  0  0
   51.4363  152.2635   26.1833 H   0  0  0  0  0  0  0  0  0  0  0  0
   52.6390  150.9293   26.1833 H   0  0  0  0  0  0  0  0  0  0  0  0
   53.8307  152.1675   28.0702 H   0  0  0  0  0  0  0  0  0  0  0  0
   53.8559  152.9688   26.4407 H   0  0  0  0  0  0  0  0  0  0  0  0
   51.5360  152.8171   29.3955 H   0  0  0  0  0  0  0  0  0  0  0  0
   50.4880  154.8278   30.4078 H   0  0  0  0  0  0  0  0  0  0  0  0
   53.3301  160.3339   30.5924 H   0  0  0  0  0  0  0  0  0  0  0  0
   52.6612  162.4839   31.6734 H   0  0  0  0  0  0  0  0  0  0  0  0
   50.2698  162.9010   32.2540 H   0  0  0  0  0  0  0  0  0  0  0  0
   48.0670  161.3170   32.7480 H   0  0  0  0  0  0  0  0  0  0  0  0
   48.7830  155.6190   29.7920 H   0  0  0  0  0  0  0  0  0  0  0  0
   52.5302  157.3307   27.5438 H   0  0  0  0  0  0  0  0  0  0  0  0
   53.5850  153.2795   25.7337 H   0  0  0  0  0  0  0  0  0  0  0  0
   52.6221  154.4106   24.7318 H   0  0  0  0  0  0  0  0  0  0  0  0
   55.6744  154.1017   24.7372 H   0  0  0  0  0  0  0  0  0  0  0  0
   54.5292  153.6011   23.4301 H   0  0  0  0  0  0  0  0  0  0  0  0
   55.7193  155.7685   22.9640 H   0  0  0  0  0  0  0  0  0  0  0  0
   53.9172  155.9003   23.0019 H   0  0  0  0  0  0  0  0  0  0  0  0
   55.8771  156.7000   25.2031 H   0  0  0  0  0  0  0  0  0  0  0  0
   54.8431  157.7851   24.1882 H   0  0  0  0  0  0  0  0  0  0  0  0
   53.9202  157.4122   26.4964 H   0  0  0  0  0  0  0  0  0  0  0  0
   52.8152  156.8732   25.1919 H   0  0  0  0  0  0  0  0  0  0  0  0
  1  2  1  0
  2  3  1  0
  3  4  2  0
  4  5  1  0
  5  6  2  0
  6  7  1  0
  7  8  1  0
  8  9  1  0
  9 10  2  0
 10 11  1  0
 11 12  2  0
 12 13  1  0
 13 14  1  0
 13 15  2  0
 15 16  1  0
 16 17  2  0
 16 18  1  0
 18 19  1  0
  6 20  1  0
 20 21  2  0
 21 22  1  0
 22 23  1  0
 23 24  1  0
 24 25  1  0
 25 26  1  0
 26 27  1  0
 21  3  1  0
 27 22  1  0
 18  7  2  0
 15  9  1  0
  1 28  1  0
  1 29  1  0
  1 30  1  0
  2 31  1  0
  2 32  1  0
  4 33  1  0
  5 34  1  0
 10 35  1  0
 11 36  1  0
 12 37  1  0
 14 38  1  0
 19 39  1  0
 20 40  1  0
 23 41  1  0
 23 42  1  0
 24 43  1  0
 24 44  1  0
 25 45  1  0
 25 46  1  0
 26 47  1  0
 26 48  1  0
 27 49  1  0
 27 50  1  0
M  END
>  <meeko>  (4) 
{"is_sidechain": [false], "free_energy": -8.03, "intermolecular_energy": -10.726, "internal_energy": 0.675}

$$$$
cand_020_out
     RDKit          3D

 50 53  0  0  0  0  0  0  0  0999 V2000
   55.1250  154.9960   24.0720 C   0  0  0  0  0  0  0  0  0  0  0  0
   54.3000  154.1170   25.0000 C   0  0  0  0  0  0  0  0  0  0  0  0
   53.5590  154.9280   26.0400 C   0  0  0  0  0  0  0  0  0  0  0  0
   53.6580  156.3280   26.0050 C   0  0  0  0  0  0  0  0  0  0  0  0
   53.0070  157.1160   26.9550 C   0  0  0  0  0  0  0  0  0  0  0  0
   52.2460  156.5250   27.9700 C   0  0  0  0  0  0  0  0  0  0  0  0
   51.5390  157.3760   28.9500 C   0  0  0  0  0  0  0  0  0  0  0  0
   52.2440  158.5330   29.2670 O   0  0  0  0  0  0  0  0  0  0  0  0
   51.7020  159.4140   30.1670 C   0  0  0  0  0  0  0  0  0  0  0  0
   52.4370  160.5670   30.4440 C   0  0  0  0  0  0  0  0  0  0  0  0
   51.9420  161.5060   31.3530 C   0  0  0  0  0  0  0  0  0  0  0  0
   50.7150  161.2920   31.9830 C   0  0  0  0  0  0  0  0  0  0  0  0
   49.9840  160.1400   31.7040 C   0  0  0  0  0  0  0  0  0  0  0  0
   48.7920  159.9920   32.3570 O   0  0  0  0  0  0  0  0  0  0  0  0
   50.4790  159.2010   30.7950 C   0  0  0  0  0  0  0  0  0  0  0  0
   49.7430  157.9770   30.4740 C   0  0  0  0  0  0  0  0  0  0  0  0
   48.6600  157.7140   30.9920 O   0  0  0  0  0  0  0  0  0  0  0  0
   50.3500  157.0500   29.4900 C   0  0  0  0  0  0  0  0  0  0  0  0
   49.6520  155.8920   29.2050 O   0  0  0  0  0  0  0  0  0  0  0  0
   52.1460  155.1250   28.0010 C   0  0  0  0  0  0  0  0  0  0  0  0
   52.8030  154.3130   27.0570 C   0  0  0  0  0  0  0  0  0  0  0  0
   52.7100  152.9020   27.0950 N   0  0  0  0  0  0  0  0  0  0  0  0
   51.5450  152.4180   27.8530 C   0  0  0  0  0  0  0  0  0  0  0  0
   51.6710  150.9060   28.0410 C   0  0  0  0  0  0  0  0  0  0  0  0
   51.8240  150.1950   26.6970 C   0  0  0  0  0  0  0  0  0  0  0  0
   52.9750  150.7930   25.8900 C   0  0  0  0  0  0  0  0  0  0  0  0
   52.8290  152.3100   25.7530 C   0  0  0  0  0  0  0  0  0  0  0  0
   55.7568  155.6691   24.6701 H   0  0  0  0  0  0  0  0  0  0  0  0
   55.7623  154.3626   23.4374 H   0  0  0  0  0  0  0  0  0  0  0  0
   54.4525  155.5919   23.4374 H   0  0  0  0  0  0  0  0  0  0  0  0
   53.5684  153.5559   24.4000 H   0  0  0  0  0  0  0  0  0  0  0  0
   54.9882  153.4387   25.5257 H   0  0  0  0  0  0  0  0  0  0  0  0
   54.2567  156.8102   25.2182 H   0  0  0  0  0  0  0  0  0  0  0  0
   53.0927  158.2115   26.9056 H   0  0  0  0  0  0  0  0  0  0  0  0
   53.4041  160.7366   29.9480 H   0  0  0  0  0  0  0  0  0  0  0  0
   52.5205  162.4155   31.5724 H   0  0  0  0  0  0  0  0  0  0  0  0
   50.3263  162.0317   32.6983 H   0  0  0  0  0  0  0  0  0  0  0  0
   48.0500  159.6390   31.9050 H   0  0  0  0  0  0  0  0  0  0  0  0
   49.2820  155.3840   29.9000 H   0  0  0  0  0  0  0  0  0  0  0  0
   51.5376  154.6494   28.7844 H   0  0  0  0  0  0  0  0  0  0  0  0
   51.5129  152.9111   28.8358 H   0  0  0  0  0  0  0  0  0  0  0  0
   50.6203  152.6499   27.3042 H   0  0  0  0  0  0  0  0  0  0  0  0
   52.5536  150.6936   28.6622 H   0  0  0  0  0  0  0  0  0  0  0  0
   50.7567  150.5374   28.5290 H   0  0  0  0  0  0  0  0  0  0  0  0
   52.0254  149.1284   26.8751 H   0  0  0  0  0  0  0  0  0  0  0  0
   50.8925  150.3208   26.1256 H   0  0  0  0  0  0  0  0  0  0  0  0
   53.9239  150.5689   26.3992 H   0  0  0  0  0  0  0  0  0  0  0  0
   52.9596  150.3505   24.8831 H   0  0  0  0  0  0  0  0  0  0  0  0
   53.7138  152.7215   25.2453 H   0  0  0  0  0  0  0  0  0  0  0  0
   51.9319  152.5455   25.1616 H   0  0  0  0  0  0  0  0  0  0  0  0
  1  2  1  0
  2  3  1  0
  3  4  2  0
  4  5  1  0
  5  6  2  0
  6  7  1  0
  7  8  1  0
  8  9  1  0
  9 10  2  0
 10 11  1  0
 11 12  2  0
 12 13  1  0
 13 14  1  0
 13 15  2  0
 15 16  1  0
 16 17  2  0
 16 18  1  0
 18 19  1  0
  6 20  1  0
 20 21  2  0
 21 22  1  0
 22 23  1  0
 23 24  1  0
 24 25  1  0
 25 26  1  0
 26 27  1  0
 21  3  1  0
 27 22  1  0
 18  7  2  0
 15  9  1  0
  1 28  1  0
  1 29  1  0
  1 30  1  0
  2 31  1  0
  2 32  1  0
  4 33  1  0
  5 34  1  0
 10 35  1  0
 11 36  1  0
 12 37  1  0
 14 38  1  0
 19 39  1  0
 20 40  1  0
 23 41  1  0
 23 42  1  0
 24 43  1  0
 24 44  1  0
 25 45  1  0
 25 46  1  0
 26 47  1  0
 26 48  1  0
 27 49  1  0
 27 50  1  0
M  END
>  <meeko>  (5) 
{"is_sidechain": [false], "free_energy": -6.701, "intermolecular_energy": -9.445, "internal_energy": 1.034}

$$$$
