cand_036_out
     RDKit          3D

 35 37  0  0  0  0  0  0  0  0999 V2000
   49.3710  160.9110   31.6760 C   0  0  0  0  0  0  0  0  0  0  0  0
   49.9980  159.7570   30.9410 C   0  0  0  0  0  0  0  0  0  0  0  0
   49.2550  158.5870   30.7370 C   0  0  0  0  0  0  0  0  0  0  0  0
   49.8050  157.4960   30.0600 C   0  0  0  0  0  0  0  0  0  0  0  0
   51.1160  157.5440   29.5750 C   0  0  0  0  0  0  0  0  0  0  0  0
   51.7130  156.4130   28.8320 C   0  0  0  0  0  0  0  0  0  0  0  0
   52.2960  156.8050   27.6320 O   0  0  0  0  0  0  0  0  0  0  0  0
   52.8880  155.8540   26.8410 C   0  0  0  0  0  0  0  0  0  0  0  0
   53.4480  156.2880   25.6380 C   0  0  0  0  0  0  0  0  0  0  0  0
   54.0680  155.3710   24.7870 C   0  0  0  0  0  0  0  0  0  0  0  0
   54.1290  154.0210   25.1380 C   0  0  0  0  0  0  0  0  0  0  0  0
   53.5700  153.5900   26.3380 C   0  0  0  0  0  0  0  0  0  0  0  0
   53.6650  152.2550   26.6200 O   0  0  0  0  0  0  0  0  0  0  0  0
   52.9480  154.5080   27.1900 C   0  0  0  0  0  0  0  0  0  0  0  0
   52.3480  154.0970   28.4600 C   0  0  0  0  0  0  0  0  0  0  0  0
   52.3670  152.9280   28.8400 O   0  0  0  0  0  0  0  0  0  0  0  0
   51.7070  155.1470   29.2850 C   0  0  0  0  0  0  0  0  0  0  0  0
   51.1550  154.7490   30.4890 O   0  0  0  0  0  0  0  0  0  0  0  0
   51.8560  158.7210   29.7710 C   0  0  0  0  0  0  0  0  0  0  0  0
   51.3150  159.8270   30.4490 C   0  0  0  0  0  0  0  0  0  0  0  0
   52.1580  161.0590   30.6380 C   0  0  0  0  0  0  0  0  0  0  0  0
   49.4600  160.7471   32.7601 H   0  0  0  0  0  0  0  0  0  0  0  0
   49.8865  161.8435   31.4026 H   0  0  0  0  0  0  0  0  0  0  0  0
   48.3082  160.9859   31.4026 H   0  0  0  0  0  0  0  0  0  0  0  0
   48.2239  158.5266   31.1153 H   0  0  0  0  0  0  0  0  0  0  0  0
   49.2008  156.5897   29.9067 H   0  0  0  0  0  0  0  0  0  0  0  0
   53.4008  157.3515   25.3608 H   0  0  0  0  0  0  0  0  0  0  0  0
   54.5089  155.7126   23.8389 H   0  0  0  0  0  0  0  0  0  0  0  0
   54.6180  153.2990   24.4674 H   0  0  0  0  0  0  0  0  0  0  0  0
   54.0990  151.6790   26.0210 H   0  0  0  0  0  0  0  0  0  0  0  0
   51.0040  155.3790   31.1660 H   0  0  0  0  0  0  0  0  0  0  0  0
   52.8842  158.7790   29.3845 H   0  0  0  0  0  0  0  0  0  0  0  0
   52.2899  161.2517   31.7129 H   0  0  0  0  0  0  0  0  0  0  0  0
   53.1414  160.9058   30.1696 H   0  0  0  0  0  0  0  0  0  0  0  0
   51.6590  161.9202   30.1696 H   0  0  0  0  0  0  0  0  0  0  0  0
  1  2  1  0
  2  3  2  0
  3  4  1  0
  4  5  2  0
  5  6  1  0
  6  7  1  0
  7  8  1  0
  8  9  2  0
  9 10  1  0
 10 11  2  0
 11 12  1  0
 12 13  1  0
 12 14  2  0
 14 15  1  0
 15 16  2  0
 15 17  1  0
 17 18  1  0
  5 19  1  0
 19 20  2  0
 20 21  1  0
 20  2  1  0
 17  6  2  0
 14  8  1  0
  1 22  1  0
  1 23  1  0
  1 24  1  0
  3 25  1  0
  4 26  1  0
  9 27  1  0
 10 28  1  0
 11 29  1  0
 13 30  1  0
 18 31  1  0
 19 32  1  0
 21 33  1  0
 21 34  1  0
 21 35  1  0
M  END
>  <meeko>  (1) 
{"is_sidechain": [false], "free_energy": -10.695, "intermolecular_energy": -11.945, "internal_energy": -0.089}

$$$$
cand_036_out
     RDKit          3D

 35 37  0  0  0  0  0  0  0  0999 V2000
   49.9810  161.1660   31.7440 C   0  0  0  0  0  0  0  0  0  0  0  0
   50.4520  159.9640   30.9720 C   0  0  0  0  0  0  0  0  0  0  0  0
   51.7550  159.9440   30.4580 C   0  0  0  0  0  0  0  0  0  0  0  0
   52.2250  158.8450   29.7350 C   0  0  0  0  0  0  0  0  0  0  0  0
   51.4030  157.7390   29.5010 C   0  0  0  0  0  0  0  0  0  0  0  0
   51.8850  156.5520   28.7630 C   0  0  0  0  0  0  0  0  0  0  0  0
   52.4820  156.8770   27.5510 O   0  0  0  0  0  0  0  0  0  0  0  0
   52.9750  155.8680   26.7620 C   0  0  0  0  0  0  0  0  0  0  0  0
   53.5530  156.2380   25.5470 C   0  0  0  0  0  0  0  0  0  0  0  0
   54.0760  155.2600   24.6980 C   0  0  0  0  0  0  0  0  0  0  0  0
   54.0220  153.9140   25.0640 C   0  0  0  0  0  0  0  0  0  0  0  0
   53.4450  153.5480   26.2780 C   0  0  0  0  0  0  0  0  0  0  0  0
   53.4240  152.2120   26.5740 O   0  0  0  0  0  0  0  0  0  0  0  0
   52.9210  154.5260   27.1270 C   0  0  0  0  0  0  0  0  0  0  0  0
   52.3050  154.1840   28.4100 C   0  0  0  0  0  0  0  0  0  0  0  0
   52.2260  153.0230   28.8040 O   0  0  0  0  0  0  0  0  0  0  0  0
   51.7730  155.2960   29.2320 C   0  0  0  0  0  0  0  0  0  0  0  0
   51.2060  154.9620   30.4480 O   0  0  0  0  0  0  0  0  0  0  0  0
   50.1010  157.7560   30.0260 C   0  0  0  0  0  0  0  0  0  0  0  0
   49.6130  158.8540   30.7560 C   0  0  0  0  0  0  0  0  0  0  0  0
   48.2060  158.8190   31.2860 C   0  0  0  0  0  0  0  0  0  0  0  0
   50.0604  160.9634   32.8223 H   0  0  0  0  0  0  0  0  0  0  0  0
   50.6053  162.0345   31.4871 H   0  0  0  0  0  0  0  0  0  0  0  0
   48.9329  161.3791   31.4871 H   0  0  0  0  0  0  0  0  0  0  0  0
   52.4175  160.8059   30.6261 H   0  0  0  0  0  0  0  0  0  0  0  0
   53.2537  158.8501   29.3454 H   0  0  0  0  0  0  0  0  0  0  0  0
   53.5967  157.2985   25.2582 H   0  0  0  0  0  0  0  0  0  0  0  0
   54.5310  155.5508   23.7397 H   0  0  0  0  0  0  0  0  0  0  0  0
   54.4342  153.1440   24.3953 H   0  0  0  0  0  0  0  0  0  0  0  0
   53.0090  151.9120   27.3590 H   0  0  0  0  0  0  0  0  0  0  0  0
   50.3620  154.5560   30.4760 H   0  0  0  0  0  0  0  0  0  0  0  0
   49.4458  156.8878   29.8619 H   0  0  0  0  0  0  0  0  0  0  0  0
   48.2283  158.8196   32.3858 H   0  0  0  0  0  0  0  0  0  0  0  0
   47.6579  159.7038   30.9299 H   0  0  0  0  0  0  0  0  0  0  0  0
   47.7026  157.9081   30.9299 H   0  0  0  0  0  0  0  0  0  0  0  0
  1  2  1  0
  2  3  2  0
  3  4  1  0
  4  5  2  0
  5  6  1  0
  6  7  1  0
  7  8  1  0
  8  9  2  0
  9 10  1  0
 10 11  2  0
 11 12  1  0
 12 13  1  0
 12 14  2  0
 14 15  1  0
 15 16  2  0
 15 17  1  0
 17 18  1  0
  5 19  1  0
 19 20  2  0
 20 21  1  0
 20  2  1  0
 17  6  2  0
 14  8  1  0
  1 22  1  0
  1 23  1  0
  1 24  1  0
  3 25  1  0
  4 26  1  0
  9 27  1  0
 10 28  1  0
 11 29  1  0
 13 30  1  0
 18 31  1  0
 19 32  1  0
 21 33  1  0
 21 34  1  0
 21 35  1  0
M  END
>  <meeko>  (2) 
{"is_sidechain": [false], "free_energy": -10.603, "intermolecular_energy": -11.9, "internal_energy": -0.032}

$$$$
cand_036_out
     RDKit          3D

 35 37  0  0  0  0  0  0  0  0999 V2000
   53.0360  152.5990   26.7400 C   0  0  0  0  0  0  0  0  0  0  0  0
   52.6330  153.8820   27.4150 C   0  0  0  0  0  0  0  0  0  0  0  0
   51.9820  153.8310   28.6550 C   0  0  0  0  0  0  0  0  0  0  0  0
   51.5930  155.0020   29.3100 C   0  0  0  0  0  0  0  0  0  0  0  0
   51.8390  156.2550   28.7400 C   0  0  0  0  0  0  0  0  0  0  0  0
   51.4620  157.5100   29.4260 C   0  0  0  0  0  0  0  0  0  0  0  0
   50.1430  157.5100   29.8630 O   0  0  0  0  0  0  0  0  0  0  0  0
   49.6600  158.6150   30.5160 C   0  0  0  0  0  0  0  0  0  0  0  0
   48.3260  158.5790   30.9240 C   0  0  0  0  0  0  0  0  0  0  0  0
   47.7730  159.6710   31.5970 C   0  0  0  0  0  0  0  0  0  0  0  0
   48.5540  160.7980   31.8620 C   0  0  0  0  0  0  0  0  0  0  0  0
   49.8850  160.8320   31.4540 C   0  0  0  0  0  0  0  0  0  0  0  0
   50.5920  161.9660   31.7450 O   0  0  0  0  0  0  0  0  0  0  0  0
   50.4380  159.7390   30.7800 C   0  0  0  0  0  0  0  0  0  0  0  0
   51.8320  159.7340   30.3340 C   0  0  0  0  0  0  0  0  0  0  0  0
   52.5830  160.6850   30.5360 O   0  0  0  0  0  0  0  0  0  0  0  0
   52.3180  158.5290   29.6210 C   0  0  0  0  0  0  0  0  0  0  0  0
   53.6400  158.5300   29.2170 O   0  0  0  0  0  0  0  0  0  0  0  0
   52.5000  156.3050   27.5030 C   0  0  0  0  0  0  0  0  0  0  0  0
   52.8990  155.1360   26.8320 C   0  0  0  0  0  0  0  0  0  0  0  0
   53.5970  155.2510   25.5040 C   0  0  0  0  0  0  0  0  0  0  0  0
   53.2736  151.8425   27.5024 H   0  0  0  0  0  0  0  0  0  0  0  0
   52.2076  152.2391   26.1121 H   0  0  0  0  0  0  0  0  0  0  0  0
   53.9214  152.7774   26.1121 H   0  0  0  0  0  0  0  0  0  0  0  0
   51.7745  152.8554   29.1189 H   0  0  0  0  0  0  0  0  0  0  0  0
   51.0876  154.9377   30.2849 H   0  0  0  0  0  0  0  0  0  0  0  0
   47.7105  157.6914   30.7158 H   0  0  0  0  0  0  0  0  0  0  0  0
   46.7214  159.6432   31.9185 H   0  0  0  0  0  0  0  0  0  0  0  0
   48.1184  161.6577   32.3923 H   0  0  0  0  0  0  0  0  0  0  0  0
   50.8370  162.1510   32.6310 H   0  0  0  0  0  0  0  0  0  0  0  0
   53.8790  158.1430   28.3970 H   0  0  0  0  0  0  0  0  0  0  0  0
   52.7112  157.2835   27.0471 H   0  0  0  0  0  0  0  0  0  0  0  0
   54.6702  155.4278   25.6680 H   0  0  0  0  0  0  0  0  0  0  0  0
   53.4615  154.3184   24.9366 H   0  0  0  0  0  0  0  0  0  0  0  0
   53.1695  156.0908   24.9366 H   0  0  0  0  0  0  0  0  0  0  0  0
  1  2  1  0
  2  3  2  0
  3  4  1  0
  4  5  2  0
  5  6  1  0
  6  7  1  0
  7  8  1  0
  8  9  2  0
  9 10  1  0
 10 11  2  0
 11 12  1  0
 12 13  1  0
 12 14  2  0
 14 15  1  0
 15 16  2  0
 15 17  1  0
 17 18  1  0
  5 19  1  0
 19 20  2  0
 20 21  1  0
 20  2  1  0
 17  6  2  0
 14  8  1  0
  1 22  1  0
  1 23  1  0
  1 24  1  0
  3 25  1  0
  4 26  1  0
  9 27  1  0
 10 28  1  0
 11 29  1  0
 13 30  1  0
 18 31  1  0
 19 32  1  0
 21 33  1  0
 21 34  1  0
 21 35  1  0
M  END
>  <meeko>  (3) 
{"is_sidechain": [false], "free_energy": -9.97, "intermolecular_energy": -11.198, "internal_energy": -0.027}

$$$$
cand_036_out
     RDKit          3D

 35 37  0  0  0  0  0  0  0  0999 V2000
   53.5250  152.9950   26.5810 C   0  0  0  0  0  0  0  0  0  0  0  0
   52.8870  154.1390   27.3190 C   0  0  0  0  0  0  0  0  0  0  0  0
   52.2010  153.8880   28.5150 C   0  0  0  0  0  0  0  0  0  0  0  0
   51.5950  154.9270   29.2270 C   0  0  0  0  0  0  0  0  0  0  0  0
   51.6520  156.2430   28.7580 C   0  0  0  0  0  0  0  0  0  0  0  0
   51.0430  157.3630   29.5060 C   0  0  0  0  0  0  0  0  0  0  0  0
   51.9380  158.3970   29.7520 O   0  0  0  0  0  0  0  0  0  0  0  0
   51.5040  159.5020   30.4390 C   0  0  0  0  0  0  0  0  0  0  0  0
   52.4400  160.5090   30.6780 C   0  0  0  0  0  0  0  0  0  0  0  0
   52.0620  161.6620   31.3700 C   0  0  0  0  0  0  0  0  0  0  0  0
   50.7490  161.8080   31.8220 C   0  0  0  0  0  0  0  0  0  0  0  0
   49.8160  160.8010   31.5830 C   0  0  0  0  0  0  0  0  0  0  0  0
   48.5490  161.0080   32.0540 O   0  0  0  0  0  0  0  0  0  0  0  0
   50.1960  159.6470   30.8910 C   0  0  0  0  0  0  0  0  0  0  0  0
   49.2480  158.5660   30.6180 C   0  0  0  0  0  0  0  0  0  0  0  0
   48.0740  158.6230   30.9790 O   0  0  0  0  0  0  0  0  0  0  0  0
   49.7520  157.3820   29.8850 C   0  0  0  0  0  0  0  0  0  0  0  0
   48.8450  156.3730   29.6210 O   0  0  0  0  0  0  0  0  0  0  0  0
   52.3480  156.4940   27.5650 C   0  0  0  0  0  0  0  0  0  0  0  0
   52.9650  155.4600   26.8380 C   0  0  0  0  0  0  0  0  0  0  0  0
   53.6890  155.7880   25.5610 C   0  0  0  0  0  0  0  0  0  0  0  0
   53.9285  152.2714   27.3046 H   0  0  0  0  0  0  0  0  0  0  0  0
   52.7722  152.5008   25.9492 H   0  0  0  0  0  0  0  0  0  0  0  0
   54.3410  153.3757   25.9492 H   0  0  0  0  0  0  0  0  0  0  0  0
   52.1386  152.8590   28.8988 H   0  0  0  0  0  0  0  0  0  0  0  0
   51.0674  154.7069   30.1668 H   0  0  0  0  0  0  0  0  0  0  0  0
   53.4745  160.3949   30.3218 H   0  0  0  0  0  0  0  0  0  0  0  0
   52.7996  162.4559   31.5591 H   0  0  0  0  0  0  0  0  0  0  0  0
   50.4516  162.7166   32.3660 H   0  0  0  0  0  0  0  0  0  0  0  0
   48.0620  160.2950   32.4190 H   0  0  0  0  0  0  0  0  0  0  0  0
   47.9260  156.5330   29.7150 H   0  0  0  0  0  0  0  0  0  0  0  0
   52.4125  157.5258   27.1891 H   0  0  0  0  0  0  0  0  0  0  0  0
   54.6675  156.2313   25.7977 H   0  0  0  0  0  0  0  0  0  0  0  0
   53.8351  154.8682   24.9757 H   0  0  0  0  0  0  0  0  0  0  0  0
   53.0939  156.5044   24.9757 H   0  0  0  0  0  0  0  0  0  0  0  0
  1  2  1  0
  2  3  2  0
  3  4  1  0
  4  5  2  0
  5  6  1  0
  6  7  1  0
  7  8  1  0
  8  9  2  0
  9 10  1  0
 10 11  2  0
 11 12  1  0
 12 13  1  0
 12 14  2  0
 14 15  1  0
 15 16  2  0
 15 17  1  0
 17 18  1  0
  5 19  1  0
 19 20  2  0
 20 21  1  0
 20  2  1  0
 17  6  2  0
 14  8  1  0
  1 22  1  0
  1 23  1  0
  1 24  1  0
  3 25  1  0
  4 26  1  0
  9 27  1  0
 10 28  1  0
 11 29  1  0
 13 30  1  0
 18 31  1  0
 19 32  1  0
 21 33  1  0
 21 34  1  0
 21 35  1  0
M  END
>  <meeko>  (4) 
{"is_sidechain": [false], "free_energy": -8.94, "intermolecular_energy": -9.952, "internal_energy": -0.122}

$$$$
cand_036_out
     RDKit          3D

 35 37  0  0  0  0  0  0  0  0999 V2000
   49.2960  158.4280   31.1600 C   0  0  0  0  0  0  0  0  0  0  0  0
   50.0840  157.5950   30.1860 C   0  0  0  0  0  0  0  0  0  0  0  0
   49.5920  156.3420   29.7970 C   0  0  0  0  0  0  0  0  0  0  0  0
   50.2970  155.5420   28.8960 C   0  0  0  0  0  0  0  0  0  0  0  0
   51.5180  155.9700   28.3640 C   0  0  0  0  0  0  0  0  0  0  0  0
   52.2710  155.1540   27.3870 C   0  0  0  0  0  0  0  0  0  0  0  0
   51.9570  153.8020   27.4580 O   0  0  0  0  0  0  0  0  0  0  0  0
   52.5840  152.9290   26.6060 C   0  0  0  0  0  0  0  0  0  0  0  0
   52.2500  151.5790   26.7230 C   0  0  0  0  0  0  0  0  0  0  0  0
   52.8510  150.6380   25.8840 C   0  0  0  0  0  0  0  0  0  0  0  0
   53.7850  151.0460   24.9290 C   0  0  0  0  0  0  0  0  0  0  0  0
   54.1160  152.3940   24.8150 C   0  0  0  0  0  0  0  0  0  0  0  0
   55.0370  152.7260   23.8590 O   0  0  0  0  0  0  0  0  0  0  0  0
   53.5150  153.3360   25.6550 C   0  0  0  0  0  0  0  0  0  0  0  0
   53.8350  154.7610   25.5690 C   0  0  0  0  0  0  0  0  0  0  0  0
   54.6410  155.1990   24.7510 O   0  0  0  0  0  0  0  0  0  0  0  0
   53.1480  155.6760   26.5110 C   0  0  0  0  0  0  0  0  0  0  0  0
   53.4480  157.0210   26.4110 O   0  0  0  0  0  0  0  0  0  0  0  0
   52.0050  157.2290   28.7470 C   0  0  0  0  0  0  0  0  0  0  0  0
   51.3060  158.0470   29.6520 C   0  0  0  0  0  0  0  0  0  0  0  0
   51.8820  159.3840   30.0320 C   0  0  0  0  0  0  0  0  0  0  0  0
   49.5654  158.1433   32.1878 H   0  0  0  0  0  0  0  0  0  0  0  0
   49.5257  159.4921   31.0022 H   0  0  0  0  0  0  0  0  0  0  0  0
   48.2208  158.2577   31.0022 H   0  0  0  0  0  0  0  0  0  0  0  0
   48.6365  155.9835   30.2075 H   0  0  0  0  0  0  0  0  0  0  0  0
   49.8880  154.5644   28.6011 H   0  0  0  0  0  0  0  0  0  0  0  0
   51.5146  151.2566   27.4748 H   0  0  0  0  0  0  0  0  0  0  0  0
   52.5883  149.5737   25.9755 H   0  0  0  0  0  0  0  0  0  0  0  0
   54.2580  150.3044   24.2685 H   0  0  0  0  0  0  0  0  0  0  0  0
   55.9160  152.9340   24.1080 H   0  0  0  0  0  0  0  0  0  0  0  0
   54.2310  157.3570   26.8020 H   0  0  0  0  0  0  0  0  0  0  0  0
   52.9579  157.5851   28.3285 H   0  0  0  0  0  0  0  0  0  0  0  0
   51.9187  159.4693   31.1281 H   0  0  0  0  0  0  0  0  0  0  0  0
   52.8990  159.4748   29.6229 H   0  0  0  0  0  0  0  0  0  0  0  0
   51.2493  160.1855   29.6229 H   0  0  0  0  0  0  0  0  0  0  0  0
  1  2  1  0
  2  3  2  0
  3  4  1  0
  4  5  2  0
  5  6  1  0
  6  7  1  0
  7  8  1  0
  8  9  2  0
  9 10  1  0
 10 11  2  0
 11 12  1  0
 12 13  1  0
 12 14  2  0
 14 15  1  0
 15 16  2  0
 15 17  1  0
 17 18  1  0
  5 19  1  0
 19 20  2  0
 20 21  1  0
 20  2  1  0
 17  6  2  0
 14  8  1  0
  1 22  1  0
  1 23  1  0
  1 24  1  0
  3 25  1  0
  4 26  1  0
  9 27  1  0
 10 28  1  0
 11 29  1  0
 13 30  1  0
 18 31  1  0
 19 32  1  0
 21 33  1  0
 21 34  1  0
 21 35  1  0
M  END
>  <meeko>  (5) 
{"is_sidechain": [false], "free_energy": -8.712, "intermolecular_energy": -10.106, "internal_energy": 0.286}

$$$$
cand_036_out
     RDKit          3D

 35 37  0  0  0  0  0  0  0  0999 V2000
   53.5980  153.6480   26.0080 C   0  0  0  0  0  0  0  0  0  0  0  0
   52.9660  154.6650   26.9200 C   0  0  0  0  0  0  0  0  0  0  0  0
   53.1950  156.0280   26.6930 C   0  0  0  0  0  0  0  0  0  0  0  0
   52.6250  156.9990   27.5190 C   0  0  0  0  0  0  0  0  0  0  0  0
   51.8160  156.6330   28.6000 C   0  0  0  0  0  0  0  0  0  0  0  0
   51.1790  157.6420   29.4730 C   0  0  0  0  0  0  0  0  0  0  0  0
   52.0010  158.7340   29.7230 O   0  0  0  0  0  0  0  0  0  0  0  0
   51.5330  159.7480   30.5210 C   0  0  0  0  0  0  0  0  0  0  0  0
   52.3970  160.8180   30.7580 C   0  0  0  0  0  0  0  0  0  0  0  0
   51.9820  161.8840   31.5600 C   0  0  0  0  0  0  0  0  0  0  0  0
   50.7050  161.8790   32.1240 C   0  0  0  0  0  0  0  0  0  0  0  0
   49.8450  160.8090   31.8860 C   0  0  0  0  0  0  0  0  0  0  0  0
   48.6090  160.8690   32.4690 O   0  0  0  0  0  0  0  0  0  0  0  0
   50.2610  159.7430   31.0840 C   0  0  0  0  0  0  0  0  0  0  0  0
   49.3890  158.6000   30.8090 C   0  0  0  0  0  0  0  0  0  0  0  0
   48.2500  158.5260   31.2650 O   0  0  0  0  0  0  0  0  0  0  0  0
   49.9280  157.5180   29.9530 C   0  0  0  0  0  0  0  0  0  0  0  0
   49.0910  156.4500   29.6890 O   0  0  0  0  0  0  0  0  0  0  0  0
   51.5790  155.2670   28.8200 C   0  0  0  0  0  0  0  0  0  0  0  0
   52.1440  154.2770   27.9960 C   0  0  0  0  0  0  0  0  0  0  0  0
   51.8620  152.8290   28.2860 C   0  0  0  0  0  0  0  0  0  0  0  0
   54.0836  152.8665   26.6109 H   0  0  0  0  0  0  0  0  0  0  0  0
   52.8233  153.1931   25.3733 H   0  0  0  0  0  0  0  0  0  0  0  0
   54.3490  154.1412   25.3733 H   0  0  0  0  0  0  0  0  0  0  0  0
   53.8329  156.3380   25.8522 H   0  0  0  0  0  0  0  0  0  0  0  0
   52.8143  158.0637   27.3174 H   0  0  0  0  0  0  0  0  0  0  0  0
   53.4034  160.8220   30.3140 H   0  0  0  0  0  0  0  0  0  0  0  0
   52.6621  162.7281   31.7472 H   0  0  0  0  0  0  0  0  0  0  0  0
   50.3783  162.7185   32.7553 H   0  0  0  0  0  0  0  0  0  0  0  0
   48.4050  161.5630   33.0640 H   0  0  0  0  0  0  0  0  0  0  0  0
   48.1760  156.5130   29.8820 H   0  0  0  0  0  0  0  0  0  0  0  0
   50.9349  154.9630   29.6583 H   0  0  0  0  0  0  0  0  0  0  0  0
   51.8315  152.6722   29.3743 H   0  0  0  0  0  0  0  0  0  0  0  0
   50.8925  152.5494   27.8479 H   0  0  0  0  0  0  0  0  0  0  0  0
   52.6557  152.2060   27.8479 H   0  0  0  0  0  0  0  0  0  0  0  0
  1  2  1  0
  2  3  2  0
  3  4  1  0
  4  5  2  0
  5  6  1  0
  6  7  1  0
  7  8  1  0
  8  9  2  0
  9 10  1  0
 10 11  2  0
 11 12  1  0
 12 13  1  0
 12 14  2  0
 14 15  1  0
 15 16  2  0
 15 17  1  0
 17 18  1  0
  5 19  1  0
 19 20  2  0
 20 21  1  0
 20  2  1  0
 17  6  2  0
 14  8  1  0
  1 22  1  0
  1 23  1  0
  1 24  1  0
  3 25  1  0
  4 26  1  0
  9 27  1  0
 10 28  1  0
 11 29  1  0
 13 30  1  0
 18 31  1  0
 19 32  1  0
 21 33  1  0
 21 34  1  0
 21 35  1  0
M  END
>  <meeko>  (6) 
{"is_sidechain": [false], "free_energy": -8.321, "intermolecular_energy": -9.499, "internal_energy": 0.115}

$$$$
