cand_053_out
     RDKit          3D

 44 46  0  0  0  0  0  0  0  0999 V2000
   48.7240  161.5320   33.8230 C   0  0  0  0  0  0  0  0  0  0  0  0
   50.0430  161.1860   33.1510 C   0  0  0  0  0  0  0  0  0  0  0  0
   49.9470  161.3270   31.6300 C   0  0  0  0  0  0  0  0  0  0  0  0
   50.3670  160.0570   30.9220 C   0  0  0  0  0  0  0  0  0  0  0  0
   51.6480  160.0150   30.3440 C   0  0  0  0  0  0  0  0  0  0  0  0
   52.1060  158.8720   29.6860 C   0  0  0  0  0  0  0  0  0  0  0  0
   51.3020  157.7320   29.5940 C   0  0  0  0  0  0  0  0  0  0  0  0
   51.7930  156.5420   28.8670 C   0  0  0  0  0  0  0  0  0  0  0  0
   52.3730  156.8570   27.6430 O   0  0  0  0  0  0  0  0  0  0  0  0
   52.8700  155.8450   26.8630 C   0  0  0  0  0  0  0  0  0  0  0  0
   53.4280  156.2070   25.6360 C   0  0  0  0  0  0  0  0  0  0  0  0
   53.9550  155.2240   24.7940 C   0  0  0  0  0  0  0  0  0  0  0  0
   53.9230  153.8820   25.1790 C   0  0  0  0  0  0  0  0  0  0  0  0
   53.3650  153.5250   26.4040 C   0  0  0  0  0  0  0  0  0  0  0  0
   53.3670  152.1940   26.7180 O   0  0  0  0  0  0  0  0  0  0  0  0
   52.8380  154.5080   27.2450 C   0  0  0  0  0  0  0  0  0  0  0  0
   52.2420  154.1760   28.5400 C   0  0  0  0  0  0  0  0  0  0  0  0
   52.1850  153.0180   28.9520 O   0  0  0  0  0  0  0  0  0  0  0  0
   51.7040  155.2900   29.3530 C   0  0  0  0  0  0  0  0  0  0  0  0
   51.1560  154.9650   30.5810 O   0  0  0  0  0  0  0  0  0  0  0  0
   50.0240  157.7730   30.1660 C   0  0  0  0  0  0  0  0  0  0  0  0
   49.5460  158.9160   30.8420 C   0  0  0  0  0  0  0  0  0  0  0  0
   48.1500  158.8620   31.4210 C   0  0  0  0  0  0  0  0  0  0  0  0
   47.2320  159.8990   30.7910 C   0  0  0  0  0  0  0  0  0  0  0  0
   48.8493  161.4991   34.9153 H   0  0  0  0  0  0  0  0  0  0  0  0
   48.4120  162.5424   33.5200 H   0  0  0  0  0  0  0  0  0  0  0  0
   47.9563  160.8049   33.5200 H   0  0  0  0  0  0  0  0  0  0  0  0
   50.8242  161.8641   33.5250 H   0  0  0  0  0  0  0  0  0  0  0  0
   50.2889  160.1403   33.3875 H   0  0  0  0  0  0  0  0  0  0  0  0
   48.9066  161.5590   31.3585 H   0  0  0  0  0  0  0  0  0  0  0  0
   50.6256  162.1342   31.3172 H   0  0  0  0  0  0  0  0  0  0  0  0
   52.3006  160.8979   30.4114 H   0  0  0  0  0  0  0  0  0  0  0  0
   53.1095  158.8684   29.2355 H   0  0  0  0  0  0  0  0  0  0  0  0
   53.4529  157.2640   25.3323 H   0  0  0  0  0  0  0  0  0  0  0  0
   54.3956  155.5077   23.8268 H   0  0  0  0  0  0  0  0  0  0  0  0
   54.3377  153.1084   24.5160 H   0  0  0  0  0  0  0  0  0  0  0  0
   53.6240  151.9150   27.5750 H   0  0  0  0  0  0  0  0  0  0  0  0
   51.3680  155.4740   31.3380 H   0  0  0  0  0  0  0  0  0  0  0  0
   49.3743  156.8890   30.0860 H   0  0  0  0  0  0  0  0  0  0  0  0
   47.7301  157.8610   31.2432 H   0  0  0  0  0  0  0  0  0  0  0  0
   48.2196  159.0784   32.4973 H   0  0  0  0  0  0  0  0  0  0  0  0
   46.7261  160.4704   31.5832 H   0  0  0  0  0  0  0  0  0  0  0  0
   47.8256  160.5835   30.1672 H   0  0  0  0  0  0  0  0  0  0  0  0
   46.4806  159.3928   30.1672 H   0  0  0  0  0  0  0  0  0  0  0  0
  1  2  1  0
  2  3  1  0
  3  4  1  0
  4  5  2  0
  5  6  1  0
  6  7  2  0
  7  8  1  0
  8  9  1  0
  9 10  1  0
 10 11  2  0
 11 12  1  0
 12 13  2  0
 13 14  1  0
 14 15  1  0
 14 16  2  0
 16 17  1  0
 17 18  2  0
 17 19  1  0
 19 20  1  0
  7 21  1  0
 21 22  2  0
 22 23  1  0
 23 24  1  0
 22  4  1  0
 19  8  2  0
 16 10  1  0
  1 25  1  0
  1 26  1  0
  1 27  1  0
  2 28  1  0
  2 29  1  0
  3 30  1  0
  3 31  1  0
  5 32  1  0
  6 33  1  0
 11 34  1  0
 12 35  1  0
 13 36  1  0
 15 37  1  0
 20 38  1  0
 21 39  1  0
 23 40  1  0
 23 41  1  0
 24 42  1  0
 24 43  1  0
 24 44  1  0
M  END
>  <meeko>  (1) 
{"is_sidechain": [false], "free_energy": -10.814, "intermolecular_energy": -13.975, "internal_energy": -0.209}

$$$$
cand_053_out
     RDKit          3D

 44 46  0  0  0  0  0  0  0  0999 V2000
   49.6270  161.7030   33.8190 C   0  0  0  0  0  0  0  0  0  0  0  0
   49.1420  160.4220   33.1580 C   0  0  0  0  0  0  0  0  0  0  0  0
   48.9810  160.6020   31.6470 C   0  0  0  0  0  0  0  0  0  0  0  0
   49.7560  159.5570   30.8730 C   0  0  0  0  0  0  0  0  0  0  0  0
   49.1690  158.2920   30.6990 C   0  0  0  0  0  0  0  0  0  0  0  0
   49.8210  157.2860   29.9840 C   0  0  0  0  0  0  0  0  0  0  0  0
   51.0760  157.5150   29.4140 C   0  0  0  0  0  0  0  0  0  0  0  0
   51.7650  156.4270   28.6870 C   0  0  0  0  0  0  0  0  0  0  0  0
   52.3340  156.8510   27.4920 O   0  0  0  0  0  0  0  0  0  0  0  0
   53.0040  155.9410   26.7150 C   0  0  0  0  0  0  0  0  0  0  0  0
   53.5460  156.4080   25.5170 C   0  0  0  0  0  0  0  0  0  0  0  0
   54.2430  155.5340   24.6800 C   0  0  0  0  0  0  0  0  0  0  0  0
   54.3990  154.1940   25.0420 C   0  0  0  0  0  0  0  0  0  0  0  0
   53.8570  153.7310   26.2390 C   0  0  0  0  0  0  0  0  0  0  0  0
   54.0480  152.4090   26.5320 O   0  0  0  0  0  0  0  0  0  0  0  0
   53.1590  154.6070   27.0750 C   0  0  0  0  0  0  0  0  0  0  0  0
   52.5750  154.1620   28.3410 C   0  0  0  0  0  0  0  0  0  0  0  0
   52.6770  153.0000   28.7310 O   0  0  0  0  0  0  0  0  0  0  0  0
   51.8480  155.1660   29.1500 C   0  0  0  0  0  0  0  0  0  0  0  0
   51.3110  154.7370   30.3510 O   0  0  0  0  0  0  0  0  0  0  0  0
   51.6650  158.7740   29.5890 C   0  0  0  0  0  0  0  0  0  0  0  0
   51.0190  159.8070   30.3010 C   0  0  0  0  0  0  0  0  0  0  0  0
   51.7390  161.1290   30.4390 C   0  0  0  0  0  0  0  0  0  0  0  0
   52.6380  161.1620   31.6660 C   0  0  0  0  0  0  0  0  0  0  0  0
   49.5843  161.5903   34.9124 H   0  0  0  0  0  0  0  0  0  0  0  0
   50.6637  161.9046   33.5113 H   0  0  0  0  0  0  0  0  0  0  0  0
   48.9838  162.5406   33.5113 H   0  0  0  0  0  0  0  0  0  0  0  0
   49.8729  159.6221   33.3476 H   0  0  0  0  0  0  0  0  0  0  0  0
   48.1613  160.1621   33.5829 H   0  0  0  0  0  0  0  0  0  0  0  0
   47.9148  160.5184   31.3896 H   0  0  0  0  0  0  0  0  0  0  0  0
   49.3755  161.5923   31.3757 H   0  0  0  0  0  0  0  0  0  0  0  0
   48.1787  158.0912   31.1337 H   0  0  0  0  0  0  0  0  0  0  0  0
   49.3418  156.3027   29.8681 H   0  0  0  0  0  0  0  0  0  0  0  0
   53.4244  157.4635   25.2322 H   0  0  0  0  0  0  0  0  0  0  0  0
   54.6695  155.9012   23.7349 H   0  0  0  0  0  0  0  0  0  0  0  0
   54.9487  153.5056   24.3833 H   0  0  0  0  0  0  0  0  0  0  0  0
   54.5960  151.8820   25.9840 H   0  0  0  0  0  0  0  0  0  0  0  0
   51.0010  153.8570   30.4370 H   0  0  0  0  0  0  0  0  0  0  0  0
   52.6597  158.9628   29.1590 H   0  0  0  0  0  0  0  0  0  0  0  0
   52.3551  161.2933   29.5426 H   0  0  0  0  0  0  0  0  0  0  0  0
   50.9816  161.9188   30.5509 H   0  0  0  0  0  0  0  0  0  0  0  0
   52.0188  161.1393   32.5749 H   0  0  0  0  0  0  0  0  0  0  0  0
   53.3055  160.2878   31.6551 H   0  0  0  0  0  0  0  0  0  0  0  0
   53.2396  162.0828   31.6551 H   0  0  0  0  0  0  0  0  0  0  0  0
  1  2  1  0
  2  3  1  0
  3  4  1  0
  4  5  2  0
  5  6  1  0
  6  7  2  0
  7  8  1  0
  8  9  1  0
  9 10  1  0
 10 11  2  0
 11 12  1  0
 12 13  2  0
 13 14  1  0
 14 15  1  0
 14 16  2  0
 16 17  1  0
 17 18  2  0
 17 19  1  0
 19 20  1  0
  7 21  1  0
 21 22  2  0
 22 23  1  0
 23 24  1  0
 22  4  1  0
 19  8  2  0
 16 10  1  0
  1 25  1  0
  1 26  1  0
  1 27  1  0
  2 28  1  0
  2 29  1  0
  3 30  1  0
  3 31  1  0
  5 32  1  0
  6 33  1  0
 11 34  1  0
 12 35  1  0
 13 36  1  0
 15 37  1  0
 20 38  1  0
 21 39  1  0
 23 40  1  0
 23 41  1  0
 24 42  1  0
 24 43  1  0
 24 44  1  0
M  END
>  <meeko>  (2) 
{"is_sidechain": [false], "free_energy": -10.445, "intermolecular_energy": -13.104, "internal_energy": -0.603}

$$$$
cand_053_out
     RDKit          3D

 44 46  0  0  0  0  0  0  0  0999 V2000
   54.3160  151.0900   24.7570 C   0  0  0  0  0  0  0  0  0  0  0  0
   54.1400  152.0870   25.8920 C   0  0  0  0  0  0  0  0  0  0  0  0
   52.6720  152.2130   26.3000 C   0  0  0  0  0  0  0  0  0  0  0  0
   52.3920  153.5340   26.9860 C   0  0  0  0  0  0  0  0  0  0  0  0
   51.9620  153.5060   28.3240 C   0  0  0  0  0  0  0  0  0  0  0  0
   51.6990  154.6860   29.0230 C   0  0  0  0  0  0  0  0  0  0  0  0
   51.8650  155.9300   28.4090 C   0  0  0  0  0  0  0  0  0  0  0  0
   51.5520  157.1680   29.1550 C   0  0  0  0  0  0  0  0  0  0  0  0
   50.2480  157.1910   29.6380 O   0  0  0  0  0  0  0  0  0  0  0  0
   49.8230  158.2840   30.3490 C   0  0  0  0  0  0  0  0  0  0  0  0
   48.5020  158.2710   30.8010 C   0  0  0  0  0  0  0  0  0  0  0  0
   48.0060  159.3520   31.5330 C   0  0  0  0  0  0  0  0  0  0  0  0
   48.8310  160.4440   31.8140 C   0  0  0  0  0  0  0  0  0  0  0  0
   50.1470  160.4530   31.3610 C   0  0  0  0  0  0  0  0  0  0  0  0
   50.8990  161.5540   31.6720 O   0  0  0  0  0  0  0  0  0  0  0  0
   50.6430  159.3720   30.6280 C   0  0  0  0  0  0  0  0  0  0  0  0
   52.0200  159.3420   30.1340 C   0  0  0  0  0  0  0  0  0  0  0  0
   52.8080  160.2620   30.3480 O   0  0  0  0  0  0  0  0  0  0  0  0
   52.4440  158.1530   29.3600 C   0  0  0  0  0  0  0  0  0  0  0  0
   53.7520  158.1300   28.9100 O   0  0  0  0  0  0  0  0  0  0  0  0
   52.2900  155.9600   27.0740 C   0  0  0  0  0  0  0  0  0  0  0  0
   52.5690  154.7800   26.3530 C   0  0  0  0  0  0  0  0  0  0  0  0
   53.0170  154.9180   24.9160 C   0  0  0  0  0  0  0  0  0  0  0  0
   54.3560  155.6310   24.8030 C   0  0  0  0  0  0  0  0  0  0  0  0
   54.4930  150.0875   25.1737 H   0  0  0  0  0  0  0  0  0  0  0  0
   53.4067  151.0746   24.1382 H   0  0  0  0  0  0  0  0  0  0  0  0
   55.1756  151.3868   24.1382 H   0  0  0  0  0  0  0  0  0  0  0  0
   54.7250  151.7485   26.7598 H   0  0  0  0  0  0  0  0  0  0  0  0
   54.4893  153.0711   25.5461 H   0  0  0  0  0  0  0  0  0  0  0  0
   52.0443  152.1389   25.3997 H   0  0  0  0  0  0  0  0  0  0  0  0
   52.4426  151.4035   27.0086 H   0  0  0  0  0  0  0  0  0  0  0  0
   51.8304  152.5378   28.8292 H   0  0  0  0  0  0  0  0  0  0  0  0
   51.3577  154.6356   30.0675 H   0  0  0  0  0  0  0  0  0  0  0  0
   47.8529  157.4106   30.5809 H   0  0  0  0  0  0  0  0  0  0  0  0
   46.9651  159.3437   31.8886 H   0  0  0  0  0  0  0  0  0  0  0  0
   48.4413  161.2949   32.3921 H   0  0  0  0  0  0  0  0  0  0  0  0
   51.8070  161.4570   31.8820 H   0  0  0  0  0  0  0  0  0  0  0  0
   54.4330  157.8050   29.4660 H   0  0  0  0  0  0  0  0  0  0  0  0
   52.4096  156.9323   26.5736 H   0  0  0  0  0  0  0  0  0  0  0  0
   53.1106  153.9146   24.4752 H   0  0  0  0  0  0  0  0  0  0  0  0
   52.2659  155.5185   24.3819 H   0  0  0  0  0  0  0  0  0  0  0  0
   54.7467  155.8391   25.8100 H   0  0  0  0  0  0  0  0  0  0  0  0
   55.0669  154.9920   24.2586 H   0  0  0  0  0  0  0  0  0  0  0  0
   54.2226  156.5775   24.2586 H   0  0  0  0  0  0  0  0  0  0  0  0
  1  2  1  0
  2  3  1  0
  3  4  1  0
  4  5  2  0
  5  6  1  0
  6  7  2  0
  7  8  1  0
  8  9  1  0
  9 10  1  0
 10 11  2  0
 11 12  1  0
 12 13  2  0
 13 14  1  0
 14 15  1  0
 14 16  2  0
 16 17  1  0
 17 18  2  0
 17 19  1  0
 19 20  1  0
  7 21  1  0
 21 22  2  0
 22 23  1  0
 23 24  1  0
 22  4  1  0
 19  8  2  0
 16 10  1  0
  1 25  1  0
  1 26  1  0
  1 27  1  0
  2 28  1  0
  2 29  1  0
  3 30  1  0
  3 31  1  0
  5 32  1  0
  6 33  1  0
 11 34  1  0
 12 35  1  0
 13 36  1  0
 15 37  1  0
 20 38  1  0
 21 39  1  0
 23 40  1  0
 23 41  1  0
 24 42  1  0
 24 43  1  0
 24 44  1  0
M  END
>  <meeko>  (3) 
{"is_sidechain": [false], "free_energy": -10.379, "intermolecular_energy": -13.219, "internal_energy": -0.403}

$$$$
cand_053_out
     RDKit          3D

 44 46  0  0  0  0  0  0  0  0999 V2000
   52.7030  161.7240   30.9600 C   0  0  0  0  0  0  0  0  0  0  0  0
   51.5130  161.1290   30.2230 C   0  0  0  0  0  0  0  0  0  0  0  0
   51.0030  159.8650   30.9170 C   0  0  0  0  0  0  0  0  0  0  0  0
   51.2920  158.6220   30.1020 C   0  0  0  0  0  0  0  0  0  0  0  0
   52.5560  158.5070   29.4990 C   0  0  0  0  0  0  0  0  0  0  0  0
   52.8960  157.3820   28.7440 C   0  0  0  0  0  0  0  0  0  0  0  0
   51.9860  156.3340   28.5770 C   0  0  0  0  0  0  0  0  0  0  0  0
   52.3520  155.1650   27.7490 C   0  0  0  0  0  0  0  0  0  0  0  0
   53.1130  155.5090   26.6370 O   0  0  0  0  0  0  0  0  0  0  0  0
   53.5210  154.5190   25.7800 C   0  0  0  0  0  0  0  0  0  0  0  0
   54.2690  154.9120   24.6690 C   0  0  0  0  0  0  0  0  0  0  0  0
   54.7190  153.9530   23.7570 C   0  0  0  0  0  0  0  0  0  0  0  0
   54.4210  152.6030   23.9580 C   0  0  0  0  0  0  0  0  0  0  0  0
   53.6750  152.2150   25.0680 C   0  0  0  0  0  0  0  0  0  0  0  0
   53.4200  150.8780   25.2030 O   0  0  0  0  0  0  0  0  0  0  0  0
   53.2250  153.1750   25.9790 C   0  0  0  0  0  0  0  0  0  0  0  0
   52.4380  152.8100   27.1570 C   0  0  0  0  0  0  0  0  0  0  0  0
   52.1430  151.6420   27.4060 O   0  0  0  0  0  0  0  0  0  0  0  0
   52.0030  153.9030   28.0560 C   0  0  0  0  0  0  0  0  0  0  0  0
   51.2710  153.5440   29.1740 O   0  0  0  0  0  0  0  0  0  0  0  0
   50.7240  156.4490   29.1750 C   0  0  0  0  0  0  0  0  0  0  0  0
   50.3640  157.5730   29.9480 C   0  0  0  0  0  0  0  0  0  0  0  0
   48.9770  157.6050   30.5480 C   0  0  0  0  0  0  0  0  0  0  0  0
   48.2370  158.8890   30.2030 C   0  0  0  0  0  0  0  0  0  0  0  0
   52.5404  161.6427   32.0449 H   0  0  0  0  0  0  0  0  0  0  0  0
   53.6163  161.1765   30.6841 H   0  0  0  0  0  0  0  0  0  0  0  0
   52.8130  162.7831   30.6841 H   0  0  0  0  0  0  0  0  0  0  0  0
   50.7027  161.8723   30.1923 H   0  0  0  0  0  0  0  0  0  0  0  0
   51.8344  160.8602   29.2059 H   0  0  0  0  0  0  0  0  0  0  0  0
   51.4965  159.7721   31.8957 H   0  0  0  0  0  0  0  0  0  0  0  0
   49.9126  159.9535   31.0316 H   0  0  0  0  0  0  0  0  0  0  0  0
   53.2902  159.3166   29.6236 H   0  0  0  0  0  0  0  0  0  0  0  0
   53.8897  157.3201   28.2762 H   0  0  0  0  0  0  0  0  0  0  0  0
   54.5040  155.9750   24.5113 H   0  0  0  0  0  0  0  0  0  0  0  0
   55.3080  154.2614   22.8807 H   0  0  0  0  0  0  0  0  0  0  0  0
   54.7750  151.8479   23.2407 H   0  0  0  0  0  0  0  0  0  0  0  0
   53.1330  150.3790   24.4640 H   0  0  0  0  0  0  0  0  0  0  0  0
   51.5750  152.8550   29.7310 H   0  0  0  0  0  0  0  0  0  0  0  0
   49.9924  155.6391   29.0377 H   0  0  0  0  0  0  0  0  0  0  0  0
   48.4031  156.7496   30.1621 H   0  0  0  0  0  0  0  0  0  0  0  0
   49.0785  157.5545   31.6421 H   0  0  0  0  0  0  0  0  0  0  0  0
   47.9413  159.4021   31.1299 H   0  0  0  0  0  0  0  0  0  0  0  0
   48.8955  159.5450   29.6148 H   0  0  0  0  0  0  0  0  0  0  0  0
   47.3392  158.6481   29.6148 H   0  0  0  0  0  0  0  0  0  0  0  0
  1  2  1  0
  2  3  1  0
  3  4  1  0
  4  5  2  0
  5  6  1  0
  6  7  2  0
  7  8  1  0
  8  9  1  0
  9 10  1  0
 10 11  2  0
 11 12  1  0
 12 13  2  0
 13 14  1  0
 14 15  1  0
 14 16  2  0
 16 17  1  0
 17 18  2  0
 17 19  1  0
 19 20  1  0
  7 21  1  0
 21 22  2  0
 22 23  1  0
 23 24  1  0
 22  4  1  0
 19  8  2  0
 16 10  1  0
  1 25  1  0
  1 26  1  0
  1 27  1  0
  2 28  1  0
  2 29  1  0
  3 30  1  0
  3 31  1  0
  5 32  1  0
  6 33  1  0
 11 34  1  0
 12 35  1  0
 13 36  1  0
 15 37  1  0
 20 38  1  0
 21 39  1  0
 23 40  1  0
 23 41  1  0
 24 42  1  0
 24 43  1  0
 24 44  1  0
M  END
>  <meeko>  (4) 
{"is_sidechain": [false], "free_energy": -9.301, "intermolecular_energy": -12.379, "internal_energy": 0.15}

$$$$
cand_053_out
     RDKit          3D

 44 46  0  0  0  0  0  0  0  0999 V2000
   53.4750  150.4760   25.2520 C   0  0  0  0  0  0  0  0  0  0  0  0
   52.7900  151.6100   25.9990 C   0  0  0  0  0  0  0  0  0  0  0  0
   53.8110  152.5710   26.6110 C   0  0  0  0  0  0  0  0  0  0  0  0
   53.1390  153.7610   27.2620 C   0  0  0  0  0  0  0  0  0  0  0  0
   52.6470  153.6080   28.5700 C   0  0  0  0  0  0  0  0  0  0  0  0
   52.0290  154.6680   29.2370 C   0  0  0  0  0  0  0  0  0  0  0  0
   51.8920  155.9150   28.6220 C   0  0  0  0  0  0  0  0  0  0  0  0
   51.2060  157.0160   29.3320 C   0  0  0  0  0  0  0  0  0  0  0  0
   52.0430  158.0960   29.5890 O   0  0  0  0  0  0  0  0  0  0  0  0
   51.5350  159.1890   30.2450 C   0  0  0  0  0  0  0  0  0  0  0  0
   52.4150  160.2430   30.4950 C   0  0  0  0  0  0  0  0  0  0  0  0
   51.9610  161.3860   31.1580 C   0  0  0  0  0  0  0  0  0  0  0  0
   50.6290  161.4750   31.5680 C   0  0  0  0  0  0  0  0  0  0  0  0
   49.7550  160.4210   31.3170 C   0  0  0  0  0  0  0  0  0  0  0  0
   48.4640  160.5740   31.7460 O   0  0  0  0  0  0  0  0  0  0  0  0
   50.2090  159.2770   30.6550 C   0  0  0  0  0  0  0  0  0  0  0  0
   49.3230  158.1480   30.3710 C   0  0  0  0  0  0  0  0  0  0  0  0
   48.1360  158.1550   30.6940 O   0  0  0  0  0  0  0  0  0  0  0  0
   49.9050  156.9790   29.6720 C   0  0  0  0  0  0  0  0  0  0  0  0
   49.0540  155.9230   29.3970 O   0  0  0  0  0  0  0  0  0  0  0  0
   52.3790  156.0690   27.3170 C   0  0  0  0  0  0  0  0  0  0  0  0
   53.0140  155.0130   26.6290 C   0  0  0  0  0  0  0  0  0  0  0  0
   53.5010  155.2780   25.2220 C   0  0  0  0  0  0  0  0  0  0  0  0
   54.1560  156.6450   25.0950 C   0  0  0  0  0  0  0  0  0  0  0  0
   53.9035  149.7666   25.9753 H   0  0  0  0  0  0  0  0  0  0  0  0
   52.7397  149.9562   24.6202 H   0  0  0  0  0  0  0  0  0  0  0  0
   54.2772  150.8850   24.6202 H   0  0  0  0  0  0  0  0  0  0  0  0
   52.1506  152.1660   25.2976 H   0  0  0  0  0  0  0  0  0  0  0  0
   52.1907  151.1765   26.8132 H   0  0  0  0  0  0  0  0  0  0  0  0
   54.3967  152.0326   27.3707 H   0  0  0  0  0  0  0  0  0  0  0  0
   54.4594  152.9423   25.8038 H   0  0  0  0  0  0  0  0  0  0  0  0
   52.7505  152.6371   29.0766 H   0  0  0  0  0  0  0  0  0  0  0  0
   51.6460  154.5195   30.2574 H   0  0  0  0  0  0  0  0  0  0  0  0
   53.4639  160.1740   30.1707 H   0  0  0  0  0  0  0  0  0  0  0  0
   52.6537  162.2169   31.3573 H   0  0  0  0  0  0  0  0  0  0  0  0
   50.2713  162.3759   32.0881 H   0  0  0  0  0  0  0  0  0  0  0  0
   48.2360  161.2990   32.2930 H   0  0  0  0  0  0  0  0  0  0  0  0
   48.3690  156.0260   28.7670 H   0  0  0  0  0  0  0  0  0  0  0  0
   52.2630  157.0407   26.8146 H   0  0  0  0  0  0  0  0  0  0  0  0
   54.2349  154.5055   24.9486 H   0  0  0  0  0  0  0  0  0  0  0  0
   52.6302  155.2542   24.5503 H   0  0  0  0  0  0  0  0  0  0  0  0
   54.3513  157.0526   26.0979 H   0  0  0  0  0  0  0  0  0  0  0  0
   55.1051  156.5474   24.5477 H   0  0  0  0  0  0  0  0  0  0  0  0
   53.4852  157.3236   24.5477 H   0  0  0  0  0  0  0  0  0  0  0  0
  1  2  1  0
  2  3  1  0
  3  4  1  0
  4  5  2  0
  5  6  1  0
  6  7  2  0
  7  8  1  0
  8  9  1  0
  9 10  1  0
 10 11  2  0
 11 12  1  0
 12 13  2  0
 13 14  1  0
 14 15  1  0
 14 16  2  0
 16 17  1  0
 17 18  2  0
 17 19  1  0
 19 20  1  0
  7 21  1  0
 21 22  2  0
 22 23  1  0
 23 24  1  0
 22  4  1  0
 19  8  2  0
 16 10  1  0
  1 25  1  0
  1 26  1  0
  1 27  1  0
  2 28  1  0
  2 29  1  0
  3 30  1  0
  3 31  1  0
  5 32  1  0
  6 33  1  0
 11 34  1  0
 12 35  1  0
 13 36  1  0
 15 37  1  0
 20 38  1  0
 21 39  1  0
 23 40  1  0
 23 41  1  0
 24 42  1  0
 24 43  1  0
 24 44  1  0
M  END
>  <meeko>  (5) 
{"is_sidechain": [false], "free_energy": -9.076, "intermolecular_energy": -11.335, "internal_energy": -0.603}

$$$$
cand_053_out
     RDKit          3D

 44 46  0  0  0  0  0  0  0  0999 V2000
   54.0430  153.4710   23.8760 C   0  0  0  0  0  0  0  0  0  0  0  0
   53.2140  154.3530   24.7970 C   0  0  0  0  0  0  0  0  0  0  0  0
   53.4110  153.9670   26.2640 C   0  0  0  0  0  0  0  0  0  0  0  0
   52.8640  155.0230   27.2000 C   0  0  0  0  0  0  0  0  0  0  0  0
   52.9930  156.3710   26.8220 C   0  0  0  0  0  0  0  0  0  0  0  0
   52.5000  157.3980   27.6310 C   0  0  0  0  0  0  0  0  0  0  0  0
   51.8550  157.1080   28.8370 C   0  0  0  0  0  0  0  0  0  0  0  0
   51.3670  158.2100   29.6940 C   0  0  0  0  0  0  0  0  0  0  0  0
   50.0330  158.0600   30.0580 O   0  0  0  0  0  0  0  0  0  0  0  0
   49.4520  159.0140   30.8540 C   0  0  0  0  0  0  0  0  0  0  0  0
   48.1080  158.8310   31.1820 C   0  0  0  0  0  0  0  0  0  0  0  0
   47.4550  159.7640   31.9910 C   0  0  0  0  0  0  0  0  0  0  0  0
   48.1460  160.8790   32.4720 C   0  0  0  0  0  0  0  0  0  0  0  0
   49.4870  161.0580   32.1420 C   0  0  0  0  0  0  0  0  0  0  0  0
   50.1040  162.1700   32.6470 O   0  0  0  0  0  0  0  0  0  0  0  0
   50.1400  160.1240   31.3320 C   0  0  0  0  0  0  0  0  0  0  0  0
   51.5470  160.2740   30.9630 C   0  0  0  0  0  0  0  0  0  0  0  0
   52.2250  161.2240   31.3540 O   0  0  0  0  0  0  0  0  0  0  0  0
   52.1430  159.2340   30.0930 C   0  0  0  0  0  0  0  0  0  0  0  0
   53.4780  159.3800   29.7620 O   0  0  0  0  0  0  0  0  0  0  0  0
   51.7290  155.7650   29.2160 C   0  0  0  0  0  0  0  0  0  0  0  0
   52.2130  154.7140   28.4100 C   0  0  0  0  0  0  0  0  0  0  0  0
   52.0320  153.2980   28.9100 C   0  0  0  0  0  0  0  0  0  0  0  0
   51.6150  152.3500   27.7950 C   0  0  0  0  0  0  0  0  0  0  0  0
   54.6729  152.8008   24.4793 H   0  0  0  0  0  0  0  0  0  0  0  0
   53.3734  152.8720   23.2413 H   0  0  0  0  0  0  0  0  0  0  0  0
   54.6822  154.1023   23.2413 H   0  0  0  0  0  0  0  0  0  0  0  0
   53.5182  155.4010   24.6585 H   0  0  0  0  0  0  0  0  0  0  0  0
   52.1523  154.2184   24.5427 H   0  0  0  0  0  0  0  0  0  0  0  0
   52.8905  153.0170   26.4555 H   0  0  0  0  0  0  0  0  0  0  0  0
   54.4907  153.8700   26.4506 H   0  0  0  0  0  0  0  0  0  0  0  0
   53.4904  156.6214   25.8734 H   0  0  0  0  0  0  0  0  0  0  0  0
   52.6206  158.4450   27.3159 H   0  0  0  0  0  0  0  0  0  0  0  0
   47.5635  157.9532   30.8040 H   0  0  0  0  0  0  0  0  0  0  0  0
   46.3955  159.6207   32.2497 H   0  0  0  0  0  0  0  0  0  0  0  0
   47.6322  161.6134   33.1096 H   0  0  0  0  0  0  0  0  0  0  0  0
   51.0280  162.1650   32.7990 H   0  0  0  0  0  0  0  0  0  0  0  0
   54.1010  159.6160   30.4200 H   0  0  0  0  0  0  0  0  0  0  0  0
   51.2381  155.5234   30.1703 H   0  0  0  0  0  0  0  0  0  0  0  0
   52.9832  152.9476   29.3372 H   0  0  0  0  0  0  0  0  0  0  0  0
   51.2346  153.3039   29.6677 H   0  0  0  0  0  0  0  0  0  0  0  0
   51.2086  151.4260   28.2321 H   0  0  0  0  0  0  0  0  0  0  0  0
   50.8454  152.8310   27.1734 H   0  0  0  0  0  0  0  0  0  0  0  0
   52.4896  152.1077   27.1734 H   0  0  0  0  0  0  0  0  0  0  0  0
  1  2  1  0
  2  3  1  0
  3  4  1  0
  4  5  2  0
  5  6  1  0
  6  7  2  0
  7  8  1  0
  8  9  1  0
  9 10  1  0
 10 11  2  0
 11 12  1  0
 12 13  2  0
 13 14  1  0
 14 15  1  0
 14 16  2  0
 16 17  1  0
 17 18  2  0
 17 19  1  0
 19 20  1  0
  7 21  1  0
 21 22  2  0
 22 23  1  0
 23 24  1  0
 22  4  1  0
 19  8  2  0
 16 10  1  0
  1 25  1  0
  1 26  1  0
  1 27  1  0
  2 28  1  0
  2 29  1  0
  3 30  1  0
  3 31  1  0
  5 32  1  0
  6 33  1  0
 11 34  1  0
 12 35  1  0
 13 36  1  0
 15 37  1  0
 20 38  1  0
 21 39  1  0
 23 40  1  0
 23 41  1  0
 24 42  1  0
 24 43  1  0
 24 44  1  0
M  END
>  <meeko>  (6) 
{"is_sidechain": [false], "free_energy": -8.976, "intermolecular_energy": -12.041, "internal_energy": 0.232}

$$$$
cand_053_out
     RDKit          3D

 44 46  0  0  0  0  0  0  0  0999 V2000
   47.6420  160.1920   31.2460 C   0  0  0  0  0  0  0  0  0  0  0  0
   48.0130  158.8790   30.5740 C   0  0  0  0  0  0  0  0  0  0  0  0
   49.2430  158.2470   31.2280 C   0  0  0  0  0  0  0  0  0  0  0  0
   50.0980  157.5090   30.2200 C   0  0  0  0  0  0  0  0  0  0  0  0
   49.6390  156.2660   29.7490 C   0  0  0  0  0  0  0  0  0  0  0  0
   50.3690  155.5370   28.8090 C   0  0  0  0  0  0  0  0  0  0  0  0
   51.5750  156.0310   28.3030 C   0  0  0  0  0  0  0  0  0  0  0  0
   52.3500  155.2300   27.3310 C   0  0  0  0  0  0  0  0  0  0  0  0
   52.0480  153.8730   27.3870 O   0  0  0  0  0  0  0  0  0  0  0  0
   52.6970  153.0130   26.5380 C   0  0  0  0  0  0  0  0  0  0  0  0
   52.3740  151.6590   26.6410 C   0  0  0  0  0  0  0  0  0  0  0  0
   52.9960  150.7300   25.8040 C   0  0  0  0  0  0  0  0  0  0  0  0
   53.9390  151.1550   24.8650 C   0  0  0  0  0  0  0  0  0  0  0  0
   54.2580  152.5060   24.7660 C   0  0  0  0  0  0  0  0  0  0  0  0
   55.1900  152.8530   23.8260 O   0  0  0  0  0  0  0  0  0  0  0  0
   53.6360  153.4350   25.6040 C   0  0  0  0  0  0  0  0  0  0  0  0
   53.9430  154.8650   25.5320 C   0  0  0  0  0  0  0  0  0  0  0  0
   54.7550  155.3160   24.7270 O   0  0  0  0  0  0  0  0  0  0  0  0
   53.2350  155.7650   26.4700 C   0  0  0  0  0  0  0  0  0  0  0  0
   53.5230  157.1160   26.3840 O   0  0  0  0  0  0  0  0  0  0  0  0
   52.0360  157.2680   28.7740 C   0  0  0  0  0  0  0  0  0  0  0  0
   51.3090  158.0240   29.7170 C   0  0  0  0  0  0  0  0  0  0  0  0
   51.8920  159.3450   30.1660 C   0  0  0  0  0  0  0  0  0  0  0  0
   50.9780  160.5140   29.8310 C   0  0  0  0  0  0  0  0  0  0  0  0
   47.6772  160.0676   32.3384 H   0  0  0  0  0  0  0  0  0  0  0  0
   48.3546  160.9732   30.9428 H   0  0  0  0  0  0  0  0  0  0  0  0
   46.6260  160.4848   30.9428 H   0  0  0  0  0  0  0  0  0  0  0  0
   47.1657  158.1824   30.6566 H   0  0  0  0  0  0  0  0  0  0  0  0
   48.2477  159.0835   29.5190 H   0  0  0  0  0  0  0  0  0  0  0  0
   49.8461  159.0404   31.6936 H   0  0  0  0  0  0  0  0  0  0  0  0
   48.8967  157.5218   31.9791 H   0  0  0  0  0  0  0  0  0  0  0  0
   48.6888  155.8615   30.1277 H   0  0  0  0  0  0  0  0  0  0  0  0
   49.9915  154.5636   28.4627 H   0  0  0  0  0  0  0  0  0  0  0  0
   51.6310  151.3243   27.3799 H   0  0  0  0  0  0  0  0  0  0  0  0
   52.7431  149.6625   25.8842 H   0  0  0  0  0  0  0  0  0  0  0  0
   54.4283  150.4234   24.2053 H   0  0  0  0  0  0  0  0  0  0  0  0
   55.1270  152.5110   22.9560 H   0  0  0  0  0  0  0  0  0  0  0  0
   52.8760  157.7480   26.6250 H   0  0  0  0  0  0  0  0  0  0  0  0
   52.9921  157.6604   28.3974 H   0  0  0  0  0  0  0  0  0  0  0  0
   52.0446  159.3141   31.2549 H   0  0  0  0  0  0  0  0  0  0  0  0
   52.8437  159.4946   29.6351 H   0  0  0  0  0  0  0  0  0  0  0  0
   50.6170  160.9757   30.7619 H   0  0  0  0  0  0  0  0  0  0  0  0
   51.5356  161.2590   29.2444 H   0  0  0  0  0  0  0  0  0  0  0  0
   50.1205  160.1526   29.2444 H   0  0  0  0  0  0  0  0  0  0  0  0
  1  2  1  0
  2  3  1  0
  3  4  1  0
  4  5  2  0
  5  6  1  0
  6  7  2  0
  7  8  1  0
  8  9  1  0
  9 10  1  0
 10 11  2  0
 11 12  1  0
 12 13  2  0
 13 14  1  0
 14 15  1  0
 14 16  2  0
 16 17  1  0
 17 18  2  0
 17 19  1  0
 19 20  1  0
  7 21  1  0
 21 22  2  0
 22 23  1  0
 23 24  1  0
 22  4  1  0
 19  8  2  0
 16 10  1  0
  1 25  1  0
  1 26  1  0
  1 27  1  0
  2 28  1  0
  2 29  1  0
  3 30  1  0
  3 31  1  0
  5 32  1  0
  6 33  1  0
 11 34  1  0
 12 35  1  0
 13 36  1  0
 15 37  1  0
 20 38  1  0
 21 39  1  0
 23 40  1  0
 23 41  1  0
 24 42  1  0
 24 43  1  0
 24 44  1  0
M  END
>  <meeko>  (7) 
{"is_sidechain": [false], "free_energy": -8.757, "intermolecular_energy": -11.629, "internal_energy": 0.103}

$$$$
cand_053_out
     RDKit          3D

 44 46  0  0  0  0  0  0  0  0999 V2000
   54.1150  153.0980   23.6330 C   0  0  0  0  0  0  0  0  0  0  0  0
   53.5770  154.1690   24.5680 C   0  0  0  0  0  0  0  0  0  0  0  0
   53.7450  153.7630   26.0340 C   0  0  0  0  0  0  0  0  0  0  0  0
   53.0450  154.7280   26.9660 C   0  0  0  0  0  0  0  0  0  0  0  0
   53.2300  156.1060   26.7530 C   0  0  0  0  0  0  0  0  0  0  0  0
   52.6040  157.0530   27.5660 C   0  0  0  0  0  0  0  0  0  0  0  0
   51.7650  156.6530   28.6110 C   0  0  0  0  0  0  0  0  0  0  0  0
   51.1360  157.6700   29.4800 C   0  0  0  0  0  0  0  0  0  0  0  0
   51.9610  158.7630   29.7170 O   0  0  0  0  0  0  0  0  0  0  0  0
   51.5010  159.7830   30.5100 C   0  0  0  0  0  0  0  0  0  0  0  0
   52.3690  160.8530   30.7330 C   0  0  0  0  0  0  0  0  0  0  0  0
   51.9620  161.9260   31.5300 C   0  0  0  0  0  0  0  0  0  0  0  0
   50.6880  161.9280   32.1030 C   0  0  0  0  0  0  0  0  0  0  0  0
   49.8250  160.8590   31.8780 C   0  0  0  0  0  0  0  0  0  0  0  0
   48.5920  160.9260   32.4680 O   0  0  0  0  0  0  0  0  0  0  0  0
   50.2330  159.7860   31.0810 C   0  0  0  0  0  0  0  0  0  0  0  0
   49.3570  158.6430   30.8200 C   0  0  0  0  0  0  0  0  0  0  0  0
   48.2190  158.5770   31.2810 O   0  0  0  0  0  0  0  0  0  0  0  0
   49.8870  157.5540   29.9690 C   0  0  0  0  0  0  0  0  0  0  0  0
   49.0450  156.4850   29.7180 O   0  0  0  0  0  0  0  0  0  0  0  0
   51.5820  155.2810   28.8270 C   0  0  0  0  0  0  0  0  0  0  0  0
   52.1990  154.3080   28.0120 C   0  0  0  0  0  0  0  0  0  0  0  0
   51.9420  152.8530   28.3290 C   0  0  0  0  0  0  0  0  0  0  0  0
   51.8220  152.0080   27.0690 C   0  0  0  0  0  0  0  0  0  0  0  0
   54.5311  152.2696   24.2252 H   0  0  0  0  0  0  0  0  0  0  0  0
   53.2990  152.7215   22.9986 H   0  0  0  0  0  0  0  0  0  0  0  0
   54.9042  153.5278   22.9986 H   0  0  0  0  0  0  0  0  0  0  0  0
   54.1240  155.1068   24.3910 H   0  0  0  0  0  0  0  0  0  0  0  0
   52.5039  154.3000   24.3649 H   0  0  0  0  0  0  0  0  0  0  0  0
   53.3203  152.7583   26.1765 H   0  0  0  0  0  0  0  0  0  0  0  0
   54.8189  153.7746   26.2720 H   0  0  0  0  0  0  0  0  0  0  0  0
   53.8792  156.4435   25.9316 H   0  0  0  0  0  0  0  0  0  0  0  0
   52.7724  158.1245   27.3827 H   0  0  0  0  0  0  0  0  0  0  0  0
   53.3722  160.8515   30.2819 H   0  0  0  0  0  0  0  0  0  0  0  0
   52.6453  162.7698   31.7064 H   0  0  0  0  0  0  0  0  0  0  0  0
   50.3673  162.7725   32.7307 H   0  0  0  0  0  0  0  0  0  0  0  0
   48.3500  161.6850   32.9610 H   0  0  0  0  0  0  0  0  0  0  0  0
   48.1540  156.6380   29.4770 H   0  0  0  0  0  0  0  0  0  0  0  0
   50.9384  154.9524   29.6563 H   0  0  0  0  0  0  0  0  0  0  0  0
   52.7752  152.4692   28.9361 H   0  0  0  0  0  0  0  0  0  0  0  0
   50.9891  152.7871   28.8745 H   0  0  0  0  0  0  0  0  0  0  0  0
   51.6724  150.9543   27.3470 H   0  0  0  0  0  0  0  0  0  0  0  0
   50.9642  152.3557   26.4746 H   0  0  0  0  0  0  0  0  0  0  0  0
   52.7427  152.1032   26.4746 H   0  0  0  0  0  0  0  0  0  0  0  0
  1  2  1  0
  2  3  1  0
  3  4  1  0
  4  5  2  0
  5  6  1  0
  6  7  2  0
  7  8  1  0
  8  9  1  0
  9 10  1  0
 10 11  2  0
 11 12  1  0
 12 13  2  0
 13 14  1  0
 14 15  1  0
 14 16  2  0
 16 17  1  0
 17 18  2  0
 17 19  1  0
 19 20  1  0
  7 21  1  0
 21 22  2  0
 22 23  1  0
 23 24  1  0
 22  4  1  0
 19  8  2  0
 16 10  1  0
  1 25  1  0
  1 26  1  0
  1 27  1  0
  2 28  1  0
  2 29  1  0
  3 30  1  0
  3 31  1  0
  5 32  1  0
  6 33  1  0
 11 34  1  0
 12 35  1  0
 13 36  1  0
 15 37  1  0
 20 38  1  0
 21 39  1  0
 23 40  1  0
 23 41  1  0
 24 42  1  0
 24 43  1  0
 24 44  1  0
M  END
>  <meeko>  (8) 
{"is_sidechain": [false], "free_energy": -8.322, "intermolecular_energy": -11.38, "internal_energy": 0.417}

$$$$
cand_053_out
     RDKit          3D

 44 46  0  0  0  0  0  0  0  0999 V2000
   52.3200  161.5180   30.9020 C   0  0  0  0  0  0  0  0  0  0  0  0
   51.1180  160.8170   30.2880 C   0  0  0  0  0  0  0  0  0  0  0  0
   50.9000  159.4360   30.9100 C   0  0  0  0  0  0  0  0  0  0  0  0
   51.2940  158.3250   29.9610 C   0  0  0  0  0  0  0  0  0  0  0  0
   52.5660  158.3840   29.3650 C   0  0  0  0  0  0  0  0  0  0  0  0
   53.0010  157.3870   28.4900 C   0  0  0  0  0  0  0  0  0  0  0  0
   52.1820  156.2940   28.1900 C   0  0  0  0  0  0  0  0  0  0  0  0
   52.6480  155.2640   27.2380 C   0  0  0  0  0  0  0  0  0  0  0  0
   52.2010  153.9880   27.5620 O   0  0  0  0  0  0  0  0  0  0  0  0
   52.5620  152.9350   26.7600 C   0  0  0  0  0  0  0  0  0  0  0  0
   52.1040  151.6700   27.1330 C   0  0  0  0  0  0  0  0  0  0  0  0
   52.4330  150.5540   26.3580 C   0  0  0  0  0  0  0  0  0  0  0  0
   53.2180  150.7050   25.2120 C   0  0  0  0  0  0  0  0  0  0  0  0
   53.6720  151.9690   24.8440 C   0  0  0  0  0  0  0  0  0  0  0  0
   54.4350  152.0440   23.7110 O   0  0  0  0  0  0  0  0  0  0  0  0
   53.3440  153.0840   25.6200 C   0  0  0  0  0  0  0  0  0  0  0  0
   53.8000  154.4290   25.2680 C   0  0  0  0  0  0  0  0  0  0  0  0
   54.4880  154.6420   24.2710 O   0  0  0  0  0  0  0  0  0  0  0  0
   53.4040  155.5420   26.1600 C   0  0  0  0  0  0  0  0  0  0  0  0
   53.8310  156.8110   25.8100 O   0  0  0  0  0  0  0  0  0  0  0  0
   50.9120  156.2350   28.7800 C   0  0  0  0  0  0  0  0  0  0  0  0
   50.4580  157.2280   29.6730 C   0  0  0  0  0  0  0  0  0  0  0  0
   49.0700  157.0760   30.2540 C   0  0  0  0  0  0  0  0  0  0  0  0
   48.2010  158.2940   29.9780 C   0  0  0  0  0  0  0  0  0  0  0  0
   52.2481  161.4761   31.9988 H   0  0  0  0  0  0  0  0  0  0  0  0
   53.2431  161.0166   30.5756 H   0  0  0  0  0  0  0  0  0  0  0  0
   52.3381  162.5683   30.5756 H   0  0  0  0  0  0  0  0  0  0  0  0
   50.2210  161.4310   30.4562 H   0  0  0  0  0  0  0  0  0  0  0  0
   51.3053  160.6867   29.2119 H   0  0  0  0  0  0  0  0  0  0  0  0
   51.5078  159.3567   31.8234 H   0  0  0  0  0  0  0  0  0  0  0  0
   49.8293  159.3282   31.1378 H   0  0  0  0  0  0  0  0  0  0  0  0
   53.2303  159.2308   29.5922 H   0  0  0  0  0  0  0  0  0  0  0  0
   53.9982  157.4620   28.0318 H   0  0  0  0  0  0  0  0  0  0  0  0
   51.4855  151.5517   28.0349 H   0  0  0  0  0  0  0  0  0  0  0  0
   52.0737  149.5564   26.6506 H   0  0  0  0  0  0  0  0  0  0  0  0
   53.4769  149.8272   24.6017 H   0  0  0  0  0  0  0  0  0  0  0  0
   55.1270  151.4280   23.5710 H   0  0  0  0  0  0  0  0  0  0  0  0
   53.7070  157.1220   24.9360 H   0  0  0  0  0  0  0  0  0  0  0  0
   50.2502  155.3899   28.5397 H   0  0  0  0  0  0  0  0  0  0  0  0
   48.5931  156.1908   29.8079 H   0  0  0  0  0  0  0  0  0  0  0  0
   49.1676  156.9678   31.3443 H   0  0  0  0  0  0  0  0  0  0  0  0
   47.8823  158.7407   30.9314 H   0  0  0  0  0  0  0  0  0  0  0  0
   48.7773  159.0326   29.4015 H   0  0  0  0  0  0  0  0  0  0  0  0
   47.3151  157.9893   29.4015 H   0  0  0  0  0  0  0  0  0  0  0  0
  1  2  1  0
  2  3  1  0
  3  4  1  0
  4  5  2  0
  5  6  1  0
  6  7  2  0
  7  8  1  0
  8  9  1  0
  9 10  1  0
 10 11  2  0
 11 12  1  0
 12 13  2  0
 13 14  1  0
 14 15  1  0
 14 16  2  0
 16 17  1  0
 17 18  2  0
 17 19  1  0
 19 20  1  0
  7 21  1  0
 21 22  2  0
 22 23  1  0
 23 24  1  0
 22  4  1  0
 19  8  2  0
 16 10  1  0
  1 25  1  0
  1 26  1  0
  1 27  1  0
  2 28  1  0
  2 29  1  0
  3 30  1  0
  3 31  1  0
  5 32  1  0
  6 33  1  0
 11 34  1  0
 12 35  1  0
 13 36  1  0
 15 37  1  0
 20 38  1  0
 21 39  1  0
 23 40  1  0
 23 41  1  0
 24 42  1  0
 24 43  1  0
 24 44  1  0
M  END
>  <meeko>  (9) 
{"is_sidechain": [false], "free_energy": -7.957, "intermolecular_energy": -10.676, "internal_energy": 0.184}

$$$$
