cand_041_out
     RDKit          3D

 47 49  0  0  0  0  0  0  0  0999 V2000
   52.6290  152.1510   26.6020 C   0  0  0  0  0  0  0  0  0  0  0  0
   52.3260  153.4710   27.2580 C   0  0  0  0  0  0  0  0  0  0  0  0
   51.9020  153.4840   28.5950 C   0  0  0  0  0  0  0  0  0  0  0  0
   51.6140  154.6860   29.2460 C   0  0  0  0  0  0  0  0  0  0  0  0
   51.7380  155.9080   28.5790 C   0  0  0  0  0  0  0  0  0  0  0  0
   51.4490  157.1700   29.2930 C   0  0  0  0  0  0  0  0  0  0  0  0
   50.1410  157.2400   29.7610 O   0  0  0  0  0  0  0  0  0  0  0  0
   49.7380  158.3600   30.4410 C   0  0  0  0  0  0  0  0  0  0  0  0
   48.4220  158.3800   30.9060 C   0  0  0  0  0  0  0  0  0  0  0  0
   47.9470  159.4910   31.6060 C   0  0  0  0  0  0  0  0  0  0  0  0
   48.7880  160.5820   31.8390 C   0  0  0  0  0  0  0  0  0  0  0  0
   50.0990  160.5600   31.3750 C   0  0  0  0  0  0  0  0  0  0  0  0
   50.8670  161.6610   31.6380 O   0  0  0  0  0  0  0  0  0  0  0  0
   50.5740  159.4470   30.6760 C   0  0  0  0  0  0  0  0  0  0  0  0
   51.9470  159.3830   30.1700 C   0  0  0  0  0  0  0  0  0  0  0  0
   52.7440  160.3040   30.3300 O   0  0  0  0  0  0  0  0  0  0  0  0
   52.3540  158.1540   29.4480 C   0  0  0  0  0  0  0  0  0  0  0  0
   53.6490  158.1110   28.9650 O   0  0  0  0  0  0  0  0  0  0  0  0
   52.1810  155.8970   27.2500 C   0  0  0  0  0  0  0  0  0  0  0  0
   52.4790  154.6950   26.5770 C   0  0  0  0  0  0  0  0  0  0  0  0
   52.9220  154.7730   25.1300 C   0  0  0  0  0  0  0  0  0  0  0  0
   54.4410  154.9900   25.0140 C   0  0  0  0  0  0  0  0  0  0  0  0
   55.1330  153.9090   24.2820 N   0  0  0  0  0  0  0  0  0  0  0  0
   54.2300  153.1990   23.3740 C   0  0  0  0  0  0  0  0  0  0  0  0
   55.7190  152.9610   25.2340 C   0  0  0  0  0  0  0  0  0  0  0  0
   52.8040  151.3887   27.3755 H   0  0  0  0  0  0  0  0  0  0  0  0
   51.7769  151.8487   25.9755 H   0  0  0  0  0  0  0  0  0  0  0  0
   53.5276  152.2506   25.9755 H   0  0  0  0  0  0  0  0  0  0  0  0
   51.7947  152.5339   29.1388 H   0  0  0  0  0  0  0  0  0  0  0  0
   51.2858  154.6706   30.2958 H   0  0  0  0  0  0  0  0  0  0  0  0
   47.7597  157.5214   30.7212 H   0  0  0  0  0  0  0  0  0  0  0  0
   46.9105  159.5072   31.9740 H   0  0  0  0  0  0  0  0  0  0  0  0
   48.4135  161.4579   32.3891 H   0  0  0  0  0  0  0  0  0  0  0  0
   50.4690  162.5060   31.6960 H   0  0  0  0  0  0  0  0  0  0  0  0
   54.3270  157.7150   29.4750 H   0  0  0  0  0  0  0  0  0  0  0  0
   52.2995  156.8522   26.7174 H   0  0  0  0  0  0  0  0  0  0  0  0
   52.6559  153.8332   24.6240 H   0  0  0  0  0  0  0  0  0  0  0  0
   52.4151  155.6289   24.6605 H   0  0  0  0  0  0  0  0  0  0  0  0
   54.6186  155.9383   24.4856 H   0  0  0  0  0  0  0  0  0  0  0  0
   54.8468  155.0020   26.0363 H   0  0  0  0  0  0  0  0  0  0  0  0
   55.8680  154.3380   23.7180 H   0  0  0  0  0  0  0  0  0  0  0  0
   53.4983  152.6237   23.9602 H   0  0  0  0  0  0  0  0  0  0  0  0
   53.7015  153.9260   22.7398 H   0  0  0  0  0  0  0  0  0  0  0  0
   54.8118  152.5139   22.7398 H   0  0  0  0  0  0  0  0  0  0  0  0
   55.5114  153.2968   26.2607 H   0  0  0  0  0  0  0  0  0  0  0  0
   55.2787  151.9651   25.0779 H   0  0  0  0  0  0  0  0  0  0  0  0
   56.8067  152.9096   25.0779 H   0  0  0  0  0  0  0  0  0  0  0  0
  1  2  1  0
  2  3  2  0
  3  4  1  0
  4  5  2  0
  5  6  1  0
  6  7  1  0
  7  8  1  0
  8  9  2  0
  9 10  1  0
 10 11  2  0
 11 12  1  0
 12 13  1  0
 12 14  2  0
 14 15  1  0
 15 16  2  0
 15 17  1  0
 17 18  1  0
  5 19  1  0
 19 20  2  0
 20 21  1  0
 21 22  1  0
 22 23  1  0
 23 24  1  0
 23 25  1  0
 20  2  1  0
 17  6  2  0
 14  8  1  0
  1 26  1  0
  1 27  1  0
  1 28  1  0
  3 29  1  0
  4 30  1  0
  9 31  1  0
 10 32  1  0
 11 33  1  0
 13 34  1  0
 18 35  1  0
 19 36  1  0
 21 37  1  0
 21 38  1  0
 22 39  1  0
 22 40  1  0
 23 41  1  0
 24 42  1  0
 24 43  1  0
 24 44  1  0
 25 45  1  0
 25 46  1  0
 25 47  1  0
M  CHG  1  23   1
M  END
>  <meeko>  (1) 
{"is_sidechain": [false], "free_energy": -10.257, "intermolecular_energy": -13.255, "internal_energy": -0.428}

$$$$
cand_041_out
     RDKit          3D

 47 49  0  0  0  0  0  0  0  0999 V2000
   50.9840  160.3410   31.0520 C   0  0  0  0  0  0  0  0  0  0  0  0
   51.3040  159.0960   30.2710 C   0  0  0  0  0  0  0  0  0  0  0  0
   52.5610  158.9820   29.6580 C   0  0  0  0  0  0  0  0  0  0  0  0
   52.9040  157.8430   28.9270 C   0  0  0  0  0  0  0  0  0  0  0  0
   52.0000  156.7850   28.7850 C   0  0  0  0  0  0  0  0  0  0  0  0
   52.3900  155.5790   28.0250 C   0  0  0  0  0  0  0  0  0  0  0  0
   53.0040  155.8770   26.8140 O   0  0  0  0  0  0  0  0  0  0  0  0
   53.4160  154.8480   26.0070 C   0  0  0  0  0  0  0  0  0  0  0  0
   54.0410  155.1940   24.8080 C   0  0  0  0  0  0  0  0  0  0  0  0
   54.4840  154.1940   23.9390 C   0  0  0  0  0  0  0  0  0  0  0  0
   54.3000  152.8490   24.2690 C   0  0  0  0  0  0  0  0  0  0  0  0
   53.6770  152.5070   25.4650 C   0  0  0  0  0  0  0  0  0  0  0  0
   53.5290  151.1720   25.7260 O   0  0  0  0  0  0  0  0  0  0  0  0
   53.2350  153.5080   26.3350 C   0  0  0  0  0  0  0  0  0  0  0  0
   52.5740  153.1910   27.6020 C   0  0  0  0  0  0  0  0  0  0  0  0
   52.3710  152.0330   27.9590 O   0  0  0  0  0  0  0  0  0  0  0  0
   52.1510  154.3260   28.4560 C   0  0  0  0  0  0  0  0  0  0  0  0
   51.5170  154.0140   29.6450 O   0  0  0  0  0  0  0  0  0  0  0  0
   50.7520  156.8900   29.4140 C   0  0  0  0  0  0  0  0  0  0  0  0
   50.3890  158.0300   30.1570 C   0  0  0  0  0  0  0  0  0  0  0  0
   49.0070  158.0730   30.7780 C   0  0  0  0  0  0  0  0  0  0  0  0
   48.0610  158.9950   29.9890 C   0  0  0  0  0  0  0  0  0  0  0  0
   47.3790  159.9970   30.8340 N   0  0  0  0  0  0  0  0  0  0  0  0
   47.8980  161.3470   30.6060 C   0  0  0  0  0  0  0  0  0  0  0  0
   47.5360  159.6420   32.2480 C   0  0  0  0  0  0  0  0  0  0  0  0
   51.0400  160.1230   32.1287 H   0  0  0  0  0  0  0  0  0  0  0  0
   51.7088  161.1289   30.7992 H   0  0  0  0  0  0  0  0  0  0  0  0
   49.9691  160.6817   30.7992 H   0  0  0  0  0  0  0  0  0  0  0  0
   53.2872  159.8025   29.7548 H   0  0  0  0  0  0  0  0  0  0  0  0
   53.8965  157.7768   28.4573 H   0  0  0  0  0  0  0  0  0  0  0  0
   54.1846  156.2530   24.5476 H   0  0  0  0  0  0  0  0  0  0  0  0
   54.9779  154.4657   22.9944 H   0  0  0  0  0  0  0  0  0  0  0  0
   54.6473  152.0614   23.5841 H   0  0  0  0  0  0  0  0  0  0  0  0
   52.7510  150.7250   25.4560 H   0  0  0  0  0  0  0  0  0  0  0  0
   50.8140  153.3940   29.6530 H   0  0  0  0  0  0  0  0  0  0  0  0
   50.0364  156.0593   29.3249 H   0  0  0  0  0  0  0  0  0  0  0  0
   48.5882  157.0559   30.7881 H   0  0  0  0  0  0  0  0  0  0  0  0
   49.1008  158.4689   31.8000 H   0  0  0  0  0  0  0  0  0  0  0  0
   48.6480  159.5250   29.2244 H   0  0  0  0  0  0  0  0  0  0  0  0
   47.2809  158.3581   29.5465 H   0  0  0  0  0  0  0  0  0  0  0  0
   46.3910  159.9950   30.5800 H   0  0  0  0  0  0  0  0  0  0  0  0
   48.0859  161.8358   31.5733 H   0  0  0  0  0  0  0  0  0  0  0  0
   48.8373  161.2874   30.0367 H   0  0  0  0  0  0  0  0  0  0  0  0
   47.1607  161.9320   30.0367 H   0  0  0  0  0  0  0  0  0  0  0  0
   47.1708  160.4679   32.8761 H   0  0  0  0  0  0  0  0  0  0  0  0
   46.9561  158.7326   32.4643 H   0  0  0  0  0  0  0  0  0  0  0  0
   48.5989  159.4592   32.4643 H   0  0  0  0  0  0  0  0  0  0  0  0
  1  2  1  0
  2  3  2  0
  3  4  1  0
  4  5  2  0
  5  6  1  0
  6  7  1  0
  7  8  1  0
  8  9  2  0
  9 10  1  0
 10 11  2  0
 11 12  1  0
 12 13  1  0
 12 14  2  0
 14 15  1  0
 15 16  2  0
 15 17  1  0
 17 18  1  0
  5 19  1  0
 19 20  2  0
 20 21  1  0
 21 22  1  0
 22 23  1  0
 23 24  1  0
 23 25  1  0
 20  2  1  0
 17  6  2  0
 14  8  1  0
  1 26  1  0
  1 27  1  0
  1 28  1  0
  3 29  1  0
  4 30  1  0
  9 31  1  0
 10 32  1  0
 11 33  1  0
 13 34  1  0
 18 35  1  0
 19 36  1  0
 21 37  1  0
 21 38  1  0
 22 39  1  0
 22 40  1  0
 23 41  1  0
 24 42  1  0
 24 43  1  0
 24 44  1  0
 25 45  1  0
 25 46  1  0
 25 47  1  0
M  CHG  1  23   1
M  END
>  <meeko>  (2) 
{"is_sidechain": [false], "free_energy": -9.258, "intermolecular_energy": -12.452, "internal_energy": 0.059}

$$$$
cand_041_out
     RDKit          3D

 47 49  0  0  0  0  0  0  0  0999 V2000
   48.6520  158.5420   31.3950 C   0  0  0  0  0  0  0  0  0  0  0  0
   49.5760  157.7740   30.4910 C   0  0  0  0  0  0  0  0  0  0  0  0
   49.1930  156.4980   30.0520 C   0  0  0  0  0  0  0  0  0  0  0  0
   50.0170  155.7500   29.2080 C   0  0  0  0  0  0  0  0  0  0  0  0
   51.2490  156.2550   28.7800 C   0  0  0  0  0  0  0  0  0  0  0  0
   52.0970  155.4560   27.8690 C   0  0  0  0  0  0  0  0  0  0  0  0
   52.6990  156.2230   26.8780 O   0  0  0  0  0  0  0  0  0  0  0  0
   53.5130  155.6060   25.9640 C   0  0  0  0  0  0  0  0  0  0  0  0
   54.1080  156.4170   24.9960 C   0  0  0  0  0  0  0  0  0  0  0  0
   54.9480  155.8510   24.0340 C   0  0  0  0  0  0  0  0  0  0  0  0
   55.1910  154.4760   24.0390 C   0  0  0  0  0  0  0  0  0  0  0  0
   54.5960  153.6690   25.0050 C   0  0  0  0  0  0  0  0  0  0  0  0
   54.8760  152.3320   24.9510 O   0  0  0  0  0  0  0  0  0  0  0  0
   53.7560  154.2360   25.9680 C   0  0  0  0  0  0  0  0  0  0  0  0
   53.1110  153.4240   27.0010 C   0  0  0  0  0  0  0  0  0  0  0  0
   53.2700  152.2070   27.0670 O   0  0  0  0  0  0  0  0  0  0  0  0
   52.2460  154.1230   27.9800 C   0  0  0  0  0  0  0  0  0  0  0  0
   51.6310  153.3440   28.9430 O   0  0  0  0  0  0  0  0  0  0  0  0
   51.6230  157.5380   29.2010 C   0  0  0  0  0  0  0  0  0  0  0  0
   50.8040  158.3080   30.0510 C   0  0  0  0  0  0  0  0  0  0  0  0
   51.3010  159.6730   30.4830 C   0  0  0  0  0  0  0  0  0  0  0  0
   50.3070  160.7840   30.1010 C   0  0  0  0  0  0  0  0  0  0  0  0
   50.0370  161.7320   31.2010 N   0  0  0  0  0  0  0  0  0  0  0  0
   50.7310  161.3510   32.4330 C   0  0  0  0  0  0  0  0  0  0  0  0
   48.5940  161.8030   31.4510 C   0  0  0  0  0  0  0  0  0  0  0  0
   48.9062  158.3307   32.4442 H   0  0  0  0  0  0  0  0  0  0  0  0
   48.7610  159.6193   31.2011 H   0  0  0  0  0  0  0  0  0  0  0  0
   47.6128  158.2379   31.2011 H   0  0  0  0  0  0  0  0  0  0  0  0
   48.2289  156.0801   30.3774 H   0  0  0  0  0  0  0  0  0  0  0  0
   49.6933  154.7524   28.8762 H   0  0  0  0  0  0  0  0  0  0  0  0
   53.9157  157.5001   24.9908 H   0  0  0  0  0  0  0  0  0  0  0  0
   55.4186  156.4893   23.2716 H   0  0  0  0  0  0  0  0  0  0  0  0
   55.8518  154.0309   23.2806 H   0  0  0  0  0  0  0  0  0  0  0  0
   54.5490  151.8130   24.2440 H   0  0  0  0  0  0  0  0  0  0  0  0
   51.3190  152.4880   28.7250 H   0  0  0  0  0  0  0  0  0  0  0  0
   52.5815  157.9554   28.8589 H   0  0  0  0  0  0  0  0  0  0  0  0
   51.4363  159.6747   31.5746 H   0  0  0  0  0  0  0  0  0  0  0  0
   52.2532  159.8713   29.9692 H   0  0  0  0  0  0  0  0  0  0  0  0
   50.7212  161.3453   29.2505 H   0  0  0  0  0  0  0  0  0  0  0  0
   49.3535  160.2955   29.8514 H   0  0  0  0  0  0  0  0  0  0  0  0
   50.3870  162.6470   30.9150 H   0  0  0  0  0  0  0  0  0  0  0  0
   50.1400  161.6755   33.3021 H   0  0  0  0  0  0  0  0  0  0  0  0
   50.8549  160.2584   32.4611 H   0  0  0  0  0  0  0  0  0  0  0  0
   51.7194  161.8330   32.4611 H   0  0  0  0  0  0  0  0  0  0  0  0
   48.4098  161.8121   32.5354 H   0  0  0  0  0  0  0  0  0  0  0  0
   48.1890  162.7222   31.0026 H   0  0  0  0  0  0  0  0  0  0  0  0
   48.1007  160.9280   31.0026 H   0  0  0  0  0  0  0  0  0  0  0  0
  1  2  1  0
  2  3  2  0
  3  4  1  0
  4  5  2  0
  5  6  1  0
  6  7  1  0
  7  8  1  0
  8  9  2  0
  9 10  1  0
 10 11  2  0
 11 12  1  0
 12 13  1  0
 12 14  2  0
 14 15  1  0
 15 16  2  0
 15 17  1  0
 17 18  1  0
  5 19  1  0
 19 20  2  0
 20 21  1  0
 21 22  1  0
 22 23  1  0
 23 24  1  0
 23 25  1  0
 20  2  1  0
 17  6  2  0
 14  8  1  0
  1 26  1  0
  1 27  1  0
  1 28  1  0
  3 29  1  0
  4 30  1  0
  9 31  1  0
 10 32  1  0
 11 33  1  0
 13 34  1  0
 18 35  1  0
 19 36  1  0
 21 37  1  0
 21 38  1  0
 22 39  1  0
 22 40  1  0
 23 41  1  0
 24 42  1  0
 24 43  1  0
 24 44  1  0
 25 45  1  0
 25 46  1  0
 25 47  1  0
M  CHG  1  23   1
M  END
>  <meeko>  (3) 
{"is_sidechain": [false], "free_energy": -8.64, "intermolecular_energy": -12.143, "internal_energy": 0.55}

$$$$
cand_041_out
     RDKit          3D

 47 49  0  0  0  0  0  0  0  0999 V2000
   53.3930  152.8940   27.1640 C   0  0  0  0  0  0  0  0  0  0  0  0
   52.7160  154.0900   27.7740 C   0  0  0  0  0  0  0  0  0  0  0  0
   52.0220  153.9360   28.9830 C   0  0  0  0  0  0  0  0  0  0  0  0
   51.3820  155.0200   29.5890 C   0  0  0  0  0  0  0  0  0  0  0  0
   51.4160  156.2890   29.0030 C   0  0  0  0  0  0  0  0  0  0  0  0
   50.7500  157.4270   29.6710 C   0  0  0  0  0  0  0  0  0  0  0  0
   51.6340  158.4430   30.0180 O   0  0  0  0  0  0  0  0  0  0  0  0
   51.1470  159.5610   30.6470 C   0  0  0  0  0  0  0  0  0  0  0  0
   52.0670  160.5610   30.9620 C   0  0  0  0  0  0  0  0  0  0  0  0
   51.6380  161.7250   31.6040 C   0  0  0  0  0  0  0  0  0  0  0  0
   50.2900  161.8860   31.9310 C   0  0  0  0  0  0  0  0  0  0  0  0
   49.3740  160.8870   31.6150 C   0  0  0  0  0  0  0  0  0  0  0  0
   48.0710  161.1100   31.9640 O   0  0  0  0  0  0  0  0  0  0  0  0
   49.8040  159.7230   30.9720 C   0  0  0  0  0  0  0  0  0  0  0  0
   48.8750  158.6480   30.6220 C   0  0  0  0  0  0  0  0  0  0  0  0
   47.6750  158.7130   30.8820 O   0  0  0  0  0  0  0  0  0  0  0  0
   49.4300  157.4590   29.9340 C   0  0  0  0  0  0  0  0  0  0  0  0
   48.5450  156.4440   29.6200 O   0  0  0  0  0  0  0  0  0  0  0  0
   52.1270  156.4480   27.8050 C   0  0  0  0  0  0  0  0  0  0  0  0
   52.7800  155.3670   27.1810 C   0  0  0  0  0  0  0  0  0  0  0  0
   53.4990  155.6230   25.8720 C   0  0  0  0  0  0  0  0  0  0  0  0
   52.9950  154.6890   24.7570 C   0  0  0  0  0  0  0  0  0  0  0  0
   54.0730  154.1820   23.8850 N   0  0  0  0  0  0  0  0  0  0  0  0
   54.0220  152.7250   23.7440 C   0  0  0  0  0  0  0  0  0  0  0  0
   55.3770  154.5770   24.4270 C   0  0  0  0  0  0  0  0  0  0  0  0
   53.7654  152.2362   27.9632 H   0  0  0  0  0  0  0  0  0  0  0  0
   52.6729  152.3430   26.5413 H   0  0  0  0  0  0  0  0  0  0  0  0
   54.2361  153.2279   26.5413 H   0  0  0  0  0  0  0  0  0  0  0  0
   51.9810  152.9464   29.4615 H   0  0  0  0  0  0  0  0  0  0  0  0
   50.8453  154.8735   30.5379 H   0  0  0  0  0  0  0  0  0  0  0  0
   53.1289  160.4331   30.7052 H   0  0  0  0  0  0  0  0  0  0  0  0
   52.3622  162.5150   31.8520 H   0  0  0  0  0  0  0  0  0  0  0  0
   49.9523  162.8019   32.4381 H   0  0  0  0  0  0  0  0  0  0  0  0
   47.5850  160.4450   32.4100 H   0  0  0  0  0  0  0  0  0  0  0  0
   48.7490  155.8390   28.9350 H   0  0  0  0  0  0  0  0  0  0  0  0
   52.1762  157.4436   27.3399 H   0  0  0  0  0  0  0  0  0  0  0  0
   53.3275  156.6663   25.5685 H   0  0  0  0  0  0  0  0  0  0  0  0
   54.5711  155.4296   26.0246 H   0  0  0  0  0  0  0  0  0  0  0  0
   52.4906  153.8298   25.2233 H   0  0  0  0  0  0  0  0  0  0  0  0
   52.3145  155.2771   24.1237 H   0  0  0  0  0  0  0  0  0  0  0  0
   53.9410  154.5900   22.9590 H   0  0  0  0  0  0  0  0  0  0  0  0
   54.0057  152.2605   24.7410 H   0  0  0  0  0  0  0  0  0  0  0  0
   53.1134  152.4416   23.1926 H   0  0  0  0  0  0  0  0  0  0  0  0
   54.9086  152.3787   23.1926 H   0  0  0  0  0  0  0  0  0  0  0  0
   55.3362  154.5646   25.5262 H   0  0  0  0  0  0  0  0  0  0  0  0
   56.1469  153.8718   24.0807 H   0  0  0  0  0  0  0  0  0  0  0  0
   55.6261  155.5909   24.0807 H   0  0  0  0  0  0  0  0  0  0  0  0
  1  2  1  0
  2  3  2  0
  3  4  1  0
  4  5  2  0
  5  6  1  0
  6  7  1  0
  7  8  1  0
  8  9  2  0
  9 10  1  0
 10 11  2  0
 11 12  1  0
 12 13  1  0
 12 14  2  0
 14 15  1  0
 15 16  2  0
 15 17  1  0
 17 18  1  0
  5 19  1  0
 19 20  2  0
 20 21  1  0
 21 22  1  0
 22 23  1  0
 23 24  1  0
 23 25  1  0
 20  2  1  0
 17  6  2  0
 14  8  1  0
  1 26  1  0
  1 27  1  0
  1 28  1  0
  3 29  1  0
  4 30  1  0
  9 31  1  0
 10 32  1  0
 11 33  1  0
 13 34  1  0
 18 35  1  0
 19 36  1  0
 21 37  1  0
 21 38  1  0
 22 39  1  0
 22 40  1  0
 23 41  1  0
 24 42  1  0
 24 43  1  0
 24 44  1  0
 25 45  1  0
 25 46  1  0
 25 47  1  0
M  CHG  1  23   1
M  END
>  <meeko>  (4) 
{"is_sidechain": [false], "free_energy": -8.229, "intermolecular_energy": -11.224, "internal_energy": 0.161}

$$$$
