cand_036_out
     RDKit          3D

 35 37  0  0  0  0  0  0  0  0999 V2000
   50.0100  161.2010   31.6910 C   0  0  0  0  0  0  0  0  0  0  0  0
   50.4750  159.9880   30.9330 C   0  0  0  0  0  0  0  0  0  0  0  0
   51.7820  159.9520   30.4290 C   0  0  0  0  0  0  0  0  0  0  0  0
   52.2470  158.8410   29.7200 C   0  0  0  0  0  0  0  0  0  0  0  0
   51.4160  157.7400   29.4910 C   0  0  0  0  0  0  0  0  0  0  0  0
   51.8920  156.5420   28.7670 C   0  0  0  0  0  0  0  0  0  0  0  0
   52.4850  156.8490   27.5480 O   0  0  0  0  0  0  0  0  0  0  0  0
   52.9730  155.8280   26.7720 C   0  0  0  0  0  0  0  0  0  0  0  0
   53.5460  156.1800   25.5490 C   0  0  0  0  0  0  0  0  0  0  0  0
   54.0640  155.1890   24.7120 C   0  0  0  0  0  0  0  0  0  0  0  0
   54.0080  153.8480   25.0970 C   0  0  0  0  0  0  0  0  0  0  0  0
   53.4350  153.5000   26.3180 C   0  0  0  0  0  0  0  0  0  0  0  0
   53.4130  152.1690   26.6320 O   0  0  0  0  0  0  0  0  0  0  0  0
   52.9170  154.4920   27.1550 C   0  0  0  0  0  0  0  0  0  0  0  0
   52.3060  154.1690   28.4450 C   0  0  0  0  0  0  0  0  0  0  0  0
   52.2260  153.0130   28.8560 O   0  0  0  0  0  0  0  0  0  0  0  0
   51.7800  155.2930   29.2540 C   0  0  0  0  0  0  0  0  0  0  0  0
   51.2170  154.9780   30.4770 O   0  0  0  0  0  0  0  0  0  0  0  0
   50.1100  157.7740   30.0050 C   0  0  0  0  0  0  0  0  0  0  0  0
   49.6270  158.8830   30.7220 C   0  0  0  0  0  0  0  0  0  0  0  0
   48.2160  158.8670   31.2420 C   0  0  0  0  0  0  0  0  0  0  0  0
   50.0837  161.0087   32.7715 H   0  0  0  0  0  0  0  0  0  0  0  0
   50.6417  162.0622   31.4279 H   0  0  0  0  0  0  0  0  0  0  0  0
   48.9645  161.4192   31.4279 H   0  0  0  0  0  0  0  0  0  0  0  0
   52.4509  160.8096   30.5936 H   0  0  0  0  0  0  0  0  0  0  0  0
   53.2784  158.8326   29.3378 H   0  0  0  0  0  0  0  0  0  0  0  0
   53.5896  157.2362   25.2448 H   0  0  0  0  0  0  0  0  0  0  0  0
   54.5166  155.4653   23.7483 H   0  0  0  0  0  0  0  0  0  0  0  0
   54.4156  153.0678   24.4373 H   0  0  0  0  0  0  0  0  0  0  0  0
   53.7370  151.8780   27.4620 H   0  0  0  0  0  0  0  0  0  0  0  0
   50.5530  155.5280   30.8430 H   0  0  0  0  0  0  0  0  0  0  0  0
   49.4476  156.9110   29.8427 H   0  0  0  0  0  0  0  0  0  0  0  0
   48.2306  158.8672   32.3419 H   0  0  0  0  0  0  0  0  0  0  0  0
   47.6825  159.7592   30.8822 H   0  0  0  0  0  0  0  0  0  0  0  0
   47.7029  157.9630   30.8822 H   0  0  0  0  0  0  0  0  0  0  0  0
  1  2  1  0
  2  3  2  0
  3  4  1  0
  4  5  2  0
  5  6  1  0
  6  7  1  0
  7  8  1  0
  8  9  2  0
  9 10  1  0
 10 11  2  0
 11 12  1  0
 12 13  1  0
 12 14  2  0
 14 15  1  0
 15 16  2  0
 15 17  1  0
 17 18  1  0
  5 19  1  0
 19 20  2  0
 20 21  1  0
 20  2  1  0
 17  6  2  0
 14  8  1  0
  1 22  1  0
  1 23  1  0
  1 24  1  0
  3 25  1  0
  4 26  1  0
  9 27  1  0
 10 28  1  0
 11 29  1  0
 13 30  1  0
 18 31  1  0
 19 32  1  0
 21 33  1  0
 21 34  1  0
 21 35  1  0
M  END
>  <meeko>  (1) 
{"is_sidechain": [false], "free_energy": -11.395, "intermolecular_energy": -12.727, "internal_energy": -0.042}

$$$$
cand_036_out
     RDKit          3D

 35 37  0  0  0  0  0  0  0  0999 V2000
   49.0370  160.6870   31.6510 C   0  0  0  0  0  0  0  0  0  0  0  0
   49.7380  159.5760   30.9210 C   0  0  0  0  0  0  0  0  0  0  0  0
   49.0630  158.3690   30.6930 C   0  0  0  0  0  0  0  0  0  0  0  0
   49.6840  157.3150   30.0180 C   0  0  0  0  0  0  0  0  0  0  0  0
   51.0000  157.4360   29.5600 C   0  0  0  0  0  0  0  0  0  0  0  0
   51.6700  156.3460   28.8200 C   0  0  0  0  0  0  0  0  0  0  0  0
   52.2390  156.7740   27.6270 O   0  0  0  0  0  0  0  0  0  0  0  0
   52.8940  155.8630   26.8390 C   0  0  0  0  0  0  0  0  0  0  0  0
   53.4360  156.3330   25.6420 C   0  0  0  0  0  0  0  0  0  0  0  0
   54.1190  155.4570   24.7940 C   0  0  0  0  0  0  0  0  0  0  0  0
   54.2590  154.1120   25.1440 C   0  0  0  0  0  0  0  0  0  0  0  0
   53.7170  153.6450   26.3390 C   0  0  0  0  0  0  0  0  0  0  0  0
   53.8900  152.3180   26.6200 O   0  0  0  0  0  0  0  0  0  0  0  0
   53.0330  154.5220   27.1860 C   0  0  0  0  0  0  0  0  0  0  0  0
   52.4480  154.0730   28.4510 C   0  0  0  0  0  0  0  0  0  0  0  0
   52.5350  152.9070   28.8300 O   0  0  0  0  0  0  0  0  0  0  0  0
   51.7380  155.0800   29.2720 C   0  0  0  0  0  0  0  0  0  0  0  0
   51.2010  154.6480   30.4700 O   0  0  0  0  0  0  0  0  0  0  0  0
   51.6710  158.6490   29.7810 C   0  0  0  0  0  0  0  0  0  0  0  0
   51.0600  159.7200   30.4560 C   0  0  0  0  0  0  0  0  0  0  0  0
   51.8320  160.9920   30.6710 C   0  0  0  0  0  0  0  0  0  0  0  0
   49.1348  160.5320   32.7356 H   0  0  0  0  0  0  0  0  0  0  0  0
   49.4911  161.6503   31.3758 H   0  0  0  0  0  0  0  0  0  0  0  0
   47.9720  160.6918   31.3758 H   0  0  0  0  0  0  0  0  0  0  0  0
   48.0296  158.2498   31.0506 H   0  0  0  0  0  0  0  0  0  0  0  0
   49.1317  156.3796   29.8448 H   0  0  0  0  0  0  0  0  0  0  0  0
   53.3257  157.3921   25.3662 H   0  0  0  0  0  0  0  0  0  0  0  0
   54.5466  155.8269   23.8504 H   0  0  0  0  0  0  0  0  0  0  0  0
   54.7967  153.4224   24.4766 H   0  0  0  0  0  0  0  0  0  0  0  0
   54.0380  151.7070   25.9240 H   0  0  0  0  0  0  0  0  0  0  0  0
   51.0720  153.7320   30.6230 H   0  0  0  0  0  0  0  0  0  0  0  0
   52.7023  158.7645   29.4163 H   0  0  0  0  0  0  0  0  0  0  0  0
   51.9433  161.1754   31.7499 H   0  0  0  0  0  0  0  0  0  0  0  0
   52.8266  160.8996   30.2102 H   0  0  0  0  0  0  0  0  0  0  0  0
   51.2910  161.8316   30.2102 H   0  0  0  0  0  0  0  0  0  0  0  0
  1  2  1  0
  2  3  2  0
  3  4  1  0
  4  5  2  0
  5  6  1  0
  6  7  1  0
  7  8  1  0
  8  9  2  0
  9 10  1  0
 10 11  2  0
 11 12  1  0
 12 13  1  0
 12 14  2  0
 14 15  1  0
 15 16  2  0
 15 17  1  0
 17 18  1  0
  5 19  1  0
 19 20  2  0
 20 21  1  0
 20  2  1  0
 17  6  2  0
 14  8  1  0
  1 22  1  0
  1 23  1  0
  1 24  1  0
  3 25  1  0
  4 26  1  0
  9 27  1  0
 10 28  1  0
 11 29  1  0
 13 30  1  0
 18 31  1  0
 19 32  1  0
 21 33  1  0
 21 34  1  0
 21 35  1  0
M  END
>  <meeko>  (2) 
{"is_sidechain": [false], "free_energy": -11.113, "intermolecular_energy": -12.356, "internal_energy": -0.098}

$$$$
cand_036_out
     RDKit          3D

 35 37  0  0  0  0  0  0  0  0999 V2000
   52.6590  153.4930   26.9540 C   0  0  0  0  0  0  0  0  0  0  0  0
   52.2560  154.7320   27.7060 C   0  0  0  0  0  0  0  0  0  0  0  0
   51.4750  154.6090   28.8640 C   0  0  0  0  0  0  0  0  0  0  0  0
   51.0820  155.7380   29.5870 C   0  0  0  0  0  0  0  0  0  0  0  0
   51.4520  157.0200   29.1680 C   0  0  0  0  0  0  0  0  0  0  0  0
   51.0720  158.2280   29.9300 C   0  0  0  0  0  0  0  0  0  0  0  0
   49.7620  158.1840   30.3920 O   0  0  0  0  0  0  0  0  0  0  0  0
   49.2770  159.2440   31.1160 C   0  0  0  0  0  0  0  0  0  0  0  0
   47.9520  159.1640   31.5470 C   0  0  0  0  0  0  0  0  0  0  0  0
   47.3980  160.2090   32.2910 C   0  0  0  0  0  0  0  0  0  0  0  0
   48.1680  161.3310   32.6040 C   0  0  0  0  0  0  0  0  0  0  0  0
   49.4900  161.4070   32.1720 C   0  0  0  0  0  0  0  0  0  0  0  0
   50.1870  162.5340   32.5130 O   0  0  0  0  0  0  0  0  0  0  0  0
   50.0440  160.3630   31.4270 C   0  0  0  0  0  0  0  0  0  0  0  0
   51.4290  160.4030   30.9540 C   0  0  0  0  0  0  0  0  0  0  0  0
   52.1700  161.3540   31.1940 O   0  0  0  0  0  0  0  0  0  0  0  0
   51.9170  159.2480   30.1660 C   0  0  0  0  0  0  0  0  0  0  0  0
   53.2300  159.2920   29.7360 O   0  0  0  0  0  0  0  0  0  0  0  0
   52.2420  157.1400   28.0140 C   0  0  0  0  0  0  0  0  0  0  0  0
   52.6480  156.0140   27.2760 C   0  0  0  0  0  0  0  0  0  0  0  0
   53.4860  156.2050   26.0420 C   0  0  0  0  0  0  0  0  0  0  0  0
   52.9176  152.6980   27.6689 H   0  0  0  0  0  0  0  0  0  0  0  0
   51.8229  153.1597   26.3216 H   0  0  0  0  0  0  0  0  0  0  0  0
   53.5312  153.7153   26.3216 H   0  0  0  0  0  0  0  0  0  0  0  0
   51.1676  153.6103   29.2078 H   0  0  0  0  0  0  0  0  0  0  0  0
   50.4747  155.6172   30.4961 H   0  0  0  0  0  0  0  0  0  0  0  0
   47.3450  158.2801   31.3015 H   0  0  0  0  0  0  0  0  0  0  0  0
   46.3536  160.1477   32.6307 H   0  0  0  0  0  0  0  0  0  0  0  0
   47.7316  162.1530   33.1904 H   0  0  0  0  0  0  0  0  0  0  0  0
   50.3170  163.2140   31.8810 H   0  0  0  0  0  0  0  0  0  0  0  0
   53.6130  158.5420   29.3240 H   0  0  0  0  0  0  0  0  0  0  0  0
   52.5515  158.1407   27.6783 H   0  0  0  0  0  0  0  0  0  0  0  0
   54.5201  156.4407   26.3339 H   0  0  0  0  0  0  0  0  0  0  0  0
   53.4750  155.2813   25.4448 H   0  0  0  0  0  0  0  0  0  0  0  0
   53.0759  157.0327   25.4448 H   0  0  0  0  0  0  0  0  0  0  0  0
  1  2  1  0
  2  3  2  0
  3  4  1  0
  4  5  2  0
  5  6  1  0
  6  7  1  0
  7  8  1  0
  8  9  2  0
  9 10  1  0
 10 11  2  0
 11 12  1  0
 12 13  1  0
 12 14  2  0
 14 15  1  0
 15 16  2  0
 15 17  1  0
 17 18  1  0
  5 19  1  0
 19 20  2  0
 20 21  1  0
 20  2  1  0
 17  6  2  0
 14  8  1  0
  1 22  1  0
  1 23  1  0
  1 24  1  0
  3 25  1  0
  4 26  1  0
  9 27  1  0
 10 28  1  0
 11 29  1  0
 13 30  1  0
 18 31  1  0
 19 32  1  0
 21 33  1  0
 21 34  1  0
 21 35  1  0
M  END
>  <meeko>  (3) 
{"is_sidechain": [false], "free_energy": -10.612, "intermolecular_energy": -11.969, "internal_energy": 0.074}

$$$$
cand_036_out
     RDKit          3D

 35 37  0  0  0  0  0  0  0  0999 V2000
   53.2440  153.8500   26.5650 C   0  0  0  0  0  0  0  0  0  0  0  0
   52.7310  154.9860   27.4080 C   0  0  0  0  0  0  0  0  0  0  0  0
   52.9580  156.3050   26.9940 C   0  0  0  0  0  0  0  0  0  0  0  0
   52.4970  157.3840   27.7510 C   0  0  0  0  0  0  0  0  0  0  0  0
   51.8030  157.1740   28.9470 C   0  0  0  0  0  0  0  0  0  0  0  0
   51.2810  158.2980   29.7530 C   0  0  0  0  0  0  0  0  0  0  0  0
   49.9460  158.1350   30.1050 O   0  0  0  0  0  0  0  0  0  0  0  0
   49.3340  159.1070   30.8550 C   0  0  0  0  0  0  0  0  0  0  0  0
   47.9900  158.9100   31.1720 C   0  0  0  0  0  0  0  0  0  0  0  0
   47.3080  159.8610   31.9350 C   0  0  0  0  0  0  0  0  0  0  0  0
   47.9700  161.0060   32.3810 C   0  0  0  0  0  0  0  0  0  0  0  0
   49.3120  161.2000   32.0630 C   0  0  0  0  0  0  0  0  0  0  0  0
   49.8990  162.3440   32.5310 O   0  0  0  0  0  0  0  0  0  0  0  0
   49.9940  160.2490   31.2990 C   0  0  0  0  0  0  0  0  0  0  0  0
   51.4040  160.4140   30.9420 C   0  0  0  0  0  0  0  0  0  0  0  0
   52.0560  161.3920   31.3020 O   0  0  0  0  0  0  0  0  0  0  0  0
   52.0310  159.3520   30.1210 C   0  0  0  0  0  0  0  0  0  0  0  0
   53.3670  159.5120   29.8020 O   0  0  0  0  0  0  0  0  0  0  0  0
   51.5680  155.8510   29.3550 C   0  0  0  0  0  0  0  0  0  0  0  0
   52.0240  154.7540   28.6030 C   0  0  0  0  0  0  0  0  0  0  0  0
   51.7500  153.3600   29.0950 C   0  0  0  0  0  0  0  0  0  0  0  0
   53.6081  153.0437   27.2187 H   0  0  0  0  0  0  0  0  0  0  0  0
   52.4309  153.4683   25.9301 H   0  0  0  0  0  0  0  0  0  0  0  0
   54.0680  154.2076   25.9301 H   0  0  0  0  0  0  0  0  0  0  0  0
   53.5070  156.4933   26.0596 H   0  0  0  0  0  0  0  0  0  0  0  0
   52.6818  158.4109   27.4027 H   0  0  0  0  0  0  0  0  0  0  0  0
   47.4680  158.0073   30.8218 H   0  0  0  0  0  0  0  0  0  0  0  0
   46.2478  159.7072   32.1846 H   0  0  0  0  0  0  0  0  0  0  0  0
   47.4327  161.7539   32.9826 H   0  0  0  0  0  0  0  0  0  0  0  0
   50.2690  162.9610   31.9300 H   0  0  0  0  0  0  0  0  0  0  0  0
   53.8340  160.2660   30.1060 H   0  0  0  0  0  0  0  0  0  0  0  0
   51.0129  155.6682   30.2869 H   0  0  0  0  0  0  0  0  0  0  0  0
   51.7486  153.3530   30.1950 H   0  0  0  0  0  0  0  0  0  0  0  0
   50.7692  153.0267   28.7250 H   0  0  0  0  0  0  0  0  0  0  0  0
   52.5317  152.6803   28.7250 H   0  0  0  0  0  0  0  0  0  0  0  0
  1  2  1  0
  2  3  2  0
  3  4  1  0
  4  5  2  0
  5  6  1  0
  6  7  1  0
  7  8  1  0
  8  9  2  0
  9 10  1  0
 10 11  2  0
 11 12  1  0
 12 13  1  0
 12 14  2  0
 14 15  1  0
 15 16  2  0
 15 17  1  0
 17 18  1  0
  5 19  1  0
 19 20  2  0
 20 21  1  0
 20  2  1  0
 17  6  2  0
 14  8  1  0
  1 22  1  0
  1 23  1  0
  1 24  1  0
  3 25  1  0
  4 26  1  0
  9 27  1  0
 10 28  1  0
 11 29  1  0
 13 30  1  0
 18 31  1  0
 19 32  1  0
 21 33  1  0
 21 34  1  0
 21 35  1  0
M  END
>  <meeko>  (4) 
{"is_sidechain": [false], "free_energy": -10.071, "intermolecular_energy": -11.209, "internal_energy": -0.081}

$$$$
cand_036_out
     RDKit          3D

 35 37  0  0  0  0  0  0  0  0999 V2000
   53.5720  153.2870   26.6590 C   0  0  0  0  0  0  0  0  0  0  0  0
   52.8680  154.3850   27.4090 C   0  0  0  0  0  0  0  0  0  0  0  0
   52.1480  154.0720   28.5700 C   0  0  0  0  0  0  0  0  0  0  0  0
   51.4820  155.0660   29.2900 C   0  0  0  0  0  0  0  0  0  0  0  0
   51.5110  156.3980   28.8660 C   0  0  0  0  0  0  0  0  0  0  0  0
   50.8360  157.4730   29.6260 C   0  0  0  0  0  0  0  0  0  0  0  0
   51.6790  158.5390   29.9160 O   0  0  0  0  0  0  0  0  0  0  0  0
   51.1820  159.6070   30.6180 C   0  0  0  0  0  0  0  0  0  0  0  0
   52.0670  160.6480   30.9010 C   0  0  0  0  0  0  0  0  0  0  0  0
   51.6230  161.7660   31.6100 C   0  0  0  0  0  0  0  0  0  0  0  0
   50.2960  161.8430   32.0370 C   0  0  0  0  0  0  0  0  0  0  0  0
   49.4150  160.8030   31.7530 C   0  0  0  0  0  0  0  0  0  0  0  0
   48.1290  160.9420   32.2000 O   0  0  0  0  0  0  0  0  0  0  0  0
   49.8590  159.6830   31.0440 C   0  0  0  0  0  0  0  0  0  0  0  0
   48.9660  158.5680   30.7250 C   0  0  0  0  0  0  0  0  0  0  0  0
   47.7840  158.5650   31.0610 O   0  0  0  0  0  0  0  0  0  0  0  0
   49.5380  157.4250   29.9760 C   0  0  0  0  0  0  0  0  0  0  0  0
   48.6820  156.3840   29.6690 O   0  0  0  0  0  0  0  0  0  0  0  0
   52.2400  156.7110   27.7080 C   0  0  0  0  0  0  0  0  0  0  0  0
   52.9180  155.7230   26.9730 C   0  0  0  0  0  0  0  0  0  0  0  0
   53.6760  156.1170   25.7350 C   0  0  0  0  0  0  0  0  0  0  0  0
   54.0226  152.5842   27.3753 H   0  0  0  0  0  0  0  0  0  0  0  0
   52.8480  152.7522   26.0267 H   0  0  0  0  0  0  0  0  0  0  0  0
   54.3601  153.7218   26.0267 H   0  0  0  0  0  0  0  0  0  0  0  0
   52.1070  153.0295   28.9187 H   0  0  0  0  0  0  0  0  0  0  0  0
   50.9279  154.7978   30.2016 H   0  0  0  0  0  0  0  0  0  0  0  0
   53.1130  160.5880   30.5660 H   0  0  0  0  0  0  0  0  0  0  0  0
   52.3199  162.5875   31.8325 H   0  0  0  0  0  0  0  0  0  0  0  0
   49.9473  162.7235   32.5966 H   0  0  0  0  0  0  0  0  0  0  0  0
   47.9650  161.3110   33.0460 H   0  0  0  0  0  0  0  0  0  0  0  0
   49.0290  155.5560   29.4020 H   0  0  0  0  0  0  0  0  0  0  0  0
   52.2818  157.7560   27.3670 H   0  0  0  0  0  0  0  0  0  0  0  0
   54.6182  156.6067   26.0222 H   0  0  0  0  0  0  0  0  0  0  0  0
   53.8963  155.2193   25.1387 H   0  0  0  0  0  0  0  0  0  0  0  0
   53.0679  156.8131   25.1387 H   0  0  0  0  0  0  0  0  0  0  0  0
  1  2  1  0
  2  3  2  0
  3  4  1  0
  4  5  2  0
  5  6  1  0
  6  7  1  0
  7  8  1  0
  8  9  2  0
  9 10  1  0
 10 11  2  0
 11 12  1  0
 12 13  1  0
 12 14  2  0
 14 15  1  0
 15 16  2  0
 15 17  1  0
 17 18  1  0
  5 19  1  0
 19 20  2  0
 20 21  1  0
 20  2  1  0
 17  6  2  0
 14  8  1  0
  1 22  1  0
  1 23  1  0
  1 24  1  0
  3 25  1  0
  4 26  1  0
  9 27  1  0
 10 28  1  0
 11 29  1  0
 13 30  1  0
 18 31  1  0
 19 32  1  0
 21 33  1  0
 21 34  1  0
 21 35  1  0
M  END
>  <meeko>  (5) 
{"is_sidechain": [false], "free_energy": -8.68, "intermolecular_energy": -9.626, "internal_energy": -0.11}

$$$$
