cand_027_out
     RDKit          3D

 44 46  0  0  0  0  0  0  0  0999 V2000
   52.7250  152.4220   27.0190 C   0  0  0  0  0  0  0  0  0  0  0  0
   52.4100  153.7850   27.5750 C   0  0  0  0  0  0  0  0  0  0  0  0
   51.7550  153.7890   28.8260 C   0  0  0  0  0  0  0  0  0  0  0  0
   51.4030  154.9720   29.4690 C   0  0  0  0  0  0  0  0  0  0  0  0
   51.7010  156.1960   28.8840 C   0  0  0  0  0  0  0  0  0  0  0  0
   51.3310  157.4750   29.5250 C   0  0  0  0  0  0  0  0  0  0  0  0
   49.9980  157.5160   29.9210 O   0  0  0  0  0  0  0  0  0  0  0  0
   49.5200  158.6480   30.5290 C   0  0  0  0  0  0  0  0  0  0  0  0
   48.1810  158.6400   30.9200 C   0  0  0  0  0  0  0  0  0  0  0  0
   47.6300  159.7620   31.5430 C   0  0  0  0  0  0  0  0  0  0  0  0
   48.4190  160.8920   31.7740 C   0  0  0  0  0  0  0  0  0  0  0  0
   49.7540  160.8970   31.3820 C   0  0  0  0  0  0  0  0  0  0  0  0
   50.4680  162.0360   31.6380 O   0  0  0  0  0  0  0  0  0  0  0  0
   50.3050  159.7740   30.7590 C   0  0  0  0  0  0  0  0  0  0  0  0
   51.7040  159.7380   30.3320 C   0  0  0  0  0  0  0  0  0  0  0  0
   52.4590  160.6940   30.4950 O   0  0  0  0  0  0  0  0  0  0  0  0
   52.1920  158.4970   29.6860 C   0  0  0  0  0  0  0  0  0  0  0  0
   53.5110  158.4790   29.2740 O   0  0  0  0  0  0  0  0  0  0  0  0
   52.3320  156.1970   27.6260 C   0  0  0  0  0  0  0  0  0  0  0  0
   52.6900  155.0150   26.9240 C   0  0  0  0  0  0  0  0  0  0  0  0
   53.3850  155.1450   25.5410 C   0  0  0  0  0  0  0  0  0  0  0  0
   53.9720  156.5530   25.2890 C   0  0  0  0  0  0  0  0  0  0  0  0
   52.3720  154.7910   24.4320 C   0  0  0  0  0  0  0  0  0  0  0  0
   54.5890  154.1760   25.3610 C   0  0  0  0  0  0  0  0  0  0  0  0
   52.8880  151.7168   27.8473 H   0  0  0  0  0  0  0  0  0  0  0  0
   51.8835  152.0744   26.4017 H   0  0  0  0  0  0  0  0  0  0  0  0
   53.6337  152.4788   26.4017 H   0  0  0  0  0  0  0  0  0  0  0  0
   51.5159  152.8288   29.3064 H   0  0  0  0  0  0  0  0  0  0  0  0
   50.8887  154.9377   30.4407 H   0  0  0  0  0  0  0  0  0  0  0  0
   47.5596  157.7508   30.7378 H   0  0  0  0  0  0  0  0  0  0  0  0
   46.5743  159.7562   31.8520 H   0  0  0  0  0  0  0  0  0  0  0  0
   47.9855  161.7758   32.2648 H   0  0  0  0  0  0  0  0  0  0  0  0
   50.2350  162.8390   31.2160 H   0  0  0  0  0  0  0  0  0  0  0  0
   53.7470  158.0400   28.4800 H   0  0  0  0  0  0  0  0  0  0  0  0
   52.5607  157.1670   27.1604 H   0  0  0  0  0  0  0  0  0  0  0  0
   54.1763  157.0429   26.2525 H   0  0  0  0  0  0  0  0  0  0  0  0
   54.9077  156.4633   24.7176 H   0  0  0  0  0  0  0  0  0  0  0  0
   53.2497  157.1545   24.7176 H   0  0  0  0  0  0  0  0  0  0  0  0
   51.4277  154.4610   24.8897 H   0  0  0  0  0  0  0  0  0  0  0  0
   52.1868  155.6777   23.8079 H   0  0  0  0  0  0  0  0  0  0  0  0
   52.7794  153.9820   23.8079 H   0  0  0  0  0  0  0  0  0  0  0  0
   54.9662  153.8724   26.3487 H   0  0  0  0  0  0  0  0  0  0  0  0
   54.2629  153.2856   24.8035 H   0  0  0  0  0  0  0  0  0  0  0  0
   55.3891  154.6849   24.8035 H   0  0  0  0  0  0  0  0  0  0  0  0
  1  2  1  0
  2  3  2  0
  3  4  1  0
  4  5  2  0
  5  6  1  0
  6  7  1  0
  7  8  1  0
  8  9  2  0
  9 10  1  0
 10 11  2  0
 11 12  1  0
 12 13  1  0
 12 14  2  0
 14 15  1  0
 15 16  2  0
 15 17  1  0
 17 18  1  0
  5 19  1  0
 19 20  2  0
 20 21  1  0
 21 22  1  0
 21 23  1  0
 21 24  1  0
 20  2  1  0
 17  6  2  0
 14  8  1  0
  1 25  1  0
  1 26  1  0
  1 27  1  0
  3 28  1  0
  4 29  1  0
  9 30  1  0
 10 31  1  0
 11 32  1  0
 13 33  1  0
 18 34  1  0
 19 35  1  0
 22 36  1  0
 22 37  1  0
 22 38  1  0
 23 39  1  0
 23 40  1  0
 23 41  1  0
 24 42  1  0
 24 43  1  0
 24 44  1  0
M  END
>  <meeko>  (1) 
{"is_sidechain": [false], "free_energy": -10.631, "intermolecular_energy": -12.495, "internal_energy": 0.096}

$$$$
cand_027_out
     RDKit          3D

 44 46  0  0  0  0  0  0  0  0999 V2000
   50.8690  161.3810   31.4560 C   0  0  0  0  0  0  0  0  0  0  0  0
   51.0860  160.0780   30.7340 C   0  0  0  0  0  0  0  0  0  0  0  0
   52.4170  159.8250   30.3340 C   0  0  0  0  0  0  0  0  0  0  0  0
   52.7750  158.6600   29.6610 C   0  0  0  0  0  0  0  0  0  0  0  0
   51.8110  157.7030   29.3690 C   0  0  0  0  0  0  0  0  0  0  0  0
   52.1460  156.4590   28.6420 C   0  0  0  0  0  0  0  0  0  0  0  0
   52.6590  156.6980   27.3720 O   0  0  0  0  0  0  0  0  0  0  0  0
   53.0090  155.6300   26.5870 C   0  0  0  0  0  0  0  0  0  0  0  0
   53.5310  155.9160   25.3240 C   0  0  0  0  0  0  0  0  0  0  0  0
   53.9070  154.8740   24.4730 C   0  0  0  0  0  0  0  0  0  0  0  0
   53.7590  153.5470   24.8840 C   0  0  0  0  0  0  0  0  0  0  0  0
   53.2380  153.2650   26.1440 C   0  0  0  0  0  0  0  0  0  0  0  0
   53.1210  151.9440   26.4810 O   0  0  0  0  0  0  0  0  0  0  0  0
   52.8630  154.3070   26.9950 C   0  0  0  0  0  0  0  0  0  0  0  0
   52.3110  154.0550   28.3260 C   0  0  0  0  0  0  0  0  0  0  0  0
   52.1460  152.9150   28.7560 O   0  0  0  0  0  0  0  0  0  0  0  0
   51.9510  155.2300   29.1530 C   0  0  0  0  0  0  0  0  0  0  0  0
   51.4170  154.9790   30.4040 O   0  0  0  0  0  0  0  0  0  0  0  0
   50.4800  157.9610   29.7440 C   0  0  0  0  0  0  0  0  0  0  0  0
   50.0660  159.1430   30.4130 C   0  0  0  0  0  0  0  0  0  0  0  0
   48.5650  159.3150   30.7770 C   0  0  0  0  0  0  0  0  0  0  0  0
   48.2790  159.0960   32.2800 C   0  0  0  0  0  0  0  0  0  0  0  0
   47.7260  158.3330   29.9330 C   0  0  0  0  0  0  0  0  0  0  0  0
   48.0150  160.7380   30.4710 C   0  0  0  0  0  0  0  0  0  0  0  0
   50.8979  161.2077   32.5419 H   0  0  0  0  0  0  0  0  0  0  0  0
   51.6612  162.0912   31.1768 H   0  0  0  0  0  0  0  0  0  0  0  0
   49.8893  161.7961   31.1768 H   0  0  0  0  0  0  0  0  0  0  0  0
   53.1934  160.5704   30.5610 H   0  0  0  0  0  0  0  0  0  0  0  0
   53.8206  158.4973   29.3606 H   0  0  0  0  0  0  0  0  0  0  0  0
   53.6460  156.9607   24.9994 H   0  0  0  0  0  0  0  0  0  0  0  0
   54.3199  155.0985   23.4785 H   0  0  0  0  0  0  0  0  0  0  0  0
   54.0536  152.7264   24.2133 H   0  0  0  0  0  0  0  0  0  0  0  0
   53.5430  151.2890   25.9620 H   0  0  0  0  0  0  0  0  0  0  0  0
   51.6200  154.1800   30.8480 H   0  0  0  0  0  0  0  0  0  0  0  0
   49.7174  157.2049   29.5057 H   0  0  0  0  0  0  0  0  0  0  0  0
   49.0119  159.6572   32.8783 H   0  0  0  0  0  0  0  0  0  0  0  0
   47.2647  159.4505   32.5157 H   0  0  0  0  0  0  0  0  0  0  0  0
   48.3568  158.0244   32.5157 H   0  0  0  0  0  0  0  0  0  0  0  0
   47.1581  157.6683   30.6006 H   0  0  0  0  0  0  0  0  0  0  0  0
   47.0280  158.8987   29.2983 H   0  0  0  0  0  0  0  0  0  0  0  0
   48.3937  157.7319   29.2983 H   0  0  0  0  0  0  0  0  0  0  0  0
   47.8119  161.2636   31.4157 H   0  0  0  0  0  0  0  0  0  0  0  0
   48.7599  161.3020   29.8905 H   0  0  0  0  0  0  0  0  0  0  0  0
   47.0844  160.6544   29.8905 H   0  0  0  0  0  0  0  0  0  0  0  0
  1  2  1  0
  2  3  2  0
  3  4  1  0
  4  5  2  0
  5  6  1  0
  6  7  1  0
  7  8  1  0
  8  9  2  0
  9 10  1  0
 10 11  2  0
 11 12  1  0
 12 13  1  0
 12 14  2  0
 14 15  1  0
 15 16  2  0
 15 17  1  0
 17 18  1  0
  5 19  1  0
 19 20  2  0
 20 21  1  0
 21 22  1  0
 21 23  1  0
 21 24  1  0
 20  2  1  0
 17  6  2  0
 14  8  1  0
  1 25  1  0
  1 26  1  0
  1 27  1  0
  3 28  1  0
  4 29  1  0
  9 30  1  0
 10 31  1  0
 11 32  1  0
 13 33  1  0
 18 34  1  0
 19 35  1  0
 22 36  1  0
 22 37  1  0
 22 38  1  0
 23 39  1  0
 23 40  1  0
 23 41  1  0
 24 42  1  0
 24 43  1  0
 24 44  1  0
M  END
>  <meeko>  (2) 
{"is_sidechain": [false], "free_energy": -10.542, "intermolecular_energy": -12.216, "internal_energy": -0.079}

$$$$
cand_027_out
     RDKit          3D

 44 46  0  0  0  0  0  0  0  0999 V2000
   48.2440  158.7160   31.4420 C   0  0  0  0  0  0  0  0  0  0  0  0
   49.2640  158.0300   30.5730 C   0  0  0  0  0  0  0  0  0  0  0  0
   48.9390  156.7100   30.1900 C   0  0  0  0  0  0  0  0  0  0  0  0
   49.7800  155.9490   29.3830 C   0  0  0  0  0  0  0  0  0  0  0  0
   50.9770  156.4870   28.9260 C   0  0  0  0  0  0  0  0  0  0  0  0
   51.9070  155.7080   28.0800 C   0  0  0  0  0  0  0  0  0  0  0  0
   52.4610  156.4610   27.0510 O   0  0  0  0  0  0  0  0  0  0  0  0
   53.3420  155.8590   26.1890 C   0  0  0  0  0  0  0  0  0  0  0  0
   53.8830  156.6560   25.1790 C   0  0  0  0  0  0  0  0  0  0  0  0
   54.7850  156.1050   24.2660 C   0  0  0  0  0  0  0  0  0  0  0  0
   55.1440  154.7590   24.3620 C   0  0  0  0  0  0  0  0  0  0  0  0
   54.6020  153.9670   25.3700 C   0  0  0  0  0  0  0  0  0  0  0  0
   54.9970  152.6570   25.4060 O   0  0  0  0  0  0  0  0  0  0  0  0
   53.7010  154.5180   26.2840 C   0  0  0  0  0  0  0  0  0  0  0  0
   53.1080  153.7210   27.3580 C   0  0  0  0  0  0  0  0  0  0  0  0
   53.3700  152.5290   27.5040 O   0  0  0  0  0  0  0  0  0  0  0  0
   52.1670  154.4020   28.2790 C   0  0  0  0  0  0  0  0  0  0  0  0
   51.6020  153.6360   29.2810 O   0  0  0  0  0  0  0  0  0  0  0  0
   51.3170  157.7930   29.3240 C   0  0  0  0  0  0  0  0  0  0  0  0
   50.4990  158.5970   30.1620 C   0  0  0  0  0  0  0  0  0  0  0  0
   50.9820  160.0260   30.5340 C   0  0  0  0  0  0  0  0  0  0  0  0
   50.2720  161.1340   29.7220 C   0  0  0  0  0  0  0  0  0  0  0  0
   52.5080  160.1150   30.3230 C   0  0  0  0  0  0  0  0  0  0  0  0
   50.7220  160.3980   32.0220 C   0  0  0  0  0  0  0  0  0  0  0  0
   48.4923  158.5490   32.5005 H   0  0  0  0  0  0  0  0  0  0  0  0
   48.2484  159.7954   31.2302 H   0  0  0  0  0  0  0  0  0  0  0  0
   47.2459  158.3049   31.2302 H   0  0  0  0  0  0  0  0  0  0  0  0
   47.9933  156.2703   30.5398 H   0  0  0  0  0  0  0  0  0  0  0  0
   49.4972  154.9224   29.1072 H   0  0  0  0  0  0  0  0  0  0  0  0
   53.5995  157.7161   25.1022 H   0  0  0  0  0  0  0  0  0  0  0  0
   55.2132  156.7322   23.4702 H   0  0  0  0  0  0  0  0  0  0  0  0
   55.8539  154.3254   23.6423 H   0  0  0  0  0  0  0  0  0  0  0  0
   54.9360  152.1710   26.2040 H   0  0  0  0  0  0  0  0  0  0  0  0
   51.3580  154.0350   30.0930 H   0  0  0  0  0  0  0  0  0  0  0  0
   52.2682  158.2144   28.9667 H   0  0  0  0  0  0  0  0  0  0  0  0
   49.8098  161.8553   30.4121 H   0  0  0  0  0  0  0  0  0  0  0  0
   51.0068  161.6520   29.0882 H   0  0  0  0  0  0  0  0  0  0  0  0
   49.4943  160.6829   29.0882 H   0  0  0  0  0  0  0  0  0  0  0  0
   53.0122  160.1444   31.3002 H   0  0  0  0  0  0  0  0  0  0  0  0
   52.8521  159.2354   29.7592 H   0  0  0  0  0  0  0  0  0  0  0  0
   52.7475  161.0286   29.7592 H   0  0  0  0  0  0  0  0  0  0  0  0
   51.2290  159.6726   32.6753 H   0  0  0  0  0  0  0  0  0  0  0  0
   51.1127  161.4067   32.2214 H   0  0  0  0  0  0  0  0  0  0  0  0
   49.6404  160.3777   32.2214 H   0  0  0  0  0  0  0  0  0  0  0  0
  1  2  1  0
  2  3  2  0
  3  4  1  0
  4  5  2  0
  5  6  1  0
  6  7  1  0
  7  8  1  0
  8  9  2  0
  9 10  1  0
 10 11  2  0
 11 12  1  0
 12 13  1  0
 12 14  2  0
 14 15  1  0
 15 16  2  0
 15 17  1  0
 17 18  1  0
  5 19  1  0
 19 20  2  0
 20 21  1  0
 21 22  1  0
 21 23  1  0
 21 24  1  0
 20  2  1  0
 17  6  2  0
 14  8  1  0
  1 25  1  0
  1 26  1  0
  1 27  1  0
  3 28  1  0
  4 29  1  0
  9 30  1  0
 10 31  1  0
 11 32  1  0
 13 33  1  0
 18 34  1  0
 19 35  1  0
 22 36  1  0
 22 37  1  0
 22 38  1  0
 23 39  1  0
 23 40  1  0
 23 41  1  0
 24 42  1  0
 24 43  1  0
 24 44  1  0
M  END
>  <meeko>  (3) 
{"is_sidechain": [false], "free_energy": -8.724, "intermolecular_energy": -10.31, "internal_energy": 0.152}

$$$$
cand_027_out
     RDKit          3D

 44 46  0  0  0  0  0  0  0  0999 V2000
   53.5830  152.4740   26.6890 C   0  0  0  0  0  0  0  0  0  0  0  0
   52.9570  153.7040   27.2900 C   0  0  0  0  0  0  0  0  0  0  0  0
   52.3110  153.5070   28.5310 C   0  0  0  0  0  0  0  0  0  0  0  0
   51.6900  154.5500   29.2110 C   0  0  0  0  0  0  0  0  0  0  0  0
   51.6990  155.8320   28.6760 C   0  0  0  0  0  0  0  0  0  0  0  0
   51.0380  156.9650   29.3580 C   0  0  0  0  0  0  0  0  0  0  0  0
   51.9110  158.0110   29.6380 O   0  0  0  0  0  0  0  0  0  0  0  0
   51.4270  159.1270   30.2720 C   0  0  0  0  0  0  0  0  0  0  0  0
   52.3350  160.1570   30.5210 C   0  0  0  0  0  0  0  0  0  0  0  0
   51.9090  161.3200   31.1660 C   0  0  0  0  0  0  0  0  0  0  0  0
   50.5760  161.4530   31.5620 C   0  0  0  0  0  0  0  0  0  0  0  0
   49.6730  160.4230   31.3120 C   0  0  0  0  0  0  0  0  0  0  0  0
   48.3840  160.6190   31.7270 O   0  0  0  0  0  0  0  0  0  0  0  0
   50.0990  159.2600   30.6660 C   0  0  0  0  0  0  0  0  0  0  0  0
   49.1830  158.1550   30.3850 C   0  0  0  0  0  0  0  0  0  0  0  0
   47.9980  158.1940   30.7080 O   0  0  0  0  0  0  0  0  0  0  0  0
   49.7340  156.9670   29.6910 C   0  0  0  0  0  0  0  0  0  0  0  0
   48.8620  155.9230   29.4420 O   0  0  0  0  0  0  0  0  0  0  0  0
   52.3200  156.0290   27.4280 C   0  0  0  0  0  0  0  0  0  0  0  0
   52.9470  154.9910   26.6900 C   0  0  0  0  0  0  0  0  0  0  0  0
   53.6010  155.3320   25.3220 C   0  0  0  0  0  0  0  0  0  0  0  0
   54.0490  156.8080   25.2170 C   0  0  0  0  0  0  0  0  0  0  0  0
   52.6050  155.0030   24.1900 C   0  0  0  0  0  0  0  0  0  0  0  0
   54.8870  154.5060   25.0300 C   0  0  0  0  0  0  0  0  0  0  0  0
   53.9233  151.8054   27.4935 H   0  0  0  0  0  0  0  0  0  0  0  0
   52.8411  151.9515   26.0672 H   0  0  0  0  0  0  0  0  0  0  0  0
   54.4420  152.7663   26.0672 H   0  0  0  0  0  0  0  0  0  0  0  0
   52.2987  152.4996   28.9725 H   0  0  0  0  0  0  0  0  0  0  0  0
   51.1916  154.3593   30.1729 H   0  0  0  0  0  0  0  0  0  0  0  0
   53.3849  160.0529   30.2096 H   0  0  0  0  0  0  0  0  0  0  0  0
   52.6240  162.1325   31.3625 H   0  0  0  0  0  0  0  0  0  0  0  0
   50.2405  162.3692   32.0701 H   0  0  0  0  0  0  0  0  0  0  0  0
   48.2120  160.9020   32.6030 H   0  0  0  0  0  0  0  0  0  0  0  0
   48.0320  156.0910   29.0430 H   0  0  0  0  0  0  0  0  0  0  0  0
   52.3193  157.0429   27.0013 H   0  0  0  0  0  0  0  0  0  0  0  0
   54.1757  157.2254   26.2268 H   0  0  0  0  0  0  0  0  0  0  0  0
   55.0044  156.8635   24.6747 H   0  0  0  0  0  0  0  0  0  0  0  0
   53.2856  157.3852   24.6747 H   0  0  0  0  0  0  0  0  0  0  0  0
   51.6460  154.6862   24.6259 H   0  0  0  0  0  0  0  0  0  0  0  0
   52.4478  155.8970   23.5686 H   0  0  0  0  0  0  0  0  0  0  0  0
   53.0112  154.1913   23.5686 H   0  0  0  0  0  0  0  0  0  0  0  0
   55.3538  154.2062   25.9799 H   0  0  0  0  0  0  0  0  0  0  0  0
   54.6228  153.6083   24.4519 H   0  0  0  0  0  0  0  0  0  0  0  0
   55.5935  155.1196   24.4519 H   0  0  0  0  0  0  0  0  0  0  0  0
  1  2  1  0
  2  3  2  0
  3  4  1  0
  4  5  2  0
  5  6  1  0
  6  7  1  0
  7  8  1  0
  8  9  2  0
  9 10  1  0
 10 11  2  0
 11 12  1  0
 12 13  1  0
 12 14  2  0
 14 15  1  0
 15 16  2  0
 15 17  1  0
 17 18  1  0
  5 19  1  0
 19 20  2  0
 20 21  1  0
 21 22  1  0
 21 23  1  0
 21 24  1  0
 20  2  1  0
 17  6  2  0
 14  8  1  0
  1 25  1  0
  1 26  1  0
  1 27  1  0
  3 28  1  0
  4 29  1  0
  9 30  1  0
 10 31  1  0
 11 32  1  0
 13 33  1  0
 18 34  1  0
 19 35  1  0
 22 36  1  0
 22 37  1  0
 22 38  1  0
 23 39  1  0
 23 40  1  0
 23 41  1  0
 24 42  1  0
 24 43  1  0
 24 44  1  0
M  END
>  <meeko>  (4) 
{"is_sidechain": [false], "free_energy": -8.635, "intermolecular_energy": -10.153, "internal_energy": 0.099}

$$$$
