cand_033_out
     RDKit          3D

 44 46  0  0  0  0  0  0  0  0999 V2000
   46.6210  160.1290   31.5380 C   0  0  0  0  0  0  0  0  0  0  0  0
   47.5020  159.3850   30.5470 C   0  0  0  0  0  0  0  0  0  0  0  0
   48.5200  158.4950   31.2640 C   0  0  0  0  0  0  0  0  0  0  0  0
   49.8810  158.5610   30.6080 C   0  0  0  0  0  0  0  0  0  0  0  0
   50.3420  157.4140   29.9290 C   0  0  0  0  0  0  0  0  0  0  0  0
   51.5990  157.3730   29.3100 C   0  0  0  0  0  0  0  0  0  0  0  0
   52.0690  156.1790   28.5770 C   0  0  0  0  0  0  0  0  0  0  0  0
   52.6390  156.4900   27.3480 O   0  0  0  0  0  0  0  0  0  0  0  0
   53.1180  155.4730   26.5620 C   0  0  0  0  0  0  0  0  0  0  0  0
   53.6680  155.8300   25.3300 C   0  0  0  0  0  0  0  0  0  0  0  0
   54.1750  154.8430   24.4810 C   0  0  0  0  0  0  0  0  0  0  0  0
   54.1320  153.5000   24.8650 C   0  0  0  0  0  0  0  0  0  0  0  0
   53.5820  153.1480   26.0950 C   0  0  0  0  0  0  0  0  0  0  0  0
   53.5720  151.8170   26.4080 O   0  0  0  0  0  0  0  0  0  0  0  0
   53.0750  154.1360   26.9430 C   0  0  0  0  0  0  0  0  0  0  0  0
   52.4890  153.8080   28.2440 C   0  0  0  0  0  0  0  0  0  0  0  0
   52.4210  152.6510   28.6540 O   0  0  0  0  0  0  0  0  0  0  0  0
   51.9720  154.9280   29.0640 C   0  0  0  0  0  0  0  0  0  0  0  0
   51.4320  154.6080   30.2960 O   0  0  0  0  0  0  0  0  0  0  0  0
   52.3990  158.5180   29.3640 C   0  0  0  0  0  0  0  0  0  0  0  0
   51.9630  159.6620   30.0360 C   0  0  0  0  0  0  0  0  0  0  0  0
   50.7110  159.6980   30.6730 C   0  0  0  0  0  0  0  0  0  0  0  0
   50.3060  160.9750   31.3730 C   0  0  0  0  0  0  0  0  0  0  0  0
   50.2130  160.7930   32.8800 C   0  0  0  0  0  0  0  0  0  0  0  0
   46.9250  159.8723   32.5635 H   0  0  0  0  0  0  0  0  0  0  0  0
   46.7298  161.2127   31.3837 H   0  0  0  0  0  0  0  0  0  0  0  0
   45.5708  159.8403   31.3837 H   0  0  0  0  0  0  0  0  0  0  0  0
   46.8670  158.7570   29.9048 H   0  0  0  0  0  0  0  0  0  0  0  0
   48.0512  160.1260   29.9476 H   0  0  0  0  0  0  0  0  0  0  0  0
   48.6112  158.8278   32.3085 H   0  0  0  0  0  0  0  0  0  0  0  0
   48.1640  157.4556   31.2110 H   0  0  0  0  0  0  0  0  0  0  0  0
   49.6958  156.5250   29.8838 H   0  0  0  0  0  0  0  0  0  0  0  0
   53.7023  156.8871   25.0278 H   0  0  0  0  0  0  0  0  0  0  0  0
   54.6083  155.1232   23.5096 H   0  0  0  0  0  0  0  0  0  0  0  0
   54.5317  152.7227   24.1972 H   0  0  0  0  0  0  0  0  0  0  0  0
   54.3750  151.3340   26.4280 H   0  0  0  0  0  0  0  0  0  0  0  0
   51.0560  155.2790   30.8320 H   0  0  0  0  0  0  0  0  0  0  0  0
   53.3827  158.5180   28.8718 H   0  0  0  0  0  0  0  0  0  0  0  0
   52.6110  160.5504   30.0672 H   0  0  0  0  0  0  0  0  0  0  0  0
   51.0531  161.7522   31.1545 H   0  0  0  0  0  0  0  0  0  0  0  0
   49.3112  161.2646   31.0034 H   0  0  0  0  0  0  0  0  0  0  0  0
   50.6582  161.6643   33.3827 H   0  0  0  0  0  0  0  0  0  0  0  0
   49.1570  160.7002   33.1737 H   0  0  0  0  0  0  0  0  0  0  0  0
   50.7566  159.8829   33.1737 H   0  0  0  0  0  0  0  0  0  0  0  0
  1  2  1  0
  2  3  1  0
  3  4  1  0
  4  5  2  0
  5  6  1  0
  6  7  1  0
  7  8  1  0
  8  9  1  0
  9 10  2  0
 10 11  1  0
 11 12  2  0
 12 13  1  0
 13 14  1  0
 13 15  2  0
 15 16  1  0
 16 17  2  0
 16 18  1  0
 18 19  1  0
  6 20  2  0
 20 21  1  0
 21 22  2  0
 22 23  1  0
 23 24  1  0
 22  4  1  0
 18  7  2  0
 15  9  1  0
  1 25  1  0
  1 26  1  0
  1 27  1  0
  2 28  1  0
  2 29  1  0
  3 30  1  0
  3 31  1  0
  5 32  1  0
 10 33  1  0
 11 34  1  0
 12 35  1  0
 14 36  1  0
 19 37  1  0
 20 38  1  0
 21 39  1  0
 23 40  1  0
 23 41  1  0
 24 42  1  0
 24 43  1  0
 24 44  1  0
M  END
>  <meeko>  (1) 
{"is_sidechain": [false], "free_energy": -10.756, "intermolecular_energy": -13.9, "internal_energy": -0.21}

$$$$
cand_033_out
     RDKit          3D

 44 46  0  0  0  0  0  0  0  0999 V2000
   54.9590  155.6120   24.4560 C   0  0  0  0  0  0  0  0  0  0  0  0
   53.7600  156.1940   25.1870 C   0  0  0  0  0  0  0  0  0  0  0  0
   52.6740  155.1390   25.4080 C   0  0  0  0  0  0  0  0  0  0  0  0
   52.2590  155.0580   26.8600 C   0  0  0  0  0  0  0  0  0  0  0  0
   51.9490  156.2620   27.5260 C   0  0  0  0  0  0  0  0  0  0  0  0
   51.5760  156.2870   28.8760 C   0  0  0  0  0  0  0  0  0  0  0  0
   51.2250  157.5480   29.5650 C   0  0  0  0  0  0  0  0  0  0  0  0
   49.9100  157.5690   30.0160 O   0  0  0  0  0  0  0  0  0  0  0  0
   49.4510  158.6820   30.6730 C   0  0  0  0  0  0  0  0  0  0  0  0
   48.1210  158.6650   31.0940 C   0  0  0  0  0  0  0  0  0  0  0  0
   47.5910  159.7670   31.7700 C   0  0  0  0  0  0  0  0  0  0  0  0
   48.3910  160.8820   32.0260 C   0  0  0  0  0  0  0  0  0  0  0  0
   49.7180  160.8950   31.6040 C   0  0  0  0  0  0  0  0  0  0  0  0
   50.4450  162.0190   31.8870 O   0  0  0  0  0  0  0  0  0  0  0  0
   50.2470  159.7940   30.9270 C   0  0  0  0  0  0  0  0  0  0  0  0
   51.6370  159.7660   30.4670 C   0  0  0  0  0  0  0  0  0  0  0  0
   52.4040  160.7080   30.6600 O   0  0  0  0  0  0  0  0  0  0  0  0
   52.0980  158.5550   29.7510 C   0  0  0  0  0  0  0  0  0  0  0  0
   53.4160  158.5350   29.3330 O   0  0  0  0  0  0  0  0  0  0  0  0
   51.5000  155.0730   29.5650 C   0  0  0  0  0  0  0  0  0  0  0  0
   51.8100  153.8700   28.9250 C   0  0  0  0  0  0  0  0  0  0  0  0
   52.2010  153.8460   27.5750 C   0  0  0  0  0  0  0  0  0  0  0  0
   52.5120  152.5040   26.9510 C   0  0  0  0  0  0  0  0  0  0  0  0
   53.9080  152.4670   26.3480 C   0  0  0  0  0  0  0  0  0  0  0  0
   55.6969  155.2538   25.1890 H   0  0  0  0  0  0  0  0  0  0  0  0
   54.6317  154.7725   23.8250 H   0  0  0  0  0  0  0  0  0  0  0  0
   55.4161  156.3885   23.8250 H   0  0  0  0  0  0  0  0  0  0  0  0
   54.0887  156.5791   26.1636 H   0  0  0  0  0  0  0  0  0  0  0  0
   53.3376  157.0014   24.5707 H   0  0  0  0  0  0  0  0  0  0  0  0
   51.7950  155.3997   24.8002 H   0  0  0  0  0  0  0  0  0  0  0  0
   53.0816  154.1608   25.1131 H   0  0  0  0  0  0  0  0  0  0  0  0
   52.0017  157.2091   26.9690 H   0  0  0  0  0  0  0  0  0  0  0  0
   47.4909  157.7858   30.8941 H   0  0  0  0  0  0  0  0  0  0  0  0
   46.5420  159.7560   32.1009 H   0  0  0  0  0  0  0  0  0  0  0  0
   47.9740  161.7486   32.5600 H   0  0  0  0  0  0  0  0  0  0  0  0
   50.2840  162.8130   31.4150 H   0  0  0  0  0  0  0  0  0  0  0  0
   54.0320  159.1390   29.6970 H   0  0  0  0  0  0  0  0  0  0  0  0
   51.1932  155.0646   30.6213 H   0  0  0  0  0  0  0  0  0  0  0  0
   51.7470  152.9264   29.4868 H   0  0  0  0  0  0  0  0  0  0  0  0
   52.4388  151.7264   27.7256 H   0  0  0  0  0  0  0  0  0  0  0  0
   51.7873  152.3287   26.1423 H   0  0  0  0  0  0  0  0  0  0  0  0
   54.6555  152.4472   27.1548 H   0  0  0  0  0  0  0  0  0  0  0  0
   54.0152  151.5657   25.7266 H   0  0  0  0  0  0  0  0  0  0  0  0
   54.0628  153.3614   25.7266 H   0  0  0  0  0  0  0  0  0  0  0  0
  1  2  1  0
  2  3  1  0
  3  4  1  0
  4  5  2  0
  5  6  1  0
  6  7  1  0
  7  8  1  0
  8  9  1  0
  9 10  2  0
 10 11  1  0
 11 12  2  0
 12 13  1  0
 13 14  1  0
 13 15  2  0
 15 16  1  0
 16 17  2  0
 16 18  1  0
 18 19  1  0
  6 20  2  0
 20 21  1  0
 21 22  2  0
 22 23  1  0
 23 24  1  0
 22  4  1  0
 18  7  2  0
 15  9  1  0
  1 25  1  0
  1 26  1  0
  1 27  1  0
  2 28  1  0
  2 29  1  0
  3 30  1  0
  3 31  1  0
  5 32  1  0
 10 33  1  0
 11 34  1  0
 12 35  1  0
 14 36  1  0
 19 37  1  0
 20 38  1  0
 21 39  1  0
 23 40  1  0
 23 41  1  0
 24 42  1  0
 24 43  1  0
 24 44  1  0
M  END
>  <meeko>  (2) 
{"is_sidechain": [false], "free_energy": -10.402, "intermolecular_energy": -13.304, "internal_energy": -0.349}

$$$$
cand_033_out
     RDKit          3D

 44 46  0  0  0  0  0  0  0  0999 V2000
   50.6470  162.2060   32.4230 C   0  0  0  0  0  0  0  0  0  0  0  0
   51.5220  161.0300   32.0210 C   0  0  0  0  0  0  0  0  0  0  0  0
   51.4070  160.7340   30.5250 C   0  0  0  0  0  0  0  0  0  0  0  0
   50.7610  159.3900   30.2680 C   0  0  0  0  0  0  0  0  0  0  0  0
   51.4980  158.4330   29.5400 C   0  0  0  0  0  0  0  0  0  0  0  0
   50.9740  157.1690   29.2360 C   0  0  0  0  0  0  0  0  0  0  0  0
   51.7570  156.1580   28.4950 C   0  0  0  0  0  0  0  0  0  0  0  0
   52.3010  156.6560   27.3160 O   0  0  0  0  0  0  0  0  0  0  0  0
   53.0530  155.8210   26.5280 C   0  0  0  0  0  0  0  0  0  0  0  0
   53.5670  156.3580   25.3470 C   0  0  0  0  0  0  0  0  0  0  0  0
   54.3420  155.5620   24.4990 C   0  0  0  0  0  0  0  0  0  0  0  0
   54.6030  154.2320   24.8340 C   0  0  0  0  0  0  0  0  0  0  0  0
   54.0890  153.7000   26.0140 C   0  0  0  0  0  0  0  0  0  0  0  0
   54.3830  152.3910   26.2800 O   0  0  0  0  0  0  0  0  0  0  0  0
   53.3130  154.4960   26.8600 C   0  0  0  0  0  0  0  0  0  0  0  0
   52.7530  153.9750   28.1090 C   0  0  0  0  0  0  0  0  0  0  0  0
   52.9450  152.8170   28.4740 O   0  0  0  0  0  0  0  0  0  0  0  0
   51.9380  154.8990   28.9310 C   0  0  0  0  0  0  0  0  0  0  0  0
   51.4250  154.4000   30.1150 O   0  0  0  0  0  0  0  0  0  0  0  0
   49.6870  156.8600   29.6880 C   0  0  0  0  0  0  0  0  0  0  0  0
   48.9400  157.7970   30.4060 C   0  0  0  0  0  0  0  0  0  0  0  0
   49.4570  159.0700   30.6960 C   0  0  0  0  0  0  0  0  0  0  0  0
   48.5910  160.0260   31.4850 C   0  0  0  0  0  0  0  0  0  0  0  0
   47.1160  159.6600   31.3980 C   0  0  0  0  0  0  0  0  0  0  0  0
   50.5997  162.2696   33.5201 H   0  0  0  0  0  0  0  0  0  0  0  0
   51.0746  163.1359   32.0199 H   0  0  0  0  0  0  0  0  0  0  0  0
   49.6335  162.0636   32.0199 H   0  0  0  0  0  0  0  0  0  0  0  0
   52.5697  161.2655   32.2596 H   0  0  0  0  0  0  0  0  0  0  0  0
   51.1850  160.1422   32.5763 H   0  0  0  0  0  0  0  0  0  0  0  0
   50.7978  161.5185   30.0523 H   0  0  0  0  0  0  0  0  0  0  0  0
   52.4217  160.7133   30.1008 H   0  0  0  0  0  0  0  0  0  0  0  0
   52.5134  158.6858   29.2010 H   0  0  0  0  0  0  0  0  0  0  0  0
   53.3625  157.4063   25.0839 H   0  0  0  0  0  0  0  0  0  0  0  0
   54.7466  155.9836   23.5671 H   0  0  0  0  0  0  0  0  0  0  0  0
   55.2135  153.6054   24.1671 H   0  0  0  0  0  0  0  0  0  0  0  0
   55.1370  151.9910   25.8920 H   0  0  0  0  0  0  0  0  0  0  0  0
   51.9760  154.3250   30.8690 H   0  0  0  0  0  0  0  0  0  0  0  0
   49.2587  155.8692   29.4760 H   0  0  0  0  0  0  0  0  0  0  0  0
   47.9291  157.5330   30.7502 H   0  0  0  0  0  0  0  0  0  0  0  0
   48.9022  159.9998   32.5397 H   0  0  0  0  0  0  0  0  0  0  0  0
   48.7182  161.0320   31.0587 H   0  0  0  0  0  0  0  0  0  0  0  0
   46.7032  159.5576   32.4124 H   0  0  0  0  0  0  0  0  0  0  0  0
   46.5732  160.4507   30.8593 H   0  0  0  0  0  0  0  0  0  0  0  0
   47.0058  158.7073   30.8593 H   0  0  0  0  0  0  0  0  0  0  0  0
  1  2  1  0
  2  3  1  0
  3  4  1  0
  4  5  2  0
  5  6  1  0
  6  7  1  0
  7  8  1  0
  8  9  1  0
  9 10  2  0
 10 11  1  0
 11 12  2  0
 12 13  1  0
 13 14  1  0
 13 15  2  0
 15 16  1  0
 16 17  2  0
 16 18  1  0
 18 19  1  0
  6 20  2  0
 20 21  1  0
 21 22  2  0
 22 23  1  0
 23 24  1  0
 22  4  1  0
 18  7  2  0
 15  9  1  0
  1 25  1  0
  1 26  1  0
  1 27  1  0
  2 28  1  0
  2 29  1  0
  3 30  1  0
  3 31  1  0
  5 32  1  0
 10 33  1  0
 11 34  1  0
 12 35  1  0
 14 36  1  0
 19 37  1  0
 20 38  1  0
 21 39  1  0
 23 40  1  0
 23 41  1  0
 24 42  1  0
 24 43  1  0
 24 44  1  0
M  END
>  <meeko>  (3) 
{"is_sidechain": [false], "free_energy": -9.655, "intermolecular_energy": -12.88, "internal_energy": 0.193}

$$$$
cand_033_out
     RDKit          3D

 44 46  0  0  0  0  0  0  0  0999 V2000
   54.5460  154.8900   24.1780 C   0  0  0  0  0  0  0  0  0  0  0  0
   53.3440  155.5360   24.8480 C   0  0  0  0  0  0  0  0  0  0  0  0
   53.7470  156.2750   26.1260 C   0  0  0  0  0  0  0  0  0  0  0  0
   52.8840  155.8720   27.3010 C   0  0  0  0  0  0  0  0  0  0  0  0
   52.2100  156.8930   28.0040 C   0  0  0  0  0  0  0  0  0  0  0  0
   51.4050  156.6180   29.1180 C   0  0  0  0  0  0  0  0  0  0  0  0
   50.6790  157.6860   29.8370 C   0  0  0  0  0  0  0  0  0  0  0  0
   51.5080  158.7300   30.2320 O   0  0  0  0  0  0  0  0  0  0  0  0
   50.9630  159.7900   30.9120 C   0  0  0  0  0  0  0  0  0  0  0  0
   51.8330  160.8080   31.3020 C   0  0  0  0  0  0  0  0  0  0  0  0
   51.3420  161.9160   31.9960 C   0  0  0  0  0  0  0  0  0  0  0  0
   49.9820  162.0060   32.2990 C   0  0  0  0  0  0  0  0  0  0  0  0
   49.1160  160.9880   31.9080 C   0  0  0  0  0  0  0  0  0  0  0  0
   47.7960  161.1400   32.2360 O   0  0  0  0  0  0  0  0  0  0  0  0
   49.6070  159.8800   31.2140 C   0  0  0  0  0  0  0  0  0  0  0  0
   48.7310  158.7880   30.7850 C   0  0  0  0  0  0  0  0  0  0  0  0
   47.5220  158.7980   31.0090 O   0  0  0  0  0  0  0  0  0  0  0  0
   49.3530  157.6540   30.0630 C   0  0  0  0  0  0  0  0  0  0  0  0
   48.5140  156.6350   29.6510 O   0  0  0  0  0  0  0  0  0  0  0  0
   51.2670  155.2870   29.5220 C   0  0  0  0  0  0  0  0  0  0  0  0
   51.9310  154.2630   28.8430 C   0  0  0  0  0  0  0  0  0  0  0  0
   52.7520  154.5390   27.7360 C   0  0  0  0  0  0  0  0  0  0  0  0
   53.4310  153.3760   27.0480 C   0  0  0  0  0  0  0  0  0  0  0  0
   52.4300  152.4640   26.3530 C   0  0  0  0  0  0  0  0  0  0  0  0
   55.2385  154.5178   24.9473 H   0  0  0  0  0  0  0  0  0  0  0  0
   54.2094  154.0512   23.5509 H   0  0  0  0  0  0  0  0  0  0  0  0
   55.0598  155.6335   23.5509 H   0  0  0  0  0  0  0  0  0  0  0  0
   52.8870  156.2523   24.1494 H   0  0  0  0  0  0  0  0  0  0  0  0
   52.6303  154.7434   25.1170 H   0  0  0  0  0  0  0  0  0  0  0  0
   54.7965  156.0405   26.3575 H   0  0  0  0  0  0  0  0  0  0  0  0
   53.6124  157.3533   25.9555 H   0  0  0  0  0  0  0  0  0  0  0  0
   52.3195  157.9347   27.6681 H   0  0  0  0  0  0  0  0  0  0  0  0
   52.9045  160.7382   31.0633 H   0  0  0  0  0  0  0  0  0  0  0  0
   52.0277  162.7190   32.3044 H   0  0  0  0  0  0  0  0  0  0  0  0
   49.5955  162.8790   32.8453 H   0  0  0  0  0  0  0  0  0  0  0  0
   47.5450  161.7610   32.8920 H   0  0  0  0  0  0  0  0  0  0  0  0
   48.2980  156.5440   28.7440 H   0  0  0  0  0  0  0  0  0  0  0  0
   50.6285  155.0435   30.3840 H   0  0  0  0  0  0  0  0  0  0  0  0
   51.8094  153.2230   29.1802 H   0  0  0  0  0  0  0  0  0  0  0  0
   54.1348  153.7678   26.2989 H   0  0  0  0  0  0  0  0  0  0  0  0
   53.9549  152.7857   27.8142 H   0  0  0  0  0  0  0  0  0  0  0  0
   51.8388  151.9254   27.1082 H   0  0  0  0  0  0  0  0  0  0  0  0
   51.7590  153.0677   25.7242 H   0  0  0  0  0  0  0  0  0  0  0  0
   52.9688  151.7399   25.7242 H   0  0  0  0  0  0  0  0  0  0  0  0
  1  2  1  0
  2  3  1  0
  3  4  1  0
  4  5  2  0
  5  6  1  0
  6  7  1  0
  7  8  1  0
  8  9  1  0
  9 10  2  0
 10 11  1  0
 11 12  2  0
 12 13  1  0
 13 14  1  0
 13 15  2  0
 15 16  1  0
 16 17  2  0
 16 18  1  0
 18 19  1  0
  6 20  2  0
 20 21  1  0
 21 22  2  0
 22 23  1  0
 23 24  1  0
 22  4  1  0
 18  7  2  0
 15  9  1  0
  1 25  1  0
  1 26  1  0
  1 27  1  0
  2 28  1  0
  2 29  1  0
  3 30  1  0
  3 31  1  0
  5 32  1  0
 10 33  1  0
 11 34  1  0
 12 35  1  0
 14 36  1  0
 19 37  1  0
 20 38  1  0
 21 39  1  0
 23 40  1  0
 23 41  1  0
 24 42  1  0
 24 43  1  0
 24 44  1  0
M  END
>  <meeko>  (4) 
{"is_sidechain": [false], "free_energy": -8.529, "intermolecular_energy": -11.184, "internal_energy": -0.048}

$$$$
cand_033_out
     RDKit          3D

 44 46  0  0  0  0  0  0  0  0999 V2000
   51.5750  151.2460   28.2430 C   0  0  0  0  0  0  0  0  0  0  0  0
   51.5650  152.7090   27.8330 C   0  0  0  0  0  0  0  0  0  0  0  0
   51.9550  153.6190   29.0000 C   0  0  0  0  0  0  0  0  0  0  0  0
   52.1610  155.0490   28.5510 C   0  0  0  0  0  0  0  0  0  0  0  0
   51.6300  156.0760   29.3580 C   0  0  0  0  0  0  0  0  0  0  0  0
   51.7530  157.4290   29.0110 C   0  0  0  0  0  0  0  0  0  0  0  0
   51.2180  158.5060   29.8720 C   0  0  0  0  0  0  0  0  0  0  0  0
   49.8900  158.3020   30.2280 O   0  0  0  0  0  0  0  0  0  0  0  0
   49.2670  159.2280   31.0260 C   0  0  0  0  0  0  0  0  0  0  0  0
   47.9300  158.9920   31.3460 C   0  0  0  0  0  0  0  0  0  0  0  0
   47.2370  159.8950   32.1560 C   0  0  0  0  0  0  0  0  0  0  0  0
   47.8820  161.0330   32.6450 C   0  0  0  0  0  0  0  0  0  0  0  0
   49.2170  161.2650   32.3240 C   0  0  0  0  0  0  0  0  0  0  0  0
   49.7870  162.3980   32.8380 O   0  0  0  0  0  0  0  0  0  0  0  0
   49.9090  160.3620   31.5140 C   0  0  0  0  0  0  0  0  0  0  0  0
   51.3130  160.5690   31.1520 C   0  0  0  0  0  0  0  0  0  0  0  0
   51.9490  161.5430   31.5500 O   0  0  0  0  0  0  0  0  0  0  0  0
   51.9520  159.5570   30.2810 C   0  0  0  0  0  0  0  0  0  0  0  0
   53.2810  159.7560   29.9560 O   0  0  0  0  0  0  0  0  0  0  0  0
   52.4370  157.7510   27.8350 C   0  0  0  0  0  0  0  0  0  0  0  0
   52.9640  156.7470   27.0200 C   0  0  0  0  0  0  0  0  0  0  0  0
   52.8270  155.3900   27.3570 C   0  0  0  0  0  0  0  0  0  0  0  0
   53.4330  154.3630   26.4280 C   0  0  0  0  0  0  0  0  0  0  0  0
   53.0210  154.5920   24.9810 C   0  0  0  0  0  0  0  0  0  0  0  0
   51.5755  151.1728   29.3406 H   0  0  0  0  0  0  0  0  0  0  0  0
   50.6802  150.7469   27.8426 H   0  0  0  0  0  0  0  0  0  0  0  0
   52.4765  150.7592   27.8426 H   0  0  0  0  0  0  0  0  0  0  0  0
   52.2808  152.8550   27.0106 H   0  0  0  0  0  0  0  0  0  0  0  0
   50.5455  152.9722   27.5147 H   0  0  0  0  0  0  0  0  0  0  0  0
   51.1546  153.5941   29.7542 H   0  0  0  0  0  0  0  0  0  0  0  0
   52.9034  153.2515   29.4188 H   0  0  0  0  0  0  0  0  0  0  0  0
   51.1042  155.8082   30.2863 H   0  0  0  0  0  0  0  0  0  0  0  0
   47.4217  158.0957   30.9609 H   0  0  0  0  0  0  0  0  0  0  0  0
   46.1826  159.7095   32.4087 H   0  0  0  0  0  0  0  0  0  0  0  0
   47.3367  161.7446   33.2824 H   0  0  0  0  0  0  0  0  0  0  0  0
   50.6420  162.6610   32.5570 H   0  0  0  0  0  0  0  0  0  0  0  0
   53.6050  160.6250   29.8220 H   0  0  0  0  0  0  0  0  0  0  0  0
   52.5613  158.8058   27.5488 H   0  0  0  0  0  0  0  0  0  0  0  0
   53.4959  157.0235   26.0977 H   0  0  0  0  0  0  0  0  0  0  0  0
   54.5291  154.4223   26.4991 H   0  0  0  0  0  0  0  0  0  0  0  0
   53.0684  153.3710   26.7329 H   0  0  0  0  0  0  0  0  0  0  0  0
   52.0598  155.1262   24.9536 H   0  0  0  0  0  0  0  0  0  0  0  0
   53.7890  155.1927   24.4718 H   0  0  0  0  0  0  0  0  0  0  0  0
   52.9164  153.6226   24.4718 H   0  0  0  0  0  0  0  0  0  0  0  0
  1  2  1  0
  2  3  1  0
  3  4  1  0
  4  5  2  0
  5  6  1  0
  6  7  1  0
  7  8  1  0
  8  9  1  0
  9 10  2  0
 10 11  1  0
 11 12  2  0
 12 13  1  0
 13 14  1  0
 13 15  2  0
 15 16  1  0
 16 17  2  0
 16 18  1  0
 18 19  1  0
  6 20  2  0
 20 21  1  0
 21 22  2  0
 22 23  1  0
 23 24  1  0
 22  4  1  0
 18  7  2  0
 15  9  1  0
  1 25  1  0
  1 26  1  0
  1 27  1  0
  2 28  1  0
  2 29  1  0
  3 30  1  0
  3 31  1  0
  5 32  1  0
 10 33  1  0
 11 34  1  0
 12 35  1  0
 14 36  1  0
 19 37  1  0
 20 38  1  0
 21 39  1  0
 23 40  1  0
 23 41  1  0
 24 42  1  0
 24 43  1  0
 24 44  1  0
M  END
>  <meeko>  (5) 
{"is_sidechain": [false], "free_energy": -8.286, "intermolecular_energy": -11.113, "internal_energy": 0.195}

$$$$
