cand_004_out
     RDKit          3D

 38 40  0  0  0  0  0  0  0  0999 V2000
   47.3110  159.5650   30.6900 C   0  0  0  0  0  0  0  0  0  0  0  0
   48.3150  158.7200   31.4620 C   0  0  0  0  0  0  0  0  0  0  0  0
   49.6960  158.7800   30.8450 C   0  0  0  0  0  0  0  0  0  0  0  0
   50.1500  157.6550   30.1270 C   0  0  0  0  0  0  0  0  0  0  0  0
   51.4250  157.6160   29.5420 C   0  0  0  0  0  0  0  0  0  0  0  0
   51.8910  156.4450   28.7710 C   0  0  0  0  0  0  0  0  0  0  0  0
   52.4480  156.7920   27.5460 O   0  0  0  0  0  0  0  0  0  0  0  0
   52.9220  155.7980   26.7280 C   0  0  0  0  0  0  0  0  0  0  0  0
   53.4580  156.1900   25.5000 C   0  0  0  0  0  0  0  0  0  0  0  0
   53.9600  155.2280   24.6200 C   0  0  0  0  0  0  0  0  0  0  0  0
   53.9250  153.8760   24.9680 C   0  0  0  0  0  0  0  0  0  0  0  0
   53.3900  153.4880   26.1930 C   0  0  0  0  0  0  0  0  0  0  0  0
   53.3880  152.1480   26.4690 O   0  0  0  0  0  0  0  0  0  0  0  0
   52.8870  154.4500   27.0730 C   0  0  0  0  0  0  0  0  0  0  0  0
   52.3150  154.0850   28.3690 C   0  0  0  0  0  0  0  0  0  0  0  0
   52.2560  152.9170   28.7500 O   0  0  0  0  0  0  0  0  0  0  0  0
   51.8030  155.1800   29.2240 C   0  0  0  0  0  0  0  0  0  0  0  0
   51.2770  154.8270   30.4530 O   0  0  0  0  0  0  0  0  0  0  0  0
   52.2480  158.7390   29.6720 C   0  0  0  0  0  0  0  0  0  0  0  0
   51.8160  159.8620   30.3820 C   0  0  0  0  0  0  0  0  0  0  0  0
   50.5440  159.9000   30.9820 C   0  0  0  0  0  0  0  0  0  0  0  0
   50.1250  161.1450   31.7370 C   0  0  0  0  0  0  0  0  0  0  0  0
   49.1570  161.8570   31.0970 F   0  0  0  0  0  0  0  0  0  0  0  0
   51.1600  162.0090   31.9340 F   0  0  0  0  0  0  0  0  0  0  0  0
   49.6250  160.8860   32.9790 F   0  0  0  0  0  0  0  0  0  0  0  0
   46.6669  160.1071   31.3980 H   0  0  0  0  0  0  0  0  0  0  0  0
   47.8487  160.2864   30.0571 H   0  0  0  0  0  0  0  0  0  0  0  0
   46.6920  158.9120   30.0571 H   0  0  0  0  0  0  0  0  0  0  0  0
   48.3711  159.0907   32.4961 H   0  0  0  0  0  0  0  0  0  0  0  0
   47.9740  157.6746   31.4334 H   0  0  0  0  0  0  0  0  0  0  0  0
   49.4866  156.7838   30.0224 H   0  0  0  0  0  0  0  0  0  0  0  0
   53.4850  157.2549   25.2256 H   0  0  0  0  0  0  0  0  0  0  0  0
   54.3831  155.5357   23.6524 H   0  0  0  0  0  0  0  0  0  0  0  0
   54.3198  153.1186   24.2748 H   0  0  0  0  0  0  0  0  0  0  0  0
   54.1650  151.7340   26.7890 H   0  0  0  0  0  0  0  0  0  0  0  0
   50.3610  154.9340   30.6190 H   0  0  0  0  0  0  0  0  0  0  0  0
   53.2464  158.7382   29.2102 H   0  0  0  0  0  0  0  0  0  0  0  0
   52.4825  160.7323   30.4736 H   0  0  0  0  0  0  0  0  0  0  0  0
  1  2  1  0
  2  3  1  0
  3  4  2  0
  4  5  1  0
  5  6  1  0
  6  7  1  0
  7  8  1  0
  8  9  2  0
  9 10  1  0
 10 11  2  0
 11 12  1  0
 12 13  1  0
 12 14  2  0
 14 15  1  0
 15 16  2  0
 15 17  1  0
 17 18  1  0
  5 19  2  0
 19 20  1  0
 20 21  2  0
 21 22  1  0
 22 23  1  0
 22 24  1  0
 22 25  1  0
 21  3  1  0
 17  6  2  0
 14  8  1  0
  1 26  1  0
  1 27  1  0
  1 28  1  0
  2 29  1  0
  2 30  1  0
  4 31  1  0
  9 32  1  0
 10 33  1  0
 11 34  1  0
 13 35  1  0
 18 36  1  0
 19 37  1  0
 20 38  1  0
M  END
>  <meeko>  (1) 
{"is_sidechain": [false], "free_energy": -11.9, "intermolecular_energy": -14.683, "internal_energy": -0.129}

$$$$
cand_004_out
     RDKit          3D

 38 40  0  0  0  0  0  0  0  0999 V2000
   52.9240  156.3290   24.9250 C   0  0  0  0  0  0  0  0  0  0  0  0
   53.6210  155.9850   26.2330 C   0  0  0  0  0  0  0  0  0  0  0  0
   52.6400  155.8500   27.3780 C   0  0  0  0  0  0  0  0  0  0  0  0
   52.3040  157.0120   28.1030 C   0  0  0  0  0  0  0  0  0  0  0  0
   51.4210  156.9750   29.1920 C   0  0  0  0  0  0  0  0  0  0  0  0
   51.0530  158.1970   29.9370 C   0  0  0  0  0  0  0  0  0  0  0  0
   49.7480  158.1660   30.4140 O   0  0  0  0  0  0  0  0  0  0  0  0
   49.2770  159.2400   31.1250 C   0  0  0  0  0  0  0  0  0  0  0  0
   47.9560  159.1740   31.5730 C   0  0  0  0  0  0  0  0  0  0  0  0
   47.4140  160.2330   32.3040 C   0  0  0  0  0  0  0  0  0  0  0  0
   48.1920  161.3590   32.5870 C   0  0  0  0  0  0  0  0  0  0  0  0
   49.5090  161.4220   32.1390 C   0  0  0  0  0  0  0  0  0  0  0  0
   50.2130  162.5520   32.4530 O   0  0  0  0  0  0  0  0  0  0  0  0
   50.0510  160.3630   31.4080 C   0  0  0  0  0  0  0  0  0  0  0  0
   51.4290  160.3890   30.9180 C   0  0  0  0  0  0  0  0  0  0  0  0
   52.1790  161.3410   31.1330 O   0  0  0  0  0  0  0  0  0  0  0  0
   51.9050  159.2190   30.1460 C   0  0  0  0  0  0  0  0  0  0  0  0
   53.2130  159.2470   29.6990 O   0  0  0  0  0  0  0  0  0  0  0  0
   50.8560  155.7460   29.5450 C   0  0  0  0  0  0  0  0  0  0  0  0
   51.1780  154.5830   28.8400 C   0  0  0  0  0  0  0  0  0  0  0  0
   52.0750  154.6140   27.7570 C   0  0  0  0  0  0  0  0  0  0  0  0
   52.3860  153.3240   27.0250 C   0  0  0  0  0  0  0  0  0  0  0  0
   51.9530  153.3250   25.7340 F   0  0  0  0  0  0  0  0  0  0  0  0
   51.8110  152.2380   27.6140 F   0  0  0  0  0  0  0  0  0  0  0  0
   53.7190  153.0430   26.9610 F   0  0  0  0  0  0  0  0  0  0  0  0
   51.9565  156.8065   25.1396 H   0  0  0  0  0  0  0  0  0  0  0  0
   53.5533  157.0200   24.3449 H   0  0  0  0  0  0  0  0  0  0  0  0
   52.7583  155.4092   24.3449 H   0  0  0  0  0  0  0  0  0  0  0  0
   54.1572  155.0324   26.1102 H   0  0  0  0  0  0  0  0  0  0  0  0
   54.3154  156.8033   26.4743 H   0  0  0  0  0  0  0  0  0  0  0  0
   52.7468  157.9742   27.8061 H   0  0  0  0  0  0  0  0  0  0  0  0
   47.3429  158.2883   31.3502 H   0  0  0  0  0  0  0  0  0  0  0  0
   46.3736  160.1810   32.6575 H   0  0  0  0  0  0  0  0  0  0  0  0
   47.7650  162.1936   33.1624 H   0  0  0  0  0  0  0  0  0  0  0  0
   49.8180  163.2210   32.9770 H   0  0  0  0  0  0  0  0  0  0  0  0
   53.9140  159.0530   30.2900 H   0  0  0  0  0  0  0  0  0  0  0  0
   50.1501  155.6937   30.3870 H   0  0  0  0  0  0  0  0  0  0  0  0
   50.7221  153.6270   29.1372 H   0  0  0  0  0  0  0  0  0  0  0  0
  1  2  1  0
  2  3  1  0
  3  4  2  0
  4  5  1  0
  5  6  1  0
  6  7  1  0
  7  8  1  0
  8  9  2  0
  9 10  1  0
 10 11  2  0
 11 12  1  0
 12 13  1  0
 12 14  2  0
 14 15  1  0
 15 16  2  0
 15 17  1  0
 17 18  1  0
  5 19  2  0
 19 20  1  0
 20 21  2  0
 21 22  1  0
 22 23  1  0
 22 24  1  0
 22 25  1  0
 21  3  1  0
 17  6  2  0
 14  8  1  0
  1 26  1  0
  1 27  1  0
  1 28  1  0
  2 29  1  0
  2 30  1  0
  4 31  1  0
  9 32  1  0
 10 33  1  0
 11 34  1  0
 13 35  1  0
 18 36  1  0
 19 37  1  0
 20 38  1  0
M  END
>  <meeko>  (2) 
{"is_sidechain": [false], "free_energy": -11.274, "intermolecular_energy": -13.778, "internal_energy": -0.261}

$$$$
cand_004_out
     RDKit          3D

 38 40  0  0  0  0  0  0  0  0999 V2000
   51.7300  161.2060   31.9760 C   0  0  0  0  0  0  0  0  0  0  0  0
   51.2170  160.9810   30.5610 C   0  0  0  0  0  0  0  0  0  0  0  0
   50.5890  159.6140   30.3980 C   0  0  0  0  0  0  0  0  0  0  0  0
   51.3170  158.6280   29.7000 C   0  0  0  0  0  0  0  0  0  0  0  0
   50.8010  157.3420   29.4840 C   0  0  0  0  0  0  0  0  0  0  0  0
   51.5740  156.3040   28.7710 C   0  0  0  0  0  0  0  0  0  0  0  0
   52.1280  156.7640   27.5820 O   0  0  0  0  0  0  0  0  0  0  0  0
   52.8720  155.9000   26.8190 C   0  0  0  0  0  0  0  0  0  0  0  0
   53.3960  156.3990   25.6260 C   0  0  0  0  0  0  0  0  0  0  0  0
   54.1650  155.5720   24.8030 C   0  0  0  0  0  0  0  0  0  0  0  0
   54.4090  154.2480   25.1740 C   0  0  0  0  0  0  0  0  0  0  0  0
   53.8850  153.7530   26.3650 C   0  0  0  0  0  0  0  0  0  0  0  0
   54.1640  152.4480   26.6660 O   0  0  0  0  0  0  0  0  0  0  0  0
   53.1160  154.5800   27.1870 C   0  0  0  0  0  0  0  0  0  0  0  0
   52.5460  154.1000   28.4470 C   0  0  0  0  0  0  0  0  0  0  0  0
   52.7220  152.9490   28.8450 O   0  0  0  0  0  0  0  0  0  0  0  0
   51.7390  155.0530   29.2410 C   0  0  0  0  0  0  0  0  0  0  0  0
   51.2170  154.5940   30.4360 O   0  0  0  0  0  0  0  0  0  0  0  0
   49.5350  157.0410   29.9960 C   0  0  0  0  0  0  0  0  0  0  0  0
   48.7980  158.0050   30.6890 C   0  0  0  0  0  0  0  0  0  0  0  0
   49.3050  159.3010   30.8950 C   0  0  0  0  0  0  0  0  0  0  0  0
   48.4650  160.3050   31.6570 C   0  0  0  0  0  0  0  0  0  0  0  0
   48.8800  160.4840   32.9410 F   0  0  0  0  0  0  0  0  0  0  0  0
   47.1550  159.9400   31.7310 F   0  0  0  0  0  0  0  0  0  0  0  0
   48.4670  161.5500   31.0990 F   0  0  0  0  0  0  0  0  0  0  0  0
   50.9705  160.8729   32.6987 H   0  0  0  0  0  0  0  0  0  0  0  0
   52.6559  160.6313   32.1261 H   0  0  0  0  0  0  0  0  0  0  0  0
   51.9344  162.2764   32.1261 H   0  0  0  0  0  0  0  0  0  0  0  0
   50.4633  161.7482   30.3300 H   0  0  0  0  0  0  0  0  0  0  0  0
   52.0736  161.0462   29.8740 H   0  0  0  0  0  0  0  0  0  0  0  0
   52.3172  158.8746   29.3144 H   0  0  0  0  0  0  0  0  0  0  0  0
   53.2040  157.4419   25.3338 H   0  0  0  0  0  0  0  0  0  0  0  0
   54.5785  155.9642   23.8622 H   0  0  0  0  0  0  0  0  0  0  0  0
   55.0144  153.5971   24.5261 H   0  0  0  0  0  0  0  0  0  0  0  0
   54.0780  152.1420   27.5480 H   0  0  0  0  0  0  0  0  0  0  0  0
   50.4300  154.9710   30.7800 H   0  0  0  0  0  0  0  0  0  0  0  0
   49.1148  156.0347   29.8517 H   0  0  0  0  0  0  0  0  0  0  0  0
   47.8033  157.7458   31.0806 H   0  0  0  0  0  0  0  0  0  0  0  0
  1  2  1  0
  2  3  1  0
  3  4  2  0
  4  5  1  0
  5  6  1  0
  6  7  1  0
  7  8  1  0
  8  9  2  0
  9 10  1  0
 10 11  2  0
 11 12  1  0
 12 13  1  0
 12 14  2  0
 14 15  1  0
 15 16  2  0
 15 17  1  0
 17 18  1  0
  5 19  2  0
 19 20  1  0
 20 21  2  0
 21 22  1  0
 22 23  1  0
 22 24  1  0
 22 25  1  0
 21  3  1  0
 17  6  2  0
 14  8  1  0
  1 26  1  0
  1 27  1  0
  1 28  1  0
  2 29  1  0
  2 30  1  0
  4 31  1  0
  9 32  1  0
 10 33  1  0
 11 34  1  0
 13 35  1  0
 18 36  1  0
 19 37  1  0
 20 38  1  0
M  END
>  <meeko>  (3) 
{"is_sidechain": [false], "free_energy": -10.865, "intermolecular_energy": -13.431, "internal_energy": -0.103}

$$$$
cand_004_out
     RDKit          3D

 38 40  0  0  0  0  0  0  0  0999 V2000
   51.9400  152.8920   29.2160 C   0  0  0  0  0  0  0  0  0  0  0  0
   51.2130  153.7000   28.1500 C   0  0  0  0  0  0  0  0  0  0  0  0
   51.7860  155.0940   28.0100 C   0  0  0  0  0  0  0  0  0  0  0  0
   51.3030  156.0990   28.8740 C   0  0  0  0  0  0  0  0  0  0  0  0
   51.7620  157.4230   28.7980 C   0  0  0  0  0  0  0  0  0  0  0  0
   51.2720  158.4700   29.7180 C   0  0  0  0  0  0  0  0  0  0  0  0
   49.9430  158.2880   30.0840 O   0  0  0  0  0  0  0  0  0  0  0  0
   49.3610  159.1910   30.9370 C   0  0  0  0  0  0  0  0  0  0  0  0
   48.0220  158.9790   31.2660 C   0  0  0  0  0  0  0  0  0  0  0  0
   47.3690  159.8610   32.1310 C   0  0  0  0  0  0  0  0  0  0  0  0
   48.0560  160.9530   32.6660 C   0  0  0  0  0  0  0  0  0  0  0  0
   49.3920  161.1610   32.3360 C   0  0  0  0  0  0  0  0  0  0  0  0
   50.0040  162.2490   32.8970 O   0  0  0  0  0  0  0  0  0  0  0  0
   50.0450  160.2800   31.4710 C   0  0  0  0  0  0  0  0  0  0  0  0
   51.4480  160.4630   31.0980 C   0  0  0  0  0  0  0  0  0  0  0  0
   52.1210  161.3960   31.5330 O   0  0  0  0  0  0  0  0  0  0  0  0
   52.0440  159.4770   30.1680 C   0  0  0  0  0  0  0  0  0  0  0  0
   53.3730  159.6510   29.8320 O   0  0  0  0  0  0  0  0  0  0  0  0
   52.7370  157.7320   27.8440 C   0  0  0  0  0  0  0  0  0  0  0  0
   53.2260  156.7500   26.9780 C   0  0  0  0  0  0  0  0  0  0  0  0
   52.7570  155.4250   27.0410 C   0  0  0  0  0  0  0  0  0  0  0  0
   53.3250  154.3990   26.0810 C   0  0  0  0  0  0  0  0  0  0  0  0
   53.8690  153.3220   26.7110 F   0  0  0  0  0  0  0  0  0  0  0  0
   54.3100  154.9120   25.2920 F   0  0  0  0  0  0  0  0  0  0  0  0
   52.3970  153.8880   25.2220 F   0  0  0  0  0  0  0  0  0  0  0  0
   51.6294  153.2372   30.2132 H   0  0  0  0  0  0  0  0  0  0  0  0
   51.6903  151.8267   29.1025 H   0  0  0  0  0  0  0  0  0  0  0  0
   53.0256  153.0282   29.1025 H   0  0  0  0  0  0  0  0  0  0  0  0
   51.3042  153.1794   27.1853 H   0  0  0  0  0  0  0  0  0  0  0  0
   50.1594  153.7932   28.4522 H   0  0  0  0  0  0  0  0  0  0  0  0
   50.5458  155.8378   29.6280 H   0  0  0  0  0  0  0  0  0  0  0  0
   47.4810  158.1187   30.8451 H   0  0  0  0  0  0  0  0  0  0  0  0
   46.3131  159.6951   32.3908 H   0  0  0  0  0  0  0  0  0  0  0  0
   47.5421  161.6474   33.3469 H   0  0  0  0  0  0  0  0  0  0  0  0
   50.9150  162.4040   32.7470 H   0  0  0  0  0  0  0  0  0  0  0  0
   53.9750  158.9370   29.9160 H   0  0  0  0  0  0  0  0  0  0  0  0
   53.1233  158.7596   27.7745 H   0  0  0  0  0  0  0  0  0  0  0  0
   53.9909  157.0177   26.2342 H   0  0  0  0  0  0  0  0  0  0  0  0
  1  2  1  0
  2  3  1  0
  3  4  2  0
  4  5  1  0
  5  6  1  0
  6  7  1  0
  7  8  1  0
  8  9  2  0
  9 10  1  0
 10 11  2  0
 11 12  1  0
 12 13  1  0
 12 14  2  0
 14 15  1  0
 15 16  2  0
 15 17  1  0
 17 18  1  0
  5 19  2  0
 19 20  1  0
 20 21  2  0
 21 22  1  0
 22 23  1  0
 22 24  1  0
 22 25  1  0
 21  3  1  0
 17  6  2  0
 14  8  1  0
  1 26  1  0
  1 27  1  0
  1 28  1  0
  2 29  1  0
  2 30  1  0
  4 31  1  0
  9 32  1  0
 10 33  1  0
 11 34  1  0
 13 35  1  0
 18 36  1  0
 19 37  1  0
 20 38  1  0
M  END
>  <meeko>  (4) 
{"is_sidechain": [false], "free_energy": -9.461, "intermolecular_energy": -11.627, "internal_energy": -0.176}

$$$$
cand_004_out
     RDKit          3D

 38 40  0  0  0  0  0  0  0  0999 V2000
   54.7000  156.7320   24.9650 C   0  0  0  0  0  0  0  0  0  0  0  0
   53.3690  155.9960   24.9020 C   0  0  0  0  0  0  0  0  0  0  0  0
   52.9020  155.5550   26.2720 C   0  0  0  0  0  0  0  0  0  0  0  0
   52.2710  156.5100   27.0970 C   0  0  0  0  0  0  0  0  0  0  0  0
   51.8270  156.1940   28.3890 C   0  0  0  0  0  0  0  0  0  0  0  0
   51.1470  157.1890   29.2430 C   0  0  0  0  0  0  0  0  0  0  0  0
   51.9360  158.3030   29.5080 O   0  0  0  0  0  0  0  0  0  0  0  0
   51.4240  159.3070   30.2910 C   0  0  0  0  0  0  0  0  0  0  0  0
   52.2560  160.3990   30.5440 C   0  0  0  0  0  0  0  0  0  0  0  0
   51.7960  161.4560   31.3320 C   0  0  0  0  0  0  0  0  0  0  0  0
   50.5060  161.4210   31.8670 C   0  0  0  0  0  0  0  0  0  0  0  0
   49.6800  160.3300   31.6130 C   0  0  0  0  0  0  0  0  0  0  0  0
   48.4290  160.3620   32.1670 O   0  0  0  0  0  0  0  0  0  0  0  0
   50.1390  159.2730   30.8250 C   0  0  0  0  0  0  0  0  0  0  0  0
   49.3030  158.1080   30.5340 C   0  0  0  0  0  0  0  0  0  0  0  0
   48.1550  158.0070   30.9620 O   0  0  0  0  0  0  0  0  0  0  0  0
   49.8880  157.0370   29.6940 C   0  0  0  0  0  0  0  0  0  0  0  0
   49.0850  155.9470   29.4130 O   0  0  0  0  0  0  0  0  0  0  0  0
   52.0090  154.8860   28.8510 C   0  0  0  0  0  0  0  0  0  0  0  0
   52.6330  153.9270   28.0490 C   0  0  0  0  0  0  0  0  0  0  0  0
   53.0940  154.2440   26.7580 C   0  0  0  0  0  0  0  0  0  0  0  0
   53.7600  153.1640   25.9300 C   0  0  0  0  0  0  0  0  0  0  0  0
   53.1250  152.9290   24.7490 F   0  0  0  0  0  0  0  0  0  0  0  0
   53.8080  151.9660   26.5770 F   0  0  0  0  0  0  0  0  0  0  0  0
   55.0510  153.4530   25.5980 F   0  0  0  0  0  0  0  0  0  0  0  0
   54.9830  156.8885   26.0164 H   0  0  0  0  0  0  0  0  0  0  0  0
   55.4740  156.1337   24.4621 H   0  0  0  0  0  0  0  0  0  0  0  0
   54.6048  157.7056   24.4621 H   0  0  0  0  0  0  0  0  0  0  0  0
   52.6126  156.6659   24.4672 H   0  0  0  0  0  0  0  0  0  0  0  0
   53.5058  155.0970   24.2830 H   0  0  0  0  0  0  0  0  0  0  0  0
   52.1232  157.5312   26.7159 H   0  0  0  0  0  0  0  0  0  0  0  0
   53.2720  160.4268   30.1234 H   0  0  0  0  0  0  0  0  0  0  0  0
   52.4503  162.3174   31.5318 H   0  0  0  0  0  0  0  0  0  0  0  0
   50.1439  162.2539   32.4876 H   0  0  0  0  0  0  0  0  0  0  0  0
   48.3280  160.4970   33.0880 H   0  0  0  0  0  0  0  0  0  0  0  0
   48.2710  155.8350   29.8650 H   0  0  0  0  0  0  0  0  0  0  0  0
   51.6572  154.6098   29.8560 H   0  0  0  0  0  0  0  0  0  0  0  0
   52.7663  152.9053   28.4340 H   0  0  0  0  0  0  0  0  0  0  0  0
  1  2  1  0
  2  3  1  0
  3  4  2  0
  4  5  1  0
  5  6  1  0
  6  7  1  0
  7  8  1  0
  8  9  2  0
  9 10  1  0
 10 11  2  0
 11 12  1  0
 12 13  1  0
 12 14  2  0
 14 15  1  0
 15 16  2  0
 15 17  1  0
 17 18  1  0
  5 19  2  0
 19 20  1  0
 20 21  2  0
 21 22  1  0
 22 23  1  0
 22 24  1  0
 22 25  1  0
 21  3  1  0
 17  6  2  0
 14  8  1  0
  1 26  1  0
  1 27  1  0
  1 28  1  0
  2 29  1  0
  2 30  1  0
  4 31  1  0
  9 32  1  0
 10 33  1  0
 11 34  1  0
 13 35  1  0
 18 36  1  0
 19 37  1  0
 20 38  1  0
M  END
>  <meeko>  (5) 
{"is_sidechain": [false], "free_energy": -8.946, "intermolecular_energy": -10.618, "internal_energy": -0.549}

$$$$
