cand_039_out
     RDKit          3D

 41 43  0  0  0  0  0  0  0  0999 V2000
   49.9980  161.0520   33.2400 C   0  0  0  0  0  0  0  0  0  0  0  0
   49.9990  161.2630   31.7330 C   0  0  0  0  0  0  0  0  0  0  0  0
   50.4180  160.0170   30.9880 C   0  0  0  0  0  0  0  0  0  0  0  0
   51.6980  159.9940   30.4080 C   0  0  0  0  0  0  0  0  0  0  0  0
   52.1550  158.8720   29.7130 C   0  0  0  0  0  0  0  0  0  0  0  0
   51.3460  157.7420   29.5700 C   0  0  0  0  0  0  0  0  0  0  0  0
   51.8550  156.5560   28.8480 C   0  0  0  0  0  0  0  0  0  0  0  0
   52.4090  156.8730   27.6140 O   0  0  0  0  0  0  0  0  0  0  0  0
   52.9210  155.8640   26.8370 C   0  0  0  0  0  0  0  0  0  0  0  0
   53.4820  156.2290   25.6130 C   0  0  0  0  0  0  0  0  0  0  0  0
   54.0180  155.2500   24.7730 C   0  0  0  0  0  0  0  0  0  0  0  0
   53.9930  153.9080   25.1580 C   0  0  0  0  0  0  0  0  0  0  0  0
   53.4330  153.5460   26.3800 C   0  0  0  0  0  0  0  0  0  0  0  0
   53.4420  152.2160   26.6940 O   0  0  0  0  0  0  0  0  0  0  0  0
   52.8970  154.5260   27.2210 C   0  0  0  0  0  0  0  0  0  0  0  0
   52.2990  154.1900   28.5130 C   0  0  0  0  0  0  0  0  0  0  0  0
   52.2340  153.0310   28.9170 O   0  0  0  0  0  0  0  0  0  0  0  0
   51.7660  155.3030   29.3320 C   0  0  0  0  0  0  0  0  0  0  0  0
   51.1910  154.9720   30.5450 O   0  0  0  0  0  0  0  0  0  0  0  0
   50.0760  157.7570   30.1630 C   0  0  0  0  0  0  0  0  0  0  0  0
   49.5980  158.8770   30.8750 C   0  0  0  0  0  0  0  0  0  0  0  0
   48.2040  158.8030   31.4560 C   0  0  0  0  0  0  0  0  0  0  0  0
   47.2830  159.8550   30.8550 C   0  0  0  0  0  0  0  0  0  0  0  0
   50.0026  162.0282   33.7469 H   0  0  0  0  0  0  0  0  0  0  0  0
   49.0972  160.4919   33.5312 H   0  0  0  0  0  0  0  0  0  0  0  0
   50.8935  160.4834   33.5312 H   0  0  0  0  0  0  0  0  0  0  0  0
   48.9848  161.5442   31.4130 H   0  0  0  0  0  0  0  0  0  0  0  0
   50.7236  162.0576   31.5013 H   0  0  0  0  0  0  0  0  0  0  0  0
   52.3507  160.8743   30.5030 H   0  0  0  0  0  0  0  0  0  0  0  0
   53.1633  158.8781   29.2733 H   0  0  0  0  0  0  0  0  0  0  0  0
   53.5022  157.2862   25.3098 H   0  0  0  0  0  0  0  0  0  0  0  0
   54.4602  155.5365   23.8074 H   0  0  0  0  0  0  0  0  0  0  0  0
   54.4154  153.1375   24.4963 H   0  0  0  0  0  0  0  0  0  0  0  0
   52.7320  151.6660   26.4260 H   0  0  0  0  0  0  0  0  0  0  0  0
   51.6260  154.3760   31.1220 H   0  0  0  0  0  0  0  0  0  0  0  0
   49.4331  156.8692   30.0704 H   0  0  0  0  0  0  0  0  0  0  0  0
   47.7861  157.8061   31.2523 H   0  0  0  0  0  0  0  0  0  0  0  0
   48.2748  158.9893   32.5378 H   0  0  0  0  0  0  0  0  0  0  0  0
   46.7913  160.4166   31.6630 H   0  0  0  0  0  0  0  0  0  0  0  0
   47.8718  160.5460   30.2338 H   0  0  0  0  0  0  0  0  0  0  0  0
   46.5202  159.3628   30.2338 H   0  0  0  0  0  0  0  0  0  0  0  0
  1  2  1  0
  2  3  1  0
  3  4  2  0
  4  5  1  0
  5  6  2  0
  6  7  1  0
  7  8  1  0
  8  9  1  0
  9 10  2  0
 10 11  1  0
 11 12  2  0
 12 13  1  0
 13 14  1  0
 13 15  2  0
 15 16  1  0
 16 17  2  0
 16 18  1  0
 18 19  1  0
  6 20  1  0
 20 21  2  0
 21 22  1  0
 22 23  1  0
 21  3  1  0
 18  7  2  0
 15  9  1  0
  1 24  1  0
  1 25  1  0
  1 26  1  0
  2 27  1  0
  2 28  1  0
  4 29  1  0
  5 30  1  0
 10 31  1  0
 11 32  1  0
 12 33  1  0
 14 34  1  0
 19 35  1  0
 20 36  1  0
 22 37  1  0
 22 38  1  0
 23 39  1  0
 23 40  1  0
 23 41  1  0
M  END
>  <meeko>  (1) 
{"is_sidechain": [false], "free_energy": -11.34, "intermolecular_energy": -13.992, "internal_energy": 0.088}

$$$$
cand_039_out
     RDKit          3D

 41 43  0  0  0  0  0  0  0  0999 V2000
   47.1710  159.9230   31.6570 C   0  0  0  0  0  0  0  0  0  0  0  0
   48.6210  160.3700   31.5380 C   0  0  0  0  0  0  0  0  0  0  0  0
   49.4710  159.3460   30.8210 C   0  0  0  0  0  0  0  0  0  0  0  0
   48.9060  158.0860   30.5590 C   0  0  0  0  0  0  0  0  0  0  0  0
   49.6300  157.0940   29.8930 C   0  0  0  0  0  0  0  0  0  0  0  0
   50.9420  157.3290   29.4730 C   0  0  0  0  0  0  0  0  0  0  0  0
   51.6860  156.2740   28.7510 C   0  0  0  0  0  0  0  0  0  0  0  0
   52.1900  156.7090   27.5310 O   0  0  0  0  0  0  0  0  0  0  0  0
   52.9020  155.8290   26.7560 C   0  0  0  0  0  0  0  0  0  0  0  0
   53.4020  156.3120   25.5470 C   0  0  0  0  0  0  0  0  0  0  0  0
   54.1350  155.4670   24.7090 C   0  0  0  0  0  0  0  0  0  0  0  0
   54.3660  154.1410   25.0810 C   0  0  0  0  0  0  0  0  0  0  0  0
   53.8650  153.6620   26.2880 C   0  0  0  0  0  0  0  0  0  0  0  0
   54.1280  152.3550   26.5910 O   0  0  0  0  0  0  0  0  0  0  0  0
   53.1330  154.5080   27.1270 C   0  0  0  0  0  0  0  0  0  0  0  0
   52.5890  154.0450   28.4040 C   0  0  0  0  0  0  0  0  0  0  0  0
   52.7440  152.8900   28.7970 O   0  0  0  0  0  0  0  0  0  0  0  0
   51.8350  155.0220   29.2220 C   0  0  0  0  0  0  0  0  0  0  0  0
   51.3140  154.5700   30.4200 O   0  0  0  0  0  0  0  0  0  0  0  0
   51.5010  158.5910   29.7180 C   0  0  0  0  0  0  0  0  0  0  0  0
   50.7840  159.6080   30.3820 C   0  0  0  0  0  0  0  0  0  0  0  0
   51.4840  160.9270   30.6200 C   0  0  0  0  0  0  0  0  0  0  0  0
   51.3470  161.3900   32.0630 C   0  0  0  0  0  0  0  0  0  0  0  0
   46.8992  159.8392   32.7196 H   0  0  0  0  0  0  0  0  0  0  0  0
   46.5183  160.6617   31.1687 H   0  0  0  0  0  0  0  0  0  0  0  0
   47.0475  158.9451   31.1687 H   0  0  0  0  0  0  0  0  0  0  0  0
   48.6564  161.3161   30.9780 H   0  0  0  0  0  0  0  0  0  0  0  0
   49.0232  160.4946   32.5542 H   0  0  0  0  0  0  0  0  0  0  0  0
   47.8760  157.8774   30.8839 H   0  0  0  0  0  0  0  0  0  0  0  0
   49.1625  156.1178   29.6972 H   0  0  0  0  0  0  0  0  0  0  0  0
   53.2198  157.3563   25.2534 H   0  0  0  0  0  0  0  0  0  0  0  0
   54.5303  155.8469   23.7554 H   0  0  0  0  0  0  0  0  0  0  0  0
   54.9429  153.4762   24.4213 H   0  0  0  0  0  0  0  0  0  0  0  0
   53.8270  151.9910   27.4010 H   0  0  0  0  0  0  0  0  0  0  0  0
   50.5130  154.0840   30.4290 H   0  0  0  0  0  0  0  0  0  0  0  0
   52.5288  158.7940   29.3826 H   0  0  0  0  0  0  0  0  0  0  0  0
   52.5520  160.8105   30.3838 H   0  0  0  0  0  0  0  0  0  0  0  0
   51.0150  161.6833   29.9734 H   0  0  0  0  0  0  0  0  0  0  0  0
   51.5930  160.5585   32.7398 H   0  0  0  0  0  0  0  0  0  0  0  0
   52.0357  162.2279   32.2462 H   0  0  0  0  0  0  0  0  0  0  0  0
   50.3132  161.7183   32.2462 H   0  0  0  0  0  0  0  0  0  0  0  0
  1  2  1  0
  2  3  1  0
  3  4  2  0
  4  5  1  0
  5  6  2  0
  6  7  1  0
  7  8  1  0
  8  9  1  0
  9 10  2  0
 10 11  1  0
 11 12  2  0
 12 13  1  0
 13 14  1  0
 13 15  2  0
 15 16  1  0
 16 17  2  0
 16 18  1  0
 18 19  1  0
  6 20  1  0
 20 21  2  0
 21 22  1  0
 22 23  1  0
 21  3  1  0
 18  7  2  0
 15  9  1  0
  1 24  1  0
  1 25  1  0
  1 26  1  0
  2 27  1  0
  2 28  1  0
  4 29  1  0
  5 30  1  0
 10 31  1  0
 11 32  1  0
 12 33  1  0
 14 34  1  0
 19 35  1  0
 20 36  1  0
 22 37  1  0
 22 38  1  0
 23 39  1  0
 23 40  1  0
 23 41  1  0
M  END
>  <meeko>  (2) 
{"is_sidechain": [false], "free_energy": -10.785, "intermolecular_energy": -13.437, "internal_energy": 0.217}

$$$$
cand_039_out
     RDKit          3D

 41 43  0  0  0  0  0  0  0  0999 V2000
   54.0860  152.4230   26.2480 C   0  0  0  0  0  0  0  0  0  0  0  0
   52.6300  152.4870   26.6870 C   0  0  0  0  0  0  0  0  0  0  0  0
   52.2950  153.8100   27.3370 C   0  0  0  0  0  0  0  0  0  0  0  0
   51.8570  153.7970   28.6730 C   0  0  0  0  0  0  0  0  0  0  0  0
   51.5370  154.9820   29.3400 C   0  0  0  0  0  0  0  0  0  0  0  0
   51.6400  156.2150   28.6910 C   0  0  0  0  0  0  0  0  0  0  0  0
   51.3170  157.4610   29.4200 C   0  0  0  0  0  0  0  0  0  0  0  0
   49.9970  157.5070   29.8520 O   0  0  0  0  0  0  0  0  0  0  0  0
   49.5630  158.6090   30.5430 C   0  0  0  0  0  0  0  0  0  0  0  0
   48.2350  158.6060   30.9720 C   0  0  0  0  0  0  0  0  0  0  0  0
   47.7290  159.6990   31.6790 C   0  0  0  0  0  0  0  0  0  0  0  0
   48.5500  160.7940   31.9560 C   0  0  0  0  0  0  0  0  0  0  0  0
   49.8740  160.7950   31.5270 C   0  0  0  0  0  0  0  0  0  0  0  0
   50.6220  161.8990   31.8320 O   0  0  0  0  0  0  0  0  0  0  0  0
   50.3810  159.7000   30.8210 C   0  0  0  0  0  0  0  0  0  0  0  0
   51.7660  159.6610   30.3510 C   0  0  0  0  0  0  0  0  0  0  0  0
   52.5470  160.5890   30.5500 O   0  0  0  0  0  0  0  0  0  0  0  0
   52.2070  158.4510   29.6180 C   0  0  0  0  0  0  0  0  0  0  0  0
   53.5140  158.4310   29.1680 O   0  0  0  0  0  0  0  0  0  0  0  0
   52.0940  156.2320   27.3650 C   0  0  0  0  0  0  0  0  0  0  0  0
   52.4280  155.0470   26.6770 C   0  0  0  0  0  0  0  0  0  0  0  0
   52.8840  155.1690   25.2400 C   0  0  0  0  0  0  0  0  0  0  0  0
   54.0060  156.1860   25.0850 C   0  0  0  0  0  0  0  0  0  0  0  0
   54.7356  152.3945   27.1353 H   0  0  0  0  0  0  0  0  0  0  0  0
   54.2479  151.5169   25.6457 H   0  0  0  0  0  0  0  0  0  0  0  0
   54.3268  153.3114   25.6457 H   0  0  0  0  0  0  0  0  0  0  0  0
   51.9864  152.3508   25.8054 H   0  0  0  0  0  0  0  0  0  0  0  0
   52.4618  151.6911   27.4274 H   0  0  0  0  0  0  0  0  0  0  0  0
   51.7647  152.8371   29.2022 H   0  0  0  0  0  0  0  0  0  0  0  0
   51.2006  154.9440   30.3866 H   0  0  0  0  0  0  0  0  0  0  0  0
   47.5876  157.7439   30.7536 H   0  0  0  0  0  0  0  0  0  0  0  0
   46.6825  159.6973   32.0180 H   0  0  0  0  0  0  0  0  0  0  0  0
   48.1508  161.6547   32.5126 H   0  0  0  0  0  0  0  0  0  0  0  0
   51.5560  161.8340   31.8750 H   0  0  0  0  0  0  0  0  0  0  0  0
   53.8700  159.1770   28.7270 H   0  0  0  0  0  0  0  0  0  0  0  0
   52.1926  157.1970   26.8463 H   0  0  0  0  0  0  0  0  0  0  0  0
   53.2434  154.1878   24.8964 H   0  0  0  0  0  0  0  0  0  0  0  0
   52.0286  155.5108   24.6387 H   0  0  0  0  0  0  0  0  0  0  0  0
   54.3545  156.5019   26.0794 H   0  0  0  0  0  0  0  0  0  0  0  0
   54.8403  155.7301   24.5318 H   0  0  0  0  0  0  0  0  0  0  0  0
   53.6340  157.0610   24.5318 H   0  0  0  0  0  0  0  0  0  0  0  0
  1  2  1  0
  2  3  1  0
  3  4  2  0
  4  5  1  0
  5  6  2  0
  6  7  1  0
  7  8  1  0
  8  9  1  0
  9 10  2  0
 10 11  1  0
 11 12  2  0
 12 13  1  0
 13 14  1  0
 13 15  2  0
 15 16  1  0
 16 17  2  0
 16 18  1  0
 18 19  1  0
  6 20  1  0
 20 21  2  0
 21 22  1  0
 22 23  1  0
 21  3  1  0
 18  7  2  0
 15  9  1  0
  1 24  1  0
  1 25  1  0
  1 26  1  0
  2 27  1  0
  2 28  1  0
  4 29  1  0
  5 30  1  0
 10 31  1  0
 11 32  1  0
 12 33  1  0
 14 34  1  0
 19 35  1  0
 20 36  1  0
 22 37  1  0
 22 38  1  0
 23 39  1  0
 23 40  1  0
 23 41  1  0
M  END
>  <meeko>  (3) 
{"is_sidechain": [false], "free_energy": -10.548, "intermolecular_energy": -12.749, "internal_energy": -0.178}

$$$$
cand_039_out
     RDKit          3D

 41 43  0  0  0  0  0  0  0  0999 V2000
   53.0080  154.5420   24.9170 C   0  0  0  0  0  0  0  0  0  0  0  0
   53.4100  154.2640   26.3590 C   0  0  0  0  0  0  0  0  0  0  0  0
   52.8470  155.2950   27.3100 C   0  0  0  0  0  0  0  0  0  0  0  0
   52.9850  156.6520   26.9710 C   0  0  0  0  0  0  0  0  0  0  0  0
   52.4820  157.6580   27.7990 C   0  0  0  0  0  0  0  0  0  0  0  0
   51.8290  157.3400   28.9930 C   0  0  0  0  0  0  0  0  0  0  0  0
   51.2840  158.4170   29.8470 C   0  0  0  0  0  0  0  0  0  0  0  0
   49.9420  158.2340   30.1560 O   0  0  0  0  0  0  0  0  0  0  0  0
   49.3090  159.1620   30.9430 C   0  0  0  0  0  0  0  0  0  0  0  0
   47.9670  158.9300   31.2420 C   0  0  0  0  0  0  0  0  0  0  0  0
   47.2630  159.8390   32.0370 C   0  0  0  0  0  0  0  0  0  0  0  0
   47.9020  160.9780   32.5310 C   0  0  0  0  0  0  0  0  0  0  0  0
   49.2420  161.2070   32.2320 C   0  0  0  0  0  0  0  0  0  0  0  0
   49.8060  162.3400   32.7480 O   0  0  0  0  0  0  0  0  0  0  0  0
   49.9460  160.2970   31.4370 C   0  0  0  0  0  0  0  0  0  0  0  0
   51.3550  160.5000   31.0980 C   0  0  0  0  0  0  0  0  0  0  0  0
   51.9840  161.4810   31.4900 O   0  0  0  0  0  0  0  0  0  0  0  0
   52.0120  159.4730   30.2560 C   0  0  0  0  0  0  0  0  0  0  0  0
   53.3390  159.6820   29.9310 O   0  0  0  0  0  0  0  0  0  0  0  0
   51.6750  155.9860   29.3240 C   0  0  0  0  0  0  0  0  0  0  0  0
   52.1700  154.9560   28.4990 C   0  0  0  0  0  0  0  0  0  0  0  0
   51.9740  153.5270   28.9560 C   0  0  0  0  0  0  0  0  0  0  0  0
   51.5830  152.6110   27.8050 C   0  0  0  0  0  0  0  0  0  0  0  0
   52.1033  155.1676   24.9027 H   0  0  0  0  0  0  0  0  0  0  0  0
   53.8260  155.0683   24.4033 H   0  0  0  0  0  0  0  0  0  0  0  0
   52.8043  153.5909   24.4033 H   0  0  0  0  0  0  0  0  0  0  0  0
   53.0344  153.2713   26.6478 H   0  0  0  0  0  0  0  0  0  0  0  0
   54.5074  154.3064   26.4211 H   0  0  0  0  0  0  0  0  0  0  0  0
   53.4980  156.9264   26.0375 H   0  0  0  0  0  0  0  0  0  0  0  0
   52.6011  158.7122   27.5082 H   0  0  0  0  0  0  0  0  0  0  0  0
   47.4631  158.0330   30.8529 H   0  0  0  0  0  0  0  0  0  0  0  0
   46.2043  159.6568   32.2737 H   0  0  0  0  0  0  0  0  0  0  0  0
   47.3471  161.6934   33.1557 H   0  0  0  0  0  0  0  0  0  0  0  0
   49.3670  163.1640   32.6600 H   0  0  0  0  0  0  0  0  0  0  0  0
   53.9680  159.8370   30.6080 H   0  0  0  0  0  0  0  0  0  0  0  0
   51.1526  155.7200   30.2548 H   0  0  0  0  0  0  0  0  0  0  0  0
   52.9136  153.1627   29.3969 H   0  0  0  0  0  0  0  0  0  0  0  0
   51.1583  153.5141   29.6938 H   0  0  0  0  0  0  0  0  0  0  0  0
   51.1809  151.6690   28.2063 H   0  0  0  0  0  0  0  0  0  0  0  0
   50.8167  153.1036   27.1884 H   0  0  0  0  0  0  0  0  0  0  0  0
   52.4688  152.3984   27.1884 H   0  0  0  0  0  0  0  0  0  0  0  0
  1  2  1  0
  2  3  1  0
  3  4  2  0
  4  5  1  0
  5  6  2  0
  6  7  1  0
  7  8  1  0
  8  9  1  0
  9 10  2  0
 10 11  1  0
 11 12  2  0
 12 13  1  0
 13 14  1  0
 13 15  2  0
 15 16  1  0
 16 17  2  0
 16 18  1  0
 18 19  1  0
  6 20  1  0
 20 21  2  0
 21 22  1  0
 22 23  1  0
 21  3  1  0
 18  7  2  0
 15  9  1  0
  1 24  1  0
  1 25  1  0
  1 26  1  0
  2 27  1  0
  2 28  1  0
  4 29  1  0
  5 30  1  0
 10 31  1  0
 11 32  1  0
 12 33  1  0
 14 34  1  0
 19 35  1  0
 20 36  1  0
 22 37  1  0
 22 38  1  0
 23 39  1  0
 23 40  1  0
 23 41  1  0
M  END
>  <meeko>  (4) 
{"is_sidechain": [false], "free_energy": -9.793, "intermolecular_energy": -12.329, "internal_energy": 0.334}

$$$$
cand_039_out
     RDKit          3D

 41 43  0  0  0  0  0  0  0  0999 V2000
   52.6130  152.6510   26.0620 C   0  0  0  0  0  0  0  0  0  0  0  0
   53.4920  153.3560   27.0850 C   0  0  0  0  0  0  0  0  0  0  0  0
   52.7810  154.5200   27.7350 C   0  0  0  0  0  0  0  0  0  0  0  0
   51.9910  154.2610   28.8690 C   0  0  0  0  0  0  0  0  0  0  0  0
   51.3120  155.2900   29.5250 C   0  0  0  0  0  0  0  0  0  0  0  0
   51.3960  156.6070   29.0670 C   0  0  0  0  0  0  0  0  0  0  0  0
   50.6860  157.6860   29.7870 C   0  0  0  0  0  0  0  0  0  0  0  0
   51.5310  158.7170   30.1830 O   0  0  0  0  0  0  0  0  0  0  0  0
   51.0020  159.7850   30.8630 C   0  0  0  0  0  0  0  0  0  0  0  0
   51.8830  160.8030   31.2260 C   0  0  0  0  0  0  0  0  0  0  0  0
   51.4090  161.9180   31.9230 C   0  0  0  0  0  0  0  0  0  0  0  0
   50.0560  162.0130   32.2550 C   0  0  0  0  0  0  0  0  0  0  0  0
   49.1790  160.9950   31.8910 C   0  0  0  0  0  0  0  0  0  0  0  0
   47.8680  161.1510   32.2470 O   0  0  0  0  0  0  0  0  0  0  0  0
   49.6530  159.8800   31.1930 C   0  0  0  0  0  0  0  0  0  0  0  0
   48.7660  158.7870   30.7920 C   0  0  0  0  0  0  0  0  0  0  0  0
   47.5650  158.7950   31.0540 O   0  0  0  0  0  0  0  0  0  0  0  0
   49.3660  157.6550   30.0490 C   0  0  0  0  0  0  0  0  0  0  0  0
   48.5210  156.6230   29.6870 O   0  0  0  0  0  0  0  0  0  0  0  0
   52.1970  156.8700   27.9470 C   0  0  0  0  0  0  0  0  0  0  0  0
   52.8960  155.8460   27.2740 C   0  0  0  0  0  0  0  0  0  0  0  0
   53.7140  156.2290   26.0600 C   0  0  0  0  0  0  0  0  0  0  0  0
   52.8940  156.1620   24.7800 C   0  0  0  0  0  0  0  0  0  0  0  0
   51.8574  152.0450   26.5834 H   0  0  0  0  0  0  0  0  0  0  0  0
   52.1112  153.3999   25.4316 H   0  0  0  0  0  0  0  0  0  0  0  0
   53.2351  151.9986   25.4316 H   0  0  0  0  0  0  0  0  0  0  0  0
   53.7785  152.6346   27.8644 H   0  0  0  0  0  0  0  0  0  0  0  0
   54.3764  153.7475   26.5611 H   0  0  0  0  0  0  0  0  0  0  0  0
   51.9064  153.2309   29.2456 H   0  0  0  0  0  0  0  0  0  0  0  0
   50.7040  155.0608   30.4126 H   0  0  0  0  0  0  0  0  0  0  0  0
   52.9489  160.7287   30.9644 H   0  0  0  0  0  0  0  0  0  0  0  0
   52.1028  162.7218   32.2104 H   0  0  0  0  0  0  0  0  0  0  0  0
   49.6837  162.8909   32.8033 H   0  0  0  0  0  0  0  0  0  0  0  0
   47.4550  160.5200   32.8030 H   0  0  0  0  0  0  0  0  0  0  0  0
   47.9090  156.2780   30.3070 H   0  0  0  0  0  0  0  0  0  0  0  0
   52.2829  157.9043   27.5825 H   0  0  0  0  0  0  0  0  0  0  0  0
   54.0857  157.2560   26.1910 H   0  0  0  0  0  0  0  0  0  0  0  0
   54.5459  155.5150   25.9700 H   0  0  0  0  0  0  0  0  0  0  0  0
   51.8269  156.0748   25.0323 H   0  0  0  0  0  0  0  0  0  0  0  0
   53.0580  157.0765   24.1912 H   0  0  0  0  0  0  0  0  0  0  0  0
   53.2043  155.2862   24.1912 H   0  0  0  0  0  0  0  0  0  0  0  0
  1  2  1  0
  2  3  1  0
  3  4  2  0
  4  5  1  0
  5  6  2  0
  6  7  1  0
  7  8  1  0
  8  9  1  0
  9 10  2  0
 10 11  1  0
 11 12  2  0
 12 13  1  0
 13 14  1  0
 13 15  2  0
 15 16  1  0
 16 17  2  0
 16 18  1  0
 18 19  1  0
  6 20  1  0
 20 21  2  0
 21 22  1  0
 22 23  1  0
 21  3  1  0
 18  7  2  0
 15  9  1  0
  1 24  1  0
  1 25  1  0
  1 26  1  0
  2 27  1  0
  2 28  1  0
  4 29  1  0
  5 30  1  0
 10 31  1  0
 11 32  1  0
 12 33  1  0
 14 34  1  0
 19 35  1  0
 20 36  1  0
 22 37  1  0
 22 38  1  0
 23 39  1  0
 23 40  1  0
 23 41  1  0
M  END
>  <meeko>  (5) 
{"is_sidechain": [false], "free_energy": -8.72, "intermolecular_energy": -10.204, "internal_energy": -0.467}

$$$$
