cand_010_out
     RDKit          3D

 35 37  0  0  0  0  0  0  0  0999 V2000
   52.4350  160.6480   30.6590 O   0  0  0  0  0  0  0  0  0  0  0  0
   51.6910  159.6990   30.4170 C   0  0  0  0  0  0  0  0  0  0  0  0
   52.1950  158.5170   29.6810 C   0  0  0  0  0  0  0  0  0  0  0  0
   53.5250  158.5310   29.3020 O   0  0  0  0  0  0  0  0  0  0  0  0
   51.3480  157.5000   29.4410 C   0  0  0  0  0  0  0  0  0  0  0  0
   51.7450  156.2680   28.7260 C   0  0  0  0  0  0  0  0  0  0  0  0
   51.5890  155.0020   29.2980 C   0  0  0  0  0  0  0  0  0  0  0  0
   51.9960  153.8530   28.6160 C   0  0  0  0  0  0  0  0  0  0  0  0
   52.5810  153.9380   27.3430 C   0  0  0  0  0  0  0  0  0  0  0  0
   53.0010  152.6710   26.6340 C   0  0  0  0  0  0  0  0  0  0  0  0
   54.3470  152.4530   26.6720 F   0  0  0  0  0  0  0  0  0  0  0  0
   52.7490  155.2090   26.7500 C   0  0  0  0  0  0  0  0  0  0  0  0
   53.3750  155.3610   25.3820 C   0  0  0  0  0  0  0  0  0  0  0  0
   54.6830  154.9860   25.3290 F   0  0  0  0  0  0  0  0  0  0  0  0
   52.7360  154.6180   24.4370 F   0  0  0  0  0  0  0  0  0  0  0  0
   53.3380  156.6460   24.9330 F   0  0  0  0  0  0  0  0  0  0  0  0
   52.3350  156.3580   27.4560 C   0  0  0  0  0  0  0  0  0  0  0  0
   50.0200  157.4820   29.8520 O   0  0  0  0  0  0  0  0  0  0  0  0
   49.5220  158.5660   30.5280 C   0  0  0  0  0  0  0  0  0  0  0  0
   48.1810  158.5120   30.9100 C   0  0  0  0  0  0  0  0  0  0  0  0
   47.6110  159.5820   31.6030 C   0  0  0  0  0  0  0  0  0  0  0  0
   48.3800  160.7050   31.9130 C   0  0  0  0  0  0  0  0  0  0  0  0
   49.7180  160.7570   31.5300 C   0  0  0  0  0  0  0  0  0  0  0  0
   50.4140  161.8850   31.8670 O   0  0  0  0  0  0  0  0  0  0  0  0
   50.2890  159.6860   30.8370 C   0  0  0  0  0  0  0  0  0  0  0  0
   53.8850  157.8060   28.8290 H   0  0  0  0  0  0  0  0  0  0  0  0
   51.1400  154.9095   30.2979 H   0  0  0  0  0  0  0  0  0  0  0  0
   51.8560  152.8671   29.0834 H   0  0  0  0  0  0  0  0  0  0  0  0
   52.4956  151.8191   27.1124 H   0  0  0  0  0  0  0  0  0  0  0  0
   52.7180  152.7799   25.5766 H   0  0  0  0  0  0  0  0  0  0  0  0
   52.4782  157.3487   26.9998 H   0  0  0  0  0  0  0  0  0  0  0  0
   47.5738  157.6279   30.6656 H   0  0  0  0  0  0  0  0  0  0  0  0
   46.5541  159.5398   31.9051 H   0  0  0  0  0  0  0  0  0  0  0  0
   47.9300  161.5474   32.4588 H   0  0  0  0  0  0  0  0  0  0  0  0
   51.1860  162.1190   31.3890 H   0  0  0  0  0  0  0  0  0  0  0  0
  1  2  2  0
  2  3  1  0
  3  4  1  0
  3  5  2  0
  5  6  1  0
  6  7  2  0
  7  8  1  0
  8  9  2  0
  9 10  1  0
 10 11  1  0
  9 12  1  0
 12 13  1  0
 13 14  1  0
 13 15  1  0
 13 16  1  0
 12 17  2  0
  5 18  1  0
 18 19  1  0
 19 20  2  0
 20 21  1  0
 21 22  2  0
 22 23  1  0
 23 24  1  0
 23 25  2  0
 25  2  1  0
 17  6  1  0
 25 19  1  0
  4 26  1  0
  7 27  1  0
  8 28  1  0
 10 29  1  0
 10 30  1  0
 17 31  1  0
 20 32  1  0
 21 33  1  0
 22 34  1  0
 24 35  1  0
M  END
>  <meeko>  (1) 
{"is_sidechain": [false], "free_energy": -11.187, "intermolecular_energy": -13.803, "internal_energy": -0.293}

$$$$
cand_010_out
     RDKit          3D

 35 37  0  0  0  0  0  0  0  0999 V2000
   52.1600  153.0470   28.8560 O   0  0  0  0  0  0  0  0  0  0  0  0
   52.2940  154.1970   28.4410 C   0  0  0  0  0  0  0  0  0  0  0  0
   51.8010  155.3440   29.2370 C   0  0  0  0  0  0  0  0  0  0  0  0
   51.2100  155.0600   30.4540 O   0  0  0  0  0  0  0  0  0  0  0  0
   51.9710  156.5860   28.7470 C   0  0  0  0  0  0  0  0  0  0  0  0
   51.5290  157.8040   29.4600 C   0  0  0  0  0  0  0  0  0  0  0  0
   52.4240  158.8230   29.7980 C   0  0  0  0  0  0  0  0  0  0  0  0
   51.9910  159.9540   30.4960 C   0  0  0  0  0  0  0  0  0  0  0  0
   50.6490  160.0920   30.8830 C   0  0  0  0  0  0  0  0  0  0  0  0
   50.2190  161.3340   31.6300 C   0  0  0  0  0  0  0  0  0  0  0  0
   50.0830  161.1350   32.9730 F   0  0  0  0  0  0  0  0  0  0  0  0
   49.7310  159.0710   30.5520 C   0  0  0  0  0  0  0  0  0  0  0  0
   48.2750  159.1660   30.9460 C   0  0  0  0  0  0  0  0  0  0  0  0
   47.7530  160.4200   30.8340 F   0  0  0  0  0  0  0  0  0  0  0  0
   47.4810  158.3630   30.1860 F   0  0  0  0  0  0  0  0  0  0  0  0
   48.0600  158.7880   32.2360 F   0  0  0  0  0  0  0  0  0  0  0  0
   50.1880  157.9360   29.8500 C   0  0  0  0  0  0  0  0  0  0  0  0
   52.5940  156.8640   27.5360 O   0  0  0  0  0  0  0  0  0  0  0  0
   53.0520  155.8220   26.7720 C   0  0  0  0  0  0  0  0  0  0  0  0
   53.6580  156.1450   25.5570 C   0  0  0  0  0  0  0  0  0  0  0  0
   54.1480  155.1300   24.7320 C   0  0  0  0  0  0  0  0  0  0  0  0
   54.0320  153.7940   25.1200 C   0  0  0  0  0  0  0  0  0  0  0  0
   53.4260  153.4740   26.3330 C   0  0  0  0  0  0  0  0  0  0  0  0
   53.3470  152.1460   26.6520 O   0  0  0  0  0  0  0  0  0  0  0  0
   52.9360  154.4890   27.1590 C   0  0  0  0  0  0  0  0  0  0  0  0
   51.7320  154.7480   31.1670 H   0  0  0  0  0  0  0  0  0  0  0  0
   53.4822  158.7338   29.5112 H   0  0  0  0  0  0  0  0  0  0  0  0
   52.7118  160.7466   30.7454 H   0  0  0  0  0  0  0  0  0  0  0  0
   50.9733  162.1180   31.4676 H   0  0  0  0  0  0  0  0  0  0  0  0
   49.2314  161.6229   31.2413 H   0  0  0  0  0  0  0  0  0  0  0  0
   49.4757  157.1352   29.6024 H   0  0  0  0  0  0  0  0  0  0  0  0
   53.7496  157.1972   25.2496 H   0  0  0  0  0  0  0  0  0  0  0  0
   54.6263  155.3839   23.7745 H   0  0  0  0  0  0  0  0  0  0  0  0
   54.4183  152.9956   24.4693 H   0  0  0  0  0  0  0  0  0  0  0  0
   52.7990  151.5760   26.1490 H   0  0  0  0  0  0  0  0  0  0  0  0
  1  2  2  0
  2  3  1  0
  3  4  1  0
  3  5  2  0
  5  6  1  0
  6  7  2  0
  7  8  1  0
  8  9  2  0
  9 10  1  0
 10 11  1  0
  9 12  1  0
 12 13  1  0
 13 14  1  0
 13 15  1  0
 13 16  1  0
 12 17  2  0
  5 18  1  0
 18 19  1  0
 19 20  2  0
 20 21  1  0
 21 22  2  0
 22 23  1  0
 23 24  1  0
 23 25  2  0
 25  2  1  0
 17  6  1  0
 25 19  1  0
  4 26  1  0
  7 27  1  0
  8 28  1  0
 10 29  1  0
 10 30  1  0
 17 31  1  0
 20 32  1  0
 21 33  1  0
 22 34  1  0
 24 35  1  0
M  END
>  <meeko>  (2) 
{"is_sidechain": [false], "free_energy": -11.127, "intermolecular_energy": -13.82, "internal_energy": -0.202}

$$$$
cand_010_out
     RDKit          3D

 35 37  0  0  0  0  0  0  0  0999 V2000
   53.0200  152.6950   28.3000 O   0  0  0  0  0  0  0  0  0  0  0  0
   52.8140  153.8690   27.9950 C   0  0  0  0  0  0  0  0  0  0  0  0
   51.9900  154.7380   28.8670 C   0  0  0  0  0  0  0  0  0  0  0  0
   51.4870  154.1740   30.0250 O   0  0  0  0  0  0  0  0  0  0  0  0
   51.7940  156.0170   28.4980 C   0  0  0  0  0  0  0  0  0  0  0  0
   50.9990  156.9750   29.2950 C   0  0  0  0  0  0  0  0  0  0  0  0
   49.6830  156.7000   29.6800 C   0  0  0  0  0  0  0  0  0  0  0  0
   48.9410  157.6320   30.4110 C   0  0  0  0  0  0  0  0  0  0  0  0
   49.4920  158.8710   30.7700 C   0  0  0  0  0  0  0  0  0  0  0  0
   48.6600  159.8480   31.5670 C   0  0  0  0  0  0  0  0  0  0  0  0
   48.8970  159.7900   32.9100 F   0  0  0  0  0  0  0  0  0  0  0  0
   50.8190  159.1680   30.3880 C   0  0  0  0  0  0  0  0  0  0  0  0
   51.4630  160.4880   30.7450 C   0  0  0  0  0  0  0  0  0  0  0  0
   51.5130  160.7340   32.0840 F   0  0  0  0  0  0  0  0  0  0  0  0
   52.7470  160.5730   30.3020 F   0  0  0  0  0  0  0  0  0  0  0  0
   50.8100  161.5500   30.1960 F   0  0  0  0  0  0  0  0  0  0  0  0
   51.5510  158.2160   29.6470 C   0  0  0  0  0  0  0  0  0  0  0  0
   52.3280  156.5840   27.3470 O   0  0  0  0  0  0  0  0  0  0  0  0
   53.0880  155.8010   26.5150 C   0  0  0  0  0  0  0  0  0  0  0  0
   53.5940  156.4060   25.3640 C   0  0  0  0  0  0  0  0  0  0  0  0
   54.3770  155.6670   24.4750 C   0  0  0  0  0  0  0  0  0  0  0  0
   54.6540  154.3240   24.7370 C   0  0  0  0  0  0  0  0  0  0  0  0
   54.1480  153.7220   25.8860 C   0  0  0  0  0  0  0  0  0  0  0  0
   54.4590  152.4040   26.0820 O   0  0  0  0  0  0  0  0  0  0  0  0
   53.3650  154.4620   26.7760 C   0  0  0  0  0  0  0  0  0  0  0  0
   50.5910  154.3160   30.2640 H   0  0  0  0  0  0  0  0  0  0  0  0
   49.2261  155.7382   29.4041 H   0  0  0  0  0  0  0  0  0  0  0  0
   47.9101  157.3904   30.7091 H   0  0  0  0  0  0  0  0  0  0  0  0
   48.8858  160.8659   31.2164 H   0  0  0  0  0  0  0  0  0  0  0  0
   47.6046  159.5800   31.4108 H   0  0  0  0  0  0  0  0  0  0  0  0
   52.5798  158.4526   29.3377 H   0  0  0  0  0  0  0  0  0  0  0  0
   53.3762  157.4642   25.1572 H   0  0  0  0  0  0  0  0  0  0  0  0
   54.7760  156.1434   23.5673 H   0  0  0  0  0  0  0  0  0  0  0  0
   55.2712  153.7422   24.0366 H   0  0  0  0  0  0  0  0  0  0  0  0
   54.5810  152.0770   26.9520 H   0  0  0  0  0  0  0  0  0  0  0  0
  1  2  2  0
  2  3  1  0
  3  4  1  0
  3  5  2  0
  5  6  1  0
  6  7  2  0
  7  8  1  0
  8  9  2  0
  9 10  1  0
 10 11  1  0
  9 12  1  0
 12 13  1  0
 13 14  1  0
 13 15  1  0
 13 16  1  0
 12 17  2  0
  5 18  1  0
 18 19  1  0
 19 20  2  0
 20 21  1  0
 21 22  2  0
 22 23  1  0
 23 24  1  0
 23 25  2  0
 25  2  1  0
 17  6  1  0
 25 19  1  0
  4 26  1  0
  7 27  1  0
  8 28  1  0
 10 29  1  0
 10 30  1  0
 17 31  1  0
 20 32  1  0
 21 33  1  0
 22 34  1  0
 24 35  1  0
M  END
>  <meeko>  (3) 
{"is_sidechain": [false], "free_energy": -10.633, "intermolecular_energy": -13.067, "internal_energy": -0.344}

$$$$
cand_010_out
     RDKit          3D

 35 37  0  0  0  0  0  0  0  0999 V2000
   52.2820  152.3400   28.2750 O   0  0  0  0  0  0  0  0  0  0  0  0
   52.4420  153.4940   27.8810 C   0  0  0  0  0  0  0  0  0  0  0  0
   52.0020  154.6390   28.7100 C   0  0  0  0  0  0  0  0  0  0  0  0
   51.4270  154.3470   29.9340 O   0  0  0  0  0  0  0  0  0  0  0  0
   52.1990  155.8850   28.2420 C   0  0  0  0  0  0  0  0  0  0  0  0
   51.8110  157.1000   28.9890 C   0  0  0  0  0  0  0  0  0  0  0  0
   52.7450  158.0820   29.3340 C   0  0  0  0  0  0  0  0  0  0  0  0
   52.3610  159.2110   30.0640 C   0  0  0  0  0  0  0  0  0  0  0  0
   51.0310  159.3840   30.4770 C   0  0  0  0  0  0  0  0  0  0  0  0
   50.6540  160.6220   31.2580 C   0  0  0  0  0  0  0  0  0  0  0  0
   50.5750  161.7440   30.4850 F   0  0  0  0  0  0  0  0  0  0  0  0
   50.0740  158.4020   30.1390 C   0  0  0  0  0  0  0  0  0  0  0  0
   48.6290  158.5360   30.5610 C   0  0  0  0  0  0  0  0  0  0  0  0
   48.0700  159.7370   30.2430 F   0  0  0  0  0  0  0  0  0  0  0  0
   47.8330  157.5920   29.9860 F   0  0  0  0  0  0  0  0  0  0  0  0
   48.4630  158.3930   31.9050 F   0  0  0  0  0  0  0  0  0  0  0  0
   50.4820  157.2680   29.4060 C   0  0  0  0  0  0  0  0  0  0  0  0
   52.8050  156.1690   27.0240 O   0  0  0  0  0  0  0  0  0  0  0  0
   53.2150  155.1290   26.2290 C   0  0  0  0  0  0  0  0  0  0  0  0
   53.8050  155.4590   25.0090 C   0  0  0  0  0  0  0  0  0  0  0  0
   54.2460  154.4480   24.1530 C   0  0  0  0  0  0  0  0  0  0  0  0
   54.0970  153.1080   24.5170 C   0  0  0  0  0  0  0  0  0  0  0  0
   53.5070  152.7810   25.7350 C   0  0  0  0  0  0  0  0  0  0  0  0
   53.3940  151.4500   26.0290 O   0  0  0  0  0  0  0  0  0  0  0  0
   53.0660  153.7930   26.5910 C   0  0  0  0  0  0  0  0  0  0  0  0
   51.9570  154.0170   30.6340 H   0  0  0  0  0  0  0  0  0  0  0  0
   53.7948  157.9648   29.0272 H   0  0  0  0  0  0  0  0  0  0  0  0
   53.1116  159.9739   30.3180 H   0  0  0  0  0  0  0  0  0  0  0  0
   49.6746  160.4529   31.7293 H   0  0  0  0  0  0  0  0  0  0  0  0
   51.4470  160.7930   32.0009 H   0  0  0  0  0  0  0  0  0  0  0  0
   49.7396  156.4961   29.1550 H   0  0  0  0  0  0  0  0  0  0  0  0
   53.9227  156.5143   24.7217 H   0  0  0  0  0  0  0  0  0  0  0  0
   54.7114  154.7073   23.1906 H   0  0  0  0  0  0  0  0  0  0  0  0
   54.4453  152.3120   23.8424 H   0  0  0  0  0  0  0  0  0  0  0  0
   52.5520  151.0830   26.2180 H   0  0  0  0  0  0  0  0  0  0  0  0
  1  2  2  0
  2  3  1  0
  3  4  1  0
  3  5  2  0
  5  6  1  0
  6  7  2  0
  7  8  1  0
  8  9  2  0
  9 10  1  0
 10 11  1  0
  9 12  1  0
 12 13  1  0
 13 14  1  0
 13 15  1  0
 13 16  1  0
 12 17  2  0
  5 18  1  0
 18 19  1  0
 19 20  2  0
 20 21  1  0
 21 22  2  0
 22 23  1  0
 23 24  1  0
 23 25  2  0
 25  2  1  0
 17  6  1  0
 25 19  1  0
  4 26  1  0
  7 27  1  0
  8 28  1  0
 10 29  1  0
 10 30  1  0
 17 31  1  0
 20 32  1  0
 21 33  1  0
 22 34  1  0
 24 35  1  0
M  END
>  <meeko>  (4) 
{"is_sidechain": [false], "free_energy": -10.23, "intermolecular_energy": -12.648, "internal_energy": -0.267}

$$$$
cand_010_out
     RDKit          3D

 35 37  0  0  0  0  0  0  0  0999 V2000
   48.0030  158.1440   30.7590 O   0  0  0  0  0  0  0  0  0  0  0  0
   49.1820  158.1280   30.4070 C   0  0  0  0  0  0  0  0  0  0  0  0
   49.7350  156.9550   29.6920 C   0  0  0  0  0  0  0  0  0  0  0  0
   48.8700  155.9080   29.4320 O   0  0  0  0  0  0  0  0  0  0  0  0
   51.0290  156.9800   29.3220 C   0  0  0  0  0  0  0  0  0  0  0  0
   51.6830  155.8720   28.5940 C   0  0  0  0  0  0  0  0  0  0  0  0
   51.7670  154.5850   29.1340 C   0  0  0  0  0  0  0  0  0  0  0  0
   52.4140  153.5580   28.4400 C   0  0  0  0  0  0  0  0  0  0  0  0
   53.0040  153.7930   27.1890 C   0  0  0  0  0  0  0  0  0  0  0  0
   53.6870  152.6550   26.4670 C   0  0  0  0  0  0  0  0  0  0  0  0
   52.9170  152.0960   25.4890 F   0  0  0  0  0  0  0  0  0  0  0  0
   52.9310  155.0880   26.6290 C   0  0  0  0  0  0  0  0  0  0  0  0
   53.5520  155.3990   25.2860 C   0  0  0  0  0  0  0  0  0  0  0  0
   54.8750  155.0870   25.2040 F   0  0  0  0  0  0  0  0  0  0  0  0
   52.9470  154.7250   24.2690 F   0  0  0  0  0  0  0  0  0  0  0  0
   53.4600  156.7190   24.9630 F   0  0  0  0  0  0  0  0  0  0  0  0
   52.2770  156.1120   27.3460 C   0  0  0  0  0  0  0  0  0  0  0  0
   51.8840  158.0500   29.5610 O   0  0  0  0  0  0  0  0  0  0  0  0
   51.4020  159.1460   30.2300 C   0  0  0  0  0  0  0  0  0  0  0  0
   52.2980  160.1900   30.4610 C   0  0  0  0  0  0  0  0  0  0  0  0
   51.8720  161.3370   31.1350 C   0  0  0  0  0  0  0  0  0  0  0  0
   50.5520  161.4380   31.5780 C   0  0  0  0  0  0  0  0  0  0  0  0
   49.6600  160.3940   31.3470 C   0  0  0  0  0  0  0  0  0  0  0  0
   48.3820  160.5600   31.8060 O   0  0  0  0  0  0  0  0  0  0  0  0
   50.0860  159.2470   30.6720 C   0  0  0  0  0  0  0  0  0  0  0  0
   48.5110  155.4100   30.1410 H   0  0  0  0  0  0  0  0  0  0  0  0
   51.3186  154.3779   30.1169 H   0  0  0  0  0  0  0  0  0  0  0  0
   52.4611  152.5514   28.8812 H   0  0  0  0  0  0  0  0  0  0  0  0
   54.6108  153.0372   26.0082 H   0  0  0  0  0  0  0  0  0  0  0  0
   53.8874  151.8706   27.2117 H   0  0  0  0  0  0  0  0  0  0  0  0
   52.2317  157.1234   26.9159 H   0  0  0  0  0  0  0  0  0  0  0  0
   53.3384  160.1101   30.1129 H   0  0  0  0  0  0  0  0  0  0  0  0
   52.5773  162.1613   31.3168 H   0  0  0  0  0  0  0  0  0  0  0  0
   50.2169  162.3413   32.1089 H   0  0  0  0  0  0  0  0  0  0  0  0
   47.6920  160.7650   31.2060 H   0  0  0  0  0  0  0  0  0  0  0  0
  1  2  2  0
  2  3  1  0
  3  4  1  0
  3  5  2  0
  5  6  1  0
  6  7  2  0
  7  8  1  0
  8  9  2  0
  9 10  1  0
 10 11  1  0
  9 12  1  0
 12 13  1  0
 13 14  1  0
 13 15  1  0
 13 16  1  0
 12 17  2  0
  5 18  1  0
 18 19  1  0
 19 20  2  0
 20 21  1  0
 21 22  2  0
 22 23  1  0
 23 24  1  0
 23 25  2  0
 25  2  1  0
 17  6  1  0
 25 19  1  0
  4 26  1  0
  7 27  1  0
  8 28  1  0
 10 29  1  0
 10 30  1  0
 17 31  1  0
 20 32  1  0
 21 33  1  0
 22 34  1  0
 24 35  1  0
M  END
>  <meeko>  (5) 
{"is_sidechain": [false], "free_energy": -9.576, "intermolecular_energy": -11.703, "internal_energy": -0.405}

$$$$
cand_010_out
     RDKit          3D

 35 37  0  0  0  0  0  0  0  0999 V2000
   52.0210  161.4510   31.4420 O   0  0  0  0  0  0  0  0  0  0  0  0
   51.3870  160.4780   31.0370 C   0  0  0  0  0  0  0  0  0  0  0  0
   52.0310  159.4760   30.1570 C   0  0  0  0  0  0  0  0  0  0  0  0
   53.3600  159.6820   29.8330 O   0  0  0  0  0  0  0  0  0  0  0  0
   51.3030  158.4240   29.7400 C   0  0  0  0  0  0  0  0  0  0  0  0
   51.8450  157.3590   28.8690 C   0  0  0  0  0  0  0  0  0  0  0  0
   52.5040  157.6530   27.6710 C   0  0  0  0  0  0  0  0  0  0  0  0
   52.9860  156.6290   26.8500 C   0  0  0  0  0  0  0  0  0  0  0  0
   52.8120  155.2820   27.2000 C   0  0  0  0  0  0  0  0  0  0  0  0
   53.3540  154.2050   26.2890 C   0  0  0  0  0  0  0  0  0  0  0  0
   52.3990  153.6390   25.4940 F   0  0  0  0  0  0  0  0  0  0  0  0
   52.1460  154.9660   28.4050 C   0  0  0  0  0  0  0  0  0  0  0  0
   51.9280  153.5320   28.8300 C   0  0  0  0  0  0  0  0  0  0  0  0
   51.1510  152.8140   27.9720 F   0  0  0  0  0  0  0  0  0  0  0  0
   53.0980  152.8430   28.9390 F   0  0  0  0  0  0  0  0  0  0  0  0
   51.3260  153.4360   30.0470 F   0  0  0  0  0  0  0  0  0  0  0  0
   51.6640  156.0130   29.2190 C   0  0  0  0  0  0  0  0  0  0  0  0
   49.9760  158.2090   30.0950 O   0  0  0  0  0  0  0  0  0  0  0  0
   49.3500  159.1240   30.9020 C   0  0  0  0  0  0  0  0  0  0  0  0
   48.0150  158.8770   31.2220 C   0  0  0  0  0  0  0  0  0  0  0  0
   47.3190  159.7690   32.0420 C   0  0  0  0  0  0  0  0  0  0  0  0
   47.9570  160.9060   32.5400 C   0  0  0  0  0  0  0  0  0  0  0  0
   49.2900  161.1510   32.2180 C   0  0  0  0  0  0  0  0  0  0  0  0
   49.8540  162.2820   32.7410 O   0  0  0  0  0  0  0  0  0  0  0  0
   49.9860  160.2590   31.3990 C   0  0  0  0  0  0  0  0  0  0  0  0
   53.5850  160.2170   29.0960 H   0  0  0  0  0  0  0  0  0  0  0  0
   52.6447  158.7020   27.3712 H   0  0  0  0  0  0  0  0  0  0  0  0
   53.5091  156.8834   25.9164 H   0  0  0  0  0  0  0  0  0  0  0  0
   54.1266  154.6493   25.6442 H   0  0  0  0  0  0  0  0  0  0  0  0
   53.7577  153.4081   26.9309 H   0  0  0  0  0  0  0  0  0  0  0  0
   51.1334  155.7675   30.1508 H   0  0  0  0  0  0  0  0  0  0  0  0
   47.5110  157.9815   30.8295 H   0  0  0  0  0  0  0  0  0  0  0  0
   46.2664  159.5747   32.2955 H   0  0  0  0  0  0  0  0  0  0  0  0
   47.4082  161.6075   33.1856 H   0  0  0  0  0  0  0  0  0  0  0  0
   50.7420  162.2670   33.0410 H   0  0  0  0  0  0  0  0  0  0  0  0
  1  2  2  0
  2  3  1  0
  3  4  1  0
  3  5  2  0
  5  6  1  0
  6  7  2  0
  7  8  1  0
  8  9  2  0
  9 10  1  0
 10 11  1  0
  9 12  1  0
 12 13  1  0
 13 14  1  0
 13 15  1  0
 13 16  1  0
 12 17  2  0
  5 18  1  0
 18 19  1  0
 19 20  2  0
 20 21  1  0
 21 22  2  0
 22 23  1  0
 23 24  1  0
 23 25  2  0
 25  2  1  0
 17  6  1  0
 25 19  1  0
  4 26  1  0
  7 27  1  0
  8 28  1  0
 10 29  1  0
 10 30  1  0
 17 31  1  0
 20 32  1  0
 21 33  1  0
 22 34  1  0
 24 35  1  0
M  END
>  <meeko>  (6) 
{"is_sidechain": [false], "free_energy": -9.247, "intermolecular_energy": -11.393, "internal_energy": -0.309}

$$$$
