cand_018_out
     RDKit          3D

 44 47  0  0  0  0  0  0  0  0999 V2000
   52.4360  152.5150   27.0760 C   0  0  0  0  0  0  0  0  0  0  0  0
   52.1270  153.8470   27.7040 C   0  0  0  0  0  0  0  0  0  0  0  0
   51.6150  153.8900   29.0090 C   0  0  0  0  0  0  0  0  0  0  0  0
   51.3220  155.1100   29.6190 C   0  0  0  0  0  0  0  0  0  0  0  0
   51.5460  156.3150   28.9460 C   0  0  0  0  0  0  0  0  0  0  0  0
   51.2150  157.5980   29.6010 C   0  0  0  0  0  0  0  0  0  0  0  0
   49.9050  157.6430   30.0660 O   0  0  0  0  0  0  0  0  0  0  0  0
   49.4630  158.7790   30.6960 C   0  0  0  0  0  0  0  0  0  0  0  0
   48.1370  158.7860   31.1330 C   0  0  0  0  0  0  0  0  0  0  0  0
   47.6250  159.9090   31.7830 C   0  0  0  0  0  0  0  0  0  0  0  0
   48.4370  161.0250   31.9990 C   0  0  0  0  0  0  0  0  0  0  0  0
   49.7590  161.0150   31.5640 C   0  0  0  0  0  0  0  0  0  0  0  0
   50.4990  162.1390   31.8080 O   0  0  0  0  0  0  0  0  0  0  0  0
   50.2720  159.8890   30.9110 C   0  0  0  0  0  0  0  0  0  0  0  0
   51.6550  159.8370   30.4370 C   0  0  0  0  0  0  0  0  0  0  0  0
   52.4340  160.7760   30.5950 O   0  0  0  0  0  0  0  0  0  0  0  0
   52.0980  158.6020   29.7500 C   0  0  0  0  0  0  0  0  0  0  0  0
   53.4120  158.5600   29.3190 O   0  0  0  0  0  0  0  0  0  0  0  0
   52.0550  156.2670   27.6380 C   0  0  0  0  0  0  0  0  0  0  0  0
   52.3520  155.0470   27.0010 C   0  0  0  0  0  0  0  0  0  0  0  0
   52.8990  154.9950   25.7070 N   0  0  0  0  0  0  0  0  0  0  0  0
   54.1380  154.1930   25.6570 C   0  0  0  0  0  0  0  0  0  0  0  0
   54.9530  154.8380   24.5430 C   0  0  0  0  0  0  0  0  0  0  0  0
   54.6180  156.3090   24.7090 C   0  0  0  0  0  0  0  0  0  0  0  0
   53.1250  156.2790   25.0190 C   0  0  0  0  0  0  0  0  0  0  0  0
   52.6091  151.7688   27.8654 H   0  0  0  0  0  0  0  0  0  0  0  0
   51.5875  152.1983   26.4517 H   0  0  0  0  0  0  0  0  0  0  0  0
   53.3373  152.6042   26.4517 H   0  0  0  0  0  0  0  0  0  0  0  0
   51.4427  152.9521   29.5573 H   0  0  0  0  0  0  0  0  0  0  0  0
   50.9108  155.1241   30.6392 H   0  0  0  0  0  0  0  0  0  0  0  0
   47.4970  157.9073   30.9650 H   0  0  0  0  0  0  0  0  0  0  0  0
   46.5799  159.9158   32.1261 H   0  0  0  0  0  0  0  0  0  0  0  0
   48.0323  161.9100   32.5119 H   0  0  0  0  0  0  0  0  0  0  0  0
   50.0700  162.9520   31.9870 H   0  0  0  0  0  0  0  0  0  0  0  0
   53.8900  157.7550   29.3510 H   0  0  0  0  0  0  0  0  0  0  0  0
   52.2264  157.2088   27.0961 H   0  0  0  0  0  0  0  0  0  0  0  0
   54.6760  154.2453   26.6150 H   0  0  0  0  0  0  0  0  0  0  0  0
   53.9433  153.1259   25.4743 H   0  0  0  0  0  0  0  0  0  0  0  0
   56.0292  154.6564   24.6801 H   0  0  0  0  0  0  0  0  0  0  0  0
   54.7221  154.4433   23.5425 H   0  0  0  0  0  0  0  0  0  0  0  0
   55.1867  156.7543   25.5387 H   0  0  0  0  0  0  0  0  0  0  0  0
   54.8689  156.9164   23.8269 H   0  0  0  0  0  0  0  0  0  0  0  0
   52.8496  157.1203   25.6720 H   0  0  0  0  0  0  0  0  0  0  0  0
   52.5141  156.3709   24.1088 H   0  0  0  0  0  0  0  0  0  0  0  0
  1  2  1  0
  2  3  2  0
  3  4  1  0
  4  5  2  0
  5  6  1  0
  6  7  1  0
  7  8  1  0
  8  9  2  0
  9 10  1  0
 10 11  2  0
 11 12  1  0
 12 13  1  0
 12 14  2  0
 14 15  1  0
 15 16  2  0
 15 17  1  0
 17 18  1  0
  5 19  1  0
 19 20  2  0
 20 21  1  0
 21 22  1  0
 22 23  1  0
 23 24  1  0
 24 25  1  0
 20  2  1  0
 25 21  1  0
 17  6  2  0
 14  8  1  0
  1 26  1  0
  1 27  1  0
  1 28  1  0
  3 29  1  0
  4 30  1  0
  9 31  1  0
 10 32  1  0
 11 33  1  0
 13 34  1  0
 18 35  1  0
 19 36  1  0
 22 37  1  0
 22 38  1  0
 23 39  1  0
 23 40  1  0
 24 41  1  0
 24 42  1  0
 25 43  1  0
 25 44  1  0
M  END
>  <meeko>  (1) 
{"is_sidechain": [false], "free_energy": -11.155, "intermolecular_energy": -13.112, "internal_energy": 0.306}

$$$$
cand_018_out
     RDKit          3D

 44 47  0  0  0  0  0  0  0  0999 V2000
   50.5790  160.9820   31.3770 C   0  0  0  0  0  0  0  0  0  0  0  0
   50.9390  159.7150   30.6490 C   0  0  0  0  0  0  0  0  0  0  0  0
   52.1920  159.6130   30.0250 C   0  0  0  0  0  0  0  0  0  0  0  0
   52.5550  158.4500   29.3440 C   0  0  0  0  0  0  0  0  0  0  0  0
   51.6820  157.3590   29.2820 C   0  0  0  0  0  0  0  0  0  0  0  0
   52.0770  156.1410   28.5430 C   0  0  0  0  0  0  0  0  0  0  0  0
   52.6110  156.4210   27.2890 O   0  0  0  0  0  0  0  0  0  0  0  0
   53.0190  155.3800   26.4950 C   0  0  0  0  0  0  0  0  0  0  0  0
   53.5330  155.7070   25.2390 C   0  0  0  0  0  0  0  0  0  0  0  0
   53.9690  154.6950   24.3810 C   0  0  0  0  0  0  0  0  0  0  0  0
   53.8920  153.3580   24.7780 C   0  0  0  0  0  0  0  0  0  0  0  0
   53.3800  153.0360   26.0320 C   0  0  0  0  0  0  0  0  0  0  0  0
   53.3330  151.7090   26.3580 O   0  0  0  0  0  0  0  0  0  0  0  0
   52.9430  154.0500   26.8900 C   0  0  0  0  0  0  0  0  0  0  0  0
   52.3960  153.7550   28.2160 C   0  0  0  0  0  0  0  0  0  0  0  0
   52.3030  152.6040   28.6400 O   0  0  0  0  0  0  0  0  0  0  0  0
   51.9540  154.8990   29.0450 C   0  0  0  0  0  0  0  0  0  0  0  0
   51.4520  154.6090   30.3010 O   0  0  0  0  0  0  0  0  0  0  0  0
   50.4280  157.4680   29.9040 C   0  0  0  0  0  0  0  0  0  0  0  0
   50.0380  158.6340   30.5910 C   0  0  0  0  0  0  0  0  0  0  0  0
   48.7990  158.7330   31.2480 N   0  0  0  0  0  0  0  0  0  0  0  0
   47.7530  159.3110   30.3810 C   0  0  0  0  0  0  0  0  0  0  0  0
   46.8280  160.0380   31.3490 C   0  0  0  0  0  0  0  0  0  0  0  0
   47.8020  160.5760   32.3810 C   0  0  0  0  0  0  0  0  0  0  0  0
   48.7820  159.4200   32.5520 C   0  0  0  0  0  0  0  0  0  0  0  0
   50.6284  160.8081   32.4620 H   0  0  0  0  0  0  0  0  0  0  0  0
   51.2867  161.7775   31.1005 H   0  0  0  0  0  0  0  0  0  0  0  0
   49.5588  161.2865   31.1005 H   0  0  0  0  0  0  0  0  0  0  0  0
   52.8948  160.4579   30.0731 H   0  0  0  0  0  0  0  0  0  0  0  0
   53.5368  158.3909   28.8515 H   0  0  0  0  0  0  0  0  0  0  0  0
   53.5945  156.7596   24.9257 H   0  0  0  0  0  0  0  0  0  0  0  0
   54.3738  154.9513   23.3908 H   0  0  0  0  0  0  0  0  0  0  0  0
   54.2351  152.5614   24.1015 H   0  0  0  0  0  0  0  0  0  0  0  0
   52.6860  151.1530   25.9700 H   0  0  0  0  0  0  0  0  0  0  0  0
   51.4030  155.2800   30.9520 H   0  0  0  0  0  0  0  0  0  0  0  0
   49.7306  156.6189   29.8533 H   0  0  0  0  0  0  0  0  0  0  0  0
   48.1905  160.0138   29.6567 H   0  0  0  0  0  0  0  0  0  0  0  0
   47.2277  158.5484   29.7873 H   0  0  0  0  0  0  0  0  0  0  0  0
   46.2876  160.8542   30.8472 H   0  0  0  0  0  0  0  0  0  0  0  0
   46.0429  159.3963   31.7754 H   0  0  0  0  0  0  0  0  0  0  0  0
   48.3128  161.4777   32.0121 H   0  0  0  0  0  0  0  0  0  0  0  0
   47.3181  160.8806   33.3207 H   0  0  0  0  0  0  0  0  0  0  0  0
   49.7844  159.7976   32.8023 H   0  0  0  0  0  0  0  0  0  0  0  0
   48.4846  158.7457   33.3686 H   0  0  0  0  0  0  0  0  0  0  0  0
  1  2  1  0
  2  3  2  0
  3  4  1  0
  4  5  2  0
  5  6  1  0
  6  7  1  0
  7  8  1  0
  8  9  2  0
  9 10  1  0
 10 11  2  0
 11 12  1  0
 12 13  1  0
 12 14  2  0
 14 15  1  0
 15 16  2  0
 15 17  1  0
 17 18  1  0
  5 19  1  0
 19 20  2  0
 20 21  1  0
 21 22  1  0
 22 23  1  0
 23 24  1  0
 24 25  1  0
 20  2  1  0
 25 21  1  0
 17  6  2  0
 14  8  1  0
  1 26  1  0
  1 27  1  0
  1 28  1  0
  3 29  1  0
  4 30  1  0
  9 31  1  0
 10 32  1  0
 11 33  1  0
 13 34  1  0
 18 35  1  0
 19 36  1  0
 22 37  1  0
 22 38  1  0
 23 39  1  0
 23 40  1  0
 24 41  1  0
 24 42  1  0
 25 43  1  0
 25 44  1  0
M  END
>  <meeko>  (2) 
{"is_sidechain": [false], "free_energy": -10.934, "intermolecular_energy": -13.819, "internal_energy": 1.273}

$$$$
cand_018_out
     RDKit          3D

 44 47  0  0  0  0  0  0  0  0999 V2000
   53.3220  152.3950   26.6490 C   0  0  0  0  0  0  0  0  0  0  0  0
   52.7020  153.5880   27.3260 C   0  0  0  0  0  0  0  0  0  0  0  0
   52.1970  153.4540   28.6280 C   0  0  0  0  0  0  0  0  0  0  0  0
   51.6180  154.5420   29.2830 C   0  0  0  0  0  0  0  0  0  0  0  0
   51.5440  155.7910   28.6590 C   0  0  0  0  0  0  0  0  0  0  0  0
   50.9130  156.9290   29.3610 C   0  0  0  0  0  0  0  0  0  0  0  0
   51.8030  157.9680   29.6100 O   0  0  0  0  0  0  0  0  0  0  0  0
   51.3490  159.0890   30.2580 C   0  0  0  0  0  0  0  0  0  0  0  0
   52.2800  160.1000   30.5020 C   0  0  0  0  0  0  0  0  0  0  0  0
   51.8830  161.2680   31.1550 C   0  0  0  0  0  0  0  0  0  0  0  0
   50.5570  161.4270   31.5630 C   0  0  0  0  0  0  0  0  0  0  0  0
   49.6310  160.4170   31.3190 C   0  0  0  0  0  0  0  0  0  0  0  0
   48.3490  160.6360   31.7450 O   0  0  0  0  0  0  0  0  0  0  0  0
   50.0290  159.2460   30.6650 C   0  0  0  0  0  0  0  0  0  0  0  0
   49.0880  158.1600   30.3890 C   0  0  0  0  0  0  0  0  0  0  0  0
   47.9030  158.2270   30.7120 O   0  0  0  0  0  0  0  0  0  0  0  0
   49.6110  156.9590   29.6990 C   0  0  0  0  0  0  0  0  0  0  0  0
   48.7090  155.9450   29.4310 O   0  0  0  0  0  0  0  0  0  0  0  0
   52.0470  155.9190   27.3540 C   0  0  0  0  0  0  0  0  0  0  0  0
   52.6280  154.8340   26.6720 C   0  0  0  0  0  0  0  0  0  0  0  0
   53.1680  154.9670   25.3810 N   0  0  0  0  0  0  0  0  0  0  0  0
   54.4540  154.2550   25.2390 C   0  0  0  0  0  0  0  0  0  0  0  0
   55.2210  155.0750   24.2080 C   0  0  0  0  0  0  0  0  0  0  0  0
   54.7960  156.4920   24.5430 C   0  0  0  0  0  0  0  0  0  0  0  0
   53.3090  156.3330   24.8470 C   0  0  0  0  0  0  0  0  0  0  0  0
   53.6881  151.6905   27.4104 H   0  0  0  0  0  0  0  0  0  0  0  0
   52.5685  151.8972   26.0210 H   0  0  0  0  0  0  0  0  0  0  0  0
   54.1624  152.7255   26.0210 H   0  0  0  0  0  0  0  0  0  0  0  0
   52.2580  152.4813   29.1380 H   0  0  0  0  0  0  0  0  0  0  0  0
   51.2163  154.4157   30.2992 H   0  0  0  0  0  0  0  0  0  0  0  0
   53.3246  159.9765   30.1803 H   0  0  0  0  0  0  0  0  0  0  0  0
   52.6162  162.0649   31.3486 H   0  0  0  0  0  0  0  0  0  0  0  0
   50.2450  162.3486   32.0762 H   0  0  0  0  0  0  0  0  0  0  0  0
   48.1220  160.4860   32.6410 H   0  0  0  0  0  0  0  0  0  0  0  0
   47.9660  155.8200   29.9880 H   0  0  0  0  0  0  0  0  0  0  0  0
   51.9850  156.8952   26.8508 H   0  0  0  0  0  0  0  0  0  0  0  0
   54.9938  154.2289   26.1971 H   0  0  0  0  0  0  0  0  0  0  0  0
   54.3245  153.2064   24.9329 H   0  0  0  0  0  0  0  0  0  0  0  0
   56.3072  154.9465   24.3246 H   0  0  0  0  0  0  0  0  0  0  0  0
   55.0094  154.7853   23.1681 H   0  0  0  0  0  0  0  0  0  0  0  0
   55.3414  156.8732   25.4189 H   0  0  0  0  0  0  0  0  0  0  0  0
   55.0024  157.2118   23.7372 H   0  0  0  0  0  0  0  0  0  0  0  0
   52.9864  157.0741   25.5931 H   0  0  0  0  0  0  0  0  0  0  0  0
   52.6874  156.4914   23.9534 H   0  0  0  0  0  0  0  0  0  0  0  0
  1  2  1  0
  2  3  2  0
  3  4  1  0
  4  5  2  0
  5  6  1  0
  6  7  1  0
  7  8  1  0
  8  9  2  0
  9 10  1  0
 10 11  2  0
 11 12  1  0
 12 13  1  0
 12 14  2  0
 14 15  1  0
 15 16  2  0
 15 17  1  0
 17 18  1  0
  5 19  1  0
 19 20  2  0
 20 21  1  0
 21 22  1  0
 22 23  1  0
 23 24  1  0
 24 25  1  0
 20  2  1  0
 25 21  1  0
 17  6  2  0
 14  8  1  0
  1 26  1  0
  1 27  1  0
  1 28  1  0
  3 29  1  0
  4 30  1  0
  9 31  1  0
 10 32  1  0
 11 33  1  0
 13 34  1  0
 18 35  1  0
 19 36  1  0
 22 37  1  0
 22 38  1  0
 23 39  1  0
 23 40  1  0
 24 41  1  0
 24 42  1  0
 25 43  1  0
 25 44  1  0
M  END
>  <meeko>  (3) 
{"is_sidechain": [false], "free_energy": -8.844, "intermolecular_energy": -10.667, "internal_energy": 0.579}

$$$$
cand_018_out
     RDKit          3D

 44 47  0  0  0  0  0  0  0  0999 V2000
   48.6770  158.7760   31.3910 C   0  0  0  0  0  0  0  0  0  0  0  0
   49.5900  158.0030   30.4780 C   0  0  0  0  0  0  0  0  0  0  0  0
   49.2990  156.6610   30.1890 C   0  0  0  0  0  0  0  0  0  0  0  0
   50.1250  155.9190   29.3440 C   0  0  0  0  0  0  0  0  0  0  0  0
   51.2520  156.5040   28.7570 C   0  0  0  0  0  0  0  0  0  0  0  0
   52.1250  155.6980   27.8770 C   0  0  0  0  0  0  0  0  0  0  0  0
   52.6640  156.4370   26.8290 O   0  0  0  0  0  0  0  0  0  0  0  0
   53.4940  155.8110   25.9340 C   0  0  0  0  0  0  0  0  0  0  0  0
   53.9990  156.5880   24.8900 C   0  0  0  0  0  0  0  0  0  0  0  0
   54.8510  156.0130   23.9450 C   0  0  0  0  0  0  0  0  0  0  0  0
   55.2000  154.6650   24.0450 C   0  0  0  0  0  0  0  0  0  0  0  0
   54.6960  153.8930   25.0880 C   0  0  0  0  0  0  0  0  0  0  0  0
   55.0770  152.5800   25.1270 O   0  0  0  0  0  0  0  0  0  0  0  0
   53.8410  154.4690   26.0330 C   0  0  0  0  0  0  0  0  0  0  0  0
   53.2880  153.6940   27.1450 C   0  0  0  0  0  0  0  0  0  0  0  0
   53.5540  152.5040   27.3040 O   0  0  0  0  0  0  0  0  0  0  0  0
   52.3860  154.3950   28.0870 C   0  0  0  0  0  0  0  0  0  0  0  0
   51.8800  153.6550   29.1410 O   0  0  0  0  0  0  0  0  0  0  0  0
   51.5420  157.8450   29.0530 C   0  0  0  0  0  0  0  0  0  0  0  0
   50.7270  158.6110   29.9070 C   0  0  0  0  0  0  0  0  0  0  0  0
   50.9900  159.9650   30.1750 N   0  0  0  0  0  0  0  0  0  0  0  0
   51.5700  160.1650   31.5180 C   0  0  0  0  0  0  0  0  0  0  0  0
   51.0810  161.5470   31.9320 C   0  0  0  0  0  0  0  0  0  0  0  0
   49.6860  161.5870   31.3350 C   0  0  0  0  0  0  0  0  0  0  0  0
   49.8840  160.9190   29.9780 C   0  0  0  0  0  0  0  0  0  0  0  0
   48.9347  158.5578   32.4379 H   0  0  0  0  0  0  0  0  0  0  0  0
   48.7948  159.8531   31.2012 H   0  0  0  0  0  0  0  0  0  0  0  0
   47.6341  158.4822   31.2012 H   0  0  0  0  0  0  0  0  0  0  0  0
   48.4103  156.1890   30.6333 H   0  0  0  0  0  0  0  0  0  0  0  0
   49.8879  154.8649   29.1376 H   0  0  0  0  0  0  0  0  0  0  0  0
   53.7263  157.6508   24.8120 H   0  0  0  0  0  0  0  0  0  0  0  0
   55.2479  156.6232   23.1203 H   0  0  0  0  0  0  0  0  0  0  0  0
   55.8723  154.2135   23.3006 H   0  0  0  0  0  0  0  0  0  0  0  0
   55.7900  152.3160   25.6750 H   0  0  0  0  0  0  0  0  0  0  0  0
   51.3950  152.8720   28.9730 H   0  0  0  0  0  0  0  0  0  0  0  0
   52.4320  158.3106   28.6045 H   0  0  0  0  0  0  0  0  0  0  0  0
   51.2085  159.3971   32.2177 H   0  0  0  0  0  0  0  0  0  0  0  0
   52.6673  160.0874   31.5198 H   0  0  0  0  0  0  0  0  0  0  0  0
   51.0490  161.6471   33.0270 H   0  0  0  0  0  0  0  0  0  0  0  0
   51.7310  162.3657   31.5896 H   0  0  0  0  0  0  0  0  0  0  0  0
   48.9729  161.0234   31.9545 H   0  0  0  0  0  0  0  0  0  0  0  0
   49.2694  162.6027   31.2654 H   0  0  0  0  0  0  0  0  0  0  0  0
   48.9692  160.3910   29.6707 H   0  0  0  0  0  0  0  0  0  0  0  0
   50.1080  161.6510   29.1881 H   0  0  0  0  0  0  0  0  0  0  0  0
  1  2  1  0
  2  3  2  0
  3  4  1  0
  4  5  2  0
  5  6  1  0
  6  7  1  0
  7  8  1  0
  8  9  2  0
  9 10  1  0
 10 11  2  0
 11 12  1  0
 12 13  1  0
 12 14  2  0
 14 15  1  0
 15 16  2  0
 15 17  1  0
 17 18  1  0
  5 19  1  0
 19 20  2  0
 20 21  1  0
 21 22  1  0
 22 23  1  0
 23 24  1  0
 24 25  1  0
 20  2  1  0
 25 21  1  0
 17  6  2  0
 14  8  1  0
  1 26  1  0
  1 27  1  0
  1 28  1  0
  3 29  1  0
  4 30  1  0
  9 31  1  0
 10 32  1  0
 11 33  1  0
 13 34  1  0
 18 35  1  0
 19 36  1  0
 22 37  1  0
 22 38  1  0
 23 39  1  0
 23 40  1  0
 24 41  1  0
 24 42  1  0
 25 43  1  0
 25 44  1  0
M  END
>  <meeko>  (4) 
{"is_sidechain": [false], "free_energy": -8.826, "intermolecular_energy": -11.409, "internal_energy": 1.342}

$$$$
