cand_034_out
     RDKit          3D

 40 42  0  0  0  0  0  0  0  0999 V2000
   48.1360  160.9980   30.9140 C   0  0  0  0  0  0  0  0  0  0  0  0
   49.2730  160.3410   31.5670 N   0  0  0  0  0  0  0  0  0  0  0  0
   48.9870  159.8950   32.9390 C   0  0  0  0  0  0  0  0  0  0  0  0
   49.8670  159.3030   30.8160 C   0  0  0  0  0  0  0  0  0  0  0  0
   49.1830  158.1180   30.5050 C   0  0  0  0  0  0  0  0  0  0  0  0
   49.7990  157.0930   29.7770 C   0  0  0  0  0  0  0  0  0  0  0  0
   51.1190  157.2210   29.3370 C   0  0  0  0  0  0  0  0  0  0  0  0
   51.8040  156.1400   28.5960 C   0  0  0  0  0  0  0  0  0  0  0  0
   52.3330  156.5680   27.3840 O   0  0  0  0  0  0  0  0  0  0  0  0
   52.9930  155.6630   26.5910 C   0  0  0  0  0  0  0  0  0  0  0  0
   53.5160  156.1400   25.3880 C   0  0  0  0  0  0  0  0  0  0  0  0
   54.1980  155.2710   24.5330 C   0  0  0  0  0  0  0  0  0  0  0  0
   54.3560  153.9280   24.8810 C   0  0  0  0  0  0  0  0  0  0  0  0
   53.8320  153.4550   26.0810 C   0  0  0  0  0  0  0  0  0  0  0  0
   54.0220  152.1290   26.3600 O   0  0  0  0  0  0  0  0  0  0  0  0
   53.1500  154.3260   26.9370 C   0  0  0  0  0  0  0  0  0  0  0  0
   52.5830  153.8710   28.2070 C   0  0  0  0  0  0  0  0  0  0  0  0
   52.6750  152.7030   28.5790 O   0  0  0  0  0  0  0  0  0  0  0  0
   51.8830  154.8720   29.0420 C   0  0  0  0  0  0  0  0  0  0  0  0
   51.3370  154.4280   30.2330 O   0  0  0  0  0  0  0  0  0  0  0  0
   51.8110  158.3960   29.6580 C   0  0  0  0  0  0  0  0  0  0  0  0
   51.1990  159.4400   30.3800 C   0  0  0  0  0  0  0  0  0  0  0  0
   51.9940  160.6800   30.6960 C   0  0  0  0  0  0  0  0  0  0  0  0
   51.9470  161.0140   32.0220 F   0  0  0  0  0  0  0  0  0  0  0  0
   51.5270  161.7810   30.0380 F   0  0  0  0  0  0  0  0  0  0  0  0
   47.4519  161.3933   31.6794 H   0  0  0  0  0  0  0  0  0  0  0  0
   48.5010  161.8244   30.2864 H   0  0  0  0  0  0  0  0  0  0  0  0
   47.6023  160.2691   30.2864 H   0  0  0  0  0  0  0  0  0  0  0  0
   49.4379  160.5982   33.6546 H   0  0  0  0  0  0  0  0  0  0  0  0
   47.8985  159.8614   33.0942 H   0  0  0  0  0  0  0  0  0  0  0  0
   49.4106  158.8918   33.0942 H   0  0  0  0  0  0  0  0  0  0  0  0
   48.1427  157.9919   30.8396 H   0  0  0  0  0  0  0  0  0  0  0  0
   49.2368  156.1755   29.5486 H   0  0  0  0  0  0  0  0  0  0  0  0
   53.3914  157.1980   25.1138 H   0  0  0  0  0  0  0  0  0  0  0  0
   54.6110  155.6451   23.5846 H   0  0  0  0  0  0  0  0  0  0  0  0
   54.8939  153.2444   24.2077 H   0  0  0  0  0  0  0  0  0  0  0  0
   53.3250  151.6230   26.7280 H   0  0  0  0  0  0  0  0  0  0  0  0
   51.0470  153.5400   30.3120 H   0  0  0  0  0  0  0  0  0  0  0  0
   52.8578  158.5064   29.3386 H   0  0  0  0  0  0  0  0  0  0  0  0
   53.0165  160.4226   30.3824 H   0  0  0  0  0  0  0  0  0  0  0  0
  1  2  1  0
  2  3  1  0
  2  4  1  0
  4  5  2  0
  5  6  1  0
  6  7  2  0
  7  8  1  0
  8  9  1  0
  9 10  1  0
 10 11  2  0
 11 12  1  0
 12 13  2  0
 13 14  1  0
 14 15  1  0
 14 16  2  0
 16 17  1  0
 17 18  2  0
 17 19  1  0
 19 20  1  0
  7 21  1  0
 21 22  2  0
 22 23  1  0
 23 24  1  0
 23 25  1  0
 22  4  1  0
 19  8  2  0
 16 10  1  0
  1 26  1  0
  1 27  1  0
  1 28  1  0
  3 29  1  0
  3 30  1  0
  3 31  1  0
  5 32  1  0
  6 33  1  0
 11 34  1  0
 12 35  1  0
 13 36  1  0
 15 37  1  0
 20 38  1  0
 21 39  1  0
 23 40  1  0
M  END
>  <meeko>  (1) 
{"is_sidechain": [false], "free_energy": -10.593, "intermolecular_energy": -13.07, "internal_energy": -0.23}

$$$$
cand_034_out
     RDKit          3D

 40 42  0  0  0  0  0  0  0  0999 V2000
   51.0000  161.4840   32.0290 C   0  0  0  0  0  0  0  0  0  0  0  0
   50.0080  160.6650   31.3260 N   0  0  0  0  0  0  0  0  0  0  0  0
   49.1290  161.4390   30.4370 C   0  0  0  0  0  0  0  0  0  0  0  0
   50.5390  159.5420   30.6540 C   0  0  0  0  0  0  0  0  0  0  0  0
   51.8120  159.5550   30.0640 C   0  0  0  0  0  0  0  0  0  0  0  0
   52.3100  158.4380   29.3840 C   0  0  0  0  0  0  0  0  0  0  0  0
   51.5500  157.2710   29.2710 C   0  0  0  0  0  0  0  0  0  0  0  0
   52.0370  156.0890   28.5290 C   0  0  0  0  0  0  0  0  0  0  0  0
   52.5540  156.4100   27.2790 O   0  0  0  0  0  0  0  0  0  0  0  0
   53.0380  155.4040   26.4830 C   0  0  0  0  0  0  0  0  0  0  0  0
   53.5550  155.7750   25.2400 C   0  0  0  0  0  0  0  0  0  0  0  0
   54.0630  154.8000   24.3790 C   0  0  0  0  0  0  0  0  0  0  0  0
   54.0530  153.4570   24.7590 C   0  0  0  0  0  0  0  0  0  0  0  0
   53.5350  153.0890   25.9980 C   0  0  0  0  0  0  0  0  0  0  0  0
   53.5550  151.7570   26.3070 O   0  0  0  0  0  0  0  0  0  0  0  0
   53.0270  154.0660   26.8610 C   0  0  0  0  0  0  0  0  0  0  0  0
   52.4730  153.7240   28.1710 C   0  0  0  0  0  0  0  0  0  0  0  0
   52.4230  152.5640   28.5740 O   0  0  0  0  0  0  0  0  0  0  0  0
   51.9650  154.8330   29.0100 C   0  0  0  0  0  0  0  0  0  0  0  0
   51.4280  154.4970   30.2400 O   0  0  0  0  0  0  0  0  0  0  0  0
   50.2710  157.2580   29.8450 C   0  0  0  0  0  0  0  0  0  0  0  0
   49.7630  158.3730   30.5420 C   0  0  0  0  0  0  0  0  0  0  0  0
   48.3810  158.3000   31.1380 C   0  0  0  0  0  0  0  0  0  0  0  0
   47.4590  159.0140   30.4210 F   0  0  0  0  0  0  0  0  0  0  0  0
   48.3290  158.8190   32.3990 F   0  0  0  0  0  0  0  0  0  0  0  0
   50.8646  161.3722   33.1149 H   0  0  0  0  0  0  0  0  0  0  0  0
   52.0117  161.1546   31.7498 H   0  0  0  0  0  0  0  0  0  0  0  0
   50.8681  162.5398   31.7498 H   0  0  0  0  0  0  0  0  0  0  0  0
   48.4392  162.0464   31.0414 H   0  0  0  0  0  0  0  0  0  0  0  0
   49.7387  162.0989   29.8023 H   0  0  0  0  0  0  0  0  0  0  0  0
   48.5516  160.7508   29.8023 H   0  0  0  0  0  0  0  0  0  0  0  0
   52.4309  160.4614   30.1375 H   0  0  0  0  0  0  0  0  0  0  0  0
   53.3123  158.4792   28.9328 H   0  0  0  0  0  0  0  0  0  0  0  0
   53.5621  156.8332   24.9397 H   0  0  0  0  0  0  0  0  0  0  0  0
   54.4716  155.0908   23.4000 H   0  0  0  0  0  0  0  0  0  0  0  0
   54.4540  152.6899   24.0802 H   0  0  0  0  0  0  0  0  0  0  0  0
   53.9360  151.1430   25.7110 H   0  0  0  0  0  0  0  0  0  0  0  0
   51.9720  154.4990   31.0030 H   0  0  0  0  0  0  0  0  0  0  0  0
   49.6489  156.3559   29.7492 H   0  0  0  0  0  0  0  0  0  0  0  0
   48.1485  157.2249   31.1326 H   0  0  0  0  0  0  0  0  0  0  0  0
  1  2  1  0
  2  3  1  0
  2  4  1  0
  4  5  2  0
  5  6  1  0
  6  7  2  0
  7  8  1  0
  8  9  1  0
  9 10  1  0
 10 11  2  0
 11 12  1  0
 12 13  2  0
 13 14  1  0
 14 15  1  0
 14 16  2  0
 16 17  1  0
 17 18  2  0
 17 19  1  0
 19 20  1  0
  7 21  1  0
 21 22  2  0
 22 23  1  0
 23 24  1  0
 23 25  1  0
 22  4  1  0
 19  8  2  0
 16 10  1  0
  1 26  1  0
  1 27  1  0
  1 28  1  0
  3 29  1  0
  3 30  1  0
  3 31  1  0
  5 32  1  0
  6 33  1  0
 11 34  1  0
 12 35  1  0
 13 36  1  0
 15 37  1  0
 20 38  1  0
 21 39  1  0
 23 40  1  0
M  END
>  <meeko>  (2) 
{"is_sidechain": [false], "free_energy": -10.547, "intermolecular_energy": -13.557, "internal_energy": 0.315}

$$$$
cand_034_out
     RDKit          3D

 40 42  0  0  0  0  0  0  0  0999 V2000
   54.0500  153.1640   26.5810 C   0  0  0  0  0  0  0  0  0  0  0  0
   52.6190  153.4840   26.6020 N   0  0  0  0  0  0  0  0  0  0  0  0
   51.7610  152.3280   26.9000 C   0  0  0  0  0  0  0  0  0  0  0  0
   52.2720  154.5880   27.4110 C   0  0  0  0  0  0  0  0  0  0  0  0
   51.5400  154.4440   28.5990 C   0  0  0  0  0  0  0  0  0  0  0  0
   51.1880  155.5560   29.3750 C   0  0  0  0  0  0  0  0  0  0  0  0
   51.5580  156.8450   28.9870 C   0  0  0  0  0  0  0  0  0  0  0  0
   51.1700  158.0390   29.7700 C   0  0  0  0  0  0  0  0  0  0  0  0
   49.8480  158.0000   30.1960 O   0  0  0  0  0  0  0  0  0  0  0  0
   49.3550  159.0480   30.9290 C   0  0  0  0  0  0  0  0  0  0  0  0
   48.0250  158.9620   31.3430 C   0  0  0  0  0  0  0  0  0  0  0  0
   47.4610  159.9960   32.0930 C   0  0  0  0  0  0  0  0  0  0  0  0
   48.2250  161.1150   32.4280 C   0  0  0  0  0  0  0  0  0  0  0  0
   49.5510  161.2000   32.0130 C   0  0  0  0  0  0  0  0  0  0  0  0
   50.2430  162.3240   32.3740 O   0  0  0  0  0  0  0  0  0  0  0  0
   50.1160  160.1640   31.2630 C   0  0  0  0  0  0  0  0  0  0  0  0
   51.5050  160.2120   30.8050 C   0  0  0  0  0  0  0  0  0  0  0  0
   52.2400  161.1660   31.0540 O   0  0  0  0  0  0  0  0  0  0  0  0
   52.0090  159.0620   30.0210 C   0  0  0  0  0  0  0  0  0  0  0  0
   53.3180  159.1260   29.5800 O   0  0  0  0  0  0  0  0  0  0  0  0
   52.2770  156.9960   27.7930 C   0  0  0  0  0  0  0  0  0  0  0  0
   52.6460  155.8850   27.0090 C   0  0  0  0  0  0  0  0  0  0  0  0
   53.4190  156.1080   25.7350 C   0  0  0  0  0  0  0  0  0  0  0  0
   54.4330  157.0140   25.8850 F   0  0  0  0  0  0  0  0  0  0  0  0
   52.6400  156.6110   24.7340 F   0  0  0  0  0  0  0  0  0  0  0  0
   54.4223  153.0808   27.6127 H   0  0  0  0  0  0  0  0  0  0  0  0
   54.2045  152.2091   26.0573 H   0  0  0  0  0  0  0  0  0  0  0  0
   54.5965  153.9621   26.0573 H   0  0  0  0  0  0  0  0  0  0  0  0
   51.6723  152.2085   27.9899 H   0  0  0  0  0  0  0  0  0  0  0  0
   50.7632  152.4906   26.4665 H   0  0  0  0  0  0  0  0  0  0  0  0
   52.2056  151.4200   26.4665 H   0  0  0  0  0  0  0  0  0  0  0  0
   51.2367  153.4390   28.9275 H   0  0  0  0  0  0  0  0  0  0  0  0
   50.6129  155.4117   30.3015 H   0  0  0  0  0  0  0  0  0  0  0  0
   47.4218  158.0809   31.0788 H   0  0  0  0  0  0  0  0  0  0  0  0
   46.4130  159.9286   32.4203 H   0  0  0  0  0  0  0  0  0  0  0  0
   47.7798  161.9288   33.0193 H   0  0  0  0  0  0  0  0  0  0  0  0
   51.1630  162.3820   32.2080 H   0  0  0  0  0  0  0  0  0  0  0  0
   53.5600  158.7180   28.7720 H   0  0  0  0  0  0  0  0  0  0  0  0
   52.5597  158.0057   27.4604 H   0  0  0  0  0  0  0  0  0  0  0  0
   53.8066  155.1095   25.4844 H   0  0  0  0  0  0  0  0  0  0  0  0
  1  2  1  0
  2  3  1  0
  2  4  1  0
  4  5  2  0
  5  6  1  0
  6  7  2  0
  7  8  1  0
  8  9  1  0
  9 10  1  0
 10 11  2  0
 11 12  1  0
 12 13  2  0
 13 14  1  0
 14 15  1  0
 14 16  2  0
 16 17  1  0
 17 18  2  0
 17 19  1  0
 19 20  1  0
  7 21  1  0
 21 22  2  0
 22 23  1  0
 23 24  1  0
 23 25  1  0
 22  4  1  0
 19  8  2  0
 16 10  1  0
  1 26  1  0
  1 27  1  0
  1 28  1  0
  3 29  1  0
  3 30  1  0
  3 31  1  0
  5 32  1  0
  6 33  1  0
 11 34  1  0
 12 35  1  0
 13 36  1  0
 15 37  1  0
 20 38  1  0
 21 39  1  0
 23 40  1  0
M  END
>  <meeko>  (3) 
{"is_sidechain": [false], "free_energy": -9.884, "intermolecular_energy": -12.532, "internal_energy": 0.107}

$$$$
cand_034_out
     RDKit          3D

 40 42  0  0  0  0  0  0  0  0999 V2000
   54.7000  152.4640   26.2030 C   0  0  0  0  0  0  0  0  0  0  0  0
   53.2910  152.8480   26.0720 N   0  0  0  0  0  0  0  0  0  0  0  0
   52.3570  151.7240   26.2340 C   0  0  0  0  0  0  0  0  0  0  0  0
   52.9010  153.9440   26.8710 C   0  0  0  0  0  0  0  0  0  0  0  0
   52.3880  153.7800   28.1670 C   0  0  0  0  0  0  0  0  0  0  0  0
   51.9860  154.8800   28.9340 C   0  0  0  0  0  0  0  0  0  0  0  0
   52.0850  156.1790   28.4300 C   0  0  0  0  0  0  0  0  0  0  0  0
   51.6360  157.3550   29.2060 C   0  0  0  0  0  0  0  0  0  0  0  0
   50.2950  157.2860   29.5660 O   0  0  0  0  0  0  0  0  0  0  0  0
   49.7470  158.3170   30.2860 C   0  0  0  0  0  0  0  0  0  0  0  0
   48.4000  158.2000   30.6320 C   0  0  0  0  0  0  0  0  0  0  0  0
   47.7800  159.2150   31.3650 C   0  0  0  0  0  0  0  0  0  0  0  0
   48.5050  160.3440   31.7490 C   0  0  0  0  0  0  0  0  0  0  0  0
   49.8480  160.4590   31.4010 C   0  0  0  0  0  0  0  0  0  0  0  0
   50.4990  161.5910   31.8090 O   0  0  0  0  0  0  0  0  0  0  0  0
   50.4690  159.4420   30.6690 C   0  0  0  0  0  0  0  0  0  0  0  0
   51.8780  159.5220   30.2810 C   0  0  0  0  0  0  0  0  0  0  0  0
   52.5800  160.4870   30.5760 O   0  0  0  0  0  0  0  0  0  0  0  0
   52.4410  158.3910   29.5090 C   0  0  0  0  0  0  0  0  0  0  0  0
   53.7700  158.4850   29.1350 O   0  0  0  0  0  0  0  0  0  0  0  0
   52.5820  156.3470   27.1310 C   0  0  0  0  0  0  0  0  0  0  0  0
   53.0000  155.2490   26.3520 C   0  0  0  0  0  0  0  0  0  0  0  0
   53.5260  155.4920   24.9620 C   0  0  0  0  0  0  0  0  0  0  0  0
   53.0840  154.5610   24.0600 F   0  0  0  0  0  0  0  0  0  0  0  0
   54.8880  155.4250   24.9000 F   0  0  0  0  0  0  0  0  0  0  0  0
   54.9630  152.3923   27.2687 H   0  0  0  0  0  0  0  0  0  0  0  0
   54.8609  151.4893   25.7193 H   0  0  0  0  0  0  0  0  0  0  0  0
   55.3332  153.2223   25.7193 H   0  0  0  0  0  0  0  0  0  0  0  0
   52.1971  151.5316   27.3052 H   0  0  0  0  0  0  0  0  0  0  0  0
   51.3968  151.9738   25.7590 H   0  0  0  0  0  0  0  0  0  0  0  0
   52.7784  150.8258   25.7590 H   0  0  0  0  0  0  0  0  0  0  0  0
   52.3001  152.7677   28.5882 H   0  0  0  0  0  0  0  0  0  0  0  0
   51.5871  154.7193   29.9465 H   0  0  0  0  0  0  0  0  0  0  0  0
   47.8279  157.3109   30.3284 H   0  0  0  0  0  0  0  0  0  0  0  0
   46.7188  159.1241   31.6399 H   0  0  0  0  0  0  0  0  0  0  0  0
   48.0156  161.1424   32.3262 H   0  0  0  0  0  0  0  0  0  0  0  0
   50.0240  162.3920   31.9130 H   0  0  0  0  0  0  0  0  0  0  0  0
   54.0790  158.0110   28.3880 H   0  0  0  0  0  0  0  0  0  0  0  0
   52.6477  157.3605   26.7086 H   0  0  0  0  0  0  0  0  0  0  0  0
   53.1577  156.4985   24.7144 H   0  0  0  0  0  0  0  0  0  0  0  0
  1  2  1  0
  2  3  1  0
  2  4  1  0
  4  5  2  0
  5  6  1  0
  6  7  2  0
  7  8  1  0
  8  9  1  0
  9 10  1  0
 10 11  2  0
 11 12  1  0
 12 13  2  0
 13 14  1  0
 14 15  1  0
 14 16  2  0
 16 17  1  0
 17 18  2  0
 17 19  1  0
 19 20  1  0
  7 21  1  0
 21 22  2  0
 22 23  1  0
 23 24  1  0
 23 25  1  0
 22  4  1  0
 19  8  2  0
 16 10  1  0
  1 26  1  0
  1 27  1  0
  1 28  1  0
  3 29  1  0
  3 30  1  0
  3 31  1  0
  5 32  1  0
  6 33  1  0
 11 34  1  0
 12 35  1  0
 13 36  1  0
 15 37  1  0
 20 38  1  0
 21 39  1  0
 23 40  1  0
M  END
>  <meeko>  (4) 
{"is_sidechain": [false], "free_energy": -8.94, "intermolecular_energy": -11.2, "internal_energy": -0.06}

$$$$
cand_034_out
     RDKit          3D

 40 42  0  0  0  0  0  0  0  0999 V2000
   52.4320  153.3750   25.7080 C   0  0  0  0  0  0  0  0  0  0  0  0
   53.4330  154.2520   26.3240 N   0  0  0  0  0  0  0  0  0  0  0  0
   54.4150  154.7860   25.3680 C   0  0  0  0  0  0  0  0  0  0  0  0
   52.9010  155.2840   27.1260 C   0  0  0  0  0  0  0  0  0  0  0  0
   52.9930  156.6370   26.7630 C   0  0  0  0  0  0  0  0  0  0  0  0
   52.4770  157.6460   27.5860 C   0  0  0  0  0  0  0  0  0  0  0  0
   51.8540  157.3350   28.7960 C   0  0  0  0  0  0  0  0  0  0  0  0
   51.3310  158.3840   29.6980 C   0  0  0  0  0  0  0  0  0  0  0  0
   49.9900  158.2010   30.0180 O   0  0  0  0  0  0  0  0  0  0  0  0
   49.3770  159.1070   30.8450 C   0  0  0  0  0  0  0  0  0  0  0  0
   48.0330  158.8790   31.1470 C   0  0  0  0  0  0  0  0  0  0  0  0
   47.3470  159.7630   31.9830 C   0  0  0  0  0  0  0  0  0  0  0  0
   48.0040  160.8740   32.5150 C   0  0  0  0  0  0  0  0  0  0  0  0
   49.3440  161.1000   32.2120 C   0  0  0  0  0  0  0  0  0  0  0  0
   49.9260  162.2070   32.7670 O   0  0  0  0  0  0  0  0  0  0  0  0
   50.0300  160.2140   31.3760 C   0  0  0  0  0  0  0  0  0  0  0  0
   51.4380  160.4140   31.0310 C   0  0  0  0  0  0  0  0  0  0  0  0
   52.0830  161.3710   31.4540 O   0  0  0  0  0  0  0  0  0  0  0  0
   52.0740  159.4160   30.1410 C   0  0  0  0  0  0  0  0  0  0  0  0
   53.4000  159.6230   29.8080 O   0  0  0  0  0  0  0  0  0  0  0  0
   51.7730  155.9870   29.1700 C   0  0  0  0  0  0  0  0  0  0  0  0
   52.2780  154.9610   28.3470 C   0  0  0  0  0  0  0  0  0  0  0  0
   52.1640  153.5290   28.8020 C   0  0  0  0  0  0  0  0  0  0  0  0
   51.1740  152.8450   28.1490 F   0  0  0  0  0  0  0  0  0  0  0  0
   51.8500  153.4260   30.1260 F   0  0  0  0  0  0  0  0  0  0  0  0
   51.8541  152.8687   26.4951 H   0  0  0  0  0  0  0  0  0  0  0  0
   51.7537  153.9748   25.0834 H   0  0  0  0  0  0  0  0  0  0  0  0
   52.9374  152.6237   25.0834 H   0  0  0  0  0  0  0  0  0  0  0  0
   55.2520  155.2411   25.9178 H   0  0  0  0  0  0  0  0  0  0  0  0
   54.7928  153.9691   24.7356 H   0  0  0  0  0  0  0  0  0  0  0  0
   53.9347  155.5471   24.7356 H   0  0  0  0  0  0  0  0  0  0  0  0
   53.4793  156.9097   25.8148 H   0  0  0  0  0  0  0  0  0  0  0  0
   52.5638  158.6975   27.2748 H   0  0  0  0  0  0  0  0  0  0  0  0
   47.5150  158.0042   30.7270 H   0  0  0  0  0  0  0  0  0  0  0  0
   46.2884  159.5837   32.2223 H   0  0  0  0  0  0  0  0  0  0  0  0
   47.4634  161.5703   33.1730 H   0  0  0  0  0  0  0  0  0  0  0  0
   50.6810  162.5900   32.3660 H   0  0  0  0  0  0  0  0  0  0  0  0
   53.8990  160.2750   30.2610 H   0  0  0  0  0  0  0  0  0  0  0  0
   51.3038  155.7235   30.1294 H   0  0  0  0  0  0  0  0  0  0  0  0
   53.1557  153.1050   28.5858 H   0  0  0  0  0  0  0  0  0  0  0  0
  1  2  1  0
  2  3  1  0
  2  4  1  0
  4  5  2  0
  5  6  1  0
  6  7  2  0
  7  8  1  0
  8  9  1  0
  9 10  1  0
 10 11  2  0
 11 12  1  0
 12 13  2  0
 13 14  1  0
 14 15  1  0
 14 16  2  0
 16 17  1  0
 17 18  2  0
 17 19  1  0
 19 20  1  0
  7 21  1  0
 21 22  2  0
 22 23  1  0
 23 24  1  0
 23 25  1  0
 22  4  1  0
 19  8  2  0
 16 10  1  0
  1 26  1  0
  1 27  1  0
  1 28  1  0
  3 29  1  0
  3 30  1  0
  3 31  1  0
  5 32  1  0
  6 33  1  0
 11 34  1  0
 12 35  1  0
 13 36  1  0
 15 37  1  0
 20 38  1  0
 21 39  1  0
 23 40  1  0
M  END
>  <meeko>  (5) 
{"is_sidechain": [false], "free_energy": -8.844, "intermolecular_energy": -11.438, "internal_energy": 0.296}

$$$$
cand_034_out
     RDKit          3D

 40 42  0  0  0  0  0  0  0  0999 V2000
   55.7360  152.5540   25.7720 C   0  0  0  0  0  0  0  0  0  0  0  0
   54.4780  153.0850   25.2370 N   0  0  0  0  0  0  0  0  0  0  0  0
   53.5920  152.0520   24.6800 C   0  0  0  0  0  0  0  0  0  0  0  0
   53.7710  153.9310   26.1190 C   0  0  0  0  0  0  0  0  0  0  0  0
   53.1350  153.4450   27.2720 C   0  0  0  0  0  0  0  0  0  0  0  0
   52.4200  154.2990   28.1210 C   0  0  0  0  0  0  0  0  0  0  0  0
   52.3190  155.6640   27.8440 C   0  0  0  0  0  0  0  0  0  0  0  0
   51.5430  156.5810   28.7060 C   0  0  0  0  0  0  0  0  0  0  0  0
   52.2420  157.7370   29.0330 O   0  0  0  0  0  0  0  0  0  0  0  0
   51.6400  158.6740   29.8330 C   0  0  0  0  0  0  0  0  0  0  0  0
   52.3760  159.8230   30.1260 C   0  0  0  0  0  0  0  0  0  0  0  0
   51.8220  160.8170   30.9370 C   0  0  0  0  0  0  0  0  0  0  0  0
   50.5340  160.6610   31.4530 C   0  0  0  0  0  0  0  0  0  0  0  0
   49.8020  159.5130   31.1590 C   0  0  0  0  0  0  0  0  0  0  0  0
   48.5480  159.4240   31.6980 O   0  0  0  0  0  0  0  0  0  0  0  0
   50.3570  158.5190   30.3480 C   0  0  0  0  0  0  0  0  0  0  0  0
   49.6240  157.2970   30.0150 C   0  0  0  0  0  0  0  0  0  0  0  0
   48.4890  157.0840   30.4360 O   0  0  0  0  0  0  0  0  0  0  0  0
   50.2990  156.3080   29.1440 C   0  0  0  0  0  0  0  0  0  0  0  0
   49.6030  155.1500   28.8490 O   0  0  0  0  0  0  0  0  0  0  0  0
   52.9400  156.1510   26.6860 C   0  0  0  0  0  0  0  0  0  0  0  0
   53.6710  155.3050   25.8290 C   0  0  0  0  0  0  0  0  0  0  0  0
   54.3170  155.8850   24.5970 C   0  0  0  0  0  0  0  0  0  0  0  0
   55.6700  155.6810   24.5640 F   0  0  0  0  0  0  0  0  0  0  0  0
   54.1600  157.2380   24.5150 F   0  0  0  0  0  0  0  0  0  0  0  0
   55.7020  152.5684   26.8714 H   0  0  0  0  0  0  0  0  0  0  0  0
   55.8755  151.5202   25.4230 H   0  0  0  0  0  0  0  0  0  0  0  0
   56.5741  153.1751   25.4230 H   0  0  0  0  0  0  0  0  0  0  0  0
   53.1153  151.4962   25.5009 H   0  0  0  0  0  0  0  0  0  0  0  0
   52.8172  152.5282   24.0612 H   0  0  0  0  0  0  0  0  0  0  0  0
   54.1807  151.3588   24.0612 H   0  0  0  0  0  0  0  0  0  0  0  0
   53.1993  152.3737   27.5132 H   0  0  0  0  0  0  0  0  0  0  0  0
   51.9317  153.8893   29.0175 H   0  0  0  0  0  0  0  0  0  0  0  0
   53.3906  159.9460   29.7192 H   0  0  0  0  0  0  0  0  0  0  0  0
   52.4010  161.7230   31.1691 H   0  0  0  0  0  0  0  0  0  0  0  0
   50.0979  161.4438   32.0910 H   0  0  0  0  0  0  0  0  0  0  0  0
   47.7960  159.4300   31.1390 H   0  0  0  0  0  0  0  0  0  0  0  0
   48.7030  155.1980   28.5940 H   0  0  0  0  0  0  0  0  0  0  0  0
   52.8546  157.2198   26.4402 H   0  0  0  0  0  0  0  0  0  0  0  0
   53.8136  155.3671   23.7673 H   0  0  0  0  0  0  0  0  0  0  0  0
  1  2  1  0
  2  3  1  0
  2  4  1  0
  4  5  2  0
  5  6  1  0
  6  7  2  0
  7  8  1  0
  8  9  1  0
  9 10  1  0
 10 11  2  0
 11 12  1  0
 12 13  2  0
 13 14  1  0
 14 15  1  0
 14 16  2  0
 16 17  1  0
 17 18  2  0
 17 19  1  0
 19 20  1  0
  7 21  1  0
 21 22  2  0
 22 23  1  0
 23 24  1  0
 23 25  1  0
 22  4  1  0
 19  8  2  0
 16 10  1  0
  1 26  1  0
  1 27  1  0
  1 28  1  0
  3 29  1  0
  3 30  1  0
  3 31  1  0
  5 32  1  0
  6 33  1  0
 11 34  1  0
 12 35  1  0
 13 36  1  0
 15 37  1  0
 20 38  1  0
 21 39  1  0
 23 40  1  0
M  END
>  <meeko>  (6) 
{"is_sidechain": [false], "free_energy": -7.9, "intermolecular_energy": -9.693, "internal_energy": -0.284}

$$$$
