cand_042_out
     RDKit          3D

 38 40  0  0  0  0  0  0  0  0999 V2000
   49.9680  161.1180   33.0320 C   0  0  0  0  0  0  0  0  0  0  0  0
   49.9080  161.2450   31.5170 C   0  0  0  0  0  0  0  0  0  0  0  0
   50.3870  159.9890   30.8240 C   0  0  0  0  0  0  0  0  0  0  0  0
   51.7140  159.9410   30.3700 C   0  0  0  0  0  0  0  0  0  0  0  0
   52.2120  158.8130   29.7140 C   0  0  0  0  0  0  0  0  0  0  0  0
   51.3980  157.6980   29.4970 C   0  0  0  0  0  0  0  0  0  0  0  0
   51.8900  156.5000   28.7840 C   0  0  0  0  0  0  0  0  0  0  0  0
   52.4370  156.7970   27.5410 O   0  0  0  0  0  0  0  0  0  0  0  0
   52.9320  155.7760   26.7730 C   0  0  0  0  0  0  0  0  0  0  0  0
   53.4840  156.1210   25.5380 C   0  0  0  0  0  0  0  0  0  0  0  0
   54.0060  155.1280   24.7060 C   0  0  0  0  0  0  0  0  0  0  0  0
   53.9750  153.7910   25.1060 C   0  0  0  0  0  0  0  0  0  0  0  0
   53.4230  153.4490   26.3390 C   0  0  0  0  0  0  0  0  0  0  0  0
   53.4240  152.1210   26.6680 O   0  0  0  0  0  0  0  0  0  0  0  0
   52.9020  154.4430   27.1720 C   0  0  0  0  0  0  0  0  0  0  0  0
   52.3140  154.1270   28.4740 C   0  0  0  0  0  0  0  0  0  0  0  0
   52.2440  152.9730   28.8930 O   0  0  0  0  0  0  0  0  0  0  0  0
   51.7970  155.2540   29.2830 C   0  0  0  0  0  0  0  0  0  0  0  0
   51.2320  154.9410   30.5070 O   0  0  0  0  0  0  0  0  0  0  0  0
   50.0650  157.7510   29.9360 C   0  0  0  0  0  0  0  0  0  0  0  0
   49.5460  158.8830   30.5920 C   0  0  0  0  0  0  0  0  0  0  0  0
   48.1140  158.8620   31.0510 C   0  0  0  0  0  0  0  0  0  0  0  0
   49.5413  162.0211   33.4928 H   0  0  0  0  0  0  0  0  0  0  0  0
   49.3909  160.2369   33.3492 H   0  0  0  0  0  0  0  0  0  0  0  0
   51.0151  161.0042   33.3492 H   0  0  0  0  0  0  0  0  0  0  0  0
   48.8677  161.4410   31.2179 H   0  0  0  0  0  0  0  0  0  0  0  0
   50.5700  162.0713   31.2187 H   0  0  0  0  0  0  0  0  0  0  0  0
   52.3731  160.8064   30.5336 H   0  0  0  0  0  0  0  0  0  0  0  0
   53.2550  158.8022   29.3648 H   0  0  0  0  0  0  0  0  0  0  0  0
   53.5078  157.1739   25.2205 H   0  0  0  0  0  0  0  0  0  0  0  0
   54.4424  155.4001   23.7336 H   0  0  0  0  0  0  0  0  0  0  0  0
   54.3852  153.0094   24.4496 H   0  0  0  0  0  0  0  0  0  0  0  0
   53.8400  151.4990   26.1050 H   0  0  0  0  0  0  0  0  0  0  0  0
   51.1170  154.0460   30.7550 H   0  0  0  0  0  0  0  0  0  0  0  0
   49.4093  156.8850   29.7626 H   0  0  0  0  0  0  0  0  0  0  0  0
   48.0814  158.8615   32.1505 H   0  0  0  0  0  0  0  0  0  0  0  0
   47.5934  159.7526   30.6691 H   0  0  0  0  0  0  0  0  0  0  0  0
   47.6198  157.9565   30.6691 H   0  0  0  0  0  0  0  0  0  0  0  0
  1  2  1  0
  2  3  1  0
  3  4  2  0
  4  5  1  0
  5  6  2  0
  6  7  1  0
  7  8  1  0
  8  9  1  0
  9 10  2  0
 10 11  1  0
 11 12  2  0
 12 13  1  0
 13 14  1  0
 13 15  2  0
 15 16  1  0
 16 17  2  0
 16 18  1  0
 18 19  1  0
  6 20  1  0
 20 21  2  0
 21 22  1  0
 21  3  1  0
 18  7  2  0
 15  9  1  0
  1 23  1  0
  1 24  1  0
  1 25  1  0
  2 26  1  0
  2 27  1  0
  4 28  1  0
  5 29  1  0
 10 30  1  0
 11 31  1  0
 12 32  1  0
 14 33  1  0
 19 34  1  0
 20 35  1  0
 22 36  1  0
 22 37  1  0
 22 38  1  0
M  END
>  <meeko>  (1) 
{"is_sidechain": [false], "free_energy": -11.406, "intermolecular_energy": -13.406, "internal_energy": -0.172}

$$$$
cand_042_out
     RDKit          3D

 38 40  0  0  0  0  0  0  0  0999 V2000
   49.1900  160.4630   33.2100 C   0  0  0  0  0  0  0  0  0  0  0  0
   49.0730  160.6670   31.7070 C   0  0  0  0  0  0  0  0  0  0  0  0
   49.7880  159.5830   30.9310 C   0  0  0  0  0  0  0  0  0  0  0  0
   49.1110  158.3770   30.6900 C   0  0  0  0  0  0  0  0  0  0  0  0
   49.7220  157.3350   29.9890 C   0  0  0  0  0  0  0  0  0  0  0  0
   51.0250  157.4710   29.5030 C   0  0  0  0  0  0  0  0  0  0  0  0
   51.7050  156.3770   28.7780 C   0  0  0  0  0  0  0  0  0  0  0  0
   52.2390  156.7840   27.5610 O   0  0  0  0  0  0  0  0  0  0  0  0
   52.8980  155.8660   26.7850 C   0  0  0  0  0  0  0  0  0  0  0  0
   53.4290  156.3210   25.5780 C   0  0  0  0  0  0  0  0  0  0  0  0
   54.1120  155.4370   24.7390 C   0  0  0  0  0  0  0  0  0  0  0  0
   54.2630  154.0980   25.1070 C   0  0  0  0  0  0  0  0  0  0  0  0
   53.7310  153.6470   26.3120 C   0  0  0  0  0  0  0  0  0  0  0  0
   53.9140  152.3240   26.6100 O   0  0  0  0  0  0  0  0  0  0  0  0
   53.0490  154.5320   27.1520 C   0  0  0  0  0  0  0  0  0  0  0  0
   52.4750  154.0980   28.4260 C   0  0  0  0  0  0  0  0  0  0  0  0
   52.5600  152.9350   28.8150 O   0  0  0  0  0  0  0  0  0  0  0  0
   51.7780  155.1160   29.2450 C   0  0  0  0  0  0  0  0  0  0  0  0
   51.2290  154.6920   30.4410 O   0  0  0  0  0  0  0  0  0  0  0  0
   51.7080  158.6720   29.7570 C   0  0  0  0  0  0  0  0  0  0  0  0
   51.1100  159.7280   30.4690 C   0  0  0  0  0  0  0  0  0  0  0  0
   51.8960  160.9910   30.6870 C   0  0  0  0  0  0  0  0  0  0  0  0
   48.7085  161.3027   33.7326 H   0  0  0  0  0  0  0  0  0  0  0  0
   48.6939  159.5226   33.4921 H   0  0  0  0  0  0  0  0  0  0  0  0
   50.2522  160.4162   33.4921 H   0  0  0  0  0  0  0  0  0  0  0  0
   48.0087  160.6595   31.4293 H   0  0  0  0  0  0  0  0  0  0  0  0
   49.5424  161.6299   31.4571 H   0  0  0  0  0  0  0  0  0  0  0  0
   48.0826  158.2507   31.0593 H   0  0  0  0  0  0  0  0  0  0  0  0
   49.1720  156.3979   29.8178 H   0  0  0  0  0  0  0  0  0  0  0  0
   53.3101  157.3751   25.2870 H   0  0  0  0  0  0  0  0  0  0  0  0
   54.5313  155.7959   23.7875 H   0  0  0  0  0  0  0  0  0  0  0  0
   54.8007  153.4018   24.4466 H   0  0  0  0  0  0  0  0  0  0  0  0
   53.8610  151.6800   25.9320 H   0  0  0  0  0  0  0  0  0  0  0  0
   50.8130  153.8550   30.4950 H   0  0  0  0  0  0  0  0  0  0  0  0
   52.7380  158.7900   29.3894 H   0  0  0  0  0  0  0  0  0  0  0  0
   52.0082  161.1713   31.7663 H   0  0  0  0  0  0  0  0  0  0  0  0
   52.8900  160.8883   30.2271 H   0  0  0  0  0  0  0  0  0  0  0  0
   51.3649  161.8374   30.2271 H   0  0  0  0  0  0  0  0  0  0  0  0
  1  2  1  0
  2  3  1  0
  3  4  2  0
  4  5  1  0
  5  6  2  0
  6  7  1  0
  7  8  1  0
  8  9  1  0
  9 10  2  0
 10 11  1  0
 11 12  2  0
 12 13  1  0
 13 14  1  0
 13 15  2  0
 15 16  1  0
 16 17  2  0
 16 18  1  0
 18 19  1  0
  6 20  1  0
 20 21  2  0
 21 22  1  0
 21  3  1  0
 18  7  2  0
 15  9  1  0
  1 23  1  0
  1 24  1  0
  1 25  1  0
  2 26  1  0
  2 27  1  0
  4 28  1  0
  5 29  1  0
 10 30  1  0
 11 31  1  0
 12 32  1  0
 14 33  1  0
 19 34  1  0
 20 35  1  0
 22 36  1  0
 22 37  1  0
 22 38  1  0
M  END
>  <meeko>  (2) 
{"is_sidechain": [false], "free_energy": -11.225, "intermolecular_energy": -13.136, "internal_energy": -0.23}

$$$$
cand_042_out
     RDKit          3D

 38 40  0  0  0  0  0  0  0  0999 V2000
   51.9430  152.6380   26.5870 C   0  0  0  0  0  0  0  0  0  0  0  0
   53.0910  153.5830   26.9100 C   0  0  0  0  0  0  0  0  0  0  0  0
   52.6200  154.8120   27.6540 C   0  0  0  0  0  0  0  0  0  0  0  0
   51.9260  154.6360   28.8620 C   0  0  0  0  0  0  0  0  0  0  0  0
   51.4560  155.7310   29.5910 C   0  0  0  0  0  0  0  0  0  0  0  0
   51.6720  157.0350   29.1360 C   0  0  0  0  0  0  0  0  0  0  0  0
   51.1660  158.2120   29.8740 C   0  0  0  0  0  0  0  0  0  0  0  0
   49.8330  158.0850   30.2460 O   0  0  0  0  0  0  0  0  0  0  0  0
   49.2370  159.1070   30.9370 C   0  0  0  0  0  0  0  0  0  0  0  0
   47.9020  158.9310   31.3030 C   0  0  0  0  0  0  0  0  0  0  0  0
   47.2340  159.9340   32.0080 C   0  0  0  0  0  0  0  0  0  0  0  0
   47.9000  161.1140   32.3470 C   0  0  0  0  0  0  0  0  0  0  0  0
   49.2330  161.2870   31.9820 C   0  0  0  0  0  0  0  0  0  0  0  0
   49.8240  162.4660   32.3440 O   0  0  0  0  0  0  0  0  0  0  0  0
   49.9010  160.2820   31.2760 C   0  0  0  0  0  0  0  0  0  0  0  0
   51.3000  160.4240   30.8730 C   0  0  0  0  0  0  0  0  0  0  0  0
   51.9520  161.4350   31.1280 O   0  0  0  0  0  0  0  0  0  0  0  0
   51.9180  159.2980   30.1360 C   0  0  0  0  0  0  0  0  0  0  0  0
   53.2370  159.4480   29.7490 O   0  0  0  0  0  0  0  0  0  0  0  0
   52.3520  157.2110   27.9200 C   0  0  0  0  0  0  0  0  0  0  0  0
   52.8250  156.1180   27.1700 C   0  0  0  0  0  0  0  0  0  0  0  0
   53.5610  156.3850   25.8860 C   0  0  0  0  0  0  0  0  0  0  0  0
   51.4964  152.2704   27.5226 H   0  0  0  0  0  0  0  0  0  0  0  0
   51.1805  153.1737   26.0024 H   0  0  0  0  0  0  0  0  0  0  0  0
   52.3222  151.7868   26.0024 H   0  0  0  0  0  0  0  0  0  0  0  0
   53.8251  153.0504   27.5325 H   0  0  0  0  0  0  0  0  0  0  0  0
   53.5387  153.9112   25.9603 H   0  0  0  0  0  0  0  0  0  0  0  0
   51.7494  153.6185   29.2407 H   0  0  0  0  0  0  0  0  0  0  0  0
   50.9108  155.5656   30.5320 H   0  0  0  0  0  0  0  0  0  0  0  0
   47.3761  158.0024   31.0362 H   0  0  0  0  0  0  0  0  0  0  0  0
   46.1818  159.7948   32.2969 H   0  0  0  0  0  0  0  0  0  0  0  0
   47.3730  161.9048   32.9009 H   0  0  0  0  0  0  0  0  0  0  0  0
   49.7870  163.2050   31.7700 H   0  0  0  0  0  0  0  0  0  0  0  0
   53.7120  160.2170   29.9930 H   0  0  0  0  0  0  0  0  0  0  0  0
   52.5195  158.2309   27.5434 H   0  0  0  0  0  0  0  0  0  0  0  0
   54.5728  156.7521   26.1129 H   0  0  0  0  0  0  0  0  0  0  0  0
   53.6305  155.4548   25.3030 H   0  0  0  0  0  0  0  0  0  0  0  0
   53.0180  157.1434   25.3030 H   0  0  0  0  0  0  0  0  0  0  0  0
  1  2  1  0
  2  3  1  0
  3  4  2  0
  4  5  1  0
  5  6  2  0
  6  7  1  0
  7  8  1  0
  8  9  1  0
  9 10  2  0
 10 11  1  0
 11 12  2  0
 12 13  1  0
 13 14  1  0
 13 15  2  0
 15 16  1  0
 16 17  2  0
 16 18  1  0
 18 19  1  0
  6 20  1  0
 20 21  2  0
 21 22  1  0
 21  3  1  0
 18  7  2  0
 15  9  1  0
  1 23  1  0
  1 24  1  0
  1 25  1  0
  2 26  1  0
  2 27  1  0
  4 28  1  0
  5 29  1  0
 10 30  1  0
 11 31  1  0
 12 32  1  0
 14 33  1  0
 19 34  1  0
 20 35  1  0
 22 36  1  0
 22 37  1  0
 22 38  1  0
M  END
>  <meeko>  (3) 
{"is_sidechain": [false], "free_energy": -10.65, "intermolecular_energy": -12.515, "internal_energy": -0.175}

$$$$
cand_042_out
     RDKit          3D

 38 40  0  0  0  0  0  0  0  0999 V2000
   53.0710  154.1760   25.0480 C   0  0  0  0  0  0  0  0  0  0  0  0
   53.2610  153.8900   26.5300 C   0  0  0  0  0  0  0  0  0  0  0  0
   52.7130  155.0030   27.3960 C   0  0  0  0  0  0  0  0  0  0  0  0
   52.9590  156.3310   27.0130 C   0  0  0  0  0  0  0  0  0  0  0  0
   52.4890  157.4010   27.7770 C   0  0  0  0  0  0  0  0  0  0  0  0
   51.7540  157.1750   28.9430 C   0  0  0  0  0  0  0  0  0  0  0  0
   51.2640  158.2890   29.7840 C   0  0  0  0  0  0  0  0  0  0  0  0
   49.9290  158.1480   30.1430 O   0  0  0  0  0  0  0  0  0  0  0  0
   49.3470  159.1120   30.9240 C   0  0  0  0  0  0  0  0  0  0  0  0
   48.0090  158.9240   31.2730 C   0  0  0  0  0  0  0  0  0  0  0  0
   47.3550  159.8700   32.0660 C   0  0  0  0  0  0  0  0  0  0  0  0
   48.0380  161.0040   32.5100 C   0  0  0  0  0  0  0  0  0  0  0  0
   49.3740  161.1890   32.1610 C   0  0  0  0  0  0  0  0  0  0  0  0
   49.9820  162.3220   32.6280 O   0  0  0  0  0  0  0  0  0  0  0  0
   50.0280  160.2420   31.3680 C   0  0  0  0  0  0  0  0  0  0  0  0
   51.4290  160.3990   30.9790 C   0  0  0  0  0  0  0  0  0  0  0  0
   52.0960  161.3730   31.3240 O   0  0  0  0  0  0  0  0  0  0  0  0
   52.0310  159.3350   30.1430 C   0  0  0  0  0  0  0  0  0  0  0  0
   53.3530  159.5000   29.7710 O   0  0  0  0  0  0  0  0  0  0  0  0
   51.5210  155.8480   29.3360 C   0  0  0  0  0  0  0  0  0  0  0  0
   51.9940  154.7580   28.5820 C   0  0  0  0  0  0  0  0  0  0  0  0
   51.6900  153.3620   29.0550 C   0  0  0  0  0  0  0  0  0  0  0  0
   52.4661  155.0865   24.9249 H   0  0  0  0  0  0  0  0  0  0  0  0
   54.0528  154.3212   24.5738 H   0  0  0  0  0  0  0  0  0  0  0  0
   52.5566  153.3272   24.5738 H   0  0  0  0  0  0  0  0  0  0  0  0
   52.7392  152.9548   26.7811 H   0  0  0  0  0  0  0  0  0  0  0  0
   54.3405  153.8076   26.7248 H   0  0  0  0  0  0  0  0  0  0  0  0
   53.5317  156.5320   26.0956 H   0  0  0  0  0  0  0  0  0  0  0  0
   52.6997  158.4323   27.4574 H   0  0  0  0  0  0  0  0  0  0  0  0
   47.4695  158.0312   30.9238 H   0  0  0  0  0  0  0  0  0  0  0  0
   46.3004  159.7213   32.3411 H   0  0  0  0  0  0  0  0  0  0  0  0
   47.5226  161.7493   33.1336 H   0  0  0  0  0  0  0  0  0  0  0  0
   50.1100  162.4390   33.5490 H   0  0  0  0  0  0  0  0  0  0  0  0
   53.8790  160.1540   30.1860 H   0  0  0  0  0  0  0  0  0  0  0  0
   50.9534  155.6548   30.2582 H   0  0  0  0  0  0  0  0  0  0  0  0
   51.6853  153.3404   30.1548 H   0  0  0  0  0  0  0  0  0  0  0  0
   50.7037  153.0537   28.6780 H   0  0  0  0  0  0  0  0  0  0  0  0
   52.4588  152.6715   28.6780 H   0  0  0  0  0  0  0  0  0  0  0  0
  1  2  1  0
  2  3  1  0
  3  4  2  0
  4  5  1  0
  5  6  2  0
  6  7  1  0
  7  8  1  0
  8  9  1  0
  9 10  2  0
 10 11  1  0
 11 12  2  0
 12 13  1  0
 13 14  1  0
 13 15  2  0
 15 16  1  0
 16 17  2  0
 16 18  1  0
 18 19  1  0
  6 20  1  0
 20 21  2  0
 21 22  1  0
 21  3  1  0
 18  7  2  0
 15  9  1  0
  1 23  1  0
  1 24  1  0
  1 25  1  0
  2 26  1  0
  2 27  1  0
  4 28  1  0
  5 29  1  0
 10 30  1  0
 11 31  1  0
 12 32  1  0
 14 33  1  0
 19 34  1  0
 20 35  1  0
 22 36  1  0
 22 37  1  0
 22 38  1  0
M  END
>  <meeko>  (4) 
{"is_sidechain": [false], "free_energy": -10.149, "intermolecular_energy": -11.928, "internal_energy": -0.174}

$$$$
cand_042_out
     RDKit          3D

 38 40  0  0  0  0  0  0  0  0999 V2000
   52.6170  152.5050   25.9570 C   0  0  0  0  0  0  0  0  0  0  0  0
   53.6020  153.3790   26.7190 C   0  0  0  0  0  0  0  0  0  0  0  0
   52.9070  154.4940   27.4690 C   0  0  0  0  0  0  0  0  0  0  0  0
   52.1850  154.1700   28.6290 C   0  0  0  0  0  0  0  0  0  0  0  0
   51.5140  155.1540   29.3580 C   0  0  0  0  0  0  0  0  0  0  0  0
   51.5490  156.4910   28.9520 C   0  0  0  0  0  0  0  0  0  0  0  0
   50.8280  157.5500   29.6910 C   0  0  0  0  0  0  0  0  0  0  0  0
   51.6460  158.6170   30.0420 O   0  0  0  0  0  0  0  0  0  0  0  0
   51.1040  159.6690   30.7320 C   0  0  0  0  0  0  0  0  0  0  0  0
   51.9590  160.7250   31.0520 C   0  0  0  0  0  0  0  0  0  0  0  0
   51.4700  161.8290   31.7550 C   0  0  0  0  0  0  0  0  0  0  0  0
   50.1280  161.8760   32.1400 C   0  0  0  0  0  0  0  0  0  0  0  0
   49.2780  160.8210   31.8190 C   0  0  0  0  0  0  0  0  0  0  0  0
   47.9770  160.9320   32.2270 O   0  0  0  0  0  0  0  0  0  0  0  0
   49.7670  159.7170   31.1140 C   0  0  0  0  0  0  0  0  0  0  0  0
   48.9080  158.5880   30.7580 C   0  0  0  0  0  0  0  0  0  0  0  0
   47.7180  158.5530   31.0680 O   0  0  0  0  0  0  0  0  0  0  0  0
   49.5220  157.4720   30.0040 C   0  0  0  0  0  0  0  0  0  0  0  0
   48.7020  156.4040   29.6840 O   0  0  0  0  0  0  0  0  0  0  0  0
   52.2580  156.8130   27.7830 C   0  0  0  0  0  0  0  0  0  0  0  0
   52.9330  155.8330   27.0320 C   0  0  0  0  0  0  0  0  0  0  0  0
   53.6870  156.2540   25.8010 C   0  0  0  0  0  0  0  0  0  0  0  0
   51.9911  151.9496   26.6710 H   0  0  0  0  0  0  0  0  0  0  0  0
   51.9778  153.1386   25.3245 H   0  0  0  0  0  0  0  0  0  0  0  0
   53.1700  151.7949   25.3245 H   0  0  0  0  0  0  0  0  0  0  0  0
   54.1486  152.7530   27.4396 H   0  0  0  0  0  0  0  0  0  0  0  0
   54.2868  153.8355   25.9891 H   0  0  0  0  0  0  0  0  0  0  0  0
   52.1474  153.1245   28.9688 H   0  0  0  0  0  0  0  0  0  0  0  0
   50.9520  154.8740   30.2612 H   0  0  0  0  0  0  0  0  0  0  0  0
   53.0164  160.6880   30.7511 H   0  0  0  0  0  0  0  0  0  0  0  0
   52.1428  162.6624   32.0057 H   0  0  0  0  0  0  0  0  0  0  0  0
   49.7438  162.7443   32.6953 H   0  0  0  0  0  0  0  0  0  0  0  0
   47.6980  160.5200   33.0210 H   0  0  0  0  0  0  0  0  0  0  0  0
   49.0770  155.5790   29.4510 H   0  0  0  0  0  0  0  0  0  0  0  0
   52.2863  157.8596   27.4455 H   0  0  0  0  0  0  0  0  0  0  0  0
   54.6121  156.7706   26.0964 H   0  0  0  0  0  0  0  0  0  0  0  0
   53.9381  155.3655   25.2030 H   0  0  0  0  0  0  0  0  0  0  0  0
   53.0624  156.9339   25.2030 H   0  0  0  0  0  0  0  0  0  0  0  0
  1  2  1  0
  2  3  1  0
  3  4  2  0
  4  5  1  0
  5  6  2  0
  6  7  1  0
  7  8  1  0
  8  9  1  0
  9 10  2  0
 10 11  1  0
 11 12  2  0
 12 13  1  0
 13 14  1  0
 13 15  2  0
 15 16  1  0
 16 17  2  0
 16 18  1  0
 18 19  1  0
  6 20  1  0
 20 21  2  0
 21 22  1  0
 21  3  1  0
 18  7  2  0
 15  9  1  0
  1 23  1  0
  1 24  1  0
  1 25  1  0
  2 26  1  0
  2 27  1  0
  4 28  1  0
  5 29  1  0
 10 30  1  0
 11 31  1  0
 12 32  1  0
 14 33  1  0
 19 34  1  0
 20 35  1  0
 22 36  1  0
 22 37  1  0
 22 38  1  0
M  END
>  <meeko>  (5) 
{"is_sidechain": [false], "free_energy": -8.735, "intermolecular_energy": -10.186, "internal_energy": -0.253}

$$$$
