cand_022_out
     RDKit          3D

 41 43  0  0  0  0  0  0  0  0999 V2000
   46.6740  160.0610   31.5690 C   0  0  0  0  0  0  0  0  0  0  0  0
   47.5950  159.2940   30.6340 C   0  0  0  0  0  0  0  0  0  0  0  0
   48.6730  158.5350   31.4100 C   0  0  0  0  0  0  0  0  0  0  0  0
   50.0010  158.5500   30.6850 C   0  0  0  0  0  0  0  0  0  0  0  0
   50.3940  157.3890   29.9890 C   0  0  0  0  0  0  0  0  0  0  0  0
   51.6180  157.3140   29.3090 C   0  0  0  0  0  0  0  0  0  0  0  0
   52.0190  156.1070   28.5580 C   0  0  0  0  0  0  0  0  0  0  0  0
   52.5270  156.3990   27.2970 O   0  0  0  0  0  0  0  0  0  0  0  0
   52.9380  155.3670   26.4920 C   0  0  0  0  0  0  0  0  0  0  0  0
   53.4270  155.7060   25.2290 C   0  0  0  0  0  0  0  0  0  0  0  0
   53.8640  154.7030   24.3610 C   0  0  0  0  0  0  0  0  0  0  0  0
   53.8130  153.3640   24.7540 C   0  0  0  0  0  0  0  0  0  0  0  0
   53.3250  153.0300   26.0140 C   0  0  0  0  0  0  0  0  0  0  0  0
   53.3030  151.7010   26.3360 O   0  0  0  0  0  0  0  0  0  0  0  0
   52.8870  154.0340   26.8830 C   0  0  0  0  0  0  0  0  0  0  0  0
   52.3660  153.7250   28.2170 C   0  0  0  0  0  0  0  0  0  0  0  0
   52.2970  152.5720   28.6370 O   0  0  0  0  0  0  0  0  0  0  0  0
   51.9210  154.8600   29.0560 C   0  0  0  0  0  0  0  0  0  0  0  0
   51.4440  154.5580   30.3190 O   0  0  0  0  0  0  0  0  0  0  0  0
   52.4500  158.4380   29.3190 C   0  0  0  0  0  0  0  0  0  0  0  0
   52.0780  159.5960   30.0080 C   0  0  0  0  0  0  0  0  0  0  0  0
   50.8620  159.6650   30.7030 C   0  0  0  0  0  0  0  0  0  0  0  0
   50.5060  160.9360   31.4230 C   0  0  0  0  0  0  0  0  0  0  0  0
   46.9420  159.8378   32.6122 H   0  0  0  0  0  0  0  0  0  0  0  0
   46.7815  161.1403   31.3857 H   0  0  0  0  0  0  0  0  0  0  0  0
   45.6320  159.7600   31.3857 H   0  0  0  0  0  0  0  0  0  0  0  0
   46.9980  158.5746   30.0544 H   0  0  0  0  0  0  0  0  0  0  0  0
   48.0913  160.0156   29.9685 H   0  0  0  0  0  0  0  0  0  0  0  0
   48.8001  159.0056   32.3961 H   0  0  0  0  0  0  0  0  0  0  0  0
   48.3496  157.4885   31.5108 H   0  0  0  0  0  0  0  0  0  0  0  0
   49.7222  156.5181   29.9790 H   0  0  0  0  0  0  0  0  0  0  0  0
   53.4680  156.7604   24.9184 H   0  0  0  0  0  0  0  0  0  0  0  0
   54.2493  154.9684   23.3654 H   0  0  0  0  0  0  0  0  0  0  0  0
   54.1577  152.5750   24.0694 H   0  0  0  0  0  0  0  0  0  0  0  0
   53.0200  151.4300   27.1870 H   0  0  0  0  0  0  0  0  0  0  0  0
   51.9980  154.1250   30.9380 H   0  0  0  0  0  0  0  0  0  0  0  0
   53.4078  158.4106   28.7787 H   0  0  0  0  0  0  0  0  0  0  0  0
   52.7498  160.4670   30.0050 H   0  0  0  0  0  0  0  0  0  0  0  0
   50.5531  160.7677   32.5090 H   0  0  0  0  0  0  0  0  0  0  0  0
   51.2171  161.7273   31.1434 H   0  0  0  0  0  0  0  0  0  0  0  0
   49.4873  161.2428   31.1434 H   0  0  0  0  0  0  0  0  0  0  0  0
  1  2  1  0
  2  3  1  0
  3  4  1  0
  4  5  2  0
  5  6  1  0
  6  7  1  0
  7  8  1  0
  8  9  1  0
  9 10  2  0
 10 11  1  0
 11 12  2  0
 12 13  1  0
 13 14  1  0
 13 15  2  0
 15 16  1  0
 16 17  2  0
 16 18  1  0
 18 19  1  0
  6 20  2  0
 20 21  1  0
 21 22  2  0
 22 23  1  0
 22  4  1  0
 18  7  2  0
 15  9  1  0
  1 24  1  0
  1 25  1  0
  1 26  1  0
  2 27  1  0
  2 28  1  0
  3 29  1  0
  3 30  1  0
  5 31  1  0
 10 32  1  0
 11 33  1  0
 12 34  1  0
 14 35  1  0
 19 36  1  0
 20 37  1  0
 21 38  1  0
 23 39  1  0
 23 40  1  0
 23 41  1  0
M  END
>  <meeko>  (1) 
{"is_sidechain": [false], "free_energy": -10.822, "intermolecular_energy": -13.353, "internal_energy": -0.242}

$$$$
cand_022_out
     RDKit          3D

 41 43  0  0  0  0  0  0  0  0999 V2000
   54.9730  156.5770   24.4870 C   0  0  0  0  0  0  0  0  0  0  0  0
   53.6400  156.5320   25.2180 C   0  0  0  0  0  0  0  0  0  0  0  0
   53.2630  155.1000   25.6040 C   0  0  0  0  0  0  0  0  0  0  0  0
   52.6270  155.0400   26.9750 C   0  0  0  0  0  0  0  0  0  0  0  0
   52.2780  156.2530   27.6030 C   0  0  0  0  0  0  0  0  0  0  0  0
   51.7030  156.2840   28.8810 C   0  0  0  0  0  0  0  0  0  0  0  0
   51.3130  157.5530   29.5290 C   0  0  0  0  0  0  0  0  0  0  0  0
   49.9920  157.5540   29.9630 O   0  0  0  0  0  0  0  0  0  0  0  0
   49.4990  158.6740   30.5840 C   0  0  0  0  0  0  0  0  0  0  0  0
   48.1640  158.6360   30.9910 C   0  0  0  0  0  0  0  0  0  0  0  0
   47.5990  159.7420   31.6290 C   0  0  0  0  0  0  0  0  0  0  0  0
   48.3680  160.8840   31.8630 C   0  0  0  0  0  0  0  0  0  0  0  0
   49.6990  160.9190   31.4570 C   0  0  0  0  0  0  0  0  0  0  0  0
   50.3950  162.0670   31.7160 O   0  0  0  0  0  0  0  0  0  0  0  0
   50.2640  159.8120   30.8160 C   0  0  0  0  0  0  0  0  0  0  0  0
   51.6590  159.8070   30.3730 C   0  0  0  0  0  0  0  0  0  0  0  0
   52.4010  160.7720   30.5490 O   0  0  0  0  0  0  0  0  0  0  0  0
   52.1580  158.5880   29.6970 C   0  0  0  0  0  0  0  0  0  0  0  0
   53.4810  158.5890   29.2940 O   0  0  0  0  0  0  0  0  0  0  0  0
   51.4630  155.0680   29.5290 C   0  0  0  0  0  0  0  0  0  0  0  0
   51.8070  153.8560   28.9240 C   0  0  0  0  0  0  0  0  0  0  0  0
   52.3980  153.8260   27.6520 C   0  0  0  0  0  0  0  0  0  0  0  0
   52.7450  152.4950   27.0420 C   0  0  0  0  0  0  0  0  0  0  0  0
   55.7925  156.6047   25.2202 H   0  0  0  0  0  0  0  0  0  0  0  0
   55.0756  155.6818   23.8560 H   0  0  0  0  0  0  0  0  0  0  0  0
   55.0150  157.4771   23.8560 H   0  0  0  0  0  0  0  0  0  0  0  0
   53.7116  157.1417   26.1308 H   0  0  0  0  0  0  0  0  0  0  0  0
   52.8631  156.9253   24.5459 H   0  0  0  0  0  0  0  0  0  0  0  0
   52.5513  154.7066   24.8632 H   0  0  0  0  0  0  0  0  0  0  0  0
   54.1827  154.4969   25.6256 H   0  0  0  0  0  0  0  0  0  0  0  0
   52.4619  157.2008   27.0758 H   0  0  0  0  0  0  0  0  0  0  0  0
   47.5582  157.7360   30.8093 H   0  0  0  0  0  0  0  0  0  0  0  0
   46.5466  159.7138   31.9478 H   0  0  0  0  0  0  0  0  0  0  0  0
   47.9227  161.7543   32.3673 H   0  0  0  0  0  0  0  0  0  0  0  0
   51.2420  162.1970   31.3370 H   0  0  0  0  0  0  0  0  0  0  0  0
   53.9300  157.7780   29.1580 H   0  0  0  0  0  0  0  0  0  0  0  0
   50.9983  155.0655   30.5260 H   0  0  0  0  0  0  0  0  0  0  0  0
   51.6115  152.9116   29.4530 H   0  0  0  0  0  0  0  0  0  0  0  0
   52.9356  151.7638   27.8414 H   0  0  0  0  0  0  0  0  0  0  0  0
   51.9074  152.1475   26.4193 H   0  0  0  0  0  0  0  0  0  0  0  0
   53.6456  152.6006   26.4193 H   0  0  0  0  0  0  0  0  0  0  0  0
  1  2  1  0
  2  3  1  0
  3  4  1  0
  4  5  2  0
  5  6  1  0
  6  7  1  0
  7  8  1  0
  8  9  1  0
  9 10  2  0
 10 11  1  0
 11 12  2  0
 12 13  1  0
 13 14  1  0
 13 15  2  0
 15 16  1  0
 16 17  2  0
 16 18  1  0
 18 19  1  0
  6 20  2  0
 20 21  1  0
 21 22  2  0
 22 23  1  0
 22  4  1  0
 18  7  2  0
 15  9  1  0
  1 24  1  0
  1 25  1  0
  1 26  1  0
  2 27  1  0
  2 28  1  0
  3 29  1  0
  3 30  1  0
  5 31  1  0
 10 32  1  0
 11 33  1  0
 12 34  1  0
 14 35  1  0
 19 36  1  0
 20 37  1  0
 21 38  1  0
 23 39  1  0
 23 40  1  0
 23 41  1  0
M  END
>  <meeko>  (2) 
{"is_sidechain": [false], "free_energy": -10.625, "intermolecular_energy": -12.97, "internal_energy": -0.382}

$$$$
cand_022_out
     RDKit          3D

 41 43  0  0  0  0  0  0  0  0999 V2000
   50.6470  162.1170   32.5930 C   0  0  0  0  0  0  0  0  0  0  0  0
   51.5410  161.0530   31.9780 C   0  0  0  0  0  0  0  0  0  0  0  0
   51.1810  160.8010   30.5120 C   0  0  0  0  0  0  0  0  0  0  0  0
   50.5820  159.4260   30.3110 C   0  0  0  0  0  0  0  0  0  0  0  0
   51.3350  158.4680   29.6020 C   0  0  0  0  0  0  0  0  0  0  0  0
   50.8430  157.1790   29.3540 C   0  0  0  0  0  0  0  0  0  0  0  0
   51.6420  156.1650   28.6340 C   0  0  0  0  0  0  0  0  0  0  0  0
   52.1890  156.6490   27.4510 O   0  0  0  0  0  0  0  0  0  0  0  0
   52.9550  155.8090   26.6830 C   0  0  0  0  0  0  0  0  0  0  0  0
   53.4720  156.3320   25.4960 C   0  0  0  0  0  0  0  0  0  0  0  0
   54.2610  155.5310   24.6680 C   0  0  0  0  0  0  0  0  0  0  0  0
   54.5350  154.2090   25.0260 C   0  0  0  0  0  0  0  0  0  0  0  0
   54.0180  153.6900   26.2110 C   0  0  0  0  0  0  0  0  0  0  0  0
   54.3250  152.3890   26.5020 O   0  0  0  0  0  0  0  0  0  0  0  0
   53.2270  154.4920   27.0390 C   0  0  0  0  0  0  0  0  0  0  0  0
   52.6640  153.9860   28.2920 C   0  0  0  0  0  0  0  0  0  0  0  0
   52.8660  152.8360   28.6780 O   0  0  0  0  0  0  0  0  0  0  0  0
   51.8330  154.9140   29.0930 C   0  0  0  0  0  0  0  0  0  0  0  0
   51.3180  154.4300   30.2810 O   0  0  0  0  0  0  0  0  0  0  0  0
   49.5770  156.8480   29.8460 C   0  0  0  0  0  0  0  0  0  0  0  0
   48.8150  157.7860   30.5470 C   0  0  0  0  0  0  0  0  0  0  0  0
   49.3000  159.0820   30.7800 C   0  0  0  0  0  0  0  0  0  0  0  0
   48.4430  160.0530   31.5440 C   0  0  0  0  0  0  0  0  0  0  0  0
   50.7013  162.0524   33.6898 H   0  0  0  0  0  0  0  0  0  0  0  0
   50.9840  163.1121   32.2672 H   0  0  0  0  0  0  0  0  0  0  0  0
   49.6087  161.9566   32.2672 H   0  0  0  0  0  0  0  0  0  0  0  0
   52.5875  161.3866   32.0374 H   0  0  0  0  0  0  0  0  0  0  0  0
   51.3981  160.1158   32.5358 H   0  0  0  0  0  0  0  0  0  0  0  0
   50.4516  161.5583   30.1888 H   0  0  0  0  0  0  0  0  0  0  0  0
   52.1039  160.8632   29.9168 H   0  0  0  0  0  0  0  0  0  0  0  0
   52.3353  158.7392   29.2335 H   0  0  0  0  0  0  0  0  0  0  0  0
   53.2580  157.3734   25.2136 H   0  0  0  0  0  0  0  0  0  0  0  0
   54.6675  155.9419   23.7321 H   0  0  0  0  0  0  0  0  0  0  0  0
   55.1576  153.5790   24.3737 H   0  0  0  0  0  0  0  0  0  0  0  0
   55.1930  152.0690   26.3540 H   0  0  0  0  0  0  0  0  0  0  0  0
   50.8460  153.6200   30.2910 H   0  0  0  0  0  0  0  0  0  0  0  0
   49.1762  155.8373   29.6793 H   0  0  0  0  0  0  0  0  0  0  0  0
   47.8199  157.5044   30.9219 H   0  0  0  0  0  0  0  0  0  0  0  0
   48.5827  159.8947   32.6235 H   0  0  0  0  0  0  0  0  0  0  0  0
   48.7331  161.0816   31.2837 H   0  0  0  0  0  0  0  0  0  0  0  0
   47.3863  159.8930   31.2837 H   0  0  0  0  0  0  0  0  0  0  0  0
  1  2  1  0
  2  3  1  0
  3  4  1  0
  4  5  2  0
  5  6  1  0
  6  7  1  0
  7  8  1  0
  8  9  1  0
  9 10  2  0
 10 11  1  0
 11 12  2  0
 12 13  1  0
 13 14  1  0
 13 15  2  0
 15 16  1  0
 16 17  2  0
 16 18  1  0
 18 19  1  0
  6 20  2  0
 20 21  1  0
 21 22  2  0
 22 23  1  0
 22  4  1  0
 18  7  2  0
 15  9  1  0
  1 24  1  0
  1 25  1  0
  1 26  1  0
  2 27  1  0
  2 28  1  0
  3 29  1  0
  3 30  1  0
  5 31  1  0
 10 32  1  0
 11 33  1  0
 12 34  1  0
 14 35  1  0
 19 36  1  0
 20 37  1  0
 21 38  1  0
 23 39  1  0
 23 40  1  0
 23 41  1  0
M  END
>  <meeko>  (3) 
{"is_sidechain": [false], "free_energy": -9.318, "intermolecular_energy": -11.948, "internal_energy": 0.209}

$$$$
cand_022_out
     RDKit          3D

 41 43  0  0  0  0  0  0  0  0999 V2000
   55.0070  156.9220   24.1690 C   0  0  0  0  0  0  0  0  0  0  0  0
   53.9640  156.7280   25.2580 C   0  0  0  0  0  0  0  0  0  0  0  0
   53.5450  155.2610   25.3740 C   0  0  0  0  0  0  0  0  0  0  0  0
   52.8800  154.9730   26.7020 C   0  0  0  0  0  0  0  0  0  0  0  0
   52.2730  156.0430   27.3910 C   0  0  0  0  0  0  0  0  0  0  0  0
   51.6550  155.8640   28.6360 C   0  0  0  0  0  0  0  0  0  0  0  0
   50.9950  156.9790   29.3460 C   0  0  0  0  0  0  0  0  0  0  0  0
   51.8570  158.0370   29.6100 O   0  0  0  0  0  0  0  0  0  0  0  0
   51.3720  159.1400   30.2660 C   0  0  0  0  0  0  0  0  0  0  0  0
   52.2760  160.1730   30.5220 C   0  0  0  0  0  0  0  0  0  0  0  0
   51.8470  161.3250   31.1850 C   0  0  0  0  0  0  0  0  0  0  0  0
   50.5160  161.4450   31.5900 C   0  0  0  0  0  0  0  0  0  0  0  0
   49.6170  160.4140   31.3330 C   0  0  0  0  0  0  0  0  0  0  0  0
   48.3290  160.5970   31.7560 O   0  0  0  0  0  0  0  0  0  0  0  0
   50.0470  159.2610   30.6700 C   0  0  0  0  0  0  0  0  0  0  0  0
   49.1340  158.1530   30.3800 C   0  0  0  0  0  0  0  0  0  0  0  0
   47.9470  158.1890   30.6990 O   0  0  0  0  0  0  0  0  0  0  0  0
   49.6910  156.9730   29.6800 C   0  0  0  0  0  0  0  0  0  0  0  0
   48.8160  155.9390   29.4000 O   0  0  0  0  0  0  0  0  0  0  0  0
   51.6340  154.5780   29.1860 C   0  0  0  0  0  0  0  0  0  0  0  0
   52.2350  153.5070   28.5200 C   0  0  0  0  0  0  0  0  0  0  0  0
   52.8700  153.6890   27.2820 C   0  0  0  0  0  0  0  0  0  0  0  0
   53.4970  152.5030   26.6040 C   0  0  0  0  0  0  0  0  0  0  0  0
   55.9889  157.1046   24.6300 H   0  0  0  0  0  0  0  0  0  0  0  0
   55.0576  156.0179   23.5445 H   0  0  0  0  0  0  0  0  0  0  0  0
   54.7291  157.7839   23.5445 H   0  0  0  0  0  0  0  0  0  0  0  0
   54.3849  157.0572   26.2195 H   0  0  0  0  0  0  0  0  0  0  0  0
   53.0759  157.3223   24.9970 H   0  0  0  0  0  0  0  0  0  0  0  0
   52.8392  155.0266   24.5635 H   0  0  0  0  0  0  0  0  0  0  0  0
   54.4493  154.6390   25.3010 H   0  0  0  0  0  0  0  0  0  0  0  0
   52.2848  157.0457   26.9389 H   0  0  0  0  0  0  0  0  0  0  0  0
   53.3243  160.0796   30.2020 H   0  0  0  0  0  0  0  0  0  0  0  0
   52.5585  162.1388   31.3884 H   0  0  0  0  0  0  0  0  0  0  0  0
   50.1786  162.3529   32.1113 H   0  0  0  0  0  0  0  0  0  0  0  0
   47.6480  160.7500   31.1310 H   0  0  0  0  0  0  0  0  0  0  0  0
   48.2160  155.6430   30.0550 H   0  0  0  0  0  0  0  0  0  0  0  0
   51.1389  154.4081   30.1535 H   0  0  0  0  0  0  0  0  0  0  0  0
   52.2100  152.5051   28.9733 H   0  0  0  0  0  0  0  0  0  0  0  0
   53.8686  151.8002   27.3642 H   0  0  0  0  0  0  0  0  0  0  0  0
   52.7466  152.0007   25.9758 H   0  0  0  0  0  0  0  0  0  0  0  0
   54.3346  152.8402   25.9758 H   0  0  0  0  0  0  0  0  0  0  0  0
  1  2  1  0
  2  3  1  0
  3  4  1  0
  4  5  2  0
  5  6  1  0
  6  7  1  0
  7  8  1  0
  8  9  1  0
  9 10  2  0
 10 11  1  0
 11 12  2  0
 12 13  1  0
 13 14  1  0
 13 15  2  0
 15 16  1  0
 16 17  2  0
 16 18  1  0
 18 19  1  0
  6 20  2  0
 20 21  1  0
 21 22  2  0
 22 23  1  0
 22  4  1  0
 18  7  2  0
 15  9  1  0
  1 24  1  0
  1 25  1  0
  1 26  1  0
  2 27  1  0
  2 28  1  0
  3 29  1  0
  3 30  1  0
  5 31  1  0
 10 32  1  0
 11 33  1  0
 12 34  1  0
 14 35  1  0
 19 36  1  0
 20 37  1  0
 21 38  1  0
 23 39  1  0
 23 40  1  0
 23 41  1  0
M  END
>  <meeko>  (4) 
{"is_sidechain": [false], "free_energy": -8.82, "intermolecular_energy": -10.74, "internal_energy": -0.385}

$$$$
