cand_009_out
     RDKit          3D

 41 43  0  0  0  0  0  0  0  0999 V2000
   52.7420  152.6540   27.2910 C   0  0  0  0  0  0  0  0  0  0  0  0
   52.3620  153.9890   27.8710 C   0  0  0  0  0  0  0  0  0  0  0  0
   51.6560  154.0120   29.0860 C   0  0  0  0  0  0  0  0  0  0  0  0
   51.2730  155.2180   29.6750 C   0  0  0  0  0  0  0  0  0  0  0  0
   51.5770  156.4370   29.0640 C   0  0  0  0  0  0  0  0  0  0  0  0
   51.1850  157.7050   29.7140 C   0  0  0  0  0  0  0  0  0  0  0  0
   49.8630  157.7060   30.1440 O   0  0  0  0  0  0  0  0  0  0  0  0
   49.3680  158.8220   30.7670 C   0  0  0  0  0  0  0  0  0  0  0  0
   48.0410  158.7730   31.1950 C   0  0  0  0  0  0  0  0  0  0  0  0
   47.4750  159.8780   31.8350 C   0  0  0  0  0  0  0  0  0  0  0  0
   48.2340  161.0310   32.0460 C   0  0  0  0  0  0  0  0  0  0  0  0
   49.5580  161.0770   31.6180 C   0  0  0  0  0  0  0  0  0  0  0  0
   50.2450  162.2360   31.8550 O   0  0  0  0  0  0  0  0  0  0  0  0
   50.1250  159.9710   30.9780 C   0  0  0  0  0  0  0  0  0  0  0  0
   51.5120  159.9780   30.5130 C   0  0  0  0  0  0  0  0  0  0  0  0
   52.2420  160.9570   30.6540 O   0  0  0  0  0  0  0  0  0  0  0  0
   52.0200  158.7520   29.8530 C   0  0  0  0  0  0  0  0  0  0  0  0
   53.3280  158.7750   29.4060 O   0  0  0  0  0  0  0  0  0  0  0  0
   52.2910  156.4150   27.8570 C   0  0  0  0  0  0  0  0  0  0  0  0
   52.6880  155.2070   27.2400 C   0  0  0  0  0  0  0  0  0  0  0  0
   53.4520  155.2590   25.9210 C   0  0  0  0  0  0  0  0  0  0  0  0
   53.8100  156.6980   25.5350 C   0  0  0  0  0  0  0  0  0  0  0  0
   52.6790  154.5680   24.7930 C   0  0  0  0  0  0  0  0  0  0  0  0
   52.9441  151.9440   28.1065 H   0  0  0  0  0  0  0  0  0  0  0  0
   51.9161  152.2750   26.6712 H   0  0  0  0  0  0  0  0  0  0  0  0
   53.6437  152.7668   26.6712 H   0  0  0  0  0  0  0  0  0  0  0  0
   51.4009  153.0634   29.5812 H   0  0  0  0  0  0  0  0  0  0  0  0
   50.7265  155.2086   30.6296 H   0  0  0  0  0  0  0  0  0  0  0  0
   47.4416  157.8658   31.0287 H   0  0  0  0  0  0  0  0  0  0  0  0
   46.4291  159.8399   32.1735 H   0  0  0  0  0  0  0  0  0  0  0  0
   47.7868  161.9009   32.5492 H   0  0  0  0  0  0  0  0  0  0  0  0
   49.8230  162.9480   32.2940 H   0  0  0  0  0  0  0  0  0  0  0  0
   53.9140  158.0810   29.6340 H   0  0  0  0  0  0  0  0  0  0  0  0
   52.5505  157.3690   27.3748 H   0  0  0  0  0  0  0  0  0  0  0  0
   54.3913  154.7065   26.0711 H   0  0  0  0  0  0  0  0  0  0  0  0
   53.9587  157.2959   26.4463 H   0  0  0  0  0  0  0  0  0  0  0  0
   54.7357  156.6987   24.9408 H   0  0  0  0  0  0  0  0  0  0  0  0
   52.9926  157.1324   24.9408 H   0  0  0  0  0  0  0  0  0  0  0  0
   51.9248  153.8938   25.2249 H   0  0  0  0  0  0  0  0  0  0  0  0
   52.1801  155.3267   24.1721 H   0  0  0  0  0  0  0  0  0  0  0  0
   53.3772  153.9875   24.1721 H   0  0  0  0  0  0  0  0  0  0  0  0
  1  2  1  0
  2  3  2  0
  3  4  1  0
  4  5  2  0
  5  6  1  0
  6  7  1  0
  7  8  1  0
  8  9  2  0
  9 10  1  0
 10 11  2  0
 11 12  1  0
 12 13  1  0
 12 14  2  0
 14 15  1  0
 15 16  2  0
 15 17  1  0
 17 18  1  0
  5 19  1  0
 19 20  2  0
 20 21  1  0
 21 22  1  0
 21 23  1  0
 20  2  1  0
 17  6  2  0
 14  8  1  0
  1 24  1  0
  1 25  1  0
  1 26  1  0
  3 27  1  0
  4 28  1  0
  9 29  1  0
 10 30  1  0
 11 31  1  0
 13 32  1  0
 18 33  1  0
 19 34  1  0
 21 35  1  0
 22 36  1  0
 22 37  1  0
 22 38  1  0
 23 39  1  0
 23 40  1  0
 23 41  1  0
M  END
>  <meeko>  (1) 
{"is_sidechain": [false], "free_energy": -10.964, "intermolecular_energy": -12.886, "internal_energy": 0.067}

$$$$
cand_009_out
     RDKit          3D

 41 43  0  0  0  0  0  0  0  0999 V2000
   50.4700  161.0730   31.4540 C   0  0  0  0  0  0  0  0  0  0  0  0
   50.8060  159.8030   30.7230 C   0  0  0  0  0  0  0  0  0  0  0  0
   52.0710  159.6950   30.1210 C   0  0  0  0  0  0  0  0  0  0  0  0
   52.4420  158.5420   29.4250 C   0  0  0  0  0  0  0  0  0  0  0  0
   51.5590  157.4660   29.3070 C   0  0  0  0  0  0  0  0  0  0  0  0
   51.9790  156.2440   28.5890 C   0  0  0  0  0  0  0  0  0  0  0  0
   52.4470  156.5050   27.3060 O   0  0  0  0  0  0  0  0  0  0  0  0
   52.8710  155.4590   26.5290 C   0  0  0  0  0  0  0  0  0  0  0  0
   53.3470  155.7680   25.2540 C   0  0  0  0  0  0  0  0  0  0  0  0
   53.7920  154.7480   24.4100 C   0  0  0  0  0  0  0  0  0  0  0  0
   53.7620  153.4200   24.8410 C   0  0  0  0  0  0  0  0  0  0  0  0
   53.2870  153.1140   26.1130 C   0  0  0  0  0  0  0  0  0  0  0  0
   53.2830  151.7930   26.4710 O   0  0  0  0  0  0  0  0  0  0  0  0
   52.8410  154.1350   26.9570 C   0  0  0  0  0  0  0  0  0  0  0  0
   52.3350  153.8570   28.3020 C   0  0  0  0  0  0  0  0  0  0  0  0
   52.2690  152.7140   28.7500 O   0  0  0  0  0  0  0  0  0  0  0  0
   51.8940  155.0100   29.1210 C   0  0  0  0  0  0  0  0  0  0  0  0
   51.4050  154.7340   30.3840 O   0  0  0  0  0  0  0  0  0  0  0  0
   50.3010  157.5700   29.9180 C   0  0  0  0  0  0  0  0  0  0  0  0
   49.9000  158.7260   30.6240 C   0  0  0  0  0  0  0  0  0  0  0  0
   48.5110  158.7730   31.2520 C   0  0  0  0  0  0  0  0  0  0  0  0
   47.5610  159.6680   30.4500 C   0  0  0  0  0  0  0  0  0  0  0  0
   48.5690  159.2130   32.7190 C   0  0  0  0  0  0  0  0  0  0  0  0
   50.5170  160.8952   32.5385 H   0  0  0  0  0  0  0  0  0  0  0  0
   51.1918  161.8562   31.1792 H   0  0  0  0  0  0  0  0  0  0  0  0
   49.4553  161.3968   31.1792 H   0  0  0  0  0  0  0  0  0  0  0  0
   52.7806  160.5319   30.1990 H   0  0  0  0  0  0  0  0  0  0  0  0
   53.4394  158.4808   28.9653 H   0  0  0  0  0  0  0  0  0  0  0  0
   53.3717  156.8139   24.9141 H   0  0  0  0  0  0  0  0  0  0  0  0
   54.1665  154.9910   23.4047 H   0  0  0  0  0  0  0  0  0  0  0  0
   54.1132  152.6170   24.1762 H   0  0  0  0  0  0  0  0  0  0  0  0
   54.0930  151.3270   26.5450 H   0  0  0  0  0  0  0  0  0  0  0  0
   51.9940  154.5030   31.0750 H   0  0  0  0  0  0  0  0  0  0  0  0
   49.6030  156.7229   29.8450 H   0  0  0  0  0  0  0  0  0  0  0  0
   48.1107  157.7487   31.2254 H   0  0  0  0  0  0  0  0  0  0  0  0
   46.9384  160.2545   31.1417 H   0  0  0  0  0  0  0  0  0  0  0  0
   48.1471  160.3498   29.8162 H   0  0  0  0  0  0  0  0  0  0  0  0
   46.9153  159.0423   29.8162 H   0  0  0  0  0  0  0  0  0  0  0  0
   48.4532  158.3341   33.3703 H   0  0  0  0  0  0  0  0  0  0  0  0
   49.5382  159.6930   32.9198 H   0  0  0  0  0  0  0  0  0  0  0  0
   47.7573  159.9277   32.9198 H   0  0  0  0  0  0  0  0  0  0  0  0
  1  2  1  0
  2  3  2  0
  3  4  1  0
  4  5  2  0
  5  6  1  0
  6  7  1  0
  7  8  1  0
  8  9  2  0
  9 10  1  0
 10 11  2  0
 11 12  1  0
 12 13  1  0
 12 14  2  0
 14 15  1  0
 15 16  2  0
 15 17  1  0
 17 18  1  0
  5 19  1  0
 19 20  2  0
 20 21  1  0
 21 22  1  0
 21 23  1  0
 20  2  1  0
 17  6  2  0
 14  8  1  0
  1 24  1  0
  1 25  1  0
  1 26  1  0
  3 27  1  0
  4 28  1  0
  9 29  1  0
 10 30  1  0
 11 31  1  0
 13 32  1  0
 18 33  1  0
 19 34  1  0
 21 35  1  0
 22 36  1  0
 22 37  1  0
 22 38  1  0
 23 39  1  0
 23 40  1  0
 23 41  1  0
M  END
>  <meeko>  (2) 
{"is_sidechain": [false], "free_energy": -10.96, "intermolecular_energy": -13.225, "internal_energy": 0.409}

$$$$
cand_009_out
     RDKit          3D

 41 43  0  0  0  0  0  0  0  0999 V2000
   48.6920  158.9690   31.5070 C   0  0  0  0  0  0  0  0  0  0  0  0
   49.6130  158.1900   30.6090 C   0  0  0  0  0  0  0  0  0  0  0  0
   49.3400  156.8280   30.3940 C   0  0  0  0  0  0  0  0  0  0  0  0
   50.1590  156.0500   29.5730 C   0  0  0  0  0  0  0  0  0  0  0  0
   51.2770  156.6080   28.9480 C   0  0  0  0  0  0  0  0  0  0  0  0
   52.1170  155.7750   28.0620 C   0  0  0  0  0  0  0  0  0  0  0  0
   52.6570  156.4900   27.0000 O   0  0  0  0  0  0  0  0  0  0  0  0
   53.4610  155.8390   26.1000 C   0  0  0  0  0  0  0  0  0  0  0  0
   53.9930  156.5990   25.0580 C   0  0  0  0  0  0  0  0  0  0  0  0
   54.8170  155.9960   24.1050 C   0  0  0  0  0  0  0  0  0  0  0  0
   55.1090  154.6330   24.1950 C   0  0  0  0  0  0  0  0  0  0  0  0
   54.5760  153.8770   25.2350 C   0  0  0  0  0  0  0  0  0  0  0  0
   54.9000  152.5470   25.2620 O   0  0  0  0  0  0  0  0  0  0  0  0
   53.7510  154.4810   26.1880 C   0  0  0  0  0  0  0  0  0  0  0  0
   53.1720  153.7220   27.2970 C   0  0  0  0  0  0  0  0  0  0  0  0
   53.3750  152.5180   27.4390 O   0  0  0  0  0  0  0  0  0  0  0  0
   52.3170  154.4580   28.2590 C   0  0  0  0  0  0  0  0  0  0  0  0
   51.7650  153.7280   29.2940 O   0  0  0  0  0  0  0  0  0  0  0  0
   51.5420  157.9690   29.1530 C   0  0  0  0  0  0  0  0  0  0  0  0
   50.7310  158.7770   29.9820 C   0  0  0  0  0  0  0  0  0  0  0  0
   51.0880  160.2480   30.1680 C   0  0  0  0  0  0  0  0  0  0  0  0
   51.5240  160.5420   31.6080 C   0  0  0  0  0  0  0  0  0  0  0  0
   49.9360  161.1670   29.7480 C   0  0  0  0  0  0  0  0  0  0  0  0
   48.9403  158.7590   32.5578 H   0  0  0  0  0  0  0  0  0  0  0  0
   48.8110  160.0446   31.3100 H   0  0  0  0  0  0  0  0  0  0  0  0
   47.6510  158.6732   31.3100 H   0  0  0  0  0  0  0  0  0  0  0  0
   48.4673  156.3676   30.8802 H   0  0  0  0  0  0  0  0  0  0  0  0
   49.9215  154.9874   29.4168 H   0  0  0  0  0  0  0  0  0  0  0  0
   53.7636  157.6725   24.9870 H   0  0  0  0  0  0  0  0  0  0  0  0
   55.2363  156.5948   23.2831 H   0  0  0  0  0  0  0  0  0  0  0  0
   55.7590  154.1580   23.4454 H   0  0  0  0  0  0  0  0  0  0  0  0
   54.2560  151.9040   25.0410 H   0  0  0  0  0  0  0  0  0  0  0  0
   52.2930  153.1230   29.7760 H   0  0  0  0  0  0  0  0  0  0  0  0
   52.4097  158.4232   28.6522 H   0  0  0  0  0  0  0  0  0  0  0  0
   51.9416  160.4585   29.5069 H   0  0  0  0  0  0  0  0  0  0  0  0
   50.8206  160.0677   32.3082 H   0  0  0  0  0  0  0  0  0  0  0  0
   52.5343  160.1400   31.7745 H   0  0  0  0  0  0  0  0  0  0  0  0
   51.5300  161.6293   31.7745 H   0  0  0  0  0  0  0  0  0  0  0  0
   49.4381  161.5642   30.6449 H   0  0  0  0  0  0  0  0  0  0  0  0
   50.3316  162.0004   29.1488 H   0  0  0  0  0  0  0  0  0  0  0  0
   49.2113  160.5962   29.1488 H   0  0  0  0  0  0  0  0  0  0  0  0
  1  2  1  0
  2  3  2  0
  3  4  1  0
  4  5  2  0
  5  6  1  0
  6  7  1  0
  7  8  1  0
  8  9  2  0
  9 10  1  0
 10 11  2  0
 11 12  1  0
 12 13  1  0
 12 14  2  0
 14 15  1  0
 15 16  2  0
 15 17  1  0
 17 18  1  0
  5 19  1  0
 19 20  2  0
 20 21  1  0
 21 22  1  0
 21 23  1  0
 20  2  1  0
 17  6  2  0
 14  8  1  0
  1 24  1  0
  1 25  1  0
  1 26  1  0
  3 27  1  0
  4 28  1  0
  9 29  1  0
 10 30  1  0
 11 31  1  0
 13 32  1  0
 18 33  1  0
 19 34  1  0
 21 35  1  0
 22 36  1  0
 22 37  1  0
 22 38  1  0
 23 39  1  0
 23 40  1  0
 23 41  1  0
M  END
>  <meeko>  (3) 
{"is_sidechain": [false], "free_energy": -9.56, "intermolecular_energy": -11.78, "internal_energy": 0.61}

$$$$
cand_009_out
     RDKit          3D

 41 43  0  0  0  0  0  0  0  0999 V2000
   53.5550  152.4400   26.7620 C   0  0  0  0  0  0  0  0  0  0  0  0
   52.9000  153.6430   27.3840 C   0  0  0  0  0  0  0  0  0  0  0  0
   52.1720  153.4660   28.5730 C   0  0  0  0  0  0  0  0  0  0  0  0
   51.5390  154.5420   29.1970 C   0  0  0  0  0  0  0  0  0  0  0  0
   51.6100  155.8250   28.6490 C   0  0  0  0  0  0  0  0  0  0  0  0
   50.9550  156.9570   29.3380 C   0  0  0  0  0  0  0  0  0  0  0  0
   51.8330  157.9950   29.6270 O   0  0  0  0  0  0  0  0  0  0  0  0
   51.3550  159.1110   30.2640 C   0  0  0  0  0  0  0  0  0  0  0  0
   52.2690  160.1350   30.5210 C   0  0  0  0  0  0  0  0  0  0  0  0
   51.8470  161.2980   31.1700 C   0  0  0  0  0  0  0  0  0  0  0  0
   50.5140  161.4370   31.5620 C   0  0  0  0  0  0  0  0  0  0  0  0
   49.6050  160.4140   31.3050 C   0  0  0  0  0  0  0  0  0  0  0  0
   48.3160  160.6150   31.7170 O   0  0  0  0  0  0  0  0  0  0  0  0
   50.0270  159.2500   30.6560 C   0  0  0  0  0  0  0  0  0  0  0  0
   49.1040  158.1530   30.3660 C   0  0  0  0  0  0  0  0  0  0  0  0
   47.9180  158.1960   30.6870 O   0  0  0  0  0  0  0  0  0  0  0  0
   49.6490  156.9660   29.6660 C   0  0  0  0  0  0  0  0  0  0  0  0
   48.7710  155.9290   29.4100 O   0  0  0  0  0  0  0  0  0  0  0  0
   52.3450  156.0040   27.4690 C   0  0  0  0  0  0  0  0  0  0  0  0
   52.9920  154.9310   26.8160 C   0  0  0  0  0  0  0  0  0  0  0  0
   53.7650  155.1970   25.5280 C   0  0  0  0  0  0  0  0  0  0  0  0
   54.0130  156.6950   25.3220 C   0  0  0  0  0  0  0  0  0  0  0  0
   53.0620  154.5880   24.3110 C   0  0  0  0  0  0  0  0  0  0  0  0
   53.9197  151.7702   27.5547 H   0  0  0  0  0  0  0  0  0  0  0  0
   52.8233  151.9056   26.1382 H   0  0  0  0  0  0  0  0  0  0  0  0
   54.4009  152.7646   26.1382 H   0  0  0  0  0  0  0  0  0  0  0  0
   52.0999  152.4631   29.0191 H   0  0  0  0  0  0  0  0  0  0  0  0
   50.9788  154.3782   30.1294 H   0  0  0  0  0  0  0  0  0  0  0  0
   53.3194  160.0261   30.2130 H   0  0  0  0  0  0  0  0  0  0  0  0
   52.5660  162.1055   31.3725 H   0  0  0  0  0  0  0  0  0  0  0  0
   50.1826  162.3530   32.0729 H   0  0  0  0  0  0  0  0  0  0  0  0
   47.9400  160.0540   32.3670 H   0  0  0  0  0  0  0  0  0  0  0  0
   48.2000  155.9700   28.6680 H   0  0  0  0  0  0  0  0  0  0  0  0
   52.4206  157.0129   27.0372 H   0  0  0  0  0  0  0  0  0  0  0  0
   54.7427  154.7036   25.6310 H   0  0  0  0  0  0  0  0  0  0  0  0
   54.0951  157.1910   26.3004 H   0  0  0  0  0  0  0  0  0  0  0  0
   54.9470  156.8380   24.7589 H   0  0  0  0  0  0  0  0  0  0  0  0
   53.1749  157.1314   24.7589 H   0  0  0  0  0  0  0  0  0  0  0  0
   52.2709  153.9027   24.6494 H   0  0  0  0  0  0  0  0  0  0  0  0
   52.6170  155.3908   23.7048 H   0  0  0  0  0  0  0  0  0  0  0  0
   53.7932  154.0331   23.7048 H   0  0  0  0  0  0  0  0  0  0  0  0
  1  2  1  0
  2  3  2  0
  3  4  1  0
  4  5  2  0
  5  6  1  0
  6  7  1  0
  7  8  1  0
  8  9  2  0
  9 10  1  0
 10 11  2  0
 11 12  1  0
 12 13  1  0
 12 14  2  0
 14 15  1  0
 15 16  2  0
 15 17  1  0
 17 18  1  0
  5 19  1  0
 19 20  2  0
 20 21  1  0
 21 22  1  0
 21 23  1  0
 20  2  1  0
 17  6  2  0
 14  8  1  0
  1 24  1  0
  1 25  1  0
  1 26  1  0
  3 27  1  0
  4 28  1  0
  9 29  1  0
 10 30  1  0
 11 31  1  0
 13 32  1  0
 18 33  1  0
 19 34  1  0
 21 35  1  0
 22 36  1  0
 22 37  1  0
 22 38  1  0
 23 39  1  0
 23 40  1  0
 23 41  1  0
M  END
>  <meeko>  (4) 
{"is_sidechain": [false], "free_energy": -8.962, "intermolecular_energy": -10.293, "internal_energy": -0.174}

$$$$
cand_009_out
     RDKit          3D

 41 43  0  0  0  0  0  0  0  0999 V2000
   53.5190  154.3790   26.1320 C   0  0  0  0  0  0  0  0  0  0  0  0
   52.9510  155.3830   27.0970 C   0  0  0  0  0  0  0  0  0  0  0  0
   53.0840  156.7490   26.7950 C   0  0  0  0  0  0  0  0  0  0  0  0
   52.5800  157.7300   27.6510 C   0  0  0  0  0  0  0  0  0  0  0  0
   51.9330  157.3750   28.8370 C   0  0  0  0  0  0  0  0  0  0  0  0
   51.3840  158.4260   29.7190 C   0  0  0  0  0  0  0  0  0  0  0  0
   50.0380  158.2360   30.0130 O   0  0  0  0  0  0  0  0  0  0  0  0
   49.4020  159.1390   30.8250 C   0  0  0  0  0  0  0  0  0  0  0  0
   48.0560  158.9010   31.1060 C   0  0  0  0  0  0  0  0  0  0  0  0
   47.3480  159.7840   31.9240 C   0  0  0  0  0  0  0  0  0  0  0  0
   47.9860  160.9050   32.4610 C   0  0  0  0  0  0  0  0  0  0  0  0
   49.3280  161.1400   32.1790 C   0  0  0  0  0  0  0  0  0  0  0  0
   49.8910  162.2570   32.7360 O   0  0  0  0  0  0  0  0  0  0  0  0
   50.0370  160.2560   31.3600 C   0  0  0  0  0  0  0  0  0  0  0  0
   51.4490  160.4670   31.0390 C   0  0  0  0  0  0  0  0  0  0  0  0
   52.0770  161.4330   31.4660 O   0  0  0  0  0  0  0  0  0  0  0  0
   52.1100  159.4670   30.1690 C   0  0  0  0  0  0  0  0  0  0  0  0
   53.4400  159.6830   29.8620 O   0  0  0  0  0  0  0  0  0  0  0  0
   51.7890  156.0120   29.1330 C   0  0  0  0  0  0  0  0  0  0  0  0
   52.2930  155.0010   28.2850 C   0  0  0  0  0  0  0  0  0  0  0  0
   52.1110  153.5380   28.6770 C   0  0  0  0  0  0  0  0  0  0  0  0
   51.4780  152.7270   27.5420 C   0  0  0  0  0  0  0  0  0  0  0  0
   51.2980  153.3960   29.9680 C   0  0  0  0  0  0  0  0  0  0  0  0
   53.9851  153.5550   26.6922 H   0  0  0  0  0  0  0  0  0  0  0  0
   52.7119  153.9816   25.4990 H   0  0  0  0  0  0  0  0  0  0  0  0
   54.2754  154.8661   25.4990 H   0  0  0  0  0  0  0  0  0  0  0  0
   53.5940  157.0505   25.8682 H   0  0  0  0  0  0  0  0  0  0  0  0
   52.6934  158.7923   27.3891 H   0  0  0  0  0  0  0  0  0  0  0  0
   47.5531  158.0186   30.6835 H   0  0  0  0  0  0  0  0  0  0  0  0
   46.2870  159.5968   32.1458 H   0  0  0  0  0  0  0  0  0  0  0  0
   47.4284  161.6004   33.1055 H   0  0  0  0  0  0  0  0  0  0  0  0
   50.8010  162.2600   32.9580 H   0  0  0  0  0  0  0  0  0  0  0  0
   53.7680  160.5580   29.7850 H   0  0  0  0  0  0  0  0  0  0  0  0
   51.2664  155.7204   30.0560 H   0  0  0  0  0  0  0  0  0  0  0  0
   53.1141  153.1281   28.8660 H   0  0  0  0  0  0  0  0  0  0  0  0
   50.8537  151.9272   27.9668 H   0  0  0  0  0  0  0  0  0  0  0  0
   50.8549  153.3884   26.9221 H   0  0  0  0  0  0  0  0  0  0  0  0
   52.2709  152.2831   26.9221 H   0  0  0  0  0  0  0  0  0  0  0  0
   51.9642  153.5124   30.8355 H   0  0  0  0  0  0  0  0  0  0  0  0
   50.5185  154.1716   29.9976 H   0  0  0  0  0  0  0  0  0  0  0  0
   50.8276  152.4021   29.9976 H   0  0  0  0  0  0  0  0  0  0  0  0
  1  2  1  0
  2  3  2  0
  3  4  1  0
  4  5  2  0
  5  6  1  0
  6  7  1  0
  7  8  1  0
  8  9  2  0
  9 10  1  0
 10 11  2  0
 11 12  1  0
 12 13  1  0
 12 14  2  0
 14 15  1  0
 15 16  2  0
 15 17  1  0
 17 18  1  0
  5 19  1  0
 19 20  2  0
 20 21  1  0
 21 22  1  0
 21 23  1  0
 20  2  1  0
 17  6  2  0
 14  8  1  0
  1 24  1  0
  1 25  1  0
  1 26  1  0
  3 27  1  0
  4 28  1  0
  9 29  1  0
 10 30  1  0
 11 31  1  0
 13 32  1  0
 18 33  1  0
 19 34  1  0
 21 35  1  0
 22 36  1  0
 22 37  1  0
 22 38  1  0
 23 39  1  0
 23 40  1  0
 23 41  1  0
M  END
>  <meeko>  (5) 
{"is_sidechain": [false], "free_energy": -8.308, "intermolecular_energy": -9.905, "internal_energy": 0.207}

$$$$
