cand_023_out
     RDKit          3D

 47 50  0  0  0  0  0  0  0  0999 V2000
   52.3430  160.5510   30.4230 C   0  0  0  0  0  0  0  0  0  0  0  0
   51.5070  159.3140   30.2290 C   0  0  0  0  0  0  0  0  0  0  0  0
   52.0350  158.2280   29.5070 C   0  0  0  0  0  0  0  0  0  0  0  0
   51.2930  157.0540   29.3060 C   0  0  0  0  0  0  0  0  0  0  0  0
   51.8710  155.9440   28.5190 C   0  0  0  0  0  0  0  0  0  0  0  0
   52.4140  156.3650   27.3100 O   0  0  0  0  0  0  0  0  0  0  0  0
   52.9870  155.4370   26.4800 C   0  0  0  0  0  0  0  0  0  0  0  0
   53.5070  155.9010   25.2710 C   0  0  0  0  0  0  0  0  0  0  0  0
   54.1050  155.0080   24.3810 C   0  0  0  0  0  0  0  0  0  0  0  0
   54.1830  153.6500   24.6980 C   0  0  0  0  0  0  0  0  0  0  0  0
   53.6620  153.1880   25.9040 C   0  0  0  0  0  0  0  0  0  0  0  0
   53.7720  151.8470   26.1510 O   0  0  0  0  0  0  0  0  0  0  0  0
   53.0630  154.0830   26.7950 C   0  0  0  0  0  0  0  0  0  0  0  0
   52.5050  153.6400   28.0730 C   0  0  0  0  0  0  0  0  0  0  0  0
   52.5410  152.4620   28.4260 O   0  0  0  0  0  0  0  0  0  0  0  0
   51.8860  154.6660   28.9430 C   0  0  0  0  0  0  0  0  0  0  0  0
   51.3730  154.2380   30.1540 O   0  0  0  0  0  0  0  0  0  0  0  0
   49.9990  156.9890   29.8320 C   0  0  0  0  0  0  0  0  0  0  0  0
   49.4660  158.0620   30.5530 C   0  0  0  0  0  0  0  0  0  0  0  0
   50.2050  159.2370   30.7600 C   0  0  0  0  0  0  0  0  0  0  0  0
   49.6950  160.3270   31.4960 N   0  0  0  0  0  0  0  0  0  0  0  0
   48.4550  160.8850   30.9350 C   0  0  0  0  0  0  0  0  0  0  0  0
   48.1250  162.1920   31.6590 C   0  0  0  0  0  0  0  0  0  0  0  0
   48.0320  161.9760   33.1680 C   0  0  0  0  0  0  0  0  0  0  0  0
   49.2940  161.3010   33.7030 C   0  0  0  0  0  0  0  0  0  0  0  0
   49.6070  160.0180   32.9330 C   0  0  0  0  0  0  0  0  0  0  0  0
   52.4718  160.7415   31.4987 H   0  0  0  0  0  0  0  0  0  0  0  0
   53.3282  160.4047   29.9560 H   0  0  0  0  0  0  0  0  0  0  0  0
   51.8399  161.4105   29.9560 H   0  0  0  0  0  0  0  0  0  0  0  0
   53.0508  158.3007   29.0913 H   0  0  0  0  0  0  0  0  0  0  0  0
   53.4455  156.9701   25.0197 H   0  0  0  0  0  0  0  0  0  0  0  0
   54.5156  155.3741   23.4284 H   0  0  0  0  0  0  0  0  0  0  0  0
   54.6551  152.9466   23.9963 H   0  0  0  0  0  0  0  0  0  0  0  0
   54.4740  151.3570   25.7720 H   0  0  0  0  0  0  0  0  0  0  0  0
   51.8320  154.4260   30.9490 H   0  0  0  0  0  0  0  0  0  0  0  0
   49.3937  156.0837   29.6769 H   0  0  0  0  0  0  0  0  0  0  0  0
   48.4492  157.9837   30.9653 H   0  0  0  0  0  0  0  0  0  0  0  0
   48.5919  161.0824   29.8615 H   0  0  0  0  0  0  0  0  0  0  0  0
   47.6313  160.1682   31.0679 H   0  0  0  0  0  0  0  0  0  0  0  0
   48.9150  162.9282   31.4494 H   0  0  0  0  0  0  0  0  0  0  0  0
   47.1519  162.5558   31.2974 H   0  0  0  0  0  0  0  0  0  0  0  0
   47.9072  162.9499   33.6638 H   0  0  0  0  0  0  0  0  0  0  0  0
   47.1706  161.3244   33.3765 H   0  0  0  0  0  0  0  0  0  0  0  0
   50.1415  161.9950   33.6025 H   0  0  0  0  0  0  0  0  0  0  0  0
   49.1273  161.0403   34.7586 H   0  0  0  0  0  0  0  0  0  0  0  0
   50.5655  159.6048   33.2801 H   0  0  0  0  0  0  0  0  0  0  0  0
   48.8102  159.2793   33.1048 H   0  0  0  0  0  0  0  0  0  0  0  0
  1  2  1  0
  2  3  2  0
  3  4  1  0
  4  5  1  0
  5  6  1  0
  6  7  1  0
  7  8  2  0
  8  9  1  0
  9 10  2  0
 10 11  1  0
 11 12  1  0
 11 13  2  0
 13 14  1  0
 14 15  2  0
 14 16  1  0
 16 17  1  0
  4 18  2  0
 18 19  1  0
 19 20  2  0
 20 21  1  0
 21 22  1  0
 22 23  1  0
 23 24  1  0
 24 25  1  0
 25 26  1  0
 20  2  1  0
 26 21  1  0
 16  5  2  0
 13  7  1  0
  1 27  1  0
  1 28  1  0
  1 29  1  0
  3 30  1  0
  8 31  1  0
  9 32  1  0
 10 33  1  0
 12 34  1  0
 17 35  1  0
 18 36  1  0
 19 37  1  0
 22 38  1  0
 22 39  1  0
 23 40  1  0
 23 41  1  0
 24 42  1  0
 24 43  1  0
 25 44  1  0
 25 45  1  0
 26 46  1  0
 26 47  1  0
M  END
>  <meeko>  (1) 
{"is_sidechain": [false], "free_energy": -11.688, "intermolecular_energy": -13.737, "internal_energy": -0.486}

$$$$
cand_023_out
     RDKit          3D

 47 50  0  0  0  0  0  0  0  0999 V2000
   51.9920  153.6070   28.9730 C   0  0  0  0  0  0  0  0  0  0  0  0
   52.1750  155.0350   28.5340 C   0  0  0  0  0  0  0  0  0  0  0  0
   51.6690  156.0760   29.3330 C   0  0  0  0  0  0  0  0  0  0  0  0
   51.8200  157.4210   28.9650 C   0  0  0  0  0  0  0  0  0  0  0  0
   51.2510  158.4860   29.8170 C   0  0  0  0  0  0  0  0  0  0  0  0
   49.9180  158.2630   30.1430 O   0  0  0  0  0  0  0  0  0  0  0  0
   49.2640  159.1740   30.9310 C   0  0  0  0  0  0  0  0  0  0  0  0
   47.9240  158.9160   31.2210 C   0  0  0  0  0  0  0  0  0  0  0  0
   47.2010  159.8030   32.0210 C   0  0  0  0  0  0  0  0  0  0  0  0
   47.8170  160.9480   32.5300 C   0  0  0  0  0  0  0  0  0  0  0  0
   49.1550  161.2040   32.2390 C   0  0  0  0  0  0  0  0  0  0  0  0
   49.6960  162.3430   32.7700 O   0  0  0  0  0  0  0  0  0  0  0  0
   49.8780  160.3150   31.4380 C   0  0  0  0  0  0  0  0  0  0  0  0
   51.2850  160.5450   31.1090 C   0  0  0  0  0  0  0  0  0  0  0  0
   51.8990  161.5270   31.5250 O   0  0  0  0  0  0  0  0  0  0  0  0
   51.9590  159.5470   30.2480 C   0  0  0  0  0  0  0  0  0  0  0  0
   53.2930  159.7680   29.9540 O   0  0  0  0  0  0  0  0  0  0  0  0
   52.4810  157.7100   27.7670 C   0  0  0  0  0  0  0  0  0  0  0  0
   52.9910  156.6830   26.9660 C   0  0  0  0  0  0  0  0  0  0  0  0
   52.8440  155.3360   27.3320 C   0  0  0  0  0  0  0  0  0  0  0  0
   53.3620  154.2830   26.5490 N   0  0  0  0  0  0  0  0  0  0  0  0
   52.3640  153.2530   26.2170 C   0  0  0  0  0  0  0  0  0  0  0  0
   53.0750  152.0580   25.5810 C   0  0  0  0  0  0  0  0  0  0  0  0
   53.8910  152.4880   24.3630 C   0  0  0  0  0  0  0  0  0  0  0  0
   54.8440  153.6280   24.7180 C   0  0  0  0  0  0  0  0  0  0  0  0
   54.1000  154.7880   25.3800 C   0  0  0  0  0  0  0  0  0  0  0  0
   51.9859  153.5592   30.0719 H   0  0  0  0  0  0  0  0  0  0  0  0
   51.0373  153.2233   28.5839 H   0  0  0  0  0  0  0  0  0  0  0  0
   52.8191  152.9949   28.5839 H   0  0  0  0  0  0  0  0  0  0  0  0
   51.1431  155.8299   30.2673 H   0  0  0  0  0  0  0  0  0  0  0  0
   47.4375  158.0147   30.8198 H   0  0  0  0  0  0  0  0  0  0  0  0
   46.1447  159.5995   32.2506 H   0  0  0  0  0  0  0  0  0  0  0  0
   47.2467  161.6467   33.1597 H   0  0  0  0  0  0  0  0  0  0  0  0
   50.4660  162.2910   33.3000 H   0  0  0  0  0  0  0  0  0  0  0  0
   53.8180  160.2920   30.5270 H   0  0  0  0  0  0  0  0  0  0  0  0
   52.6012  158.7568   27.4510 H   0  0  0  0  0  0  0  0  0  0  0  0
   53.5164  156.9354   26.0331 H   0  0  0  0  0  0  0  0  0  0  0  0
   51.8481  152.9303   27.1334 H   0  0  0  0  0  0  0  0  0  0  0  0
   51.6256  153.6641   25.5129 H   0  0  0  0  0  0  0  0  0  0  0  0
   53.7487  151.6043   26.3228 H   0  0  0  0  0  0  0  0  0  0  0  0
   52.3152  151.3328   25.2542 H   0  0  0  0  0  0  0  0  0  0  0  0
   54.4758  151.6298   24.0005 H   0  0  0  0  0  0  0  0  0  0  0  0
   53.1990  152.8393   23.5834 H   0  0  0  0  0  0  0  0  0  0  0  0
   55.6105  153.2516   25.4114 H   0  0  0  0  0  0  0  0  0  0  0  0
   55.3059  153.9962   23.7901 H   0  0  0  0  0  0  0  0  0  0  0  0
   54.8222  155.5525   25.7025 H   0  0  0  0  0  0  0  0  0  0  0  0
   53.3961  155.2343   24.6621 H   0  0  0  0  0  0  0  0  0  0  0  0
  1  2  1  0
  2  3  2  0
  3  4  1  0
  4  5  1  0
  5  6  1  0
  6  7  1  0
  7  8  2  0
  8  9  1  0
  9 10  2  0
 10 11  1  0
 11 12  1  0
 11 13  2  0
 13 14  1  0
 14 15  2  0
 14 16  1  0
 16 17  1  0
  4 18  2  0
 18 19  1  0
 19 20  2  0
 20 21  1  0
 21 22  1  0
 22 23  1  0
 23 24  1  0
 24 25  1  0
 25 26  1  0
 20  2  1  0
 26 21  1  0
 16  5  2  0
 13  7  1  0
  1 27  1  0
  1 28  1  0
  1 29  1  0
  3 30  1  0
  8 31  1  0
  9 32  1  0
 10 33  1  0
 12 34  1  0
 17 35  1  0
 18 36  1  0
 19 37  1  0
 22 38  1  0
 22 39  1  0
 23 40  1  0
 23 41  1  0
 24 42  1  0
 24 43  1  0
 25 44  1  0
 25 45  1  0
 26 46  1  0
 26 47  1  0
M  END
>  <meeko>  (2) 
{"is_sidechain": [false], "free_energy": -11.086, "intermolecular_energy": -13.844, "internal_energy": 0.327}

$$$$
cand_023_out
     RDKit          3D

 47 50  0  0  0  0  0  0  0  0999 V2000
   51.9940  153.1270   28.4900 C   0  0  0  0  0  0  0  0  0  0  0  0
   52.1220  154.6010   28.2080 C   0  0  0  0  0  0  0  0  0  0  0  0
   51.4660  155.5250   29.0420 C   0  0  0  0  0  0  0  0  0  0  0  0
   51.5610  156.9070   28.8200 C   0  0  0  0  0  0  0  0  0  0  0  0
   50.8350  157.8460   29.7010 C   0  0  0  0  0  0  0  0  0  0  0  0
   51.6030  158.9440   30.0710 O   0  0  0  0  0  0  0  0  0  0  0  0
   51.0510  159.8970   30.8860 C   0  0  0  0  0  0  0  0  0  0  0  0
   51.8630  160.9740   31.2430 C   0  0  0  0  0  0  0  0  0  0  0  0
   51.3610  161.9810   32.0700 C   0  0  0  0  0  0  0  0  0  0  0  0
   50.0480  161.9110   32.5410 C   0  0  0  0  0  0  0  0  0  0  0  0
   49.2400  160.8340   32.1840 C   0  0  0  0  0  0  0  0  0  0  0  0
   47.9650  160.8280   32.6800 O   0  0  0  0  0  0  0  0  0  0  0  0
   49.7430  159.8260   31.3560 C   0  0  0  0  0  0  0  0  0  0  0  0
   48.9280  158.6790   30.9560 C   0  0  0  0  0  0  0  0  0  0  0  0
   47.7610  158.5490   31.3240 O   0  0  0  0  0  0  0  0  0  0  0  0
   49.5570  157.6630   30.0820 C   0  0  0  0  0  0  0  0  0  0  0  0
   48.7720  156.5890   29.7000 O   0  0  0  0  0  0  0  0  0  0  0  0
   52.3200  157.3530   27.7330 C   0  0  0  0  0  0  0  0  0  0  0  0
   52.9780  156.4430   26.8990 C   0  0  0  0  0  0  0  0  0  0  0  0
   52.8880  155.0600   27.1200 C   0  0  0  0  0  0  0  0  0  0  0  0
   53.5550  154.1220   26.3020 N   0  0  0  0  0  0  0  0  0  0  0  0
   52.7120  152.9810   25.9110 C   0  0  0  0  0  0  0  0  0  0  0  0
   53.5880  151.9230   25.2380 C   0  0  0  0  0  0  0  0  0  0  0  0
   54.3500  152.5140   24.0530 C   0  0  0  0  0  0  0  0  0  0  0  0
   55.1330  153.7570   24.4710 C   0  0  0  0  0  0  0  0  0  0  0  0
   54.2290  154.7750   25.1680 C   0  0  0  0  0  0  0  0  0  0  0  0
   51.9796  152.9616   29.5774 H   0  0  0  0  0  0  0  0  0  0  0  0
   51.0597  152.7491   28.0493 H   0  0  0  0  0  0  0  0  0  0  0  0
   52.8492  152.5937   28.0493 H   0  0  0  0  0  0  0  0  0  0  0  0
   50.8656  155.1558   29.8865 H   0  0  0  0  0  0  0  0  0  0  0  0
   52.8975  161.0298   30.8734 H   0  0  0  0  0  0  0  0  0  0  0  0
   52.0006  162.8307   32.3509 H   0  0  0  0  0  0  0  0  0  0  0  0
   49.6529  162.7045   33.1923 H   0  0  0  0  0  0  0  0  0  0  0  0
   47.5480  161.6340   32.9110 H   0  0  0  0  0  0  0  0  0  0  0  0
   48.1450  156.6900   29.0120 H   0  0  0  0  0  0  0  0  0  0  0  0
   52.4003  158.4314   27.5318 H   0  0  0  0  0  0  0  0  0  0  0  0
   53.5763  156.8178   26.0554 H   0  0  0  0  0  0  0  0  0  0  0  0
   52.2352  152.5513   26.8043 H   0  0  0  0  0  0  0  0  0  0  0  0
   51.9318  153.3172   25.2122 H   0  0  0  0  0  0  0  0  0  0  0  0
   54.3096  151.5342   25.9716 H   0  0  0  0  0  0  0  0  0  0  0  0
   52.9393  151.1150   24.8689 H   0  0  0  0  0  0  0  0  0  0  0  0
   55.0513  151.7608   23.6645 H   0  0  0  0  0  0  0  0  0  0  0  0
   53.6244  152.8011   23.2777 H   0  0  0  0  0  0  0  0  0  0  0  0
   55.9361  153.4593   25.1612 H   0  0  0  0  0  0  0  0  0  0  0  0
   55.5502  154.2248   23.5670 H   0  0  0  0  0  0  0  0  0  0  0  0
   54.8355  155.6163   25.5345 H   0  0  0  0  0  0  0  0  0  0  0  0
   53.4786  155.1525   24.4577 H   0  0  0  0  0  0  0  0  0  0  0  0
  1  2  1  0
  2  3  2  0
  3  4  1  0
  4  5  1  0
  5  6  1  0
  6  7  1  0
  7  8  2  0
  8  9  1  0
  9 10  2  0
 10 11  1  0
 11 12  1  0
 11 13  2  0
 13 14  1  0
 14 15  2  0
 14 16  1  0
 16 17  1  0
  4 18  2  0
 18 19  1  0
 19 20  2  0
 20 21  1  0
 21 22  1  0
 22 23  1  0
 23 24  1  0
 24 25  1  0
 25 26  1  0
 20  2  1  0
 26 21  1  0
 16  5  2  0
 13  7  1  0
  1 27  1  0
  1 28  1  0
  1 29  1  0
  3 30  1  0
  8 31  1  0
  9 32  1  0
 10 33  1  0
 12 34  1  0
 17 35  1  0
 18 36  1  0
 19 37  1  0
 22 38  1  0
 22 39  1  0
 23 40  1  0
 23 41  1  0
 24 42  1  0
 24 43  1  0
 25 44  1  0
 25 45  1  0
 26 46  1  0
 26 47  1  0
M  END
>  <meeko>  (3) 
{"is_sidechain": [false], "free_energy": -9.659, "intermolecular_energy": -12.516, "internal_energy": 0.677}

$$$$
