cand_052_out
     RDKit          3D

 44 46  0  0  0  0  0  0  0  0999 V2000
   48.1660  161.5650   33.1970 C   0  0  0  0  0  0  0  0  0  0  0  0
   49.5260  161.1400   33.7280 C   0  0  0  0  0  0  0  0  0  0  0  0
   50.6040  161.2380   32.6490 C   0  0  0  0  0  0  0  0  0  0  0  0
   50.0040  161.0790   31.2500 C   0  0  0  0  0  0  0  0  0  0  0  0
   50.4700  159.8040   30.5810 C   0  0  0  0  0  0  0  0  0  0  0  0
   51.7980  159.7310   30.1340 C   0  0  0  0  0  0  0  0  0  0  0  0
   52.2840  158.5840   29.5020 C   0  0  0  0  0  0  0  0  0  0  0  0
   51.4570  157.4750   29.3030 C   0  0  0  0  0  0  0  0  0  0  0  0
   51.9380  156.2570   28.6170 C   0  0  0  0  0  0  0  0  0  0  0  0
   52.4560  156.5190   27.3530 O   0  0  0  0  0  0  0  0  0  0  0  0
   52.9400  155.4770   26.6050 C   0  0  0  0  0  0  0  0  0  0  0  0
   53.4620  155.7880   25.3500 C   0  0  0  0  0  0  0  0  0  0  0  0
   53.9700  154.7720   24.5350 C   0  0  0  0  0  0  0  0  0  0  0  0
   53.9530  153.4480   24.9760 C   0  0  0  0  0  0  0  0  0  0  0  0
   53.4310  153.1410   26.2300 C   0  0  0  0  0  0  0  0  0  0  0  0
   53.4450  151.8230   26.5990 O   0  0  0  0  0  0  0  0  0  0  0  0
   52.9240  154.1570   27.0440 C   0  0  0  0  0  0  0  0  0  0  0  0
   52.3660  153.8770   28.3680 C   0  0  0  0  0  0  0  0  0  0  0  0
   52.3100  152.7360   28.8240 O   0  0  0  0  0  0  0  0  0  0  0  0
   51.8620  155.0270   29.1560 C   0  0  0  0  0  0  0  0  0  0  0  0
   51.3240  154.7490   30.3990 O   0  0  0  0  0  0  0  0  0  0  0  0
   50.1250  157.5530   29.7380 C   0  0  0  0  0  0  0  0  0  0  0  0
   49.6170  158.7030   30.3690 C   0  0  0  0  0  0  0  0  0  0  0  0
   48.1820  158.7090   30.8240 C   0  0  0  0  0  0  0  0  0  0  0  0
   47.4924  161.7755   34.0408 H   0  0  0  0  0  0  0  0  0  0  0  0
   48.2788  162.4707   32.5831 H   0  0  0  0  0  0  0  0  0  0  0  0
   47.7430  160.7562   32.5831 H   0  0  0  0  0  0  0  0  0  0  0  0
   49.8015  161.7934   34.5689 H   0  0  0  0  0  0  0  0  0  0  0  0
   49.4573  160.0914   34.0531 H   0  0  0  0  0  0  0  0  0  0  0  0
   51.0939  162.2204   32.7196 H   0  0  0  0  0  0  0  0  0  0  0  0
   51.3317  160.4289   32.8096 H   0  0  0  0  0  0  0  0  0  0  0  0
   48.9074  161.0574   31.3331 H   0  0  0  0  0  0  0  0  0  0  0  0
   50.3369  161.9289   30.6362 H   0  0  0  0  0  0  0  0  0  0  0  0
   52.4673  160.5910   30.2837 H   0  0  0  0  0  0  0  0  0  0  0  0
   53.3282  158.5533   29.1574 H   0  0  0  0  0  0  0  0  0  0  0  0
   53.4741  156.8313   25.0017 H   0  0  0  0  0  0  0  0  0  0  0  0
   54.3834  155.0164   23.5454 H   0  0  0  0  0  0  0  0  0  0  0  0
   54.3512  152.6483   24.3342 H   0  0  0  0  0  0  0  0  0  0  0  0
   52.7080  151.4530   27.0430 H   0  0  0  0  0  0  0  0  0  0  0  0
   51.7380  154.1210   30.9580 H   0  0  0  0  0  0  0  0  0  0  0  0
   49.4598  156.6910   29.5812 H   0  0  0  0  0  0  0  0  0  0  0  0
   48.1459  158.7092   31.9234 H   0  0  0  0  0  0  0  0  0  0  0  0
   47.6795  159.6093   30.4405 H   0  0  0  0  0  0  0  0  0  0  0  0
   47.6720  157.8130   30.4405 H   0  0  0  0  0  0  0  0  0  0  0  0
  1  2  1  0
  2  3  1  0
  3  4  1  0
  4  5  1  0
  5  6  2  0
  6  7  1  0
  7  8  2  0
  8  9  1  0
  9 10  1  0
 10 11  1  0
 11 12  2  0
 12 13  1  0
 13 14  2  0
 14 15  1  0
 15 16  1  0
 15 17  2  0
 17 18  1  0
 18 19  2  0
 18 20  1  0
 20 21  1  0
  8 22  1  0
 22 23  2  0
 23 24  1  0
 23  5  1  0
 20  9  2  0
 17 11  1  0
  1 25  1  0
  1 26  1  0
  1 27  1  0
  2 28  1  0
  2 29  1  0
  3 30  1  0
  3 31  1  0
  4 32  1  0
  4 33  1  0
  6 34  1  0
  7 35  1  0
 12 36  1  0
 13 37  1  0
 14 38  1  0
 16 39  1  0
 21 40  1  0
 22 41  1  0
 24 42  1  0
 24 43  1  0
 24 44  1  0
M  END
>  <meeko>  (1) 
{"is_sidechain": [false], "free_energy": -11.25, "intermolecular_energy": -14.538, "internal_energy": -0.659}

$$$$
cand_052_out
     RDKit          3D

 44 46  0  0  0  0  0  0  0  0999 V2000
   48.5290  162.4020   32.8720 C   0  0  0  0  0  0  0  0  0  0  0  0
   49.0490  161.3030   33.7840 C   0  0  0  0  0  0  0  0  0  0  0  0
   49.2850  160.0020   33.0160 C   0  0  0  0  0  0  0  0  0  0  0  0
   49.0930  160.2060   31.5100 C   0  0  0  0  0  0  0  0  0  0  0  0
   49.8550  159.1760   30.7040 C   0  0  0  0  0  0  0  0  0  0  0  0
   49.2340  157.9460   30.4340 C   0  0  0  0  0  0  0  0  0  0  0  0
   49.8900  156.9530   29.7020 C   0  0  0  0  0  0  0  0  0  0  0  0
   51.1830  157.1630   29.2150 C   0  0  0  0  0  0  0  0  0  0  0  0
   51.9090  156.1210   28.4590 C   0  0  0  0  0  0  0  0  0  0  0  0
   52.4420  156.5950   27.2650 O   0  0  0  0  0  0  0  0  0  0  0  0
   53.1440  155.7320   26.4620 C   0  0  0  0  0  0  0  0  0  0  0  0
   53.6720  156.2530   25.2810 C   0  0  0  0  0  0  0  0  0  0  0  0
   54.3960  155.4270   24.4170 C   0  0  0  0  0  0  0  0  0  0  0  0
   54.5890  154.0810   24.7350 C   0  0  0  0  0  0  0  0  0  0  0  0
   54.0590  153.5630   25.9140 C   0  0  0  0  0  0  0  0  0  0  0  0
   54.2850  152.2370   26.1630 O   0  0  0  0  0  0  0  0  0  0  0  0
   53.3360  154.3910   26.7780 C   0  0  0  0  0  0  0  0  0  0  0  0
   52.7640  153.8870   28.0270 C   0  0  0  0  0  0  0  0  0  0  0  0
   52.8850  152.7130   28.3730 O   0  0  0  0  0  0  0  0  0  0  0  0
   52.0220  154.8480   28.8770 C   0  0  0  0  0  0  0  0  0  0  0  0
   51.4730  154.3580   30.0480 O   0  0  0  0  0  0  0  0  0  0  0  0
   51.8090  158.3870   29.4970 C   0  0  0  0  0  0  0  0  0  0  0  0
   51.1660  159.3960   30.2390 C   0  0  0  0  0  0  0  0  0  0  0  0
   51.8930  160.6900   30.4880 C   0  0  0  0  0  0  0  0  0  0  0  0
   48.1374  163.2297   33.4816 H   0  0  0  0  0  0  0  0  0  0  0  0
   49.3485  162.7700   32.2372 H   0  0  0  0  0  0  0  0  0  0  0  0
   47.7248  162.0017   32.2372 H   0  0  0  0  0  0  0  0  0  0  0  0
   49.9985  161.6304   34.2327 H   0  0  0  0  0  0  0  0  0  0  0  0
   48.2936  161.1130   34.5607 H   0  0  0  0  0  0  0  0  0  0  0  0
   50.3122  159.6559   33.2033 H   0  0  0  0  0  0  0  0  0  0  0  0
   48.5553  159.2553   33.3625 H   0  0  0  0  0  0  0  0  0  0  0  0
   48.0221  160.1233   31.2727 H   0  0  0  0  0  0  0  0  0  0  0  0
   49.4793  161.2017   31.2468 H   0  0  0  0  0  0  0  0  0  0  0  0
   48.2149  157.7612   30.8046 H   0  0  0  0  0  0  0  0  0  0  0  0
   49.3836  155.9962   29.5070 H   0  0  0  0  0  0  0  0  0  0  0  0
   53.5187  157.3129   25.0299 H   0  0  0  0  0  0  0  0  0  0  0  0
   54.8141  155.8373   23.4859 H   0  0  0  0  0  0  0  0  0  0  0  0
   55.1590  153.4307   24.0551 H   0  0  0  0  0  0  0  0  0  0  0  0
   54.2140  151.9050   27.0360 H   0  0  0  0  0  0  0  0  0  0  0  0
   52.0290  153.9960   30.7100 H   0  0  0  0  0  0  0  0  0  0  0  0
   52.8303  158.5629   29.1281 H   0  0  0  0  0  0  0  0  0  0  0  0
   51.9861  160.8557   31.5715 H   0  0  0  0  0  0  0  0  0  0  0  0
   52.8952  160.6401   30.0373 H   0  0  0  0  0  0  0  0  0  0  0  0
   51.3291  161.5200   30.0373 H   0  0  0  0  0  0  0  0  0  0  0  0
  1  2  1  0
  2  3  1  0
  3  4  1  0
  4  5  1  0
  5  6  2  0
  6  7  1  0
  7  8  2  0
  8  9  1  0
  9 10  1  0
 10 11  1  0
 11 12  2  0
 12 13  1  0
 13 14  2  0
 14 15  1  0
 15 16  1  0
 15 17  2  0
 17 18  1  0
 18 19  2  0
 18 20  1  0
 20 21  1  0
  8 22  1  0
 22 23  2  0
 23 24  1  0
 23  5  1  0
 20  9  2  0
 17 11  1  0
  1 25  1  0
  1 26  1  0
  1 27  1  0
  2 28  1  0
  2 29  1  0
  3 30  1  0
  3 31  1  0
  4 32  1  0
  4 33  1  0
  6 34  1  0
  7 35  1  0
 12 36  1  0
 13 37  1  0
 14 38  1  0
 16 39  1  0
 21 40  1  0
 22 41  1  0
 24 42  1  0
 24 43  1  0
 24 44  1  0
M  END
>  <meeko>  (2) 
{"is_sidechain": [false], "free_energy": -10.703, "intermolecular_energy": -14.027, "internal_energy": -0.464}

$$$$
cand_052_out
     RDKit          3D

 44 46  0  0  0  0  0  0  0  0999 V2000
   54.1240  152.5490   23.7780 C   0  0  0  0  0  0  0  0  0  0  0  0
   54.5980  151.8370   25.0340 C   0  0  0  0  0  0  0  0  0  0  0  0
   54.1020  152.5400   26.2980 C   0  0  0  0  0  0  0  0  0  0  0  0
   52.6320  152.9480   26.1650 C   0  0  0  0  0  0  0  0  0  0  0  0
   52.3160  154.1820   26.9830 C   0  0  0  0  0  0  0  0  0  0  0  0
   51.5480  154.0320   28.1480 C   0  0  0  0  0  0  0  0  0  0  0  0
   51.2160  155.1340   28.9390 C   0  0  0  0  0  0  0  0  0  0  0  0
   51.6470  156.4170   28.5920 C   0  0  0  0  0  0  0  0  0  0  0  0
   51.2920  157.6030   29.3980 C   0  0  0  0  0  0  0  0  0  0  0  0
   49.9590  157.6060   29.7940 O   0  0  0  0  0  0  0  0  0  0  0  0
   49.4930  158.6510   30.5510 C   0  0  0  0  0  0  0  0  0  0  0  0
   48.1540  158.6060   30.9370 C   0  0  0  0  0  0  0  0  0  0  0  0
   47.6150  159.6400   31.7080 C   0  0  0  0  0  0  0  0  0  0  0  0
   48.4160  160.7180   32.0890 C   0  0  0  0  0  0  0  0  0  0  0  0
   49.7530  160.7610   31.7010 C   0  0  0  0  0  0  0  0  0  0  0  0
   50.4800  161.8460   32.1090 O   0  0  0  0  0  0  0  0  0  0  0  0
   50.2910  159.7260   30.9310 C   0  0  0  0  0  0  0  0  0  0  0  0
   51.6900  159.7310   30.5030 C   0  0  0  0  0  0  0  0  0  0  0  0
   52.4560  160.6490   30.7930 O   0  0  0  0  0  0  0  0  0  0  0  0
   52.1650  158.5830   29.6960 C   0  0  0  0  0  0  0  0  0  0  0  0
   53.4850  158.6060   29.2850 O   0  0  0  0  0  0  0  0  0  0  0  0
   52.4040  156.5690   27.4190 C   0  0  0  0  0  0  0  0  0  0  0  0
   52.7410  155.4710   26.6060 C   0  0  0  0  0  0  0  0  0  0  0  0
   53.5700  155.7080   25.3730 C   0  0  0  0  0  0  0  0  0  0  0  0
   53.5346  153.4343   24.0587 H   0  0  0  0  0  0  0  0  0  0  0  0
   54.9948  152.8617   23.1831 H   0  0  0  0  0  0  0  0  0  0  0  0
   53.4995  151.8663   23.1831 H   0  0  0  0  0  0  0  0  0  0  0  0
   54.2163  150.8054   25.0256 H   0  0  0  0  0  0  0  0  0  0  0  0
   55.6979  151.8477   25.0423 H   0  0  0  0  0  0  0  0  0  0  0  0
   54.2086  151.8569   27.1536 H   0  0  0  0  0  0  0  0  0  0  0  0
   54.7031  153.4487   26.4494 H   0  0  0  0  0  0  0  0  0  0  0  0
   52.4145  153.1565   25.1071 H   0  0  0  0  0  0  0  0  0  0  0  0
   52.0117  152.1206   26.5400 H   0  0  0  0  0  0  0  0  0  0  0  0
   51.2020  153.0303   28.4428 H   0  0  0  0  0  0  0  0  0  0  0  0
   50.6087  154.9904   29.8449 H   0  0  0  0  0  0  0  0  0  0  0  0
   47.5223  157.7576   30.6351 H   0  0  0  0  0  0  0  0  0  0  0  0
   46.5592  159.6042   32.0146 H   0  0  0  0  0  0  0  0  0  0  0  0
   47.9918  161.5323   32.6948 H   0  0  0  0  0  0  0  0  0  0  0  0
   50.0810  162.5040   32.6420 H   0  0  0  0  0  0  0  0  0  0  0  0
   53.7020  158.4000   28.3970 H   0  0  0  0  0  0  0  0  0  0  0  0
   52.7429  157.5741   27.1277 H   0  0  0  0  0  0  0  0  0  0  0  0
   54.5892  155.9994   25.6668 H   0  0  0  0  0  0  0  0  0  0  0  0
   53.6103  154.7854   24.7754 H   0  0  0  0  0  0  0  0  0  0  0  0
   53.1166  156.5125   24.7754 H   0  0  0  0  0  0  0  0  0  0  0  0
  1  2  1  0
  2  3  1  0
  3  4  1  0
  4  5  1  0
  5  6  2  0
  6  7  1  0
  7  8  2  0
  8  9  1  0
  9 10  1  0
 10 11  1  0
 11 12  2  0
 12 13  1  0
 13 14  2  0
 14 15  1  0
 15 16  1  0
 15 17  2  0
 17 18  1  0
 18 19  2  0
 18 20  1  0
 20 21  1  0
  8 22  1  0
 22 23  2  0
 23 24  1  0
 23  5  1  0
 20  9  2  0
 17 11  1  0
  1 25  1  0
  1 26  1  0
  1 27  1  0
  2 28  1  0
  2 29  1  0
  3 30  1  0
  3 31  1  0
  4 32  1  0
  4 33  1  0
  6 34  1  0
  7 35  1  0
 12 36  1  0
 13 37  1  0
 14 38  1  0
 16 39  1  0
 21 40  1  0
 22 41  1  0
 24 42  1  0
 24 43  1  0
 24 44  1  0
M  END
>  <meeko>  (3) 
{"is_sidechain": [false], "free_energy": -10.275, "intermolecular_energy": -13.713, "internal_energy": -0.225}

$$$$
cand_052_out
     RDKit          3D

 44 46  0  0  0  0  0  0  0  0999 V2000
   54.2310  153.2620   23.4640 C   0  0  0  0  0  0  0  0  0  0  0  0
   53.8040  152.2030   24.4680 C   0  0  0  0  0  0  0  0  0  0  0  0
   52.8870  152.7870   25.5430 C   0  0  0  0  0  0  0  0  0  0  0  0
   53.6930  153.2910   26.7440 C   0  0  0  0  0  0  0  0  0  0  0  0
   52.9820  154.4160   27.4640 C   0  0  0  0  0  0  0  0  0  0  0  0
   52.2600  154.1120   28.6290 C   0  0  0  0  0  0  0  0  0  0  0  0
   51.5760  155.1050   29.3330 C   0  0  0  0  0  0  0  0  0  0  0  0
   51.5970  156.4330   28.8950 C   0  0  0  0  0  0  0  0  0  0  0  0
   50.8630  157.5000   29.6070 C   0  0  0  0  0  0  0  0  0  0  0  0
   51.6750  158.5750   29.9520 O   0  0  0  0  0  0  0  0  0  0  0  0
   51.1210  159.6380   30.6180 C   0  0  0  0  0  0  0  0  0  0  0  0
   51.9700  160.7000   30.9320 C   0  0  0  0  0  0  0  0  0  0  0  0
   51.4690  161.8150   31.6110 C   0  0  0  0  0  0  0  0  0  0  0  0
   50.1230  161.8640   31.9770 C   0  0  0  0  0  0  0  0  0  0  0  0
   49.2790  160.8020   31.6630 C   0  0  0  0  0  0  0  0  0  0  0  0
   47.9720  160.9160   32.0520 O   0  0  0  0  0  0  0  0  0  0  0  0
   49.7800  159.6880   30.9830 C   0  0  0  0  0  0  0  0  0  0  0  0
   48.9270  158.5520   30.6330 C   0  0  0  0  0  0  0  0  0  0  0  0
   47.7330  158.5180   30.9270 O   0  0  0  0  0  0  0  0  0  0  0  0
   49.5540  157.4240   29.9050 C   0  0  0  0  0  0  0  0  0  0  0  0
   48.7420  156.3490   29.5920 O   0  0  0  0  0  0  0  0  0  0  0  0
   52.3080  156.7340   27.7230 C   0  0  0  0  0  0  0  0  0  0  0  0
   52.9960  155.7450   26.9970 C   0  0  0  0  0  0  0  0  0  0  0  0
   53.7510  156.1450   25.7590 C   0  0  0  0  0  0  0  0  0  0  0  0
   54.5901  154.1525   24.0007 H   0  0  0  0  0  0  0  0  0  0  0  0
   55.0389  152.8639   22.8325 H   0  0  0  0  0  0  0  0  0  0  0  0
   53.3729  153.5357   22.8325 H   0  0  0  0  0  0  0  0  0  0  0  0
   53.2677  151.4027   23.9370 H   0  0  0  0  0  0  0  0  0  0  0  0
   54.7061  151.8105   24.9601 H   0  0  0  0  0  0  0  0  0  0  0  0
   52.3199  153.6261   25.1138 H   0  0  0  0  0  0  0  0  0  0  0  0
   52.2060  151.9950   25.8880 H   0  0  0  0  0  0  0  0  0  0  0  0
   53.8445  152.4580   27.4463 H   0  0  0  0  0  0  0  0  0  0  0  0
   54.6550  153.6752   26.3740 H   0  0  0  0  0  0  0  0  0  0  0  0
   52.2327  153.0744   28.9932 H   0  0  0  0  0  0  0  0  0  0  0  0
   51.0149  154.8401   30.2413 H   0  0  0  0  0  0  0  0  0  0  0  0
   53.0314  160.6601   30.6459 H   0  0  0  0  0  0  0  0  0  0  0  0
   52.1363  162.6542   31.8569 H   0  0  0  0  0  0  0  0  0  0  0  0
   49.7295  162.7404   32.5128 H   0  0  0  0  0  0  0  0  0  0  0  0
   47.2920  160.5510   31.5220 H   0  0  0  0  0  0  0  0  0  0  0  0
   47.8120  156.4600   29.5530 H   0  0  0  0  0  0  0  0  0  0  0  0
   52.3278  157.7728   27.3619 H   0  0  0  0  0  0  0  0  0  0  0  0
   54.6893  156.6421   26.0463 H   0  0  0  0  0  0  0  0  0  0  0  0
   53.9784  155.2491   25.1627 H   0  0  0  0  0  0  0  0  0  0  0  0
   53.1374  156.8363   25.1627 H   0  0  0  0  0  0  0  0  0  0  0  0
  1  2  1  0
  2  3  1  0
  3  4  1  0
  4  5  1  0
  5  6  2  0
  6  7  1  0
  7  8  2  0
  8  9  1  0
  9 10  1  0
 10 11  1  0
 11 12  2  0
 12 13  1  0
 13 14  2  0
 14 15  1  0
 15 16  1  0
 15 17  2  0
 17 18  1  0
 18 19  2  0
 18 20  1  0
 20 21  1  0
  8 22  1  0
 22 23  2  0
 23 24  1  0
 23  5  1  0
 20  9  2  0
 17 11  1  0
  1 25  1  0
  1 26  1  0
  1 27  1  0
  2 28  1  0
  2 29  1  0
  3 30  1  0
  3 31  1  0
  4 32  1  0
  4 33  1  0
  6 34  1  0
  7 35  1  0
 12 36  1  0
 13 37  1  0
 14 38  1  0
 16 39  1  0
 21 40  1  0
 22 41  1  0
 24 42  1  0
 24 43  1  0
 24 44  1  0
M  END
>  <meeko>  (4) 
{"is_sidechain": [false], "free_energy": -9.117, "intermolecular_energy": -11.988, "internal_energy": -0.453}

$$$$
