cand_025_out
     RDKit          3D

 53 56  0  0  0  0  0  0  0  0999 V2000
   51.0290  153.7480   30.3990 C   0  0  0  0  0  0  0  0  0  0  0  0
   51.8290  153.8370   29.1080 C   0  0  0  0  0  0  0  0  0  0  0  0
   52.0840  155.2710   28.6980 C   0  0  0  0  0  0  0  0  0  0  0  0
   51.5910  156.3060   29.5180 C   0  0  0  0  0  0  0  0  0  0  0  0
   51.7840  157.6540   29.1930 C   0  0  0  0  0  0  0  0  0  0  0  0
   51.2480  158.7440   30.0350 C   0  0  0  0  0  0  0  0  0  0  0  0
   49.9150  158.5560   30.3790 O   0  0  0  0  0  0  0  0  0  0  0  0
   49.2920  159.4950   31.1610 C   0  0  0  0  0  0  0  0  0  0  0  0
   47.9580  159.2580   31.4940 C   0  0  0  0  0  0  0  0  0  0  0  0
   47.2640  160.1760   32.2870 C   0  0  0  0  0  0  0  0  0  0  0  0
   47.9040  161.3290   32.7440 C   0  0  0  0  0  0  0  0  0  0  0  0
   49.2360  161.5630   32.4110 C   0  0  0  0  0  0  0  0  0  0  0  0
   49.8010  162.7120   32.8920 O   0  0  0  0  0  0  0  0  0  0  0  0
   49.9290  160.6450   31.6180 C   0  0  0  0  0  0  0  0  0  0  0  0
   51.3300  160.8520   31.2440 C   0  0  0  0  0  0  0  0  0  0  0  0
   51.9580  161.8460   31.6030 O   0  0  0  0  0  0  0  0  0  0  0  0
   51.9760  159.8150   30.4080 C   0  0  0  0  0  0  0  0  0  0  0  0
   53.2940  160.0270   30.0500 O   0  0  0  0  0  0  0  0  0  0  0  0
   52.4690  157.9590   28.0120 C   0  0  0  0  0  0  0  0  0  0  0  0
   52.9570  156.9410   27.1860 C   0  0  0  0  0  0  0  0  0  0  0  0
   52.7690  155.5890   27.5080 C   0  0  0  0  0  0  0  0  0  0  0  0
   53.2550  154.5500   26.6910 N   0  0  0  0  0  0  0  0  0  0  0  0
   52.2810  153.4650   26.4430 C   0  0  0  0  0  0  0  0  0  0  0  0
   52.9630  152.3220   25.6550 C   0  0  0  0  0  0  0  0  0  0  0  0
   53.5460  152.7860   24.3740 N   0  0  0  0  0  0  0  0  0  0  0  0
   54.2260  151.6890   23.6900 C   0  0  0  0  0  0  0  0  0  0  0  0
   54.4900  153.8970   24.6440 C   0  0  0  0  0  0  0  0  0  0  0  0
   53.8370  155.0590   25.4290 C   0  0  0  0  0  0  0  0  0  0  0  0
   51.7108  153.8239   31.2588 H   0  0  0  0  0  0  0  0  0  0  0  0
   50.2996  154.5705   30.4358 H   0  0  0  0  0  0  0  0  0  0  0  0
   50.4982  152.7853   30.4358 H   0  0  0  0  0  0  0  0  0  0  0  0
   52.7953  153.3318   29.2532 H   0  0  0  0  0  0  0  0  0  0  0  0
   51.2439  153.3543   28.3113 H   0  0  0  0  0  0  0  0  0  0  0  0
   51.0414  156.0484   30.4354 H   0  0  0  0  0  0  0  0  0  0  0  0
   47.4532  158.3498   31.1329 H   0  0  0  0  0  0  0  0  0  0  0  0
   46.2126  159.9896   32.5512 H   0  0  0  0  0  0  0  0  0  0  0  0
   47.3569  162.0523   33.3666 H   0  0  0  0  0  0  0  0  0  0  0  0
   50.7070  162.7240   33.1310 H   0  0  0  0  0  0  0  0  0  0  0  0
   53.8000  159.3270   29.6880 H   0  0  0  0  0  0  0  0  0  0  0  0
   52.6256  159.0106   27.7299 H   0  0  0  0  0  0  0  0  0  0  0  0
   53.4987  157.2060   26.2661 H   0  0  0  0  0  0  0  0  0  0  0  0
   51.9129  153.0773   27.4044 H   0  0  0  0  0  0  0  0  0  0  0  0
   51.4381  153.8593   25.8565 H   0  0  0  0  0  0  0  0  0  0  0  0
   53.7661  151.8965   26.2746 H   0  0  0  0  0  0  0  0  0  0  0  0
   52.1934  151.5720   25.4201 H   0  0  0  0  0  0  0  0  0  0  0  0
   52.7990  153.1190   23.7640 H   0  0  0  0  0  0  0  0  0  0  0  0
   54.6526  151.0009   24.4347 H   0  0  0  0  0  0  0  0  0  0  0  0
   53.5054  151.1468   23.0601 H   0  0  0  0  0  0  0  0  0  0  0  0
   55.0321  152.0932   23.0601 H   0  0  0  0  0  0  0  0  0  0  0  0
   55.3342  153.5064   25.2312 H   0  0  0  0  0  0  0  0  0  0  0  0
   54.8192  154.2961   23.6732 H   0  0  0  0  0  0  0  0  0  0  0  0
   54.5995  155.8177   25.6589 H   0  0  0  0  0  0  0  0  0  0  0  0
   53.0399  155.5065   24.8172 H   0  0  0  0  0  0  0  0  0  0  0  0
  1  2  1  0
  2  3  1  0
  3  4  2  0
  4  5  1  0
  5  6  1  0
  6  7  1  0
  7  8  1  0
  8  9  2  0
  9 10  1  0
 10 11  2  0
 11 12  1  0
 12 13  1  0
 12 14  2  0
 14 15  1  0
 15 16  2  0
 15 17  1  0
 17 18  1  0
  5 19  2  0
 19 20  1  0
 20 21  2  0
 21 22  1  0
 22 23  1  0
 23 24  1  0
 24 25  1  0
 25 26  1  0
 25 27  1  0
 27 28  1  0
 21  3  1  0
 28 22  1  0
 17  6  2  0
 14  8  1  0
  1 29  1  0
  1 30  1  0
  1 31  1  0
  2 32  1  0
  2 33  1  0
  4 34  1  0
  9 35  1  0
 10 36  1  0
 11 37  1  0
 13 38  1  0
 18 39  1  0
 19 40  1  0
 20 41  1  0
 23 42  1  0
 23 43  1  0
 24 44  1  0
 24 45  1  0
 25 46  1  0
 26 47  1  0
 26 48  1  0
 26 49  1  0
 27 50  1  0
 27 51  1  0
 28 52  1  0
 28 53  1  0
M  CHG  1  25   1
M  END
>  <meeko>  (1) 
{"is_sidechain": [false], "free_energy": -9.364, "intermolecular_energy": -11.553, "internal_energy": 0.516}

$$$$
cand_025_out
     RDKit          3D

 53 56  0  0  0  0  0  0  0  0999 V2000
   53.4650  156.9850   24.7310 C   0  0  0  0  0  0  0  0  0  0  0  0
   54.0930  157.0790   26.1140 C   0  0  0  0  0  0  0  0  0  0  0  0
   53.1130  156.7120   27.2060 C   0  0  0  0  0  0  0  0  0  0  0  0
   52.5850  157.7400   28.0140 C   0  0  0  0  0  0  0  0  0  0  0  0
   51.6810  157.4690   29.0480 C   0  0  0  0  0  0  0  0  0  0  0  0
   51.1440  158.5390   29.9150 C   0  0  0  0  0  0  0  0  0  0  0  0
   49.8020  158.3560   30.2310 O   0  0  0  0  0  0  0  0  0  0  0  0
   49.1780  159.2770   31.0320 C   0  0  0  0  0  0  0  0  0  0  0  0
   47.8360  159.0460   31.3370 C   0  0  0  0  0  0  0  0  0  0  0  0
   47.1400  159.9470   32.1460 C   0  0  0  0  0  0  0  0  0  0  0  0
   47.7850  161.0780   32.6490 C   0  0  0  0  0  0  0  0  0  0  0  0
   49.1250  161.3060   32.3440 C   0  0  0  0  0  0  0  0  0  0  0  0
   49.6950  162.4330   32.8700 O   0  0  0  0  0  0  0  0  0  0  0  0
   49.8210  160.4050   31.5350 C   0  0  0  0  0  0  0  0  0  0  0  0
   51.2290  160.6070   31.1900 C   0  0  0  0  0  0  0  0  0  0  0  0
   51.8620  161.5820   31.5890 O   0  0  0  0  0  0  0  0  0  0  0  0
   51.8770  159.5880   30.3320 C   0  0  0  0  0  0  0  0  0  0  0  0
   53.2030  159.7960   30.0020 O   0  0  0  0  0  0  0  0  0  0  0  0
   51.3200  156.1370   29.2790 C   0  0  0  0  0  0  0  0  0  0  0  0
   51.8410  155.1080   28.4900 C   0  0  0  0  0  0  0  0  0  0  0  0
   52.7460  155.3730   27.4510 C   0  0  0  0  0  0  0  0  0  0  0  0
   53.2790  154.3510   26.6420 N   0  0  0  0  0  0  0  0  0  0  0  0
   53.2940  153.0170   27.2800 C   0  0  0  0  0  0  0  0  0  0  0  0
   54.0210  152.0080   26.3600 C   0  0  0  0  0  0  0  0  0  0  0  0
   53.4040  151.9220   25.0150 N   0  0  0  0  0  0  0  0  0  0  0  0
   54.1520  151.0010   24.1630 C   0  0  0  0  0  0  0  0  0  0  0  0
   53.3650  153.2760   24.4110 C   0  0  0  0  0  0  0  0  0  0  0  0
   52.6420  154.3090   25.3070 C   0  0  0  0  0  0  0  0  0  0  0  0
   52.3816  156.8228   24.8305 H   0  0  0  0  0  0  0  0  0  0  0  0
   53.6468  157.9204   24.1814 H   0  0  0  0  0  0  0  0  0  0  0  0
   53.9127  156.1439   24.1814 H   0  0  0  0  0  0  0  0  0  0  0  0
   54.9516  156.3930   26.1618 H   0  0  0  0  0  0  0  0  0  0  0  0
   54.4074  158.1208   26.2749 H   0  0  0  0  0  0  0  0  0  0  0  0
   52.8908  158.7800   27.8273 H   0  0  0  0  0  0  0  0  0  0  0  0
   47.3268  158.1552   30.9406 H   0  0  0  0  0  0  0  0  0  0  0  0
   46.0823  159.7651   32.3870 H   0  0  0  0  0  0  0  0  0  0  0  0
   47.2362  161.7880   33.2851 H   0  0  0  0  0  0  0  0  0  0  0  0
   49.2870  162.8720   33.5910 H   0  0  0  0  0  0  0  0  0  0  0  0
   53.8420  159.1380   30.1920 H   0  0  0  0  0  0  0  0  0  0  0  0
   50.6179  155.8971   30.0911 H   0  0  0  0  0  0  0  0  0  0  0  0
   51.5356  154.0698   28.6873 H   0  0  0  0  0  0  0  0  0  0  0  0
   53.8206  153.0784   28.2438 H   0  0  0  0  0  0  0  0  0  0  0  0
   52.2599  152.6802   27.4452 H   0  0  0  0  0  0  0  0  0  0  0  0
   55.0688  152.3236   26.2483 H   0  0  0  0  0  0  0  0  0  0  0  0
   53.9462  151.0148   26.8269 H   0  0  0  0  0  0  0  0  0  0  0  0
   52.4520  151.5640   25.1030 H   0  0  0  0  0  0  0  0  0  0  0  0
   54.7211  150.3003   24.7915 H   0  0  0  0  0  0  0  0  0  0  0  0
   53.4519  150.4384   23.5279 H   0  0  0  0  0  0  0  0  0  0  0  0
   54.8463  151.5708   23.5279 H   0  0  0  0  0  0  0  0  0  0  0  0
   54.3975  153.6166   24.2440 H   0  0  0  0  0  0  0  0  0  0  0  0
   52.8030  153.2031   23.4682 H   0  0  0  0  0  0  0  0  0  0  0  0
   52.7053  155.3035   24.8412 H   0  0  0  0  0  0  0  0  0  0  0  0
   51.5873  154.0169   25.4180 H   0  0  0  0  0  0  0  0  0  0  0  0
  1  2  1  0
  2  3  1  0
  3  4  2  0
  4  5  1  0
  5  6  1  0
  6  7  1  0
  7  8  1  0
  8  9  2  0
  9 10  1  0
 10 11  2  0
 11 12  1  0
 12 13  1  0
 12 14  2  0
 14 15  1  0
 15 16  2  0
 15 17  1  0
 17 18  1  0
  5 19  2  0
 19 20  1  0
 20 21  2  0
 21 22  1  0
 22 23  1  0
 23 24  1  0
 24 25  1  0
 25 26  1  0
 25 27  1  0
 27 28  1  0
 21  3  1  0
 28 22  1  0
 17  6  2  0
 14  8  1  0
  1 29  1  0
  1 30  1  0
  1 31  1  0
  2 32  1  0
  2 33  1  0
  4 34  1  0
  9 35  1  0
 10 36  1  0
 11 37  1  0
 13 38  1  0
 18 39  1  0
 19 40  1  0
 20 41  1  0
 23 42  1  0
 23 43  1  0
 24 44  1  0
 24 45  1  0
 25 46  1  0
 26 47  1  0
 26 48  1  0
 26 49  1  0
 27 50  1  0
 27 51  1  0
 28 52  1  0
 28 53  1  0
M  CHG  1  25   1
M  END
>  <meeko>  (2) 
{"is_sidechain": [false], "free_energy": -8.737, "intermolecular_energy": -11.137, "internal_energy": 0.873}

$$$$
cand_025_out
     RDKit          3D

 53 56  0  0  0  0  0  0  0  0999 V2000
   47.7670  158.4500   29.6170 C   0  0  0  0  0  0  0  0  0  0  0  0
   48.6680  157.4460   30.3200 C   0  0  0  0  0  0  0  0  0  0  0  0
   50.0910  157.5070   29.8090 C   0  0  0  0  0  0  0  0  0  0  0  0
   50.5690  156.4460   29.0140 C   0  0  0  0  0  0  0  0  0  0  0  0
   51.8770  156.4340   28.5150 C   0  0  0  0  0  0  0  0  0  0  0  0
   52.3920  155.3130   27.7020 C   0  0  0  0  0  0  0  0  0  0  0  0
   53.0950  155.7370   26.5800 O   0  0  0  0  0  0  0  0  0  0  0  0
   53.6300  154.7970   25.7370 C   0  0  0  0  0  0  0  0  0  0  0  0
   54.3400  155.2660   24.6330 C   0  0  0  0  0  0  0  0  0  0  0  0
   54.9090  154.3620   23.7330 C   0  0  0  0  0  0  0  0  0  0  0  0
   54.7660  152.9880   23.9390 C   0  0  0  0  0  0  0  0  0  0  0  0
   54.0560  152.5220   25.0420 C   0  0  0  0  0  0  0  0  0  0  0  0
   53.9550  151.1640   25.1820 O   0  0  0  0  0  0  0  0  0  0  0  0
   53.4880  153.4270   25.9410 C   0  0  0  0  0  0  0  0  0  0  0  0
   52.7350  152.9790   27.1140 C   0  0  0  0  0  0  0  0  0  0  0  0
   52.5600  151.7870   27.3580 O   0  0  0  0  0  0  0  0  0  0  0  0
   52.1790  154.0190   28.0100 C   0  0  0  0  0  0  0  0  0  0  0  0
   51.4590  153.5850   29.1060 O   0  0  0  0  0  0  0  0  0  0  0  0
   52.7190  157.5020   28.8420 C   0  0  0  0  0  0  0  0  0  0  0  0
   52.2600  158.5580   29.6360 C   0  0  0  0  0  0  0  0  0  0  0  0
   50.9490  158.5760   30.1360 C   0  0  0  0  0  0  0  0  0  0  0  0
   50.4660  159.6310   30.9340 N   0  0  0  0  0  0  0  0  0  0  0  0
   49.7570  159.1940   32.1560 C   0  0  0  0  0  0  0  0  0  0  0  0
   49.1560  160.4230   32.8780 C   0  0  0  0  0  0  0  0  0  0  0  0
   50.1810  161.4370   33.2200 N   0  0  0  0  0  0  0  0  0  0  0  0
   49.5640  162.6020   33.8490 C   0  0  0  0  0  0  0  0  0  0  0  0
   50.9030  161.8320   31.9860 C   0  0  0  0  0  0  0  0  0  0  0  0
   51.5200  160.6240   31.2410 C   0  0  0  0  0  0  0  0  0  0  0  0
   47.2297  159.0487   30.3673 H   0  0  0  0  0  0  0  0  0  0  0  0
   48.3783  159.1135   28.9877 H   0  0  0  0  0  0  0  0  0  0  0  0
   47.0414  157.9138   28.9877 H   0  0  0  0  0  0  0  0  0  0  0  0
   48.6682  157.6631   31.3984 H   0  0  0  0  0  0  0  0  0  0  0  0
   48.2769  156.4380   30.1173 H   0  0  0  0  0  0  0  0  0  0  0  0
   49.8978  155.6066   28.7798 H   0  0  0  0  0  0  0  0  0  0  0  0
   54.4522  156.3481   24.4705 H   0  0  0  0  0  0  0  0  0  0  0  0
   55.4697  154.7322   22.8620 H   0  0  0  0  0  0  0  0  0  0  0  0
   55.2137  152.2753   23.2308 H   0  0  0  0  0  0  0  0  0  0  0  0
   54.7250  150.6490   25.3210 H   0  0  0  0  0  0  0  0  0  0  0  0
   50.7940  154.1310   29.4770 H   0  0  0  0  0  0  0  0  0  0  0  0
   53.7543  157.5115   28.4704 H   0  0  0  0  0  0  0  0  0  0  0  0
   52.9394  159.3900   29.8729 H   0  0  0  0  0  0  0  0  0  0  0  0
   48.9490  158.5000   31.8814 H   0  0  0  0  0  0  0  0  0  0  0  0
   50.4664  158.6881   32.8274 H   0  0  0  0  0  0  0  0  0  0  0  0
   48.4064  160.8870   32.2202 H   0  0  0  0  0  0  0  0  0  0  0  0
   48.7064  160.0716   33.8184 H   0  0  0  0  0  0  0  0  0  0  0  0
   50.8430  161.0360   33.8850 H   0  0  0  0  0  0  0  0  0  0  0  0
   49.6181  162.4998   34.9429 H   0  0  0  0  0  0  0  0  0  0  0  0
   50.0983  163.5121   33.5389 H   0  0  0  0  0  0  0  0  0  0  0  0
   48.5109  162.6714   33.5389 H   0  0  0  0  0  0  0  0  0  0  0  0
   50.1962  162.3375   31.3115 H   0  0  0  0  0  0  0  0  0  0  0  0
   51.7285  162.4957   32.2827 H   0  0  0  0  0  0  0  0  0  0  0  0
   51.9800  160.9696   30.3035 H   0  0  0  0  0  0  0  0  0  0  0  0
   52.2842  160.1562   31.8791 H   0  0  0  0  0  0  0  0  0  0  0  0
  1  2  1  0
  2  3  1  0
  3  4  2  0
  4  5  1  0
  5  6  1  0
  6  7  1  0
  7  8  1  0
  8  9  2  0
  9 10  1  0
 10 11  2  0
 11 12  1  0
 12 13  1  0
 12 14  2  0
 14 15  1  0
 15 16  2  0
 15 17  1  0
 17 18  1  0
  5 19  2  0
 19 20  1  0
 20 21  2  0
 21 22  1  0
 22 23  1  0
 23 24  1  0
 24 25  1  0
 25 26  1  0
 25 27  1  0
 27 28  1  0
 21  3  1  0
 28 22  1  0
 17  6  2  0
 14  8  1  0
  1 29  1  0
  1 30  1  0
  1 31  1  0
  2 32  1  0
  2 33  1  0
  4 34  1  0
  9 35  1  0
 10 36  1  0
 11 37  1  0
 13 38  1  0
 18 39  1  0
 19 40  1  0
 20 41  1  0
 23 42  1  0
 23 43  1  0
 24 44  1  0
 24 45  1  0
 25 46  1  0
 26 47  1  0
 26 48  1  0
 26 49  1  0
 27 50  1  0
 27 51  1  0
 28 52  1  0
 28 53  1  0
M  CHG  1  25   1
M  END
>  <meeko>  (3) 
{"is_sidechain": [false], "free_energy": -8.354, "intermolecular_energy": -10.672, "internal_energy": 0.881}

$$$$
cand_025_out
     RDKit          3D

 53 56  0  0  0  0  0  0  0  0999 V2000
   51.7850  161.1520   30.4190 C   0  0  0  0  0  0  0  0  0  0  0  0
   52.6240  159.9060   30.1800 C   0  0  0  0  0  0  0  0  0  0  0  0
   51.7660  158.6900   29.9100 C   0  0  0  0  0  0  0  0  0  0  0  0
   52.2970  157.6490   29.1210 C   0  0  0  0  0  0  0  0  0  0  0  0
   51.5540  156.5000   28.8270 C   0  0  0  0  0  0  0  0  0  0  0  0
   52.0960  155.4170   27.9790 C   0  0  0  0  0  0  0  0  0  0  0  0
   52.8270  155.8920   26.8970 O   0  0  0  0  0  0  0  0  0  0  0  0
   53.3880  154.9910   26.0280 C   0  0  0  0  0  0  0  0  0  0  0  0
   54.1270  155.5110   24.9650 C   0  0  0  0  0  0  0  0  0  0  0  0
   54.7240  154.6480   24.0420 C   0  0  0  0  0  0  0  0  0  0  0  0
   54.5810  153.2670   24.1840 C   0  0  0  0  0  0  0  0  0  0  0  0
   53.8440  152.7500   25.2460 C   0  0  0  0  0  0  0  0  0  0  0  0
   53.7450  151.3880   25.3250 O   0  0  0  0  0  0  0  0  0  0  0  0
   53.2480  153.6130   26.1690 C   0  0  0  0  0  0  0  0  0  0  0  0
   52.4650  153.1120   27.3000 C   0  0  0  0  0  0  0  0  0  0  0  0
   52.2900  151.9100   27.4870 O   0  0  0  0  0  0  0  0  0  0  0  0
   51.8810  154.1100   28.2250 C   0  0  0  0  0  0  0  0  0  0  0  0
   51.1340  153.6260   29.2810 O   0  0  0  0  0  0  0  0  0  0  0  0
   50.2490  156.4110   29.3210 C   0  0  0  0  0  0  0  0  0  0  0  0
   49.7070  157.4390   30.0980 C   0  0  0  0  0  0  0  0  0  0  0  0
   50.4470  158.5920   30.3990 C   0  0  0  0  0  0  0  0  0  0  0  0
   49.9220  159.6360   31.1840 N   0  0  0  0  0  0  0  0  0  0  0  0
   48.7310  160.2930   30.6030 C   0  0  0  0  0  0  0  0  0  0  0  0
   48.3250  161.5050   31.4750 C   0  0  0  0  0  0  0  0  0  0  0  0
   48.0610  161.1240   32.8830 N   0  0  0  0  0  0  0  0  0  0  0  0
   47.7350  162.3030   33.6820 C   0  0  0  0  0  0  0  0  0  0  0  0
   49.2530  160.4360   33.4330 C   0  0  0  0  0  0  0  0  0  0  0  0
   49.6830  159.2160   32.5830 C   0  0  0  0  0  0  0  0  0  0  0  0
   51.6738  161.3172   31.5008 H   0  0  0  0  0  0  0  0  0  0  0  0
   52.2822  162.0216   29.9645 H   0  0  0  0  0  0  0  0  0  0  0  0
   50.7922  161.0183   29.9645 H   0  0  0  0  0  0  0  0  0  0  0  0
   53.2782  160.0790   29.3128 H   0  0  0  0  0  0  0  0  0  0  0  0
   53.2124  159.7124   31.0890 H   0  0  0  0  0  0  0  0  0  0  0  0
   53.3198  157.7422   28.7271 H   0  0  0  0  0  0  0  0  0  0  0  0
   54.2397  156.5995   24.8535 H   0  0  0  0  0  0  0  0  0  0  0  0
   55.3066  155.0572   23.2035 H   0  0  0  0  0  0  0  0  0  0  0  0
   55.0503  152.5875   23.4573 H   0  0  0  0  0  0  0  0  0  0  0  0
   54.4800  150.8800   25.6120 H   0  0  0  0  0  0  0  0  0  0  0  0
   50.3920  154.1070   29.5910 H   0  0  0  0  0  0  0  0  0  0  0  0
   49.6418  155.5219   29.0957 H   0  0  0  0  0  0  0  0  0  0  0  0
   48.6803  157.3418   30.4808 H   0  0  0  0  0  0  0  0  0  0  0  0
   48.9639  160.6372   29.5845 H   0  0  0  0  0  0  0  0  0  0  0  0
   47.8991  159.5741   30.5694 H   0  0  0  0  0  0  0  0  0  0  0  0
   49.1402  162.2433   31.4556 H   0  0  0  0  0  0  0  0  0  0  0  0
   47.3952  161.9209   31.0597 H   0  0  0  0  0  0  0  0  0  0  0  0
   47.2600  160.4930   32.9170 H   0  0  0  0  0  0  0  0  0  0  0  0
   47.8043  162.0522   34.7508 H   0  0  0  0  0  0  0  0  0  0  0  0
   48.4433  163.1116   33.4484 H   0  0  0  0  0  0  0  0  0  0  0  0
   46.7120  162.6328   33.4484 H   0  0  0  0  0  0  0  0  0  0  0  0
   50.0874  161.1519   33.4687 H   0  0  0  0  0  0  0  0  0  0  0  0
   48.9909  160.0670   34.4356 H   0  0  0  0  0  0  0  0  0  0  0  0
   50.6077  158.7894   32.9988 H   0  0  0  0  0  0  0  0  0  0  0  0
   48.8835  158.4608   32.6029 H   0  0  0  0  0  0  0  0  0  0  0  0
  1  2  1  0
  2  3  1  0
  3  4  2  0
  4  5  1  0
  5  6  1  0
  6  7  1  0
  7  8  1  0
  8  9  2  0
  9 10  1  0
 10 11  2  0
 11 12  1  0
 12 13  1  0
 12 14  2  0
 14 15  1  0
 15 16  2  0
 15 17  1  0
 17 18  1  0
  5 19  2  0
 19 20  1  0
 20 21  2  0
 21 22  1  0
 22 23  1  0
 23 24  1  0
 24 25  1  0
 25 26  1  0
 25 27  1  0
 27 28  1  0
 21  3  1  0
 28 22  1  0
 17  6  2  0
 14  8  1  0
  1 29  1  0
  1 30  1  0
  1 31  1  0
  2 32  1  0
  2 33  1  0
  4 34  1  0
  9 35  1  0
 10 36  1  0
 11 37  1  0
 13 38  1  0
 18 39  1  0
 19 40  1  0
 20 41  1  0
 23 42  1  0
 23 43  1  0
 24 44  1  0
 24 45  1  0
 25 46  1  0
 26 47  1  0
 26 48  1  0
 26 49  1  0
 27 50  1  0
 27 51  1  0
 28 52  1  0
 28 53  1  0
M  CHG  1  25   1
M  END
>  <meeko>  (4) 
{"is_sidechain": [false], "free_energy": -8.283, "intermolecular_energy": -10.874, "internal_energy": 1.169}

$$$$
cand_025_out
     RDKit          3D

 53 56  0  0  0  0  0  0  0  0999 V2000
   53.5520  156.9970   24.9510 C   0  0  0  0  0  0  0  0  0  0  0  0
   53.9770  157.0310   26.4120 C   0  0  0  0  0  0  0  0  0  0  0  0
   52.8770  156.5490   27.3320 C   0  0  0  0  0  0  0  0  0  0  0  0
   52.2270  157.4890   28.1580 C   0  0  0  0  0  0  0  0  0  0  0  0
   51.2070  157.1090   29.0380 C   0  0  0  0  0  0  0  0  0  0  0  0
   50.5380  158.0840   29.9250 C   0  0  0  0  0  0  0  0  0  0  0  0
   51.3740  159.1260   30.3110 O   0  0  0  0  0  0  0  0  0  0  0  0
   50.8790  160.1040   31.1350 C   0  0  0  0  0  0  0  0  0  0  0  0
   51.7470  161.1370   31.4850 C   0  0  0  0  0  0  0  0  0  0  0  0
   51.3070  162.1650   32.3220 C   0  0  0  0  0  0  0  0  0  0  0  0
   49.9990  162.1570   32.8100 C   0  0  0  0  0  0  0  0  0  0  0  0
   49.1330  161.1250   32.4590 C   0  0  0  0  0  0  0  0  0  0  0  0
   47.8660  161.1790   32.9720 O   0  0  0  0  0  0  0  0  0  0  0  0
   49.5740  160.0970   31.6210 C   0  0  0  0  0  0  0  0  0  0  0  0
   48.6970  158.9930   31.2270 C   0  0  0  0  0  0  0  0  0  0  0  0
   47.5360  158.9140   31.6210 O   0  0  0  0  0  0  0  0  0  0  0  0
   49.2590  157.9590   30.3290 C   0  0  0  0  0  0  0  0  0  0  0  0
   48.4270  156.9140   29.9740 O   0  0  0  0  0  0  0  0  0  0  0  0
   50.8540  155.7560   29.0990 C   0  0  0  0  0  0  0  0  0  0  0  0
   51.4970  154.8130   28.2910 C   0  0  0  0  0  0  0  0  0  0  0  0
   52.5170  155.1880   27.4040 C   0  0  0  0  0  0  0  0  0  0  0  0
   53.1740  154.2550   26.5790 N   0  0  0  0  0  0  0  0  0  0  0  0
   53.2640  152.8940   27.1530 C   0  0  0  0  0  0  0  0  0  0  0  0
   54.1180  151.9940   26.2290 C   0  0  0  0  0  0  0  0  0  0  0  0
   53.5820  151.9300   24.8480 N   0  0  0  0  0  0  0  0  0  0  0  0
   54.4460  151.1160   23.9980 C   0  0  0  0  0  0  0  0  0  0  0  0
   53.4650  153.3060   24.3090 C   0  0  0  0  0  0  0  0  0  0  0  0
   52.6130  154.2320   25.2100 C   0  0  0  0  0  0  0  0  0  0  0  0
   52.4572  156.9094   24.8896 H   0  0  0  0  0  0  0  0  0  0  0  0
   53.8742  157.9238   24.4537 H   0  0  0  0  0  0  0  0  0  0  0  0
   54.0174  156.1332   24.4537 H   0  0  0  0  0  0  0  0  0  0  0  0
   54.8573  156.3842   26.5412 H   0  0  0  0  0  0  0  0  0  0  0  0
   54.2083  158.0737   26.6751 H   0  0  0  0  0  0  0  0  0  0  0  0
   52.5286  158.5457   28.1096 H   0  0  0  0  0  0  0  0  0  0  0  0
   52.7782  161.1426   31.1021 H   0  0  0  0  0  0  0  0  0  0  0  0
   51.9913  162.9812   32.5968 H   0  0  0  0  0  0  0  0  0  0  0  0
   49.6530  162.9652   33.4711 H   0  0  0  0  0  0  0  0  0  0  0  0
   47.5390  161.9820   33.3290 H   0  0  0  0  0  0  0  0  0  0  0  0
   47.5850  157.0910   29.6020 H   0  0  0  0  0  0  0  0  0  0  0  0
   50.0622  155.4309   29.7900 H   0  0  0  0  0  0  0  0  0  0  0  0
   51.1971  153.7565   28.3522 H   0  0  0  0  0  0  0  0  0  0  0  0
   53.7324  152.9466   28.1469 H   0  0  0  0  0  0  0  0  0  0  0  0
   52.2534  152.4690   27.2430 H   0  0  0  0  0  0  0  0  0  0  0  0
   55.1413  152.3958   26.1923 H   0  0  0  0  0  0  0  0  0  0  0  0
   54.0991  150.9751   26.6432 H   0  0  0  0  0  0  0  0  0  0  0  0
   52.6590  151.4940   24.8650 H   0  0  0  0  0  0  0  0  0  0  0  0
   55.1025  150.4975   24.6277 H   0  0  0  0  0  0  0  0  0  0  0  0
   53.8274  150.4649   23.3629 H   0  0  0  0  0  0  0  0  0  0  0  0
   55.0591  151.7723   23.3629 H   0  0  0  0  0  0  0  0  0  0  0  0
   54.4738  153.7350   24.2182 H   0  0  0  0  0  0  0  0  0  0  0  0
   52.9615  153.2381   23.3334 H   0  0  0  0  0  0  0  0  0  0  0  0
   52.6193  155.2510   24.7957 H   0  0  0  0  0  0  0  0  0  0  0  0
   51.5810  153.8529   25.2470 H   0  0  0  0  0  0  0  0  0  0  0  0
  1  2  1  0
  2  3  1  0
  3  4  2  0
  4  5  1  0
  5  6  1  0
  6  7  1  0
  7  8  1  0
  8  9  2  0
  9 10  1  0
 10 11  2  0
 11 12  1  0
 12 13  1  0
 12 14  2  0
 14 15  1  0
 15 16  2  0
 15 17  1  0
 17 18  1  0
  5 19  2  0
 19 20  1  0
 20 21  2  0
 21 22  1  0
 22 23  1  0
 23 24  1  0
 24 25  1  0
 25 26  1  0
 25 27  1  0
 27 28  1  0
 21  3  1  0
 28 22  1  0
 17  6  2  0
 14  8  1  0
  1 29  1  0
  1 30  1  0
  1 31  1  0
  2 32  1  0
  2 33  1  0
  4 34  1  0
  9 35  1  0
 10 36  1  0
 11 37  1  0
 13 38  1  0
 18 39  1  0
 19 40  1  0
 20 41  1  0
 23 42  1  0
 23 43  1  0
 24 44  1  0
 24 45  1  0
 25 46  1  0
 26 47  1  0
 26 48  1  0
 26 49  1  0
 27 50  1  0
 27 51  1  0
 28 52  1  0
 28 53  1  0
M  CHG  1  25   1
M  END
>  <meeko>  (5) 
{"is_sidechain": [false], "free_energy": -6.919, "intermolecular_energy": -8.828, "internal_energy": 0.807}

$$$$
cand_025_out
     RDKit          3D

 53 56  0  0  0  0  0  0  0  0999 V2000
   51.9240  153.1010   29.2790 C   0  0  0  0  0  0  0  0  0  0  0  0
   51.3800  153.8600   28.0780 C   0  0  0  0  0  0  0  0  0  0  0  0
   51.7330  155.3300   28.1300 C   0  0  0  0  0  0  0  0  0  0  0  0
   51.0580  156.1560   29.0510 C   0  0  0  0  0  0  0  0  0  0  0  0
   51.3310  157.5260   29.1450 C   0  0  0  0  0  0  0  0  0  0  0  0
   50.6090  158.4020   30.0910 C   0  0  0  0  0  0  0  0  0  0  0  0
   51.3800  159.4700   30.5360 O   0  0  0  0  0  0  0  0  0  0  0  0
   50.8300  160.3630   31.4190 C   0  0  0  0  0  0  0  0  0  0  0  0
   51.6340  161.4280   31.8260 C   0  0  0  0  0  0  0  0  0  0  0  0
   51.1360  162.3740   32.7260 C   0  0  0  0  0  0  0  0  0  0  0  0
   49.8350  162.2530   33.2180 C   0  0  0  0  0  0  0  0  0  0  0  0
   49.0350  161.1890   32.8100 C   0  0  0  0  0  0  0  0  0  0  0  0
   47.7710  161.1310   33.3310 O   0  0  0  0  0  0  0  0  0  0  0  0
   49.5330  160.2440   31.9100 C   0  0  0  0  0  0  0  0  0  0  0  0
   48.7250  159.1110   31.4550 C   0  0  0  0  0  0  0  0  0  0  0  0
   47.5750  158.9340   31.8490 O   0  0  0  0  0  0  0  0  0  0  0  0
   49.3440  158.1700   30.4930 C   0  0  0  0  0  0  0  0  0  0  0  0
   48.5770  157.0980   30.0810 O   0  0  0  0  0  0  0  0  0  0  0  0
   52.2870  158.0710   28.2810 C   0  0  0  0  0  0  0  0  0  0  0  0
   52.9590  157.2650   27.3580 C   0  0  0  0  0  0  0  0  0  0  0  0
   52.6920  155.8910   27.2610 C   0  0  0  0  0  0  0  0  0  0  0  0
   53.3600  155.0600   26.3410 N   0  0  0  0  0  0  0  0  0  0  0  0
   52.5220  153.9810   25.7760 C   0  0  0  0  0  0  0  0  0  0  0  0
   53.3900  153.0560   24.8900 C   0  0  0  0  0  0  0  0  0  0  0  0
   54.0730  153.7930   23.8010 N   0  0  0  0  0  0  0  0  0  0  0  0
   54.9220  152.8930   23.0240 C   0  0  0  0  0  0  0  0  0  0  0  0
   54.8760  154.8920   24.3870 C   0  0  0  0  0  0  0  0  0  0  0  0
   54.0350  155.8380   25.2780 C   0  0  0  0  0  0  0  0  0  0  0  0
   51.5782  153.5835   30.2050 H   0  0  0  0  0  0  0  0  0  0  0  0
   51.5636  152.0621   29.2502 H   0  0  0  0  0  0  0  0  0  0  0  0
   53.0236  153.1086   29.2502 H   0  0  0  0  0  0  0  0  0  0  0  0
   51.8042  153.4250   27.1610 H   0  0  0  0  0  0  0  0  0  0  0  0
   50.2835  153.7730   28.0890 H   0  0  0  0  0  0  0  0  0  0  0  0
   50.2982  155.7136   29.7121 H   0  0  0  0  0  0  0  0  0  0  0  0
   52.6592  161.5230   31.4388 H   0  0  0  0  0  0  0  0  0  0  0  0
   51.7692  163.2142   33.0469 H   0  0  0  0  0  0  0  0  0  0  0  0
   49.4427  162.9971   33.9268 H   0  0  0  0  0  0  0  0  0  0  0  0
   47.3960  160.3030   33.5600 H   0  0  0  0  0  0  0  0  0  0  0  0
   47.7400  156.9420   30.4710 H   0  0  0  0  0  0  0  0  0  0  0  0
   52.5124  159.1466   28.3288 H   0  0  0  0  0  0  0  0  0  0  0  0
   53.7116  157.7165   26.6949 H   0  0  0  0  0  0  0  0  0  0  0  0
   52.0806  153.3940   26.5949 H   0  0  0  0  0  0  0  0  0  0  0  0
   51.7212  154.4236   25.1654 H   0  0  0  0  0  0  0  0  0  0  0  0
   54.1510  152.5745   25.5217 H   0  0  0  0  0  0  0  0  0  0  0  0
   52.7229  152.3148   24.4256 H   0  0  0  0  0  0  0  0  0  0  0  0
   53.3730  154.1850   23.1690 H   0  0  0  0  0  0  0  0  0  0  0  0
   55.5135  152.2659   23.7073 H   0  0  0  0  0  0  0  0  0  0  0  0
   54.2925  152.2514   22.3899 H   0  0  0  0  0  0  0  0  0  0  0  0
   55.5992  153.4840   22.3899 H   0  0  0  0  0  0  0  0  0  0  0  0
   55.6785  154.4539   24.9986 H   0  0  0  0  0  0  0  0  0  0  0  0
   55.2778  155.4894   23.5553 H   0  0  0  0  0  0  0  0  0  0  0  0
   54.6949  156.5883   25.7381 H   0  0  0  0  0  0  0  0  0  0  0  0
   53.2766  156.3398   24.6591 H   0  0  0  0  0  0  0  0  0  0  0  0
  1  2  1  0
  2  3  1  0
  3  4  2  0
  4  5  1  0
  5  6  1  0
  6  7  1  0
  7  8  1  0
  8  9  2  0
  9 10  1  0
 10 11  2  0
 11 12  1  0
 12 13  1  0
 12 14  2  0
 14 15  1  0
 15 16  2  0
 15 17  1  0
 17 18  1  0
  5 19  2  0
 19 20  1  0
 20 21  2  0
 21 22  1  0
 22 23  1  0
 23 24  1  0
 24 25  1  0
 25 26  1  0
 25 27  1  0
 27 28  1  0
 21  3  1  0
 28 22  1  0
 17  6  2  0
 14  8  1  0
  1 29  1  0
  1 30  1  0
  1 31  1  0
  2 32  1  0
  2 33  1  0
  4 34  1  0
  9 35  1  0
 10 36  1  0
 11 37  1  0
 13 38  1  0
 18 39  1  0
 19 40  1  0
 20 41  1  0
 23 42  1  0
 23 43  1  0
 24 44  1  0
 24 45  1  0
 25 46  1  0
 26 47  1  0
 26 48  1  0
 26 49  1  0
 27 50  1  0
 27 51  1  0
 28 52  1  0
 28 53  1  0
M  CHG  1  25   1
M  END
>  <meeko>  (6) 
{"is_sidechain": [false], "free_energy": -6.543, "intermolecular_energy": -8.555, "internal_energy": 0.997}

$$$$
