cand_015_out
     RDKit          3D

 36 38  0  0  0  0  0  0  0  0999 V2000
   50.2810  161.6320   32.7550 C   0  0  0  0  0  0  0  0  0  0  0  0
   49.8460  161.1820   31.5730 C   0  0  0  0  0  0  0  0  0  0  0  0
   48.8530  161.8670   30.9640 F   0  0  0  0  0  0  0  0  0  0  0  0
   50.3480  159.9700   30.9030 C   0  0  0  0  0  0  0  0  0  0  0  0
   51.6520  159.9570   30.3790 C   0  0  0  0  0  0  0  0  0  0  0  0
   52.1540  158.8330   29.7120 C   0  0  0  0  0  0  0  0  0  0  0  0
   51.3680  157.6900   29.5490 C   0  0  0  0  0  0  0  0  0  0  0  0
   51.8630  156.5020   28.8220 C   0  0  0  0  0  0  0  0  0  0  0  0
   52.4300  156.8180   27.5930 O   0  0  0  0  0  0  0  0  0  0  0  0
   52.9290  155.8060   26.8140 C   0  0  0  0  0  0  0  0  0  0  0  0
   53.5030  156.1700   25.5930 C   0  0  0  0  0  0  0  0  0  0  0  0
   54.0290  155.1880   24.7510 C   0  0  0  0  0  0  0  0  0  0  0  0
   53.9810  153.8440   25.1270 C   0  0  0  0  0  0  0  0  0  0  0  0
   53.4090  153.4840   26.3440 C   0  0  0  0  0  0  0  0  0  0  0  0
   53.3960  152.1510   26.6510 O   0  0  0  0  0  0  0  0  0  0  0  0
   52.8840  154.4670   27.1880 C   0  0  0  0  0  0  0  0  0  0  0  0
   52.2740  154.1310   28.4750 C   0  0  0  0  0  0  0  0  0  0  0  0
   52.1880  152.9720   28.8730 O   0  0  0  0  0  0  0  0  0  0  0  0
   51.7530  155.2480   29.2970 C   0  0  0  0  0  0  0  0  0  0  0  0
   51.1670  154.9190   30.5060 O   0  0  0  0  0  0  0  0  0  0  0  0
   50.0600  157.7060   30.0550 C   0  0  0  0  0  0  0  0  0  0  0  0
   49.5410  158.8250   30.7380 C   0  0  0  0  0  0  0  0  0  0  0  0
   48.1270  158.7630   31.2510 C   0  0  0  0  0  0  0  0  0  0  0  0
   51.0879  161.1019   33.2822 H   0  0  0  0  0  0  0  0  0  0  0  0
   49.8319  162.5322   33.1999 H   0  0  0  0  0  0  0  0  0  0  0  0
   52.2896  160.8458   30.4950 H   0  0  0  0  0  0  0  0  0  0  0  0
   53.1785  158.8503   29.3120 H   0  0  0  0  0  0  0  0  0  0  0  0
   53.5404  157.2284   25.2956 H   0  0  0  0  0  0  0  0  0  0  0  0
   54.4818  155.4736   23.7901 H   0  0  0  0  0  0  0  0  0  0  0  0
   54.3945  153.0710   24.4626 H   0  0  0  0  0  0  0  0  0  0  0  0
   54.1500  151.6230   26.4780 H   0  0  0  0  0  0  0  0  0  0  0  0
   51.6750  154.5060   31.1760 H   0  0  0  0  0  0  0  0  0  0  0  0
   49.4215  156.8212   29.9152 H   0  0  0  0  0  0  0  0  0  0  0  0
   48.1357  158.7634   32.3510 H   0  0  0  0  0  0  0  0  0  0  0  0
   47.5667  159.6374   30.8884 H   0  0  0  0  0  0  0  0  0  0  0  0
   47.6454  157.8429   30.8884 H   0  0  0  0  0  0  0  0  0  0  0  0
  1  2  2  0
  2  3  1  0
  2  4  1  0
  4  5  2  0
  5  6  1  0
  6  7  2  0
  7  8  1  0
  8  9  1  0
  9 10  1  0
 10 11  2  0
 11 12  1  0
 12 13  2  0
 13 14  1  0
 14 15  1  0
 14 16  2  0
 16 17  1  0
 17 18  2  0
 17 19  1  0
 19 20  1  0
  7 21  1  0
 21 22  2  0
 22 23  1  0
 22  4  1  0
 19  8  2  0
 16 10  1  0
  1 24  1  0
  1 25  1  0
  5 26  1  0
  6 27  1  0
 11 28  1  0
 12 29  1  0
 13 30  1  0
 15 31  1  0
 20 32  1  0
 21 33  1  0
 23 34  1  0
 23 35  1  0
 23 36  1  0
M  END
>  <meeko>  (1) 
{"is_sidechain": [false], "free_energy": -11.786, "intermolecular_energy": -13.853, "internal_energy": -0.263}

$$$$
cand_015_out
     RDKit          3D

 36 38  0  0  0  0  0  0  0  0999 V2000
   49.1070  160.6560   33.1300 C   0  0  0  0  0  0  0  0  0  0  0  0
   49.1560  160.6220   31.7940 C   0  0  0  0  0  0  0  0  0  0  0  0
   48.5350  161.6120   31.1140 F   0  0  0  0  0  0  0  0  0  0  0  0
   49.8090  159.5610   31.0080 C   0  0  0  0  0  0  0  0  0  0  0  0
   49.1400  158.3430   30.7940 C   0  0  0  0  0  0  0  0  0  0  0  0
   49.7390  157.3030   30.0750 C   0  0  0  0  0  0  0  0  0  0  0  0
   51.0250  157.4480   29.5490 C   0  0  0  0  0  0  0  0  0  0  0  0
   51.6930  156.3540   28.8120 C   0  0  0  0  0  0  0  0  0  0  0  0
   52.2330  156.7690   27.6000 O   0  0  0  0  0  0  0  0  0  0  0  0
   52.8820  155.8510   26.8150 C   0  0  0  0  0  0  0  0  0  0  0  0
   53.4220  156.3150   25.6140 C   0  0  0  0  0  0  0  0  0  0  0  0
   54.0940  155.4310   24.7660 C   0  0  0  0  0  0  0  0  0  0  0  0
   54.2260  154.0870   25.1180 C   0  0  0  0  0  0  0  0  0  0  0  0
   53.6880  153.6280   26.3170 C   0  0  0  0  0  0  0  0  0  0  0  0
   53.8530  152.3000   26.6010 O   0  0  0  0  0  0  0  0  0  0  0  0
   53.0150  154.5120   27.1660 C   0  0  0  0  0  0  0  0  0  0  0  0
   52.4350  154.0700   28.4350 C   0  0  0  0  0  0  0  0  0  0  0  0
   52.5030  152.9020   28.8110 O   0  0  0  0  0  0  0  0  0  0  0  0
   51.7490  155.0880   29.2640 C   0  0  0  0  0  0  0  0  0  0  0  0
   51.1920  154.6580   30.4550 O   0  0  0  0  0  0  0  0  0  0  0  0
   51.7030  158.6550   29.7750 C   0  0  0  0  0  0  0  0  0  0  0  0
   51.1110  159.7170   30.4880 C   0  0  0  0  0  0  0  0  0  0  0  0
   51.9050  160.9810   30.6880 C   0  0  0  0  0  0  0  0  0  0  0  0
   49.6001  159.8684   33.7187 H   0  0  0  0  0  0  0  0  0  0  0  0
   48.5736  161.4716   33.6402 H   0  0  0  0  0  0  0  0  0  0  0  0
   48.1268  158.2052   31.1994 H   0  0  0  0  0  0  0  0  0  0  0  0
   49.1916  156.3612   29.9223 H   0  0  0  0  0  0  0  0  0  0  0  0
   53.3186  157.3743   25.3360 H   0  0  0  0  0  0  0  0  0  0  0  0
   54.5198  155.7950   23.8193 H   0  0  0  0  0  0  0  0  0  0  0  0
   54.7543  153.3916   24.4492 H   0  0  0  0  0  0  0  0  0  0  0  0
   54.4640  151.7880   26.1080 H   0  0  0  0  0  0  0  0  0  0  0  0
   51.0580  155.2650   31.1560 H   0  0  0  0  0  0  0  0  0  0  0  0
   52.7245  158.7760   29.3852 H   0  0  0  0  0  0  0  0  0  0  0  0
   52.0250  161.1721   31.7646 H   0  0  0  0  0  0  0  0  0  0  0  0
   52.8955  160.8693   30.2227 H   0  0  0  0  0  0  0  0  0  0  0  0
   51.3744  161.8248   30.2227 H   0  0  0  0  0  0  0  0  0  0  0  0
  1  2  2  0
  2  3  1  0
  2  4  1  0
  4  5  2  0
  5  6  1  0
  6  7  2  0
  7  8  1  0
  8  9  1  0
  9 10  1  0
 10 11  2  0
 11 12  1  0
 12 13  2  0
 13 14  1  0
 14 15  1  0
 14 16  2  0
 16 17  1  0
 17 18  2  0
 17 19  1  0
 19 20  1  0
  7 21  1  0
 21 22  2  0
 22 23  1  0
 22  4  1  0
 19  8  2  0
 16 10  1  0
  1 24  1  0
  1 25  1  0
  5 26  1  0
  6 27  1  0
 11 28  1  0
 12 29  1  0
 13 30  1  0
 15 31  1  0
 20 32  1  0
 21 33  1  0
 23 34  1  0
 23 35  1  0
 23 36  1  0
M  END
>  <meeko>  (2) 
{"is_sidechain": [false], "free_energy": -11.567, "intermolecular_energy": -13.546, "internal_energy": -0.312}

$$$$
cand_015_out
     RDKit          3D

 36 38  0  0  0  0  0  0  0  0999 V2000
   51.9600  152.7560   26.2870 C   0  0  0  0  0  0  0  0  0  0  0  0
   52.8070  153.5260   26.9780 C   0  0  0  0  0  0  0  0  0  0  0  0
   54.1080  153.1580   27.0170 F   0  0  0  0  0  0  0  0  0  0  0  0
   52.4180  154.7300   27.7320 C   0  0  0  0  0  0  0  0  0  0  0  0
   51.6930  154.5960   28.9290 C   0  0  0  0  0  0  0  0  0  0  0  0
   51.2830  155.7180   29.6580 C   0  0  0  0  0  0  0  0  0  0  0  0
   51.5850  157.0070   29.2130 C   0  0  0  0  0  0  0  0  0  0  0  0
   51.1370  158.2100   29.9470 C   0  0  0  0  0  0  0  0  0  0  0  0
   49.8150  158.1250   30.3680 O   0  0  0  0  0  0  0  0  0  0  0  0
   49.2710  159.1750   31.0620 C   0  0  0  0  0  0  0  0  0  0  0  0
   47.9450  159.0410   31.4770 C   0  0  0  0  0  0  0  0  0  0  0  0
   47.3300  160.0750   32.1870 C   0  0  0  0  0  0  0  0  0  0  0  0
   48.0390  161.2410   32.4810 C   0  0  0  0  0  0  0  0  0  0  0  0
   49.3620  161.3720   32.0660 C   0  0  0  0  0  0  0  0  0  0  0  0
   49.9980  162.5390   32.3880 O   0  0  0  0  0  0  0  0  0  0  0  0
   49.9770  160.3360   31.3560 C   0  0  0  0  0  0  0  0  0  0  0  0
   51.3650  160.4330   30.9020 C   0  0  0  0  0  0  0  0  0  0  0  0
   52.0530  161.4290   31.1150 O   0  0  0  0  0  0  0  0  0  0  0  0
   51.9250  159.2780   30.1630 C   0  0  0  0  0  0  0  0  0  0  0  0
   53.2340  159.3850   29.7270 O   0  0  0  0  0  0  0  0  0  0  0  0
   52.2930  157.1460   28.0090 C   0  0  0  0  0  0  0  0  0  0  0  0
   52.7220  156.0270   27.2680 C   0  0  0  0  0  0  0  0  0  0  0  0
   53.4770  156.2600   25.9860 C   0  0  0  0  0  0  0  0  0  0  0  0
   50.8942  153.0226   26.2321 H   0  0  0  0  0  0  0  0  0  0  0  0
   52.3290  151.8559   25.7735 H   0  0  0  0  0  0  0  0  0  0  0  0
   51.4434  153.5907   29.2994 H   0  0  0  0  0  0  0  0  0  0  0  0
   50.7168  155.5833   30.5914 H   0  0  0  0  0  0  0  0  0  0  0  0
   47.3853  158.1228   31.2454 H   0  0  0  0  0  0  0  0  0  0  0  0
   46.2853  159.9702   32.5150 H   0  0  0  0  0  0  0  0  0  0  0  0
   47.5536  162.0549   33.0395 H   0  0  0  0  0  0  0  0  0  0  0  0
   49.5290  163.3500   32.3650 H   0  0  0  0  0  0  0  0  0  0  0  0
   53.4130  159.6050   28.8340 H   0  0  0  0  0  0  0  0  0  0  0  0
   52.5189  158.1551   27.6341 H   0  0  0  0  0  0  0  0  0  0  0  0
   54.5044  156.5771   26.2180 H   0  0  0  0  0  0  0  0  0  0  0  0
   53.5039  155.3283   25.4018 H   0  0  0  0  0  0  0  0  0  0  0  0
   52.9742  157.0448   25.4018 H   0  0  0  0  0  0  0  0  0  0  0  0
  1  2  2  0
  2  3  1  0
  2  4  1  0
  4  5  2  0
  5  6  1  0
  6  7  2  0
  7  8  1  0
  8  9  1  0
  9 10  1  0
 10 11  2  0
 11 12  1  0
 12 13  2  0
 13 14  1  0
 14 15  1  0
 14 16  2  0
 16 17  1  0
 17 18  2  0
 17 19  1  0
 19 20  1  0
  7 21  1  0
 21 22  2  0
 22 23  1  0
 22  4  1  0
 19  8  2  0
 16 10  1  0
  1 24  1  0
  1 25  1  0
  5 26  1  0
  6 27  1  0
 11 28  1  0
 12 29  1  0
 13 30  1  0
 15 31  1  0
 20 32  1  0
 21 33  1  0
 23 34  1  0
 23 35  1  0
 23 36  1  0
M  END
>  <meeko>  (3) 
{"is_sidechain": [false], "free_energy": -10.841, "intermolecular_energy": -12.763, "internal_energy": -0.243}

$$$$
cand_015_out
     RDKit          3D

 36 38  0  0  0  0  0  0  0  0999 V2000
   53.0040  153.7990   25.0980 C   0  0  0  0  0  0  0  0  0  0  0  0
   53.2300  153.9220   26.4110 C   0  0  0  0  0  0  0  0  0  0  0  0
   53.9670  152.9640   27.0160 F   0  0  0  0  0  0  0  0  0  0  0  0
   52.7010  155.0090   27.2530 C   0  0  0  0  0  0  0  0  0  0  0  0
   52.9850  156.3450   26.9200 C   0  0  0  0  0  0  0  0  0  0  0  0
   52.5240  157.4030   27.7110 C   0  0  0  0  0  0  0  0  0  0  0  0
   51.7650  157.1580   28.8580 C   0  0  0  0  0  0  0  0  0  0  0  0
   51.2910  158.2550   29.7280 C   0  0  0  0  0  0  0  0  0  0  0  0
   49.9560  158.1200   30.0900 O   0  0  0  0  0  0  0  0  0  0  0  0
   49.3880  159.0720   30.8980 C   0  0  0  0  0  0  0  0  0  0  0  0
   48.0490  158.8880   31.2490 C   0  0  0  0  0  0  0  0  0  0  0  0
   47.4100  159.8230   32.0670 C   0  0  0  0  0  0  0  0  0  0  0  0
   48.1070  160.9390   32.5330 C   0  0  0  0  0  0  0  0  0  0  0  0
   49.4420  161.1190   32.1810 C   0  0  0  0  0  0  0  0  0  0  0  0
   50.0660  162.2330   32.6720 O   0  0  0  0  0  0  0  0  0  0  0  0
   50.0820  160.1830   31.3630 C   0  0  0  0  0  0  0  0  0  0  0  0
   51.4840  160.3350   30.9700 C   0  0  0  0  0  0  0  0  0  0  0  0
   52.1630  161.2940   31.3330 O   0  0  0  0  0  0  0  0  0  0  0  0
   52.0700  159.2850   30.1060 C   0  0  0  0  0  0  0  0  0  0  0  0
   53.3920  159.4440   29.7300 O   0  0  0  0  0  0  0  0  0  0  0  0
   51.4940  155.8250   29.2030 C   0  0  0  0  0  0  0  0  0  0  0  0
   51.9430  154.7480   28.4130 C   0  0  0  0  0  0  0  0  0  0  0  0
   51.6100  153.3460   28.8520 C   0  0  0  0  0  0  0  0  0  0  0  0
   52.4088  154.5578   24.5689 H   0  0  0  0  0  0  0  0  0  0  0  0
   53.4134  152.9391   24.5476 H   0  0  0  0  0  0  0  0  0  0  0  0
   53.5806  156.5625   26.0211 H   0  0  0  0  0  0  0  0  0  0  0  0
   52.7617  158.4387   27.4267 H   0  0  0  0  0  0  0  0  0  0  0  0
   47.4987  158.0090   30.8823 H   0  0  0  0  0  0  0  0  0  0  0  0
   46.3553  159.6794   32.3445 H   0  0  0  0  0  0  0  0  0  0  0  0
   47.6027  161.6746   33.1769 H   0  0  0  0  0  0  0  0  0  0  0  0
   50.7810  162.6150   32.2030 H   0  0  0  0  0  0  0  0  0  0  0  0
   53.9610  159.9870   30.2390 H   0  0  0  0  0  0  0  0  0  0  0  0
   50.9155  155.6152   30.1147 H   0  0  0  0  0  0  0  0  0  0  0  0
   51.5988  153.2988   29.9509 H   0  0  0  0  0  0  0  0  0  0  0  0
   50.6202  153.0653   28.4628 H   0  0  0  0  0  0  0  0  0  0  0  0
   52.3679  152.6502   28.4628 H   0  0  0  0  0  0  0  0  0  0  0  0
  1  2  2  0
  2  3  1  0
  2  4  1  0
  4  5  2  0
  5  6  1  0
  6  7  2  0
  7  8  1  0
  8  9  1  0
  9 10  1  0
 10 11  2  0
 11 12  1  0
 12 13  2  0
 13 14  1  0
 14 15  1  0
 14 16  2  0
 16 17  1  0
 17 18  2  0
 17 19  1  0
 19 20  1  0
  7 21  1  0
 21 22  2  0
 22 23  1  0
 22  4  1  0
 19  8  2  0
 16 10  1  0
  1 24  1  0
  1 25  1  0
  5 26  1  0
  6 27  1  0
 11 28  1  0
 12 29  1  0
 13 30  1  0
 15 31  1  0
 20 32  1  0
 21 33  1  0
 23 34  1  0
 23 35  1  0
 23 36  1  0
M  END
>  <meeko>  (4) 
{"is_sidechain": [false], "free_energy": -10.217, "intermolecular_energy": -12.145, "internal_energy": -0.127}

$$$$
cand_015_out
     RDKit          3D

 36 38  0  0  0  0  0  0  0  0999 V2000
   52.6240  152.0470   25.3340 C   0  0  0  0  0  0  0  0  0  0  0  0
   53.3760  152.6510   26.2610 C   0  0  0  0  0  0  0  0  0  0  0  0
   54.5770  152.1050   26.5540 F   0  0  0  0  0  0  0  0  0  0  0  0
   52.9730  153.8520   27.0120 C   0  0  0  0  0  0  0  0  0  0  0  0
   52.3460  153.7110   28.2620 C   0  0  0  0  0  0  0  0  0  0  0  0
   51.9250  154.8280   28.9930 C   0  0  0  0  0  0  0  0  0  0  0  0
   52.1180  156.1200   28.4960 C   0  0  0  0  0  0  0  0  0  0  0  0
   51.6550  157.3150   29.2320 C   0  0  0  0  0  0  0  0  0  0  0  0
   50.3120  157.2460   29.5850 O   0  0  0  0  0  0  0  0  0  0  0  0
   49.7540  158.2920   30.2740 C   0  0  0  0  0  0  0  0  0  0  0  0
   48.4060  158.1740   30.6200 C   0  0  0  0  0  0  0  0  0  0  0  0
   47.7740  159.2050   31.3200 C   0  0  0  0  0  0  0  0  0  0  0  0
   48.4890  160.3520   31.6730 C   0  0  0  0  0  0  0  0  0  0  0  0
   49.8330  160.4660   31.3270 C   0  0  0  0  0  0  0  0  0  0  0  0
   50.4730  161.6150   31.7040 O   0  0  0  0  0  0  0  0  0  0  0  0
   50.4640  159.4340   30.6270 C   0  0  0  0  0  0  0  0  0  0  0  0
   51.8750  159.5140   30.2430 C   0  0  0  0  0  0  0  0  0  0  0  0
   52.5680  160.4930   30.5110 O   0  0  0  0  0  0  0  0  0  0  0  0
   52.4500  158.3640   29.5090 C   0  0  0  0  0  0  0  0  0  0  0  0
   53.7810  158.4560   29.1400 O   0  0  0  0  0  0  0  0  0  0  0  0
   52.7280  156.2640   27.2400 C   0  0  0  0  0  0  0  0  0  0  0  0
   53.1670  155.1510   26.4960 C   0  0  0  0  0  0  0  0  0  0  0  0
   53.8120  155.3900   25.1560 C   0  0  0  0  0  0  0  0  0  0  0  0
   51.6403  152.4614   25.0682 H   0  0  0  0  0  0  0  0  0  0  0  0
   52.9893  151.1359   24.8375 H   0  0  0  0  0  0  0  0  0  0  0  0
   52.1831  152.7040   28.6735 H   0  0  0  0  0  0  0  0  0  0  0  0
   51.4371  154.6875   29.9688 H   0  0  0  0  0  0  0  0  0  0  0  0
   47.8428  157.2709   30.3419 H   0  0  0  0  0  0  0  0  0  0  0  0
   46.7125  159.1134   31.5934 H   0  0  0  0  0  0  0  0  0  0  0  0
   47.9911  161.1639   32.2234 H   0  0  0  0  0  0  0  0  0  0  0  0
   51.3580  161.7670   31.4370 H   0  0  0  0  0  0  0  0  0  0  0  0
   54.4390  158.0260   29.6500 H   0  0  0  0  0  0  0  0  0  0  0  0
   52.8671  157.2733   26.8253 H   0  0  0  0  0  0  0  0  0  0  0  0
   54.8342  155.7688   25.3034 H   0  0  0  0  0  0  0  0  0  0  0  0
   53.8485  154.4457   24.5930 H   0  0  0  0  0  0  0  0  0  0  0  0
   53.2244  156.1301   24.5930 H   0  0  0  0  0  0  0  0  0  0  0  0
  1  2  2  0
  2  3  1  0
  2  4  1  0
  4  5  2  0
  5  6  1  0
  6  7  2  0
  7  8  1  0
  8  9  1  0
  9 10  1  0
 10 11  2  0
 11 12  1  0
 12 13  2  0
 13 14  1  0
 14 15  1  0
 14 16  2  0
 16 17  1  0
 17 18  2  0
 17 19  1  0
 19 20  1  0
  7 21  1  0
 21 22  2  0
 22 23  1  0
 22  4  1  0
 19  8  2  0
 16 10  1  0
  1 24  1  0
  1 25  1  0
  5 26  1  0
  6 27  1  0
 11 28  1  0
 12 29  1  0
 13 30  1  0
 15 31  1  0
 20 32  1  0
 21 33  1  0
 23 34  1  0
 23 35  1  0
 23 36  1  0
M  END
>  <meeko>  (5) 
{"is_sidechain": [false], "free_energy": -9.42, "intermolecular_energy": -11.054, "internal_energy": -0.281}

$$$$
cand_015_out
     RDKit          3D

 36 38  0  0  0  0  0  0  0  0999 V2000
   53.1190  152.2700   25.2990 C   0  0  0  0  0  0  0  0  0  0  0  0
   53.6980  152.9280   26.3090 C   0  0  0  0  0  0  0  0  0  0  0  0
   54.9450  152.5550   26.6740 F   0  0  0  0  0  0  0  0  0  0  0  0
   53.0590  154.0100   27.0780 C   0  0  0  0  0  0  0  0  0  0  0  0
   52.3480  153.7020   28.2510 C   0  0  0  0  0  0  0  0  0  0  0  0
   51.7060  154.6990   28.9930 C   0  0  0  0  0  0  0  0  0  0  0  0
   51.7530  156.0340   28.5840 C   0  0  0  0  0  0  0  0  0  0  0  0
   51.0570  157.1030   29.3330 C   0  0  0  0  0  0  0  0  0  0  0  0
   51.8860  158.1760   29.6390 O   0  0  0  0  0  0  0  0  0  0  0  0
   51.3660  159.2380   30.3320 C   0  0  0  0  0  0  0  0  0  0  0  0
   52.2300  160.3010   30.6060 C   0  0  0  0  0  0  0  0  0  0  0  0
   51.7650  161.4130   31.3110 C   0  0  0  0  0  0  0  0  0  0  0  0
   50.4380  161.4630   31.7420 C   0  0  0  0  0  0  0  0  0  0  0  0
   49.5780  160.4020   31.4680 C   0  0  0  0  0  0  0  0  0  0  0  0
   48.2920  160.5170   31.9200 O   0  0  0  0  0  0  0  0  0  0  0  0
   50.0440  159.2900   30.7620 C   0  0  0  0  0  0  0  0  0  0  0  0
   49.1740  158.1540   30.4530 C   0  0  0  0  0  0  0  0  0  0  0  0
   47.9970  158.1200   30.8050 O   0  0  0  0  0  0  0  0  0  0  0  0
   49.7640  157.0270   29.6940 C   0  0  0  0  0  0  0  0  0  0  0  0
   48.9370  155.9530   29.4190 O   0  0  0  0  0  0  0  0  0  0  0  0
   52.4460  156.3430   27.4040 C   0  0  0  0  0  0  0  0  0  0  0  0
   53.1070  155.3530   26.6510 C   0  0  0  0  0  0  0  0  0  0  0  0
   53.8290  155.7670   25.3950 C   0  0  0  0  0  0  0  0  0  0  0  0
   52.1049  152.5447   24.9732 H   0  0  0  0  0  0  0  0  0  0  0  0
   53.6568  151.4541   24.7940 H   0  0  0  0  0  0  0  0  0  0  0  0
   52.2955  152.6574   28.5917 H   0  0  0  0  0  0  0  0  0  0  0  0
   51.1585  154.4291   29.9081 H   0  0  0  0  0  0  0  0  0  0  0  0
   53.2756  160.2621   30.2667 H   0  0  0  0  0  0  0  0  0  0  0  0
   52.4448  162.2504   31.5270 H   0  0  0  0  0  0  0  0  0  0  0  0
   50.0720  162.3392   32.2973 H   0  0  0  0  0  0  0  0  0  0  0  0
   48.0480  161.2420   32.4600 H   0  0  0  0  0  0  0  0  0  0  0  0
   48.0690  156.1000   29.0960 H   0  0  0  0  0  0  0  0  0  0  0  0
   52.4739  157.3866   27.0575 H   0  0  0  0  0  0  0  0  0  0  0  0
   54.7547  156.2978   25.6622 H   0  0  0  0  0  0  0  0  0  0  0  0
   54.0765  154.8736   24.8029 H   0  0  0  0  0  0  0  0  0  0  0  0
   53.1829  156.4319   24.8029 H   0  0  0  0  0  0  0  0  0  0  0  0
  1  2  2  0
  2  3  1  0
  2  4  1  0
  4  5  2  0
  5  6  1  0
  6  7  2  0
  7  8  1  0
  8  9  1  0
  9 10  1  0
 10 11  2  0
 11 12  1  0
 12 13  2  0
 13 14  1  0
 14 15  1  0
 14 16  2  0
 16 17  1  0
 17 18  2  0
 17 19  1  0
 19 20  1  0
  7 21  1  0
 21 22  2  0
 22 23  1  0
 22  4  1  0
 19  8  2  0
 16 10  1  0
  1 24  1  0
  1 25  1  0
  5 26  1  0
  6 27  1  0
 11 28  1  0
 12 29  1  0
 13 30  1  0
 15 31  1  0
 20 32  1  0
 21 33  1  0
 23 34  1  0
 23 35  1  0
 23 36  1  0
M  END
>  <meeko>  (6) 
{"is_sidechain": [false], "free_energy": -8.905, "intermolecular_energy": -10.448, "internal_energy": -0.282}

$$$$
