cand_050_out
     RDKit          3D

 38 40  0  0  0  0  0  0  0  0999 V2000
   50.0660  161.2210   33.0400 C   0  0  0  0  0  0  0  0  0  0  0  0
   50.1700  161.4140   31.5330 C   0  0  0  0  0  0  0  0  0  0  0  0
   50.5690  160.1370   30.8250 C   0  0  0  0  0  0  0  0  0  0  0  0
   51.9150  159.9800   30.4510 C   0  0  0  0  0  0  0  0  0  0  0  0
   52.3470  158.8290   29.7860 C   0  0  0  0  0  0  0  0  0  0  0  0
   51.4500  157.8020   29.4790 C   0  0  0  0  0  0  0  0  0  0  0  0
   51.9240  156.6010   28.7590 C   0  0  0  0  0  0  0  0  0  0  0  0
   52.5140  156.9000   27.5360 O   0  0  0  0  0  0  0  0  0  0  0  0
   52.9970  155.8740   26.7650 C   0  0  0  0  0  0  0  0  0  0  0  0
   53.5660  156.2180   25.5380 C   0  0  0  0  0  0  0  0  0  0  0  0
   54.0800  155.2210   24.7050 C   0  0  0  0  0  0  0  0  0  0  0  0
   54.0250  153.8830   25.0990 C   0  0  0  0  0  0  0  0  0  0  0  0
   53.4560  153.5430   26.3230 C   0  0  0  0  0  0  0  0  0  0  0  0
   53.4340  152.2130   26.6460 O   0  0  0  0  0  0  0  0  0  0  0  0
   52.9410  154.5400   27.1570 C   0  0  0  0  0  0  0  0  0  0  0  0
   52.3350  154.2250   28.4500 C   0  0  0  0  0  0  0  0  0  0  0  0
   52.2550  153.0730   28.8710 O   0  0  0  0  0  0  0  0  0  0  0  0
   51.8120  155.3540   29.2540 C   0  0  0  0  0  0  0  0  0  0  0  0
   51.2530  155.0510   30.4810 O   0  0  0  0  0  0  0  0  0  0  0  0
   50.1040  157.9650   29.8380 C   0  0  0  0  0  0  0  0  0  0  0  0
   49.6450  159.1190   30.5080 C   0  0  0  0  0  0  0  0  0  0  0  0
   48.1800  159.2140   30.8780 C   0  0  0  0  0  0  0  0  0  0  0  0
   47.6740  160.4780   30.7910 F   0  0  0  0  0  0  0  0  0  0  0  0
   47.9280  158.8130   32.1560 F   0  0  0  0  0  0  0  0  0  0  0  0
   47.3870  158.4460   30.0800 F   0  0  0  0  0  0  0  0  0  0  0  0
   50.5278  162.0780   33.5522 H   0  0  0  0  0  0  0  0  0  0  0  0
   49.0069  161.1488   33.3282 H   0  0  0  0  0  0  0  0  0  0  0  0
   50.5882  160.2968   33.3282 H   0  0  0  0  0  0  0  0  0  0  0  0
   49.1933  161.7431   31.1487 H   0  0  0  0  0  0  0  0  0  0  0  0
   50.9476  162.1676   31.3394 H   0  0  0  0  0  0  0  0  0  0  0  0
   52.6388  160.7746   30.6851 H   0  0  0  0  0  0  0  0  0  0  0  0
   53.4049  158.7303   29.5010 H   0  0  0  0  0  0  0  0  0  0  0  0
   53.6097  157.2723   25.2272 H   0  0  0  0  0  0  0  0  0  0  0  0
   54.5286  155.4908   23.7375 H   0  0  0  0  0  0  0  0  0  0  0  0
   54.4307  153.0985   24.4432 H   0  0  0  0  0  0  0  0  0  0  0  0
   53.6500  151.5710   26.0000 H   0  0  0  0  0  0  0  0  0  0  0  0
   50.4560  155.4660   30.7480 H   0  0  0  0  0  0  0  0  0  0  0  0
   49.3852  157.1701   29.5901 H   0  0  0  0  0  0  0  0  0  0  0  0
  1  2  1  0
  2  3  1  0
  3  4  2  0
  4  5  1  0
  5  6  2  0
  6  7  1  0
  7  8  1  0
  8  9  1  0
  9 10  2  0
 10 11  1  0
 11 12  2  0
 12 13  1  0
 13 14  1  0
 13 15  2  0
 15 16  1  0
 16 17  2  0
 16 18  1  0
 18 19  1  0
  6 20  1  0
 20 21  2  0
 21 22  1  0
 22 23  1  0
 22 24  1  0
 22 25  1  0
 21  3  1  0
 18  7  2  0
 15  9  1  0
  1 26  1  0
  1 27  1  0
  1 28  1  0
  2 29  1  0
  2 30  1  0
  4 31  1  0
  5 32  1  0
 10 33  1  0
 11 34  1  0
 12 35  1  0
 14 36  1  0
 19 37  1  0
 20 38  1  0
M  END
>  <meeko>  (1) 
{"is_sidechain": [false], "free_energy": -11.51, "intermolecular_energy": -14.201, "internal_energy": -0.346}

$$$$
cand_050_out
     RDKit          3D

 38 40  0  0  0  0  0  0  0  0999 V2000
   47.2170  159.6840   31.5110 C   0  0  0  0  0  0  0  0  0  0  0  0
   48.7090  159.9190   31.6950 C   0  0  0  0  0  0  0  0  0  0  0  0
   49.5400  158.9620   30.8680 C   0  0  0  0  0  0  0  0  0  0  0  0
   48.9810  157.7170   30.5330 C   0  0  0  0  0  0  0  0  0  0  0  0
   49.6980  156.7840   29.7800 C   0  0  0  0  0  0  0  0  0  0  0  0
   50.9930  157.0690   29.3360 C   0  0  0  0  0  0  0  0  0  0  0  0
   51.7420  156.0610   28.5560 C   0  0  0  0  0  0  0  0  0  0  0  0
   52.2800  156.5750   27.3810 O   0  0  0  0  0  0  0  0  0  0  0  0
   52.9990  155.7420   26.5630 C   0  0  0  0  0  0  0  0  0  0  0  0
   53.5070  156.2950   25.3870 C   0  0  0  0  0  0  0  0  0  0  0  0
   54.2520  155.5030   24.5090 C   0  0  0  0  0  0  0  0  0  0  0  0
   54.4880  154.1600   24.8090 C   0  0  0  0  0  0  0  0  0  0  0  0
   53.9800  153.6110   25.9830 C   0  0  0  0  0  0  0  0  0  0  0  0
   54.2480  152.2890   26.2140 O   0  0  0  0  0  0  0  0  0  0  0  0
   53.2340  154.4030   26.8600 C   0  0  0  0  0  0  0  0  0  0  0  0
   52.6820  153.8650   28.1040 C   0  0  0  0  0  0  0  0  0  0  0  0
   52.8520  152.6950   28.4410 O   0  0  0  0  0  0  0  0  0  0  0  0
   51.9000  154.7870   28.9600 C   0  0  0  0  0  0  0  0  0  0  0  0
   51.3930  154.2750   30.1400 O   0  0  0  0  0  0  0  0  0  0  0  0
   51.5590  158.3040   29.6830 C   0  0  0  0  0  0  0  0  0  0  0  0
   50.8540  159.2600   30.4450 C   0  0  0  0  0  0  0  0  0  0  0  0
   51.5250  160.5790   30.7640 C   0  0  0  0  0  0  0  0  0  0  0  0
   51.5920  160.8500   32.1000 F   0  0  0  0  0  0  0  0  0  0  0  0
   50.8850  161.6480   30.2120 F   0  0  0  0  0  0  0  0  0  0  0  0
   52.8090  160.6350   30.3140 F   0  0  0  0  0  0  0  0  0  0  0  0
   46.7336  159.6079   32.4961 H   0  0  0  0  0  0  0  0  0  0  0  0
   46.7797  160.5243   30.9519 H   0  0  0  0  0  0  0  0  0  0  0  0
   47.0591  158.7499   30.9519 H   0  0  0  0  0  0  0  0  0  0  0  0
   48.9464  160.9492   31.3912 H   0  0  0  0  0  0  0  0  0  0  0  0
   48.9512  159.7508   32.7547 H   0  0  0  0  0  0  0  0  0  0  0  0
   47.9624  157.4731   30.8691 H   0  0  0  0  0  0  0  0  0  0  0  0
   49.2391  155.8151   29.5338 H   0  0  0  0  0  0  0  0  0  0  0  0
   53.3213  157.3533   25.1512 H   0  0  0  0  0  0  0  0  0  0  0  0
   54.6525  155.9378   23.5814 H   0  0  0  0  0  0  0  0  0  0  0  0
   55.0747  153.5364   24.1184 H   0  0  0  0  0  0  0  0  0  0  0  0
   53.5660  151.6520   26.1390 H   0  0  0  0  0  0  0  0  0  0  0  0
   51.8400  154.4310   30.9490 H   0  0  0  0  0  0  0  0  0  0  0  0
   52.5823  158.5344   29.3517 H   0  0  0  0  0  0  0  0  0  0  0  0
  1  2  1  0
  2  3  1  0
  3  4  2  0
  4  5  1  0
  5  6  2  0
  6  7  1  0
  7  8  1  0
  8  9  1  0
  9 10  2  0
 10 11  1  0
 11 12  2  0
 12 13  1  0
 13 14  1  0
 13 15  2  0
 15 16  1  0
 16 17  2  0
 16 18  1  0
 18 19  1  0
  6 20  1  0
 20 21  2  0
 21 22  1  0
 22 23  1  0
 22 24  1  0
 22 25  1  0
 21  3  1  0
 18  7  2  0
 15  9  1  0
  1 26  1  0
  1 27  1  0
  1 28  1  0
  2 29  1  0
  2 30  1  0
  4 31  1  0
  5 32  1  0
 10 33  1  0
 11 34  1  0
 12 35  1  0
 14 36  1  0
 19 37  1  0
 20 38  1  0
M  END
>  <meeko>  (2) 
{"is_sidechain": [false], "free_energy": -10.988, "intermolecular_energy": -13.519, "internal_energy": -0.385}

$$$$
cand_050_out
     RDKit          3D

 38 40  0  0  0  0  0  0  0  0999 V2000
   51.8860  152.6390   26.3430 C   0  0  0  0  0  0  0  0  0  0  0  0
   52.9880  153.2640   27.1860 C   0  0  0  0  0  0  0  0  0  0  0  0
   52.5430  154.5590   27.8310 C   0  0  0  0  0  0  0  0  0  0  0  0
   51.8660  154.4890   29.0600 C   0  0  0  0  0  0  0  0  0  0  0  0
   51.4200  155.6470   29.7030 C   0  0  0  0  0  0  0  0  0  0  0  0
   51.6420  156.9070   29.1400 C   0  0  0  0  0  0  0  0  0  0  0  0
   51.1470  158.1180   29.8280 C   0  0  0  0  0  0  0  0  0  0  0  0
   49.8160  158.0140   30.2190 O   0  0  0  0  0  0  0  0  0  0  0  0
   49.2320  159.0710   30.8680 C   0  0  0  0  0  0  0  0  0  0  0  0
   47.8910  158.9290   31.2290 C   0  0  0  0  0  0  0  0  0  0  0  0
   47.2360  159.9670   31.8960 C   0  0  0  0  0  0  0  0  0  0  0  0
   47.9210  161.1440   32.2020 C   0  0  0  0  0  0  0  0  0  0  0  0
   49.2590  161.2830   31.8410 C   0  0  0  0  0  0  0  0  0  0  0  0
   49.8690  162.4630   32.1710 O   0  0  0  0  0  0  0  0  0  0  0  0
   49.9140  160.2450   31.1730 C   0  0  0  0  0  0  0  0  0  0  0  0
   51.3180  160.3500   30.7760 C   0  0  0  0  0  0  0  0  0  0  0  0
   51.9910  161.3510   31.0150 O   0  0  0  0  0  0  0  0  0  0  0  0
   51.9170  159.1960   30.0660 C   0  0  0  0  0  0  0  0  0  0  0  0
   53.2480  159.2980   29.7060 O   0  0  0  0  0  0  0  0  0  0  0  0
   52.3040  156.9770   27.9060 C   0  0  0  0  0  0  0  0  0  0  0  0
   52.7600  155.8210   27.2370 C   0  0  0  0  0  0  0  0  0  0  0  0
   53.4830  155.9790   25.9170 C   0  0  0  0  0  0  0  0  0  0  0  0
   54.3640  154.9710   25.6510 F   0  0  0  0  0  0  0  0  0  0  0  0
   54.2150  157.1260   25.8450 F   0  0  0  0  0  0  0  0  0  0  0  0
   52.6310  156.0100   24.8540 F   0  0  0  0  0  0  0  0  0  0  0  0
   51.1207  152.2050   27.0033 H   0  0  0  0  0  0  0  0  0  0  0  0
   51.4273  153.4114   25.7082 H   0  0  0  0  0  0  0  0  0  0  0  0
   52.3134  151.8489   25.7082 H   0  0  0  0  0  0  0  0  0  0  0  0
   53.2766  152.5547   27.9757 H   0  0  0  0  0  0  0  0  0  0  0  0
   53.8368  153.4886   26.5233 H   0  0  0  0  0  0  0  0  0  0  0  0
   51.6842  153.5080   29.5232 H   0  0  0  0  0  0  0  0  0  0  0  0
   50.8884  155.5660   30.6626 H   0  0  0  0  0  0  0  0  0  0  0  0
   47.3510  158.0013   30.9886 H   0  0  0  0  0  0  0  0  0  0  0  0
   46.1791  159.8567   32.1804 H   0  0  0  0  0  0  0  0  0  0  0  0
   47.4047  161.9608   32.7276 H   0  0  0  0  0  0  0  0  0  0  0  0
   49.4320  163.0760   32.7280 H   0  0  0  0  0  0  0  0  0  0  0  0
   53.7990  159.9310   30.1220 H   0  0  0  0  0  0  0  0  0  0  0  0
   52.4729  157.9618   27.4458 H   0  0  0  0  0  0  0  0  0  0  0  0
  1  2  1  0
  2  3  1  0
  3  4  2  0
  4  5  1  0
  5  6  2  0
  6  7  1  0
  7  8  1  0
  8  9  1  0
  9 10  2  0
 10 11  1  0
 11 12  2  0
 12 13  1  0
 13 14  1  0
 13 15  2  0
 15 16  1  0
 16 17  2  0
 16 18  1  0
 18 19  1  0
  6 20  1  0
 20 21  2  0
 21 22  1  0
 22 23  1  0
 22 24  1  0
 22 25  1  0
 21  3  1  0
 18  7  2  0
 15  9  1  0
  1 26  1  0
  1 27  1  0
  1 28  1  0
  2 29  1  0
  2 30  1  0
  4 31  1  0
  5 32  1  0
 10 33  1  0
 11 34  1  0
 12 35  1  0
 14 36  1  0
 19 37  1  0
 20 38  1  0
M  END
>  <meeko>  (3) 
{"is_sidechain": [false], "free_energy": -10.86, "intermolecular_energy": -13.533, "internal_energy": -0.212}

$$$$
cand_050_out
     RDKit          3D

 38 40  0  0  0  0  0  0  0  0999 V2000
   52.8870  154.5510   24.8860 C   0  0  0  0  0  0  0  0  0  0  0  0
   53.4000  154.3830   26.3090 C   0  0  0  0  0  0  0  0  0  0  0  0
   52.8030  155.4060   27.2510 C   0  0  0  0  0  0  0  0  0  0  0  0
   52.9670  156.7670   26.9420 C   0  0  0  0  0  0  0  0  0  0  0  0
   52.4490  157.7620   27.7750 C   0  0  0  0  0  0  0  0  0  0  0  0
   51.7490  157.4270   28.9380 C   0  0  0  0  0  0  0  0  0  0  0  0
   51.2240  158.4950   29.8150 C   0  0  0  0  0  0  0  0  0  0  0  0
   49.8950  158.2980   30.1740 O   0  0  0  0  0  0  0  0  0  0  0  0
   49.2860  159.2190   30.9870 C   0  0  0  0  0  0  0  0  0  0  0  0
   47.9480  158.9900   31.3110 C   0  0  0  0  0  0  0  0  0  0  0  0
   47.2670  159.8880   32.1370 C   0  0  0  0  0  0  0  0  0  0  0  0
   47.9250  161.0120   32.6390 C   0  0  0  0  0  0  0  0  0  0  0  0
   49.2600  161.2390   32.3140 C   0  0  0  0  0  0  0  0  0  0  0  0
   49.8420  162.3600   32.8400 O   0  0  0  0  0  0  0  0  0  0  0  0
   49.9400  160.3410   31.4870 C   0  0  0  0  0  0  0  0  0  0  0  0
   51.3430  160.5410   31.1220 C   0  0  0  0  0  0  0  0  0  0  0  0
   51.9920  161.5030   31.5290 O   0  0  0  0  0  0  0  0  0  0  0  0
   51.9690  159.5350   30.2330 C   0  0  0  0  0  0  0  0  0  0  0  0
   53.2980  159.7250   29.9030 O   0  0  0  0  0  0  0  0  0  0  0  0
   51.5980  156.0700   29.2570 C   0  0  0  0  0  0  0  0  0  0  0  0
   52.1150  155.0480   28.4310 C   0  0  0  0  0  0  0  0  0  0  0  0
   51.8970  153.6050   28.8320 C   0  0  0  0  0  0  0  0  0  0  0  0
   53.0480  152.8750   28.9000 F   0  0  0  0  0  0  0  0  0  0  0  0
   51.0920  152.9280   27.9650 F   0  0  0  0  0  0  0  0  0  0  0  0
   51.3140  153.4840   30.0580 F   0  0  0  0  0  0  0  0  0  0  0  0
   51.8419  154.8932   24.9110 H   0  0  0  0  0  0  0  0  0  0  0  0
   53.5037  155.2941   24.3593 H   0  0  0  0  0  0  0  0  0  0  0  0
   52.9446  153.5870   24.3593 H   0  0  0  0  0  0  0  0  0  0  0  0
   53.1366  153.3761   26.6650 H   0  0  0  0  0  0  0  0  0  0  0  0
   54.4903  154.5279   26.2966 H   0  0  0  0  0  0  0  0  0  0  0  0
   53.5116  157.0535   26.0302 H   0  0  0  0  0  0  0  0  0  0  0  0
   52.5935  158.8205   27.5129 H   0  0  0  0  0  0  0  0  0  0  0  0
   47.4300  158.1034   30.9165 H   0  0  0  0  0  0  0  0  0  0  0  0
   46.2120  159.7091   32.3917 H   0  0  0  0  0  0  0  0  0  0  0  0
   47.3895  161.7179   33.2908 H   0  0  0  0  0  0  0  0  0  0  0  0
   50.3790  162.9050   32.3010 H   0  0  0  0  0  0  0  0  0  0  0  0
   53.5250  160.2180   29.1400 H   0  0  0  0  0  0  0  0  0  0  0  0
   51.0616  155.7937   30.1768 H   0  0  0  0  0  0  0  0  0  0  0  0
  1  2  1  0
  2  3  1  0
  3  4  2  0
  4  5  1  0
  5  6  2  0
  6  7  1  0
  7  8  1  0
  8  9  1  0
  9 10  2  0
 10 11  1  0
 11 12  2  0
 12 13  1  0
 13 14  1  0
 13 15  2  0
 15 16  1  0
 16 17  2  0
 16 18  1  0
 18 19  1  0
  6 20  1  0
 20 21  2  0
 21 22  1  0
 22 23  1  0
 22 24  1  0
 22 25  1  0
 21  3  1  0
 18  7  2  0
 15  9  1  0
  1 26  1  0
  1 27  1  0
  1 28  1  0
  2 29  1  0
  2 30  1  0
  4 31  1  0
  5 32  1  0
 10 33  1  0
 11 34  1  0
 12 35  1  0
 14 36  1  0
 19 37  1  0
 20 38  1  0
M  END
>  <meeko>  (4) 
{"is_sidechain": [false], "free_energy": -9.556, "intermolecular_energy": -11.747, "internal_energy": -0.39}

$$$$
cand_050_out
     RDKit          3D

 38 40  0  0  0  0  0  0  0  0999 V2000
   52.7960  152.0800   25.7030 C   0  0  0  0  0  0  0  0  0  0  0  0
   53.7360  152.8120   26.6500 C   0  0  0  0  0  0  0  0  0  0  0  0
   53.0580  153.9850   27.3260 C   0  0  0  0  0  0  0  0  0  0  0  0
   52.4630  153.7730   28.5810 C   0  0  0  0  0  0  0  0  0  0  0  0
   51.8140  154.8110   29.2540 C   0  0  0  0  0  0  0  0  0  0  0  0
   51.7440  156.0910   28.6960 C   0  0  0  0  0  0  0  0  0  0  0  0
   51.0360  157.1710   29.4160 C   0  0  0  0  0  0  0  0  0  0  0  0
   51.8550  158.2580   29.7030 O   0  0  0  0  0  0  0  0  0  0  0  0
   51.3220  159.3300   30.3710 C   0  0  0  0  0  0  0  0  0  0  0  0
   52.1820  160.3920   30.6520 C   0  0  0  0  0  0  0  0  0  0  0  0
   51.7020  161.5170   31.3270 C   0  0  0  0  0  0  0  0  0  0  0  0
   50.3640  161.5790   31.7200 C   0  0  0  0  0  0  0  0  0  0  0  0
   49.5080  160.5180   31.4390 C   0  0  0  0  0  0  0  0  0  0  0  0
   48.2100  160.6450   31.8530 O   0  0  0  0  0  0  0  0  0  0  0  0
   49.9880  159.3920   30.7640 C   0  0  0  0  0  0  0  0  0  0  0  0
   49.1220  158.2560   30.4490 C   0  0  0  0  0  0  0  0  0  0  0  0
   47.9320  158.2380   30.7550 O   0  0  0  0  0  0  0  0  0  0  0  0
   49.7310  157.1080   29.7380 C   0  0  0  0  0  0  0  0  0  0  0  0
   48.9030  156.0440   29.4320 O   0  0  0  0  0  0  0  0  0  0  0  0
   52.3240  156.3000   27.4360 C   0  0  0  0  0  0  0  0  0  0  0  0
   52.9820  155.2660   26.7370 C   0  0  0  0  0  0  0  0  0  0  0  0
   53.5990  155.5730   25.3900 C   0  0  0  0  0  0  0  0  0  0  0  0
   54.8660  155.0870   25.2430 F   0  0  0  0  0  0  0  0  0  0  0  0
   53.6970  156.9100   25.1430 F   0  0  0  0  0  0  0  0  0  0  0  0
   52.8850  155.0510   24.3540 F   0  0  0  0  0  0  0  0  0  0  0  0
   52.0604  151.5072   26.2867 H   0  0  0  0  0  0  0  0  0  0  0  0
   52.2723  152.8105   25.0689 H   0  0  0  0  0  0  0  0  0  0  0  0
   53.3759  151.3933   25.0689 H   0  0  0  0  0  0  0  0  0  0  0  0
   54.0818  152.1085   27.4217 H   0  0  0  0  0  0  0  0  0  0  0  0
   54.5792  153.2003   26.0598 H   0  0  0  0  0  0  0  0  0  0  0  0
   52.5089  152.7746   29.0406 H   0  0  0  0  0  0  0  0  0  0  0  0
   51.3528  154.6191   30.2340 H   0  0  0  0  0  0  0  0  0  0  0  0
   53.2365  160.3436   30.3425 H   0  0  0  0  0  0  0  0  0  0  0  0
   52.3792  162.3549   31.5490 H   0  0  0  0  0  0  0  0  0  0  0  0
   49.9866  162.4653   32.2511 H   0  0  0  0  0  0  0  0  0  0  0  0
   47.5860  159.9780   31.6490 H   0  0  0  0  0  0  0  0  0  0  0  0
   48.8670  155.7160   28.5550 H   0  0  0  0  0  0  0  0  0  0  0  0
   52.2641  157.2991   26.9796 H   0  0  0  0  0  0  0  0  0  0  0  0
  1  2  1  0
  2  3  1  0
  3  4  2  0
  4  5  1  0
  5  6  2  0
  6  7  1  0
  7  8  1  0
  8  9  1  0
  9 10  2  0
 10 11  1  0
 11 12  2  0
 12 13  1  0
 13 14  1  0
 13 15  2  0
 15 16  1  0
 16 17  2  0
 16 18  1  0
 18 19  1  0
  6 20  1  0
 20 21  2  0
 21 22  1  0
 22 23  1  0
 22 24  1  0
 22 25  1  0
 21  3  1  0
 18  7  2  0
 15  9  1  0
  1 26  1  0
  1 27  1  0
  1 28  1  0
  2 29  1  0
  2 30  1  0
  4 31  1  0
  5 32  1  0
 10 33  1  0
 11 34  1  0
 12 35  1  0
 14 36  1  0
 19 37  1  0
 20 38  1  0
M  END
>  <meeko>  (5) 
{"is_sidechain": [false], "free_energy": -9.267, "intermolecular_energy": -11.306, "internal_energy": -0.473}

$$$$
