cand_046_out
     RDKit          3D

 39 41  0  0  0  0  0  0  0  0999 V2000
   47.2770  159.6540   30.8920 C   0  0  0  0  0  0  0  0  0  0  0  0
   48.2520  158.8510   31.3370 C   0  0  0  0  0  0  0  0  0  0  0  0
   49.6260  158.8870   30.8170 C   0  0  0  0  0  0  0  0  0  0  0  0
   50.1100  157.7840   30.0900 C   0  0  0  0  0  0  0  0  0  0  0  0
   51.3990  157.7720   29.5370 C   0  0  0  0  0  0  0  0  0  0  0  0
   51.8760  156.5780   28.8060 C   0  0  0  0  0  0  0  0  0  0  0  0
   52.4550  156.8900   27.5820 O   0  0  0  0  0  0  0  0  0  0  0  0
   52.9430  155.8740   26.8010 C   0  0  0  0  0  0  0  0  0  0  0  0
   53.5040  156.2310   25.5740 C   0  0  0  0  0  0  0  0  0  0  0  0
   54.0210  155.2450   24.7300 C   0  0  0  0  0  0  0  0  0  0  0  0
   53.9780  153.9030   25.1150 C   0  0  0  0  0  0  0  0  0  0  0  0
   53.4180  153.5490   26.3400 C   0  0  0  0  0  0  0  0  0  0  0  0
   53.4080  152.2170   26.6530 O   0  0  0  0  0  0  0  0  0  0  0  0
   52.9000  154.5370   27.1820 C   0  0  0  0  0  0  0  0  0  0  0  0
   52.3030  154.2080   28.4780 C   0  0  0  0  0  0  0  0  0  0  0  0
   52.2340  153.0510   28.8880 O   0  0  0  0  0  0  0  0  0  0  0  0
   51.7770  155.3260   29.2930 C   0  0  0  0  0  0  0  0  0  0  0  0
   51.2280  155.0070   30.5210 O   0  0  0  0  0  0  0  0  0  0  0  0
   52.2150  158.8910   29.7290 C   0  0  0  0  0  0  0  0  0  0  0  0
   51.7470  159.9980   30.4400 C   0  0  0  0  0  0  0  0  0  0  0  0
   50.4540  160.0140   30.9920 C   0  0  0  0  0  0  0  0  0  0  0  0
   50.0110  161.2500   31.7420 C   0  0  0  0  0  0  0  0  0  0  0  0
   49.9640  161.0180   33.2450 C   0  0  0  0  0  0  0  0  0  0  0  0
   46.2663  159.5812   31.3200 H   0  0  0  0  0  0  0  0  0  0  0  0
   47.4869  160.3863   30.0985 H   0  0  0  0  0  0  0  0  0  0  0  0
   48.0125  158.1286   32.1312 H   0  0  0  0  0  0  0  0  0  0  0  0
   49.4601  156.9074   29.9515 H   0  0  0  0  0  0  0  0  0  0  0  0
   53.5391  157.2880   25.2716 H   0  0  0  0  0  0  0  0  0  0  0  0
   54.4620  155.5256   23.7621 H   0  0  0  0  0  0  0  0  0  0  0  0
   54.3861  153.1265   24.4513 H   0  0  0  0  0  0  0  0  0  0  0  0
   53.9490  151.8950   27.3450 H   0  0  0  0  0  0  0  0  0  0  0  0
   50.8520  154.1590   30.6590 H   0  0  0  0  0  0  0  0  0  0  0  0
   53.2346  158.8994   29.3163 H   0  0  0  0  0  0  0  0  0  0  0  0
   52.4013  160.8726   30.5705 H   0  0  0  0  0  0  0  0  0  0  0  0
   50.7175  162.0661   31.5305 H   0  0  0  0  0  0  0  0  0  0  0  0
   48.9954  161.5060   31.4056 H   0  0  0  0  0  0  0  0  0  0  0  0
   50.1561  161.9662   33.7685 H   0  0  0  0  0  0  0  0  0  0  0  0
   48.9707  160.6384   33.5265 H   0  0  0  0  0  0  0  0  0  0  0  0
   50.7312  160.2817   33.5265 H   0  0  0  0  0  0  0  0  0  0  0  0
  1  2  2  0
  2  3  1  0
  3  4  2  0
  4  5  1  0
  5  6  1  0
  6  7  1  0
  7  8  1  0
  8  9  2  0
  9 10  1  0
 10 11  2  0
 11 12  1  0
 12 13  1  0
 12 14  2  0
 14 15  1  0
 15 16  2  0
 15 17  1  0
 17 18  1  0
  5 19  2  0
 19 20  1  0
 20 21  2  0
 21 22  1  0
 22 23  1  0
 21  3  1  0
 17  6  2  0
 14  8  1  0
  1 24  1  0
  1 25  1  0
  2 26  1  0
  4 27  1  0
  9 28  1  0
 10 29  1  0
 11 30  1  0
 13 31  1  0
 18 32  1  0
 19 33  1  0
 20 34  1  0
 22 35  1  0
 22 36  1  0
 23 37  1  0
 23 38  1  0
 23 39  1  0
M  END
>  <meeko>  (1) 
{"is_sidechain": [false], "free_energy": -11.395, "intermolecular_energy": -14.06, "internal_energy": 0.025}

$$$$
cand_046_out
     RDKit          3D

 39 41  0  0  0  0  0  0  0  0999 V2000
   51.4590  161.4530   31.8770 C   0  0  0  0  0  0  0  0  0  0  0  0
   51.4960  160.8320   30.6910 C   0  0  0  0  0  0  0  0  0  0  0  0
   50.7960  159.5670   30.4220 C   0  0  0  0  0  0  0  0  0  0  0  0
   51.4830  158.5350   29.7560 C   0  0  0  0  0  0  0  0  0  0  0  0
   50.8820  157.2930   29.5010 C   0  0  0  0  0  0  0  0  0  0  0  0
   51.6330  156.2490   28.7720 C   0  0  0  0  0  0  0  0  0  0  0  0
   52.1680  156.7070   27.5730 O   0  0  0  0  0  0  0  0  0  0  0  0
   52.8920  155.8400   26.7960 C   0  0  0  0  0  0  0  0  0  0  0  0
   53.4000  156.3390   25.5960 C   0  0  0  0  0  0  0  0  0  0  0  0
   54.1470  155.5080   24.7570 C   0  0  0  0  0  0  0  0  0  0  0  0
   54.3880  154.1820   25.1200 C   0  0  0  0  0  0  0  0  0  0  0  0
   53.8810  153.6870   26.3190 C   0  0  0  0  0  0  0  0  0  0  0  0
   54.1540  152.3780   26.6120 O   0  0  0  0  0  0  0  0  0  0  0  0
   53.1320  154.5180   27.1560 C   0  0  0  0  0  0  0  0  0  0  0  0
   52.5800  154.0380   28.4250 C   0  0  0  0  0  0  0  0  0  0  0  0
   52.7540  152.8850   28.8150 O   0  0  0  0  0  0  0  0  0  0  0  0
   51.7960  154.9960   29.2360 C   0  0  0  0  0  0  0  0  0  0  0  0
   51.2910  154.5370   30.4390 O   0  0  0  0  0  0  0  0  0  0  0  0
   49.5630  157.0950   29.9190 C   0  0  0  0  0  0  0  0  0  0  0  0
   48.8690  158.1060   30.5900 C   0  0  0  0  0  0  0  0  0  0  0  0
   49.4710  159.3500   30.8490 C   0  0  0  0  0  0  0  0  0  0  0  0
   48.6640  160.3940   31.5870 C   0  0  0  0  0  0  0  0  0  0  0  0
   47.2250  159.9520   31.8090 C   0  0  0  0  0  0  0  0  0  0  0  0
   52.0030  162.3983   32.0201 H   0  0  0  0  0  0  0  0  0  0  0  0
   50.8846  161.0178   32.7080 H   0  0  0  0  0  0  0  0  0  0  0  0
   52.0785  161.2906   29.8783 H   0  0  0  0  0  0  0  0  0  0  0  0
   52.5184  158.7066   29.4267 H   0  0  0  0  0  0  0  0  0  0  0  0
   53.2127  157.3848   25.3110 H   0  0  0  0  0  0  0  0  0  0  0  0
   54.5456  155.8993   23.8094 H   0  0  0  0  0  0  0  0  0  0  0  0
   54.9776  153.5288   24.4599 H   0  0  0  0  0  0  0  0  0  0  0  0
   54.5870  151.8380   25.9810 H   0  0  0  0  0  0  0  0  0  0  0  0
   51.8110  153.9750   30.9800 H   0  0  0  0  0  0  0  0  0  0  0  0
   49.0663  156.1343   29.7180 H   0  0  0  0  0  0  0  0  0  0  0  0
   47.8355  157.9255   30.9206 H   0  0  0  0  0  0  0  0  0  0  0  0
   49.1331  160.5796   32.5645 H   0  0  0  0  0  0  0  0  0  0  0  0
   48.6477  161.3066   30.9731 H   0  0  0  0  0  0  0  0  0  0  0  0
   47.0229  159.8899   32.8885 H   0  0  0  0  0  0  0  0  0  0  0  0
   46.5422  160.6818   31.3495 H   0  0  0  0  0  0  0  0  0  0  0  0
   47.0696  158.9647   31.3495 H   0  0  0  0  0  0  0  0  0  0  0  0
  1  2  2  0
  2  3  1  0
  3  4  2  0
  4  5  1  0
  5  6  1  0
  6  7  1  0
  7  8  1  0
  8  9  2  0
  9 10  1  0
 10 11  2  0
 11 12  1  0
 12 13  1  0
 12 14  2  0
 14 15  1  0
 15 16  2  0
 15 17  1  0
 17 18  1  0
  5 19  2  0
 19 20  1  0
 20 21  2  0
 21 22  1  0
 22 23  1  0
 21  3  1  0
 17  6  2  0
 14  8  1  0
  1 24  1  0
  1 25  1  0
  2 26  1  0
  4 27  1  0
  9 28  1  0
 10 29  1  0
 11 30  1  0
 13 31  1  0
 18 32  1  0
 19 33  1  0
 20 34  1  0
 22 35  1  0
 22 36  1  0
 23 37  1  0
 23 38  1  0
 23 39  1  0
M  END
>  <meeko>  (2) 
{"is_sidechain": [false], "free_energy": -10.796, "intermolecular_energy": -13.406, "internal_energy": 0.11}

$$$$
cand_046_out
     RDKit          3D

 39 41  0  0  0  0  0  0  0  0999 V2000
   53.0660  156.3070   24.8350 C   0  0  0  0  0  0  0  0  0  0  0  0
   53.6380  156.2670   26.0450 C   0  0  0  0  0  0  0  0  0  0  0  0
   52.8830  156.0380   27.2860 C   0  0  0  0  0  0  0  0  0  0  0  0
   52.3720  157.1460   27.9880 C   0  0  0  0  0  0  0  0  0  0  0  0
   51.6130  156.9930   29.1580 C   0  0  0  0  0  0  0  0  0  0  0  0
   51.1230  158.1870   29.8780 C   0  0  0  0  0  0  0  0  0  0  0  0
   49.7990  158.0670   30.2840 O   0  0  0  0  0  0  0  0  0  0  0  0
   49.2170  159.1040   30.9670 C   0  0  0  0  0  0  0  0  0  0  0  0
   47.8830  158.9460   31.3430 C   0  0  0  0  0  0  0  0  0  0  0  0
   47.2300  159.9640   32.0420 C   0  0  0  0  0  0  0  0  0  0  0  0
   47.9130  161.1370   32.3670 C   0  0  0  0  0  0  0  0  0  0  0  0
   49.2450  161.2930   31.9910 C   0  0  0  0  0  0  0  0  0  0  0  0
   49.8530  162.4680   32.3410 O   0  0  0  0  0  0  0  0  0  0  0  0
   49.8960  160.2740   31.2900 C   0  0  0  0  0  0  0  0  0  0  0  0
   51.2950  160.3970   30.8760 C   0  0  0  0  0  0  0  0  0  0  0  0
   51.9640  161.3970   31.1300 O   0  0  0  0  0  0  0  0  0  0  0  0
   51.8910  159.2640   30.1320 C   0  0  0  0  0  0  0  0  0  0  0  0
   53.2160  159.3830   29.7590 O   0  0  0  0  0  0  0  0  0  0  0  0
   51.3750  155.6990   29.6300 C   0  0  0  0  0  0  0  0  0  0  0  0
   51.8660  154.5880   28.9400 C   0  0  0  0  0  0  0  0  0  0  0  0
   52.6230  154.7390   27.7650 C   0  0  0  0  0  0  0  0  0  0  0  0
   53.1160  153.4920   27.0660 C   0  0  0  0  0  0  0  0  0  0  0  0
   51.9710  152.5790   26.6540 C   0  0  0  0  0  0  0  0  0  0  0  0
   53.6823  156.4821   23.9408 H   0  0  0  0  0  0  0  0  0  0  0  0
   51.9798  156.1647   24.7351 H   0  0  0  0  0  0  0  0  0  0  0  0
   54.7261  156.4126   26.1141 H   0  0  0  0  0  0  0  0  0  0  0  0
   52.5732  158.1589   27.6091 H   0  0  0  0  0  0  0  0  0  0  0  0
   47.3456  158.0204   31.0892 H   0  0  0  0  0  0  0  0  0  0  0  0
   46.1773  159.8411   32.3364 H   0  0  0  0  0  0  0  0  0  0  0  0
   47.3997  161.9377   32.9197 H   0  0  0  0  0  0  0  0  0  0  0  0
   50.7620  162.5980   32.1560 H   0  0  0  0  0  0  0  0  0  0  0  0
   53.8800  159.4800   30.4130 H   0  0  0  0  0  0  0  0  0  0  0  0
   50.7955  155.5541   30.5537 H   0  0  0  0  0  0  0  0  0  0  0  0
   51.6568  153.5781   29.3225 H   0  0  0  0  0  0  0  0  0  0  0  0
   53.6762  153.7871   26.1665 H   0  0  0  0  0  0  0  0  0  0  0  0
   53.7555  152.9386   27.7694 H   0  0  0  0  0  0  0  0  0  0  0  0
   51.4754  152.1838   27.5530 H   0  0  0  0  0  0  0  0  0  0  0  0
   51.2449  153.1487   26.0555 H   0  0  0  0  0  0  0  0  0  0  0  0
   52.3648  151.7443   26.0555 H   0  0  0  0  0  0  0  0  0  0  0  0
  1  2  2  0
  2  3  1  0
  3  4  2  0
  4  5  1  0
  5  6  1  0
  6  7  1  0
  7  8  1  0
  8  9  2  0
  9 10  1  0
 10 11  2  0
 11 12  1  0
 12 13  1  0
 12 14  2  0
 14 15  1  0
 15 16  2  0
 15 17  1  0
 17 18  1  0
  5 19  2  0
 19 20  1  0
 20 21  2  0
 21 22  1  0
 22 23  1  0
 21  3  1  0
 17  6  2  0
 14  8  1  0
  1 24  1  0
  1 25  1  0
  2 26  1  0
  4 27  1  0
  9 28  1  0
 10 29  1  0
 11 30  1  0
 13 31  1  0
 18 32  1  0
 19 33  1  0
 20 34  1  0
 22 35  1  0
 22 36  1  0
 23 37  1  0
 23 38  1  0
 23 39  1  0
M  END
>  <meeko>  (3) 
{"is_sidechain": [false], "free_energy": -10.777, "intermolecular_energy": -12.971, "internal_energy": -0.302}

$$$$
cand_046_out
     RDKit          3D

 39 41  0  0  0  0  0  0  0  0999 V2000
   51.6190  152.5710   28.2600 C   0  0  0  0  0  0  0  0  0  0  0  0
   51.9700  153.5870   29.0580 C   0  0  0  0  0  0  0  0  0  0  0  0
   52.1420  154.9670   28.5780 C   0  0  0  0  0  0  0  0  0  0  0  0
   51.6590  156.0280   29.3650 C   0  0  0  0  0  0  0  0  0  0  0  0
   51.8240  157.3670   28.9800 C   0  0  0  0  0  0  0  0  0  0  0  0
   51.2720  158.4490   29.8240 C   0  0  0  0  0  0  0  0  0  0  0  0
   49.9400  158.2420   30.1640 O   0  0  0  0  0  0  0  0  0  0  0  0
   49.3040  159.1690   30.9480 C   0  0  0  0  0  0  0  0  0  0  0  0
   47.9640  158.9280   31.2530 C   0  0  0  0  0  0  0  0  0  0  0  0
   47.2570  159.8340   32.0490 C   0  0  0  0  0  0  0  0  0  0  0  0
   47.8900  160.9760   32.5400 C   0  0  0  0  0  0  0  0  0  0  0  0
   49.2280  161.2150   32.2340 C   0  0  0  0  0  0  0  0  0  0  0  0
   49.7860  162.3540   32.7470 O   0  0  0  0  0  0  0  0  0  0  0  0
   49.9340  160.3090   31.4370 C   0  0  0  0  0  0  0  0  0  0  0  0
   51.3410  160.5210   31.0910 C   0  0  0  0  0  0  0  0  0  0  0  0
   51.9680  161.5010   31.4900 O   0  0  0  0  0  0  0  0  0  0  0  0
   51.9960  159.5070   30.2360 C   0  0  0  0  0  0  0  0  0  0  0  0
   53.3280  159.7090   29.9270 O   0  0  0  0  0  0  0  0  0  0  0  0
   52.4800  157.6360   27.7760 C   0  0  0  0  0  0  0  0  0  0  0  0
   52.9750  156.5940   26.9870 C   0  0  0  0  0  0  0  0  0  0  0  0
   52.8140  155.2520   27.3730 C   0  0  0  0  0  0  0  0  0  0  0  0
   53.3820  154.1760   26.4750 C   0  0  0  0  0  0  0  0  0  0  0  0
   52.9370  154.3460   25.0300 C   0  0  0  0  0  0  0  0  0  0  0  0
   51.5053  151.5590   28.6758 H   0  0  0  0  0  0  0  0  0  0  0  0
   51.4443  152.7482   27.1885 H   0  0  0  0  0  0  0  0  0  0  0  0
   52.1381  153.3798   30.1252 H   0  0  0  0  0  0  0  0  0  0  0  0
   51.1382  155.8020   30.3072 H   0  0  0  0  0  0  0  0  0  0  0  0
   47.4647  158.0267   30.8678 H   0  0  0  0  0  0  0  0  0  0  0  0
   46.2000  159.6461   32.2885 H   0  0  0  0  0  0  0  0  0  0  0  0
   47.3333  161.6871   33.1681 H   0  0  0  0  0  0  0  0  0  0  0  0
   50.5740  162.3030   33.2500 H   0  0  0  0  0  0  0  0  0  0  0  0
   53.5710  160.3690   29.3080 H   0  0  0  0  0  0  0  0  0  0  0  0
   52.6080  158.6775   27.4461 H   0  0  0  0  0  0  0  0  0  0  0  0
   53.4991  156.8279   26.0486 H   0  0  0  0  0  0  0  0  0  0  0  0
   54.4803  154.2223   26.5162 H   0  0  0  0  0  0  0  0  0  0  0  0
   53.0110  153.2042   26.8327 H   0  0  0  0  0  0  0  0  0  0  0  0
   51.9097  154.7385   25.0065 H   0  0  0  0  0  0  0  0  0  0  0  0
   53.6103  155.0502   24.5194 H   0  0  0  0  0  0  0  0  0  0  0  0
   52.9693  153.3722   24.5194 H   0  0  0  0  0  0  0  0  0  0  0  0
  1  2  2  0
  2  3  1  0
  3  4  2  0
  4  5  1  0
  5  6  1  0
  6  7  1  0
  7  8  1  0
  8  9  2  0
  9 10  1  0
 10 11  2  0
 11 12  1  0
 12 13  1  0
 12 14  2  0
 14 15  1  0
 15 16  2  0
 15 17  1  0
 17 18  1  0
  5 19  2  0
 19 20  1  0
 20 21  2  0
 21 22  1  0
 22 23  1  0
 21  3  1  0
 17  6  2  0
 14  8  1  0
  1 24  1  0
  1 25  1  0
  2 26  1  0
  4 27  1  0
  9 28  1  0
 10 29  1  0
 11 30  1  0
 13 31  1  0
 18 32  1  0
 19 33  1  0
 20 34  1  0
 22 35  1  0
 22 36  1  0
 23 37  1  0
 23 38  1  0
 23 39  1  0
M  END
>  <meeko>  (4) 
{"is_sidechain": [false], "free_energy": -9.791, "intermolecular_energy": -12.174, "internal_energy": 0.118}

$$$$
cand_046_out
     RDKit          3D

 39 41  0  0  0  0  0  0  0  0999 V2000
   53.1800  156.2500   24.7140 C   0  0  0  0  0  0  0  0  0  0  0  0
   53.7400  156.0590   25.9150 C   0  0  0  0  0  0  0  0  0  0  0  0
   52.9720  155.6820   27.1110 C   0  0  0  0  0  0  0  0  0  0  0  0
   52.2770  156.6810   27.8190 C   0  0  0  0  0  0  0  0  0  0  0  0
   51.4980  156.3800   28.9460 C   0  0  0  0  0  0  0  0  0  0  0  0
   50.8110  157.4670   29.6760 C   0  0  0  0  0  0  0  0  0  0  0  0
   51.6530  158.5310   29.9780 O   0  0  0  0  0  0  0  0  0  0  0  0
   51.1420  159.6090   30.6540 C   0  0  0  0  0  0  0  0  0  0  0  0
   52.0260  160.6480   30.9480 C   0  0  0  0  0  0  0  0  0  0  0  0
   51.5700  161.7780   31.6330 C   0  0  0  0  0  0  0  0  0  0  0  0
   50.2320  161.8680   32.0210 C   0  0  0  0  0  0  0  0  0  0  0  0
   49.3520  160.8300   31.7250 C   0  0  0  0  0  0  0  0  0  0  0  0
   48.0560  160.9830   32.1360 O   0  0  0  0  0  0  0  0  0  0  0  0
   49.8100  159.6990   31.0420 C   0  0  0  0  0  0  0  0  0  0  0  0
   48.9180  158.5860   30.7110 C   0  0  0  0  0  0  0  0  0  0  0  0
   47.7270  158.5940   31.0140 O   0  0  0  0  0  0  0  0  0  0  0  0
   49.5020  157.4320   29.9910 C   0  0  0  0  0  0  0  0  0  0  0  0
   48.6490  156.3920   29.6710 O   0  0  0  0  0  0  0  0  0  0  0  0
   51.4280  155.0490   29.3690 C   0  0  0  0  0  0  0  0  0  0  0  0
   52.1030  154.0440   28.6720 C   0  0  0  0  0  0  0  0  0  0  0  0
   52.8810  154.3430   27.5400 C   0  0  0  0  0  0  0  0  0  0  0  0
   53.5780  153.2040   26.8300 C   0  0  0  0  0  0  0  0  0  0  0  0
   52.6710  152.5260   25.8140 C   0  0  0  0  0  0  0  0  0  0  0  0
   53.8055  156.5314   23.8540 H   0  0  0  0  0  0  0  0  0  0  0  0
   52.0944  156.1255   24.5873 H   0  0  0  0  0  0  0  0  0  0  0  0
   54.8278  156.1905   26.0118 H   0  0  0  0  0  0  0  0  0  0  0  0
   52.3467  157.7250   27.4794 H   0  0  0  0  0  0  0  0  0  0  0  0
   53.0800  160.5779   30.6412 H   0  0  0  0  0  0  0  0  0  0  0  0
   52.2661  162.5971   31.8665 H   0  0  0  0  0  0  0  0  0  0  0  0
   49.8733  162.7575   32.5597 H   0  0  0  0  0  0  0  0  0  0  0  0
   47.8030  160.7140   32.9960 H   0  0  0  0  0  0  0  0  0  0  0  0
   48.4890  156.1770   28.7730 H   0  0  0  0  0  0  0  0  0  0  0  0
   50.8357  154.7908   30.2592 H   0  0  0  0  0  0  0  0  0  0  0  0
   52.0244  153.0017   29.0145 H   0  0  0  0  0  0  0  0  0  0  0  0
   54.4627  153.5986   26.3088 H   0  0  0  0  0  0  0  0  0  0  0  0
   53.8619  152.4559   27.5848 H   0  0  0  0  0  0  0  0  0  0  0  0
   51.8977  151.9479   26.3411 H   0  0  0  0  0  0  0  0  0  0  0  0
   52.1920  153.2893   25.1832 H   0  0  0  0  0  0  0  0  0  0  0  0
   53.2675  151.8506   25.1832 H   0  0  0  0  0  0  0  0  0  0  0  0
  1  2  2  0
  2  3  1  0
  3  4  2  0
  4  5  1  0
  5  6  1  0
  6  7  1  0
  7  8  1  0
  8  9  2  0
  9 10  1  0
 10 11  2  0
 11 12  1  0
 12 13  1  0
 12 14  2  0
 14 15  1  0
 15 16  2  0
 15 17  1  0
 17 18  1  0
  5 19  2  0
 19 20  1  0
 20 21  2  0
 21 22  1  0
 22 23  1  0
 21  3  1  0
 17  6  2  0
 14  8  1  0
  1 24  1  0
  1 25  1  0
  2 26  1  0
  4 27  1  0
  9 28  1  0
 10 29  1  0
 11 30  1  0
 13 31  1  0
 18 32  1  0
 19 33  1  0
 20 34  1  0
 22 35  1  0
 22 36  1  0
 23 37  1  0
 23 38  1  0
 23 39  1  0
M  END
>  <meeko>  (5) 
{"is_sidechain": [false], "free_energy": -8.933, "intermolecular_energy": -10.513, "internal_energy": -0.485}

$$$$
