
 OpenBabel09302610443D

 32 34  0  0  0  0  0  0  0  0999 V2000
    1.7648   -1.8497    2.3798 O   0  0  0  0  0  0  0  0  0  0  0  0
    1.4027   -1.1311    1.4507 C   0  0  0  0  0  0  0  0  0  0  0  0
   -0.0374   -0.8788    1.2134 C   0  0  0  0  0  0  0  0  0  0  0  0
   -0.9315   -1.4733    2.0851 O   0  0  0  0  0  0  0  0  0  0  0  0
   -0.3900   -0.0825    0.1869 C   0  0  0  0  0  0  0  0  0  0  0  0
   -1.7945    0.2555   -0.1350 C   0  0  0  0  0  0  0  0  0  0  0  0
   -2.1360    1.5875   -0.4397 C   0  0  0  0  0  0  0  0  0  0  0  0
   -3.4483    1.9367   -0.7708 C   0  0  0  0  0  0  0  0  0  0  0  0
   -4.4211    0.9515   -0.8020 C   0  0  0  0  0  0  0  0  0  0  0  0
   -5.7037    1.2896   -1.1242 O   0  0  0  0  0  0  0  0  0  0  0  0
   -4.1025   -0.3711   -0.5105 C   0  0  0  0  0  0  0  0  0  0  0  0
   -5.1124   -1.2932   -0.5597 O   0  0  0  0  0  0  0  0  0  0  0  0
   -2.7974   -0.7279   -0.1838 C   0  0  0  0  0  0  0  0  0  0  0  0
    0.5218    0.5282   -0.6669 O   0  0  0  0  0  0  0  0  0  0  0  0
    1.8618    0.3072   -0.4770 C   0  0  0  0  0  0  0  0  0  0  0  0
    2.7400    0.9309   -1.3625 C   0  0  0  0  0  0  0  0  0  0  0  0
    4.1117    0.7426   -1.2151 C   0  0  0  0  0  0  0  0  0  0  0  0
    4.9348    1.3707   -2.1021 O   0  0  0  0  0  0  0  0  0  0  0  0
    4.6219   -0.0589   -0.1972 C   0  0  0  0  0  0  0  0  0  0  0  0
    3.7397   -0.6792    0.6843 C   0  0  0  0  0  0  0  0  0  0  0  0
    4.2942   -1.4551    1.6660 O   0  0  0  0  0  0  0  0  0  0  0  0
    2.3602   -0.4963    0.5441 C   0  0  0  0  0  0  0  0  0  0  0  0
   -0.6169   -2.0175    2.7799 H   0  0  0  0  0  0  0  0  0  0  0  0
   -1.4062    2.3168   -0.4182 H   0  0  0  0  0  0  0  0  0  0  0  0
   -3.6892    2.9161   -0.9892 H   0  0  0  0  0  0  0  0  0  0  0  0
   -5.9182    2.1804   -1.3205 H   0  0  0  0  0  0  0  0  0  0  0  0
   -5.9819   -1.0243   -0.7826 H   0  0  0  0  0  0  0  0  0  0  0  0
   -2.5666   -1.7125    0.0222 H   0  0  0  0  0  0  0  0  0  0  0  0
    2.3759    1.5277   -2.1216 H   0  0  0  0  0  0  0  0  0  0  0  0
    4.5717    1.9059   -2.7801 H   0  0  0  0  0  0  0  0  0  0  0  0
    5.6404   -0.1916   -0.0972 H   0  0  0  0  0  0  0  0  0  0  0  0
    5.2250   -1.5478    1.7201 H   0  0  0  0  0  0  0  0  0  0  0  0
  1  2  2  0  0  0  0
  2  3  1  0  0  0  0
  3  4  1  0  0  0  0
  3  5  2  0  0  0  0
  4 23  1  0  0  0  0
  5  6  1  0  0  0  0
  5 14  1  0  0  0  0
  6  7  2  0  0  0  0
  7  8  1  0  0  0  0
  7 24  1  0  0  0  0
  8  9  2  0  0  0  0
  8 25  1  0  0  0  0
  9 10  1  0  0  0  0
  9 11  1  0  0  0  0
 10 26  1  0  0  0  0
 11 12  1  0  0  0  0
 11 13  2  0  0  0  0
 12 27  1  0  0  0  0
 13  6  1  0  0  0  0
 13 28  1  0  0  0  0
 14 15  1  0  0  0  0
 15 16  2  0  0  0  0
 16 17  1  0  0  0  0
 16 29  1  0  0  0  0
 17 18  1  0  0  0  0
 17 19  2  0  0  0  0
 18 30  1  0  0  0  0
 19 20  1  0  0  0  0
 19 31  1  0  0  0  0
 20 21  1  0  0  0  0
 20 22  2  0  0  0  0
 21 32  1  0  0  0  0
 22  2  1  0  0  0  0
 22 15  1  0  0  0  0
M  END
$$$$
