
     RDKit          3D

 32 34  0  0  0  0  0  0  0  0999 V2000
    1.7648   -1.8497    2.3798 O   0  0  0  0  0  0  0  0  0  0  0  0
    1.4027   -1.1311    1.4507 C   0  0  0  0  0  0  0  0  0  0  0  0
   -0.0374   -0.8788    1.2134 C   0  0  0  0  0  0  0  0  0  0  0  0
   -0.9315   -1.4733    2.0851 O   0  0  0  0  0  0  0  0  0  0  0  0
   -0.3900   -0.0825    0.1869 C   0  0  0  0  0  0  0  0  0  0  0  0
   -1.7945    0.2555   -0.1350 C   0  0  0  0  0  0  0  0  0  0  0  0
   -2.1360    1.5875   -0.4397 C   0  0  0  0  0  0  0  0  0  0  0  0
   -3.4483    1.9367   -0.7708 C   0  0  0  0  0  0  0  0  0  0  0  0
   -4.4211    0.9515   -0.8020 C   0  0  0  0  0  0  0  0  0  0  0  0
   -5.7037    1.2896   -1.1242 O   0  0  0  0  0  0  0  0  0  0  0  0
   -4.1025   -0.3711   -0.5105 C   0  0  0  0  0  0  0  0  0  0  0  0
   -5.1124   -1.2932   -0.5597 O   0  0  0  0  0  0  0  0  0  0  0  0
   -2.7974   -0.7279   -0.1838 C   0  0  0  0  0  0  0  0  0  0  0  0
    0.5218    0.5282   -0.6669 O   0  0  0  0  0  0  0  0  0  0  0  0
    1.8618    0.3072   -0.4770 C   0  0  0  0  0  0  0  0  0  0  0  0
    2.7400    0.9309   -1.3625 C   0  0  0  0  0  0  0  0  0  0  0  0
    4.1117    0.7426   -1.2151 C   0  0  0  0  0  0  0  0  0  0  0  0
    4.9348    1.3707   -2.1021 O   0  0  0  0  0  0  0  0  0  0  0  0
    4.6219   -0.0589   -0.1972 C   0  0  0  0  0  0  0  0  0  0  0  0
    3.7397   -0.6792    0.6843 C   0  0  0  0  0  0  0  0  0  0  0  0
    4.2942   -1.4551    1.6660 O   0  0  0  0  0  0  0  0  0  0  0  0
    2.3602   -0.4963    0.5441 C   0  0  0  0  0  0  0  0  0  0  0  0
   -0.3769   -1.9445    2.7425 H   0  0  0  0  0  0  0  0  0  0  0  0
   -1.3790    2.3691   -0.4168 H   0  0  0  0  0  0  0  0  0  0  0  0
   -3.7057    2.9659   -1.0011 H   0  0  0  0  0  0  0  0  0  0  0  0
   -6.1964    0.4459   -1.0814 H   0  0  0  0  0  0  0  0  0  0  0  0
   -4.7476   -2.1532   -0.2878 H   0  0  0  0  0  0  0  0  0  0  0  0
   -2.5518   -1.7634    0.0315 H   0  0  0  0  0  0  0  0  0  0  0  0
    2.3612    1.5599   -2.1636 H   0  0  0  0  0  0  0  0  0  0  0  0
    5.8576    1.1546   -1.8847 H   0  0  0  0  0  0  0  0  0  0  0  0
    5.6899   -0.2105   -0.0756 H   0  0  0  0  0  0  0  0  0  0  0  0
    3.5698   -1.8270    2.2169 H   0  0  0  0  0  0  0  0  0  0  0  0
  1  2  2  0
  2  3  1  0
  3  4  1  0
  3  5  2  0
  5  6  1  0
  6  7  2  0
  7  8  1  0
  8  9  2  0
  9 10  1  0
  9 11  1  0
 11 12  1  0
 11 13  2  0
  5 14  1  0
 14 15  1  0
 15 16  2  0
 16 17  1  0
 17 18  1  0
 17 19  2  0
 19 20  1  0
 20 21  1  0
 20 22  2  0
 22  2  1  0
 13  6  1  0
 22 15  1  0
  4 23  1  0
  7 24  1  0
  8 25  1  0
 10 26  1  0
 12 27  1  0
 13 28  1  0
 16 29  1  0
 18 30  1  0
 19 31  1  0
 21 32  1  0
M  END
$$$$
