harmine_out
     RDKit          3D

 28 30  0  0  0  0  0  0  0  0999 V2000
   45.9880   24.8160  -12.9730 C   0  0  0  0  0  0  0  0  0  0  0  0
   45.0530   24.8080  -14.0440 O   0  0  0  0  0  0  0  0  0  0  0  0
   43.9170   25.5560  -13.8810 C   0  0  0  0  0  0  0  0  0  0  0  0
   43.6380   26.3910  -12.8000 C   0  0  0  0  0  0  0  0  0  0  0  0
   42.4370   27.1140  -12.7400 C   0  0  0  0  0  0  0  0  0  0  0  0
   41.4970   26.9960  -13.7840 C   0  0  0  0  0  0  0  0  0  0  0  0
   41.8000   26.1560  -14.8530 C   0  0  0  0  0  0  0  0  0  0  0  0
   42.9940   25.4290  -14.9280 C   0  0  0  0  0  0  0  0  0  0  0  0
   40.7400   26.2150  -15.7260 N   0  0  0  0  0  0  0  0  0  0  0  0
   39.7620   27.0640  -15.2600 C   0  0  0  0  0  0  0  0  0  0  0  0
   38.5280   27.4200  -15.8150 C   0  0  0  0  0  0  0  0  0  0  0  0
   38.0090   26.9010  -17.1190 C   0  0  0  0  0  0  0  0  0  0  0  0
   37.7500   28.2950  -15.1230 N   0  0  0  0  0  0  0  0  0  0  0  0
   38.1820   28.7870  -13.9420 C   0  0  0  0  0  0  0  0  0  0  0  0
   39.3910   28.4690  -13.3470 C   0  0  0  0  0  0  0  0  0  0  0  0
   40.2120   27.5690  -14.0400 C   0  0  0  0  0  0  0  0  0  0  0  0
   45.4479   24.8114  -12.0147 H   0  0  0  0  0  0  0  0  0  0  0  0
   46.6274   23.9233  -13.0378 H   0  0  0  0  0  0  0  0  0  0  0  0
   46.6121   25.7195  -13.0378 H   0  0  0  0  0  0  0  0  0  0  0  0
   44.3690   26.4842  -11.9834 H   0  0  0  0  0  0  0  0  0  0  0  0
   42.2297   27.7702  -11.8818 H   0  0  0  0  0  0  0  0  0  0  0  0
   43.2025   24.7745  -15.7871 H   0  0  0  0  0  0  0  0  0  0  0  0
   40.6870   25.7160  -16.5720 H   0  0  0  0  0  0  0  0  0  0  0  0
   37.2428   26.1348  -16.9298 H   0  0  0  0  0  0  0  0  0  0  0  0
   37.5663   27.7284  -17.6929 H   0  0  0  0  0  0  0  0  0  0  0  0
   38.8364   26.4583  -17.6929 H   0  0  0  0  0  0  0  0  0  0  0  0
   37.5245   29.4929  -13.4134 H   0  0  0  0  0  0  0  0  0  0  0  0
   39.6915   28.9002  -12.3807 H   0  0  0  0  0  0  0  0  0  0  0  0
  1  2  1  0
  2  3  1  0
  3  4  2  0
  4  5  1  0
  5  6  2  0
  6  7  1  0
  7  8  2  0
  7  9  1  0
  9 10  1  0
 10 11  2  0
 11 12  1  0
 11 13  1  0
 13 14  2  0
 14 15  1  0
 15 16  2  0
  8  3  1  0
 16 10  1  0
 16  6  1  0
  1 17  1  0
  1 18  1  0
  1 19  1  0
  4 20  1  0
  5 21  1  0
  8 22  1  0
  9 23  1  0
 12 24  1  0
 12 25  1  0
 12 26  1  0
 14 27  1  0
 15 28  1  0
M  END
>  <meeko>  (1) 
{"is_sidechain": [false], "free_energy": -8.774, "intermolecular_energy": -9.287, "internal_energy": -0.042}

$$$$
harmine_out
     RDKit          3D

 28 30  0  0  0  0  0  0  0  0999 V2000
   44.9510   24.8420  -14.1000 C   0  0  0  0  0  0  0  0  0  0  0  0
   44.4180   25.4630  -12.9380 O   0  0  0  0  0  0  0  0  0  0  0  0
   43.2350   26.1380  -13.0820 C   0  0  0  0  0  0  0  0  0  0  0  0
   42.6890   27.0300  -12.1610 C   0  0  0  0  0  0  0  0  0  0  0  0
   41.4650   27.6670  -12.4150 C   0  0  0  0  0  0  0  0  0  0  0  0
   40.7760   27.4040  -13.6160 C   0  0  0  0  0  0  0  0  0  0  0  0
   41.3430   26.5090  -14.5200 C   0  0  0  0  0  0  0  0  0  0  0  0
   42.5640   25.8660  -14.2810 C   0  0  0  0  0  0  0  0  0  0  0  0
   40.4910   26.4260  -15.5950 N   0  0  0  0  0  0  0  0  0  0  0  0
   39.3920   27.2360  -15.4190 C   0  0  0  0  0  0  0  0  0  0  0  0
   38.2870   27.4590  -16.2480 C   0  0  0  0  0  0  0  0  0  0  0  0
   38.0850   26.8070  -17.5790 C   0  0  0  0  0  0  0  0  0  0  0  0
   37.3340   28.3260  -15.8130 N   0  0  0  0  0  0  0  0  0  0  0  0
   37.4770   28.9360  -14.6160 C   0  0  0  0  0  0  0  0  0  0  0  0
   38.5480   28.7510  -13.7580 C   0  0  0  0  0  0  0  0  0  0  0  0
   39.5450   27.8630  -14.1830 C   0  0  0  0  0  0  0  0  0  0  0  0
   45.6407   24.0384  -13.8026 H   0  0  0  0  0  0  0  0  0  0  0  0
   44.1309   24.4185  -14.6984 H   0  0  0  0  0  0  0  0  0  0  0  0
   45.4939   25.5885  -14.6984 H   0  0  0  0  0  0  0  0  0  0  0  0
   43.2245   27.2373  -11.2228 H   0  0  0  0  0  0  0  0  0  0  0  0
   41.0448   28.3689  -11.6797 H   0  0  0  0  0  0  0  0  0  0  0  0
   42.9855   25.1649  -15.0165 H   0  0  0  0  0  0  0  0  0  0  0  0
   40.6470   25.8620  -16.3860 H   0  0  0  0  0  0  0  0  0  0  0  0
   37.7624   25.7657  -17.4320 H   0  0  0  0  0  0  0  0  0  0  0  0
   37.3141   27.3537  -18.1419 H   0  0  0  0  0  0  0  0  0  0  0  0
   39.0299   26.8221  -18.1419 H   0  0  0  0  0  0  0  0  0  0  0  0
   36.6846   29.6304  -14.2999 H   0  0  0  0  0  0  0  0  0  0  0  0
   38.6127   29.2742  -12.7926 H   0  0  0  0  0  0  0  0  0  0  0  0
  1  2  1  0
  2  3  1  0
  3  4  2  0
  4  5  1  0
  5  6  2  0
  6  7  1  0
  7  8  2  0
  7  9  1  0
  9 10  1  0
 10 11  2  0
 11 12  1  0
 11 13  1  0
 13 14  2  0
 14 15  1  0
 15 16  2  0
  8  3  1  0
 16 10  1  0
 16  6  1  0
  1 17  1  0
  1 18  1  0
  1 19  1  0
  4 20  1  0
  5 21  1  0
  8 22  1  0
  9 23  1  0
 12 24  1  0
 12 25  1  0
 12 26  1  0
 14 27  1  0
 15 28  1  0
M  END
>  <meeko>  (2) 
{"is_sidechain": [false], "free_energy": -8.292, "intermolecular_energy": -8.758, "internal_energy": -0.061}

$$$$
harmine_out
     RDKit          3D

 28 30  0  0  0  0  0  0  0  0999 V2000
   45.6370   26.2560  -12.8060 C   0  0  0  0  0  0  0  0  0  0  0  0
   44.3130   26.2760  -12.2900 O   0  0  0  0  0  0  0  0  0  0  0  0
   43.2910   26.2930  -13.2030 C   0  0  0  0  0  0  0  0  0  0  0  0
   43.2280   25.5330  -14.3700 C   0  0  0  0  0  0  0  0  0  0  0  0
   42.1270   25.6320  -15.2340 C   0  0  0  0  0  0  0  0  0  0  0  0
   41.0710   26.5110  -14.9220 C   0  0  0  0  0  0  0  0  0  0  0  0
   41.1570   27.2580  -13.7510 C   0  0  0  0  0  0  0  0  0  0  0  0
   42.2480   27.1700  -12.8770 C   0  0  0  0  0  0  0  0  0  0  0  0
   40.0190   28.0250  -13.6750 N   0  0  0  0  0  0  0  0  0  0  0  0
   39.1980   27.8000  -14.7560 C   0  0  0  0  0  0  0  0  0  0  0  0
   37.9560   28.3550  -15.0850 C   0  0  0  0  0  0  0  0  0  0  0  0
   37.2410   29.3730  -14.2540 C   0  0  0  0  0  0  0  0  0  0  0  0
   37.3620   27.9410  -16.2360 N   0  0  0  0  0  0  0  0  0  0  0  0
   37.9740   27.0220  -17.0140 C   0  0  0  0  0  0  0  0  0  0  0  0
   39.2000   26.4420  -16.7370 C   0  0  0  0  0  0  0  0  0  0  0  0
   39.8350   26.8520  -15.5570 C   0  0  0  0  0  0  0  0  0  0  0  0
   46.3551   26.2452  -11.9728 H   0  0  0  0  0  0  0  0  0  0  0  0
   45.7768   25.3556  -13.4223 H   0  0  0  0  0  0  0  0  0  0  0  0
   45.8039   27.1517  -13.4223 H   0  0  0  0  0  0  0  0  0  0  0  0
   44.0519   24.8471  -14.6165 H   0  0  0  0  0  0  0  0  0  0  0  0
   42.0884   25.0259  -16.1511 H   0  0  0  0  0  0  0  0  0  0  0  0
   42.2850   27.7739  -11.9583 H   0  0  0  0  0  0  0  0  0  0  0  0
   39.8180   28.6530  -12.9440 H   0  0  0  0  0  0  0  0  0  0  0  0
   37.3969   29.1511  -13.1880 H   0  0  0  0  0  0  0  0  0  0  0  0
   37.6352   30.3744  -14.4815 H   0  0  0  0  0  0  0  0  0  0  0  0
   36.1652   29.3420  -14.4815 H   0  0  0  0  0  0  0  0  0  0  0  0
   37.4602   26.7115  -17.9358 H   0  0  0  0  0  0  0  0  0  0  0  0
   39.6525   25.6976  -17.4086 H   0  0  0  0  0  0  0  0  0  0  0  0
  1  2  1  0
  2  3  1  0
  3  4  2  0
  4  5  1  0
  5  6  2  0
  6  7  1  0
  7  8  2  0
  7  9  1  0
  9 10  1  0
 10 11  2  0
 11 12  1  0
 11 13  1  0
 13 14  2  0
 14 15  1  0
 15 16  2  0
  8  3  1  0
 16 10  1  0
 16  6  1  0
  1 17  1  0
  1 18  1  0
  1 19  1  0
  4 20  1  0
  5 21  1  0
  8 22  1  0
  9 23  1  0
 12 24  1  0
 12 25  1  0
 12 26  1  0
 14 27  1  0
 15 28  1  0
M  END
>  <meeko>  (3) 
{"is_sidechain": [false], "free_energy": -7.123, "intermolecular_energy": -7.543, "internal_energy": -0.038}

$$$$
harmine_out
     RDKit          3D

 28 30  0  0  0  0  0  0  0  0999 V2000
   37.6230   26.8560  -18.1100 C   0  0  0  0  0  0  0  0  0  0  0  0
   37.3710   27.6580  -16.9630 O   0  0  0  0  0  0  0  0  0  0  0  0
   38.2890   27.5950  -15.9480 C   0  0  0  0  0  0  0  0  0  0  0  0
   38.1610   28.1930  -14.6960 C   0  0  0  0  0  0  0  0  0  0  0  0
   39.1700   28.0620  -13.7290 C   0  0  0  0  0  0  0  0  0  0  0  0
   40.3290   27.3160  -14.0260 C   0  0  0  0  0  0  0  0  0  0  0  0
   40.4320   26.7280  -15.2840 C   0  0  0  0  0  0  0  0  0  0  0  0
   39.4340   26.8500  -16.2580 C   0  0  0  0  0  0  0  0  0  0  0  0
   41.6360   26.0660  -15.3230 N   0  0  0  0  0  0  0  0  0  0  0  0
   42.3150   26.2040  -14.1350 C   0  0  0  0  0  0  0  0  0  0  0  0
   43.5610   25.7060  -13.7370 C   0  0  0  0  0  0  0  0  0  0  0  0
   44.4470   24.8650  -14.6010 C   0  0  0  0  0  0  0  0  0  0  0  0
   43.9930   26.0050  -12.4830 N   0  0  0  0  0  0  0  0  0  0  0  0
   43.2230   26.7620  -11.6710 C   0  0  0  0  0  0  0  0  0  0  0  0
   41.9850   27.2800  -12.0120 C   0  0  0  0  0  0  0  0  0  0  0  0
   41.5160   26.9860  -13.3000 C   0  0  0  0  0  0  0  0  0  0  0  0
   37.9387   25.8512  -17.7927 H   0  0  0  0  0  0  0  0  0  0  0  0
   36.7058   26.7790  -18.7123 H   0  0  0  0  0  0  0  0  0  0  0  0
   38.4194   27.3175  -18.7123 H   0  0  0  0  0  0  0  0  0  0  0  0
   37.2575   28.7753  -14.4624 H   0  0  0  0  0  0  0  0  0  0  0  0
   39.0570   28.5390  -12.7443 H   0  0  0  0  0  0  0  0  0  0  0  0
   39.5462   26.3726  -17.2426 H   0  0  0  0  0  0  0  0  0  0  0  0
   41.9680   25.5600  -16.0990 H   0  0  0  0  0  0  0  0  0  0  0  0
   45.0985   24.2466  -13.9660 H   0  0  0  0  0  0  0  0  0  0  0  0
   43.8286   24.2136  -15.2361 H   0  0  0  0  0  0  0  0  0  0  0  0
   45.0653   25.5165  -15.2361 H   0  0  0  0  0  0  0  0  0  0  0  0
   43.6080   26.9832  -10.6646 H   0  0  0  0  0  0  0  0  0  0  0  0
   41.3998   27.8906  -11.3087 H   0  0  0  0  0  0  0  0  0  0  0  0
  1  2  1  0
  2  3  1  0
  3  4  2  0
  4  5  1  0
  5  6  2  0
  6  7  1  0
  7  8  2  0
  7  9  1  0
  9 10  1  0
 10 11  2  0
 11 12  1  0
 11 13  1  0
 13 14  2  0
 14 15  1  0
 15 16  2  0
  8  3  1  0
 16 10  1  0
 16  6  1  0
  1 17  1  0
  1 18  1  0
  1 19  1  0
  4 20  1  0
  5 21  1  0
  8 22  1  0
  9 23  1  0
 12 24  1  0
 12 25  1  0
 12 26  1  0
 14 27  1  0
 15 28  1  0
M  END
>  <meeko>  (4) 
{"is_sidechain": [false], "free_energy": -7.09, "intermolecular_energy": -7.486, "internal_energy": -0.061}

$$$$
