lazabemide_out
     RDKit          3D

 24 24  0  0  0  0  0  0  0  0999 V2000
   38.7040   26.9170  -18.6540 N   0  0  0  0  0  0  0  0  0  0  0  0
   37.6120   26.8860  -17.6730 C   0  0  0  0  0  0  0  0  0  0  0  0
   37.9580   27.6840  -16.4070 C   0  0  0  0  0  0  0  0  0  0  0  0
   39.2850   27.3810  -15.9080 N   0  0  0  0  0  0  0  0  0  0  0  0
   39.5020   26.6260  -14.7770 C   0  0  0  0  0  0  0  0  0  0  0  0
   38.6130   26.0810  -14.1340 O   0  0  0  0  0  0  0  0  0  0  0  0
   40.9400   26.5310  -14.3650 C   0  0  0  0  0  0  0  0  0  0  0  0
   41.3370   27.0070  -13.1200 C   0  0  0  0  0  0  0  0  0  0  0  0
   42.6840   26.9060  -12.7720 C   0  0  0  0  0  0  0  0  0  0  0  0
   43.5780   26.3380  -13.6740 C   0  0  0  0  0  0  0  0  0  0  0  0
   45.2430   26.1950  -13.2810 Cl  0  0  0  0  0  0  0  0  0  0  0  0
   43.0940   25.8900  -14.8960 C   0  0  0  0  0  0  0  0  0  0  0  0
   41.7940   25.9720  -15.2710 N   0  0  0  0  0  0  0  0  0  0  0  0
   38.6550   27.7830  -19.1910 H   0  0  0  0  0  0  0  0  0  0  0  0
   38.6170   26.1200  -19.2840 H   0  0  0  0  0  0  0  0  0  0  0  0
   39.5990   26.8700  -18.1670 H   0  0  0  0  0  0  0  0  0  0  0  0
   36.7101   27.3184  -18.1308 H   0  0  0  0  0  0  0  0  0  0  0  0
   37.4448   25.8386  -17.3813 H   0  0  0  0  0  0  0  0  0  0  0  0
   37.9051   28.7576  -16.6407 H   0  0  0  0  0  0  0  0  0  0  0  0
   37.2346   27.4052  -15.6267 H   0  0  0  0  0  0  0  0  0  0  0  0
   40.0640   27.7290  -16.4000 H   0  0  0  0  0  0  0  0  0  0  0  0
   40.6074   27.4518  -12.4274 H   0  0  0  0  0  0  0  0  0  0  0  0
   43.0353   27.2712  -11.7957 H   0  0  0  0  0  0  0  0  0  0  0  0
   43.8085   25.4417  -15.6021 H   0  0  0  0  0  0  0  0  0  0  0  0
  1  2  1  0
  2  3  1  0
  3  4  1  0
  4  5  1  0
  5  6  2  0
  5  7  1  0
  7  8  2  0
  8  9  1  0
  9 10  2  0
 10 11  1  0
 10 12  1  0
 12 13  2  0
 13  7  1  0
  1 14  1  0
  1 15  1  0
  1 16  1  0
  2 17  1  0
  2 18  1  0
  3 19  1  0
  3 20  1  0
  4 21  1  0
  8 22  1  0
  9 23  1  0
 12 24  1  0
M  CHG  1   1   1
M  END
>  <meeko>  (1) 
{"is_sidechain": [false], "free_energy": -7.107, "intermolecular_energy": -8.561, "internal_energy": -0.173}

$$$$
lazabemide_out
     RDKit          3D

 24 24  0  0  0  0  0  0  0  0999 V2000
   38.0320   28.1830  -17.9290 N   0  0  0  0  0  0  0  0  0  0  0  0
   38.3130   26.9810  -17.1330 C   0  0  0  0  0  0  0  0  0  0  0  0
   38.6480   27.3270  -15.6740 C   0  0  0  0  0  0  0  0  0  0  0  0
   39.9270   26.7860  -15.2580 N   0  0  0  0  0  0  0  0  0  0  0  0
   40.5220   27.1120  -14.0600 C   0  0  0  0  0  0  0  0  0  0  0  0
   40.0010   27.8200  -13.2060 O   0  0  0  0  0  0  0  0  0  0  0  0
   41.8940   26.5400  -13.8750 C   0  0  0  0  0  0  0  0  0  0  0  0
   42.3800   25.5990  -14.7780 C   0  0  0  0  0  0  0  0  0  0  0  0
   43.6600   25.0850  -14.5720 C   0  0  0  0  0  0  0  0  0  0  0  0
   44.4020   25.5250  -13.4810 C   0  0  0  0  0  0  0  0  0  0  0  0
   45.9810   24.9160  -13.1960 Cl  0  0  0  0  0  0  0  0  0  0  0  0
   43.8380   26.4660  -12.6300 C   0  0  0  0  0  0  0  0  0  0  0  0
   42.5970   26.9880  -12.7950 N   0  0  0  0  0  0  0  0  0  0  0  0
   38.5350   28.9770  -17.5340 H   0  0  0  0  0  0  0  0  0  0  0  0
   37.0300   28.3720  -17.9150 H   0  0  0  0  0  0  0  0  0  0  0  0
   38.3370   28.0320  -18.8910 H   0  0  0  0  0  0  0  0  0  0  0  0
   37.4278   26.3282  -17.1497 H   0  0  0  0  0  0  0  0  0  0  0  0
   39.1856   26.4762  -17.5732 H   0  0  0  0  0  0  0  0  0  0  0  0
   38.6759   28.4215  -15.5678 H   0  0  0  0  0  0  0  0  0  0  0  0
   37.8711   26.8802  -15.0362 H   0  0  0  0  0  0  0  0  0  0  0  0
   40.3900   26.1580  -15.8590 H   0  0  0  0  0  0  0  0  0  0  0  0
   41.7703   25.2692  -15.6321 H   0  0  0  0  0  0  0  0  0  0  0  0
   44.0781   24.3398  -15.2647 H   0  0  0  0  0  0  0  0  0  0  0  0
   44.4331   26.8086  -11.7707 H   0  0  0  0  0  0  0  0  0  0  0  0
  1  2  1  0
  2  3  1  0
  3  4  1  0
  4  5  1  0
  5  6  2  0
  5  7  1  0
  7  8  2  0
  8  9  1  0
  9 10  2  0
 10 11  1  0
 10 12  1  0
 12 13  2  0
 13  7  1  0
  1 14  1  0
  1 15  1  0
  1 16  1  0
  2 17  1  0
  2 18  1  0
  3 19  1  0
  3 20  1  0
  4 21  1  0
  8 22  1  0
  9 23  1  0
 12 24  1  0
M  CHG  1   1   1
M  END
>  <meeko>  (2) 
{"is_sidechain": [false], "free_energy": -6.905, "intermolecular_energy": -8.353, "internal_energy": -0.138}

$$$$
lazabemide_out
     RDKit          3D

 24 24  0  0  0  0  0  0  0  0999 V2000
   36.4620   29.5650  -14.5600 N   0  0  0  0  0  0  0  0  0  0  0  0
   37.9020   29.2810  -14.5080 C   0  0  0  0  0  0  0  0  0  0  0  0
   38.2710   28.0430  -15.3390 C   0  0  0  0  0  0  0  0  0  0  0  0
   39.6200   27.5830  -15.0760 N   0  0  0  0  0  0  0  0  0  0  0  0
   39.9110   26.6220  -14.1330 C   0  0  0  0  0  0  0  0  0  0  0  0
   39.0640   26.0160  -13.4870 O   0  0  0  0  0  0  0  0  0  0  0  0
   41.3750   26.3760  -13.9330 C   0  0  0  0  0  0  0  0  0  0  0  0
   42.0680   25.5590  -14.8200 C   0  0  0  0  0  0  0  0  0  0  0  0
   43.4290   25.3490  -14.6000 C   0  0  0  0  0  0  0  0  0  0  0  0
   44.0440   25.9560  -13.5100 C   0  0  0  0  0  0  0  0  0  0  0  0
   45.7160   25.7220  -13.2070 Cl  0  0  0  0  0  0  0  0  0  0  0  0
   43.2740   26.7550  -12.6750 C   0  0  0  0  0  0  0  0  0  0  0  0
   41.9500   26.9830  -12.8540 N   0  0  0  0  0  0  0  0  0  0  0  0
   36.0260   28.9830  -15.2750 H   0  0  0  0  0  0  0  0  0  0  0  0
   36.3180   30.5480  -14.7860 H   0  0  0  0  0  0  0  0  0  0  0  0
   36.0420   29.3590  -13.6530 H   0  0  0  0  0  0  0  0  0  0  0  0
   38.4504   30.1498  -14.9011 H   0  0  0  0  0  0  0  0  0  0  0  0
   38.1731   29.0823  -13.4606 H   0  0  0  0  0  0  0  0  0  0  0  0
   37.5679   27.2325  -15.0967 H   0  0  0  0  0  0  0  0  0  0  0  0
   38.2132   28.3227  -16.4013 H   0  0  0  0  0  0  0  0  0  0  0  0
   40.3600   27.9730  -15.5950 H   0  0  0  0  0  0  0  0  0  0  0  0
   41.5557   25.0905  -15.6732 H   0  0  0  0  0  0  0  0  0  0  0  0
   44.0100   24.7101  -15.2813 H   0  0  0  0  0  0  0  0  0  0  0  0
   43.7687   27.2319  -11.8160 H   0  0  0  0  0  0  0  0  0  0  0  0
  1  2  1  0
  2  3  1  0
  3  4  1  0
  4  5  1  0
  5  6  2  0
  5  7  1  0
  7  8  2  0
  8  9  1  0
  9 10  2  0
 10 11  1  0
 10 12  1  0
 12 13  2  0
 13  7  1  0
  1 14  1  0
  1 15  1  0
  1 16  1  0
  2 17  1  0
  2 18  1  0
  3 19  1  0
  3 20  1  0
  4 21  1  0
  8 22  1  0
  9 23  1  0
 12 24  1  0
M  CHG  1   1   1
M  END
>  <meeko>  (3) 
{"is_sidechain": [false], "free_energy": -6.686, "intermolecular_energy": -8.085, "internal_energy": -0.142}

$$$$
lazabemide_out
     RDKit          3D

 24 24  0  0  0  0  0  0  0  0999 V2000
   36.4390   29.5420  -14.5650 N   0  0  0  0  0  0  0  0  0  0  0  0
   37.8900   29.3170  -14.5350 C   0  0  0  0  0  0  0  0  0  0  0  0
   38.2860   28.0440  -15.2970 C   0  0  0  0  0  0  0  0  0  0  0  0
   39.6430   27.6250  -15.0040 N   0  0  0  0  0  0  0  0  0  0  0  0
   39.9400   26.6420  -14.0880 C   0  0  0  0  0  0  0  0  0  0  0  0
   39.0970   25.9810  -13.4930 O   0  0  0  0  0  0  0  0  0  0  0  0
   41.4060   26.4440  -13.8460 C   0  0  0  0  0  0  0  0  0  0  0  0
   42.0280   27.0950  -12.7860 C   0  0  0  0  0  0  0  0  0  0  0  0
   43.3940   26.8920  -12.5940 C   0  0  0  0  0  0  0  0  0  0  0  0
   44.0850   26.0520  -13.4620 C   0  0  0  0  0  0  0  0  0  0  0  0
   45.7660   25.7760  -13.2580 Cl  0  0  0  0  0  0  0  0  0  0  0  0
   43.3840   25.4440  -14.4960 C   0  0  0  0  0  0  0  0  0  0  0  0
   42.0570   25.6190  -14.7160 N   0  0  0  0  0  0  0  0  0  0  0  0
   36.1740   29.9280  -15.4710 H   0  0  0  0  0  0  0  0  0  0  0  0
   36.1820   30.1970  -13.8270 H   0  0  0  0  0  0  0  0  0  0  0  0
   35.9550   28.6570  -14.4180 H   0  0  0  0  0  0  0  0  0  0  0  0
   38.3936   30.1793  -14.9965 H   0  0  0  0  0  0  0  0  0  0  0  0
   38.1954   29.1958  -13.4852 H   0  0  0  0  0  0  0  0  0  0  0  0
   37.5973   27.2342  -15.0144 H   0  0  0  0  0  0  0  0  0  0  0  0
   38.2277   28.2649  -16.3730 H   0  0  0  0  0  0  0  0  0  0  0  0
   40.3840   28.0620  -15.4830 H   0  0  0  0  0  0  0  0  0  0  0  0
   41.4564   27.7537  -12.1157 H   0  0  0  0  0  0  0  0  0  0  0  0
   43.9195   27.3901  -11.7659 H   0  0  0  0  0  0  0  0  0  0  0  0
   43.9381   24.7812  -15.1769 H   0  0  0  0  0  0  0  0  0  0  0  0
  1  2  1  0
  2  3  1  0
  3  4  1  0
  4  5  1  0
  5  6  2  0
  5  7  1  0
  7  8  2  0
  8  9  1  0
  9 10  2  0
 10 11  1  0
 10 12  1  0
 12 13  2  0
 13  7  1  0
  1 14  1  0
  1 15  1  0
  1 16  1  0
  2 17  1  0
  2 18  1  0
  3 19  1  0
  3 20  1  0
  4 21  1  0
  8 22  1  0
  9 23  1  0
 12 24  1  0
M  CHG  1   1   1
M  END
>  <meeko>  (4) 
{"is_sidechain": [false], "free_energy": -6.659, "intermolecular_energy": -8.054, "internal_energy": -0.14}

$$$$
lazabemide_out
     RDKit          3D

 24 24  0  0  0  0  0  0  0  0999 V2000
   45.2530   25.1500  -14.3550 N   0  0  0  0  0  0  0  0  0  0  0  0
   45.0320   26.4070  -13.6280 C   0  0  0  0  0  0  0  0  0  0  0  0
   44.0510   26.2270  -12.4600 C   0  0  0  0  0  0  0  0  0  0  0  0
   42.7370   26.7640  -12.7540 N   0  0  0  0  0  0  0  0  0  0  0  0
   41.9410   26.2790  -13.7660 C   0  0  0  0  0  0  0  0  0  0  0  0
   42.2260   25.3090  -14.4590 O   0  0  0  0  0  0  0  0  0  0  0  0
   40.6740   27.0500  -13.9800 C   0  0  0  0  0  0  0  0  0  0  0  0
   40.2350   27.9450  -13.0100 C   0  0  0  0  0  0  0  0  0  0  0  0
   39.0490   28.6420  -13.2410 C   0  0  0  0  0  0  0  0  0  0  0  0
   38.3510   28.4220  -14.4230 C   0  0  0  0  0  0  0  0  0  0  0  0
   36.8890   29.2620  -14.7440 Cl  0  0  0  0  0  0  0  0  0  0  0  0
   38.8620   27.5090  -15.3360 C   0  0  0  0  0  0  0  0  0  0  0  0
   40.0090   26.8110  -15.1470 N   0  0  0  0  0  0  0  0  0  0  0  0
   44.5450   25.0500  -15.0820 H   0  0  0  0  0  0  0  0  0  0  0  0
   45.1890   24.3670  -13.7060 H   0  0  0  0  0  0  0  0  0  0  0  0
   46.1790   25.1630  -14.7820 H   0  0  0  0  0  0  0  0  0  0  0  0
   45.9946   26.7633  -13.2325 H   0  0  0  0  0  0  0  0  0  0  0  0
   44.5981   27.1351  -14.3291 H   0  0  0  0  0  0  0  0  0  0  0  0
   43.9533   25.1530  -12.2431 H   0  0  0  0  0  0  0  0  0  0  0  0
   44.4528   26.7777  -11.5967 H   0  0  0  0  0  0  0  0  0  0  0  0
   42.4000   27.5090  -12.2040 H   0  0  0  0  0  0  0  0  0  0  0  0
   40.8086   28.0993  -12.0841 H   0  0  0  0  0  0  0  0  0  0  0  0
   38.6703   29.3576  -12.4964 H   0  0  0  0  0  0  0  0  0  0  0  0
   38.3028   27.3420  -16.2684 H   0  0  0  0  0  0  0  0  0  0  0  0
  1  2  1  0
  2  3  1  0
  3  4  1  0
  4  5  1  0
  5  6  2  0
  5  7  1  0
  7  8  2  0
  8  9  1  0
  9 10  2  0
 10 11  1  0
 10 12  1  0
 12 13  2  0
 13  7  1  0
  1 14  1  0
  1 15  1  0
  1 16  1  0
  2 17  1  0
  2 18  1  0
  3 19  1  0
  3 20  1  0
  4 21  1  0
  8 22  1  0
  9 23  1  0
 12 24  1  0
M  CHG  1   1   1
M  END
>  <meeko>  (5) 
{"is_sidechain": [false], "free_energy": -6.168, "intermolecular_energy": -7.403, "internal_energy": -0.2}

$$$$
lazabemide_out
     RDKit          3D

 24 24  0  0  0  0  0  0  0  0999 V2000
   45.2980   25.1790  -14.2130 N   0  0  0  0  0  0  0  0  0  0  0  0
   44.9720   26.4740  -13.6020 C   0  0  0  0  0  0  0  0  0  0  0  0
   43.9740   26.3240  -12.4440 C   0  0  0  0  0  0  0  0  0  0  0  0
   42.6550   26.8230  -12.7820 N   0  0  0  0  0  0  0  0  0  0  0  0
   41.8860   26.2800  -13.7860 C   0  0  0  0  0  0  0  0  0  0  0  0
   42.2020   25.2880  -14.4320 O   0  0  0  0  0  0  0  0  0  0  0  0
   40.6090   27.0180  -14.0530 C   0  0  0  0  0  0  0  0  0  0  0  0
   39.8560   26.7120  -15.1830 C   0  0  0  0  0  0  0  0  0  0  0  0
   38.6760   27.4220  -15.4020 C   0  0  0  0  0  0  0  0  0  0  0  0
   38.2940   28.4040  -14.4940 C   0  0  0  0  0  0  0  0  0  0  0  0
   36.8480   29.2970  -14.7290 Cl  0  0  0  0  0  0  0  0  0  0  0  0
   39.1070   28.6430  -13.3940 C   0  0  0  0  0  0  0  0  0  0  0  0
   40.2610   27.9770  -13.1470 N   0  0  0  0  0  0  0  0  0  0  0  0
   44.7470   24.4450  -13.7690 H   0  0  0  0  0  0  0  0  0  0  0  0
   46.2910   24.9850  -14.0870 H   0  0  0  0  0  0  0  0  0  0  0  0
   45.0820   25.2100  -15.2100 H   0  0  0  0  0  0  0  0  0  0  0  0
   45.8968   26.9293  -13.2181 H   0  0  0  0  0  0  0  0  0  0  0  0
   44.5088   27.1082  -14.3722 H   0  0  0  0  0  0  0  0  0  0  0  0
   43.8924   25.2583  -12.1839 H   0  0  0  0  0  0  0  0  0  0  0  0
   44.3504   26.9180  -11.5981 H   0  0  0  0  0  0  0  0  0  0  0  0
   42.2950   27.5830  -12.2700 H   0  0  0  0  0  0  0  0  0  0  0  0
   40.1832   25.9307  -15.8848 H   0  0  0  0  0  0  0  0  0  0  0  0
   38.0539   27.2078  -16.2835 H   0  0  0  0  0  0  0  0  0  0  0  0
   38.7955   29.4197  -12.6801 H   0  0  0  0  0  0  0  0  0  0  0  0
  1  2  1  0
  2  3  1  0
  3  4  1  0
  4  5  1  0
  5  6  2  0
  5  7  1  0
  7  8  2  0
  8  9  1  0
  9 10  2  0
 10 11  1  0
 10 12  1  0
 12 13  2  0
 13  7  1  0
  1 14  1  0
  1 15  1  0
  1 16  1  0
  2 17  1  0
  2 18  1  0
  3 19  1  0
  3 20  1  0
  4 21  1  0
  8 22  1  0
  9 23  1  0
 12 24  1  0
M  CHG  1   1   1
M  END
>  <meeko>  (6) 
{"is_sidechain": [false], "free_energy": -6.035, "intermolecular_energy": -7.229, "internal_energy": -0.214}

$$$$
lazabemide_out
     RDKit          3D

 24 24  0  0  0  0  0  0  0  0999 V2000
   45.0130   25.4650  -14.1850 N   0  0  0  0  0  0  0  0  0  0  0  0
   45.0240   26.4530  -13.0990 C   0  0  0  0  0  0  0  0  0  0  0  0
   43.6490   26.5770  -12.4250 C   0  0  0  0  0  0  0  0  0  0  0  0
   42.5860   26.8250  -13.3800 N   0  0  0  0  0  0  0  0  0  0  0  0
   41.2970   27.1260  -13.0020 C   0  0  0  0  0  0  0  0  0  0  0  0
   40.9430   27.2890  -11.8400 O   0  0  0  0  0  0  0  0  0  0  0  0
   40.3270   27.2270  -14.1390 C   0  0  0  0  0  0  0  0  0  0  0  0
   39.1840   28.0090  -14.0070 C   0  0  0  0  0  0  0  0  0  0  0  0
   38.3000   28.0760  -15.0840 C   0  0  0  0  0  0  0  0  0  0  0  0
   38.5880   27.3650  -16.2440 C   0  0  0  0  0  0  0  0  0  0  0  0
   37.5260   27.4230  -17.5910 Cl  0  0  0  0  0  0  0  0  0  0  0  0
   39.7520   26.6080  -16.2880 C   0  0  0  0  0  0  0  0  0  0  0  0
   40.6340   26.5160  -15.2620 N   0  0  0  0  0  0  0  0  0  0  0  0
   44.7430   25.9220  -15.0560 H   0  0  0  0  0  0  0  0  0  0  0  0
   44.3440   24.7270  -13.9660 H   0  0  0  0  0  0  0  0  0  0  0  0
   45.9440   25.0610  -14.2870 H   0  0  0  0  0  0  0  0  0  0  0  0
   45.7634   26.1449  -12.3451 H   0  0  0  0  0  0  0  0  0  0  0  0
   45.2824   27.4314  -13.5302 H   0  0  0  0  0  0  0  0  0  0  0  0
   43.4320   25.6407  -11.8900 H   0  0  0  0  0  0  0  0  0  0  0  0
   43.6887   27.4343  -11.7369 H   0  0  0  0  0  0  0  0  0  0  0  0
   42.7960   26.7760  -14.3410 H   0  0  0  0  0  0  0  0  0  0  0  0
   38.9824   28.5605  -13.0769 H   0  0  0  0  0  0  0  0  0  0  0  0
   37.3858   28.6841  -15.0166 H   0  0  0  0  0  0  0  0  0  0  0  0
   39.9714   26.0499  -17.2102 H   0  0  0  0  0  0  0  0  0  0  0  0
  1  2  1  0
  2  3  1  0
  3  4  1  0
  4  5  1  0
  5  6  2  0
  5  7  1  0
  7  8  2  0
  8  9  1  0
  9 10  2  0
 10 11  1  0
 10 12  1  0
 12 13  2  0
 13  7  1  0
  1 14  1  0
  1 15  1  0
  1 16  1  0
  2 17  1  0
  2 18  1  0
  3 19  1  0
  3 20  1  0
  4 21  1  0
  8 22  1  0
  9 23  1  0
 12 24  1  0
M  CHG  1   1   1
M  END
>  <meeko>  (7) 
{"is_sidechain": [false], "free_energy": -5.977, "intermolecular_energy": -7.222, "internal_energy": -0.151}

$$$$
lazabemide_out
     RDKit          3D

 24 24  0  0  0  0  0  0  0  0999 V2000
   39.1110   26.9080  -18.8140 N   0  0  0  0  0  0  0  0  0  0  0  0
   37.6850   26.8100  -18.4760 C   0  0  0  0  0  0  0  0  0  0  0  0
   37.4020   27.2960  -17.0470 C   0  0  0  0  0  0  0  0  0  0  0  0
   38.5020   27.0240  -16.1420 N   0  0  0  0  0  0  0  0  0  0  0  0
   38.6600   27.6760  -14.9400 C   0  0  0  0  0  0  0  0  0  0  0  0
   37.8570   28.4830  -14.4870 O   0  0  0  0  0  0  0  0  0  0  0  0
   39.9250   27.3350  -14.2130 C   0  0  0  0  0  0  0  0  0  0  0  0
   40.8060   26.4050  -14.7550 C   0  0  0  0  0  0  0  0  0  0  0  0
   41.9720   26.1080  -14.0480 C   0  0  0  0  0  0  0  0  0  0  0  0
   42.2120   26.7450  -12.8360 C   0  0  0  0  0  0  0  0  0  0  0  0
   43.6350   26.4070  -11.9380 Cl  0  0  0  0  0  0  0  0  0  0  0  0
   41.2760   27.6590  -12.3690 C   0  0  0  0  0  0  0  0  0  0  0  0
   40.1320   27.9720  -13.0250 N   0  0  0  0  0  0  0  0  0  0  0  0
   39.6290   27.2470  -18.0040 H   0  0  0  0  0  0  0  0  0  0  0  0
   39.2310   27.5550  -19.5920 H   0  0  0  0  0  0  0  0  0  0  0  0
   39.4600   25.9870  -19.0810 H   0  0  0  0  0  0  0  0  0  0  0  0
   37.1087   27.4259  -19.1821 H   0  0  0  0  0  0  0  0  0  0  0  0
   37.3904   25.7522  -18.5416 H   0  0  0  0  0  0  0  0  0  0  0  0
   37.2251   28.3814  -17.0717 H   0  0  0  0  0  0  0  0  0  0  0  0
   36.5207   26.7520  -16.6764 H   0  0  0  0  0  0  0  0  0  0  0  0
   39.1650   26.3420  -16.3990 H   0  0  0  0  0  0  0  0  0  0  0  0
   40.5892   25.9162  -15.7163 H   0  0  0  0  0  0  0  0  0  0  0  0
   42.6928   25.3782  -14.4453 H   0  0  0  0  0  0  0  0  0  0  0  0
   41.4752   28.1586  -11.4095 H   0  0  0  0  0  0  0  0  0  0  0  0
  1  2  1  0
  2  3  1  0
  3  4  1  0
  4  5  1  0
  5  6  2  0
  5  7  1  0
  7  8  2  0
  8  9  1  0
  9 10  2  0
 10 11  1  0
 10 12  1  0
 12 13  2  0
 13  7  1  0
  1 14  1  0
  1 15  1  0
  1 16  1  0
  2 17  1  0
  2 18  1  0
  3 19  1  0
  3 20  1  0
  4 21  1  0
  8 22  1  0
  9 23  1  0
 12 24  1  0
M  CHG  1   1   1
M  END
>  <meeko>  (8) 
{"is_sidechain": [false], "free_energy": -4.66, "intermolecular_energy": -5.614, "internal_energy": -0.172}

$$$$
