selegiline_out
     RDKit          3D

 32 32  0  0  0  0  0  0  0  0999 V2000
   38.0960   27.2540  -17.5990 C   0  0  0  0  0  0  0  0  0  0  0  0
   38.4240   26.9330  -16.4890 C   0  0  0  0  0  0  0  0  0  0  0  0
   38.8260   26.5320  -15.1300 C   0  0  0  0  0  0  0  0  0  0  0  0
   39.5920   27.5930  -14.4550 N   0  0  1  0  0  0  0  0  0  0  0  0
   38.7480   28.7570  -14.1760 C   0  0  0  0  0  0  0  0  0  0  0  0
   40.3180   27.0770  -13.2650 C   0  0  2  0  0  0  0  0  0  0  0  0
   39.5470   27.2230  -11.9430 C   0  0  0  0  0  0  0  0  0  0  0  0
   41.7290   27.7200  -13.1700 C   0  0  0  0  0  0  0  0  0  0  0  0
   42.8600   26.7570  -13.4610 C   0  0  0  0  0  0  0  0  0  0  0  0
   42.6920   25.7160  -14.3840 C   0  0  0  0  0  0  0  0  0  0  0  0
   43.7400   24.8350  -14.6550 C   0  0  0  0  0  0  0  0  0  0  0  0
   44.9650   24.9870  -14.0070 C   0  0  0  0  0  0  0  0  0  0  0  0
   45.1410   26.0170  -13.0860 C   0  0  0  0  0  0  0  0  0  0  0  0
   44.0950   26.8980  -12.8130 C   0  0  0  0  0  0  0  0  0  0  0  0
   37.7956   27.5480  -18.6155 H   0  0  0  0  0  0  0  0  0  0  0  0
   37.9232   26.3137  -14.5407 H   0  0  0  0  0  0  0  0  0  0  0  0
   39.4681   25.6425  -15.2100 H   0  0  0  0  0  0  0  0  0  0  0  0
   40.3190   27.9200  -15.0910 H   0  0  0  0  0  0  0  0  0  0  0  0
   38.6527   28.8885  -13.0881 H   0  0  0  0  0  0  0  0  0  0  0  0
   39.2058   29.6556  -14.6152 H   0  0  0  0  0  0  0  0  0  0  0  0
   37.7516   28.6012  -14.6152 H   0  0  0  0  0  0  0  0  0  0  0  0
   40.4215   25.9926  -13.4176 H   0  0  0  0  0  0  0  0  0  0  0  0
   40.2394   27.0919  -11.0983 H   0  0  0  0  0  0  0  0  0  0  0  0
   39.0921   28.2232  -11.8924 H   0  0  0  0  0  0  0  0  0  0  0  0
   38.7579   26.4583  -11.8924 H   0  0  0  0  0  0  0  0  0  0  0  0
   41.7827   28.5469  -13.8935 H   0  0  0  0  0  0  0  0  0  0  0  0
   41.8569   28.0601  -12.1317 H   0  0  0  0  0  0  0  0  0  0  0  0
   41.7276   25.5924  -14.8984 H   0  0  0  0  0  0  0  0  0  0  0  0
   43.5993   24.0201  -15.3804 H   0  0  0  0  0  0  0  0  0  0  0  0
   45.7917   24.2942  -14.2228 H   0  0  0  0  0  0  0  0  0  0  0  0
   46.1068   26.1357  -12.5731 H   0  0  0  0  0  0  0  0  0  0  0  0
   44.2400   27.7091  -12.0842 H   0  0  0  0  0  0  0  0  0  0  0  0
  1  2  3  0
  2  3  1  0
  3  4  1  0
  4  5  1  0
  4  6  1  0
  6  7  1  0
  6  8  1  0
  8  9  1  0
  9 10  2  0
 10 11  1  0
 11 12  2  0
 12 13  1  0
 13 14  2  0
 14  9  1  0
  1 15  1  0
  3 16  1  0
  3 17  1  0
  4 18  1  6
  5 19  1  0
  5 20  1  0
  5 21  1  0
  6 22  1  6
  7 23  1  0
  7 24  1  0
  7 25  1  0
  8 26  1  0
  8 27  1  0
 10 28  1  0
 11 29  1  0
 12 30  1  0
 13 31  1  0
 14 32  1  0
M  CHG  1   4   1
M  END
>  <meeko>  (1) 
{"is_sidechain": [false], "free_energy": -6.873, "intermolecular_energy": -8.48, "internal_energy": -0.385}

$$$$
selegiline_out
     RDKit          3D

 32 32  0  0  0  0  0  0  0  0999 V2000
   38.0910   27.3350  -17.6220 C   0  0  0  0  0  0  0  0  0  0  0  0
   38.4100   26.9940  -16.5150 C   0  0  0  0  0  0  0  0  0  0  0  0
   38.8000   26.5690  -15.1600 C   0  0  0  0  0  0  0  0  0  0  0  0
   39.5600   27.6180  -14.4600 N   0  0  1  0  0  0  0  0  0  0  0  0
   38.7200   28.7870  -14.1880 C   0  0  0  0  0  0  0  0  0  0  0  0
   40.2580   27.0850  -13.2600 C   0  0  2  0  0  0  0  0  0  0  0  0
   39.4560   27.2160  -11.9540 C   0  0  0  0  0  0  0  0  0  0  0  0
   41.6660   27.7260  -13.1230 C   0  0  0  0  0  0  0  0  0  0  0  0
   42.8010   26.7810  -13.4550 C   0  0  0  0  0  0  0  0  0  0  0  0
   44.0500   26.9190  -12.8340 C   0  0  0  0  0  0  0  0  0  0  0  0
   45.0910   26.0400  -13.1370 C   0  0  0  0  0  0  0  0  0  0  0  0
   44.8940   25.0160  -14.0620 C   0  0  0  0  0  0  0  0  0  0  0  0
   43.6570   24.8730  -14.6870 C   0  0  0  0  0  0  0  0  0  0  0  0
   42.6150   25.7500  -14.3860 C   0  0  0  0  0  0  0  0  0  0  0  0
   37.7989   27.6472  -18.6355 H   0  0  0  0  0  0  0  0  0  0  0  0
   37.8921   26.3405  -14.5825 H   0  0  0  0  0  0  0  0  0  0  0  0
   39.4427   25.6808  -15.2499 H   0  0  0  0  0  0  0  0  0  0  0  0
   40.3030   27.9440  -15.0780 H   0  0  0  0  0  0  0  0  0  0  0  0
   38.6221   28.9232  -13.1009 H   0  0  0  0  0  0  0  0  0  0  0  0
   39.1829   29.6819  -14.6295 H   0  0  0  0  0  0  0  0  0  0  0  0
   37.7242   28.6337  -14.6295 H   0  0  0  0  0  0  0  0  0  0  0  0
   40.3644   26.0026  -13.4247 H   0  0  0  0  0  0  0  0  0  0  0  0
   40.1339   27.1053  -11.0948 H   0  0  0  0  0  0  0  0  0  0  0  0
   38.9751   28.2046  -11.9166 H   0  0  0  0  0  0  0  0  0  0  0  0
   38.6855   26.4318  -11.9166 H   0  0  0  0  0  0  0  0  0  0  0  0
   41.7223   28.5886  -13.8033 H   0  0  0  0  0  0  0  0  0  0  0  0
   41.7863   28.0140  -12.0682 H   0  0  0  0  0  0  0  0  0  0  0  0
   44.2108   27.7252  -12.1032 H   0  0  0  0  0  0  0  0  0  0  0  0
   46.0681   26.1555  -12.6452 H   0  0  0  0  0  0  0  0  0  0  0  0
   45.7140   24.3218  -14.2982 H   0  0  0  0  0  0  0  0  0  0  0  0
   43.5019   24.0669  -15.4192 H   0  0  0  0  0  0  0  0  0  0  0  0
   41.6407   25.6317  -14.8827 H   0  0  0  0  0  0  0  0  0  0  0  0
  1  2  3  0
  2  3  1  0
  3  4  1  0
  4  5  1  0
  4  6  1  0
  6  7  1  0
  6  8  1  0
  8  9  1  0
  9 10  2  0
 10 11  1  0
 11 12  2  0
 12 13  1  0
 13 14  2  0
 14  9  1  0
  1 15  1  0
  3 16  1  0
  3 17  1  0
  4 18  1  6
  5 19  1  0
  5 20  1  0
  5 21  1  0
  6 22  1  6
  7 23  1  0
  7 24  1  0
  7 25  1  0
  8 26  1  0
  8 27  1  0
 10 28  1  0
 11 29  1  0
 12 30  1  0
 13 31  1  0
 14 32  1  0
M  CHG  1   4   1
M  END
>  <meeko>  (2) 
{"is_sidechain": [false], "free_energy": -6.855, "intermolecular_energy": -8.463, "internal_energy": -0.38}

$$$$
selegiline_out
     RDKit          3D

 32 32  0  0  0  0  0  0  0  0999 V2000
   45.6860   24.4050  -13.4150 C   0  0  0  0  0  0  0  0  0  0  0  0
   45.1130   25.4600  -13.4350 C   0  0  0  0  0  0  0  0  0  0  0  0
   44.4160   26.7580  -13.4580 C   0  0  0  0  0  0  0  0  0  0  0  0
   43.1350   26.6740  -14.1790 N   0  0  1  0  0  0  0  0  0  0  0  0
   42.9930   25.3810  -14.8540 C   0  0  0  0  0  0  0  0  0  0  0  0
   41.9860   27.0250  -13.3030 C   0  0  2  0  0  0  0  0  0  0  0  0
   42.2810   26.9080  -11.7980 C   0  0  0  0  0  0  0  0  0  0  0  0
   40.7310   26.1990  -13.6980 C   0  0  0  0  0  0  0  0  0  0  0  0
   39.6660   27.0080  -14.4060 C   0  0  0  0  0  0  0  0  0  0  0  0
   39.1530   26.5890  -15.6410 C   0  0  0  0  0  0  0  0  0  0  0  0
   38.1650   27.3340  -16.2860 C   0  0  0  0  0  0  0  0  0  0  0  0
   37.6800   28.5030  -15.7030 C   0  0  0  0  0  0  0  0  0  0  0  0
   38.1850   28.9310  -14.4780 C   0  0  0  0  0  0  0  0  0  0  0  0
   39.1740   28.1880  -13.8310 C   0  0  0  0  0  0  0  0  0  0  0  0
   46.2109   23.4385  -13.3967 H   0  0  0  0  0  0  0  0  0  0  0  0
   44.2227   27.0775  -12.4233 H   0  0  0  0  0  0  0  0  0  0  0  0
   45.0573   27.4831  -13.9804 H   0  0  0  0  0  0  0  0  0  0  0  0
   43.1340   27.3780  -14.9170 H   0  0  0  0  0  0  0  0  0  0  0  0
   42.9053   24.5827  -14.1024 H   0  0  0  0  0  0  0  0  0  0  0  0
   42.0908   25.3929  -15.4832 H   0  0  0  0  0  0  0  0  0  0  0  0
   43.8763   25.1969  -15.4832 H   0  0  0  0  0  0  0  0  0  0  0  0
   41.7876   28.0934  -13.4740 H   0  0  0  0  0  0  0  0  0  0  0  0
   41.4080   27.2542  -11.2252 H   0  0  0  0  0  0  0  0  0  0  0  0
   42.4919   25.8582  -11.5462 H   0  0  0  0  0  0  0  0  0  0  0  0
   43.1541   27.5279  -11.5462 H   0  0  0  0  0  0  0  0  0  0  0  0
   41.0481   25.3838  -14.3650 H   0  0  0  0  0  0  0  0  0  0  0  0
   40.2840   25.8285  -12.7637 H   0  0  0  0  0  0  0  0  0  0  0  0
   39.5318   25.6665  -16.1051 H   0  0  0  0  0  0  0  0  0  0  0  0
   37.7687   26.9981  -17.2556 H   0  0  0  0  0  0  0  0  0  0  0  0
   36.8984   29.0875  -16.2104 H   0  0  0  0  0  0  0  0  0  0  0  0
   37.8042   29.8556  -14.0196 H   0  0  0  0  0  0  0  0  0  0  0  0
   39.5698   28.5307  -12.8636 H   0  0  0  0  0  0  0  0  0  0  0  0
  1  2  3  0
  2  3  1  0
  3  4  1  0
  4  5  1  0
  4  6  1  0
  6  7  1  0
  6  8  1  0
  8  9  1  0
  9 10  2  0
 10 11  1  0
 11 12  2  0
 12 13  1  0
 13 14  2  0
 14  9  1  0
  1 15  1  0
  3 16  1  0
  3 17  1  0
  4 18  1  6
  5 19  1  0
  5 20  1  0
  5 21  1  0
  6 22  1  1
  7 23  1  0
  7 24  1  0
  7 25  1  0
  8 26  1  0
  8 27  1  0
 10 28  1  0
 11 29  1  0
 12 30  1  0
 13 31  1  0
 14 32  1  0
M  CHG  1   4   1
M  END
>  <meeko>  (3) 
{"is_sidechain": [false], "free_energy": -6.64, "intermolecular_energy": -8.487, "internal_energy": -0.091}

$$$$
selegiline_out
     RDKit          3D

 32 32  0  0  0  0  0  0  0  0999 V2000
   45.6220   24.3470  -13.4110 C   0  0  0  0  0  0  0  0  0  0  0  0
   45.0770   25.4180  -13.4220 C   0  0  0  0  0  0  0  0  0  0  0  0
   44.4160   26.7340  -13.4350 C   0  0  0  0  0  0  0  0  0  0  0  0
   43.1470   26.6970  -14.1820 N   0  0  1  0  0  0  0  0  0  0  0  0
   43.0110   25.4440  -14.9290 C   0  0  0  0  0  0  0  0  0  0  0  0
   41.9850   27.0080  -13.3100 C   0  0  2  0  0  0  0  0  0  0  0  0
   42.2670   26.8570  -11.8050 C   0  0  0  0  0  0  0  0  0  0  0  0
   40.7470   26.1720  -13.7380 C   0  0  0  0  0  0  0  0  0  0  0  0
   39.6730   26.9830  -14.4300 C   0  0  0  0  0  0  0  0  0  0  0  0
   39.1570   28.1420  -13.8340 C   0  0  0  0  0  0  0  0  0  0  0  0
   38.1730   28.8910  -14.4800 C   0  0  0  0  0  0  0  0  0  0  0  0
   37.6950   28.4900  -15.7260 C   0  0  0  0  0  0  0  0  0  0  0  0
   38.1990   27.3370  -16.3260 C   0  0  0  0  0  0  0  0  0  0  0  0
   39.1830   26.5860  -15.6820 C   0  0  0  0  0  0  0  0  0  0  0  0
   46.1209   23.3667  -13.4009 H   0  0  0  0  0  0  0  0  0  0  0  0
   44.2112   27.0407  -12.3987 H   0  0  0  0  0  0  0  0  0  0  0  0
   45.0866   27.4505  -13.9320 H   0  0  0  0  0  0  0  0  0  0  0  0
   43.1630   27.4400  -14.8810 H   0  0  0  0  0  0  0  0  0  0  0  0
   42.9199   24.6047  -14.2238 H   0  0  0  0  0  0  0  0  0  0  0  0
   42.1126   25.4902  -15.5620 H   0  0  0  0  0  0  0  0  0  0  0  0
   43.8984   25.2963  -15.5620 H   0  0  0  0  0  0  0  0  0  0  0  0
   41.7717   28.0771  -13.4564 H   0  0  0  0  0  0  0  0  0  0  0  0
   41.4399   27.2999  -11.2307 H   0  0  0  0  0  0  0  0  0  0  0  0
   42.3574   25.7898  -11.5541 H   0  0  0  0  0  0  0  0  0  0  0  0
   43.2053   27.3734  -11.5541 H   0  0  0  0  0  0  0  0  0  0  0  0
   41.0827   25.3821  -14.4260 H   0  0  0  0  0  0  0  0  0  0  0  0
   40.3002   25.7666  -12.8182 H   0  0  0  0  0  0  0  0  0  0  0  0
   39.5304   28.4632  -12.8504 H   0  0  0  0  0  0  0  0  0  0  0  0
   37.7739   29.7994  -14.0051 H   0  0  0  0  0  0  0  0  0  0  0  0
   36.9209   29.0825  -16.2355 H   0  0  0  0  0  0  0  0  0  0  0  0
   37.8204   27.0188  -17.3086 H   0  0  0  0  0  0  0  0  0  0  0  0
   39.5767   25.6767  -16.1597 H   0  0  0  0  0  0  0  0  0  0  0  0
  1  2  3  0
  2  3  1  0
  3  4  1  0
  4  5  1  0
  4  6  1  0
  6  7  1  0
  6  8  1  0
  8  9  1  0
  9 10  2  0
 10 11  1  0
 11 12  2  0
 12 13  1  0
 13 14  2  0
 14  9  1  0
  1 15  1  0
  3 16  1  0
  3 17  1  0
  4 18  1  6
  5 19  1  0
  5 20  1  0
  5 21  1  0
  6 22  1  1
  7 23  1  0
  7 24  1  0
  7 25  1  0
  8 26  1  0
  8 27  1  0
 10 28  1  0
 11 29  1  0
 12 30  1  0
 13 31  1  0
 14 32  1  0
M  CHG  1   4   1
M  END
>  <meeko>  (4) 
{"is_sidechain": [false], "free_energy": -6.635, "intermolecular_energy": -8.479, "internal_energy": -0.094}

$$$$
selegiline_out
     RDKit          3D

 32 32  0  0  0  0  0  0  0  0999 V2000
   38.1210   26.9970  -17.6360 C   0  0  0  0  0  0  0  0  0  0  0  0
   38.0670   27.4930  -16.5440 C   0  0  0  0  0  0  0  0  0  0  0  0
   37.9940   28.1010  -15.2040 C   0  0  0  0  0  0  0  0  0  0  0  0
   39.2780   28.0000  -14.4910 N   0  0  1  0  0  0  0  0  0  0  0  0
   39.2230   28.6960  -13.2030 C   0  0  0  0  0  0  0  0  0  0  0  0
   39.7460   26.5920  -14.3950 C   0  0  2  0  0  0  0  0  0  0  0  0
   40.0160   26.1130  -12.9600 C   0  0  0  0  0  0  0  0  0  0  0  0
   40.9850   26.3700  -15.3060 C   0  0  0  0  0  0  0  0  0  0  0  0
   42.2860   26.2370  -14.5450 C   0  0  0  0  0  0  0  0  0  0  0  0
   43.1140   25.1220  -14.7340 C   0  0  0  0  0  0  0  0  0  0  0  0
   44.3160   25.0080  -14.0350 C   0  0  0  0  0  0  0  0  0  0  0  0
   44.7030   26.0050  -13.1420 C   0  0  0  0  0  0  0  0  0  0  0  0
   43.8860   27.1160  -12.9450 C   0  0  0  0  0  0  0  0  0  0  0  0
   42.6830   27.2330  -13.6410 C   0  0  0  0  0  0  0  0  0  0  0  0
   38.1705   26.5426  -18.6365 H   0  0  0  0  0  0  0  0  0  0  0  0
   37.7264   29.1628  -15.3082 H   0  0  0  0  0  0  0  0  0  0  0  0
   37.2342   27.5590  -14.6218 H   0  0  0  0  0  0  0  0  0  0  0  0
   39.9900   28.4820  -15.0400 H   0  0  0  0  0  0  0  0  0  0  0  0
   39.2811   27.9613  -12.3864 H   0  0  0  0  0  0  0  0  0  0  0  0
   40.0687   29.3954  -13.1278 H   0  0  0  0  0  0  0  0  0  0  0  0
   38.2780   29.2539  -13.1278 H   0  0  0  0  0  0  0  0  0  0  0  0
   38.9131   25.9690  -14.7530 H   0  0  0  0  0  0  0  0  0  0  0  0
   39.6049   26.8423  -12.2465 H   0  0  0  0  0  0  0  0  0  0  0  0
   39.5358   25.1359  -12.8031 H   0  0  0  0  0  0  0  0  0  0  0  0
   41.1006   26.0179  -12.8031 H   0  0  0  0  0  0  0  0  0  0  0  0
   40.8276   25.4496  -15.8875 H   0  0  0  0  0  0  0  0  0  0  0  0
   41.0769   27.2608  -15.9448 H   0  0  0  0  0  0  0  0  0  0  0  0
   42.8142   24.3317  -15.4380 H   0  0  0  0  0  0  0  0  0  0  0  0
   44.9595   24.1293  -14.1892 H   0  0  0  0  0  0  0  0  0  0  0  0
   45.6522   25.9150  -12.5934 H   0  0  0  0  0  0  0  0  0  0  0  0
   44.1903   27.9027  -12.2390 H   0  0  0  0  0  0  0  0  0  0  0  0
   42.0416   28.1120  -13.4799 H   0  0  0  0  0  0  0  0  0  0  0  0
  1  2  3  0
  2  3  1  0
  3  4  1  0
  4  5  1  0
  4  6  1  0
  6  7  1  0
  6  8  1  0
  8  9  1  0
  9 10  2  0
 10 11  1  0
 11 12  2  0
 12 13  1  0
 13 14  2  0
 14  9  1  0
  1 15  1  0
  3 16  1  0
  3 17  1  0
  4 18  1  6
  5 19  1  0
  5 20  1  0
  5 21  1  0
  6 22  1  6
  7 23  1  0
  7 24  1  0
  7 25  1  0
  8 26  1  0
  8 27  1  0
 10 28  1  0
 11 29  1  0
 12 30  1  0
 13 31  1  0
 14 32  1  0
M  CHG  1   4   1
M  END
>  <meeko>  (5) 
{"is_sidechain": [false], "free_energy": -6.625, "intermolecular_energy": -8.671, "internal_energy": 0.111}

$$$$
selegiline_out
     RDKit          3D

 32 32  0  0  0  0  0  0  0  0999 V2000
   36.8200   29.2360  -14.8290 C   0  0  0  0  0  0  0  0  0  0  0  0
   37.8830   28.9560  -14.3430 C   0  0  0  0  0  0  0  0  0  0  0  0
   39.1850   28.6190  -13.7430 C   0  0  0  0  0  0  0  0  0  0  0  0
   39.4510   27.1720  -13.8010 N   0  0  1  0  0  0  0  0  0  0  0  0
   39.6480   26.7260  -15.1820 C   0  0  0  0  0  0  0  0  0  0  0  0
   40.5470   26.7760  -12.8780 C   0  0  2  0  0  0  0  0  0  0  0  0
   40.2000   26.9230  -11.3870 C   0  0  0  0  0  0  0  0  0  0  0  0
   41.8540   27.5390  -13.2300 C   0  0  0  0  0  0  0  0  0  0  0  0
   43.0520   26.6360  -13.4310 C   0  0  0  0  0  0  0  0  0  0  0  0
   42.9820   25.5370  -14.2980 C   0  0  0  0  0  0  0  0  0  0  0  0
   44.0920   24.7130  -14.4860 C   0  0  0  0  0  0  0  0  0  0  0  0
   45.2820   24.9770  -13.8100 C   0  0  0  0  0  0  0  0  0  0  0  0
   45.3610   26.0650  -12.9430 C   0  0  0  0  0  0  0  0  0  0  0  0
   44.2520   26.8910  -12.7530 C   0  0  0  0  0  0  0  0  0  0  0  0
   35.8471   29.4923  -15.2738 H   0  0  0  0  0  0  0  0  0  0  0  0
   39.9781   29.1498  -14.2900 H   0  0  0  0  0  0  0  0  0  0  0  0
   39.1654   28.9228  -12.6860 H   0  0  0  0  0  0  0  0  0  0  0  0
   38.6250   26.6790  -13.4620 H   0  0  0  0  0  0  0  0  0  0  0  0
   40.0924   25.7198  -15.1825 H   0  0  0  0  0  0  0  0  0  0  0  0
   38.6782   26.6987  -15.7004 H   0  0  0  0  0  0  0  0  0  0  0  0
   40.3213   27.4245  -15.7004 H   0  0  0  0  0  0  0  0  0  0  0  0
   40.7009   25.6978  -13.0323 H   0  0  0  0  0  0  0  0  0  0  0  0
   41.0431   26.5658  -10.7774 H   0  0  0  0  0  0  0  0  0  0  0  0
   40.0047   27.9812  -11.1586 H   0  0  0  0  0  0  0  0  0  0  0  0
   39.3040   26.3272  -11.1586 H   0  0  0  0  0  0  0  0  0  0  0  0
   41.6863   28.1047  -14.1583 H   0  0  0  0  0  0  0  0  0  0  0  0
   42.0843   28.1921  -12.3754 H   0  0  0  0  0  0  0  0  0  0  0  0
   42.0455   25.3227  -14.8338 H   0  0  0  0  0  0  0  0  0  0  0  0
   44.0279   23.8532  -15.1691 H   0  0  0  0  0  0  0  0  0  0  0  0
   46.1571   24.3277  -13.9606 H   0  0  0  0  0  0  0  0  0  0  0  0
   46.2989   26.2733  -12.4074 H   0  0  0  0  0  0  0  0  0  0  0  0
   44.3202   27.7478  -12.0666 H   0  0  0  0  0  0  0  0  0  0  0  0
  1  2  3  0
  2  3  1  0
  3  4  1  0
  4  5  1  0
  4  6  1  0
  6  7  1  0
  6  8  1  0
  8  9  1  0
  9 10  2  0
 10 11  1  0
 11 12  2  0
 12 13  1  0
 13 14  2  0
 14  9  1  0
  1 15  1  0
  3 16  1  0
  3 17  1  0
  4 18  1  1
  5 19  1  0
  5 20  1  0
  5 21  1  0
  6 22  1  1
  7 23  1  0
  7 24  1  0
  7 25  1  0
  8 26  1  0
  8 27  1  0
 10 28  1  0
 11 29  1  0
 12 30  1  0
 13 31  1  0
 14 32  1  0
M  CHG  1   4   1
M  END
>  <meeko>  (6) 
{"is_sidechain": [false], "free_energy": -6.208, "intermolecular_energy": -7.609, "internal_energy": -0.436}

$$$$
selegiline_out
     RDKit          3D

 32 32  0  0  0  0  0  0  0  0999 V2000
   40.0350   26.9190  -10.9070 C   0  0  0  0  0  0  0  0  0  0  0  0
   39.8270   27.6000  -11.8750 C   0  0  0  0  0  0  0  0  0  0  0  0
   39.5790   28.4390  -13.0600 C   0  0  0  0  0  0  0  0  0  0  0  0
   38.9660   27.6660  -14.1530 N   0  0  1  0  0  0  0  0  0  0  0  0
   37.9620   28.4630  -14.8640 C   0  0  0  0  0  0  0  0  0  0  0  0
   39.9920   27.0590  -15.0410 C   0  0  2  0  0  0  0  0  0  0  0  0
   39.4820   26.7120  -16.4490 C   0  0  0  0  0  0  0  0  0  0  0  0
   40.6390   25.8250  -14.3550 C   0  0  0  0  0  0  0  0  0  0  0  0
   42.1320   25.9590  -14.1400 C   0  0  0  0  0  0  0  0  0  0  0  0
   42.6600   27.0730  -13.4740 C   0  0  0  0  0  0  0  0  0  0  0  0
   44.0360   27.1890  -13.2700 C   0  0  0  0  0  0  0  0  0  0  0  0
   44.8960   26.1930  -13.7300 C   0  0  0  0  0  0  0  0  0  0  0  0
   44.3810   25.0830  -14.3960 C   0  0  0  0  0  0  0  0  0  0  0  0
   43.0060   24.9650  -14.6010 C   0  0  0  0  0  0  0  0  0  0  0  0
   40.2254   26.2956  -10.0209 H   0  0  0  0  0  0  0  0  0  0  0  0
   38.9026   29.2603  -12.7807 H   0  0  0  0  0  0  0  0  0  0  0  0
   40.5449   28.8286  -13.4139 H   0  0  0  0  0  0  0  0  0  0  0  0
   38.4630   26.8780  -13.7470 H   0  0  0  0  0  0  0  0  0  0  0  0
   37.3169   28.9751  -14.1349 H   0  0  0  0  0  0  0  0  0  0  0  0
   38.4663   29.2094  -15.4953 H   0  0  0  0  0  0  0  0  0  0  0  0
   37.3494   27.8025  -15.4953 H   0  0  0  0  0  0  0  0  0  0  0  0
   40.7578   27.8331  -15.1968 H   0  0  0  0  0  0  0  0  0  0  0  0
   38.5750   26.0949  -16.3687 H   0  0  0  0  0  0  0  0  0  0  0  0
   39.2478   27.6390  -16.9929 H   0  0  0  0  0  0  0  0  0  0  0  0
   40.2583   26.1538  -16.9929 H   0  0  0  0  0  0  0  0  0  0  0  0
   40.1590   25.6811  -13.3758 H   0  0  0  0  0  0  0  0  0  0  0  0
   40.4875   24.9680  -15.0277 H   0  0  0  0  0  0  0  0  0  0  0  0
   41.9854   27.8617  -13.1094 H   0  0  0  0  0  0  0  0  0  0  0  0
   44.4419   28.0668  -12.7460 H   0  0  0  0  0  0  0  0  0  0  0  0
   45.9801   26.2834  -13.5673 H   0  0  0  0  0  0  0  0  0  0  0  0
   45.0598   24.2981  -14.7609 H   0  0  0  0  0  0  0  0  0  0  0  0
   42.6054   24.0863  -15.1277 H   0  0  0  0  0  0  0  0  0  0  0  0
  1  2  3  0
  2  3  1  0
  3  4  1  0
  4  5  1  0
  4  6  1  0
  6  7  1  0
  6  8  1  0
  8  9  1  0
  9 10  2  0
 10 11  1  0
 11 12  2  0
 12 13  1  0
 13 14  2  0
 14  9  1  0
  1 15  1  0
  3 16  1  0
  3 17  1  0
  4 18  1  1
  5 19  1  0
  5 20  1  0
  5 21  1  0
  6 22  1  6
  7 23  1  0
  7 24  1  0
  7 25  1  0
  8 26  1  0
  8 27  1  0
 10 28  1  0
 11 29  1  0
 12 30  1  0
 13 31  1  0
 14 32  1  0
M  CHG  1   4   1
M  END
>  <meeko>  (7) 
{"is_sidechain": [false], "free_energy": -5.285, "intermolecular_energy": -6.891, "internal_energy": -0.015}

$$$$
selegiline_out
     RDKit          3D

 32 32  0  0  0  0  0  0  0  0999 V2000
   40.5730   26.8490  -10.8580 C   0  0  0  0  0  0  0  0  0  0  0  0
   41.6200   26.8680  -11.4450 C   0  0  0  0  0  0  0  0  0  0  0  0
   42.9090   26.8880  -12.1590 C   0  0  0  0  0  0  0  0  0  0  0  0
   42.7200   27.0100  -13.6150 N   0  0  1  0  0  0  0  0  0  0  0  0
   43.9880   27.3040  -14.2880 C   0  0  0  0  0  0  0  0  0  0  0  0
   41.9970   25.8390  -14.1760 C   0  0  2  0  0  0  0  0  0  0  0  0
   42.8810   24.6000  -14.4000 C   0  0  0  0  0  0  0  0  0  0  0  0
   41.2470   26.2380  -15.4770 C   0  0  0  0  0  0  0  0  0  0  0  0
   39.9980   27.0580  -15.2330 C   0  0  0  0  0  0  0  0  0  0  0  0
   39.8550   27.8100  -14.0590 C   0  0  0  0  0  0  0  0  0  0  0  0
   38.7060   28.5710  -13.8430 C   0  0  0  0  0  0  0  0  0  0  0  0
   37.6890   28.5880  -14.7960 C   0  0  0  0  0  0  0  0  0  0  0  0
   37.8190   27.8400  -15.9640 C   0  0  0  0  0  0  0  0  0  0  0  0
   38.9680   27.0780  -16.1830 C   0  0  0  0  0  0  0  0  0  0  0  0
   39.6136   26.8316  -10.3201 H   0  0  0  0  0  0  0  0  0  0  0  0
   43.5012   27.7438  -11.8028 H   0  0  0  0  0  0  0  0  0  0  0  0
   43.4289   25.9398  -11.9576 H   0  0  0  0  0  0  0  0  0  0  0  0
   42.1150   27.8100  -13.7950 H   0  0  0  0  0  0  0  0  0  0  0  0
   44.7693   27.4852  -13.5352 H   0  0  0  0  0  0  0  0  0  0  0  0
   44.2761   26.4488  -14.9170 H   0  0  0  0  0  0  0  0  0  0  0  0
   43.8704   28.1987  -14.9170 H   0  0  0  0  0  0  0  0  0  0  0  0
   41.2664   25.5367  -13.4113 H   0  0  0  0  0  0  0  0  0  0  0  0
   43.1794   24.1818  -13.4273 H   0  0  0  0  0  0  0  0  0  0  0  0
   42.3167   23.8445  -14.9664 H   0  0  0  0  0  0  0  0  0  0  0  0
   43.7790   24.8878  -14.9664 H   0  0  0  0  0  0  0  0  0  0  0  0
   41.9314   26.8266  -16.1057 H   0  0  0  0  0  0  0  0  0  0  0  0
   40.9283   25.3042  -15.9633 H   0  0  0  0  0  0  0  0  0  0  0  0
   40.6540   27.8001  -13.3030 H   0  0  0  0  0  0  0  0  0  0  0  0
   38.6024   29.1587  -12.9189 H   0  0  0  0  0  0  0  0  0  0  0  0
   36.7850   29.1912  -14.6260 H   0  0  0  0  0  0  0  0  0  0  0  0
   37.0151   27.8498  -16.7148 H   0  0  0  0  0  0  0  0  0  0  0  0
   39.0655   26.4895  -17.1072 H   0  0  0  0  0  0  0  0  0  0  0  0
  1  2  3  0
  2  3  1  0
  3  4  1  0
  4  5  1  0
  4  6  1  0
  6  7  1  0
  6  8  1  0
  8  9  1  0
  9 10  2  0
 10 11  1  0
 11 12  2  0
 12 13  1  0
 13 14  2  0
 14  9  1  0
  1 15  1  0
  3 16  1  0
  3 17  1  0
  4 18  1  1
  5 19  1  0
  5 20  1  0
  5 21  1  0
  6 22  1  1
  7 23  1  0
  7 24  1  0
  7 25  1  0
  8 26  1  0
  8 27  1  0
 10 28  1  0
 11 29  1  0
 12 30  1  0
 13 31  1  0
 14 32  1  0
M  CHG  1   4   1
M  END
>  <meeko>  (8) 
{"is_sidechain": [false], "free_energy": -4.581, "intermolecular_energy": -5.975, "internal_energy": -0.062}

$$$$
selegiline_out
     RDKit          3D

 32 32  0  0  0  0  0  0  0  0999 V2000
   42.5800   25.2680  -15.7260 C   0  0  0  0  0  0  0  0  0  0  0  0
   43.4290   25.1640  -14.8830 C   0  0  0  0  0  0  0  0  0  0  0  0
   44.4750   25.0320  -13.8530 C   0  0  0  0  0  0  0  0  0  0  0  0
   44.3600   26.0800  -12.8250 N   0  0  1  0  0  0  0  0  0  0  0  0
   45.6760   26.6160  -12.4700 C   0  0  0  0  0  0  0  0  0  0  0  0
   43.3680   27.1190  -13.2070 C   0  0  2  0  0  0  0  0  0  0  0  0
   43.9270   28.5520  -13.2130 C   0  0  0  0  0  0  0  0  0  0  0  0
   42.1010   27.0120  -12.3150 C   0  0  0  0  0  0  0  0  0  0  0  0
   40.8100   27.2990  -13.0520 C   0  0  0  0  0  0  0  0  0  0  0  0
   40.2000   26.3090  -13.8350 C   0  0  0  0  0  0  0  0  0  0  0  0
   39.0060   26.5750  -14.5060 C   0  0  0  0  0  0  0  0  0  0  0  0
   38.4100   27.8310  -14.4020 C   0  0  0  0  0  0  0  0  0  0  0  0
   39.0110   28.8230  -13.6280 C   0  0  0  0  0  0  0  0  0  0  0  0
   40.2050   28.5590  -12.9570 C   0  0  0  0  0  0  0  0  0  0  0  0
   41.8024   25.3633  -16.4981 H   0  0  0  0  0  0  0  0  0  0  0  0
   44.3793   24.0477  -13.3714 H   0  0  0  0  0  0  0  0  0  0  0  0
   45.4545   25.1368  -14.3425 H   0  0  0  0  0  0  0  0  0  0  0  0
   43.9900   25.6570  -11.9740 H   0  0  0  0  0  0  0  0  0  0  0  0
   45.7726   26.6554  -11.3750 H   0  0  0  0  0  0  0  0  0  0  0  0
   46.4606   25.9658  -12.8842 H   0  0  0  0  0  0  0  0  0  0  0  0
   45.7831   27.6294  -12.8842 H   0  0  0  0  0  0  0  0  0  0  0  0
   43.0962   26.9121  -14.2526 H   0  0  0  0  0  0  0  0  0  0  0  0
   44.0617   28.8974  -12.1773 H   0  0  0  0  0  0  0  0  0  0  0  0
   44.8963   28.5653  -13.7330 H   0  0  0  0  0  0  0  0  0  0  0  0
   43.2228   29.2181  -13.7330 H   0  0  0  0  0  0  0  0  0  0  0  0
   42.0486   25.9915  -11.9077 H   0  0  0  0  0  0  0  0  0  0  0  0
   42.1974   27.7744  -11.5280 H   0  0  0  0  0  0  0  0  0  0  0  0
   40.6657   25.3161  -13.9209 H   0  0  0  0  0  0  0  0  0  0  0  0
   38.5341   25.7923  -15.1181 H   0  0  0  0  0  0  0  0  0  0  0  0
   37.4674   28.0391  -14.9295 H   0  0  0  0  0  0  0  0  0  0  0  0
   38.5429   29.8151  -13.5465 H   0  0  0  0  0  0  0  0  0  0  0  0
   40.6750   29.3459  -12.3488 H   0  0  0  0  0  0  0  0  0  0  0  0
  1  2  3  0
  2  3  1  0
  3  4  1  0
  4  5  1  0
  4  6  1  0
  6  7  1  0
  6  8  1  0
  8  9  1  0
  9 10  2  0
 10 11  1  0
 11 12  2  0
 12 13  1  0
 13 14  2  0
 14  9  1  0
  1 15  1  0
  3 16  1  0
  3 17  1  0
  4 18  1  1
  5 19  1  0
  5 20  1  0
  5 21  1  0
  6 22  1  6
  7 23  1  0
  7 24  1  0
  7 25  1  0
  8 26  1  0
  8 27  1  0
 10 28  1  0
 11 29  1  0
 12 30  1  0
 13 31  1  0
 14 32  1  0
M  CHG  1   4   1
M  END
>  <meeko>  (9) 
{"is_sidechain": [false], "free_energy": -4.479, "intermolecular_energy": -5.761, "internal_energy": -0.152}

$$$$
