native_9IV_out
     RDKit          3D

 37 40  0  0  0  0  0  0  0  0999 V2000
   19.4460  -22.7270   40.3560 Cl  0  0  0  0  0  0  0  0  0  0  0  0
   18.9050  -23.0240   38.7450 C   0  0  0  0  0  0  0  0  0  0  0  0
   19.1620  -22.0620   37.7660 C   0  0  0  0  0  0  0  0  0  0  0  0
   18.7390  -22.2720   36.4510 C   0  0  0  0  0  0  0  0  0  0  0  0
   18.0650  -23.4450   36.1130 C   0  0  0  0  0  0  0  0  0  0  0  0
   17.8070  -24.4100   37.0890 C   0  0  0  0  0  0  0  0  0  0  0  0
   18.2110  -24.1920   38.4120 C   0  0  0  0  0  0  0  0  0  0  0  0
   18.0000  -25.1500   39.3790 O   0  0  0  0  0  0  0  0  0  0  0  0
   19.1030  -25.8390   39.8280 C   0  0  0  0  0  0  0  0  0  0  0  0
   20.2250  -26.0810   39.0350 C   0  0  0  0  0  0  0  0  0  0  0  0
   21.2940  -26.8160   39.5540 C   0  0  0  0  0  0  0  0  0  0  0  0
   21.2580  -27.3200   40.8620 C   0  0  0  0  0  0  0  0  0  0  0  0
   22.3570  -28.0800   41.3140 N   0  0  0  0  0  0  0  0  0  0  0  0
   23.0110  -28.0020   42.5540 C   0  0  0  0  0  0  0  0  0  0  0  0
   22.7020  -26.9390   43.3390 N   0  0  0  0  0  0  0  0  0  0  0  0
   23.2990  -26.8290   44.5420 C   0  0  0  0  0  0  0  0  0  0  0  0
   24.1850  -27.6630   45.1090 N   0  0  0  0  0  0  0  0  0  0  0  0
   24.4380  -28.7140   44.3160 C   0  0  0  0  0  0  0  0  0  0  0  0
   25.2800  -29.7430   44.6360 N   0  0  0  0  0  0  0  0  0  0  0  0
   25.2940  -30.6650   43.6210 C   0  0  0  0  0  0  0  0  0  0  0  0
   24.4450  -30.2110   42.6330 C   0  0  0  0  0  0  0  0  0  0  0  0
   23.9060  -28.9620   43.0590 C   0  0  0  0  0  0  0  0  0  0  0  0
   20.1060  -27.1060   41.6270 C   0  0  0  0  0  0  0  0  0  0  0  0
   19.0330  -26.3710   41.1140 C   0  0  0  0  0  0  0  0  0  0  0  0
   19.6978  -21.1383   38.0302 H   0  0  0  0  0  0  0  0  0  0  0  0
   18.9378  -21.5113   35.6817 H   0  0  0  0  0  0  0  0  0  0  0  0
   17.7362  -23.6104   35.0764 H   0  0  0  0  0  0  0  0  0  0  0  0
   17.2868  -25.3407   36.8187 H   0  0  0  0  0  0  0  0  0  0  0  0
   20.2679  -25.6949   38.0059 H   0  0  0  0  0  0  0  0  0  0  0  0
   22.1780  -27.0022   38.9264 H   0  0  0  0  0  0  0  0  0  0  0  0
   22.7080  -28.7480   40.6820 H   0  0  0  0  0  0  0  0  0  0  0  0
   23.0257  -25.9435   45.1346 H   0  0  0  0  0  0  0  0  0  0  0  0
   25.7990  -29.8120   45.4700 H   0  0  0  0  0  0  0  0  0  0  0  0
   25.8767  -31.5977   43.5987 H   0  0  0  0  0  0  0  0  0  0  0  0
   24.2233  -30.7222   41.6846 H   0  0  0  0  0  0  0  0  0  0  0  0
   20.0439  -27.5209   42.6439 H   0  0  0  0  0  0  0  0  0  0  0  0
   18.1328  -26.2126   41.7260 H   0  0  0  0  0  0  0  0  0  0  0  0
  1  2  1  0
  2  3  2  0
  3  4  1  0
  4  5  2  0
  5  6  1  0
  6  7  2  0
  7  8  1  0
  8  9  1  0
  9 10  2  0
 10 11  1  0
 11 12  2  0
 12 13  1  0
 13 14  1  0
 14 15  2  0
 15 16  1  0
 16 17  2  0
 17 18  1  0
 18 19  1  0
 19 20  1  0
 20 21  2  0
 21 22  1  0
 12 23  1  0
 23 24  2  0
  7  2  1  0
 24  9  1  0
 22 14  1  0
 22 18  2  0
  3 25  1  0
  4 26  1  0
  5 27  1  0
  6 28  1  0
 10 29  1  0
 11 30  1  0
 13 31  1  0
 16 32  1  0
 19 33  1  0
 20 34  1  0
 21 35  1  0
 23 36  1  0
 24 37  1  0
M  END
>  <meeko>  (1) 
{"is_sidechain": [false], "free_energy": -8.904, "intermolecular_energy": -10.987, "internal_energy": -0.171}

$$$$
native_9IV_out
     RDKit          3D

 37 40  0  0  0  0  0  0  0  0999 V2000
   17.2450  -24.4440   36.8410 Cl  0  0  0  0  0  0  0  0  0  0  0  0
   18.1210  -24.3750   38.3260 C   0  0  0  0  0  0  0  0  0  0  0  0
   18.7960  -23.1960   38.6500 C   0  0  0  0  0  0  0  0  0  0  0  0
   19.5130  -23.1080   39.8460 C   0  0  0  0  0  0  0  0  0  0  0  0
   19.5520  -24.1940   40.7200 C   0  0  0  0  0  0  0  0  0  0  0  0
   18.8770  -25.3740   40.4000 C   0  0  0  0  0  0  0  0  0  0  0  0
   18.1750  -25.4720   39.1920 C   0  0  0  0  0  0  0  0  0  0  0  0
   17.4720  -26.6150   38.8790 O   0  0  0  0  0  0  0  0  0  0  0  0
   18.2040  -27.7160   38.4980 C   0  0  0  0  0  0  0  0  0  0  0  0
   18.8580  -27.8080   37.2690 C   0  0  0  0  0  0  0  0  0  0  0  0
   19.5560  -28.9730   36.9420 C   0  0  0  0  0  0  0  0  0  0  0  0
   19.6120  -30.0570   37.8300 C   0  0  0  0  0  0  0  0  0  0  0  0
   20.3080  -31.2150   37.4280 N   0  0  0  0  0  0  0  0  0  0  0  0
   19.7750  -32.4240   36.9540 C   0  0  0  0  0  0  0  0  0  0  0  0
   19.8120  -32.6220   35.6120 N   0  0  0  0  0  0  0  0  0  0  0  0
   19.3200  -33.7740   35.1140 C   0  0  0  0  0  0  0  0  0  0  0  0
   18.7860  -34.8070   35.7850 N   0  0  0  0  0  0  0  0  0  0  0  0
   18.7970  -34.5850   37.1080 C   0  0  0  0  0  0  0  0  0  0  0  0
   18.3430  -35.4700   38.0460 N   0  0  0  0  0  0  0  0  0  0  0  0
   18.5220  -34.9470   39.3010 C   0  0  0  0  0  0  0  0  0  0  0  0
   19.0990  -33.7030   39.1570 C   0  0  0  0  0  0  0  0  0  0  0  0
   19.2650  -33.4560   37.7630 C   0  0  0  0  0  0  0  0  0  0  0  0
   18.9130  -29.9630   39.0400 C   0  0  0  0  0  0  0  0  0  0  0  0
   18.2120  -28.8000   39.3730 C   0  0  0  0  0  0  0  0  0  0  0  0
   18.7632  -22.3369   37.9638 H   0  0  0  0  0  0  0  0  0  0  0  0
   20.0477  -22.1805   40.0986 H   0  0  0  0  0  0  0  0  0  0  0  0
   20.1149  -24.1211   41.6622 H   0  0  0  0  0  0  0  0  0  0  0  0
   18.8967  -26.2256   41.0960 H   0  0  0  0  0  0  0  0  0  0  0  0
   18.8241  -26.9670   36.5608 H   0  0  0  0  0  0  0  0  0  0  0  0
   20.0702  -29.0413   35.9720 H   0  0  0  0  0  0  0  0  0  0  0  0
   21.2900  -31.1700   37.4860 H   0  0  0  0  0  0  0  0  0  0  0  0
   19.3612  -33.8812   34.0200 H   0  0  0  0  0  0  0  0  0  0  0  0
   17.9460  -36.3490   37.8510 H   0  0  0  0  0  0  0  0  0  0  0  0
   18.2537  -35.4323   40.2510 H   0  0  0  0  0  0  0  0  0  0  0  0
   19.3812  -33.0218   39.9733 H   0  0  0  0  0  0  0  0  0  0  0  0
   18.9155  -30.8143   39.7366 H   0  0  0  0  0  0  0  0  0  0  0  0
   17.6665  -28.7409   40.3264 H   0  0  0  0  0  0  0  0  0  0  0  0
  1  2  1  0
  2  3  2  0
  3  4  1  0
  4  5  2  0
  5  6  1  0
  6  7  2  0
  7  8  1  0
  8  9  1  0
  9 10  2  0
 10 11  1  0
 11 12  2  0
 12 13  1  0
 13 14  1  0
 14 15  2  0
 15 16  1  0
 16 17  2  0
 17 18  1  0
 18 19  1  0
 19 20  1  0
 20 21  2  0
 21 22  1  0
 12 23  1  0
 23 24  2  0
  7  2  1  0
 24  9  1  0
 22 14  1  0
 22 18  2  0
  3 25  1  0
  4 26  1  0
  5 27  1  0
  6 28  1  0
 10 29  1  0
 11 30  1  0
 13 31  1  0
 16 32  1  0
 19 33  1  0
 20 34  1  0
 21 35  1  0
 23 36  1  0
 24 37  1  0
M  END
>  <meeko>  (2) 
{"is_sidechain": [false], "free_energy": -8.343, "intermolecular_energy": -9.537, "internal_energy": -0.928}

$$$$
native_9IV_out
     RDKit          3D

 37 40  0  0  0  0  0  0  0  0999 V2000
   19.5080  -23.6720   40.4370 Cl  0  0  0  0  0  0  0  0  0  0  0  0
   18.8650  -23.4100   38.8580 C   0  0  0  0  0  0  0  0  0  0  0  0
   19.3470  -22.3330   38.1110 C   0  0  0  0  0  0  0  0  0  0  0  0
   18.8490  -22.0930   36.8280 C   0  0  0  0  0  0  0  0  0  0  0  0
   17.8730  -22.9330   36.2890 C   0  0  0  0  0  0  0  0  0  0  0  0
   17.3900  -24.0110   37.0330 C   0  0  0  0  0  0  0  0  0  0  0  0
   17.8730  -24.2400   38.3270 C   0  0  0  0  0  0  0  0  0  0  0  0
   17.4360  -25.3220   39.0600 O   0  0  0  0  0  0  0  0  0  0  0  0
   18.1100  -26.5090   38.8870 C   0  0  0  0  0  0  0  0  0  0  0  0
   18.8830  -27.0990   39.8880 C   0  0  0  0  0  0  0  0  0  0  0  0
   19.5640  -28.2900   39.6240 C   0  0  0  0  0  0  0  0  0  0  0  0
   19.4870  -28.9050   38.3660 C   0  0  0  0  0  0  0  0  0  0  0  0
   20.2230  -30.0900   38.1570 N   0  0  0  0  0  0  0  0  0  0  0  0
   19.8090  -31.2600   37.5000 C   0  0  0  0  0  0  0  0  0  0  0  0
   20.0480  -31.3260   36.1660 N   0  0  0  0  0  0  0  0  0  0  0  0
   19.6760  -32.4360   35.4970 C   0  0  0  0  0  0  0  0  0  0  0  0
   19.0890  -33.5410   35.9840 N   0  0  0  0  0  0  0  0  0  0  0  0
   18.9010  -33.4480   37.3080 C   0  0  0  0  0  0  0  0  0  0  0  0
   18.3480  -34.4290   38.0840 N   0  0  0  0  0  0  0  0  0  0  0  0
   18.3240  -34.0250   39.3950 C   0  0  0  0  0  0  0  0  0  0  0  0
   18.8690  -32.7600   39.4520 C   0  0  0  0  0  0  0  0  0  0  0  0
   19.2260  -32.3760   38.1260 C   0  0  0  0  0  0  0  0  0  0  0  0
   18.7430  -28.2750   37.3610 C   0  0  0  0  0  0  0  0  0  0  0  0
   18.0590  -27.0830   37.6180 C   0  0  0  0  0  0  0  0  0  0  0  0
   20.1193  -21.6732   38.5331 H   0  0  0  0  0  0  0  0  0  0  0  0
   19.2261  -21.2417   36.2422 H   0  0  0  0  0  0  0  0  0  0  0  0
   17.4842  -22.7454   35.2773 H   0  0  0  0  0  0  0  0  0  0  0  0
   16.6303  -24.6802   36.6028 H   0  0  0  0  0  0  0  0  0  0  0  0
   18.9557  -26.6287   40.8798 H   0  0  0  0  0  0  0  0  0  0  0  0
   20.1707  -28.7531   40.4161 H   0  0  0  0  0  0  0  0  0  0  0  0
   21.1400  -30.0970   38.5150 H   0  0  0  0  0  0  0  0  0  0  0  0
   19.8790  -32.4363   34.4159 H   0  0  0  0  0  0  0  0  0  0  0  0
   18.0170  -35.2950   37.7520 H   0  0  0  0  0  0  0  0  0  0  0  0
   17.9394  -34.6055   40.2466 H   0  0  0  0  0  0  0  0  0  0  0  0
   19.0045  -32.1540   40.3599 H   0  0  0  0  0  0  0  0  0  0  0  0
   18.6961  -28.7231   36.3575 H   0  0  0  0  0  0  0  0  0  0  0  0
   17.4803  -26.5979   36.8182 H   0  0  0  0  0  0  0  0  0  0  0  0
  1  2  1  0
  2  3  2  0
  3  4  1  0
  4  5  2  0
  5  6  1  0
  6  7  2  0
  7  8  1  0
  8  9  1  0
  9 10  2  0
 10 11  1  0
 11 12  2  0
 12 13  1  0
 13 14  1  0
 14 15  2  0
 15 16  1  0
 16 17  2  0
 17 18  1  0
 18 19  1  0
 19 20  1  0
 20 21  2  0
 21 22  1  0
 12 23  1  0
 23 24  2  0
  7  2  1  0
 24  9  1  0
 22 14  1  0
 22 18  2  0
  3 25  1  0
  4 26  1  0
  5 27  1  0
  6 28  1  0
 10 29  1  0
 11 30  1  0
 13 31  1  0
 16 32  1  0
 19 33  1  0
 20 34  1  0
 21 35  1  0
 23 36  1  0
 24 37  1  0
M  END
>  <meeko>  (3) 
{"is_sidechain": [false], "free_energy": -8.327, "intermolecular_energy": -9.856, "internal_energy": -0.588}

$$$$
native_9IV_out
     RDKit          3D

 37 40  0  0  0  0  0  0  0  0999 V2000
   22.6810  -26.1800   45.3850 Cl  0  0  0  0  0  0  0  0  0  0  0  0
   23.2930  -27.4460   44.3860 C   0  0  0  0  0  0  0  0  0  0  0  0
   24.1850  -28.3650   44.9430 C   0  0  0  0  0  0  0  0  0  0  0  0
   24.6980  -29.4020   44.1610 C   0  0  0  0  0  0  0  0  0  0  0  0
   24.3160  -29.5260   42.8250 C   0  0  0  0  0  0  0  0  0  0  0  0
   23.4230  -28.6100   42.2650 C   0  0  0  0  0  0  0  0  0  0  0  0
   22.9240  -27.5570   43.0410 C   0  0  0  0  0  0  0  0  0  0  0  0
   22.0130  -26.6670   42.5160 O   0  0  0  0  0  0  0  0  0  0  0  0
   21.3160  -27.0700   41.4000 C   0  0  0  0  0  0  0  0  0  0  0  0
   20.2530  -27.9730   41.4510 C   0  0  0  0  0  0  0  0  0  0  0  0
   19.6150  -28.3580   40.2690 C   0  0  0  0  0  0  0  0  0  0  0  0
   20.0260  -27.8540   39.0280 C   0  0  0  0  0  0  0  0  0  0  0  0
   19.3600  -28.3060   37.8700 N   0  0  0  0  0  0  0  0  0  0  0  0
   19.5970  -29.4800   37.1380 C   0  0  0  0  0  0  0  0  0  0  0  0
   19.9670  -29.3250   35.8410 N   0  0  0  0  0  0  0  0  0  0  0  0
   20.2150  -30.4260   35.1040 C   0  0  0  0  0  0  0  0  0  0  0  0
   20.1590  -31.7120   35.4870 N   0  0  0  0  0  0  0  0  0  0  0  0
   19.8210  -31.8190   36.7800 C   0  0  0  0  0  0  0  0  0  0  0  0
   19.7090  -33.0020   37.4570 N   0  0  0  0  0  0  0  0  0  0  0  0
   19.3750  -32.7580   38.7650 C   0  0  0  0  0  0  0  0  0  0  0  0
   19.2680  -31.3920   38.9210 C   0  0  0  0  0  0  0  0  0  0  0  0
   19.5360  -30.7850   37.6590 C   0  0  0  0  0  0  0  0  0  0  0  0
   21.1230  -26.9840   38.9920 C   0  0  0  0  0  0  0  0  0  0  0  0
   21.7660  -26.5940   40.1700 C   0  0  0  0  0  0  0  0  0  0  0  0
   24.4835  -28.2720   45.9976 H   0  0  0  0  0  0  0  0  0  0  0  0
   25.4045  -30.1223   44.5992 H   0  0  0  0  0  0  0  0  0  0  0  0
   24.7186  -30.3460   42.2122 H   0  0  0  0  0  0  0  0  0  0  0  0
   23.1120  -28.7157   41.2152 H   0  0  0  0  0  0  0  0  0  0  0  0
   19.9191  -28.3796   42.4170 H   0  0  0  0  0  0  0  0  0  0  0  0
   18.7763  -29.0684   40.3135 H   0  0  0  0  0  0  0  0  0  0  0  0
   18.6390  -27.7260   37.5330 H   0  0  0  0  0  0  0  0  0  0  0  0
   20.4992  -30.2487   34.0562 H   0  0  0  0  0  0  0  0  0  0  0  0
   19.8480  -33.8950   37.0650 H   0  0  0  0  0  0  0  0  0  0  0  0
   19.2205  -33.5151   39.5479 H   0  0  0  0  0  0  0  0  0  0  0  0
   19.0199  -30.8643   39.8537 H   0  0  0  0  0  0  0  0  0  0  0  0
   21.4828  -26.6031   38.0248 H   0  0  0  0  0  0  0  0  0  0  0  0
   22.6274  -25.9113   40.1263 H   0  0  0  0  0  0  0  0  0  0  0  0
  1  2  1  0
  2  3  2  0
  3  4  1  0
  4  5  2  0
  5  6  1  0
  6  7  2  0
  7  8  1  0
  8  9  1  0
  9 10  2  0
 10 11  1  0
 11 12  2  0
 12 13  1  0
 13 14  1  0
 14 15  2  0
 15 16  1  0
 16 17  2  0
 17 18  1  0
 18 19  1  0
 19 20  1  0
 20 21  2  0
 21 22  1  0
 12 23  1  0
 23 24  2  0
  7  2  1  0
 24  9  1  0
 22 14  1  0
 22 18  2  0
  3 25  1  0
  4 26  1  0
  5 27  1  0
  6 28  1  0
 10 29  1  0
 11 30  1  0
 13 31  1  0
 16 32  1  0
 19 33  1  0
 20 34  1  0
 21 35  1  0
 23 36  1  0
 24 37  1  0
M  END
>  <meeko>  (4) 
{"is_sidechain": [false], "free_energy": -8.308, "intermolecular_energy": -10.0, "internal_energy": -0.422}

$$$$
native_9IV_out
     RDKit          3D

 37 40  0  0  0  0  0  0  0  0999 V2000
   19.6160  -23.6050   40.3120 Cl  0  0  0  0  0  0  0  0  0  0  0  0
   18.9040  -23.3520   38.7610 C   0  0  0  0  0  0  0  0  0  0  0  0
   19.3210  -22.2540   38.0050 C   0  0  0  0  0  0  0  0  0  0  0  0
   18.7650  -22.0220   36.7450 C   0  0  0  0  0  0  0  0  0  0  0  0
   17.7980  -22.8890   36.2370 C   0  0  0  0  0  0  0  0  0  0  0  0
   17.3790  -23.9880   36.9890 C   0  0  0  0  0  0  0  0  0  0  0  0
   17.9200  -24.2110   38.2620 C   0  0  0  0  0  0  0  0  0  0  0  0
   17.5470  -25.3120   39.0010 O   0  0  0  0  0  0  0  0  0  0  0  0
   18.1760  -26.5010   38.7120 C   0  0  0  0  0  0  0  0  0  0  0  0
   17.9880  -27.1910   37.5140 C   0  0  0  0  0  0  0  0  0  0  0  0
   18.6390  -28.4100   37.3070 C   0  0  0  0  0  0  0  0  0  0  0  0
   19.4800  -28.9560   38.2870 C   0  0  0  0  0  0  0  0  0  0  0  0
   20.0840  -30.2040   38.0290 N   0  0  0  0  0  0  0  0  0  0  0  0
   19.5270  -31.4830   38.1850 C   0  0  0  0  0  0  0  0  0  0  0  0
   18.9950  -31.7710   39.4000 N   0  0  0  0  0  0  0  0  0  0  0  0
   18.4400  -32.9850   39.5910 C   0  0  0  0  0  0  0  0  0  0  0  0
   18.3200  -33.9910   38.7110 N   0  0  0  0  0  0  0  0  0  0  0  0
   18.8280  -33.6550   37.5160 C   0  0  0  0  0  0  0  0  0  0  0  0
   18.8250  -34.4670   36.4160 N   0  0  0  0  0  0  0  0  0  0  0  0
   19.3970  -33.8110   35.3550 C   0  0  0  0  0  0  0  0  0  0  0  0
   19.7730  -32.5580   35.7920 C   0  0  0  0  0  0  0  0  0  0  0  0
   19.4290  -32.4540   37.1710 C   0  0  0  0  0  0  0  0  0  0  0  0
   19.6220  -28.2720   39.5000 C   0  0  0  0  0  0  0  0  0  0  0  0
   18.9740  -27.0520   39.7140 C   0  0  0  0  0  0  0  0  0  0  0  0
   20.0873  -21.5720   38.4020 H   0  0  0  0  0  0  0  0  0  0  0  0
   19.0903  -21.1542   36.1525 H   0  0  0  0  0  0  0  0  0  0  0  0
   17.3648  -22.7067   35.2425 H   0  0  0  0  0  0  0  0  0  0  0  0
   16.6250  -24.6781   36.5825 H   0  0  0  0  0  0  0  0  0  0  0  0
   17.3300  -26.7771   36.7357 H   0  0  0  0  0  0  0  0  0  0  0  0
   18.4893  -28.9497   36.3603 H   0  0  0  0  0  0  0  0  0  0  0  0
   21.0110  -30.1750   37.6980 H   0  0  0  0  0  0  0  0  0  0  0  0
   18.0341  -33.1748   40.5956 H   0  0  0  0  0  0  0  0  0  0  0  0
   18.4680  -35.3830   36.3890 H   0  0  0  0  0  0  0  0  0  0  0  0
   19.5313  -34.2120   34.3395 H   0  0  0  0  0  0  0  0  0  0  0  0
   20.2533  -31.7773   35.1838 H   0  0  0  0  0  0  0  0  0  0  0  0
   20.2512  -28.6997   40.2945 H   0  0  0  0  0  0  0  0  0  0  0  0
   19.0936  -26.5266   40.6730 H   0  0  0  0  0  0  0  0  0  0  0  0
  1  2  1  0
  2  3  2  0
  3  4  1  0
  4  5  2  0
  5  6  1  0
  6  7  2  0
  7  8  1  0
  8  9  1  0
  9 10  2  0
 10 11  1  0
 11 12  2  0
 12 13  1  0
 13 14  1  0
 14 15  2  0
 15 16  1  0
 16 17  2  0
 17 18  1  0
 18 19  1  0
 19 20  1  0
 20 21  2  0
 21 22  1  0
 12 23  1  0
 23 24  2  0
  7  2  1  0
 24  9  1  0
 22 14  1  0
 22 18  2  0
  3 25  1  0
  4 26  1  0
  5 27  1  0
  6 28  1  0
 10 29  1  0
 11 30  1  0
 13 31  1  0
 16 32  1  0
 19 33  1  0
 20 34  1  0
 21 35  1  0
 23 36  1  0
 24 37  1  0
M  END
>  <meeko>  (5) 
{"is_sidechain": [false], "free_energy": -8.064, "intermolecular_energy": -9.48, "internal_energy": -0.641}

$$$$
native_9IV_out
     RDKit          3D

 37 40  0  0  0  0  0  0  0  0999 V2000
   19.6200  -32.7910   35.4200 Cl  0  0  0  0  0  0  0  0  0  0  0  0
   19.2560  -33.1880   37.0590 C   0  0  0  0  0  0  0  0  0  0  0  0
   18.5710  -34.3770   37.3220 C   0  0  0  0  0  0  0  0  0  0  0  0
   18.2620  -34.7290   38.6380 C   0  0  0  0  0  0  0  0  0  0  0  0
   18.6420  -33.8970   39.6920 C   0  0  0  0  0  0  0  0  0  0  0  0
   19.3270  -32.7080   39.4330 C   0  0  0  0  0  0  0  0  0  0  0  0
   19.6190  -32.3430   38.1130 C   0  0  0  0  0  0  0  0  0  0  0  0
   20.3280  -31.1930   37.8420 O   0  0  0  0  0  0  0  0  0  0  0  0
   19.6760  -29.9970   38.0300 C   0  0  0  0  0  0  0  0  0  0  0  0
   19.4440  -29.0850   36.9990 C   0  0  0  0  0  0  0  0  0  0  0  0
   18.8020  -27.8750   37.2760 C   0  0  0  0  0  0  0  0  0  0  0  0
   18.3860  -27.5590   38.5770 C   0  0  0  0  0  0  0  0  0  0  0  0
   17.7700  -26.3090   38.7950 N   0  0  0  0  0  0  0  0  0  0  0  0
   18.3540  -25.1320   39.2890 C   0  0  0  0  0  0  0  0  0  0  0  0
   18.6410  -25.1050   40.6150 N   0  0  0  0  0  0  0  0  0  0  0  0
   19.2120  -23.9970   41.1300 C   0  0  0  0  0  0  0  0  0  0  0  0
   19.5650  -22.8710   40.4910 N   0  0  0  0  0  0  0  0  0  0  0  0
   19.2940  -22.9510   39.1800 C   0  0  0  0  0  0  0  0  0  0  0  0
   19.5670  -21.9680   38.2700 N   0  0  0  0  0  0  0  0  0  0  0  0
   19.1890  -22.3780   37.0170 C   0  0  0  0  0  0  0  0  0  0  0  0
   18.6620  -23.6470   37.1340 C   0  0  0  0  0  0  0  0  0  0  0  0
   18.7100  -24.0160   38.5100 C   0  0  0  0  0  0  0  0  0  0  0  0
   18.6660  -28.4660   39.6060 C   0  0  0  0  0  0  0  0  0  0  0  0
   19.3080  -29.6780   39.3360 C   0  0  0  0  0  0  0  0  0  0  0  0
   18.2750  -35.0361   36.4925 H   0  0  0  0  0  0  0  0  0  0  0  0
   17.7186  -35.6630   38.8438 H   0  0  0  0  0  0  0  0  0  0  0  0
   18.4017  -34.1781   40.7280 H   0  0  0  0  0  0  0  0  0  0  0  0
   19.6369  -32.0587   40.2651 H   0  0  0  0  0  0  0  0  0  0  0  0
   19.7651  -29.3177   35.9730 H   0  0  0  0  0  0  0  0  0  0  0  0
   18.6202  -27.1594   36.4606 H   0  0  0  0  0  0  0  0  0  0  0  0
   16.8120  -26.2560   38.5740 H   0  0  0  0  0  0  0  0  0  0  0  0
   19.4140  -24.0191   42.2111 H   0  0  0  0  0  0  0  0  0  0  0  0
   19.9730  -21.0960   38.4820 H   0  0  0  0  0  0  0  0  0  0  0  0
   19.2882  -21.7992   36.0868 H   0  0  0  0  0  0  0  0  0  0  0  0
   18.2734  -24.2650   36.3112 H   0  0  0  0  0  0  0  0  0  0  0  0
   18.3774  -28.2221   40.6391 H   0  0  0  0  0  0  0  0  0  0  0  0
   19.5229  -30.3805   40.1547 H   0  0  0  0  0  0  0  0  0  0  0  0
  1  2  1  0
  2  3  2  0
  3  4  1  0
  4  5  2  0
  5  6  1  0
  6  7  2  0
  7  8  1  0
  8  9  1  0
  9 10  2  0
 10 11  1  0
 11 12  2  0
 12 13  1  0
 13 14  1  0
 14 15  2  0
 15 16  1  0
 16 17  2  0
 17 18  1  0
 18 19  1  0
 19 20  1  0
 20 21  2  0
 21 22  1  0
 12 23  1  0
 23 24  2  0
  7  2  1  0
 24  9  1  0
 22 14  1  0
 22 18  2  0
  3 25  1  0
  4 26  1  0
  5 27  1  0
  6 28  1  0
 10 29  1  0
 11 30  1  0
 13 31  1  0
 16 32  1  0
 19 33  1  0
 20 34  1  0
 21 35  1  0
 23 36  1  0
 24 37  1  0
M  END
>  <meeko>  (6) 
{"is_sidechain": [false], "free_energy": -7.779, "intermolecular_energy": -9.383, "internal_energy": -0.386}

$$$$
native_9IV_out
     RDKit          3D

 37 40  0  0  0  0  0  0  0  0999 V2000
   24.5320  -30.0450   42.3120 Cl  0  0  0  0  0  0  0  0  0  0  0  0
   23.8370  -28.7360   43.1930 C   0  0  0  0  0  0  0  0  0  0  0  0
   24.3520  -28.4310   44.4560 C   0  0  0  0  0  0  0  0  0  0  0  0
   23.8120  -27.3760   45.1950 C   0  0  0  0  0  0  0  0  0  0  0  0
   22.7620  -26.6220   44.6720 C   0  0  0  0  0  0  0  0  0  0  0  0
   22.2450  -26.9230   43.4110 C   0  0  0  0  0  0  0  0  0  0  0  0
   22.7700  -27.9930   42.6770 C   0  0  0  0  0  0  0  0  0  0  0  0
   22.2980  -28.2790   41.4140 O   0  0  0  0  0  0  0  0  0  0  0  0
   21.2420  -27.5260   40.9560 C   0  0  0  0  0  0  0  0  0  0  0  0
   19.9990  -27.4930   41.5880 C   0  0  0  0  0  0  0  0  0  0  0  0
   18.9650  -26.7270   41.0420 C   0  0  0  0  0  0  0  0  0  0  0  0
   19.1550  -25.9880   39.8650 C   0  0  0  0  0  0  0  0  0  0  0  0
   18.0630  -25.2600   39.3510 N   0  0  0  0  0  0  0  0  0  0  0  0
   17.8860  -24.7720   38.0470 C   0  0  0  0  0  0  0  0  0  0  0  0
   17.0780  -25.4950   37.2300 N   0  0  0  0  0  0  0  0  0  0  0  0
   16.8720  -25.0580   35.9720 C   0  0  0  0  0  0  0  0  0  0  0  0
   17.3620  -23.9540   35.3860 N   0  0  0  0  0  0  0  0  0  0  0  0
   18.1270  -23.2520   36.2350 C   0  0  0  0  0  0  0  0  0  0  0  0
   18.7400  -22.0690   35.9290 N   0  0  0  0  0  0  0  0  0  0  0  0
   19.4230  -21.6040   37.0240 C   0  0  0  0  0  0  0  0  0  0  0  0
   19.2420  -22.5130   38.0460 C   0  0  0  0  0  0  0  0  0  0  0  0
   18.4310  -23.5740   37.5490 C   0  0  0  0  0  0  0  0  0  0  0  0
   20.3960  -26.0690   39.2210 C   0  0  0  0  0  0  0  0  0  0  0  0
   21.4340  -26.8330   39.7610 C   0  0  0  0  0  0  0  0  0  0  0  0
   25.1830  -29.0221   44.8682 H   0  0  0  0  0  0  0  0  0  0  0  0
   24.2154  -27.1396   46.1907 H   0  0  0  0  0  0  0  0  0  0  0  0
   22.3407  -25.7890   45.2539 H   0  0  0  0  0  0  0  0  0  0  0  0
   21.4252  -26.3195   42.9941 H   0  0  0  0  0  0  0  0  0  0  0  0
   19.8332  -28.0670   42.5116 H   0  0  0  0  0  0  0  0  0  0  0  0
   17.9863  -26.7034   41.5436 H   0  0  0  0  0  0  0  0  0  0  0  0
   17.3340  -25.0700   39.9850 H   0  0  0  0  0  0  0  0  0  0  0  0
   16.2200  -25.6851   35.3462 H   0  0  0  0  0  0  0  0  0  0  0  0
   18.6990  -21.6180   35.0550 H   0  0  0  0  0  0  0  0  0  0  0  0
   20.0090  -20.6746   37.0775 H   0  0  0  0  0  0  0  0  0  0  0  0
   19.6512  -22.4329   39.0639 H   0  0  0  0  0  0  0  0  0  0  0  0
   20.5556  -25.5246   38.2786 H   0  0  0  0  0  0  0  0  0  0  0  0
   22.4030  -26.8879   39.2433 H   0  0  0  0  0  0  0  0  0  0  0  0
  1  2  1  0
  2  3  2  0
  3  4  1  0
  4  5  2  0
  5  6  1  0
  6  7  2  0
  7  8  1  0
  8  9  1  0
  9 10  2  0
 10 11  1  0
 11 12  2  0
 12 13  1  0
 13 14  1  0
 14 15  2  0
 15 16  1  0
 16 17  2  0
 17 18  1  0
 18 19  1  0
 19 20  1  0
 20 21  2  0
 21 22  1  0
 12 23  1  0
 23 24  2  0
  7  2  1  0
 24  9  1  0
 22 14  1  0
 22 18  2  0
  3 25  1  0
  4 26  1  0
  5 27  1  0
  6 28  1  0
 10 29  1  0
 11 30  1  0
 13 31  1  0
 16 32  1  0
 19 33  1  0
 20 34  1  0
 21 35  1  0
 23 36  1  0
 24 37  1  0
M  END
>  <meeko>  (7) 
{"is_sidechain": [false], "free_energy": -7.61, "intermolecular_energy": -9.294, "internal_energy": -0.267}

$$$$
native_9IV_out
     RDKit          3D

 37 40  0  0  0  0  0  0  0  0999 V2000
   19.6230  -32.7300   35.4810 Cl  0  0  0  0  0  0  0  0  0  0  0  0
   19.2460  -33.1770   37.1040 C   0  0  0  0  0  0  0  0  0  0  0  0
   18.5430  -34.3640   37.3250 C   0  0  0  0  0  0  0  0  0  0  0  0
   18.2230  -34.7540   38.6270 C   0  0  0  0  0  0  0  0  0  0  0  0
   18.6090  -33.9640   39.7090 C   0  0  0  0  0  0  0  0  0  0  0  0
   19.3130  -32.7780   39.4930 C   0  0  0  0  0  0  0  0  0  0  0  0
   19.6160  -32.3730   38.1870 C   0  0  0  0  0  0  0  0  0  0  0  0
   20.3430  -31.2250   37.9580 O   0  0  0  0  0  0  0  0  0  0  0  0
   19.6840  -30.0270   38.1040 C   0  0  0  0  0  0  0  0  0  0  0  0
   19.0120  -29.6640   39.2720 C   0  0  0  0  0  0  0  0  0  0  0  0
   18.3390  -28.4410   39.3320 C   0  0  0  0  0  0  0  0  0  0  0  0
   18.3230  -27.5690   38.2340 C   0  0  0  0  0  0  0  0  0  0  0  0
   17.6000  -26.3640   38.3500 N   0  0  0  0  0  0  0  0  0  0  0  0
   18.1000  -25.0530   38.3660 C   0  0  0  0  0  0  0  0  0  0  0  0
   17.9070  -24.3130   37.2450 N   0  0  0  0  0  0  0  0  0  0  0  0
   18.3620  -23.0450   37.2200 C   0  0  0  0  0  0  0  0  0  0  0  0
   18.9980  -22.3720   38.1930 N   0  0  0  0  0  0  0  0  0  0  0  0
   19.1410  -23.1260   39.2920 C   0  0  0  0  0  0  0  0  0  0  0  0
   19.7260  -22.7030   40.4530 N   0  0  0  0  0  0  0  0  0  0  0  0
   19.6870  -23.7080   41.3850 C   0  0  0  0  0  0  0  0  0  0  0  0
   19.0680  -24.7940   40.8040 C   0  0  0  0  0  0  0  0  0  0  0  0
   18.7290  -24.4390   39.4650 C   0  0  0  0  0  0  0  0  0  0  0  0
   18.9650  -27.9690   37.0560 C   0  0  0  0  0  0  0  0  0  0  0  0
   19.6410  -29.1910   36.9890 C   0  0  0  0  0  0  0  0  0  0  0  0
   18.2416  -34.9914   36.4732 H   0  0  0  0  0  0  0  0  0  0  0  0
   17.6653  -35.6863   38.7994 H   0  0  0  0  0  0  0  0  0  0  0  0
   18.3586  -34.2755   40.7338 H   0  0  0  0  0  0  0  0  0  0  0  0
   19.6294  -32.1622   40.3478 H   0  0  0  0  0  0  0  0  0  0  0  0
   19.0121  -30.3377   40.1415 H   0  0  0  0  0  0  0  0  0  0  0  0
   17.8131  -28.1576   40.2557 H   0  0  0  0  0  0  0  0  0  0  0  0
   16.6230  -26.4540   38.4290 H   0  0  0  0  0  0  0  0  0  0  0  0
   18.1911  -22.4912   36.2850 H   0  0  0  0  0  0  0  0  0  0  0  0
   20.1170  -21.8110   40.5980 H   0  0  0  0  0  0  0  0  0  0  0  0
   20.0791  -23.6568   42.4115 H   0  0  0  0  0  0  0  0  0  0  0  0
   18.8706  -25.7623   41.2872 H   0  0  0  0  0  0  0  0  0  0  0  0
   18.9373  -27.3141   36.1726 H   0  0  0  0  0  0  0  0  0  0  0  0
   20.1393  -29.4931   36.0560 H   0  0  0  0  0  0  0  0  0  0  0  0
  1  2  1  0
  2  3  2  0
  3  4  1  0
  4  5  2  0
  5  6  1  0
  6  7  2  0
  7  8  1  0
  8  9  1  0
  9 10  2  0
 10 11  1  0
 11 12  2  0
 12 13  1  0
 13 14  1  0
 14 15  2  0
 15 16  1  0
 16 17  2  0
 17 18  1  0
 18 19  1  0
 19 20  1  0
 20 21  2  0
 21 22  1  0
 12 23  1  0
 23 24  2  0
  7  2  1  0
 24  9  1  0
 22 14  1  0
 22 18  2  0
  3 25  1  0
  4 26  1  0
  5 27  1  0
  6 28  1  0
 10 29  1  0
 11 30  1  0
 13 31  1  0
 16 32  1  0
 19 33  1  0
 20 34  1  0
 21 35  1  0
 23 36  1  0
 24 37  1  0
M  END
>  <meeko>  (8) 
{"is_sidechain": [false], "free_energy": -7.482, "intermolecular_energy": -8.793, "internal_energy": -0.609}

$$$$
native_9IV_out
     RDKit          3D

 37 40  0  0  0  0  0  0  0  0999 V2000
   20.0970  -25.4340   49.4120 Cl  0  0  0  0  0  0  0  0  0  0  0  0
   20.9820  -23.9710   49.1840 C   0  0  0  0  0  0  0  0  0  0  0  0
   22.2530  -23.8620   49.7540 C   0  0  0  0  0  0  0  0  0  0  0  0
   22.9970  -22.6920   49.5870 C   0  0  0  0  0  0  0  0  0  0  0  0
   22.4740  -21.6310   48.8460 C   0  0  0  0  0  0  0  0  0  0  0  0
   21.2050  -21.7360   48.2750 C   0  0  0  0  0  0  0  0  0  0  0  0
   20.4490  -22.9000   48.4580 C   0  0  0  0  0  0  0  0  0  0  0  0
   19.2110  -23.0360   47.8680 O   0  0  0  0  0  0  0  0  0  0  0  0
   19.1880  -23.3540   46.5300 C   0  0  0  0  0  0  0  0  0  0  0  0
   18.1340  -23.0070   45.6830 C   0  0  0  0  0  0  0  0  0  0  0  0
   18.1700  -23.3940   44.3410 C   0  0  0  0  0  0  0  0  0  0  0  0
   19.2480  -24.1280   43.8270 C   0  0  0  0  0  0  0  0  0  0  0  0
   19.2080  -24.5130   42.4710 N   0  0  0  0  0  0  0  0  0  0  0  0
   19.9970  -25.4750   41.8210 C   0  0  0  0  0  0  0  0  0  0  0  0
   20.6570  -26.3570   42.6140 N   0  0  0  0  0  0  0  0  0  0  0  0
   21.4190  -27.3050   42.0320 C   0  0  0  0  0  0  0  0  0  0  0  0
   21.6180  -27.5210   40.7220 N   0  0  0  0  0  0  0  0  0  0  0  0
   20.9230  -26.6510   39.9750 C   0  0  0  0  0  0  0  0  0  0  0  0
   20.9080  -26.6420   38.6080 N   0  0  0  0  0  0  0  0  0  0  0  0
   20.0800  -25.6440   38.1600 C   0  0  0  0  0  0  0  0  0  0  0  0
   19.5630  -25.0030   39.2650 C   0  0  0  0  0  0  0  0  0  0  0  0
   20.1050  -25.6270   40.4270 C   0  0  0  0  0  0  0  0  0  0  0  0
   20.2740  -24.5050   44.7020 C   0  0  0  0  0  0  0  0  0  0  0  0
   20.2450  -24.1220   46.0460 C   0  0  0  0  0  0  0  0  0  0  0  0
   22.6681  -24.6987   50.3350 H   0  0  0  0  0  0  0  0  0  0  0  0
   23.9959  -22.6065   50.0397 H   0  0  0  0  0  0  0  0  0  0  0  0
   23.0626  -20.7114   48.7120 H   0  0  0  0  0  0  0  0  0  0  0  0
   20.7987  -20.9041   47.6810 H   0  0  0  0  0  0  0  0  0  0  0  0
   17.2798  -22.4320   46.0700 H   0  0  0  0  0  0  0  0  0  0  0  0
   17.3381  -23.1180   43.6763 H   0  0  0  0  0  0  0  0  0  0  0  0
   18.5450  -24.0490   41.9110 H   0  0  0  0  0  0  0  0  0  0  0  0
   21.9437  -27.9874   42.7169 H   0  0  0  0  0  0  0  0  0  0  0  0
   21.4130  -27.2590   38.0310 H   0  0  0  0  0  0  0  0  0  0  0  0
   19.8673  -25.3996   37.1088 H   0  0  0  0  0  0  0  0  0  0  0  0
   18.8572  -24.1594   39.2528 H   0  0  0  0  0  0  0  0  0  0  0  0
   21.1129  -25.1098   44.3273 H   0  0  0  0  0  0  0  0  0  0  0  0
   21.0573  -24.4272   46.7221 H   0  0  0  0  0  0  0  0  0  0  0  0
  1  2  1  0
  2  3  2  0
  3  4  1  0
  4  5  2  0
  5  6  1  0
  6  7  2  0
  7  8  1  0
  8  9  1  0
  9 10  2  0
 10 11  1  0
 11 12  2  0
 12 13  1  0
 13 14  1  0
 14 15  2  0
 15 16  1  0
 16 17  2  0
 17 18  1  0
 18 19  1  0
 19 20  1  0
 20 21  2  0
 21 22  1  0
 12 23  1  0
 23 24  2  0
  7  2  1  0
 24  9  1  0
 22 14  1  0
 22 18  2  0
  3 25  1  0
  4 26  1  0
  5 27  1  0
  6 28  1  0
 10 29  1  0
 11 30  1  0
 13 31  1  0
 16 32  1  0
 19 33  1  0
 20 34  1  0
 21 35  1  0
 23 36  1  0
 24 37  1  0
M  END
>  <meeko>  (9) 
{"is_sidechain": [false], "free_energy": -7.365, "intermolecular_energy": -9.398, "internal_energy": 0.14}

$$$$
