cand_015_out
     RDKit          3D

 36 38  0  0  0  0  0  0  0  0999 V2000
   23.3260  -27.1000   44.8540 C   0  0  0  0  0  0  0  0  0  0  0  0
   23.7710  -27.0640   43.5930 C   0  0  0  0  0  0  0  0  0  0  0  0
   24.8100  -26.2450   43.3130 F   0  0  0  0  0  0  0  0  0  0  0  0
   23.1870  -27.8280   42.4770 C   0  0  0  0  0  0  0  0  0  0  0  0
   22.0970  -27.2960   41.7670 C   0  0  0  0  0  0  0  0  0  0  0  0
   21.4990  -28.0040   40.7190 C   0  0  0  0  0  0  0  0  0  0  0  0
   21.9720  -29.2660   40.3500 C   0  0  0  0  0  0  0  0  0  0  0  0
   21.3390  -30.0490   39.2670 C   0  0  0  0  0  0  0  0  0  0  0  0
   20.5950  -31.1230   39.7410 O   0  0  0  0  0  0  0  0  0  0  0  0
   19.9540  -31.9340   38.8400 C   0  0  0  0  0  0  0  0  0  0  0  0
   19.2060  -32.9930   39.3600 C   0  0  0  0  0  0  0  0  0  0  0  0
   18.5300  -33.8580   38.4970 C   0  0  0  0  0  0  0  0  0  0  0  0
   18.6010  -33.6660   37.1160 C   0  0  0  0  0  0  0  0  0  0  0  0
   19.3460  -32.6090   36.6000 C   0  0  0  0  0  0  0  0  0  0  0  0
   19.3730  -32.4780   35.2380 O   0  0  0  0  0  0  0  0  0  0  0  0
   20.0230  -31.7430   37.4640 C   0  0  0  0  0  0  0  0  0  0  0  0
   20.8170  -30.6200   36.9630 C   0  0  0  0  0  0  0  0  0  0  0  0
   20.9340  -30.3900   35.7610 O   0  0  0  0  0  0  0  0  0  0  0  0
   21.4890  -29.7580   37.9620 C   0  0  0  0  0  0  0  0  0  0  0  0
   22.2480  -28.7080   37.4780 O   0  0  0  0  0  0  0  0  0  0  0  0
   23.0480  -29.8080   41.0680 C   0  0  0  0  0  0  0  0  0  0  0  0
   23.6680  -29.1040   42.1200 C   0  0  0  0  0  0  0  0  0  0  0  0
   24.8180  -29.7560   42.8420 C   0  0  0  0  0  0  0  0  0  0  0  0
   22.4827  -27.7538   45.1212 H   0  0  0  0  0  0  0  0  0  0  0  0
   23.8034  -26.4758   45.6237 H   0  0  0  0  0  0  0  0  0  0  0  0
   21.7068  -26.3045   42.0404 H   0  0  0  0  0  0  0  0  0  0  0  0
   20.6477  -27.5627   40.1799 H   0  0  0  0  0  0  0  0  0  0  0  0
   19.1496  -33.1453   40.4479 H   0  0  0  0  0  0  0  0  0  0  0  0
   17.9407  -34.6919   38.9059 H   0  0  0  0  0  0  0  0  0  0  0  0
   18.0693  -34.3486   36.4368 H   0  0  0  0  0  0  0  0  0  0  0  0
   19.2700  -31.6330   34.8470 H   0  0  0  0  0  0  0  0  0  0  0  0
   21.8640  -27.8590   37.3770 H   0  0  0  0  0  0  0  0  0  0  0  0
   23.4180  -30.8094   40.8030 H   0  0  0  0  0  0  0  0  0  0  0  0
   24.6655  -29.6695   43.9279 H   0  0  0  0  0  0  0  0  0  0  0  0
   24.8712  -30.8186   42.5627 H   0  0  0  0  0  0  0  0  0  0  0  0
   25.7571  -29.2560   42.5627 H   0  0  0  0  0  0  0  0  0  0  0  0
  1  2  2  0
  2  3  1  0
  2  4  1  0
  4  5  2  0
  5  6  1  0
  6  7  2  0
  7  8  1  0
  8  9  1  0
  9 10  1  0
 10 11  2  0
 11 12  1  0
 12 13  2  0
 13 14  1  0
 14 15  1  0
 14 16  2  0
 16 17  1  0
 17 18  2  0
 17 19  1  0
 19 20  1  0
  7 21  1  0
 21 22  2  0
 22 23  1  0
 22  4  1  0
 19  8  2  0
 16 10  1  0
  1 24  1  0
  1 25  1  0
  5 26  1  0
  6 27  1  0
 11 28  1  0
 12 29  1  0
 13 30  1  0
 15 31  1  0
 20 32  1  0
 21 33  1  0
 23 34  1  0
 23 35  1  0
 23 36  1  0
M  END
>  <meeko>  (1) 
{"is_sidechain": [false], "free_energy": -9.776, "intermolecular_energy": -11.491, "internal_energy": -0.529}

$$$$
cand_015_out
     RDKit          3D

 36 38  0  0  0  0  0  0  0  0999 V2000
   23.7260  -27.3580   44.7980 C   0  0  0  0  0  0  0  0  0  0  0  0
   23.8090  -27.0930   43.4900 C   0  0  0  0  0  0  0  0  0  0  0  0
   24.5310  -26.0170   43.1080 F   0  0  0  0  0  0  0  0  0  0  0  0
   23.1380  -27.8720   42.4350 C   0  0  0  0  0  0  0  0  0  0  0  0
   23.7100  -29.0770   41.9910 C   0  0  0  0  0  0  0  0  0  0  0  0
   23.1160  -29.8300   40.9720 C   0  0  0  0  0  0  0  0  0  0  0  0
   21.9320  -29.4010   40.3660 C   0  0  0  0  0  0  0  0  0  0  0  0
   21.3010  -30.1620   39.2670 C   0  0  0  0  0  0  0  0  0  0  0  0
   20.5440  -31.2370   39.7180 O   0  0  0  0  0  0  0  0  0  0  0  0
   19.9030  -32.0280   38.8000 C   0  0  0  0  0  0  0  0  0  0  0  0
   19.1420  -33.0880   39.2980 C   0  0  0  0  0  0  0  0  0  0  0  0
   18.4650  -33.9340   38.4170 C   0  0  0  0  0  0  0  0  0  0  0  0
   18.5480  -33.7210   37.0390 C   0  0  0  0  0  0  0  0  0  0  0  0
   19.3070  -32.6630   36.5450 C   0  0  0  0  0  0  0  0  0  0  0  0
   19.3450  -32.5110   35.1860 O   0  0  0  0  0  0  0  0  0  0  0  0
   19.9840  -31.8160   37.4280 C   0  0  0  0  0  0  0  0  0  0  0  0
   20.7920  -30.6930   36.9500 C   0  0  0  0  0  0  0  0  0  0  0  0
   20.9200  -30.4450   35.7530 O   0  0  0  0  0  0  0  0  0  0  0  0
   21.4640  -29.8520   37.9680 C   0  0  0  0  0  0  0  0  0  0  0  0
   22.2360  -28.8010   37.5050 O   0  0  0  0  0  0  0  0  0  0  0  0
   21.3680  -28.1900   40.7940 C   0  0  0  0  0  0  0  0  0  0  0  0
   21.9470  -27.4240   41.8250 C   0  0  0  0  0  0  0  0  0  0  0  0
   21.2790  -26.1360   42.2260 C   0  0  0  0  0  0  0  0  0  0  0  0
   23.1472  -28.2255   45.1478 H   0  0  0  0  0  0  0  0  0  0  0  0
   24.2366  -26.7085   45.5243 H   0  0  0  0  0  0  0  0  0  0  0  0
   24.6419  -29.4346   42.4532 H   0  0  0  0  0  0  0  0  0  0  0  0
   23.5858  -30.7692   40.6446 H   0  0  0  0  0  0  0  0  0  0  0  0
   19.0760  -33.2563   40.3830 H   0  0  0  0  0  0  0  0  0  0  0  0
   17.8657  -34.7691   38.8087 H   0  0  0  0  0  0  0  0  0  0  0  0
   18.0148  -34.3877   36.3453 H   0  0  0  0  0  0  0  0  0  0  0  0
   18.8690  -31.8140   34.7790 H   0  0  0  0  0  0  0  0  0  0  0  0
   23.0950  -28.6630   37.8530 H   0  0  0  0  0  0  0  0  0  0  0  0
   20.4481  -27.8284   40.3112 H   0  0  0  0  0  0  0  0  0  0  0  0
   21.2435  -26.0675   43.3233 H   0  0  0  0  0  0  0  0  0  0  0  0
   21.8500  -25.2861   41.8239 H   0  0  0  0  0  0  0  0  0  0  0  0
   20.2554  -26.1131   41.8239 H   0  0  0  0  0  0  0  0  0  0  0  0
  1  2  2  0
  2  3  1  0
  2  4  1  0
  4  5  2  0
  5  6  1  0
  6  7  2  0
  7  8  1  0
  8  9  1  0
  9 10  1  0
 10 11  2  0
 11 12  1  0
 12 13  2  0
 13 14  1  0
 14 15  1  0
 14 16  2  0
 16 17  1  0
 17 18  2  0
 17 19  1  0
 19 20  1  0
  7 21  1  0
 21 22  2  0
 22 23  1  0
 22  4  1  0
 19  8  2  0
 16 10  1  0
  1 24  1  0
  1 25  1  0
  5 26  1  0
  6 27  1  0
 11 28  1  0
 12 29  1  0
 13 30  1  0
 15 31  1  0
 20 32  1  0
 21 33  1  0
 23 34  1  0
 23 35  1  0
 23 36  1  0
M  END
>  <meeko>  (2) 
{"is_sidechain": [false], "free_energy": -9.499, "intermolecular_energy": -11.121, "internal_energy": -0.573}

$$$$
cand_015_out
     RDKit          3D

 36 38  0  0  0  0  0  0  0  0999 V2000
   23.3380  -24.9960   42.6040 C   0  0  0  0  0  0  0  0  0  0  0  0
   22.6550  -26.1070   42.9000 C   0  0  0  0  0  0  0  0  0  0  0  0
   22.3890  -26.3560   44.2020 F   0  0  0  0  0  0  0  0  0  0  0  0
   22.2010  -27.0990   41.9110 C   0  0  0  0  0  0  0  0  0  0  0  0
   21.0920  -26.8100   41.0960 C   0  0  0  0  0  0  0  0  0  0  0  0
   20.6150  -27.7380   40.1630 C   0  0  0  0  0  0  0  0  0  0  0  0
   21.2320  -28.9830   40.0170 C   0  0  0  0  0  0  0  0  0  0  0  0
   20.7300  -29.9940   39.0620 C   0  0  0  0  0  0  0  0  0  0  0  0
   20.0780  -31.0510   39.6860 O   0  0  0  0  0  0  0  0  0  0  0  0
   19.5620  -32.0600   38.9150 C   0  0  0  0  0  0  0  0  0  0  0  0
   18.9030  -33.0940   39.5820 C   0  0  0  0  0  0  0  0  0  0  0  0
   18.3560  -34.1550   38.8560 C   0  0  0  0  0  0  0  0  0  0  0  0
   18.4680  -34.1820   37.4640 C   0  0  0  0  0  0  0  0  0  0  0  0
   19.1260  -33.1490   36.8010 C   0  0  0  0  0  0  0  0  0  0  0  0
   19.2000  -33.2380   35.4380 O   0  0  0  0  0  0  0  0  0  0  0  0
   19.6730  -32.0870   37.5290 C   0  0  0  0  0  0  0  0  0  0  0  0
   20.3710  -30.9820   36.8710 C   0  0  0  0  0  0  0  0  0  0  0  0
   20.5180  -30.9380   35.6510 O   0  0  0  0  0  0  0  0  0  0  0  0
   20.9080  -29.9030   37.7320 C   0  0  0  0  0  0  0  0  0  0  0  0
   21.5790  -28.8700   37.1010 O   0  0  0  0  0  0  0  0  0  0  0  0
   22.3280  -29.2820   40.8410 C   0  0  0  0  0  0  0  0  0  0  0  0
   22.8270  -28.3560   41.7780 C   0  0  0  0  0  0  0  0  0  0  0  0
   24.0070  -28.7540   42.6250 C   0  0  0  0  0  0  0  0  0  0  0  0
   23.5741  -24.7583   41.5563 H   0  0  0  0  0  0  0  0  0  0  0  0
   23.6637  -24.3199   43.4083 H   0  0  0  0  0  0  0  0  0  0  0  0
   20.5899  -25.8362   41.1936 H   0  0  0  0  0  0  0  0  0  0  0  0
   19.7457  -27.4845   39.5385 H   0  0  0  0  0  0  0  0  0  0  0  0
   18.8144  -33.0735   40.6782 H   0  0  0  0  0  0  0  0  0  0  0  0
   17.8365  -34.9700   39.3813 H   0  0  0  0  0  0  0  0  0  0  0  0
   18.0374  -35.0175   36.8926 H   0  0  0  0  0  0  0  0  0  0  0  0
   19.7960  -32.6920   34.9650 H   0  0  0  0  0  0  0  0  0  0  0  0
   22.3600  -28.5180   37.4810 H   0  0  0  0  0  0  0  0  0  0  0  0
   22.8107  -30.2665   40.7528 H   0  0  0  0  0  0  0  0  0  0  0  0
   23.7416  -28.6645   43.6887 H   0  0  0  0  0  0  0  0  0  0  0  0
   24.2836  -29.7951   42.4024 H   0  0  0  0  0  0  0  0  0  0  0  0
   24.8577  -28.0931   42.4024 H   0  0  0  0  0  0  0  0  0  0  0  0
  1  2  2  0
  2  3  1  0
  2  4  1  0
  4  5  2  0
  5  6  1  0
  6  7  2  0
  7  8  1  0
  8  9  1  0
  9 10  1  0
 10 11  2  0
 11 12  1  0
 12 13  2  0
 13 14  1  0
 14 15  1  0
 14 16  2  0
 16 17  1  0
 17 18  2  0
 17 19  1  0
 19 20  1  0
  7 21  1  0
 21 22  2  0
 22 23  1  0
 22  4  1  0
 19  8  2  0
 16 10  1  0
  1 24  1  0
  1 25  1  0
  5 26  1  0
  6 27  1  0
 11 28  1  0
 12 29  1  0
 13 30  1  0
 15 31  1  0
 20 32  1  0
 21 33  1  0
 23 34  1  0
 23 35  1  0
 23 36  1  0
M  END
>  <meeko>  (3) 
{"is_sidechain": [false], "free_energy": -9.115, "intermolecular_energy": -10.699, "internal_energy": -0.544}

$$$$
cand_015_out
     RDKit          3D

 36 38  0  0  0  0  0  0  0  0999 V2000
   20.3760  -26.3990   42.7670 C   0  0  0  0  0  0  0  0  0  0  0  0
   21.0520  -26.5870   41.6290 C   0  0  0  0  0  0  0  0  0  0  0  0
   21.9960  -25.6770   41.2980 F   0  0  0  0  0  0  0  0  0  0  0  0
   20.8180  -27.6980   40.6900 C   0  0  0  0  0  0  0  0  0  0  0  0
   19.6450  -27.7160   39.9150 C   0  0  0  0  0  0  0  0  0  0  0  0
   19.3760  -28.7680   39.0330 C   0  0  0  0  0  0  0  0  0  0  0  0
   20.2700  -29.8330   38.8990 C   0  0  0  0  0  0  0  0  0  0  0  0
   19.9940  -30.9720   37.9970 C   0  0  0  0  0  0  0  0  0  0  0  0
   20.3720  -30.7240   36.6820 O   0  0  0  0  0  0  0  0  0  0  0  0
   20.1710  -31.7000   35.7400 C   0  0  0  0  0  0  0  0  0  0  0  0
   20.5790  -31.4140   34.4350 C   0  0  0  0  0  0  0  0  0  0  0  0
   20.4010  -32.3640   33.4260 C   0  0  0  0  0  0  0  0  0  0  0  0
   19.8170  -33.5970   33.7210 C   0  0  0  0  0  0  0  0  0  0  0  0
   19.4120  -33.8800   35.0230 C   0  0  0  0  0  0  0  0  0  0  0  0
   18.8480  -35.1060   35.2420 O   0  0  0  0  0  0  0  0  0  0  0  0
   19.5910  -32.9290   36.0330 C   0  0  0  0  0  0  0  0  0  0  0  0
   19.1790  -33.1860   37.4140 C   0  0  0  0  0  0  0  0  0  0  0  0
   18.6510  -34.2440   37.7500 O   0  0  0  0  0  0  0  0  0  0  0  0
   19.4180  -32.1160   38.4090 C   0  0  0  0  0  0  0  0  0  0  0  0
   19.0140  -32.3640   39.7090 O   0  0  0  0  0  0  0  0  0  0  0  0
   21.4320  -29.8270   39.6840 C   0  0  0  0  0  0  0  0  0  0  0  0
   21.7250  -28.7710   40.5700 C   0  0  0  0  0  0  0  0  0  0  0  0
   22.9940  -28.8400   41.3770 C   0  0  0  0  0  0  0  0  0  0  0  0
   19.6002  -27.1171   43.0709 H   0  0  0  0  0  0  0  0  0  0  0  0
   20.5956  -25.5262   43.3994 H   0  0  0  0  0  0  0  0  0  0  0  0
   18.9261  -26.8882   40.0038 H   0  0  0  0  0  0  0  0  0  0  0  0
   18.4505  -28.7565   38.4386 H   0  0  0  0  0  0  0  0  0  0  0  0
   21.0396  -30.4426   34.2021 H   0  0  0  0  0  0  0  0  0  0  0  0
   20.7215  -32.1399   32.3979 H   0  0  0  0  0  0  0  0  0  0  0  0
   19.6769  -34.3442   32.9260 H   0  0  0  0  0  0  0  0  0  0  0  0
   19.2180  -35.8700   34.8460 H   0  0  0  0  0  0  0  0  0  0  0  0
   18.1390  -32.1570   39.9740 H   0  0  0  0  0  0  0  0  0  0  0  0
   22.1343  -30.6700   39.6060 H   0  0  0  0  0  0  0  0  0  0  0  0
   22.7480  -28.8266   42.4490 H   0  0  0  0  0  0  0  0  0  0  0  0
   23.5319  -29.7687   41.1358 H   0  0  0  0  0  0  0  0  0  0  0  0
   23.6294  -27.9751   41.1358 H   0  0  0  0  0  0  0  0  0  0  0  0
  1  2  2  0
  2  3  1  0
  2  4  1  0
  4  5  2  0
  5  6  1  0
  6  7  2  0
  7  8  1  0
  8  9  1  0
  9 10  1  0
 10 11  2  0
 11 12  1  0
 12 13  2  0
 13 14  1  0
 14 15  1  0
 14 16  2  0
 16 17  1  0
 17 18  2  0
 17 19  1  0
 19 20  1  0
  7 21  1  0
 21 22  2  0
 22 23  1  0
 22  4  1  0
 19  8  2  0
 16 10  1  0
  1 24  1  0
  1 25  1  0
  5 26  1  0
  6 27  1  0
 11 28  1  0
 12 29  1  0
 13 30  1  0
 15 31  1  0
 20 32  1  0
 21 33  1  0
 23 34  1  0
 23 35  1  0
 23 36  1  0
M  END
>  <meeko>  (4) 
{"is_sidechain": [false], "free_energy": -8.808, "intermolecular_energy": -10.304, "internal_energy": -0.579}

$$$$
cand_015_out
     RDKit          3D

 36 38  0  0  0  0  0  0  0  0999 V2000
   19.7140  -30.1020   34.4980 C   0  0  0  0  0  0  0  0  0  0  0  0
   20.2980  -30.8400   35.4480 C   0  0  0  0  0  0  0  0  0  0  0  0
   20.4450  -32.1640   35.2180 F   0  0  0  0  0  0  0  0  0  0  0  0
   20.7620  -30.3180   36.7450 C   0  0  0  0  0  0  0  0  0  0  0  0
   21.6360  -29.2170   36.7780 C   0  0  0  0  0  0  0  0  0  0  0  0
   22.1180  -28.7110   37.9900 C   0  0  0  0  0  0  0  0  0  0  0  0
   21.7430  -29.2890   39.2050 C   0  0  0  0  0  0  0  0  0  0  0  0
   22.2620  -28.7930   40.4970 C   0  0  0  0  0  0  0  0  0  0  0  0
   23.1850  -29.6570   41.0760 O   0  0  0  0  0  0  0  0  0  0  0  0
   23.7470  -29.3170   42.2800 C   0  0  0  0  0  0  0  0  0  0  0  0
   24.6790  -30.2070   42.8180 C   0  0  0  0  0  0  0  0  0  0  0  0
   25.2870  -29.9220   44.0430 C   0  0  0  0  0  0  0  0  0  0  0  0
   24.9630  -28.7500   44.7290 C   0  0  0  0  0  0  0  0  0  0  0  0
   24.0330  -27.8650   44.1900 C   0  0  0  0  0  0  0  0  0  0  0  0
   23.7630  -26.7360   44.9150 O   0  0  0  0  0  0  0  0  0  0  0  0
   23.4260  -28.1500   42.9640 C   0  0  0  0  0  0  0  0  0  0  0  0
   22.4440  -27.2460   42.3630 C   0  0  0  0  0  0  0  0  0  0  0  0
   22.1010  -26.1990   42.9090 O   0  0  0  0  0  0  0  0  0  0  0  0
   21.8630  -27.6370   41.0580 C   0  0  0  0  0  0  0  0  0  0  0  0
   20.9260  -26.7830   40.5050 O   0  0  0  0  0  0  0  0  0  0  0  0
   20.8850  -30.3990   39.1750 C   0  0  0  0  0  0  0  0  0  0  0  0
   20.3810  -30.9160   37.9650 C   0  0  0  0  0  0  0  0  0  0  0  0
   19.4650  -32.1100   38.0180 C   0  0  0  0  0  0  0  0  0  0  0  0
   19.5764  -29.0210   34.6481 H   0  0  0  0  0  0  0  0  0  0  0  0
   19.3712  -30.5759   33.5664 H   0  0  0  0  0  0  0  0  0  0  0  0
   21.9463  -28.7451   35.8340 H   0  0  0  0  0  0  0  0  0  0  0  0
   22.8001  -27.8481   37.9860 H   0  0  0  0  0  0  0  0  0  0  0  0
   24.9339  -31.1309   42.2781 H   0  0  0  0  0  0  0  0  0  0  0  0
   26.0219  -30.6218   44.4676 H   0  0  0  0  0  0  0  0  0  0  0  0
   25.4417  -28.5261   45.6938 H   0  0  0  0  0  0  0  0  0  0  0  0
   23.3270  -26.8030   45.7410 H   0  0  0  0  0  0  0  0  0  0  0  0
   20.0140  -26.9150   40.6740 H   0  0  0  0  0  0  0  0  0  0  0  0
   20.5979  -30.8788   40.1223 H   0  0  0  0  0  0  0  0  0  0  0  0
   19.2642  -32.3718   39.0674 H   0  0  0  0  0  0  0  0  0  0  0  0
   18.5182  -31.8685   37.5127 H   0  0  0  0  0  0  0  0  0  0  0  0
   19.9434  -32.9619   37.5127 H   0  0  0  0  0  0  0  0  0  0  0  0
  1  2  2  0
  2  3  1  0
  2  4  1  0
  4  5  2  0
  5  6  1  0
  6  7  2  0
  7  8  1  0
  8  9  1  0
  9 10  1  0
 10 11  2  0
 11 12  1  0
 12 13  2  0
 13 14  1  0
 14 15  1  0
 14 16  2  0
 16 17  1  0
 17 18  2  0
 17 19  1  0
 19 20  1  0
  7 21  1  0
 21 22  2  0
 22 23  1  0
 22  4  1  0
 19  8  2  0
 16 10  1  0
  1 24  1  0
  1 25  1  0
  5 26  1  0
  6 27  1  0
 11 28  1  0
 12 29  1  0
 13 30  1  0
 15 31  1  0
 20 32  1  0
 21 33  1  0
 23 34  1  0
 23 35  1  0
 23 36  1  0
M  END
>  <meeko>  (5) 
{"is_sidechain": [false], "free_energy": -8.424, "intermolecular_energy": -10.065, "internal_energy": -0.366}

$$$$
cand_015_out
     RDKit          3D

 36 38  0  0  0  0  0  0  0  0999 V2000
   19.7600  -33.6000   35.6710 C   0  0  0  0  0  0  0  0  0  0  0  0
   19.1080  -33.0820   36.7180 C   0  0  0  0  0  0  0  0  0  0  0  0
   17.8690  -33.5520   36.9860 F   0  0  0  0  0  0  0  0  0  0  0  0
   19.6310  -32.0090   37.5820 C   0  0  0  0  0  0  0  0  0  0  0  0
   20.2770  -30.9040   37.0010 C   0  0  0  0  0  0  0  0  0  0  0  0
   20.8100  -29.8790   37.7910 C   0  0  0  0  0  0  0  0  0  0  0  0
   20.7130  -29.9270   39.1830 C   0  0  0  0  0  0  0  0  0  0  0  0
   21.2950  -28.8730   40.0420 C   0  0  0  0  0  0  0  0  0  0  0  0
   22.2510  -29.3610   40.9240 O   0  0  0  0  0  0  0  0  0  0  0  0
   22.8710  -28.4870   41.7800 C   0  0  0  0  0  0  0  0  0  0  0  0
   23.8360  -29.0180   42.6380 C   0  0  0  0  0  0  0  0  0  0  0  0
   24.5040  -28.1820   43.5370 C   0  0  0  0  0  0  0  0  0  0  0  0
   24.2070  -26.8180   43.5770 C   0  0  0  0  0  0  0  0  0  0  0  0
   23.2450  -26.2920   42.7200 C   0  0  0  0  0  0  0  0  0  0  0  0
   23.0040  -24.9480   42.8120 O   0  0  0  0  0  0  0  0  0  0  0  0
   22.5770  -27.1280   41.8200 C   0  0  0  0  0  0  0  0  0  0  0  0
   21.5600  -26.6150   40.9010 C   0  0  0  0  0  0  0  0  0  0  0  0
   21.2380  -25.4290   40.8820 O   0  0  0  0  0  0  0  0  0  0  0  0
   20.9160  -27.5830   39.9840 C   0  0  0  0  0  0  0  0  0  0  0  0
   19.9460  -27.0910   39.1290 O   0  0  0  0  0  0  0  0  0  0  0  0
   20.0850  -31.0380   39.7670 C   0  0  0  0  0  0  0  0  0  0  0  0
   19.5340  -32.0740   38.9870 C   0  0  0  0  0  0  0  0  0  0  0  0
   18.8760  -33.2320   39.6910 C   0  0  0  0  0  0  0  0  0  0  0  0
   20.7701  -33.2435   35.4209 H   0  0  0  0  0  0  0  0  0  0  0  0
   19.2860  -34.3824   35.0602 H   0  0  0  0  0  0  0  0  0  0  0  0
   20.3652  -30.8438   35.9062 H   0  0  0  0  0  0  0  0  0  0  0  0
   21.3109  -29.0260   37.3098 H   0  0  0  0  0  0  0  0  0  0  0  0
   24.0701  -30.0923   42.6065 H   0  0  0  0  0  0  0  0  0  0  0  0
   25.2645  -28.5988   44.2137 H   0  0  0  0  0  0  0  0  0  0  0  0
   24.7327  -26.1604   44.2849 H   0  0  0  0  0  0  0  0  0  0  0  0
   23.1490  -24.5010   43.6220 H   0  0  0  0  0  0  0  0  0  0  0  0
   19.0450  -27.3060   39.2700 H   0  0  0  0  0  0  0  0  0  0  0  0
   20.0212  -31.1017   40.8633 H   0  0  0  0  0  0  0  0  0  0  0  0
   18.9553  -33.0925   40.7792 H   0  0  0  0  0  0  0  0  0  0  0  0
   17.8152  -33.2808   39.4039 H   0  0  0  0  0  0  0  0  0  0  0  0
   19.3770  -34.1682   39.4039 H   0  0  0  0  0  0  0  0  0  0  0  0
  1  2  2  0
  2  3  1  0
  2  4  1  0
  4  5  2  0
  5  6  1  0
  6  7  2  0
  7  8  1  0
  8  9  1  0
  9 10  1  0
 10 11  2  0
 11 12  1  0
 12 13  2  0
 13 14  1  0
 14 15  1  0
 14 16  2  0
 16 17  1  0
 17 18  2  0
 17 19  1  0
 19 20  1  0
  7 21  1  0
 21 22  2  0
 22 23  1  0
 22  4  1  0
 19  8  2  0
 16 10  1  0
  1 24  1  0
  1 25  1  0
  5 26  1  0
  6 27  1  0
 11 28  1  0
 12 29  1  0
 13 30  1  0
 15 31  1  0
 20 32  1  0
 21 33  1  0
 23 34  1  0
 23 35  1  0
 23 36  1  0
M  END
>  <meeko>  (6) 
{"is_sidechain": [false], "free_energy": -8.418, "intermolecular_energy": -10.209, "internal_energy": -0.215}

$$$$
cand_015_out
     RDKit          3D

 36 38  0  0  0  0  0  0  0  0999 V2000
   23.1410  -25.7040   42.5330 C   0  0  0  0  0  0  0  0  0  0  0  0
   22.4480  -26.8240   42.7690 C   0  0  0  0  0  0  0  0  0  0  0  0
   22.1910  -27.1480   44.0560 F   0  0  0  0  0  0  0  0  0  0  0  0
   21.9740  -27.7500   41.7260 C   0  0  0  0  0  0  0  0  0  0  0  0
   22.8590  -28.6990   41.1850 C   0  0  0  0  0  0  0  0  0  0  0  0
   22.4530  -29.5770   40.1750 C   0  0  0  0  0  0  0  0  0  0  0  0
   21.1490  -29.5330   39.6740 C   0  0  0  0  0  0  0  0  0  0  0  0
   20.7030  -30.4280   38.5850 C   0  0  0  0  0  0  0  0  0  0  0  0
   21.0220  -29.9430   37.3220 O   0  0  0  0  0  0  0  0  0  0  0  0
   20.6640  -30.6770   36.2200 C   0  0  0  0  0  0  0  0  0  0  0  0
   21.0170  -30.1600   34.9720 C   0  0  0  0  0  0  0  0  0  0  0  0
   20.6800  -30.8570   33.8090 C   0  0  0  0  0  0  0  0  0  0  0  0
   19.9920  -32.0690   33.8940 C   0  0  0  0  0  0  0  0  0  0  0  0
   19.6420  -32.5830   35.1400 C   0  0  0  0  0  0  0  0  0  0  0  0
   18.9700  -33.7740   35.1500 O   0  0  0  0  0  0  0  0  0  0  0  0
   19.9800  -31.8850   36.3030 C   0  0  0  0  0  0  0  0  0  0  0  0
   19.6310  -32.3900   37.6320 C   0  0  0  0  0  0  0  0  0  0  0  0
   19.0190  -33.4450   37.7890 O   0  0  0  0  0  0  0  0  0  0  0  0
   20.0400  -31.5780   38.8010 C   0  0  0  0  0  0  0  0  0  0  0  0
   19.6940  -32.0580   40.0520 O   0  0  0  0  0  0  0  0  0  0  0  0
   20.2680  -28.5760   40.1980 C   0  0  0  0  0  0  0  0  0  0  0  0
   20.6580  -27.6900   41.2230 C   0  0  0  0  0  0  0  0  0  0  0  0
   19.6520  -26.6910   41.7320 C   0  0  0  0  0  0  0  0  0  0  0  0
   23.3701  -25.4065   41.4991 H   0  0  0  0  0  0  0  0  0  0  0  0
   23.4816  -25.0807   43.3729 H   0  0  0  0  0  0  0  0  0  0  0  0
   23.8905  -28.7519   41.5634 H   0  0  0  0  0  0  0  0  0  0  0  0
   23.1671  -30.3096   39.7708 H   0  0  0  0  0  0  0  0  0  0  0  0
   21.5595  -29.2055   34.9045 H   0  0  0  0  0  0  0  0  0  0  0  0
   20.9570  -30.4504   32.8252 H   0  0  0  0  0  0  0  0  0  0  0  0
   19.7268  -32.6171   32.9779 H   0  0  0  0  0  0  0  0  0  0  0  0
   19.1920  -34.4320   35.7790 H   0  0  0  0  0  0  0  0  0  0  0  0
   19.6090  -31.4660   40.7740 H   0  0  0  0  0  0  0  0  0  0  0  0
   19.2449  -28.5149   39.7985 H   0  0  0  0  0  0  0  0  0  0  0  0
   19.6558  -26.6948   42.8320 H   0  0  0  0  0  0  0  0  0  0  0  0
   19.9157  -25.6871   41.3678 H   0  0  0  0  0  0  0  0  0  0  0  0
   18.6499  -26.9617   41.3678 H   0  0  0  0  0  0  0  0  0  0  0  0
  1  2  2  0
  2  3  1  0
  2  4  1  0
  4  5  2  0
  5  6  1  0
  6  7  2  0
  7  8  1  0
  8  9  1  0
  9 10  1  0
 10 11  2  0
 11 12  1  0
 12 13  2  0
 13 14  1  0
 14 15  1  0
 14 16  2  0
 16 17  1  0
 17 18  2  0
 17 19  1  0
 19 20  1  0
  7 21  1  0
 21 22  2  0
 22 23  1  0
 22  4  1  0
 19  8  2  0
 16 10  1  0
  1 24  1  0
  1 25  1  0
  5 26  1  0
  6 27  1  0
 11 28  1  0
 12 29  1  0
 13 30  1  0
 15 31  1  0
 20 32  1  0
 21 33  1  0
 23 34  1  0
 23 35  1  0
 23 36  1  0
M  END
>  <meeko>  (7) 
{"is_sidechain": [false], "free_energy": -8.344, "intermolecular_energy": -9.753, "internal_energy": -0.584}

$$$$
cand_015_out
     RDKit          3D

 36 38  0  0  0  0  0  0  0  0999 V2000
   23.3840  -26.6300   44.9880 C   0  0  0  0  0  0  0  0  0  0  0  0
   22.7850  -27.6700   44.3990 C   0  0  0  0  0  0  0  0  0  0  0  0
   22.5850  -28.7850   45.1360 F   0  0  0  0  0  0  0  0  0  0  0  0
   22.3580  -27.7000   42.9890 C   0  0  0  0  0  0  0  0  0  0  0  0
   21.2740  -26.9060   42.5750 C   0  0  0  0  0  0  0  0  0  0  0  0
   20.8230  -26.9290   41.2510 C   0  0  0  0  0  0  0  0  0  0  0  0
   21.4410  -27.7450   40.3000 C   0  0  0  0  0  0  0  0  0  0  0  0
   20.9650  -27.8110   38.9020 C   0  0  0  0  0  0  0  0  0  0  0  0
   21.0850  -29.0810   38.3490 O   0  0  0  0  0  0  0  0  0  0  0  0
   20.6790  -29.2810   37.0550 C   0  0  0  0  0  0  0  0  0  0  0  0
   20.8050  -30.5750   36.5450 C   0  0  0  0  0  0  0  0  0  0  0  0
   20.4120  -30.8480   35.2330 C   0  0  0  0  0  0  0  0  0  0  0  0
   19.8940  -29.8280   34.4310 C   0  0  0  0  0  0  0  0  0  0  0  0
   19.7700  -28.5390   34.9420 C   0  0  0  0  0  0  0  0  0  0  0  0
   19.2560  -27.5880   34.1040 O   0  0  0  0  0  0  0  0  0  0  0  0
   20.1630  -28.2670   36.2560 C   0  0  0  0  0  0  0  0  0  0  0  0
   20.0480  -26.9260   36.8320 C   0  0  0  0  0  0  0  0  0  0  0  0
   19.6100  -25.9750   36.1880 O   0  0  0  0  0  0  0  0  0  0  0  0
   20.4870  -26.7450   38.2350 C   0  0  0  0  0  0  0  0  0  0  0  0
   20.3870  -25.4710   38.7660 O   0  0  0  0  0  0  0  0  0  0  0  0
   22.5120  -28.5520   40.7140 C   0  0  0  0  0  0  0  0  0  0  0  0
   22.9850  -28.5340   42.0410 C   0  0  0  0  0  0  0  0  0  0  0  0
   24.1400  -29.4300   42.4050 C   0  0  0  0  0  0  0  0  0  0  0  0
   23.5640  -25.7051   44.4203 H   0  0  0  0  0  0  0  0  0  0  0  0
   23.6969  -26.6991   46.0403 H   0  0  0  0  0  0  0  0  0  0  0  0
   20.7715  -26.2549   43.3055 H   0  0  0  0  0  0  0  0  0  0  0  0
   19.9722  -26.2975   40.9553 H   0  0  0  0  0  0  0  0  0  0  0  0
   21.2133  -31.3782   37.1760 H   0  0  0  0  0  0  0  0  0  0  0  0
   20.5104  -31.8670   34.8307 H   0  0  0  0  0  0  0  0  0  0  0  0
   19.5847  -30.0431   33.3975 H   0  0  0  0  0  0  0  0  0  0  0  0
   19.0040  -27.8200   33.2310 H   0  0  0  0  0  0  0  0  0  0  0  0
   19.5720  -25.0100   38.7260 H   0  0  0  0  0  0  0  0  0  0  0  0
   22.9952  -29.2165   39.9826 H   0  0  0  0  0  0  0  0  0  0  0  0
   24.2231  -29.4945   43.5000 H   0  0  0  0  0  0  0  0  0  0  0  0
   23.9696  -30.4345   41.9904 H   0  0  0  0  0  0  0  0  0  0  0  0
   25.0706  -29.0152   41.9904 H   0  0  0  0  0  0  0  0  0  0  0  0
  1  2  2  0
  2  3  1  0
  2  4  1  0
  4  5  2  0
  5  6  1  0
  6  7  2  0
  7  8  1  0
  8  9  1  0
  9 10  1  0
 10 11  2  0
 11 12  1  0
 12 13  2  0
 13 14  1  0
 14 15  1  0
 14 16  2  0
 16 17  1  0
 17 18  2  0
 17 19  1  0
 19 20  1  0
  7 21  1  0
 21 22  2  0
 22 23  1  0
 22  4  1  0
 19  8  2  0
 16 10  1  0
  1 24  1  0
  1 25  1  0
  5 26  1  0
  6 27  1  0
 11 28  1  0
 12 29  1  0
 13 30  1  0
 15 31  1  0
 20 32  1  0
 21 33  1  0
 23 34  1  0
 23 35  1  0
 23 36  1  0
M  END
>  <meeko>  (8) 
{"is_sidechain": [false], "free_energy": -8.249, "intermolecular_energy": -10.074, "internal_energy": -0.151}

$$$$
cand_015_out
     RDKit          3D

 36 38  0  0  0  0  0  0  0  0999 V2000
   19.9200  -30.0810   34.8140 C   0  0  0  0  0  0  0  0  0  0  0  0
   20.3260  -30.7950   35.8690 C   0  0  0  0  0  0  0  0  0  0  0  0
   20.3330  -32.1420   35.7560 F   0  0  0  0  0  0  0  0  0  0  0  0
   20.7340  -30.2190   37.1620 C   0  0  0  0  0  0  0  0  0  0  0  0
   21.6430  -29.1460   37.1880 C   0  0  0  0  0  0  0  0  0  0  0  0
   22.0750  -28.5910   38.3980 C   0  0  0  0  0  0  0  0  0  0  0  0
   21.6110  -29.0900   39.6180 C   0  0  0  0  0  0  0  0  0  0  0  0
   22.0740  -28.5420   40.9100 C   0  0  0  0  0  0  0  0  0  0  0  0
   21.3390  -27.4370   41.3240 O   0  0  0  0  0  0  0  0  0  0  0  0
   21.6650  -26.8300   42.5090 C   0  0  0  0  0  0  0  0  0  0  0  0
   20.8920  -25.7320   42.8920 C   0  0  0  0  0  0  0  0  0  0  0  0
   21.1720  -25.0660   44.0880 C   0  0  0  0  0  0  0  0  0  0  0  0
   22.2240  -25.4970   44.8990 C   0  0  0  0  0  0  0  0  0  0  0  0
   22.9940  -26.5920   44.5140 C   0  0  0  0  0  0  0  0  0  0  0  0
   24.0080  -26.9600   45.3550 O   0  0  0  0  0  0  0  0  0  0  0  0
   22.7120  -27.2580   43.3180 C   0  0  0  0  0  0  0  0  0  0  0  0
   23.4960  -28.4130   42.8770 C   0  0  0  0  0  0  0  0  0  0  0  0
   24.4420  -28.8470   43.5320 O   0  0  0  0  0  0  0  0  0  0  0  0
   23.1130  -29.0520   41.5970 C   0  0  0  0  0  0  0  0  0  0  0  0
   23.8680  -30.1340   41.1830 O   0  0  0  0  0  0  0  0  0  0  0  0
   20.7170  -30.1720   39.5960 C   0  0  0  0  0  0  0  0  0  0  0  0
   20.2650  -30.7370   38.3870 C   0  0  0  0  0  0  0  0  0  0  0  0
   19.3060  -31.8960   38.4490 C   0  0  0  0  0  0  0  0  0  0  0  0
   19.9005  -28.9825   34.8679 H   0  0  0  0  0  0  0  0  0  0  0  0
   19.6055  -30.5921   33.8921 H   0  0  0  0  0  0  0  0  0  0  0  0
   22.0212  -28.7356   36.2401 H   0  0  0  0  0  0  0  0  0  0  0  0
   22.7875  -27.7530   38.3886 H   0  0  0  0  0  0  0  0  0  0  0  0
   20.0638  -25.3918   42.2530 H   0  0  0  0  0  0  0  0  0  0  0  0
   20.5632  -24.2014   44.3910 H   0  0  0  0  0  0  0  0  0  0  0  0
   22.4442  -24.9725   45.8405 H   0  0  0  0  0  0  0  0  0  0  0  0
   24.1380  -26.5010   46.1610 H   0  0  0  0  0  0  0  0  0  0  0  0
   24.8010  -30.0610   41.1290 H   0  0  0  0  0  0  0  0  0  0  0  0
   20.3596  -30.5902   40.5486 H   0  0  0  0  0  0  0  0  0  0  0  0
   19.0997  -32.1454   39.5003 H   0  0  0  0  0  0  0  0  0  0  0  0
   18.3669  -31.6221   37.9460 H   0  0  0  0  0  0  0  0  0  0  0  0
   19.7508  -32.7673   37.9460 H   0  0  0  0  0  0  0  0  0  0  0  0
  1  2  2  0
  2  3  1  0
  2  4  1  0
  4  5  2  0
  5  6  1  0
  6  7  2  0
  7  8  1  0
  8  9  1  0
  9 10  1  0
 10 11  2  0
 11 12  1  0
 12 13  2  0
 13 14  1  0
 14 15  1  0
 14 16  2  0
 16 17  1  0
 17 18  2  0
 17 19  1  0
 19 20  1  0
  7 21  1  0
 21 22  2  0
 22 23  1  0
 22  4  1  0
 19  8  2  0
 16 10  1  0
  1 24  1  0
  1 25  1  0
  5 26  1  0
  6 27  1  0
 11 28  1  0
 12 29  1  0
 13 30  1  0
 15 31  1  0
 20 32  1  0
 21 33  1  0
 23 34  1  0
 23 35  1  0
 23 36  1  0
M  END
>  <meeko>  (9) 
{"is_sidechain": [false], "free_energy": -8.248, "intermolecular_energy": -9.883, "internal_energy": -0.341}

$$$$
