cand_035_out
     RDKit          3D

 36 38  0  0  0  0  0  0  0  0999 V2000
   24.8440  -30.9850   43.1410 C   0  0  0  0  0  0  0  0  0  0  0  0
   24.8390  -29.7030   42.7600 C   0  0  0  0  0  0  0  0  0  0  0  0
   23.6780  -29.0940   42.1040 C   0  0  0  0  0  0  0  0  0  0  0  0
   23.0500  -29.8200   41.0770 C   0  0  0  0  0  0  0  0  0  0  0  0
   21.9340  -29.3070   40.3990 C   0  0  0  0  0  0  0  0  0  0  0  0
   21.3160  -30.0860   39.3050 C   0  0  0  0  0  0  0  0  0  0  0  0
   20.5200  -31.1280   39.7680 O   0  0  0  0  0  0  0  0  0  0  0  0
   19.8850  -31.9320   38.8570 C   0  0  0  0  0  0  0  0  0  0  0  0
   19.1070  -32.9740   39.3640 C   0  0  0  0  0  0  0  0  0  0  0  0
   18.4320  -33.8290   38.4900 C   0  0  0  0  0  0  0  0  0  0  0  0
   18.5350  -33.6430   37.1100 C   0  0  0  0  0  0  0  0  0  0  0  0
   19.3120  -32.6020   36.6060 C   0  0  0  0  0  0  0  0  0  0  0  0
   19.3670  -32.4760   35.2450 O   0  0  0  0  0  0  0  0  0  0  0  0
   19.9870  -31.7470   37.4810 C   0  0  0  0  0  0  0  0  0  0  0  0
   20.8130  -30.6420   36.9930 C   0  0  0  0  0  0  0  0  0  0  0  0
   20.9460  -30.4080   35.7940 O   0  0  0  0  0  0  0  0  0  0  0  0
   21.4930  -29.7980   38.0030 C   0  0  0  0  0  0  0  0  0  0  0  0
   22.2590  -28.7470   37.5340 O   0  0  0  0  0  0  0  0  0  0  0  0
   21.4630  -28.0400   40.7580 C   0  0  0  0  0  0  0  0  0  0  0  0
   22.0800  -27.3100   41.7780 C   0  0  0  0  0  0  0  0  0  0  0  0
   23.1900  -27.8260   42.4630 C   0  0  0  0  0  0  0  0  0  0  0  0
   23.8330  -27.0130   43.5580 C   0  0  0  0  0  0  0  0  0  0  0  0
   24.6390  -26.0150   43.0900 F   0  0  0  0  0  0  0  0  0  0  0  0
   25.7326  -31.4097   43.6309 H   0  0  0  0  0  0  0  0  0  0  0  0
   23.9595  -31.6147   42.9645 H   0  0  0  0  0  0  0  0  0  0  0  0
   25.7320  -29.0877   42.9442 H   0  0  0  0  0  0  0  0  0  0  0  0
   23.4413  -30.8099   40.7995 H   0  0  0  0  0  0  0  0  0  0  0  0
   19.0256  -33.1217   40.4510 H   0  0  0  0  0  0  0  0  0  0  0  0
   17.8184  -34.6500   38.8893 H   0  0  0  0  0  0  0  0  0  0  0  0
   18.0037  -34.3171   36.4220 H   0  0  0  0  0  0  0  0  0  0  0  0
   18.8050  -32.9940   34.7030 H   0  0  0  0  0  0  0  0  0  0  0  0
   21.9350  -27.8690   37.5900 H   0  0  0  0  0  0  0  0  0  0  0  0
   20.5968  -27.6129   40.2315 H   0  0  0  0  0  0  0  0  0  0  0  0
   21.6898  -26.3174   42.0471 H   0  0  0  0  0  0  0  0  0  0  0  0
   23.0381  -26.5614   44.1697 H   0  0  0  0  0  0  0  0  0  0  0  0
   24.4677  -27.6970   44.1405 H   0  0  0  0  0  0  0  0  0  0  0  0
  1  2  2  0
  2  3  1  0
  3  4  2  0
  4  5  1  0
  5  6  1  0
  6  7  1  0
  7  8  1  0
  8  9  2  0
  9 10  1  0
 10 11  2  0
 11 12  1  0
 12 13  1  0
 12 14  2  0
 14 15  1  0
 15 16  2  0
 15 17  1  0
 17 18  1  0
  5 19  2  0
 19 20  1  0
 20 21  2  0
 21 22  1  0
 22 23  1  0
 21  3  1  0
 17  6  2  0
 14  8  1  0
  1 24  1  0
  1 25  1  0
  2 26  1  0
  4 27  1  0
  9 28  1  0
 10 29  1  0
 11 30  1  0
 13 31  1  0
 18 32  1  0
 19 33  1  0
 20 34  1  0
 22 35  1  0
 22 36  1  0
M  END
>  <meeko>  (1) 
{"is_sidechain": [false], "free_energy": -9.224, "intermolecular_energy": -11.381, "internal_energy": -0.534}

$$$$
cand_035_out
     RDKit          3D

 36 38  0  0  0  0  0  0  0  0999 V2000
   20.0450  -26.2310   42.6970 C   0  0  0  0  0  0  0  0  0  0  0  0
   21.3140  -26.2250   42.2720 C   0  0  0  0  0  0  0  0  0  0  0  0
   21.9940  -27.4530   41.8490 C   0  0  0  0  0  0  0  0  0  0  0  0
   21.4210  -28.1940   40.8020 C   0  0  0  0  0  0  0  0  0  0  0  0
   22.0100  -29.3800   40.3400 C   0  0  0  0  0  0  0  0  0  0  0  0
   21.3640  -30.1480   39.2550 C   0  0  0  0  0  0  0  0  0  0  0  0
   20.5890  -31.2020   39.7270 O   0  0  0  0  0  0  0  0  0  0  0  0
   19.9320  -31.9990   38.8250 C   0  0  0  0  0  0  0  0  0  0  0  0
   19.1780  -33.0530   39.3410 C   0  0  0  0  0  0  0  0  0  0  0  0
   18.4820  -33.9010   38.4760 C   0  0  0  0  0  0  0  0  0  0  0  0
   18.5410  -33.6940   37.0960 C   0  0  0  0  0  0  0  0  0  0  0  0
   19.2950  -32.6420   36.5840 C   0  0  0  0  0  0  0  0  0  0  0  0
   19.3070  -32.4960   35.2230 O   0  0  0  0  0  0  0  0  0  0  0  0
   19.9910  -31.7930   37.4500 C   0  0  0  0  0  0  0  0  0  0  0  0
   20.7940  -30.6760   36.9520 C   0  0  0  0  0  0  0  0  0  0  0  0
   20.8890  -30.4250   35.7530 O   0  0  0  0  0  0  0  0  0  0  0  0
   21.4980  -29.8410   37.9520 C   0  0  0  0  0  0  0  0  0  0  0  0
   22.2420  -28.7790   37.4740 O   0  0  0  0  0  0  0  0  0  0  0  0
   23.1830  -29.8240   40.9590 C   0  0  0  0  0  0  0  0  0  0  0  0
   23.7620  -29.0950   42.0010 C   0  0  0  0  0  0  0  0  0  0  0  0
   23.1790  -27.9030   42.4570 C   0  0  0  0  0  0  0  0  0  0  0  0
   23.8290  -27.1400   43.5840 C   0  0  0  0  0  0  0  0  0  0  0  0
   24.6360  -26.1250   43.1580 F   0  0  0  0  0  0  0  0  0  0  0  0
   19.5645  -25.2914   43.0073 H   0  0  0  0  0  0  0  0  0  0  0  0
   19.4825  -27.1755   42.7360 H   0  0  0  0  0  0  0  0  0  0  0  0
   21.8622  -25.2719   42.2391 H   0  0  0  0  0  0  0  0  0  0  0  0
   20.4914  -27.8367   40.3350 H   0  0  0  0  0  0  0  0  0  0  0  0
   19.1315  -33.2163   40.4278 H   0  0  0  0  0  0  0  0  0  0  0  0
   17.8871  -34.7324   38.8821 H   0  0  0  0  0  0  0  0  0  0  0  0
   17.9925  -34.3613   36.4149 H   0  0  0  0  0  0  0  0  0  0  0  0
   20.0550  -32.7690   34.7290 H   0  0  0  0  0  0  0  0  0  0  0  0
   21.8820  -28.2100   36.8220 H   0  0  0  0  0  0  0  0  0  0  0  0
   23.6554  -30.7583   40.6215 H   0  0  0  0  0  0  0  0  0  0  0  0
   24.6874  -29.4605   42.4701 H   0  0  0  0  0  0  0  0  0  0  0  0
   23.0377  -26.7134   44.2180 H   0  0  0  0  0  0  0  0  0  0  0  0
   24.4642  -27.8508   44.1328 H   0  0  0  0  0  0  0  0  0  0  0  0
  1  2  2  0
  2  3  1  0
  3  4  2  0
  4  5  1  0
  5  6  1  0
  6  7  1  0
  7  8  1  0
  8  9  2  0
  9 10  1  0
 10 11  2  0
 11 12  1  0
 12 13  1  0
 12 14  2  0
 14 15  1  0
 15 16  2  0
 15 17  1  0
 17 18  1  0
  5 19  2  0
 19 20  1  0
 20 21  2  0
 21 22  1  0
 22 23  1  0
 21  3  1  0
 17  6  2  0
 14  8  1  0
  1 24  1  0
  1 25  1  0
  2 26  1  0
  4 27  1  0
  9 28  1  0
 10 29  1  0
 11 30  1  0
 13 31  1  0
 18 32  1  0
 19 33  1  0
 20 34  1  0
 22 35  1  0
 22 36  1  0
M  END
>  <meeko>  (2) 
{"is_sidechain": [false], "free_energy": -9.05, "intermolecular_energy": -11.114, "internal_energy": -0.586}

$$$$
cand_035_out
     RDKit          3D

 36 38  0  0  0  0  0  0  0  0999 V2000
   18.9350  -33.2110   39.7090 C   0  0  0  0  0  0  0  0  0  0  0  0
   18.6360  -32.0800   39.0590 C   0  0  0  0  0  0  0  0  0  0  0  0
   19.6740  -31.1440   38.6170 C   0  0  0  0  0  0  0  0  0  0  0  0
   20.1630  -30.2170   39.5530 C   0  0  0  0  0  0  0  0  0  0  0  0
   21.1550  -29.2870   39.2090 C   0  0  0  0  0  0  0  0  0  0  0  0
   21.6260  -28.3080   40.2120 C   0  0  0  0  0  0  0  0  0  0  0  0
   22.4780  -28.8700   41.1560 O   0  0  0  0  0  0  0  0  0  0  0  0
   22.9890  -28.0720   42.1470 C   0  0  0  0  0  0  0  0  0  0  0  0
   23.8290  -28.6790   43.0810 C   0  0  0  0  0  0  0  0  0  0  0  0
   24.3840  -27.9220   44.1150 C   0  0  0  0  0  0  0  0  0  0  0  0
   24.1010  -26.5580   44.2140 C   0  0  0  0  0  0  0  0  0  0  0  0
   23.2620  -25.9540   43.2800 C   0  0  0  0  0  0  0  0  0  0  0  0
   23.0290  -24.6150   43.4350 O   0  0  0  0  0  0  0  0  0  0  0  0
   22.7060  -26.7130   42.2460 C   0  0  0  0  0  0  0  0  0  0  0  0
   21.8210  -26.1160   41.2440 C   0  0  0  0  0  0  0  0  0  0  0  0
   21.5310  -24.9230   41.2590 O   0  0  0  0  0  0  0  0  0  0  0  0
   21.2790  -27.0090   40.1930 C   0  0  0  0  0  0  0  0  0  0  0  0
   20.4560  -26.4340   39.2430 O   0  0  0  0  0  0  0  0  0  0  0  0
   21.6440  -29.2900   37.8980 C   0  0  0  0  0  0  0  0  0  0  0  0
   21.1650  -30.2080   36.9590 C   0  0  0  0  0  0  0  0  0  0  0  0
   20.1790  -31.1450   37.3050 C   0  0  0  0  0  0  0  0  0  0  0  0
   19.6830  -32.1210   36.2690 C   0  0  0  0  0  0  0  0  0  0  0  0
   20.4320  -32.1270   35.1270 F   0  0  0  0  0  0  0  0  0  0  0  0
   18.1314  -33.8916   40.0268 H   0  0  0  0  0  0  0  0  0  0  0  0
   19.9844  -33.4600   39.9255 H   0  0  0  0  0  0  0  0  0  0  0  0
   17.5816  -31.8462   38.8505 H   0  0  0  0  0  0  0  0  0  0  0  0
   19.7596  -30.2208   40.5764 H   0  0  0  0  0  0  0  0  0  0  0  0
   24.0539  -29.7529   43.0030 H   0  0  0  0  0  0  0  0  0  0  0  0
   25.0450  -28.4007   44.8525 H   0  0  0  0  0  0  0  0  0  0  0  0
   24.5396  -25.9618   45.0277 H   0  0  0  0  0  0  0  0  0  0  0  0
   23.3920  -24.1570   44.1670 H   0  0  0  0  0  0  0  0  0  0  0  0
   20.6550  -25.5840   38.9020 H   0  0  0  0  0  0  0  0  0  0  0  0
   22.4139  -28.5619   37.6030 H   0  0  0  0  0  0  0  0  0  0  0  0
   21.5663  -30.1959   35.9349 H   0  0  0  0  0  0  0  0  0  0  0  0
   19.7024  -33.1311   36.7040 H   0  0  0  0  0  0  0  0  0  0  0  0
   18.6662  -31.8084   35.9889 H   0  0  0  0  0  0  0  0  0  0  0  0
  1  2  2  0
  2  3  1  0
  3  4  2  0
  4  5  1  0
  5  6  1  0
  6  7  1  0
  7  8  1  0
  8  9  2  0
  9 10  1  0
 10 11  2  0
 11 12  1  0
 12 13  1  0
 12 14  2  0
 14 15  1  0
 15 16  2  0
 15 17  1  0
 17 18  1  0
  5 19  2  0
 19 20  1  0
 20 21  2  0
 21 22  1  0
 22 23  1  0
 21  3  1  0
 17  6  2  0
 14  8  1  0
  1 24  1  0
  1 25  1  0
  2 26  1  0
  4 27  1  0
  9 28  1  0
 10 29  1  0
 11 30  1  0
 13 31  1  0
 18 32  1  0
 19 33  1  0
 20 34  1  0
 22 35  1  0
 22 36  1  0
M  END
>  <meeko>  (3) 
{"is_sidechain": [false], "free_energy": -8.721, "intermolecular_energy": -10.811, "internal_energy": -0.484}

$$$$
cand_035_out
     RDKit          3D

 36 38  0  0  0  0  0  0  0  0999 V2000
   19.1960  -32.7030   39.8360 C   0  0  0  0  0  0  0  0  0  0  0  0
   19.5350  -32.2090   38.6400 C   0  0  0  0  0  0  0  0  0  0  0  0
   20.3870  -31.0240   38.5040 C   0  0  0  0  0  0  0  0  0  0  0  0
   20.8400  -30.4040   39.6810 C   0  0  0  0  0  0  0  0  0  0  0  0
   21.6590  -29.2660   39.6380 C   0  0  0  0  0  0  0  0  0  0  0  0
   22.0940  -28.6240   40.8960 C   0  0  0  0  0  0  0  0  0  0  0  0
   21.2930  -27.5470   41.2580 O   0  0  0  0  0  0  0  0  0  0  0  0
   21.5860  -26.8600   42.4080 C   0  0  0  0  0  0  0  0  0  0  0  0
   20.7640  -25.7770   42.7260 C   0  0  0  0  0  0  0  0  0  0  0  0
   21.0070  -25.0360   43.8850 C   0  0  0  0  0  0  0  0  0  0  0  0
   22.0700  -25.3770   44.7240 C   0  0  0  0  0  0  0  0  0  0  0  0
   22.8880  -26.4570   44.4040 C   0  0  0  0  0  0  0  0  0  0  0  0
   23.9100  -26.7350   45.2700 O   0  0  0  0  0  0  0  0  0  0  0  0
   22.6450  -27.1980   43.2440 C   0  0  0  0  0  0  0  0  0  0  0  0
   23.4810  -28.3410   42.8720 C   0  0  0  0  0  0  0  0  0  0  0  0
   24.4290  -28.7070   43.5620 O   0  0  0  0  0  0  0  0  0  0  0  0
   23.1440  -29.0560   41.6190 C   0  0  0  0  0  0  0  0  0  0  0  0
   23.9290  -30.1420   41.2830 O   0  0  0  0  0  0  0  0  0  0  0  0
   22.0060  -28.7440   38.3870 C   0  0  0  0  0  0  0  0  0  0  0  0
   21.5610  -29.3530   37.2100 C   0  0  0  0  0  0  0  0  0  0  0  0
   20.7510  -30.4970   37.2530 C   0  0  0  0  0  0  0  0  0  0  0  0
   20.2860  -31.1290   35.9650 C   0  0  0  0  0  0  0  0  0  0  0  0
   21.2490  -31.1590   34.9970 F   0  0  0  0  0  0  0  0  0  0  0  0
   18.5546  -33.5943   39.9012 H   0  0  0  0  0  0  0  0  0  0  0  0
   19.5586  -32.2179   40.7543 H   0  0  0  0  0  0  0  0  0  0  0  0
   19.1635  -32.7066   37.7320 H   0  0  0  0  0  0  0  0  0  0  0  0
   20.5463  -30.8197   40.6561 H   0  0  0  0  0  0  0  0  0  0  0  0
   19.9268  -25.5079   42.0652 H   0  0  0  0  0  0  0  0  0  0  0  0
   20.3602  -24.1827   44.1371 H   0  0  0  0  0  0  0  0  0  0  0  0
   22.2607  -24.7930   45.6365 H   0  0  0  0  0  0  0  0  0  0  0  0
   23.7760  -27.3400   45.9740 H   0  0  0  0  0  0  0  0  0  0  0  0
   24.2550  -30.7100   41.9530 H   0  0  0  0  0  0  0  0  0  0  0  0
   22.6361  -27.8442   38.3290 H   0  0  0  0  0  0  0  0  0  0  0  0
   21.8501  -28.9292   36.2370 H   0  0  0  0  0  0  0  0  0  0  0  0
   19.9722  -32.1618   36.1768 H   0  0  0  0  0  0  0  0  0  0  0  0
   19.4589  -30.5136   35.5813 H   0  0  0  0  0  0  0  0  0  0  0  0
  1  2  2  0
  2  3  1  0
  3  4  2  0
  4  5  1  0
  5  6  1  0
  6  7  1  0
  7  8  1  0
  8  9  2  0
  9 10  1  0
 10 11  2  0
 11 12  1  0
 12 13  1  0
 12 14  2  0
 14 15  1  0
 15 16  2  0
 15 17  1  0
 17 18  1  0
  5 19  2  0
 19 20  1  0
 20 21  2  0
 21 22  1  0
 22 23  1  0
 21  3  1  0
 17  6  2  0
 14  8  1  0
  1 24  1  0
  1 25  1  0
  2 26  1  0
  4 27  1  0
  9 28  1  0
 10 29  1  0
 11 30  1  0
 13 31  1  0
 18 32  1  0
 19 33  1  0
 20 34  1  0
 22 35  1  0
 22 36  1  0
M  END
>  <meeko>  (4) 
{"is_sidechain": [false], "free_energy": -8.546, "intermolecular_energy": -10.543, "internal_energy": -0.536}

$$$$
cand_035_out
     RDKit          3D

 36 38  0  0  0  0  0  0  0  0999 V2000
   23.4700  -29.7330   41.3320 C   0  0  0  0  0  0  0  0  0  0  0  0
   22.7000  -28.6480   41.1980 C   0  0  0  0  0  0  0  0  0  0  0  0
   21.4310  -28.6840   40.4650 C   0  0  0  0  0  0  0  0  0  0  0  0
   21.1910  -29.7840   39.6230 C   0  0  0  0  0  0  0  0  0  0  0  0
   20.0020  -29.8940   38.8870 C   0  0  0  0  0  0  0  0  0  0  0  0
   19.7950  -31.0500   37.9910 C   0  0  0  0  0  0  0  0  0  0  0  0
   20.2060  -30.8020   36.6860 O   0  0  0  0  0  0  0  0  0  0  0  0
   20.0710  -31.7930   35.7480 C   0  0  0  0  0  0  0  0  0  0  0  0
   20.4820  -31.4960   34.4480 C   0  0  0  0  0  0  0  0  0  0  0  0
   20.3730  -32.4620   33.4450 C   0  0  0  0  0  0  0  0  0  0  0  0
   19.8530  -33.7240   33.7430 C   0  0  0  0  0  0  0  0  0  0  0  0
   19.4430  -34.0170   35.0410 C   0  0  0  0  0  0  0  0  0  0  0  0
   18.9450  -35.2720   35.2620 O   0  0  0  0  0  0  0  0  0  0  0  0
   19.5520  -33.0500   36.0440 C   0  0  0  0  0  0  0  0  0  0  0  0
   19.1330  -33.3180   37.4200 C   0  0  0  0  0  0  0  0  0  0  0  0
   18.6730  -34.4050   37.7610 O   0  0  0  0  0  0  0  0  0  0  0  0
   19.2840  -32.2230   38.4060 C   0  0  0  0  0  0  0  0  0  0  0  0
   18.8990  -32.4900   39.7070 O   0  0  0  0  0  0  0  0  0  0  0  0
   19.0560  -28.8680   38.9970 C   0  0  0  0  0  0  0  0  0  0  0  0
   19.2840  -27.7700   39.8310 C   0  0  0  0  0  0  0  0  0  0  0  0
   20.4690  -27.6650   40.5750 C   0  0  0  0  0  0  0  0  0  0  0  0
   20.6850  -26.4680   41.4650 C   0  0  0  0  0  0  0  0  0  0  0  0
   20.4480  -26.7220   42.7860 F   0  0  0  0  0  0  0  0  0  0  0  0
   24.4166  -29.6703   41.8888 H   0  0  0  0  0  0  0  0  0  0  0  0
   23.1568  -30.6882   40.8854 H   0  0  0  0  0  0  0  0  0  0  0  0
   23.0284  -27.7009   41.6510 H   0  0  0  0  0  0  0  0  0  0  0  0
   21.9512  -30.5746   39.5397 H   0  0  0  0  0  0  0  0  0  0  0  0
   20.8913  -30.5023   34.2134 H   0  0  0  0  0  0  0  0  0  0  0  0
   20.6968  -32.2290   32.4199 H   0  0  0  0  0  0  0  0  0  0  0  0
   19.7676  -34.4850   32.9534 H   0  0  0  0  0  0  0  0  0  0  0  0
   19.5260  -36.0050   35.3170 H   0  0  0  0  0  0  0  0  0  0  0  0
   19.0610  -31.8600   40.3820 H   0  0  0  0  0  0  0  0  0  0  0  0
   18.1215  -28.9268   38.4198 H   0  0  0  0  0  0  0  0  0  0  0  0
   18.5245  -26.9777   39.9051 H   0  0  0  0  0  0  0  0  0  0  0  0
   21.7282  -26.1365   41.3558 H   0  0  0  0  0  0  0  0  0  0  0  0
   19.9672  -25.6964   41.1498 H   0  0  0  0  0  0  0  0  0  0  0  0
  1  2  2  0
  2  3  1  0
  3  4  2  0
  4  5  1  0
  5  6  1  0
  6  7  1  0
  7  8  1  0
  8  9  2  0
  9 10  1  0
 10 11  2  0
 11 12  1  0
 12 13  1  0
 12 14  2  0
 14 15  1  0
 15 16  2  0
 15 17  1  0
 17 18  1  0
  5 19  2  0
 19 20  1  0
 20 21  2  0
 21 22  1  0
 22 23  1  0
 21  3  1  0
 17  6  2  0
 14  8  1  0
  1 24  1  0
  1 25  1  0
  2 26  1  0
  4 27  1  0
  9 28  1  0
 10 29  1  0
 11 30  1  0
 13 31  1  0
 18 32  1  0
 19 33  1  0
 20 34  1  0
 22 35  1  0
 22 36  1  0
M  END
>  <meeko>  (5) 
{"is_sidechain": [false], "free_energy": -8.488, "intermolecular_energy": -10.415, "internal_energy": -0.592}

$$$$
cand_035_out
     RDKit          3D

 36 38  0  0  0  0  0  0  0  0999 V2000
   24.3860  -28.8940   44.0190 C   0  0  0  0  0  0  0  0  0  0  0  0
   24.2100  -27.8710   43.1750 C   0  0  0  0  0  0  0  0  0  0  0  0
   22.9130  -27.5980   42.5490 C   0  0  0  0  0  0  0  0  0  0  0  0
   22.5150  -28.4210   41.4810 C   0  0  0  0  0  0  0  0  0  0  0  0
   21.2880  -28.2250   40.8270 C   0  0  0  0  0  0  0  0  0  0  0  0
   20.9140  -29.0920   39.6910 C   0  0  0  0  0  0  0  0  0  0  0  0
   20.4140  -30.3250   40.0940 O   0  0  0  0  0  0  0  0  0  0  0  0
   20.0280  -31.2290   39.1380 C   0  0  0  0  0  0  0  0  0  0  0  0
   19.5440  -32.4590   39.5870 C   0  0  0  0  0  0  0  0  0  0  0  0
   19.1320  -33.4240   38.6640 C   0  0  0  0  0  0  0  0  0  0  0  0
   19.2030  -33.1580   37.2950 C   0  0  0  0  0  0  0  0  0  0  0  0
   19.6860  -31.9300   36.8500 C   0  0  0  0  0  0  0  0  0  0  0  0
   19.7270  -31.7370   35.4960 O   0  0  0  0  0  0  0  0  0  0  0  0
   20.0980  -30.9650   37.7730 C   0  0  0  0  0  0  0  0  0  0  0  0
   20.6110  -29.6620   37.3470 C   0  0  0  0  0  0  0  0  0  0  0  0
   20.6970  -29.3520   36.1620 O   0  0  0  0  0  0  0  0  0  0  0  0
   21.0290  -28.7130   38.4050 C   0  0  0  0  0  0  0  0  0  0  0  0
   21.4980  -27.4800   37.9940 O   0  0  0  0  0  0  0  0  0  0  0  0
   20.4690  -27.1750   41.2540 C   0  0  0  0  0  0  0  0  0  0  0  0
   20.8550  -26.3510   42.3140 C   0  0  0  0  0  0  0  0  0  0  0  0
   22.0760  -26.5520   42.9750 C   0  0  0  0  0  0  0  0  0  0  0  0
   22.4650  -25.6450   44.1150 C   0  0  0  0  0  0  0  0  0  0  0  0
   22.3400  -26.2310   45.3420 F   0  0  0  0  0  0  0  0  0  0  0  0
   25.3731  -29.0703   44.4712 H   0  0  0  0  0  0  0  0  0  0  0  0
   23.5436  -29.5588   44.2607 H   0  0  0  0  0  0  0  0  0  0  0  0
   25.0630  -27.2160   42.9442 H   0  0  0  0  0  0  0  0  0  0  0  0
   23.1779  -29.2345   41.1512 H   0  0  0  0  0  0  0  0  0  0  0  0
   19.4870  -32.6682   40.6654 H   0  0  0  0  0  0  0  0  0  0  0  0
   18.7514  -34.3941   39.0162 H   0  0  0  0  0  0  0  0  0  0  0  0
   18.8778  -33.9176   36.5689 H   0  0  0  0  0  0  0  0  0  0  0  0
   19.2700  -31.0150   35.1120 H   0  0  0  0  0  0  0  0  0  0  0  0
   22.2820  -27.1280   38.3690 H   0  0  0  0  0  0  0  0  0  0  0  0
   19.5085  -26.9956   40.7487 H   0  0  0  0  0  0  0  0  0  0  0  0
   20.1926  -25.5335   42.6347 H   0  0  0  0  0  0  0  0  0  0  0  0
   23.5139  -25.3433   43.9781 H   0  0  0  0  0  0  0  0  0  0  0  0
   21.7787  -24.7856   44.0945 H   0  0  0  0  0  0  0  0  0  0  0  0
  1  2  2  0
  2  3  1  0
  3  4  2  0
  4  5  1  0
  5  6  1  0
  6  7  1  0
  7  8  1  0
  8  9  2  0
  9 10  1  0
 10 11  2  0
 11 12  1  0
 12 13  1  0
 12 14  2  0
 14 15  1  0
 15 16  2  0
 15 17  1  0
 17 18  1  0
  5 19  2  0
 19 20  1  0
 20 21  2  0
 21 22  1  0
 22 23  1  0
 21  3  1  0
 17  6  2  0
 14  8  1  0
  1 24  1  0
  1 25  1  0
  2 26  1  0
  4 27  1  0
  9 28  1  0
 10 29  1  0
 11 30  1  0
 13 31  1  0
 18 32  1  0
 19 33  1  0
 20 34  1  0
 22 35  1  0
 22 36  1  0
M  END
>  <meeko>  (6) 
{"is_sidechain": [false], "free_energy": -8.424, "intermolecular_energy": -10.311, "internal_energy": -0.617}

$$$$
cand_035_out
     RDKit          3D

 36 38  0  0  0  0  0  0  0  0999 V2000
   18.6360  -25.8750   39.6320 C   0  0  0  0  0  0  0  0  0  0  0  0
   18.9370  -26.8490   40.4980 C   0  0  0  0  0  0  0  0  0  0  0  0
   19.9730  -27.8460   40.2130 C   0  0  0  0  0  0  0  0  0  0  0  0
   19.6580  -28.8820   39.3160 C   0  0  0  0  0  0  0  0  0  0  0  0
   20.5940  -29.8750   38.9910 C   0  0  0  0  0  0  0  0  0  0  0  0
   20.2190  -30.9640   38.0650 C   0  0  0  0  0  0  0  0  0  0  0  0
   20.5830  -30.7040   36.7490 O   0  0  0  0  0  0  0  0  0  0  0  0
   20.2940  -31.6340   35.7840 C   0  0  0  0  0  0  0  0  0  0  0  0
   20.6650  -31.3260   34.4740 C   0  0  0  0  0  0  0  0  0  0  0  0
   20.4010  -32.2310   33.4440 C   0  0  0  0  0  0  0  0  0  0  0  0
   19.7670  -33.4440   33.7230 C   0  0  0  0  0  0  0  0  0  0  0  0
   19.3970  -33.7480   35.0310 C   0  0  0  0  0  0  0  0  0  0  0  0
   18.7810  -34.9530   35.2330 O   0  0  0  0  0  0  0  0  0  0  0  0
   19.6610  -32.8420   36.0620 C   0  0  0  0  0  0  0  0  0  0  0  0
   19.2890  -33.1240   37.4490 C   0  0  0  0  0  0  0  0  0  0  0  0
   18.7360  -34.1710   37.7750 O   0  0  0  0  0  0  0  0  0  0  0  0
   19.6080  -32.0940   38.4650 C   0  0  0  0  0  0  0  0  0  0  0  0
   19.2670  -32.3760   39.7740 O   0  0  0  0  0  0  0  0  0  0  0  0
   21.8550  -29.8240   39.5940 C   0  0  0  0  0  0  0  0  0  0  0  0
   22.1790  -28.7980   40.4870 C   0  0  0  0  0  0  0  0  0  0  0  0
   21.2470  -27.7990   40.8050 C   0  0  0  0  0  0  0  0  0  0  0  0
   21.6280  -26.7070   41.7730 C   0  0  0  0  0  0  0  0  0  0  0  0
   21.1660  -26.9200   43.0410 F   0  0  0  0  0  0  0  0  0  0  0  0
   17.8526  -25.1431   39.8780 H   0  0  0  0  0  0  0  0  0  0  0  0
   19.1719  -25.8060   38.6738 H   0  0  0  0  0  0  0  0  0  0  0  0
   18.3913  -26.9033   41.4516 H   0  0  0  0  0  0  0  0  0  0  0  0
   18.6575  -28.9144   38.8600 H   0  0  0  0  0  0  0  0  0  0  0  0
   21.1648  -30.3713   34.2534 H   0  0  0  0  0  0  0  0  0  0  0  0
   20.6927  -31.9884   32.4115 H   0  0  0  0  0  0  0  0  0  0  0  0
   19.5604  -34.1575   32.9117 H   0  0  0  0  0  0  0  0  0  0  0  0
   19.1460  -35.7340   34.8670 H   0  0  0  0  0  0  0  0  0  0  0  0
   19.1080  -31.6760   40.3780 H   0  0  0  0  0  0  0  0  0  0  0  0
   22.6001  -30.5996   39.3632 H   0  0  0  0  0  0  0  0  0  0  0  0
   23.1782  -28.7739   40.9463 H   0  0  0  0  0  0  0  0  0  0  0  0
   22.7254  -26.6399   41.8085 H   0  0  0  0  0  0  0  0  0  0  0  0
   21.1658  -25.7767   41.4111 H   0  0  0  0  0  0  0  0  0  0  0  0
  1  2  2  0
  2  3  1  0
  3  4  2  0
  4  5  1  0
  5  6  1  0
  6  7  1  0
  7  8  1  0
  8  9  2  0
  9 10  1  0
 10 11  2  0
 11 12  1  0
 12 13  1  0
 12 14  2  0
 14 15  1  0
 15 16  2  0
 15 17  1  0
 17 18  1  0
  5 19  2  0
 19 20  1  0
 20 21  2  0
 21 22  1  0
 22 23  1  0
 21  3  1  0
 17  6  2  0
 14  8  1  0
  1 24  1  0
  1 25  1  0
  2 26  1  0
  4 27  1  0
  9 28  1  0
 10 29  1  0
 11 30  1  0
 13 31  1  0
 18 32  1  0
 19 33  1  0
 20 34  1  0
 22 35  1  0
 22 36  1  0
M  END
>  <meeko>  (7) 
{"is_sidechain": [false], "free_energy": -8.147, "intermolecular_energy": -9.982, "internal_energy": -0.605}

$$$$
cand_035_out
     RDKit          3D

 36 38  0  0  0  0  0  0  0  0999 V2000
   24.3210  -30.4020   42.5560 C   0  0  0  0  0  0  0  0  0  0  0  0
   24.2370  -29.0670   42.5790 C   0  0  0  0  0  0  0  0  0  0  0  0
   22.9970  -28.3630   42.2350 C   0  0  0  0  0  0  0  0  0  0  0  0
   22.5560  -28.4240   40.9020 C   0  0  0  0  0  0  0  0  0  0  0  0
   21.3810  -27.7780   40.4920 C   0  0  0  0  0  0  0  0  0  0  0  0
   20.9620  -27.8410   39.0770 C   0  0  0  0  0  0  0  0  0  0  0  0
   21.0390  -29.1250   38.5480 O   0  0  0  0  0  0  0  0  0  0  0  0
   20.6790  -29.3260   37.2400 C   0  0  0  0  0  0  0  0  0  0  0  0
   20.7850  -30.6270   36.7460 C   0  0  0  0  0  0  0  0  0  0  0  0
   20.4320  -30.9000   35.4230 C   0  0  0  0  0  0  0  0  0  0  0  0
   19.9730  -29.8740   34.5940 C   0  0  0  0  0  0  0  0  0  0  0  0
   19.8680  -28.5770   35.0900 C   0  0  0  0  0  0  0  0  0  0  0  0
   19.4100  -27.6210   34.2250 O   0  0  0  0  0  0  0  0  0  0  0  0
   20.2210  -28.3030   36.4140 C   0  0  0  0  0  0  0  0  0  0  0  0
   20.1250  -26.9540   36.9740 C   0  0  0  0  0  0  0  0  0  0  0  0
   19.7230  -26.0010   36.3110 O   0  0  0  0  0  0  0  0  0  0  0  0
   20.5310  -26.7690   38.3860 C   0  0  0  0  0  0  0  0  0  0  0  0
   20.4230  -25.4950   38.9110 O   0  0  0  0  0  0  0  0  0  0  0  0
   20.6570  -27.0500   41.4430 C   0  0  0  0  0  0  0  0  0  0  0  0
   21.0870  -26.9820   42.7710 C   0  0  0  0  0  0  0  0  0  0  0  0
   22.2570  -27.6370   43.1840 C   0  0  0  0  0  0  0  0  0  0  0  0
   22.6940  -27.5440   44.6240 C   0  0  0  0  0  0  0  0  0  0  0  0
   22.5790  -28.7230   45.3040 F   0  0  0  0  0  0  0  0  0  0  0  0
   25.2666  -30.8982   42.8198 H   0  0  0  0  0  0  0  0  0  0  0  0
   23.4445  -31.0035   42.2733 H   0  0  0  0  0  0  0  0  0  0  0  0
   25.1230  -28.4806   42.8640 H   0  0  0  0  0  0  0  0  0  0  0  0
   23.1447  -28.9902   40.1652 H   0  0  0  0  0  0  0  0  0  0  0  0
   21.1461  -31.4361   37.3979 H   0  0  0  0  0  0  0  0  0  0  0  0
   20.5156  -31.9251   35.0329 H   0  0  0  0  0  0  0  0  0  0  0  0
   19.6951  -30.0899   33.5518 H   0  0  0  0  0  0  0  0  0  0  0  0
   19.0120  -27.8730   33.4150 H   0  0  0  0  0  0  0  0  0  0  0  0
   19.8570  -25.3350   39.6410 H   0  0  0  0  0  0  0  0  0  0  0  0
   19.7385  -26.5250   41.1416 H   0  0  0  0  0  0  0  0  0  0  0  0
   20.5001  -26.4071   43.5025 H   0  0  0  0  0  0  0  0  0  0  0  0
   23.7476  -27.2288   44.6488 H   0  0  0  0  0  0  0  0  0  0  0  0
   22.0307  -26.8187   45.1180 H   0  0  0  0  0  0  0  0  0  0  0  0
  1  2  2  0
  2  3  1  0
  3  4  2  0
  4  5  1  0
  5  6  1  0
  6  7  1  0
  7  8  1  0
  8  9  2  0
  9 10  1  0
 10 11  2  0
 11 12  1  0
 12 13  1  0
 12 14  2  0
 14 15  1  0
 15 16  2  0
 15 17  1  0
 17 18  1  0
  5 19  2  0
 19 20  1  0
 20 21  2  0
 21 22  1  0
 22 23  1  0
 21  3  1  0
 17  6  2  0
 14  8  1  0
  1 24  1  0
  1 25  1  0
  2 26  1  0
  4 27  1  0
  9 28  1  0
 10 29  1  0
 11 30  1  0
 13 31  1  0
 18 32  1  0
 19 33  1  0
 20 34  1  0
 22 35  1  0
 22 36  1  0
M  END
>  <meeko>  (8) 
{"is_sidechain": [false], "free_energy": -7.997, "intermolecular_energy": -10.123, "internal_energy": -0.279}

$$$$
cand_035_out
     RDKit          3D

 36 38  0  0  0  0  0  0  0  0999 V2000
   20.0350  -30.2280   34.3210 C   0  0  0  0  0  0  0  0  0  0  0  0
   20.7040  -30.9710   35.2100 C   0  0  0  0  0  0  0  0  0  0  0  0
   20.3480  -30.9850   36.6320 C   0  0  0  0  0  0  0  0  0  0  0  0
   20.7240  -29.8790   37.4130 C   0  0  0  0  0  0  0  0  0  0  0  0
   20.4210  -29.8150   38.7820 C   0  0  0  0  0  0  0  0  0  0  0  0
   20.8560  -28.6490   39.5780 C   0  0  0  0  0  0  0  0  0  0  0  0
   21.8240  -28.9710   40.5230 O   0  0  0  0  0  0  0  0  0  0  0  0
   22.3160  -27.9790   41.3320 C   0  0  0  0  0  0  0  0  0  0  0  0
   23.2760  -28.3490   42.2750 C   0  0  0  0  0  0  0  0  0  0  0  0
   23.8200  -27.3870   43.1290 C   0  0  0  0  0  0  0  0  0  0  0  0
   23.4050  -26.0560   43.0390 C   0  0  0  0  0  0  0  0  0  0  0  0
   22.4470  -25.6900   42.0970 C   0  0  0  0  0  0  0  0  0  0  0  0
   22.0880  -24.3710   42.0630 O   0  0  0  0  0  0  0  0  0  0  0  0
   21.9030  -26.6530   41.2430 C   0  0  0  0  0  0  0  0  0  0  0  0
   20.8950  -26.3100   40.2390 C   0  0  0  0  0  0  0  0  0  0  0  0
   20.4850  -25.1610   40.0930 O   0  0  0  0  0  0  0  0  0  0  0  0
   20.3760  -27.4060   39.3880 C   0  0  0  0  0  0  0  0  0  0  0  0
   19.4360  -27.0700   38.4320 O   0  0  0  0  0  0  0  0  0  0  0  0
   19.7450  -30.8930   39.3630 C   0  0  0  0  0  0  0  0  0  0  0  0
   19.3660  -31.9980   38.5950 C   0  0  0  0  0  0  0  0  0  0  0  0
   19.6600  -32.0580   37.2250 C   0  0  0  0  0  0  0  0  0  0  0  0
   19.2390  -33.2650   36.4250 C   0  0  0  0  0  0  0  0  0  0  0  0
   18.0510  -33.8000   36.8340 F   0  0  0  0  0  0  0  0  0  0  0  0
   20.3290  -30.2411   33.2611 H   0  0  0  0  0  0  0  0  0  0  0  0
   19.1910  -29.6040   34.6500 H   0  0  0  0  0  0  0  0  0  0  0  0
   21.5455  -31.5892   34.8639 H   0  0  0  0  0  0  0  0  0  0  0  0
   21.2669  -29.0464   36.9419 H   0  0  0  0  0  0  0  0  0  0  0  0
   23.6037  -29.3967   42.3456 H   0  0  0  0  0  0  0  0  0  0  0  0
   24.5760  -27.6776   43.8733 H   0  0  0  0  0  0  0  0  0  0  0  0
   23.8343  -25.2984   43.7111 H   0  0  0  0  0  0  0  0  0  0  0  0
   22.5040  -23.7560   42.6360 H   0  0  0  0  0  0  0  0  0  0  0  0
   18.6220  -26.6850   38.6910 H   0  0  0  0  0  0  0  0  0  0  0  0
   19.5088  -30.8710   40.4371 H   0  0  0  0  0  0  0  0  0  0  0  0
   18.8299  -32.8318   39.0718 H   0  0  0  0  0  0  0  0  0  0  0  0
   19.1427  -32.9678   35.3703 H   0  0  0  0  0  0  0  0  0  0  0  0
   20.0096  -34.0362   36.5714 H   0  0  0  0  0  0  0  0  0  0  0  0
  1  2  2  0
  2  3  1  0
  3  4  2  0
  4  5  1  0
  5  6  1  0
  6  7  1  0
  7  8  1  0
  8  9  2  0
  9 10  1  0
 10 11  2  0
 11 12  1  0
 12 13  1  0
 12 14  2  0
 14 15  1  0
 15 16  2  0
 15 17  1  0
 17 18  1  0
  5 19  2  0
 19 20  1  0
 20 21  2  0
 21 22  1  0
 22 23  1  0
 21  3  1  0
 17  6  2  0
 14  8  1  0
  1 24  1  0
  1 25  1  0
  2 26  1  0
  4 27  1  0
  9 28  1  0
 10 29  1  0
 11 30  1  0
 13 31  1  0
 18 32  1  0
 19 33  1  0
 20 34  1  0
 22 35  1  0
 22 36  1  0
M  END
>  <meeko>  (9) 
{"is_sidechain": [false], "free_energy": -7.949, "intermolecular_energy": -9.909, "internal_energy": -0.432}

$$$$
