cand_049_out
     RDKit          3D

 47 49  0  0  0  0  0  0  0  0999 V2000
   19.4130  -25.5570   40.1400 C   0  0  0  0  0  0  0  0  0  0  0  0
   19.4610  -26.6740   41.1740 C   0  0  0  0  0  0  0  0  0  0  0  0
   20.4650  -27.7430   40.8000 C   0  0  0  0  0  0  0  0  0  0  0  0
   20.0660  -28.7250   39.8700 C   0  0  0  0  0  0  0  0  0  0  0  0
   20.9380  -29.7310   39.4320 C   0  0  0  0  0  0  0  0  0  0  0  0
   20.4610  -30.7560   38.4780 C   0  0  0  0  0  0  0  0  0  0  0  0
   20.0070  -31.9100   39.1080 O   0  0  0  0  0  0  0  0  0  0  0  0
   19.5350  -32.9430   38.3400 C   0  0  0  0  0  0  0  0  0  0  0  0
   19.1030  -34.0870   39.0130 C   0  0  0  0  0  0  0  0  0  0  0  0
   18.6090  -35.1750   38.2910 C   0  0  0  0  0  0  0  0  0  0  0  0
   18.5460  -35.1200   36.8970 C   0  0  0  0  0  0  0  0  0  0  0  0
   18.9780  -33.9780   36.2280 C   0  0  0  0  0  0  0  0  0  0  0  0
   18.8880  -33.9900   34.8640 O   0  0  0  0  0  0  0  0  0  0  0  0
   19.4720  -32.8890   36.9510 C   0  0  0  0  0  0  0  0  0  0  0  0
   19.9360  -31.6690   36.2870 C   0  0  0  0  0  0  0  0  0  0  0  0
   19.9060  -31.5430   35.0650 O   0  0  0  0  0  0  0  0  0  0  0  0
   20.4490  -30.5760   37.1440 C   0  0  0  0  0  0  0  0  0  0  0  0
   20.8720  -29.4230   36.5070 O   0  0  0  0  0  0  0  0  0  0  0  0
   22.2360  -29.7530   39.9470 C   0  0  0  0  0  0  0  0  0  0  0  0
   22.6520  -28.7850   40.8640 C   0  0  0  0  0  0  0  0  0  0  0  0
   21.7820  -27.7720   41.3030 C   0  0  0  0  0  0  0  0  0  0  0  0
   22.3030  -26.7650   42.3080 C   0  0  0  0  0  0  0  0  0  0  0  0
   23.4770  -27.2830   43.1630 C   0  0  0  0  0  0  0  0  0  0  0  0
   24.4470  -26.1660   43.5560 C   0  0  0  0  0  0  0  0  0  0  0  0
   22.9370  -27.9610   44.4250 C   0  0  0  0  0  0  0  0  0  0  0  0
   19.3712  -24.5845   40.6524 H   0  0  0  0  0  0  0  0  0  0  0  0
   20.3139  -25.6013   39.5103 H   0  0  0  0  0  0  0  0  0  0  0  0
   18.5192  -25.6784   39.5103 H   0  0  0  0  0  0  0  0  0  0  0  0
   19.7424  -26.2462   42.1476 H   0  0  0  0  0  0  0  0  0  0  0  0
   18.4659  -27.1405   41.2200 H   0  0  0  0  0  0  0  0  0  0  0  0
   19.0391  -28.7007   39.4763 H   0  0  0  0  0  0  0  0  0  0  0  0
   19.1517  -34.1313   40.1110 H   0  0  0  0  0  0  0  0  0  0  0  0
   18.2689  -36.0769   38.8209 H   0  0  0  0  0  0  0  0  0  0  0  0
   18.1558  -35.9772   36.3287 H   0  0  0  0  0  0  0  0  0  0  0  0
   19.1600  -33.2420   34.3690 H   0  0  0  0  0  0  0  0  0  0  0  0
   20.2430  -28.8370   36.1340 H   0  0  0  0  0  0  0  0  0  0  0  0
   22.9363  -30.5390   39.6279 H   0  0  0  0  0  0  0  0  0  0  0  0
   23.6814  -28.8160   41.2505 H   0  0  0  0  0  0  0  0  0  0  0  0
   22.6410  -25.8728   41.7605 H   0  0  0  0  0  0  0  0  0  0  0  0
   21.4759  -26.5487   43.0002 H   0  0  0  0  0  0  0  0  0  0  0  0
   24.0353  -28.0068   42.5511 H   0  0  0  0  0  0  0  0  0  0  0  0
   24.5048  -26.0995   44.6525 H   0  0  0  0  0  0  0  0  0  0  0  0
   25.4448  -26.3868   43.1490 H   0  0  0  0  0  0  0  0  0  0  0  0
   24.0885  -25.2090   43.1490 H   0  0  0  0  0  0  0  0  0  0  0  0
   23.3403  -27.4547   45.3144 H   0  0  0  0  0  0  0  0  0  0  0  0
   21.8388  -27.8982   44.4337 H   0  0  0  0  0  0  0  0  0  0  0  0
   23.2439  -29.0173   44.4337 H   0  0  0  0  0  0  0  0  0  0  0  0
  1  2  1  0
  2  3  1  0
  3  4  2  0
  4  5  1  0
  5  6  1  0
  6  7  1  0
  7  8  1  0
  8  9  2  0
  9 10  1  0
 10 11  2  0
 11 12  1  0
 12 13  1  0
 12 14  2  0
 14 15  1  0
 15 16  2  0
 15 17  1  0
 17 18  1  0
  5 19  2  0
 19 20  1  0
 20 21  2  0
 21 22  1  0
 22 23  1  0
 23 24  1  0
 23 25  1  0
 21  3  1  0
 17  6  2  0
 14  8  1  0
  1 26  1  0
  1 27  1  0
  1 28  1  0
  2 29  1  0
  2 30  1  0
  4 31  1  0
  9 32  1  0
 10 33  1  0
 11 34  1  0
 13 35  1  0
 18 36  1  0
 19 37  1  0
 20 38  1  0
 22 39  1  0
 22 40  1  0
 23 41  1  0
 24 42  1  0
 24 43  1  0
 24 44  1  0
 25 45  1  0
 25 46  1  0
 25 47  1  0
M  END
>  <meeko>  (1) 
{"is_sidechain": [false], "free_energy": -9.593, "intermolecular_energy": -12.397, "internal_energy": -0.867}

$$$$
cand_049_out
     RDKit          3D

 47 49  0  0  0  0  0  0  0  0999 V2000
   24.2160  -30.2030   42.2620 C   0  0  0  0  0  0  0  0  0  0  0  0
   23.8170  -28.7450   42.4490 C   0  0  0  0  0  0  0  0  0  0  0  0
   22.6860  -28.3480   41.5260 C   0  0  0  0  0  0  0  0  0  0  0  0
   22.1640  -29.3340   40.6640 C   0  0  0  0  0  0  0  0  0  0  0  0
   21.0890  -29.0730   39.8020 C   0  0  0  0  0  0  0  0  0  0  0  0
   20.5970  -30.1330   38.8950 C   0  0  0  0  0  0  0  0  0  0  0  0
   19.9840  -31.1810   39.5730 O   0  0  0  0  0  0  0  0  0  0  0  0
   19.4810  -32.2330   38.8520 C   0  0  0  0  0  0  0  0  0  0  0  0
   18.8880  -33.2690   39.5740 C   0  0  0  0  0  0  0  0  0  0  0  0
   18.3540  -34.3710   38.9000 C   0  0  0  0  0  0  0  0  0  0  0  0
   18.4130  -34.4350   37.5070 C   0  0  0  0  0  0  0  0  0  0  0  0
   19.0060  -33.4000   36.7890 C   0  0  0  0  0  0  0  0  0  0  0  0
   19.0300  -33.5270   35.4280 O   0  0  0  0  0  0  0  0  0  0  0  0
   19.5410  -32.2990   37.4630 C   0  0  0  0  0  0  0  0  0  0  0  0
   20.1730  -31.1890   36.7470 C   0  0  0  0  0  0  0  0  0  0  0  0
   20.2570  -31.1700   35.5210 O   0  0  0  0  0  0  0  0  0  0  0  0
   20.7150  -30.0730   37.5560 C   0  0  0  0  0  0  0  0  0  0  0  0
   21.2970  -29.0230   36.8670 O   0  0  0  0  0  0  0  0  0  0  0  0
   20.5370  -27.7900   39.8020 C   0  0  0  0  0  0  0  0  0  0  0  0
   21.0380  -26.8010   40.6530 C   0  0  0  0  0  0  0  0  0  0  0  0
   22.1120  -27.0610   41.5220 C   0  0  0  0  0  0  0  0  0  0  0  0
   22.6060  -25.9350   42.4070 C   0  0  0  0  0  0  0  0  0  0  0  0
   21.9330  -25.8870   43.7930 C   0  0  0  0  0  0  0  0  0  0  0  0
   22.9280  -26.1310   44.9310 C   0  0  0  0  0  0  0  0  0  0  0  0
   21.2530  -24.5280   43.9900 C   0  0  0  0  0  0  0  0  0  0  0  0
   24.3457  -30.6768   43.2462 H   0  0  0  0  0  0  0  0  0  0  0  0
   23.4290  -30.7297   41.7024 H   0  0  0  0  0  0  0  0  0  0  0  0
   25.1615  -30.2555   41.7024 H   0  0  0  0  0  0  0  0  0  0  0  0
   23.4959  -28.5947   43.4903 H   0  0  0  0  0  0  0  0  0  0  0  0
   24.6891  -28.1189   42.2092 H   0  0  0  0  0  0  0  0  0  0  0  0
   22.6133  -30.3380   40.6677 H   0  0  0  0  0  0  0  0  0  0  0  0
   18.8407  -33.2187   40.6718 H   0  0  0  0  0  0  0  0  0  0  0  0
   17.8867  -35.1888   39.4682 H   0  0  0  0  0  0  0  0  0  0  0  0
   17.9916  -35.3020   36.9772 H   0  0  0  0  0  0  0  0  0  0  0  0
   18.2440  -33.4020   34.9310 H   0  0  0  0  0  0  0  0  0  0  0  0
   21.1180  -28.1390   37.1220 H   0  0  0  0  0  0  0  0  0  0  0  0
   19.7009  -27.5560   39.1265 H   0  0  0  0  0  0  0  0  0  0  0  0
   20.5830  -25.7996   40.6426 H   0  0  0  0  0  0  0  0  0  0  0  0
   23.6893  -26.0589   42.5524 H   0  0  0  0  0  0  0  0  0  0  0  0
   22.3525  -24.9940   41.8968 H   0  0  0  0  0  0  0  0  0  0  0  0
   21.1873  -26.6950   43.8247 H   0  0  0  0  0  0  0  0  0  0  0  0
   22.4177  -26.0059   45.8974 H   0  0  0  0  0  0  0  0  0  0  0  0
   23.3266  -27.1535   44.8566 H   0  0  0  0  0  0  0  0  0  0  0  0
   23.7545  -25.4089   44.8566 H   0  0  0  0  0  0  0  0  0  0  0  0
   21.1500  -24.3221   45.0656 H   0  0  0  0  0  0  0  0  0  0  0  0
   21.8637  -23.7413   43.5229 H   0  0  0  0  0  0  0  0  0  0  0  0
   20.2572  -24.5451   43.5229 H   0  0  0  0  0  0  0  0  0  0  0  0
  1  2  1  0
  2  3  1  0
  3  4  2  0
  4  5  1  0
  5  6  1  0
  6  7  1  0
  7  8  1  0
  8  9  2  0
  9 10  1  0
 10 11  2  0
 11 12  1  0
 12 13  1  0
 12 14  2  0
 14 15  1  0
 15 16  2  0
 15 17  1  0
 17 18  1  0
  5 19  2  0
 19 20  1  0
 20 21  2  0
 21 22  1  0
 22 23  1  0
 23 24  1  0
 23 25  1  0
 21  3  1  0
 17  6  2  0
 14  8  1  0
  1 26  1  0
  1 27  1  0
  1 28  1  0
  2 29  1  0
  2 30  1  0
  4 31  1  0
  9 32  1  0
 10 33  1  0
 11 34  1  0
 13 35  1  0
 18 36  1  0
 19 37  1  0
 20 38  1  0
 22 39  1  0
 22 40  1  0
 23 41  1  0
 24 42  1  0
 24 43  1  0
 24 44  1  0
 25 45  1  0
 25 46  1  0
 25 47  1  0
M  END
>  <meeko>  (2) 
{"is_sidechain": [false], "free_energy": -9.239, "intermolecular_energy": -11.992, "internal_energy": -0.815}

$$$$
cand_049_out
     RDKit          3D

 47 49  0  0  0  0  0  0  0  0999 V2000
   18.5420  -26.3400   39.8110 C   0  0  0  0  0  0  0  0  0  0  0  0
   19.3710  -26.7910   41.0060 C   0  0  0  0  0  0  0  0  0  0  0  0
   20.3970  -27.8330   40.6190 C   0  0  0  0  0  0  0  0  0  0  0  0
   20.0050  -28.8340   39.7060 C   0  0  0  0  0  0  0  0  0  0  0  0
   20.8960  -29.8190   39.2560 C   0  0  0  0  0  0  0  0  0  0  0  0
   20.4280  -30.8650   38.3210 C   0  0  0  0  0  0  0  0  0  0  0  0
   20.7590  -30.5950   36.9980 O   0  0  0  0  0  0  0  0  0  0  0  0
   20.3840  -31.4850   36.0250 C   0  0  0  0  0  0  0  0  0  0  0  0
   20.7250  -31.1670   34.7100 C   0  0  0  0  0  0  0  0  0  0  0  0
   20.3750  -32.0320   33.6710 C   0  0  0  0  0  0  0  0  0  0  0  0
   19.6850  -33.2140   33.9470 C   0  0  0  0  0  0  0  0  0  0  0  0
   19.3460  -33.5290   35.2600 C   0  0  0  0  0  0  0  0  0  0  0  0
   18.6720  -34.7020   35.4590 O   0  0  0  0  0  0  0  0  0  0  0  0
   19.6960  -32.6630   36.2990 C   0  0  0  0  0  0  0  0  0  0  0  0
   19.3590  -32.9560   37.6940 C   0  0  0  0  0  0  0  0  0  0  0  0
   18.7600  -33.9800   38.0160 O   0  0  0  0  0  0  0  0  0  0  0  0
   19.7700  -31.9700   38.7190 C   0  0  0  0  0  0  0  0  0  0  0  0
   19.4580  -32.2640   40.0340 O   0  0  0  0  0  0  0  0  0  0  0  0
   22.2050  -29.7990   39.7430 C   0  0  0  0  0  0  0  0  0  0  0  0
   22.6130  -28.8110   40.6430 C   0  0  0  0  0  0  0  0  0  0  0  0
   21.7240  -27.8210   41.0930 C   0  0  0  0  0  0  0  0  0  0  0  0
   22.2380  -26.7900   42.0780 C   0  0  0  0  0  0  0  0  0  0  0  0
   23.3400  -27.3190   43.0180 C   0  0  0  0  0  0  0  0  0  0  0  0
   24.2800  -26.2080   43.4930 C   0  0  0  0  0  0  0  0  0  0  0  0
   22.7010  -28.0020   44.2300 C   0  0  0  0  0  0  0  0  0  0  0  0
   17.6274  -25.8425   40.1660 H   0  0  0  0  0  0  0  0  0  0  0  0
   19.1291  -25.6369   39.2019 H   0  0  0  0  0  0  0  0  0  0  0  0
   18.2706  -27.2148   39.2019 H   0  0  0  0  0  0  0  0  0  0  0  0
   19.8916  -25.9184   41.4274 H   0  0  0  0  0  0  0  0  0  0  0  0
   18.6899  -27.2404   41.7436 H   0  0  0  0  0  0  0  0  0  0  0  0
   18.9692  -28.8423   39.3358 H   0  0  0  0  0  0  0  0  0  0  0  0
   21.2689  -30.2361   34.4919 H   0  0  0  0  0  0  0  0  0  0  0  0
   20.6432  -31.7818   32.6340 H   0  0  0  0  0  0  0  0  0  0  0  0
   19.4097  -33.8952   33.1284 H   0  0  0  0  0  0  0  0  0  0  0  0
   19.0520  -35.5140   35.1830 H   0  0  0  0  0  0  0  0  0  0  0  0
   19.2180  -31.5760   40.6240 H   0  0  0  0  0  0  0  0  0  0  0  0
   22.9206  -30.5674   39.4153 H   0  0  0  0  0  0  0  0  0  0  0  0
   23.6512  -28.8085   41.0064 H   0  0  0  0  0  0  0  0  0  0  0  0
   22.6457  -25.9410   41.5096 H   0  0  0  0  0  0  0  0  0  0  0  0
   21.3870  -26.5032   42.7132 H   0  0  0  0  0  0  0  0  0  0  0  0
   23.9411  -28.0416   42.4466 H   0  0  0  0  0  0  0  0  0  0  0  0
   24.2973  -26.1876   44.5927 H   0  0  0  0  0  0  0  0  0  0  0  0
   25.2947  -26.3992   43.1138 H   0  0  0  0  0  0  0  0  0  0  0  0
   23.9234  -25.2389   43.1138 H   0  0  0  0  0  0  0  0  0  0  0  0
   23.1089  -27.5660   45.1539 H   0  0  0  0  0  0  0  0  0  0  0  0
   21.6116  -27.8518   44.2035 H   0  0  0  0  0  0  0  0  0  0  0  0
   22.9234  -29.0790   44.2035 H   0  0  0  0  0  0  0  0  0  0  0  0
  1  2  1  0
  2  3  1  0
  3  4  2  0
  4  5  1  0
  5  6  1  0
  6  7  1  0
  7  8  1  0
  8  9  2  0
  9 10  1  0
 10 11  2  0
 11 12  1  0
 12 13  1  0
 12 14  2  0
 14 15  1  0
 15 16  2  0
 15 17  1  0
 17 18  1  0
  5 19  2  0
 19 20  1  0
 20 21  2  0
 21 22  1  0
 22 23  1  0
 23 24  1  0
 23 25  1  0
 21  3  1  0
 17  6  2  0
 14  8  1  0
  1 26  1  0
  1 27  1  0
  1 28  1  0
  2 29  1  0
  2 30  1  0
  4 31  1  0
  9 32  1  0
 10 33  1  0
 11 34  1  0
 13 35  1  0
 18 36  1  0
 19 37  1  0
 20 38  1  0
 22 39  1  0
 22 40  1  0
 23 41  1  0
 24 42  1  0
 24 43  1  0
 24 44  1  0
 25 45  1  0
 25 46  1  0
 25 47  1  0
M  END
>  <meeko>  (3) 
{"is_sidechain": [false], "free_energy": -8.904, "intermolecular_energy": -11.499, "internal_energy": -0.876}

$$$$
cand_049_out
     RDKit          3D

 47 49  0  0  0  0  0  0  0  0999 V2000
   18.0090  -32.5110   39.3880 C   0  0  0  0  0  0  0  0  0  0  0  0
   19.2080  -32.8660   38.5180 C   0  0  0  0  0  0  0  0  0  0  0  0
   20.0710  -31.6580   38.2280 C   0  0  0  0  0  0  0  0  0  0  0  0
   20.6770  -31.0050   39.3210 C   0  0  0  0  0  0  0  0  0  0  0  0
   21.5260  -29.9020   39.1490 C   0  0  0  0  0  0  0  0  0  0  0  0
   22.1140  -29.2340   40.3310 C   0  0  0  0  0  0  0  0  0  0  0  0
   23.0760  -30.0100   40.9670 O   0  0  0  0  0  0  0  0  0  0  0  0
   23.7030  -29.5100   42.0790 C   0  0  0  0  0  0  0  0  0  0  0  0
   24.6510  -30.3280   42.6940 C   0  0  0  0  0  0  0  0  0  0  0  0
   25.3280  -29.8790   43.8300 C   0  0  0  0  0  0  0  0  0  0  0  0
   25.0570  -28.6110   44.3500 C   0  0  0  0  0  0  0  0  0  0  0  0
   24.1100  -27.7970   43.7350 C   0  0  0  0  0  0  0  0  0  0  0  0
   23.8940  -26.5680   44.2960 O   0  0  0  0  0  0  0  0  0  0  0  0
   23.4330  -28.2470   42.5980 C   0  0  0  0  0  0  0  0  0  0  0  0
   22.4300  -27.4230   41.9210 C   0  0  0  0  0  0  0  0  0  0  0  0
   22.1420  -26.2950   42.3150 O   0  0  0  0  0  0  0  0  0  0  0  0
   21.7650  -27.9970   40.7290 C   0  0  0  0  0  0  0  0  0  0  0  0
   20.8290  -27.2030   40.0890 O   0  0  0  0  0  0  0  0  0  0  0  0
   21.7610  -29.4440   37.8510 C   0  0  0  0  0  0  0  0  0  0  0  0
   21.1730  -30.0810   36.7560 C   0  0  0  0  0  0  0  0  0  0  0  0
   20.3250  -31.1890   36.9240 C   0  0  0  0  0  0  0  0  0  0  0  0
   19.7170  -31.8200   35.6880 C   0  0  0  0  0  0  0  0  0  0  0  0
   20.5260  -31.5760   34.3970 C   0  0  0  0  0  0  0  0  0  0  0  0
   20.5050  -32.7860   33.4600 C   0  0  0  0  0  0  0  0  0  0  0  0
   19.9700  -30.3510   33.6650 C   0  0  0  0  0  0  0  0  0  0  0  0
   18.2883  -32.5937   40.4487 H   0  0  0  0  0  0  0  0  0  0  0  0
   17.6914  -31.4803   39.1718 H   0  0  0  0  0  0  0  0  0  0  0  0
   17.1815  -33.2027   39.1718 H   0  0  0  0  0  0  0  0  0  0  0  0
   19.8154  -33.6201   39.0399 H   0  0  0  0  0  0  0  0  0  0  0  0
   18.8315  -33.2542   37.5601 H   0  0  0  0  0  0  0  0  0  0  0  0
   20.4779  -31.3716   40.3388 H   0  0  0  0  0  0  0  0  0  0  0  0
   24.8652  -31.3262   42.2844 H   0  0  0  0  0  0  0  0  0  0  0  0
   26.0750  -30.5241   44.3156 H   0  0  0  0  0  0  0  0  0  0  0  0
   25.5911  -28.2564   45.2439 H   0  0  0  0  0  0  0  0  0  0  0  0
   24.6140  -25.9850   44.4380 H   0  0  0  0  0  0  0  0  0  0  0  0
   20.4750  -26.4530   40.5250 H   0  0  0  0  0  0  0  0  0  0  0  0
   22.4147  -28.5742   37.6896 H   0  0  0  0  0  0  0  0  0  0  0  0
   21.3778  -29.7079   35.7417 H   0  0  0  0  0  0  0  0  0  0  0  0
   19.6469  -32.9054   35.8525 H   0  0  0  0  0  0  0  0  0  0  0  0
   18.7335  -31.3497   35.5413 H   0  0  0  0  0  0  0  0  0  0  0  0
   21.5718  -31.4032   34.6911 H   0  0  0  0  0  0  0  0  0  0  0  0
   20.4890  -33.7107   34.0555 H   0  0  0  0  0  0  0  0  0  0  0  0
   19.6075  -32.7429   32.8255 H   0  0  0  0  0  0  0  0  0  0  0  0
   21.4035  -32.7741   32.8255 H   0  0  0  0  0  0  0  0  0  0  0  0
   19.6320  -29.6064   34.4007 H   0  0  0  0  0  0  0  0  0  0  0  0
   20.7572  -29.9122   33.0343 H   0  0  0  0  0  0  0  0  0  0  0  0
   19.1215  -30.6546   33.0343 H   0  0  0  0  0  0  0  0  0  0  0  0
  1  2  1  0
  2  3  1  0
  3  4  2  0
  4  5  1  0
  5  6  1  0
  6  7  1  0
  7  8  1  0
  8  9  2  0
  9 10  1  0
 10 11  2  0
 11 12  1  0
 12 13  1  0
 12 14  2  0
 14 15  1  0
 15 16  2  0
 15 17  1  0
 17 18  1  0
  5 19  2  0
 19 20  1  0
 20 21  2  0
 21 22  1  0
 22 23  1  0
 23 24  1  0
 23 25  1  0
 21  3  1  0
 17  6  2  0
 14  8  1  0
  1 26  1  0
  1 27  1  0
  1 28  1  0
  2 29  1  0
  2 30  1  0
  4 31  1  0
  9 32  1  0
 10 33  1  0
 11 34  1  0
 13 35  1  0
 18 36  1  0
 19 37  1  0
 20 38  1  0
 22 39  1  0
 22 40  1  0
 23 41  1  0
 24 42  1  0
 24 43  1  0
 24 44  1  0
 25 45  1  0
 25 46  1  0
 25 47  1  0
M  END
>  <meeko>  (4) 
{"is_sidechain": [false], "free_energy": -8.677, "intermolecular_energy": -11.509, "internal_energy": -0.571}

$$$$
cand_049_out
     RDKit          3D

 47 49  0  0  0  0  0  0  0  0999 V2000
   24.3890  -28.7350   44.3300 C   0  0  0  0  0  0  0  0  0  0  0  0
   24.2880  -27.2940   43.8460 C   0  0  0  0  0  0  0  0  0  0  0  0
   22.9460  -27.0060   43.2120 C   0  0  0  0  0  0  0  0  0  0  0  0
   22.6040  -27.7170   42.0430 C   0  0  0  0  0  0  0  0  0  0  0  0
   21.3660  -27.5490   41.4060 C   0  0  0  0  0  0  0  0  0  0  0  0
   21.0680  -28.2970   40.1650 C   0  0  0  0  0  0  0  0  0  0  0  0
   20.6490  -29.6010   40.4080 O   0  0  0  0  0  0  0  0  0  0  0  0
   20.3390  -30.4070   39.3440 C   0  0  0  0  0  0  0  0  0  0  0  0
   19.9370  -31.7110   39.6330 C   0  0  0  0  0  0  0  0  0  0  0  0
   19.6050  -32.5850   38.5950 C   0  0  0  0  0  0  0  0  0  0  0  0
   19.6740  -32.1530   37.2690 C   0  0  0  0  0  0  0  0  0  0  0  0
   20.0760  -30.8510   36.9820 C   0  0  0  0  0  0  0  0  0  0  0  0
   20.1200  -30.4940   35.6630 O   0  0  0  0  0  0  0  0  0  0  0  0
   20.4080  -29.9780   38.0220 C   0  0  0  0  0  0  0  0  0  0  0  0
   20.8350  -28.6010   37.7650 C   0  0  0  0  0  0  0  0  0  0  0  0
   20.9140  -28.1470   36.6260 O   0  0  0  0  0  0  0  0  0  0  0  0
   21.1720  -27.7590   38.9360 C   0  0  0  0  0  0  0  0  0  0  0  0
   21.5610  -26.4560   38.6820 O   0  0  0  0  0  0  0  0  0  0  0  0
   20.4590  -26.6390   41.9530 C   0  0  0  0  0  0  0  0  0  0  0  0
   20.7770  -25.9290   43.1140 C   0  0  0  0  0  0  0  0  0  0  0  0
   22.0150  -26.0990   43.7570 C   0  0  0  0  0  0  0  0  0  0  0  0
   22.2920  -25.2850   45.0050 C   0  0  0  0  0  0  0  0  0  0  0  0
   21.0640  -24.5170   45.5370 C   0  0  0  0  0  0  0  0  0  0  0  0
   20.9280  -24.6200   47.0580 C   0  0  0  0  0  0  0  0  0  0  0  0
   21.1610  -23.0440   45.1290 C   0  0  0  0  0  0  0  0  0  0  0  0
   24.3903  -28.7531   45.4299 H   0  0  0  0  0  0  0  0  0  0  0  0
   23.5289  -29.3090   43.9548 H   0  0  0  0  0  0  0  0  0  0  0  0
   25.3208  -29.1834   43.9548 H   0  0  0  0  0  0  0  0  0  0  0  0
   24.4283  -26.6199   44.7038 H   0  0  0  0  0  0  0  0  0  0  0  0
   25.0663  -27.1341   43.0852 H   0  0  0  0  0  0  0  0  0  0  0  0
   23.3306  -28.4250   41.6179 H   0  0  0  0  0  0  0  0  0  0  0  0
   19.8814  -32.0510   40.6777 H   0  0  0  0  0  0  0  0  0  0  0  0
   19.2891  -33.6138   38.8224 H   0  0  0  0  0  0  0  0  0  0  0  0
   19.4110  -32.8406   36.4517 H   0  0  0  0  0  0  0  0  0  0  0  0
   19.3320  -30.2570   35.2150 H   0  0  0  0  0  0  0  0  0  0  0  0
   21.5620  -25.8240   39.3740 H   0  0  0  0  0  0  0  0  0  0  0  0
   19.4857  -26.4796   41.4658 H   0  0  0  0  0  0  0  0  0  0  0  0
   20.0442  -25.2235   43.5326 H   0  0  0  0  0  0  0  0  0  0  0  0
   22.6413  -25.9680   45.7933 H   0  0  0  0  0  0  0  0  0  0  0  0
   23.0462  -24.5317   44.7335 H   0  0  0  0  0  0  0  0  0  0  0  0
   20.1694  -24.9778   45.0927 H   0  0  0  0  0  0  0  0  0  0  0  0
   21.7170  -24.0224   47.5380 H   0  0  0  0  0  0  0  0  0  0  0  0
   19.9424  -24.2398   47.3646 H   0  0  0  0  0  0  0  0  0  0  0  0
   21.0269  -25.6718   47.3646 H   0  0  0  0  0  0  0  0  0  0  0  0
   21.2024  -22.4157   46.0309 H   0  0  0  0  0  0  0  0  0  0  0  0
   22.0713  -22.8882   44.5315 H   0  0  0  0  0  0  0  0  0  0  0  0
   20.2789  -22.7702   44.5315 H   0  0  0  0  0  0  0  0  0  0  0  0
  1  2  1  0
  2  3  1  0
  3  4  2  0
  4  5  1  0
  5  6  1  0
  6  7  1  0
  7  8  1  0
  8  9  2  0
  9 10  1  0
 10 11  2  0
 11 12  1  0
 12 13  1  0
 12 14  2  0
 14 15  1  0
 15 16  2  0
 15 17  1  0
 17 18  1  0
  5 19  2  0
 19 20  1  0
 20 21  2  0
 21 22  1  0
 22 23  1  0
 23 24  1  0
 23 25  1  0
 21  3  1  0
 17  6  2  0
 14  8  1  0
  1 26  1  0
  1 27  1  0
  1 28  1  0
  2 29  1  0
  2 30  1  0
  4 31  1  0
  9 32  1  0
 10 33  1  0
 11 34  1  0
 13 35  1  0
 18 36  1  0
 19 37  1  0
 20 38  1  0
 22 39  1  0
 22 40  1  0
 23 41  1  0
 24 42  1  0
 24 43  1  0
 24 44  1  0
 25 45  1  0
 25 46  1  0
 25 47  1  0
M  END
>  <meeko>  (5) 
{"is_sidechain": [false], "free_energy": -8.597, "intermolecular_energy": -11.198, "internal_energy": -0.779}

$$$$
cand_049_out
     RDKit          3D

 47 49  0  0  0  0  0  0  0  0999 V2000
   18.1580  -32.4370   39.3590 C   0  0  0  0  0  0  0  0  0  0  0  0
   19.5950  -32.6370   38.8950 C   0  0  0  0  0  0  0  0  0  0  0  0
   20.2980  -31.3200   38.6550 C   0  0  0  0  0  0  0  0  0  0  0  0
   20.7940  -30.6240   39.7770 C   0  0  0  0  0  0  0  0  0  0  0  0
   21.4940  -29.4160   39.6520 C   0  0  0  0  0  0  0  0  0  0  0  0
   21.9680  -28.7100   40.8630 C   0  0  0  0  0  0  0  0  0  0  0  0
   21.1430  -27.6520   41.2280 O   0  0  0  0  0  0  0  0  0  0  0  0
   21.4660  -26.9100   42.3350 C   0  0  0  0  0  0  0  0  0  0  0  0
   20.6190  -25.8490   42.6560 C   0  0  0  0  0  0  0  0  0  0  0  0
   20.8900  -25.0550   43.7730 C   0  0  0  0  0  0  0  0  0  0  0  0
   22.0060  -25.3220   44.5670 C   0  0  0  0  0  0  0  0  0  0  0  0
   22.8500  -26.3810   44.2450 C   0  0  0  0  0  0  0  0  0  0  0  0
   23.9240  -26.5880   45.0660 O   0  0  0  0  0  0  0  0  0  0  0  0
   22.5790  -27.1750   43.1270 C   0  0  0  0  0  0  0  0  0  0  0  0
   23.4400  -28.2990   42.7520 C   0  0  0  0  0  0  0  0  0  0  0  0
   24.4360  -28.6010   43.4060 O   0  0  0  0  0  0  0  0  0  0  0  0
   23.0690  -29.0730   41.5460 C   0  0  0  0  0  0  0  0  0  0  0  0
   23.8830  -30.1400   41.2100 O   0  0  0  0  0  0  0  0  0  0  0  0
   21.6910  -28.8940   38.3720 C   0  0  0  0  0  0  0  0  0  0  0  0
   21.2120  -29.5720   37.2480 C   0  0  0  0  0  0  0  0  0  0  0  0
   20.5130  -30.7850   37.3690 C   0  0  0  0  0  0  0  0  0  0  0  0
   20.0150  -31.4550   36.1040 C   0  0  0  0  0  0  0  0  0  0  0  0
   20.5660  -30.8300   34.8060 C   0  0  0  0  0  0  0  0  0  0  0  0
   20.7380  -31.8640   33.6910 C   0  0  0  0  0  0  0  0  0  0  0  0
   19.6290  -29.7150   34.3320 C   0  0  0  0  0  0  0  0  0  0  0  0
   18.1250  -32.4324   40.4585 H   0  0  0  0  0  0  0  0  0  0  0  0
   17.7795  -31.4775   38.9768 H   0  0  0  0  0  0  0  0  0  0  0  0
   17.5318  -33.2567   38.9768 H   0  0  0  0  0  0  0  0  0  0  0  0
   20.1432  -33.1974   39.6666 H   0  0  0  0  0  0  0  0  0  0  0  0
   19.5726  -33.1899   37.9443 H   0  0  0  0  0  0  0  0  0  0  0  0
   20.6264  -31.0419   40.7807 H   0  0  0  0  0  0  0  0  0  0  0  0
   19.7391  -25.6379   42.0305 H   0  0  0  0  0  0  0  0  0  0  0  0
   20.2227  -24.2182   44.0270 H   0  0  0  0  0  0  0  0  0  0  0  0
   22.2185  -24.6963   45.4464 H   0  0  0  0  0  0  0  0  0  0  0  0
   24.1700  -27.4600   45.3060 H   0  0  0  0  0  0  0  0  0  0  0  0
   24.5890  -30.3870   41.7740 H   0  0  0  0  0  0  0  0  0  0  0  0
   22.2274  -27.9417   38.2475 H   0  0  0  0  0  0  0  0  0  0  0  0
   21.3856  -29.1476   36.2481 H   0  0  0  0  0  0  0  0  0  0  0  0
   20.3134  -32.5134   36.1324 H   0  0  0  0  0  0  0  0  0  0  0  0
   18.9230  -31.3239   36.0825 H   0  0  0  0  0  0  0  0  0  0  0  0
   21.5609  -30.4201   35.0343 H   0  0  0  0  0  0  0  0  0  0  0  0
   20.9032  -32.8571   34.1342 H   0  0  0  0  0  0  0  0  0  0  0  0
   19.8312  -31.8864   33.0687 H   0  0  0  0  0  0  0  0  0  0  0  0
   21.6032  -31.5917   33.0687 H   0  0  0  0  0  0  0  0  0  0  0  0
   19.1982  -29.2024   35.2047 H   0  0  0  0  0  0  0  0  0  0  0  0
   20.1955  -28.9931   33.7254 H   0  0  0  0  0  0  0  0  0  0  0  0
   18.8203  -30.1488   33.7254 H   0  0  0  0  0  0  0  0  0  0  0  0
  1  2  1  0
  2  3  1  0
  3  4  2  0
  4  5  1  0
  5  6  1  0
  6  7  1  0
  7  8  1  0
  8  9  2  0
  9 10  1  0
 10 11  2  0
 11 12  1  0
 12 13  1  0
 12 14  2  0
 14 15  1  0
 15 16  2  0
 15 17  1  0
 17 18  1  0
  5 19  2  0
 19 20  1  0
 20 21  2  0
 21 22  1  0
 22 23  1  0
 23 24  1  0
 23 25  1  0
 21  3  1  0
 17  6  2  0
 14  8  1  0
  1 26  1  0
  1 27  1  0
  1 28  1  0
  2 29  1  0
  2 30  1  0
  4 31  1  0
  9 32  1  0
 10 33  1  0
 11 34  1  0
 13 35  1  0
 18 36  1  0
 19 37  1  0
 20 38  1  0
 22 39  1  0
 22 40  1  0
 23 41  1  0
 24 42  1  0
 24 43  1  0
 24 44  1  0
 25 45  1  0
 25 46  1  0
 25 47  1  0
M  END
>  <meeko>  (6) 
{"is_sidechain": [false], "free_energy": -8.581, "intermolecular_energy": -11.333, "internal_energy": -0.623}

$$$$
cand_049_out
     RDKit          3D

 47 49  0  0  0  0  0  0  0  0999 V2000
   18.5250  -34.2180   39.0630 C   0  0  0  0  0  0  0  0  0  0  0  0
   18.5480  -34.0960   37.5450 C   0  0  0  0  0  0  0  0  0  0  0  0
   19.2900  -32.8590   37.0910 C   0  0  0  0  0  0  0  0  0  0  0  0
   19.6330  -31.9020   38.0680 C   0  0  0  0  0  0  0  0  0  0  0  0
   20.3570  -30.7430   37.7510 C   0  0  0  0  0  0  0  0  0  0  0  0
   20.6660  -29.7550   38.8070 C   0  0  0  0  0  0  0  0  0  0  0  0
   21.7930  -30.0920   39.5480 O   0  0  0  0  0  0  0  0  0  0  0  0
   22.1930  -29.2610   40.5620 C   0  0  0  0  0  0  0  0  0  0  0  0
   23.3210  -29.6450   41.2880 C   0  0  0  0  0  0  0  0  0  0  0  0
   23.7840  -28.8420   42.3340 C   0  0  0  0  0  0  0  0  0  0  0  0
   23.1190  -27.6560   42.6520 C   0  0  0  0  0  0  0  0  0  0  0  0
   21.9940  -27.2750   41.9260 C   0  0  0  0  0  0  0  0  0  0  0  0
   21.3920  -26.1020   42.2890 O   0  0  0  0  0  0  0  0  0  0  0  0
   21.5320  -28.0790   40.8800 C   0  0  0  0  0  0  0  0  0  0  0  0
   20.3530  -27.7150   40.0910 C   0  0  0  0  0  0  0  0  0  0  0  0
   19.7200  -26.6840   40.3060 O   0  0  0  0  0  0  0  0  0  0  0  0
   19.9410  -28.6390   39.0100 C   0  0  0  0  0  0  0  0  0  0  0  0
   18.8340  -28.2780   38.2630 O   0  0  0  0  0  0  0  0  0  0  0  0
   20.7320  -30.5410   36.4210 C   0  0  0  0  0  0  0  0  0  0  0  0
   20.4060  -31.4810   35.4400 C   0  0  0  0  0  0  0  0  0  0  0  0
   19.6850  -32.6450   35.7550 C   0  0  0  0  0  0  0  0  0  0  0  0
   19.3600  -33.6120   34.6340 C   0  0  0  0  0  0  0  0  0  0  0  0
   20.3760  -33.5900   33.4740 C   0  0  0  0  0  0  0  0  0  0  0  0
   20.7980  -34.9980   33.0460 C   0  0  0  0  0  0  0  0  0  0  0  0
   19.7750  -32.8490   32.2760 C   0  0  0  0  0  0  0  0  0  0  0  0
   18.7110  -33.2316   39.5130 H   0  0  0  0  0  0  0  0  0  0  0  0
   17.5411  -34.5888   39.3862 H   0  0  0  0  0  0  0  0  0  0  0  0
   19.3063  -34.9216   39.3862 H   0  0  0  0  0  0  0  0  0  0  0  0
   19.0441  -34.9830   37.1242 H   0  0  0  0  0  0  0  0  0  0  0  0
   17.5087  -34.0192   37.1929 H   0  0  0  0  0  0  0  0  0  0  0  0
   19.3235  -32.0692   39.1102 H   0  0  0  0  0  0  0  0  0  0  0  0
   23.8454  -30.5789   41.0373 H   0  0  0  0  0  0  0  0  0  0  0  0
   24.6728  -29.1444   42.9071 H   0  0  0  0  0  0  0  0  0  0  0  0
   23.4836  -27.0237   43.4750 H   0  0  0  0  0  0  0  0  0  0  0  0
   21.0460  -25.5290   41.6320 H   0  0  0  0  0  0  0  0  0  0  0  0
   18.6840  -28.6740   37.4260 H   0  0  0  0  0  0  0  0  0  0  0  0
   21.2889  -29.6339   36.1433 H   0  0  0  0  0  0  0  0  0  0  0  0
   20.7201  -31.3062   34.4004 H   0  0  0  0  0  0  0  0  0  0  0  0
   19.3332  -34.6294   35.0514 H   0  0  0  0  0  0  0  0  0  0  0  0
   18.3915  -33.3009   34.2154 H   0  0  0  0  0  0  0  0  0  0  0  0
   21.2753  -33.0681   33.8330 H   0  0  0  0  0  0  0  0  0  0  0  0
   20.9823  -35.6130   33.9392 H   0  0  0  0  0  0  0  0  0  0  0  0
   19.9971  -35.4542   32.4456 H   0  0  0  0  0  0  0  0  0  0  0  0
   21.7178  -34.9385   32.4456 H   0  0  0  0  0  0  0  0  0  0  0  0
   19.1201  -32.0415   32.6353 H   0  0  0  0  0  0  0  0  0  0  0  0
   20.5842  -32.4209   31.6661 H   0  0  0  0  0  0  0  0  0  0  0  0
   19.1891  -33.5524   31.6661 H   0  0  0  0  0  0  0  0  0  0  0  0
  1  2  1  0
  2  3  1  0
  3  4  2  0
  4  5  1  0
  5  6  1  0
  6  7  1  0
  7  8  1  0
  8  9  2  0
  9 10  1  0
 10 11  2  0
 11 12  1  0
 12 13  1  0
 12 14  2  0
 14 15  1  0
 15 16  2  0
 15 17  1  0
 17 18  1  0
  5 19  2  0
 19 20  1  0
 20 21  2  0
 21 22  1  0
 22 23  1  0
 23 24  1  0
 23 25  1  0
 21  3  1  0
 17  6  2  0
 14  8  1  0
  1 26  1  0
  1 27  1  0
  1 28  1  0
  2 29  1  0
  2 30  1  0
  4 31  1  0
  9 32  1  0
 10 33  1  0
 11 34  1  0
 13 35  1  0
 18 36  1  0
 19 37  1  0
 20 38  1  0
 22 39  1  0
 22 40  1  0
 23 41  1  0
 24 42  1  0
 24 43  1  0
 24 44  1  0
 25 45  1  0
 25 46  1  0
 25 47  1  0
M  END
>  <meeko>  (7) 
{"is_sidechain": [false], "free_energy": -8.443, "intermolecular_energy": -11.025, "internal_energy": -0.754}

$$$$
cand_049_out
     RDKit          3D

 47 49  0  0  0  0  0  0  0  0999 V2000
   24.0210  -29.3390   42.5050 C   0  0  0  0  0  0  0  0  0  0  0  0
   23.5000  -27.9080   42.5230 C   0  0  0  0  0  0  0  0  0  0  0  0
   22.1890  -27.7780   41.7790 C   0  0  0  0  0  0  0  0  0  0  0  0
   21.9220  -28.7040   40.7500 C   0  0  0  0  0  0  0  0  0  0  0  0
   20.7170  -28.6890   40.0310 C   0  0  0  0  0  0  0  0  0  0  0  0
   20.4980  -29.6640   38.9400 C   0  0  0  0  0  0  0  0  0  0  0  0
   19.7060  -30.7390   39.3280 O   0  0  0  0  0  0  0  0  0  0  0  0
   19.4230  -31.7180   38.4120 C   0  0  0  0  0  0  0  0  0  0  0  0
   18.6370  -32.7850   38.8480 C   0  0  0  0  0  0  0  0  0  0  0  0
   18.3100  -33.8170   37.9640 C   0  0  0  0  0  0  0  0  0  0  0  0
   18.7680  -33.7800   36.6460 C   0  0  0  0  0  0  0  0  0  0  0  0
   19.5520  -32.7140   36.2130 C   0  0  0  0  0  0  0  0  0  0  0  0
   19.9660  -32.7410   34.9100 O   0  0  0  0  0  0  0  0  0  0  0  0
   19.8790  -31.6830   37.0970 C   0  0  0  0  0  0  0  0  0  0  0  0
   20.7010  -30.5440   36.6840 C   0  0  0  0  0  0  0  0  0  0  0  0
   21.1350  -30.4370   35.5390 O   0  0  0  0  0  0  0  0  0  0  0  0
   20.9970  -29.5080   37.7000 C   0  0  0  0  0  0  0  0  0  0  0  0
   21.7630  -28.4300   37.2940 O   0  0  0  0  0  0  0  0  0  0  0  0
   19.7690  -27.7160   40.3510 C   0  0  0  0  0  0  0  0  0  0  0  0
   20.0130  -26.7930   41.3720 C   0  0  0  0  0  0  0  0  0  0  0  0
   21.2170  -26.8080   42.0960 C   0  0  0  0  0  0  0  0  0  0  0  0
   21.4130  -25.7680   43.1810 C   0  0  0  0  0  0  0  0  0  0  0  0
   20.4810  -24.5460   43.0530 C   0  0  0  0  0  0  0  0  0  0  0  0
   19.5900  -24.3640   44.2830 C   0  0  0  0  0  0  0  0  0  0  0  0
   21.3170  -23.2810   42.8330 C   0  0  0  0  0  0  0  0  0  0  0  0
   24.1506  -29.6950   43.5377 H   0  0  0  0  0  0  0  0  0  0  0  0
   23.3004  -29.9850   41.9822 H   0  0  0  0  0  0  0  0  0  0  0  0
   24.9883  -29.3705   41.9822 H   0  0  0  0  0  0  0  0  0  0  0  0
   23.3491  -27.5971   43.5673 H   0  0  0  0  0  0  0  0  0  0  0  0
   24.2418  -27.2677   42.0232 H   0  0  0  0  0  0  0  0  0  0  0  0
   22.6810  -29.4610   40.5033 H   0  0  0  0  0  0  0  0  0  0  0  0
   18.2750  -32.8140   39.8863 H   0  0  0  0  0  0  0  0  0  0  0  0
   17.6911  -34.6591   38.3073 H   0  0  0  0  0  0  0  0  0  0  0  0
   18.5099  -34.5920   35.9503 H   0  0  0  0  0  0  0  0  0  0  0  0
   19.5940  -33.3600   34.3120 H   0  0  0  0  0  0  0  0  0  0  0  0
   21.3510  -27.6820   36.9070 H   0  0  0  0  0  0  0  0  0  0  0  0
   18.8210  -27.6751   39.7946 H   0  0  0  0  0  0  0  0  0  0  0  0
   19.2478  -26.0405   41.6132 H   0  0  0  0  0  0  0  0  0  0  0  0
   21.2270  -26.2446   44.1548 H   0  0  0  0  0  0  0  0  0  0  0  0
   22.4431  -25.3949   43.0824 H   0  0  0  0  0  0  0  0  0  0  0  0
   19.8223  -24.7227   42.1900 H   0  0  0  0  0  0  0  0  0  0  0  0
   20.1935  -24.4873   45.1944 H   0  0  0  0  0  0  0  0  0  0  0  0
   19.1476  -23.3570   44.2696 H   0  0  0  0  0  0  0  0  0  0  0  0
   18.7882  -25.1169   44.2696 H   0  0  0  0  0  0  0  0  0  0  0  0
   21.5992  -22.8540   43.8067 H   0  0  0  0  0  0  0  0  0  0  0  0
   22.2253  -23.5356   42.2672 H   0  0  0  0  0  0  0  0  0  0  0  0
   20.7267  -22.5452   42.2672 H   0  0  0  0  0  0  0  0  0  0  0  0
  1  2  1  0
  2  3  1  0
  3  4  2  0
  4  5  1  0
  5  6  1  0
  6  7  1  0
  7  8  1  0
  8  9  2  0
  9 10  1  0
 10 11  2  0
 11 12  1  0
 12 13  1  0
 12 14  2  0
 14 15  1  0
 15 16  2  0
 15 17  1  0
 17 18  1  0
  5 19  2  0
 19 20  1  0
 20 21  2  0
 21 22  1  0
 22 23  1  0
 23 24  1  0
 23 25  1  0
 21  3  1  0
 17  6  2  0
 14  8  1  0
  1 26  1  0
  1 27  1  0
  1 28  1  0
  2 29  1  0
  2 30  1  0
  4 31  1  0
  9 32  1  0
 10 33  1  0
 11 34  1  0
 13 35  1  0
 18 36  1  0
 19 37  1  0
 20 38  1  0
 22 39  1  0
 22 40  1  0
 23 41  1  0
 24 42  1  0
 24 43  1  0
 24 44  1  0
 25 45  1  0
 25 46  1  0
 25 47  1  0
M  END
>  <meeko>  (8) 
{"is_sidechain": [false], "free_energy": -8.425, "intermolecular_energy": -10.918, "internal_energy": -0.836}

$$$$
cand_049_out
     RDKit          3D

 47 49  0  0  0  0  0  0  0  0999 V2000
   20.0900  -29.3700   34.8600 C   0  0  0  0  0  0  0  0  0  0  0  0
   20.7840  -30.6500   35.3080 C   0  0  0  0  0  0  0  0  0  0  0  0
   20.4940  -30.9690   36.7580 C   0  0  0  0  0  0  0  0  0  0  0  0
   21.0470  -30.1220   37.7410 C   0  0  0  0  0  0  0  0  0  0  0  0
   20.8010  -30.3130   39.1090 C   0  0  0  0  0  0  0  0  0  0  0  0
   21.4300  -29.4150   40.1020 C   0  0  0  0  0  0  0  0  0  0  0  0
   22.5010  -30.0060   40.7620 O   0  0  0  0  0  0  0  0  0  0  0  0
   23.1760  -29.2830   41.7120 C   0  0  0  0  0  0  0  0  0  0  0  0
   24.2350  -29.9200   42.3590 C   0  0  0  0  0  0  0  0  0  0  0  0
   24.9660  -29.2390   43.3360 C   0  0  0  0  0  0  0  0  0  0  0  0
   24.6380  -27.9220   43.6640 C   0  0  0  0  0  0  0  0  0  0  0  0
   23.5800  -27.2880   43.0170 C   0  0  0  0  0  0  0  0  0  0  0  0
   23.3130  -25.9990   43.3860 O   0  0  0  0  0  0  0  0  0  0  0  0
   22.8490  -27.9710   42.0400 C   0  0  0  0  0  0  0  0  0  0  0  0
   21.7300  -27.3420   41.3360 C   0  0  0  0  0  0  0  0  0  0  0  0
   21.3860  -26.1840   41.5640 O   0  0  0  0  0  0  0  0  0  0  0  0
   21.0160  -28.1530   40.3230 C   0  0  0  0  0  0  0  0  0  0  0  0
   19.9690  -27.5440   39.6550 O   0  0  0  0  0  0  0  0  0  0  0  0
   19.9900  -31.3830   39.4930 C   0  0  0  0  0  0  0  0  0  0  0  0
   19.4290  -32.2280   38.5330 C   0  0  0  0  0  0  0  0  0  0  0  0
   19.6690  -32.0380   37.1610 C   0  0  0  0  0  0  0  0  0  0  0  0
   19.0340  -33.0040   36.1810 C   0  0  0  0  0  0  0  0  0  0  0  0
   19.7250  -34.3810   36.1230 C   0  0  0  0  0  0  0  0  0  0  0  0
   18.9130  -35.4690   36.8290 C   0  0  0  0  0  0  0  0  0  0  0  0
   19.9560  -34.7810   34.6620 C   0  0  0  0  0  0  0  0  0  0  0  0
   19.7776  -28.7938   35.7434 H   0  0  0  0  0  0  0  0  0  0  0  0
   20.7852  -28.7679   34.2566 H   0  0  0  0  0  0  0  0  0  0  0  0
   19.2061  -29.6241   34.2566 H   0  0  0  0  0  0  0  0  0  0  0  0
   20.4315  -31.4836   34.6828 H   0  0  0  0  0  0  0  0  0  0  0  0
   21.8692  -30.5060   35.2003 H   0  0  0  0  0  0  0  0  0  0  0  0
   21.6901  -29.2871   37.4258 H   0  0  0  0  0  0  0  0  0  0  0  0
   24.4944  -30.9572   42.1004 H   0  0  0  0  0  0  0  0  0  0  0  0
   25.8007  -29.7410   43.8472 H   0  0  0  0  0  0  0  0  0  0  0  0
   25.2144  -27.3859   44.4324 H   0  0  0  0  0  0  0  0  0  0  0  0
   23.1160  -25.3560   42.7330 H   0  0  0  0  0  0  0  0  0  0  0  0
   19.9700  -27.5070   38.7180 H   0  0  0  0  0  0  0  0  0  0  0  0
   19.7915  -31.5617   40.5601 H   0  0  0  0  0  0  0  0  0  0  0  0
   18.7860  -33.0595   38.8572 H   0  0  0  0  0  0  0  0  0  0  0  0
   17.9848  -33.1553   36.4747 H   0  0  0  0  0  0  0  0  0  0  0  0
   19.1328  -32.5553   35.1816 H   0  0  0  0  0  0  0  0  0  0  0  0
   20.6860  -34.2894   36.6504 H   0  0  0  0  0  0  0  0  0  0  0  0
   19.0046  -35.3462   37.9183 H   0  0  0  0  0  0  0  0  0  0  0  0
   17.8555  -35.3843   36.5381 H   0  0  0  0  0  0  0  0  0  0  0  0
   19.2951  -36.4586   36.5381 H   0  0  0  0  0  0  0  0  0  0  0  0
   20.5058  -35.7330   34.6250 H   0  0  0  0  0  0  0  0  0  0  0  0
   18.9863  -34.8977   34.1561 H   0  0  0  0  0  0  0  0  0  0  0  0
   20.5418  -33.9994   34.1561 H   0  0  0  0  0  0  0  0  0  0  0  0
  1  2  1  0
  2  3  1  0
  3  4  2  0
  4  5  1  0
  5  6  1  0
  6  7  1  0
  7  8  1  0
  8  9  2  0
  9 10  1  0
 10 11  2  0
 11 12  1  0
 12 13  1  0
 12 14  2  0
 14 15  1  0
 15 16  2  0
 15 17  1  0
 17 18  1  0
  5 19  2  0
 19 20  1  0
 20 21  2  0
 21 22  1  0
 22 23  1  0
 23 24  1  0
 23 25  1  0
 21  3  1  0
 17  6  2  0
 14  8  1  0
  1 26  1  0
  1 27  1  0
  1 28  1  0
  2 29  1  0
  2 30  1  0
  4 31  1  0
  9 32  1  0
 10 33  1  0
 11 34  1  0
 13 35  1  0
 18 36  1  0
 19 37  1  0
 20 38  1  0
 22 39  1  0
 22 40  1  0
 23 41  1  0
 24 42  1  0
 24 43  1  0
 24 44  1  0
 25 45  1  0
 25 46  1  0
 25 47  1  0
M  END
>  <meeko>  (9) 
{"is_sidechain": [false], "free_energy": -8.238, "intermolecular_energy": -10.647, "internal_energy": -0.866}

$$$$
