cand_045_out
     RDKit          3D

 35 37  0  0  0  0  0  0  0  0999 V2000
   22.4830  -26.8760   42.2850 C   0  0  0  0  0  0  0  0  0  0  0  0
   21.9530  -27.8860   41.3040 C   0  0  0  0  0  0  0  0  0  0  0  0
   22.7880  -28.9260   40.8720 C   0  0  0  0  0  0  0  0  0  0  0  0
   22.3310  -29.8830   39.9610 C   0  0  0  0  0  0  0  0  0  0  0  0
   21.0300  -29.8210   39.4510 C   0  0  0  0  0  0  0  0  0  0  0  0
   20.5140  -30.8340   38.5060 C   0  0  0  0  0  0  0  0  0  0  0  0
   20.0630  -31.9850   39.1420 O   0  0  0  0  0  0  0  0  0  0  0  0
   19.5510  -33.0060   38.3830 C   0  0  0  0  0  0  0  0  0  0  0  0
   19.1180  -34.1450   39.0620 C   0  0  0  0  0  0  0  0  0  0  0  0
   18.5860  -35.2210   38.3490 C   0  0  0  0  0  0  0  0  0  0  0  0
   18.4870  -35.1590   36.9570 C   0  0  0  0  0  0  0  0  0  0  0  0
   18.9200  -34.0190   36.2820 C   0  0  0  0  0  0  0  0  0  0  0  0
   18.7930  -34.0240   34.9200 O   0  0  0  0  0  0  0  0  0  0  0  0
   19.4520  -32.9430   36.9960 C   0  0  0  0  0  0  0  0  0  0  0  0
   19.9170  -31.7280   36.3260 C   0  0  0  0  0  0  0  0  0  0  0  0
   19.8570  -31.5940   35.1050 O   0  0  0  0  0  0  0  0  0  0  0  0
   20.4690  -30.6460   37.1740 C   0  0  0  0  0  0  0  0  0  0  0  0
   20.8900  -29.4960   36.5310 O   0  0  0  0  0  0  0  0  0  0  0  0
   20.1910  -28.7850   39.8920 C   0  0  0  0  0  0  0  0  0  0  0  0
   20.6350  -27.8150   40.8110 C   0  0  0  0  0  0  0  0  0  0  0  0
   19.6900  -26.7210   41.2420 C   0  0  0  0  0  0  0  0  0  0  0  0
   19.1290  -26.9320   42.4670 F   0  0  0  0  0  0  0  0  0  0  0  0
   22.2979  -27.2287   43.3104 H   0  0  0  0  0  0  0  0  0  0  0  0
   23.5646  -26.7478   42.1310 H   0  0  0  0  0  0  0  0  0  0  0  0
   21.9740  -25.9131   42.1310 H   0  0  0  0  0  0  0  0  0  0  0  0
   23.8171  -28.9899   41.2552 H   0  0  0  0  0  0  0  0  0  0  0  0
   23.0022  -30.6939   39.6417 H   0  0  0  0  0  0  0  0  0  0  0  0
   19.1956  -34.1954   40.1581 H   0  0  0  0  0  0  0  0  0  0  0  0
   18.2442  -36.1191   38.8843 H   0  0  0  0  0  0  0  0  0  0  0  0
   18.0686  -36.0072   36.3953 H   0  0  0  0  0  0  0  0  0  0  0  0
   19.4930  -34.3440   34.3850 H   0  0  0  0  0  0  0  0  0  0  0  0
   20.7000  -28.6570   36.9010 H   0  0  0  0  0  0  0  0  0  0  0  0
   19.1610  -28.7298   39.5099 H   0  0  0  0  0  0  0  0  0  0  0  0
   20.2475  -25.7733   41.2740 H   0  0  0  0  0  0  0  0  0  0  0  0
   18.8680  -26.7001   40.5114 H   0  0  0  0  0  0  0  0  0  0  0  0
  1  2  1  0
  2  3  2  0
  3  4  1  0
  4  5  2  0
  5  6  1  0
  6  7  1  0
  7  8  1  0
  8  9  2  0
  9 10  1  0
 10 11  2  0
 11 12  1  0
 12 13  1  0
 12 14  2  0
 14 15  1  0
 15 16  2  0
 15 17  1  0
 17 18  1  0
  5 19  1  0
 19 20  2  0
 20 21  1  0
 21 22  1  0
 20  2  1  0
 17  6  2  0
 14  8  1  0
  1 23  1  0
  1 24  1  0
  1 25  1  0
  3 26  1  0
  4 27  1  0
  9 28  1  0
 10 29  1  0
 11 30  1  0
 13 31  1  0
 18 32  1  0
 19 33  1  0
 21 34  1  0
 21 35  1  0
M  END
>  <meeko>  (1) 
{"is_sidechain": [false], "free_energy": -9.094, "intermolecular_energy": -10.689, "internal_energy": -0.449}

$$$$
cand_045_out
     RDKit          3D

 35 37  0  0  0  0  0  0  0  0999 V2000
   24.0230  -27.0050   43.6210 C   0  0  0  0  0  0  0  0  0  0  0  0
   23.3600  -27.8140   42.5400 C   0  0  0  0  0  0  0  0  0  0  0  0
   22.3040  -27.2480   41.8120 C   0  0  0  0  0  0  0  0  0  0  0  0
   21.6620  -27.9690   40.8000 C   0  0  0  0  0  0  0  0  0  0  0  0
   22.0540  -29.2770   40.4950 C   0  0  0  0  0  0  0  0  0  0  0  0
   21.4100  -30.0520   39.4130 C   0  0  0  0  0  0  0  0  0  0  0  0
   20.6090  -31.0820   39.8910 O   0  0  0  0  0  0  0  0  0  0  0  0
   19.9450  -31.8780   38.9930 C   0  0  0  0  0  0  0  0  0  0  0  0
   19.1580  -32.9050   39.5170 C   0  0  0  0  0  0  0  0  0  0  0  0
   18.4560  -33.7520   38.6580 C   0  0  0  0  0  0  0  0  0  0  0  0
   18.5400  -33.5740   37.2760 C   0  0  0  0  0  0  0  0  0  0  0  0
   19.3260  -32.5470   36.7560 C   0  0  0  0  0  0  0  0  0  0  0  0
   19.3620  -32.4280   35.3930 O   0  0  0  0  0  0  0  0  0  0  0  0
   20.0280  -31.7000   37.6160 C   0  0  0  0  0  0  0  0  0  0  0  0
   20.8630  -30.6100   37.1120 C   0  0  0  0  0  0  0  0  0  0  0  0
   20.9830  -30.3840   35.9090 O   0  0  0  0  0  0  0  0  0  0  0  0
   21.5710  -29.7710   38.1070 C   0  0  0  0  0  0  0  0  0  0  0  0
   22.3440  -28.7340   37.6190 O   0  0  0  0  0  0  0  0  0  0  0  0
   23.1190  -29.8380   41.2180 C   0  0  0  0  0  0  0  0  0  0  0  0
   23.7770  -29.1250   42.2380 C   0  0  0  0  0  0  0  0  0  0  0  0
   24.9090  -29.7840   42.9860 C   0  0  0  0  0  0  0  0  0  0  0  0
   25.0230  -31.1220   42.7400 F   0  0  0  0  0  0  0  0  0  0  0  0
   23.7122  -27.3843   44.6057 H   0  0  0  0  0  0  0  0  0  0  0  0
   25.1155  -27.0889   43.5239 H   0  0  0  0  0  0  0  0  0  0  0  0
   23.7262  -25.9503   43.5239 H   0  0  0  0  0  0  0  0  0  0  0  0
   21.9760  -26.2231   42.0398 H   0  0  0  0  0  0  0  0  0  0  0  0
   20.8397  -27.5025   40.2376 H   0  0  0  0  0  0  0  0  0  0  0  0
   19.0912  -33.0466   40.6058 H   0  0  0  0  0  0  0  0  0  0  0  0
   17.8355  -34.5611   39.0707 H   0  0  0  0  0  0  0  0  0  0  0  0
   17.9875  -34.2423   36.5992 H   0  0  0  0  0  0  0  0  0  0  0  0
   19.3500  -33.1950   34.8550 H   0  0  0  0  0  0  0  0  0  0  0  0
   22.6170  -28.7350   36.7230 H   0  0  0  0  0  0  0  0  0  0  0  0
   23.4475  -30.8608   40.9813 H   0  0  0  0  0  0  0  0  0  0  0  0
   25.8500  -29.2955   42.6929 H   0  0  0  0  0  0  0  0  0  0  0  0
   24.6944  -29.6712   44.0590 H   0  0  0  0  0  0  0  0  0  0  0  0
  1  2  1  0
  2  3  2  0
  3  4  1  0
  4  5  2  0
  5  6  1  0
  6  7  1  0
  7  8  1  0
  8  9  2  0
  9 10  1  0
 10 11  2  0
 11 12  1  0
 12 13  1  0
 12 14  2  0
 14 15  1  0
 15 16  2  0
 15 17  1  0
 17 18  1  0
  5 19  1  0
 19 20  2  0
 20 21  1  0
 21 22  1  0
 20  2  1  0
 17  6  2  0
 14  8  1  0
  1 23  1  0
  1 24  1  0
  1 25  1  0
  3 26  1  0
  4 27  1  0
  9 28  1  0
 10 29  1  0
 11 30  1  0
 13 31  1  0
 18 32  1  0
 19 33  1  0
 21 34  1  0
 21 35  1  0
M  END
>  <meeko>  (2) 
{"is_sidechain": [false], "free_energy": -8.972, "intermolecular_energy": -10.636, "internal_energy": -0.359}

$$$$
cand_045_out
     RDKit          3D

 35 37  0  0  0  0  0  0  0  0999 V2000
   24.0880  -26.9800   43.7880 C   0  0  0  0  0  0  0  0  0  0  0  0
   23.4050  -27.7460   42.6880 C   0  0  0  0  0  0  0  0  0  0  0  0
   23.8800  -29.0190   42.3430 C   0  0  0  0  0  0  0  0  0  0  0  0
   23.2720  -29.7610   41.3260 C   0  0  0  0  0  0  0  0  0  0  0  0
   22.1780  -29.2470   40.6220 C   0  0  0  0  0  0  0  0  0  0  0  0
   21.5010  -30.0210   39.5600 C   0  0  0  0  0  0  0  0  0  0  0  0
   20.6560  -31.0030   40.0630 O   0  0  0  0  0  0  0  0  0  0  0  0
   19.9580  -31.7930   39.1850 C   0  0  0  0  0  0  0  0  0  0  0  0
   19.1280  -32.7710   39.7340 C   0  0  0  0  0  0  0  0  0  0  0  0
   18.3900  -33.6090   38.8960 C   0  0  0  0  0  0  0  0  0  0  0  0
   18.4810  -33.4690   37.5090 C   0  0  0  0  0  0  0  0  0  0  0  0
   19.3100  -32.4900   36.9640 C   0  0  0  0  0  0  0  0  0  0  0  0
   19.3510  -32.4070   35.5990 O   0  0  0  0  0  0  0  0  0  0  0  0
   20.0480  -31.6520   37.8030 C   0  0  0  0  0  0  0  0  0  0  0  0
   20.9300  -30.6120   37.2720 C   0  0  0  0  0  0  0  0  0  0  0  0
   21.0590  -30.4220   36.0640 O   0  0  0  0  0  0  0  0  0  0  0  0
   21.6730  -29.7800   38.2470 C   0  0  0  0  0  0  0  0  0  0  0  0
   22.4900  -28.7890   37.7330 O   0  0  0  0  0  0  0  0  0  0  0  0
   21.6970  -27.9770   40.9760 C   0  0  0  0  0  0  0  0  0  0  0  0
   22.2960  -27.2180   41.9990 C   0  0  0  0  0  0  0  0  0  0  0  0
   21.7390  -25.8550   42.3280 C   0  0  0  0  0  0  0  0  0  0  0  0
   22.5130  -24.8240   41.8800 F   0  0  0  0  0  0  0  0  0  0  0  0
   23.7498  -27.3593   44.7636 H   0  0  0  0  0  0  0  0  0  0  0  0
   25.1772  -27.1080   43.7024 H   0  0  0  0  0  0  0  0  0  0  0  0
   23.8364  -25.9126   43.7024 H   0  0  0  0  0  0  0  0  0  0  0  0
   24.7429  -29.4399   42.8798 H   0  0  0  0  0  0  0  0  0  0  0  0
   23.6583  -30.7603   41.0766 H   0  0  0  0  0  0  0  0  0  0  0  0
   19.0552  -32.8817   40.8260 H   0  0  0  0  0  0  0  0  0  0  0  0
   17.7360  -34.3805   39.3284 H   0  0  0  0  0  0  0  0  0  0  0  0
   17.8999  -34.1296   36.8488 H   0  0  0  0  0  0  0  0  0  0  0  0
   19.6790  -33.1260   35.0960 H   0  0  0  0  0  0  0  0  0  0  0  0
   22.7950  -28.8460   36.8500 H   0  0  0  0  0  0  0  0  0  0  0  0
   20.8296  -27.5641   40.4402 H   0  0  0  0  0  0  0  0  0  0  0  0
   20.7432  -25.7667   41.8692 H   0  0  0  0  0  0  0  0  0  0  0  0
   21.7037  -25.7779   43.4247 H   0  0  0  0  0  0  0  0  0  0  0  0
  1  2  1  0
  2  3  2  0
  3  4  1  0
  4  5  2  0
  5  6  1  0
  6  7  1  0
  7  8  1  0
  8  9  2  0
  9 10  1  0
 10 11  2  0
 11 12  1  0
 12 13  1  0
 12 14  2  0
 14 15  1  0
 15 16  2  0
 15 17  1  0
 17 18  1  0
  5 19  1  0
 19 20  2  0
 20 21  1  0
 21 22  1  0
 20  2  1  0
 17  6  2  0
 14  8  1  0
  1 23  1  0
  1 24  1  0
  1 25  1  0
  3 26  1  0
  4 27  1  0
  9 28  1  0
 10 29  1  0
 11 30  1  0
 13 31  1  0
 18 32  1  0
 19 33  1  0
 21 34  1  0
 21 35  1  0
M  END
>  <meeko>  (3) 
{"is_sidechain": [false], "free_energy": -8.96, "intermolecular_energy": -10.567, "internal_energy": -0.413}

$$$$
cand_045_out
     RDKit          3D

 35 37  0  0  0  0  0  0  0  0999 V2000
   19.6850  -32.1930   36.3310 C   0  0  0  0  0  0  0  0  0  0  0  0
   20.1700  -31.2020   37.3530 C   0  0  0  0  0  0  0  0  0  0  0  0
   21.1400  -30.2580   36.9860 C   0  0  0  0  0  0  0  0  0  0  0  0
   21.6160  -29.3210   37.9090 C   0  0  0  0  0  0  0  0  0  0  0  0
   21.1410  -29.3090   39.2240 C   0  0  0  0  0  0  0  0  0  0  0  0
   21.6090  -28.3130   40.2130 C   0  0  0  0  0  0  0  0  0  0  0  0
   22.4600  -28.8580   41.1670 O   0  0  0  0  0  0  0  0  0  0  0  0
   22.9740  -28.0430   42.1420 C   0  0  0  0  0  0  0  0  0  0  0  0
   23.8180  -28.6340   43.0830 C   0  0  0  0  0  0  0  0  0  0  0  0
   24.3760  -27.8600   44.1020 C   0  0  0  0  0  0  0  0  0  0  0  0
   24.0890  -26.4960   44.1820 C   0  0  0  0  0  0  0  0  0  0  0  0
   23.2470  -25.9080   43.2400 C   0  0  0  0  0  0  0  0  0  0  0  0
   23.0100  -24.5680   43.3760 O   0  0  0  0  0  0  0  0  0  0  0  0
   22.6900  -26.6830   42.2200 C   0  0  0  0  0  0  0  0  0  0  0  0
   21.8010  -26.1060   41.2120 C   0  0  0  0  0  0  0  0  0  0  0  0
   21.5070  -24.9120   41.2100 O   0  0  0  0  0  0  0  0  0  0  0  0
   21.2590  -27.0140   40.1740 C   0  0  0  0  0  0  0  0  0  0  0  0
   20.4330  -26.4540   39.2170 O   0  0  0  0  0  0  0  0  0  0  0  0
   20.1620  -30.2470   39.5880 C   0  0  0  0  0  0  0  0  0  0  0  0
   19.6700  -31.1950   38.6710 C   0  0  0  0  0  0  0  0  0  0  0  0
   18.6240  -32.1840   39.1220 C   0  0  0  0  0  0  0  0  0  0  0  0
   19.0380  -32.9930   40.1400 F   0  0  0  0  0  0  0  0  0  0  0  0
   19.2570  -33.0676   36.8427 H   0  0  0  0  0  0  0  0  0  0  0  0
   18.9149  -31.7233   35.7014 H   0  0  0  0  0  0  0  0  0  0  0  0
   20.5284  -32.5129   35.7014 H   0  0  0  0  0  0  0  0  0  0  0  0
   21.5319  -30.2544   35.9582 H   0  0  0  0  0  0  0  0  0  0  0  0
   22.3722  -28.5856   37.5970 H   0  0  0  0  0  0  0  0  0  0  0  0
   24.0435  -29.7089   43.0219 H   0  0  0  0  0  0  0  0  0  0  0  0
   25.0427  -28.3254   44.8429 H   0  0  0  0  0  0  0  0  0  0  0  0
   24.5265  -25.8869   44.9867 H   0  0  0  0  0  0  0  0  0  0  0  0
   22.2890  -24.1720   42.9270 H   0  0  0  0  0  0  0  0  0  0  0  0
   19.9280  -27.0060   38.6540 H   0  0  0  0  0  0  0  0  0  0  0  0
   19.7695  -30.2411   40.6156 H   0  0  0  0  0  0  0  0  0  0  0  0
   17.7397  -31.6243   39.4607 H   0  0  0  0  0  0  0  0  0  0  0  0
   18.4045  -32.8347   38.2627 H   0  0  0  0  0  0  0  0  0  0  0  0
  1  2  1  0
  2  3  2  0
  3  4  1  0
  4  5  2  0
  5  6  1  0
  6  7  1  0
  7  8  1  0
  8  9  2  0
  9 10  1  0
 10 11  2  0
 11 12  1  0
 12 13  1  0
 12 14  2  0
 14 15  1  0
 15 16  2  0
 15 17  1  0
 17 18  1  0
  5 19  1  0
 19 20  2  0
 20 21  1  0
 21 22  1  0
 20  2  1  0
 17  6  2  0
 14  8  1  0
  1 23  1  0
  1 24  1  0
  1 25  1  0
  3 26  1  0
  4 27  1  0
  9 28  1  0
 10 29  1  0
 11 30  1  0
 13 31  1  0
 18 32  1  0
 19 33  1  0
 21 34  1  0
 21 35  1  0
M  END
>  <meeko>  (4) 
{"is_sidechain": [false], "free_energy": -8.633, "intermolecular_energy": -10.211, "internal_energy": -0.384}

$$$$
cand_045_out
     RDKit          3D

 35 37  0  0  0  0  0  0  0  0999 V2000
   21.1160  -26.5350   41.5600 C   0  0  0  0  0  0  0  0  0  0  0  0
   20.8350  -27.6960   40.6450 C   0  0  0  0  0  0  0  0  0  0  0  0
   19.6510  -27.7050   39.8950 C   0  0  0  0  0  0  0  0  0  0  0  0
   19.3540  -28.7670   39.0350 C   0  0  0  0  0  0  0  0  0  0  0  0
   20.2300  -29.8500   38.9080 C   0  0  0  0  0  0  0  0  0  0  0  0
   19.9530  -30.9730   37.9870 C   0  0  0  0  0  0  0  0  0  0  0  0
   20.3570  -30.7150   36.6830 O   0  0  0  0  0  0  0  0  0  0  0  0
   20.1650  -31.6760   35.7250 C   0  0  0  0  0  0  0  0  0  0  0  0
   20.5790  -31.3700   34.4280 C   0  0  0  0  0  0  0  0  0  0  0  0
   20.4130  -32.3050   33.4040 C   0  0  0  0  0  0  0  0  0  0  0  0
   19.8330  -33.5460   33.6770 C   0  0  0  0  0  0  0  0  0  0  0  0
   19.4210  -33.8490   34.9730 C   0  0  0  0  0  0  0  0  0  0  0  0
   18.8610  -35.0810   35.1710 O   0  0  0  0  0  0  0  0  0  0  0  0
   19.5880  -32.9130   35.9970 C   0  0  0  0  0  0  0  0  0  0  0  0
   19.1700  -33.1910   37.3710 C   0  0  0  0  0  0  0  0  0  0  0  0
   18.6570  -34.2610   37.6920 O   0  0  0  0  0  0  0  0  0  0  0  0
   19.3870  -32.1290   38.3810 C   0  0  0  0  0  0  0  0  0  0  0  0
   19.0030  -32.4100   39.6800 O   0  0  0  0  0  0  0  0  0  0  0  0
   21.4200  -29.8350   39.6520 C   0  0  0  0  0  0  0  0  0  0  0  0
   21.7350  -28.7730   40.5200 C   0  0  0  0  0  0  0  0  0  0  0  0
   23.0260  -28.8160   41.3000 C   0  0  0  0  0  0  0  0  0  0  0  0
   23.6390  -30.0340   41.2770 F   0  0  0  0  0  0  0  0  0  0  0  0
   21.0361  -26.8650   42.6063 H   0  0  0  0  0  0  0  0  0  0  0  0
   22.1316  -26.1569   41.3713 H   0  0  0  0  0  0  0  0  0  0  0  0
   20.3857  -25.7343   41.3713 H   0  0  0  0  0  0  0  0  0  0  0  0
   18.9459  -26.8654   39.9840 H   0  0  0  0  0  0  0  0  0  0  0  0
   18.4213  -28.7505   38.4521 H   0  0  0  0  0  0  0  0  0  0  0  0
   21.0358  -30.3929   34.2123 H   0  0  0  0  0  0  0  0  0  0  0  0
   20.7393  -32.0639   32.3815 H   0  0  0  0  0  0  0  0  0  0  0  0
   19.7018  -34.2825   32.8705 H   0  0  0  0  0  0  0  0  0  0  0  0
   18.3800  -35.2570   35.9550 H   0  0  0  0  0  0  0  0  0  0  0  0
   18.2700  -31.9650   40.0580 H   0  0  0  0  0  0  0  0  0  0  0  0
   22.1241  -30.6744   39.5542 H   0  0  0  0  0  0  0  0  0  0  0  0
   23.7148  -28.0722   40.8731 H   0  0  0  0  0  0  0  0  0  0  0  0
   22.7754  -28.6015   42.3494 H   0  0  0  0  0  0  0  0  0  0  0  0
  1  2  1  0
  2  3  2  0
  3  4  1  0
  4  5  2  0
  5  6  1  0
  6  7  1  0
  7  8  1  0
  8  9  2  0
  9 10  1  0
 10 11  2  0
 11 12  1  0
 12 13  1  0
 12 14  2  0
 14 15  1  0
 15 16  2  0
 15 17  1  0
 17 18  1  0
  5 19  1  0
 19 20  2  0
 20 21  1  0
 21 22  1  0
 20  2  1  0
 17  6  2  0
 14  8  1  0
  1 23  1  0
  1 24  1  0
  1 25  1  0
  3 26  1  0
  4 27  1  0
  9 28  1  0
 10 29  1  0
 11 30  1  0
 13 31  1  0
 18 32  1  0
 19 33  1  0
 21 34  1  0
 21 35  1  0
M  END
>  <meeko>  (5) 
{"is_sidechain": [false], "free_energy": -8.476, "intermolecular_energy": -9.99, "internal_energy": -0.422}

$$$$
cand_045_out
     RDKit          3D

 35 37  0  0  0  0  0  0  0  0999 V2000
   20.2260  -31.2130   36.0880 C   0  0  0  0  0  0  0  0  0  0  0  0
   20.6970  -30.5570   37.3580 C   0  0  0  0  0  0  0  0  0  0  0  0
   21.4850  -29.4000   37.2800 C   0  0  0  0  0  0  0  0  0  0  0  0
   21.9410  -28.7630   38.4370 C   0  0  0  0  0  0  0  0  0  0  0  0
   21.6280  -29.2690   39.7030 C   0  0  0  0  0  0  0  0  0  0  0  0
   22.0760  -28.6000   40.9430 C   0  0  0  0  0  0  0  0  0  0  0  0
   21.2800  -27.5150   41.2900 O   0  0  0  0  0  0  0  0  0  0  0  0
   21.5800  -26.8060   42.4240 C   0  0  0  0  0  0  0  0  0  0  0  0
   20.7590  -25.7200   42.7290 C   0  0  0  0  0  0  0  0  0  0  0  0
   21.0090  -24.9560   43.8700 C   0  0  0  0  0  0  0  0  0  0  0  0
   22.0800  -25.2770   44.7070 C   0  0  0  0  0  0  0  0  0  0  0  0
   22.8980  -26.3630   44.4010 C   0  0  0  0  0  0  0  0  0  0  0  0
   23.9270  -26.6230   45.2630 O   0  0  0  0  0  0  0  0  0  0  0  0
   22.6470  -27.1270   43.2580 C   0  0  0  0  0  0  0  0  0  0  0  0
   23.4800  -28.2750   42.9010 C   0  0  0  0  0  0  0  0  0  0  0  0
   24.4360  -28.6250   43.5900 O   0  0  0  0  0  0  0  0  0  0  0  0
   23.1320  -29.0170   41.6670 C   0  0  0  0  0  0  0  0  0  0  0  0
   23.9170  -30.1100   41.3470 O   0  0  0  0  0  0  0  0  0  0  0  0
   20.8300  -30.4210   39.7800 C   0  0  0  0  0  0  0  0  0  0  0  0
   20.3600  -31.0740   38.6250 C   0  0  0  0  0  0  0  0  0  0  0  0
   19.5120  -32.3130   38.7710 C   0  0  0  0  0  0  0  0  0  0  0  0
   19.4550  -32.7900   40.0480 F   0  0  0  0  0  0  0  0  0  0  0  0
   19.6008  -32.0837   36.3351 H   0  0  0  0  0  0  0  0  0  0  0  0
   19.6369  -30.4936   35.5003 H   0  0  0  0  0  0  0  0  0  0  0  0
   21.0960  -31.5412   35.5003 H   0  0  0  0  0  0  0  0  0  0  0  0
   21.7479  -28.9881   36.2945 H   0  0  0  0  0  0  0  0  0  0  0  0
   22.5532  -27.8531   38.3513 H   0  0  0  0  0  0  0  0  0  0  0  0
   19.9152  -25.4660   42.0706 H   0  0  0  0  0  0  0  0  0  0  0  0
   20.3616  -24.0998   44.1104 H   0  0  0  0  0  0  0  0  0  0  0  0
   22.2774  -24.6741   45.6056 H   0  0  0  0  0  0  0  0  0  0  0  0
   23.9630  -27.4430   45.7160 H   0  0  0  0  0  0  0  0  0  0  0  0
   24.2200  -30.6820   42.0240 H   0  0  0  0  0  0  0  0  0  0  0  0
   20.5650  -30.8240   40.7686 H   0  0  0  0  0  0  0  0  0  0  0  0
   18.4894  -32.0748   38.4431 H   0  0  0  0  0  0  0  0  0  0  0  0
   19.9778  -33.0964   38.1552 H   0  0  0  0  0  0  0  0  0  0  0  0
  1  2  1  0
  2  3  2  0
  3  4  1  0
  4  5  2  0
  5  6  1  0
  6  7  1  0
  7  8  1  0
  8  9  2  0
  9 10  1  0
 10 11  2  0
 11 12  1  0
 12 13  1  0
 12 14  2  0
 14 15  1  0
 15 16  2  0
 15 17  1  0
 17 18  1  0
  5 19  1  0
 19 20  2  0
 20 21  1  0
 21 22  1  0
 20  2  1  0
 17  6  2  0
 14  8  1  0
  1 23  1  0
  1 24  1  0
  1 25  1  0
  3 26  1  0
  4 27  1  0
  9 28  1  0
 10 29  1  0
 11 30  1  0
 13 31  1  0
 18 32  1  0
 19 33  1  0
 21 34  1  0
 21 35  1  0
M  END
>  <meeko>  (6) 
{"is_sidechain": [false], "free_energy": -8.411, "intermolecular_energy": -9.927, "internal_energy": -0.409}

$$$$
cand_045_out
     RDKit          3D

 35 37  0  0  0  0  0  0  0  0999 V2000
   22.5170  -25.7020   45.0720 C   0  0  0  0  0  0  0  0  0  0  0  0
   22.1850  -26.4160   43.7910 C   0  0  0  0  0  0  0  0  0  0  0  0
   20.9740  -26.1340   43.1430 C   0  0  0  0  0  0  0  0  0  0  0  0
   20.6300  -26.7780   41.9510 C   0  0  0  0  0  0  0  0  0  0  0  0
   21.4850  -27.7250   41.3780 C   0  0  0  0  0  0  0  0  0  0  0  0
   21.1580  -28.4020   40.1040 C   0  0  0  0  0  0  0  0  0  0  0  0
   20.7230  -29.7100   40.2840 O   0  0  0  0  0  0  0  0  0  0  0  0
   20.3790  -30.4520   39.1840 C   0  0  0  0  0  0  0  0  0  0  0  0
   19.9560  -31.7630   39.4100 C   0  0  0  0  0  0  0  0  0  0  0  0
   19.5910  -32.5730   38.3340 C   0  0  0  0  0  0  0  0  0  0  0  0
   19.6500  -32.0740   37.0310 C   0  0  0  0  0  0  0  0  0  0  0  0
   20.0720  -30.7660   36.8080 C   0  0  0  0  0  0  0  0  0  0  0  0
   20.1050  -30.3410   35.5070 O   0  0  0  0  0  0  0  0  0  0  0  0
   20.4370  -29.9550   37.8850 C   0  0  0  0  0  0  0  0  0  0  0  0
   20.8850  -28.5760   37.6950 C   0  0  0  0  0  0  0  0  0  0  0  0
   20.9580  -28.0620   36.5800 O   0  0  0  0  0  0  0  0  0  0  0  0
   21.2530  -27.8020   38.9040 C   0  0  0  0  0  0  0  0  0  0  0  0
   21.6600  -26.4930   38.7130 O   0  0  0  0  0  0  0  0  0  0  0  0
   22.7020  -27.9980   42.0210 C   0  0  0  0  0  0  0  0  0  0  0  0
   23.0650  -27.3580   43.2210 C   0  0  0  0  0  0  0  0  0  0  0  0
   24.3830  -27.6990   43.8700 C   0  0  0  0  0  0  0  0  0  0  0  0
   24.2720  -28.5810   44.9050 F   0  0  0  0  0  0  0  0  0  0  0  0
   22.2254  -26.3290   45.9275 H   0  0  0  0  0  0  0  0  0  0  0  0
   23.5986  -25.5060   45.1128 H   0  0  0  0  0  0  0  0  0  0  0  0
   21.9698  -24.7486   45.1128 H   0  0  0  0  0  0  0  0  0  0  0  0
   20.2849  -25.3956   43.5788 H   0  0  0  0  0  0  0  0  0  0  0  0
   19.6764  -26.5374   41.4583 H   0  0  0  0  0  0  0  0  0  0  0  0
   19.9104  -32.1573   40.4359 H   0  0  0  0  0  0  0  0  0  0  0  0
   19.2565  -33.6056   38.5123 H   0  0  0  0  0  0  0  0  0  0  0  0
   19.3637  -32.7130   36.1826 H   0  0  0  0  0  0  0  0  0  0  0  0
   19.6350  -30.8120   34.8490 H   0  0  0  0  0  0  0  0  0  0  0  0
   22.1350  -26.0480   39.3860 H   0  0  0  0  0  0  0  0  0  0  0  0
   23.3904  -28.7313   41.5756 H   0  0  0  0  0  0  0  0  0  0  0  0
   25.0421  -28.1394   43.1074 H   0  0  0  0  0  0  0  0  0  0  0  0
   24.7883  -26.7646   44.2855 H   0  0  0  0  0  0  0  0  0  0  0  0
  1  2  1  0
  2  3  2  0
  3  4  1  0
  4  5  2  0
  5  6  1  0
  6  7  1  0
  7  8  1  0
  8  9  2  0
  9 10  1  0
 10 11  2  0
 11 12  1  0
 12 13  1  0
 12 14  2  0
 14 15  1  0
 15 16  2  0
 15 17  1  0
 17 18  1  0
  5 19  1  0
 19 20  2  0
 20 21  1  0
 21 22  1  0
 20  2  1  0
 17  6  2  0
 14  8  1  0
  1 23  1  0
  1 24  1  0
  1 25  1  0
  3 26  1  0
  4 27  1  0
  9 28  1  0
 10 29  1  0
 11 30  1  0
 13 31  1  0
 18 32  1  0
 19 33  1  0
 21 34  1  0
 21 35  1  0
M  END
>  <meeko>  (7) 
{"is_sidechain": [false], "free_energy": -8.286, "intermolecular_energy": -9.766, "internal_energy": -0.422}

$$$$
cand_045_out
     RDKit          3D

 35 37  0  0  0  0  0  0  0  0999 V2000
   22.9210  -26.2520   44.1350 C   0  0  0  0  0  0  0  0  0  0  0  0
   22.4440  -27.0450   42.9490 C   0  0  0  0  0  0  0  0  0  0  0  0
   23.2580  -28.0640   42.4340 C   0  0  0  0  0  0  0  0  0  0  0  0
   22.8490  -28.8230   41.3330 C   0  0  0  0  0  0  0  0  0  0  0  0
   21.6190  -28.5780   40.7140 C   0  0  0  0  0  0  0  0  0  0  0  0
   21.1510  -29.3820   39.5640 C   0  0  0  0  0  0  0  0  0  0  0  0
   20.5850  -30.5930   39.9470 O   0  0  0  0  0  0  0  0  0  0  0  0
   20.1030  -31.4360   38.9790 C   0  0  0  0  0  0  0  0  0  0  0  0
   19.5500  -32.6430   39.4080 C   0  0  0  0  0  0  0  0  0  0  0  0
   19.0410  -33.5470   38.4740 C   0  0  0  0  0  0  0  0  0  0  0  0
   19.0840  -33.2450   37.1120 C   0  0  0  0  0  0  0  0  0  0  0  0
   19.6360  -32.0380   36.6860 C   0  0  0  0  0  0  0  0  0  0  0  0
   19.6460  -31.8050   35.3380 O   0  0  0  0  0  0  0  0  0  0  0  0
   20.1450  -31.1340   37.6210 C   0  0  0  0  0  0  0  0  0  0  0  0
   20.7320  -29.8560   37.2170 C   0  0  0  0  0  0  0  0  0  0  0  0
   20.8010  -29.5150   36.0380 O   0  0  0  0  0  0  0  0  0  0  0  0
   21.2480  -28.9700   38.2870 C   0  0  0  0  0  0  0  0  0  0  0  0
   21.7860  -27.7580   37.8940 O   0  0  0  0  0  0  0  0  0  0  0  0
   20.8000  -27.5660   41.2370 C   0  0  0  0  0  0  0  0  0  0  0  0
   21.1950  -26.7940   42.3460 C   0  0  0  0  0  0  0  0  0  0  0  0
   20.2760  -25.7140   42.8590 C   0  0  0  0  0  0  0  0  0  0  0  0
   19.2780  -25.3840   41.9880 F   0  0  0  0  0  0  0  0  0  0  0  0
   22.6158  -26.7594   45.0621 H   0  0  0  0  0  0  0  0  0  0  0  0
   24.0176  -26.1713   44.1051 H   0  0  0  0  0  0  0  0  0  0  0  0
   22.4784  -25.2454   44.1051 H   0  0  0  0  0  0  0  0  0  0  0  0
   24.2318  -28.2692   42.9026 H   0  0  0  0  0  0  0  0  0  0  0  0
   23.5016  -29.6212   40.9497 H   0  0  0  0  0  0  0  0  0  0  0  0
   19.5151  -32.8820   40.4812 H   0  0  0  0  0  0  0  0  0  0  0  0
   18.6053  -34.4988   38.8119 H   0  0  0  0  0  0  0  0  0  0  0  0
   18.6832  -33.9579   36.3764 H   0  0  0  0  0  0  0  0  0  0  0  0
   19.1350  -32.3430   34.7660 H   0  0  0  0  0  0  0  0  0  0  0  0
   22.5790  -27.4490   38.2860 H   0  0  0  0  0  0  0  0  0  0  0  0
   19.8241  -27.3707   40.7685 H   0  0  0  0  0  0  0  0  0  0  0  0
   19.8179  -26.0638   43.7959 H   0  0  0  0  0  0  0  0  0  0  0  0
   20.8887  -24.8118   43.0030 H   0  0  0  0  0  0  0  0  0  0  0  0
  1  2  1  0
  2  3  2  0
  3  4  1  0
  4  5  2  0
  5  6  1  0
  6  7  1  0
  7  8  1  0
  8  9  2  0
  9 10  1  0
 10 11  2  0
 11 12  1  0
 12 13  1  0
 12 14  2  0
 14 15  1  0
 15 16  2  0
 15 17  1  0
 17 18  1  0
  5 19  1  0
 19 20  2  0
 20 21  1  0
 21 22  1  0
 20  2  1  0
 17  6  2  0
 14  8  1  0
  1 23  1  0
  1 24  1  0
  1 25  1  0
  3 26  1  0
  4 27  1  0
  9 28  1  0
 10 29  1  0
 11 30  1  0
 13 31  1  0
 18 32  1  0
 19 33  1  0
 21 34  1  0
 21 35  1  0
M  END
>  <meeko>  (8) 
{"is_sidechain": [false], "free_energy": -8.207, "intermolecular_energy": -9.683, "internal_energy": -0.413}

$$$$
cand_045_out
     RDKit          3D

 35 37  0  0  0  0  0  0  0  0999 V2000
   19.3190  -32.8470   36.6650 C   0  0  0  0  0  0  0  0  0  0  0  0
   19.8020  -31.7080   37.5200 C   0  0  0  0  0  0  0  0  0  0  0  0
   19.5600  -31.7370   38.9010 C   0  0  0  0  0  0  0  0  0  0  0  0
   19.9940  -30.6960   39.7280 C   0  0  0  0  0  0  0  0  0  0  0  0
   20.6730  -29.5960   39.1960 C   0  0  0  0  0  0  0  0  0  0  0  0
   21.1640  -28.4940   40.0510 C   0  0  0  0  0  0  0  0  0  0  0  0
   22.1210  -28.9090   40.9700 O   0  0  0  0  0  0  0  0  0  0  0  0
   22.6670  -27.9860   41.8240 C   0  0  0  0  0  0  0  0  0  0  0  0
   23.6170  -28.4490   42.7350 C   0  0  0  0  0  0  0  0  0  0  0  0
   24.2120  -27.5610   43.6330 C   0  0  0  0  0  0  0  0  0  0  0  0
   23.8580  -26.2100   43.6200 C   0  0  0  0  0  0  0  0  0  0  0  0
   22.9090  -25.7510   42.7090 C   0  0  0  0  0  0  0  0  0  0  0  0
   22.6100  -24.4160   42.7490 O   0  0  0  0  0  0  0  0  0  0  0  0
   22.3140  -26.6400   41.8110 C   0  0  0  0  0  0  0  0  0  0  0  0
   21.3150  -26.1990   40.8380 C   0  0  0  0  0  0  0  0  0  0  0  0
   20.9550  -25.0260   40.7600 O   0  0  0  0  0  0  0  0  0  0  0  0
   20.7410  -27.2220   39.9330 C   0  0  0  0  0  0  0  0  0  0  0  0
   19.8090  -26.7900   39.0060 O   0  0  0  0  0  0  0  0  0  0  0  0
   20.9250  -29.5730   37.8150 C   0  0  0  0  0  0  0  0  0  0  0  0
   20.4980  -30.6130   36.9680 C   0  0  0  0  0  0  0  0  0  0  0  0
   20.7900  -30.5290   35.4910 C   0  0  0  0  0  0  0  0  0  0  0  0
   20.4000  -29.3510   34.9220 F   0  0  0  0  0  0  0  0  0  0  0  0
   18.9710  -33.6675   37.3097 H   0  0  0  0  0  0  0  0  0  0  0  0
   18.4895  -32.5027   36.0300 H   0  0  0  0  0  0  0  0  0  0  0  0
   20.1432  -33.2039   36.0300 H   0  0  0  0  0  0  0  0  0  0  0  0
   19.0216  -32.5900   39.3397 H   0  0  0  0  0  0  0  0  0  0  0  0
   19.7988  -30.7434   40.8095 H   0  0  0  0  0  0  0  0  0  0  0  0
   23.8969  -29.5127   42.7456 H   0  0  0  0  0  0  0  0  0  0  0  0
   24.9606  -27.9258   44.3517 H   0  0  0  0  0  0  0  0  0  0  0  0
   24.3272  -25.5102   44.3272 H   0  0  0  0  0  0  0  0  0  0  0  0
   23.0770  -23.8140   42.2050 H   0  0  0  0  0  0  0  0  0  0  0  0
   19.9980  -26.0520   38.4620 H   0  0  0  0  0  0  0  0  0  0  0  0
   21.4701  -28.7204   37.3839 H   0  0  0  0  0  0  0  0  0  0  0  0
   21.8741  -30.6439   35.3439 H   0  0  0  0  0  0  0  0  0  0  0  0
   20.2139  -31.3288   35.0028 H   0  0  0  0  0  0  0  0  0  0  0  0
  1  2  1  0
  2  3  2  0
  3  4  1  0
  4  5  2  0
  5  6  1  0
  6  7  1  0
  7  8  1  0
  8  9  2  0
  9 10  1  0
 10 11  2  0
 11 12  1  0
 12 13  1  0
 12 14  2  0
 14 15  1  0
 15 16  2  0
 15 17  1  0
 17 18  1  0
  5 19  1  0
 19 20  2  0
 20 21  1  0
 21 22  1  0
 20  2  1  0
 17  6  2  0
 14  8  1  0
  1 23  1  0
  1 24  1  0
  1 25  1  0
  3 26  1  0
  4 27  1  0
  9 28  1  0
 10 29  1  0
 11 30  1  0
 13 31  1  0
 18 32  1  0
 19 33  1  0
 21 34  1  0
 21 35  1  0
M  END
>  <meeko>  (9) 
{"is_sidechain": [false], "free_energy": -7.821, "intermolecular_energy": -9.351, "internal_energy": -0.291}

$$$$
