cand_019_out
     RDKit          3D

 35 37  0  0  0  0  0  0  0  0999 V2000
   20.9950  -30.3900   36.0140 O   0  0  0  0  0  0  0  0  0  0  0  0
   20.8800  -30.5860   37.2220 C   0  0  0  0  0  0  0  0  0  0  0  0
   21.6030  -29.7350   38.1940 C   0  0  0  0  0  0  0  0  0  0  0  0
   22.4120  -28.7380   37.6780 O   0  0  0  0  0  0  0  0  0  0  0  0
   21.4490  -29.9860   39.5070 C   0  0  0  0  0  0  0  0  0  0  0  0
   22.1320  -29.2100   40.5660 C   0  0  0  0  0  0  0  0  0  0  0  0
   21.7270  -27.9160   40.9070 C   0  0  0  0  0  0  0  0  0  0  0  0
   22.3720  -27.2100   41.9270 C   0  0  0  0  0  0  0  0  0  0  0  0
   23.4390  -27.7830   42.6340 C   0  0  0  0  0  0  0  0  0  0  0  0
   24.1080  -26.9980   43.7340 C   0  0  0  0  0  0  0  0  0  0  0  0
   24.5780  -25.7940   43.3010 F   0  0  0  0  0  0  0  0  0  0  0  0
   23.8430  -29.0990   42.3220 C   0  0  0  0  0  0  0  0  0  0  0  0
   24.9720  -29.7730   43.0690 C   0  0  0  0  0  0  0  0  0  0  0  0
   24.5220  -30.5850   44.0670 F   0  0  0  0  0  0  0  0  0  0  0  0
   25.7380  -30.5760   42.2730 F   0  0  0  0  0  0  0  0  0  0  0  0
   23.1850  -29.7920   41.2870 C   0  0  0  0  0  0  0  0  0  0  0  0
   20.6550  -31.0080   40.0130 O   0  0  0  0  0  0  0  0  0  0  0  0
   19.9670  -31.8090   39.1370 C   0  0  0  0  0  0  0  0  0  0  0  0
   19.1750  -32.8160   39.6890 C   0  0  0  0  0  0  0  0  0  0  0  0
   18.4490  -33.6680   38.8530 C   0  0  0  0  0  0  0  0  0  0  0  0
   18.5160  -33.5120   37.4670 C   0  0  0  0  0  0  0  0  0  0  0  0
   19.3080  -32.5060   36.9190 C   0  0  0  0  0  0  0  0  0  0  0  0
   19.3280  -32.4110   35.5550 O   0  0  0  0  0  0  0  0  0  0  0  0
   20.0340  -31.6550   37.7560 C   0  0  0  0  0  0  0  0  0  0  0  0
   22.0470  -28.0850   37.1140 H   0  0  0  0  0  0  0  0  0  0  0  0
   20.8911  -27.4479   40.3665 H   0  0  0  0  0  0  0  0  0  0  0  0
   22.0383  -26.1923   42.1781 H   0  0  0  0  0  0  0  0  0  0  0  0
   23.3778  -26.8238   44.5381 H   0  0  0  0  0  0  0  0  0  0  0  0
   24.9673  -27.5851   44.0903 H   0  0  0  0  0  0  0  0  0  0  0  0
   25.5605  -28.9310   43.4622 H   0  0  0  0  0  0  0  0  0  0  0  0
   23.5048  -30.8146   41.0381 H   0  0  0  0  0  0  0  0  0  0  0  0
   19.1222  -32.9390   40.7808 H   0  0  0  0  0  0  0  0  0  0  0  0
   17.8241  -34.4624   39.2870 H   0  0  0  0  0  0  0  0  0  0  0  0
   17.9441  -34.1827   36.8089 H   0  0  0  0  0  0  0  0  0  0  0  0
   18.5920  -32.0540   35.0990 H   0  0  0  0  0  0  0  0  0  0  0  0
  1  2  2  0
  2  3  1  0
  3  4  1  0
  3  5  2  0
  5  6  1  0
  6  7  2  0
  7  8  1  0
  8  9  2  0
  9 10  1  0
 10 11  1  0
  9 12  1  0
 12 13  1  0
 13 14  1  0
 13 15  1  0
 12 16  2  0
  5 17  1  0
 17 18  1  0
 18 19  2  0
 19 20  1  0
 20 21  2  0
 21 22  1  0
 22 23  1  0
 22 24  2  0
 24  2  1  0
 16  6  1  0
 24 18  1  0
  4 25  1  0
  7 26  1  0
  8 27  1  0
 10 28  1  0
 10 29  1  0
 13 30  1  0
 16 31  1  0
 19 32  1  0
 20 33  1  0
 21 34  1  0
 23 35  1  0
M  END
>  <meeko>  (1) 
{"is_sidechain": [false], "free_energy": -9.49, "intermolecular_energy": -11.709, "internal_energy": -0.539}

$$$$
cand_019_out
     RDKit          3D

 35 37  0  0  0  0  0  0  0  0999 V2000
   19.9400  -31.5690   35.0690 O   0  0  0  0  0  0  0  0  0  0  0  0
   19.9670  -31.7170   36.2890 C   0  0  0  0  0  0  0  0  0  0  0  0
   20.4940  -30.6450   37.1650 C   0  0  0  0  0  0  0  0  0  0  0  0
   20.9590  -29.4990   36.5460 O   0  0  0  0  0  0  0  0  0  0  0  0
   20.5060  -30.8500   38.4950 C   0  0  0  0  0  0  0  0  0  0  0  0
   21.0200  -29.8570   39.4630 C   0  0  0  0  0  0  0  0  0  0  0  0
   22.3400  -29.8920   39.9240 C   0  0  0  0  0  0  0  0  0  0  0  0
   22.8110  -28.9300   40.8210 C   0  0  0  0  0  0  0  0  0  0  0  0
   21.9720  -27.9040   41.2800 C   0  0  0  0  0  0  0  0  0  0  0  0
   22.5140  -26.8770   42.2420 C   0  0  0  0  0  0  0  0  0  0  0  0
   23.7030  -27.2540   42.7890 F   0  0  0  0  0  0  0  0  0  0  0  0
   20.6450  -27.8370   40.8050 C   0  0  0  0  0  0  0  0  0  0  0  0
   19.7050  -26.7370   41.2500 C   0  0  0  0  0  0  0  0  0  0  0  0
   18.6620  -26.5670   40.3900 F   0  0  0  0  0  0  0  0  0  0  0  0
   19.1320  -26.9820   42.4650 F   0  0  0  0  0  0  0  0  0  0  0  0
   20.1870  -28.8190   39.9060 C   0  0  0  0  0  0  0  0  0  0  0  0
   20.0620  -32.0180   39.1040 O   0  0  0  0  0  0  0  0  0  0  0  0
   19.5620  -33.0260   38.3190 C   0  0  0  0  0  0  0  0  0  0  0  0
   19.1170  -34.1760   38.9730 C   0  0  0  0  0  0  0  0  0  0  0  0
   18.5980  -35.2410   38.2330 C   0  0  0  0  0  0  0  0  0  0  0  0
   18.5230  -35.1560   36.8400 C   0  0  0  0  0  0  0  0  0  0  0  0
   18.9680  -34.0060   36.1910 C   0  0  0  0  0  0  0  0  0  0  0  0
   18.8660  -33.9900   34.8270 O   0  0  0  0  0  0  0  0  0  0  0  0
   19.4870  -32.9420   36.9320 C   0  0  0  0  0  0  0  0  0  0  0  0
   21.6180  -28.9770   36.9610 H   0  0  0  0  0  0  0  0  0  0  0  0
   23.0159  -30.6870   39.5759 H   0  0  0  0  0  0  0  0  0  0  0  0
   23.8526  -28.9778   41.1716 H   0  0  0  0  0  0  0  0  0  0  0  0
   22.6581  -25.9292   41.7026 H   0  0  0  0  0  0  0  0  0  0  0  0
   21.7876  -26.7686   43.0609 H   0  0  0  0  0  0  0  0  0  0  0  0
   20.3486  -25.8458   41.2904 H   0  0  0  0  0  0  0  0  0  0  0  0
   19.1501  -28.7710   39.5419 H   0  0  0  0  0  0  0  0  0  0  0  0
   19.1749  -34.2435   40.0694 H   0  0  0  0  0  0  0  0  0  0  0  0
   18.2478  -36.1480   38.7475 H   0  0  0  0  0  0  0  0  0  0  0  0
   18.1138  -35.9946   36.2575 H   0  0  0  0  0  0  0  0  0  0  0  0
   18.5200  -33.2370   34.3920 H   0  0  0  0  0  0  0  0  0  0  0  0
  1  2  2  0
  2  3  1  0
  3  4  1  0
  3  5  2  0
  5  6  1  0
  6  7  2  0
  7  8  1  0
  8  9  2  0
  9 10  1  0
 10 11  1  0
  9 12  1  0
 12 13  1  0
 13 14  1  0
 13 15  1  0
 12 16  2  0
  5 17  1  0
 17 18  1  0
 18 19  2  0
 19 20  1  0
 20 21  2  0
 21 22  1  0
 22 23  1  0
 22 24  2  0
 24  2  1  0
 16  6  1  0
 24 18  1  0
  4 25  1  0
  7 26  1  0
  8 27  1  0
 10 28  1  0
 10 29  1  0
 13 30  1  0
 16 31  1  0
 19 32  1  0
 20 33  1  0
 21 34  1  0
 23 35  1  0
M  END
>  <meeko>  (2) 
{"is_sidechain": [false], "free_energy": -9.191, "intermolecular_energy": -11.312, "internal_energy": -0.567}

$$$$
cand_019_out
     RDKit          3D

 35 37  0  0  0  0  0  0  0  0999 V2000
   21.3870  -24.9210   41.2600 O   0  0  0  0  0  0  0  0  0  0  0  0
   21.7140  -26.1050   41.2190 C   0  0  0  0  0  0  0  0  0  0  0  0
   21.1740  -26.9980   40.1680 C   0  0  0  0  0  0  0  0  0  0  0  0
   20.2880  -26.4410   39.2640 O   0  0  0  0  0  0  0  0  0  0  0  0
   21.5570  -28.2880   40.1620 C   0  0  0  0  0  0  0  0  0  0  0  0
   21.0730  -29.2720   39.1690 C   0  0  0  0  0  0  0  0  0  0  0  0
   21.5310  -29.2720   37.8480 C   0  0  0  0  0  0  0  0  0  0  0  0
   21.0770  -30.2260   36.9330 C   0  0  0  0  0  0  0  0  0  0  0  0
   20.1520  -31.2080   37.3170 C   0  0  0  0  0  0  0  0  0  0  0  0
   19.6890  -32.2270   36.3080 C   0  0  0  0  0  0  0  0  0  0  0  0
   20.4240  -32.1940   35.1610 F   0  0  0  0  0  0  0  0  0  0  0  0
   19.6990  -31.2400   38.6540 C   0  0  0  0  0  0  0  0  0  0  0  0
   18.7210  -32.2920   39.1280 C   0  0  0  0  0  0  0  0  0  0  0  0
   19.2520  -33.1010   40.0870 F   0  0  0  0  0  0  0  0  0  0  0  0
   17.5950  -31.7620   39.6890 F   0  0  0  0  0  0  0  0  0  0  0  0
   20.1640  -30.2670   39.5600 C   0  0  0  0  0  0  0  0  0  0  0  0
   22.4260  -28.8430   41.0930 O   0  0  0  0  0  0  0  0  0  0  0  0
   22.9480  -28.0400   42.0740 C   0  0  0  0  0  0  0  0  0  0  0  0
   23.8250  -28.6360   42.9820 C   0  0  0  0  0  0  0  0  0  0  0  0
   24.3920  -27.8740   44.0060 C   0  0  0  0  0  0  0  0  0  0  0  0
   24.0810  -26.5180   44.1240 C   0  0  0  0  0  0  0  0  0  0  0  0
   23.2050  -25.9260   43.2170 C   0  0  0  0  0  0  0  0  0  0  0  0
   22.9450  -24.5940   43.3910 O   0  0  0  0  0  0  0  0  0  0  0  0
   22.6390  -26.6880   42.1920 C   0  0  0  0  0  0  0  0  0  0  0  0
   20.4780  -26.4650   38.3460 H   0  0  0  0  0  0  0  0  0  0  0  0
   22.2575  -28.5119   37.5249 H   0  0  0  0  0  0  0  0  0  0  0  0
   21.4499  -30.2065   35.8983 H   0  0  0  0  0  0  0  0  0  0  0  0
   19.7744  -33.2291   36.7534 H   0  0  0  0  0  0  0  0  0  0  0  0
   18.6474  -31.9897   36.0456 H   0  0  0  0  0  0  0  0  0  0  0  0
   18.4794  -32.8517   38.2124 H   0  0  0  0  0  0  0  0  0  0  0  0
   19.8057  -30.2876   40.5998 H   0  0  0  0  0  0  0  0  0  0  0  0
   24.0692  -29.7047   42.8911 H   0  0  0  0  0  0  0  0  0  0  0  0
   25.0846  -28.3428   44.7205 H   0  0  0  0  0  0  0  0  0  0  0  0
   24.5267  -25.9185   44.9314 H   0  0  0  0  0  0  0  0  0  0  0  0
   23.4020  -24.1090   44.0490 H   0  0  0  0  0  0  0  0  0  0  0  0
  1  2  2  0
  2  3  1  0
  3  4  1  0
  3  5  2  0
  5  6  1  0
  6  7  2  0
  7  8  1  0
  8  9  2  0
  9 10  1  0
 10 11  1  0
  9 12  1  0
 12 13  1  0
 13 14  1  0
 13 15  1  0
 12 16  2  0
  5 17  1  0
 17 18  1  0
 18 19  2  0
 19 20  1  0
 20 21  2  0
 21 22  1  0
 22 23  1  0
 22 24  2  0
 24  2  1  0
 16  6  1  0
 24 18  1  0
  4 25  1  0
  7 26  1  0
  8 27  1  0
 10 28  1  0
 10 29  1  0
 13 30  1  0
 16 31  1  0
 19 32  1  0
 20 33  1  0
 21 34  1  0
 23 35  1  0
M  END
>  <meeko>  (3) 
{"is_sidechain": [false], "free_energy": -9.071, "intermolecular_energy": -11.205, "internal_energy": -0.526}

$$$$
cand_019_out
     RDKit          3D

 35 37  0  0  0  0  0  0  0  0999 V2000
   20.6280  -30.7240   35.6720 O   0  0  0  0  0  0  0  0  0  0  0  0
   20.4370  -30.6690   36.8850 C   0  0  0  0  0  0  0  0  0  0  0  0
   20.9090  -29.5050   37.6680 C   0  0  0  0  0  0  0  0  0  0  0  0
   21.5770  -28.5110   36.9770 O   0  0  0  0  0  0  0  0  0  0  0  0
   20.6800  -29.4870   38.9940 C   0  0  0  0  0  0  0  0  0  0  0  0
   21.1160  -28.3830   39.8770 C   0  0  0  0  0  0  0  0  0  0  0  0
   20.6340  -27.0800   39.7210 C   0  0  0  0  0  0  0  0  0  0  0  0
   21.0430  -26.0580   40.5820 C   0  0  0  0  0  0  0  0  0  0  0  0
   21.9450  -26.3140   41.6240 C   0  0  0  0  0  0  0  0  0  0  0  0
   22.3600  -25.1900   42.5400 C   0  0  0  0  0  0  0  0  0  0  0  0
   23.4130  -24.4790   42.0460 F   0  0  0  0  0  0  0  0  0  0  0  0
   22.4220  -27.6290   41.8140 C   0  0  0  0  0  0  0  0  0  0  0  0
   23.3790  -27.9640   42.9370 C   0  0  0  0  0  0  0  0  0  0  0  0
   23.8790  -29.2270   42.8330 F   0  0  0  0  0  0  0  0  0  0  0  0
   24.4730  -27.1480   42.9700 F   0  0  0  0  0  0  0  0  0  0  0  0
   22.0030  -28.6440   40.9330 C   0  0  0  0  0  0  0  0  0  0  0  0
   20.0310  -30.5050   39.6830 O   0  0  0  0  0  0  0  0  0  0  0  0
   19.5760  -31.5940   38.9830 C   0  0  0  0  0  0  0  0  0  0  0  0
   18.9220  -32.5870   39.7130 C   0  0  0  0  0  0  0  0  0  0  0  0
   18.4350  -33.7230   39.0610 C   0  0  0  0  0  0  0  0  0  0  0  0
   18.6030  -33.8650   37.6820 C   0  0  0  0  0  0  0  0  0  0  0  0
   19.2560  -32.8710   36.9570 C   0  0  0  0  0  0  0  0  0  0  0  0
   19.3860  -33.0750   35.6110 O   0  0  0  0  0  0  0  0  0  0  0  0
   19.7430  -31.7360   37.6090 C   0  0  0  0  0  0  0  0  0  0  0  0
   21.1330  -27.7160   36.7530 H   0  0  0  0  0  0  0  0  0  0  0  0
   19.9243  -26.8565   38.9108 H   0  0  0  0  0  0  0  0  0  0  0  0
   20.6521  -25.0396   40.4402 H   0  0  0  0  0  0  0  0  0  0  0  0
   21.5060  -24.5097   42.6737 H   0  0  0  0  0  0  0  0  0  0  0  0
   22.6744  -25.6348   43.4956 H   0  0  0  0  0  0  0  0  0  0  0  0
   22.7677  -27.8409   43.8432 H   0  0  0  0  0  0  0  0  0  0  0  0
   22.3803  -29.6674   41.0758 H   0  0  0  0  0  0  0  0  0  0  0  0
   18.7900  -32.4759   40.7994 H   0  0  0  0  0  0  0  0  0  0  0  0
   17.9185  -34.5065   39.6349 H   0  0  0  0  0  0  0  0  0  0  0  0
   18.2205  -34.7599   37.1694 H   0  0  0  0  0  0  0  0  0  0  0  0
   20.2360  -33.0820   35.2170 H   0  0  0  0  0  0  0  0  0  0  0  0
  1  2  2  0
  2  3  1  0
  3  4  1  0
  3  5  2  0
  5  6  1  0
  6  7  2  0
  7  8  1  0
  8  9  2  0
  9 10  1  0
 10 11  1  0
  9 12  1  0
 12 13  1  0
 13 14  1  0
 13 15  1  0
 12 16  2  0
  5 17  1  0
 17 18  1  0
 18 19  2  0
 19 20  1  0
 20 21  2  0
 21 22  1  0
 22 23  1  0
 22 24  2  0
 24  2  1  0
 16  6  1  0
 24 18  1  0
  4 25  1  0
  7 26  1  0
  8 27  1  0
 10 28  1  0
 10 29  1  0
 13 30  1  0
 16 31  1  0
 19 32  1  0
 20 33  1  0
 21 34  1  0
 23 35  1  0
M  END
>  <meeko>  (4) 
{"is_sidechain": [false], "free_energy": -8.847, "intermolecular_energy": -11.144, "internal_energy": -0.311}

$$$$
cand_019_out
     RDKit          3D

 35 37  0  0  0  0  0  0  0  0999 V2000
   24.3550  -28.5350   43.4980 O   0  0  0  0  0  0  0  0  0  0  0  0
   23.3730  -28.2120   42.8340 C   0  0  0  0  0  0  0  0  0  0  0  0
   23.0110  -28.9640   41.6100 C   0  0  0  0  0  0  0  0  0  0  0  0
   23.8330  -30.0180   41.2550 O   0  0  0  0  0  0  0  0  0  0  0  0
   21.9290  -28.5750   40.9130 C   0  0  0  0  0  0  0  0  0  0  0  0
   21.4820  -29.2430   39.6710 C   0  0  0  0  0  0  0  0  0  0  0  0
   21.9380  -28.8390   38.4130 C   0  0  0  0  0  0  0  0  0  0  0  0
   21.5200  -29.5000   37.2540 C   0  0  0  0  0  0  0  0  0  0  0  0
   20.6340  -30.5840   37.3250 C   0  0  0  0  0  0  0  0  0  0  0  0
   20.2090  -31.2800   36.0560 C   0  0  0  0  0  0  0  0  0  0  0  0
   21.0960  -31.0920   35.0390 F   0  0  0  0  0  0  0  0  0  0  0  0
   20.1840  -31.0230   38.5890 C   0  0  0  0  0  0  0  0  0  0  0  0
   19.2470  -32.2030   38.7240 C   0  0  0  0  0  0  0  0  0  0  0  0
   19.9050  -33.3580   39.0210 F   0  0  0  0  0  0  0  0  0  0  0  0
   18.3290  -32.0460   39.7220 F   0  0  0  0  0  0  0  0  0  0  0  0
   20.6120  -30.3420   39.7440 C   0  0  0  0  0  0  0  0  0  0  0  0
   21.1260  -27.4970   41.2650 O   0  0  0  0  0  0  0  0  0  0  0  0
   21.4310  -26.7840   42.3970 C   0  0  0  0  0  0  0  0  0  0  0  0
   20.5920  -25.7160   42.7190 C   0  0  0  0  0  0  0  0  0  0  0  0
   20.8470  -24.9490   43.8580 C   0  0  0  0  0  0  0  0  0  0  0  0
   21.9400  -25.2500   44.6740 C   0  0  0  0  0  0  0  0  0  0  0  0
   22.7750  -26.3160   44.3500 C   0  0  0  0  0  0  0  0  0  0  0  0
   23.8260  -26.5540   45.1930 O   0  0  0  0  0  0  0  0  0  0  0  0
   22.5190  -27.0830   43.2110 C   0  0  0  0  0  0  0  0  0  0  0  0
   24.4980  -29.8950   40.6050 H   0  0  0  0  0  0  0  0  0  0  0  0
   22.6340  -27.9909   38.3339 H   0  0  0  0  0  0  0  0  0  0  0  0
   21.8911  -29.1652   36.2741 H   0  0  0  0  0  0  0  0  0  0  0  0
   20.1239  -32.3583   36.2559 H   0  0  0  0  0  0  0  0  0  0  0  0
   19.2453  -30.8509   35.7444 H   0  0  0  0  0  0  0  0  0  0  0  0
   18.7556  -32.2567   37.7413 H   0  0  0  0  0  0  0  0  0  0  0  0
   20.2558  -30.6795   40.7285 H   0  0  0  0  0  0  0  0  0  0  0  0
   19.7312  -25.4787   42.0766 H   0  0  0  0  0  0  0  0  0  0  0  0
   20.1865  -24.1071   44.1127 H   0  0  0  0  0  0  0  0  0  0  0  0
   22.1407  -24.6459   45.5711 H   0  0  0  0  0  0  0  0  0  0  0  0
   24.0870  -25.9020   45.8120 H   0  0  0  0  0  0  0  0  0  0  0  0
  1  2  2  0
  2  3  1  0
  3  4  1  0
  3  5  2  0
  5  6  1  0
  6  7  2  0
  7  8  1  0
  8  9  2  0
  9 10  1  0
 10 11  1  0
  9 12  1  0
 12 13  1  0
 13 14  1  0
 13 15  1  0
 12 16  2  0
  5 17  1  0
 17 18  1  0
 18 19  2  0
 19 20  1  0
 20 21  2  0
 21 22  1  0
 22 23  1  0
 22 24  2  0
 24  2  1  0
 16  6  1  0
 24 18  1  0
  4 25  1  0
  7 26  1  0
  8 27  1  0
 10 28  1  0
 10 29  1  0
 13 30  1  0
 16 31  1  0
 19 32  1  0
 20 33  1  0
 21 34  1  0
 23 35  1  0
M  END
>  <meeko>  (5) 
{"is_sidechain": [false], "free_energy": -8.595, "intermolecular_energy": -10.573, "internal_energy": -0.571}

$$$$
cand_019_out
     RDKit          3D

 35 37  0  0  0  0  0  0  0  0999 V2000
   18.7350  -34.2190   37.7430 O   0  0  0  0  0  0  0  0  0  0  0  0
   19.2370  -33.1450   37.4170 C   0  0  0  0  0  0  0  0  0  0  0  0
   19.4750  -32.0880   38.4270 C   0  0  0  0  0  0  0  0  0  0  0  0
   19.0930  -32.3640   39.7270 O   0  0  0  0  0  0  0  0  0  0  0  0
   20.0260  -30.9290   38.0260 C   0  0  0  0  0  0  0  0  0  0  0  0
   20.2970  -29.8000   38.9430 C   0  0  0  0  0  0  0  0  0  0  0  0
   19.3750  -28.7660   39.1300 C   0  0  0  0  0  0  0  0  0  0  0  0
   19.6420  -27.7210   40.0190 C   0  0  0  0  0  0  0  0  0  0  0  0
   20.8400  -27.6850   40.7470 C   0  0  0  0  0  0  0  0  0  0  0  0
   21.0940  -26.5470   41.7030 C   0  0  0  0  0  0  0  0  0  0  0  0
   20.5470  -26.7690   42.9310 F   0  0  0  0  0  0  0  0  0  0  0  0
   21.7710  -28.7340   40.5910 C   0  0  0  0  0  0  0  0  0  0  0  0
   23.0690  -28.7570   41.3690 C   0  0  0  0  0  0  0  0  0  0  0  0
   22.8740  -28.5960   42.7080 F   0  0  0  0  0  0  0  0  0  0  0  0
   23.7470  -29.9350   41.2440 F   0  0  0  0  0  0  0  0  0  0  0  0
   21.4870  -29.7750   39.6860 C   0  0  0  0  0  0  0  0  0  0  0  0
   20.3810  -30.6530   36.7100 O   0  0  0  0  0  0  0  0  0  0  0  0
   20.1790  -31.6140   35.7530 C   0  0  0  0  0  0  0  0  0  0  0  0
   20.5590  -31.2990   34.4480 C   0  0  0  0  0  0  0  0  0  0  0  0
   20.3800  -32.2330   33.4250 C   0  0  0  0  0  0  0  0  0  0  0  0
   19.8210  -33.4820   33.7080 C   0  0  0  0  0  0  0  0  0  0  0  0
   19.4430  -33.7930   35.0110 C   0  0  0  0  0  0  0  0  0  0  0  0
   18.9030  -35.0330   35.2170 O   0  0  0  0  0  0  0  0  0  0  0  0
   19.6230  -32.8580   36.0330 C   0  0  0  0  0  0  0  0  0  0  0  0
   18.5760  -31.7450   40.2050 H   0  0  0  0  0  0  0  0  0  0  0  0
   18.4278  -28.7749   38.5707 H   0  0  0  0  0  0  0  0  0  0  0  0
   18.9030  -26.9167   40.1492 H   0  0  0  0  0  0  0  0  0  0  0  0
   22.1803  -26.4180   41.8181 H   0  0  0  0  0  0  0  0  0  0  0  0
   20.6235  -25.6453   41.2840 H   0  0  0  0  0  0  0  0  0  0  0  0
   23.6443  -27.9240   40.9387 H   0  0  0  0  0  0  0  0  0  0  0  0
   22.2162  -30.5887   39.5585 H   0  0  0  0  0  0  0  0  0  0  0  0
   20.9992  -30.3159   34.2250 H   0  0  0  0  0  0  0  0  0  0  0  0
   20.6793  -31.9852   32.3959 H   0  0  0  0  0  0  0  0  0  0  0  0
   19.6800  -34.2179   32.9027 H   0  0  0  0  0  0  0  0  0  0  0  0
   18.3670  -35.4260   34.5570 H   0  0  0  0  0  0  0  0  0  0  0  0
  1  2  2  0
  2  3  1  0
  3  4  1  0
  3  5  2  0
  5  6  1  0
  6  7  2  0
  7  8  1  0
  8  9  2  0
  9 10  1  0
 10 11  1  0
  9 12  1  0
 12 13  1  0
 13 14  1  0
 13 15  1  0
 12 16  2  0
  5 17  1  0
 17 18  1  0
 18 19  2  0
 19 20  1  0
 20 21  2  0
 21 22  1  0
 22 23  1  0
 22 24  2  0
 24  2  1  0
 16  6  1  0
 24 18  1  0
  4 25  1  0
  7 26  1  0
  8 27  1  0
 10 28  1  0
 10 29  1  0
 13 30  1  0
 16 31  1  0
 19 32  1  0
 20 33  1  0
 21 34  1  0
 23 35  1  0
M  END
>  <meeko>  (6) 
{"is_sidechain": [false], "free_energy": -8.537, "intermolecular_energy": -10.659, "internal_energy": -0.413}

$$$$
cand_019_out
     RDKit          3D

 35 37  0  0  0  0  0  0  0  0999 V2000
   18.6650  -33.9910   37.9960 O   0  0  0  0  0  0  0  0  0  0  0  0
   19.3090  -32.9870   37.6990 C   0  0  0  0  0  0  0  0  0  0  0  0
   19.7400  -32.0340   38.7470 C   0  0  0  0  0  0  0  0  0  0  0  0
   19.3720  -32.3210   40.0490 O   0  0  0  0  0  0  0  0  0  0  0  0
   20.4420  -30.9470   38.3770 C   0  0  0  0  0  0  0  0  0  0  0  0
   20.9130  -29.9220   39.3350 C   0  0  0  0  0  0  0  0  0  0  0  0
   22.2040  -29.9550   39.8730 C   0  0  0  0  0  0  0  0  0  0  0  0
   22.6350  -28.9630   40.7580 C   0  0  0  0  0  0  0  0  0  0  0  0
   21.7860  -27.9100   41.1270 C   0  0  0  0  0  0  0  0  0  0  0  0
   22.2860  -26.8520   42.0790 C   0  0  0  0  0  0  0  0  0  0  0  0
   23.5360  -27.1240   42.5480 F   0  0  0  0  0  0  0  0  0  0  0  0
   20.4900  -27.8460   40.5730 C   0  0  0  0  0  0  0  0  0  0  0  0
   19.5420  -26.7180   40.9190 C   0  0  0  0  0  0  0  0  0  0  0  0
   18.4750  -26.6590   40.0720 F   0  0  0  0  0  0  0  0  0  0  0  0
   19.0010  -26.8360   42.1670 F   0  0  0  0  0  0  0  0  0  0  0  0
   20.0710  -28.8570   39.6870 C   0  0  0  0  0  0  0  0  0  0  0  0
   20.7820  -30.6540   37.0620 O   0  0  0  0  0  0  0  0  0  0  0  0
   20.4020  -31.5210   36.0700 C   0  0  0  0  0  0  0  0  0  0  0  0
   20.7740  -31.1930   34.7650 C   0  0  0  0  0  0  0  0  0  0  0  0
   20.4180  -32.0330   33.7080 C   0  0  0  0  0  0  0  0  0  0  0  0
   19.6910  -33.2000   33.9540 C   0  0  0  0  0  0  0  0  0  0  0  0
   19.3220  -33.5240   35.2580 C   0  0  0  0  0  0  0  0  0  0  0  0
   18.6110  -34.6810   35.4270 O   0  0  0  0  0  0  0  0  0  0  0  0
   19.6780  -32.6840   36.3150 C   0  0  0  0  0  0  0  0  0  0  0  0
   20.0150  -32.6200   40.6620 H   0  0  0  0  0  0  0  0  0  0  0  0
   22.8877  -30.7711   39.5963 H   0  0  0  0  0  0  0  0  0  0  0  0
   23.6537  -29.0089   41.1705 H   0  0  0  0  0  0  0  0  0  0  0  0
   22.3084  -25.8860   41.5534 H   0  0  0  0  0  0  0  0  0  0  0  0
   21.6028  -26.8263   42.9407 H   0  0  0  0  0  0  0  0  0  0  0  0
   20.1718  -25.8191   40.8457 H   0  0  0  0  0  0  0  0  0  0  0  0
   19.0582  -28.8104   39.2603 H   0  0  0  0  0  0  0  0  0  0  0  0
   21.3466  -30.2743   34.5698 H   0  0  0  0  0  0  0  0  0  0  0  0
   20.7107  -31.7752   32.6795 H   0  0  0  0  0  0  0  0  0  0  0  0
   19.4106  -33.8613   33.1209 H   0  0  0  0  0  0  0  0  0  0  0  0
   18.6270  -35.3420   34.7640 H   0  0  0  0  0  0  0  0  0  0  0  0
  1  2  2  0
  2  3  1  0
  3  4  1  0
  3  5  2  0
  5  6  1  0
  6  7  2  0
  7  8  1  0
  8  9  2  0
  9 10  1  0
 10 11  1  0
  9 12  1  0
 12 13  1  0
 13 14  1  0
 13 15  1  0
 12 16  2  0
  5 17  1  0
 17 18  1  0
 18 19  2  0
 19 20  1  0
 20 21  2  0
 21 22  1  0
 22 23  1  0
 22 24  2  0
 24  2  1  0
 16  6  1  0
 24 18  1  0
  4 25  1  0
  7 26  1  0
  8 27  1  0
 10 28  1  0
 10 29  1  0
 13 30  1  0
 16 31  1  0
 19 32  1  0
 20 33  1  0
 21 34  1  0
 23 35  1  0
M  END
>  <meeko>  (7) 
{"is_sidechain": [false], "free_energy": -8.437, "intermolecular_energy": -10.391, "internal_energy": -0.558}

$$$$
cand_019_out
     RDKit          3D

 35 37  0  0  0  0  0  0  0  0999 V2000
   19.7160  -25.7880   39.1800 O   0  0  0  0  0  0  0  0  0  0  0  0
   20.2140  -26.8950   39.3750 C   0  0  0  0  0  0  0  0  0  0  0  0
   19.8230  -28.0530   38.5390 C   0  0  0  0  0  0  0  0  0  0  0  0
   18.8730  -27.8290   37.5590 O   0  0  0  0  0  0  0  0  0  0  0  0
   20.3920  -29.2460   38.7880 C   0  0  0  0  0  0  0  0  0  0  0  0
   20.0680  -30.4730   38.0260 C   0  0  0  0  0  0  0  0  0  0  0  0
   20.2960  -30.5670   36.6500 C   0  0  0  0  0  0  0  0  0  0  0  0
   20.0040  -31.7440   35.9550 C   0  0  0  0  0  0  0  0  0  0  0  0
   19.4780  -32.8610   36.6210 C   0  0  0  0  0  0  0  0  0  0  0  0
   19.1810  -34.1180   35.8440 C   0  0  0  0  0  0  0  0  0  0  0  0
   20.2930  -34.8810   35.6470 F   0  0  0  0  0  0  0  0  0  0  0  0
   19.2680  -32.7930   38.0160 C   0  0  0  0  0  0  0  0  0  0  0  0
   18.7250  -33.9760   38.7870 C   0  0  0  0  0  0  0  0  0  0  0  0
   19.5890  -35.0290   38.7980 F   0  0  0  0  0  0  0  0  0  0  0  0
   18.4870  -33.6940   40.1020 F   0  0  0  0  0  0  0  0  0  0  0  0
   19.5620  -31.5970   38.6970 C   0  0  0  0  0  0  0  0  0  0  0  0
   21.3250  -29.4660   39.7940 O   0  0  0  0  0  0  0  0  0  0  0  0
   21.7130  -28.4110   40.5810 C   0  0  0  0  0  0  0  0  0  0  0  0
   22.6590  -28.6740   41.5720 C   0  0  0  0  0  0  0  0  0  0  0  0
   23.0960  -27.6440   42.4080 C   0  0  0  0  0  0  0  0  0  0  0  0
   22.5870  -26.3530   42.2530 C   0  0  0  0  0  0  0  0  0  0  0  0
   21.6430  -26.0940   41.2630 C   0  0  0  0  0  0  0  0  0  0  0  0
   21.1870  -24.8080   41.1670 O   0  0  0  0  0  0  0  0  0  0  0  0
   21.2060  -27.1240   40.4270 C   0  0  0  0  0  0  0  0  0  0  0  0
   18.0960  -27.3460   37.7610 H   0  0  0  0  0  0  0  0  0  0  0  0
   20.7102  -29.7043   36.1077 H   0  0  0  0  0  0  0  0  0  0  0  0
   20.1890  -31.7951   34.8719 H   0  0  0  0  0  0  0  0  0  0  0  0
   18.4398  -34.7106   36.4003 H   0  0  0  0  0  0  0  0  0  0  0  0
   18.7990  -33.8200   34.8565 H   0  0  0  0  0  0  0  0  0  0  0  0
   17.7908  -34.2217   38.2608 H   0  0  0  0  0  0  0  0  0  0  0  0
   19.3909  -31.5418   39.7822 H   0  0  0  0  0  0  0  0  0  0  0  0
   23.0601  -29.6909   41.6948 H   0  0  0  0  0  0  0  0  0  0  0  0
   23.8421  -27.8501   43.1896 H   0  0  0  0  0  0  0  0  0  0  0  0
   22.9312  -25.5422   42.9118 H   0  0  0  0  0  0  0  0  0  0  0  0
   20.3020  -24.6050   41.3980 H   0  0  0  0  0  0  0  0  0  0  0  0
  1  2  2  0
  2  3  1  0
  3  4  1  0
  3  5  2  0
  5  6  1  0
  6  7  2  0
  7  8  1  0
  8  9  2  0
  9 10  1  0
 10 11  1  0
  9 12  1  0
 12 13  1  0
 13 14  1  0
 13 15  1  0
 12 16  2  0
  5 17  1  0
 17 18  1  0
 18 19  2  0
 19 20  1  0
 20 21  2  0
 21 22  1  0
 22 23  1  0
 22 24  2  0
 24  2  1  0
 16  6  1  0
 24 18  1  0
  4 25  1  0
  7 26  1  0
  8 27  1  0
 10 28  1  0
 10 29  1  0
 13 30  1  0
 16 31  1  0
 19 32  1  0
 20 33  1  0
 21 34  1  0
 23 35  1  0
M  END
>  <meeko>  (8) 
{"is_sidechain": [false], "free_energy": -8.232, "intermolecular_energy": -10.25, "internal_energy": -0.446}

$$$$
cand_019_out
     RDKit          3D

 35 37  0  0  0  0  0  0  0  0999 V2000
   20.9240  -28.1040   36.6670 O   0  0  0  0  0  0  0  0  0  0  0  0
   20.8440  -28.5560   37.8070 C   0  0  0  0  0  0  0  0  0  0  0  0
   21.1900  -27.7130   38.9750 C   0  0  0  0  0  0  0  0  0  0  0  0
   21.6160  -26.4230   38.7160 O   0  0  0  0  0  0  0  0  0  0  0  0
   21.0890  -28.2480   40.2060 C   0  0  0  0  0  0  0  0  0  0  0  0
   21.4210  -27.5060   41.4420 C   0  0  0  0  0  0  0  0  0  0  0  0
   20.6860  -26.3880   41.8490 C   0  0  0  0  0  0  0  0  0  0  0  0
   21.0030  -25.7160   43.0330 C   0  0  0  0  0  0  0  0  0  0  0  0
   22.0630  -26.1470   43.8430 C   0  0  0  0  0  0  0  0  0  0  0  0
   22.3740  -25.4050   45.1170 C   0  0  0  0  0  0  0  0  0  0  0  0
   21.7970  -24.1700   45.1530 F   0  0  0  0  0  0  0  0  0  0  0  0
   22.7980  -27.2910   43.4620 C   0  0  0  0  0  0  0  0  0  0  0  0
   23.9370  -27.8130   44.3110 C   0  0  0  0  0  0  0  0  0  0  0  0
   23.5850  -28.9150   45.0300 F   0  0  0  0  0  0  0  0  0  0  0  0
   25.0210  -28.1960   43.5750 F   0  0  0  0  0  0  0  0  0  0  0  0
   22.4680  -27.9510   42.2630 C   0  0  0  0  0  0  0  0  0  0  0  0
   20.6870  -29.5560   40.4520 O   0  0  0  0  0  0  0  0  0  0  0  0
   20.3530  -30.3580   39.3910 C   0  0  0  0  0  0  0  0  0  0  0  0
   19.9450  -31.6600   39.6850 C   0  0  0  0  0  0  0  0  0  0  0  0
   19.5910  -32.5290   38.6500 C   0  0  0  0  0  0  0  0  0  0  0  0
   19.6470  -32.0970   37.3230 C   0  0  0  0  0  0  0  0  0  0  0  0
   20.0550  -30.7980   37.0330 C   0  0  0  0  0  0  0  0  0  0  0  0
   20.0870  -30.4420   35.7130 O   0  0  0  0  0  0  0  0  0  0  0  0
   20.4080  -29.9290   38.0690 C   0  0  0  0  0  0  0  0  0  0  0  0
   21.8370  -26.1700   37.8410 H   0  0  0  0  0  0  0  0  0  0  0  0
   19.8486  -26.0333   41.2301 H   0  0  0  0  0  0  0  0  0  0  0  0
   20.4130  -24.8375   43.3331 H   0  0  0  0  0  0  0  0  0  0  0  0
   22.0021  -25.9937   45.9685 H   0  0  0  0  0  0  0  0  0  0  0  0
   23.4642  -25.2676   45.1677 H   0  0  0  0  0  0  0  0  0  0  0  0
   24.1845  -26.9631   44.9640 H   0  0  0  0  0  0  0  0  0  0  0  0
   23.0455  -28.8377   41.9624 H   0  0  0  0  0  0  0  0  0  0  0  0
   19.9023  -32.0013   40.7298 H   0  0  0  0  0  0  0  0  0  0  0  0
   19.2677  -33.5548   38.8805 H   0  0  0  0  0  0  0  0  0  0  0  0
   19.3692  -32.7820   36.5084 H   0  0  0  0  0  0  0  0  0  0  0  0
   20.7890  -29.9140   35.3860 H   0  0  0  0  0  0  0  0  0  0  0  0
  1  2  2  0
  2  3  1  0
  3  4  1  0
  3  5  2  0
  5  6  1  0
  6  7  2  0
  7  8  1  0
  8  9  2  0
  9 10  1  0
 10 11  1  0
  9 12  1  0
 12 13  1  0
 13 14  1  0
 13 15  1  0
 12 16  2  0
  5 17  1  0
 17 18  1  0
 18 19  2  0
 19 20  1  0
 20 21  2  0
 21 22  1  0
 22 23  1  0
 22 24  2  0
 24  2  1  0
 16  6  1  0
 24 18  1  0
  4 25  1  0
  7 26  1  0
  8 27  1  0
 10 28  1  0
 10 29  1  0
 13 30  1  0
 16 31  1  0
 19 32  1  0
 20 33  1  0
 21 34  1  0
 23 35  1  0
M  END
>  <meeko>  (9) 
{"is_sidechain": [false], "free_energy": -8.191, "intermolecular_energy": -10.18, "internal_energy": -0.465}

$$$$
