9IV_ttbk1_out
     RDKit          3D

 37 40  0  0  0  0  0  0  0  0999 V2000
   47.8300   27.6760  -12.1790 Cl  0  0  0  0  0  0  0  0  0  0  0  0
   47.1560   26.1760  -12.7000 C   0  0  0  0  0  0  0  0  0  0  0  0
   48.0130   25.0910  -12.9000 C   0  0  0  0  0  0  0  0  0  0  0  0
   47.5000   23.8620  -13.3200 C   0  0  0  0  0  0  0  0  0  0  0  0
   46.1290   23.7140  -13.5350 C   0  0  0  0  0  0  0  0  0  0  0  0
   45.2690   24.7950  -13.3360 C   0  0  0  0  0  0  0  0  0  0  0  0
   45.7840   26.0340  -12.9350 C   0  0  0  0  0  0  0  0  0  0  0  0
   44.9450   27.1010  -12.6960 O   0  0  0  0  0  0  0  0  0  0  0  0
   43.6100   26.9210  -12.9750 C   0  0  0  0  0  0  0  0  0  0  0  0
   43.1210   26.7310  -14.2680 C   0  0  0  0  0  0  0  0  0  0  0  0
   41.7460   26.5870  -14.4730 C   0  0  0  0  0  0  0  0  0  0  0  0
   40.8460   26.6330  -13.4000 C   0  0  0  0  0  0  0  0  0  0  0  0
   39.4680   26.5110  -13.6790 N   0  0  0  0  0  0  0  0  0  0  0  0
   38.6620   27.3670  -14.4460 C   0  0  0  0  0  0  0  0  0  0  0  0
   38.1840   28.4730  -13.8230 N   0  0  0  0  0  0  0  0  0  0  0  0
   37.4130   29.3280  -14.5250 C   0  0  0  0  0  0  0  0  0  0  0  0
   37.0440   29.2470  -15.8130 N   0  0  0  0  0  0  0  0  0  0  0  0
   37.5640   28.1580  -16.3990 C   0  0  0  0  0  0  0  0  0  0  0  0
   37.3830   27.8250  -17.7130 N   0  0  0  0  0  0  0  0  0  0  0  0
   38.0670   26.6700  -17.9960 C   0  0  0  0  0  0  0  0  0  0  0  0
   38.6930   26.2600  -16.8380 C   0  0  0  0  0  0  0  0  0  0  0  0
   38.3660   27.1930  -15.8100 C   0  0  0  0  0  0  0  0  0  0  0  0
   41.3510   26.8690  -12.1160 C   0  0  0  0  0  0  0  0  0  0  0  0
   42.7250   27.0140  -11.9030 C   0  0  0  0  0  0  0  0  0  0  0  0
   49.0932   25.2049  -12.7264 H   0  0  0  0  0  0  0  0  0  0  0  0
   48.1769   23.0101  -13.4815 H   0  0  0  0  0  0  0  0  0  0  0  0
   45.7257   22.7441  -13.8617 H   0  0  0  0  0  0  0  0  0  0  0  0
   44.1872   24.6739  -13.4941 H   0  0  0  0  0  0  0  0  0  0  0  0
   43.8140   26.6947  -15.1215 H   0  0  0  0  0  0  0  0  0  0  0  0
   41.3641   26.4351  -15.4933 H   0  0  0  0  0  0  0  0  0  0  0  0
   39.0170   25.7290  -13.2870 H   0  0  0  0  0  0  0  0  0  0  0  0
   37.0392   30.2025  -13.9722 H   0  0  0  0  0  0  0  0  0  0  0  0
   36.8430   28.3350  -18.3590 H   0  0  0  0  0  0  0  0  0  0  0  0
   38.1085   26.1625  -18.9710 H   0  0  0  0  0  0  0  0  0  0  0  0
   39.3313   25.3711  -16.7267 H   0  0  0  0  0  0  0  0  0  0  0  0
   40.6584   26.9412  -11.2644 H   0  0  0  0  0  0  0  0  0  0  0  0
   43.1075   27.2016  -10.8888 H   0  0  0  0  0  0  0  0  0  0  0  0
  1  2  1  0
  2  3  2  0
  3  4  1  0
  4  5  2  0
  5  6  1  0
  6  7  2  0
  7  8  1  0
  8  9  1  0
  9 10  2  0
 10 11  1  0
 11 12  2  0
 12 13  1  0
 13 14  1  0
 14 15  2  0
 15 16  1  0
 16 17  2  0
 17 18  1  0
 18 19  1  0
 19 20  1  0
 20 21  2  0
 21 22  1  0
 12 23  1  0
 23 24  2  0
  7  2  1  0
 24  9  1  0
 22 14  1  0
 22 18  2  0
  3 25  1  0
  4 26  1  0
  5 27  1  0
  6 28  1  0
 10 29  1  0
 11 30  1  0
 13 31  1  0
 16 32  1  0
 19 33  1  0
 20 34  1  0
 21 35  1  0
 23 36  1  0
 24 37  1  0
M  END
>  <meeko>  (1) 
{"is_sidechain": [false], "free_energy": -1.001, "intermolecular_energy": -1.235, "internal_energy": -0.394}

$$$$
9IV_ttbk1_out
     RDKit          3D

 37 40  0  0  0  0  0  0  0  0999 V2000
   47.4940   28.0220  -11.9270 Cl  0  0  0  0  0  0  0  0  0  0  0  0
   47.0690   26.4460  -12.4850 C   0  0  0  0  0  0  0  0  0  0  0  0
   48.0770   25.4860  -12.6090 C   0  0  0  0  0  0  0  0  0  0  0  0
   47.7660   24.2000  -13.0570 C   0  0  0  0  0  0  0  0  0  0  0  0
   46.4490   23.8700  -13.3760 C   0  0  0  0  0  0  0  0  0  0  0  0
   45.4390   24.8260  -13.2530 C   0  0  0  0  0  0  0  0  0  0  0  0
   45.7510   26.1220  -12.8250 C   0  0  0  0  0  0  0  0  0  0  0  0
   44.7610   27.0670  -12.6600 O   0  0  0  0  0  0  0  0  0  0  0  0
   43.5410   26.8010  -13.2370 C   0  0  0  0  0  0  0  0  0  0  0  0
   42.3310   26.9280  -12.5530 C   0  0  0  0  0  0  0  0  0  0  0  0
   41.1340   26.6080  -13.1990 C   0  0  0  0  0  0  0  0  0  0  0  0
   41.1260   26.1590  -14.5280 C   0  0  0  0  0  0  0  0  0  0  0  0
   39.8870   25.8250  -15.1120 N   0  0  0  0  0  0  0  0  0  0  0  0
   39.0060   26.6650  -15.8110 C   0  0  0  0  0  0  0  0  0  0  0  0
   38.7180   26.3150  -17.0900 N   0  0  0  0  0  0  0  0  0  0  0  0
   37.8680   27.0880  -17.7960 C   0  0  0  0  0  0  0  0  0  0  0  0
   37.2270   28.1970  -17.3950 N   0  0  0  0  0  0  0  0  0  0  0  0
   37.5140   28.4900  -16.1190 C   0  0  0  0  0  0  0  0  0  0  0  0
   36.9890   29.5470  -15.4290 N   0  0  0  0  0  0  0  0  0  0  0  0
   37.4680   29.5450  -14.1430 C   0  0  0  0  0  0  0  0  0  0  0  0
   38.3170   28.4660  -14.0150 C   0  0  0  0  0  0  0  0  0  0  0  0
   38.3650   27.7950  -15.2720 C   0  0  0  0  0  0  0  0  0  0  0  0
   42.3530   25.9960  -15.1830 C   0  0  0  0  0  0  0  0  0  0  0  0
   43.5540   26.3140  -14.5430 C   0  0  0  0  0  0  0  0  0  0  0  0
   49.1156   25.7431  -12.3537 H   0  0  0  0  0  0  0  0  0  0  0  0
   48.5610   23.4465  -13.1583 H   0  0  0  0  0  0  0  0  0  0  0  0
   46.2058   22.8555  -13.7248 H   0  0  0  0  0  0  0  0  0  0  0  0
   44.3985   24.5611  -13.4923 H   0  0  0  0  0  0  0  0  0  0  0  0
   42.3197   27.2783  -11.5103 H   0  0  0  0  0  0  0  0  0  0  0  0
   40.1825   26.7098  -12.6566 H   0  0  0  0  0  0  0  0  0  0  0  0
   39.6050   24.8870  -15.0170 H   0  0  0  0  0  0  0  0  0  0  0  0
   37.6757   26.7695  -18.8312 H   0  0  0  0  0  0  0  0  0  0  0  0
   36.3630   30.2110  -15.7980 H   0  0  0  0  0  0  0  0  0  0  0  0
   37.2196   30.2727  -13.3564 H   0  0  0  0  0  0  0  0  0  0  0  0
   38.8609   28.1746  -13.1044 H   0  0  0  0  0  0  0  0  0  0  0  0
   42.3717   25.6129  -16.2140 H   0  0  0  0  0  0  0  0  0  0  0  0
   44.5101   26.1799  -15.0702 H   0  0  0  0  0  0  0  0  0  0  0  0
  1  2  1  0
  2  3  2  0
  3  4  1  0
  4  5  2  0
  5  6  1  0
  6  7  2  0
  7  8  1  0
  8  9  1  0
  9 10  2  0
 10 11  1  0
 11 12  2  0
 12 13  1  0
 13 14  1  0
 14 15  2  0
 15 16  1  0
 16 17  2  0
 17 18  1  0
 18 19  1  0
 19 20  1  0
 20 21  2  0
 21 22  1  0
 12 23  1  0
 23 24  2  0
  7  2  1  0
 24  9  1  0
 22 14  1  0
 22 18  2  0
  3 25  1  0
  4 26  1  0
  5 27  1  0
  6 28  1  0
 10 29  1  0
 11 30  1  0
 13 31  1  0
 16 32  1  0
 19 33  1  0
 20 34  1  0
 21 35  1  0
 23 36  1  0
 24 37  1  0
M  END
>  <meeko>  (2) 
{"is_sidechain": [false], "free_energy": -0.367, "intermolecular_energy": -0.914, "internal_energy": 0.068}

$$$$
9IV_ttbk1_out
     RDKit          3D

 37 40  0  0  0  0  0  0  0  0999 V2000
   37.9650   29.0260  -14.2220 Cl  0  0  0  0  0  0  0  0  0  0  0  0
   38.0130   28.0160  -15.6190 C   0  0  0  0  0  0  0  0  0  0  0  0
   37.6830   28.5710  -16.8580 C   0  0  0  0  0  0  0  0  0  0  0  0
   37.7130   27.7800  -18.0090 C   0  0  0  0  0  0  0  0  0  0  0  0
   38.0800   26.4370  -17.9250 C   0  0  0  0  0  0  0  0  0  0  0  0
   38.4110   25.8780  -16.6890 C   0  0  0  0  0  0  0  0  0  0  0  0
   38.3600   26.6640  -15.5300 C   0  0  0  0  0  0  0  0  0  0  0  0
   38.7220   26.1390  -14.3090 O   0  0  0  0  0  0  0  0  0  0  0  0
   39.9560   26.4970  -13.8150 C   0  0  0  0  0  0  0  0  0  0  0  0
   40.1600   26.9030  -12.4960 C   0  0  0  0  0  0  0  0  0  0  0  0
   41.4380   27.2810  -12.0780 C   0  0  0  0  0  0  0  0  0  0  0  0
   42.5240   27.2620  -12.9640 C   0  0  0  0  0  0  0  0  0  0  0  0
   43.7830   27.6850  -12.4870 N   0  0  0  0  0  0  0  0  0  0  0  0
   45.0280   27.0630  -12.6650 C   0  0  0  0  0  0  0  0  0  0  0  0
   46.1230   27.7740  -12.2910 N   0  0  0  0  0  0  0  0  0  0  0  0
   47.3390   27.2110  -12.4350 C   0  0  0  0  0  0  0  0  0  0  0  0
   47.6380   25.9890  -12.9030 N   0  0  0  0  0  0  0  0  0  0  0  0
   46.5300   25.3090  -13.2300 C   0  0  0  0  0  0  0  0  0  0  0  0
   46.5190   24.0290  -13.7100 N   0  0  0  0  0  0  0  0  0  0  0  0
   45.2250   23.6230  -13.9190 C   0  0  0  0  0  0  0  0  0  0  0  0
   44.3970   24.6690  -13.5670 C   0  0  0  0  0  0  0  0  0  0  0  0
   45.2190   25.7530  -13.1410 C   0  0  0  0  0  0  0  0  0  0  0  0
   42.2920   26.8950  -14.2950 C   0  0  0  0  0  0  0  0  0  0  0  0
   41.0160   26.5150  -14.7200 C   0  0  0  0  0  0  0  0  0  0  0  0
   37.3994   29.6315  -16.9272 H   0  0  0  0  0  0  0  0  0  0  0  0
   37.4469   28.2168  -18.9828 H   0  0  0  0  0  0  0  0  0  0  0  0
   38.1087   25.8175  -18.8335 H   0  0  0  0  0  0  0  0  0  0  0  0
   38.7115   24.8218  -16.6252 H   0  0  0  0  0  0  0  0  0  0  0  0
   39.3181   26.9253  -11.7883 H   0  0  0  0  0  0  0  0  0  0  0  0
   41.5948   27.5988  -11.0366 H   0  0  0  0  0  0  0  0  0  0  0  0
   43.7880   28.5190  -11.9640 H   0  0  0  0  0  0  0  0  0  0  0  0
   48.1948   27.8314  -12.1305 H   0  0  0  0  0  0  0  0  0  0  0  0
   47.3180   23.4800  -13.8810 H   0  0  0  0  0  0  0  0  0  0  0  0
   44.9056   22.6412  -14.2985 H   0  0  0  0  0  0  0  0  0  0  0  0
   43.2978   24.6669  -13.6078 H   0  0  0  0  0  0  0  0  0  0  0  0
   43.1238   26.9059  -15.0147 H   0  0  0  0  0  0  0  0  0  0  0  0
   40.8481   26.2300  -15.7691 H   0  0  0  0  0  0  0  0  0  0  0  0
  1  2  1  0
  2  3  2  0
  3  4  1  0
  4  5  2  0
  5  6  1  0
  6  7  2  0
  7  8  1  0
  8  9  1  0
  9 10  2  0
 10 11  1  0
 11 12  2  0
 12 13  1  0
 13 14  1  0
 14 15  2  0
 15 16  1  0
 16 17  2  0
 17 18  1  0
 18 19  1  0
 19 20  1  0
 20 21  2  0
 21 22  1  0
 12 23  1  0
 23 24  2  0
  7  2  1  0
 24  9  1  0
 22 14  1  0
 22 18  2  0
  3 25  1  0
  4 26  1  0
  5 27  1  0
  6 28  1  0
 10 29  1  0
 11 30  1  0
 13 31  1  0
 16 32  1  0
 19 33  1  0
 20 34  1  0
 21 35  1  0
 23 36  1  0
 24 37  1  0
M  END
>  <meeko>  (3) 
{"is_sidechain": [false], "free_energy": 0.432, "intermolecular_energy": 0.073, "internal_energy": 0.067}

$$$$
9IV_ttbk1_out
     RDKit          3D

 37 40  0  0  0  0  0  0  0  0999 V2000
   37.6720   29.3350  -14.4160 Cl  0  0  0  0  0  0  0  0  0  0  0  0
   37.8670   28.1890  -15.6910 C   0  0  0  0  0  0  0  0  0  0  0  0
   37.6020   28.5950  -17.0010 C   0  0  0  0  0  0  0  0  0  0  0  0
   37.7510   27.6920  -18.0560 C   0  0  0  0  0  0  0  0  0  0  0  0
   38.1710   26.3860  -17.8040 C   0  0  0  0  0  0  0  0  0  0  0  0
   38.4380   25.9770  -16.4960 C   0  0  0  0  0  0  0  0  0  0  0  0
   38.2680   26.8740  -15.4350 C   0  0  0  0  0  0  0  0  0  0  0  0
   38.5650   26.4990  -14.1420 O   0  0  0  0  0  0  0  0  0  0  0  0
   39.8690   26.6490  -13.7310 C   0  0  0  0  0  0  0  0  0  0  0  0
   40.9610   26.4680  -14.5810 C   0  0  0  0  0  0  0  0  0  0  0  0
   42.2580   26.6070  -14.0800 C   0  0  0  0  0  0  0  0  0  0  0  0
   42.4840   26.9260  -12.7330 C   0  0  0  0  0  0  0  0  0  0  0  0
   43.8170   27.0230  -12.2850 N   0  0  0  0  0  0  0  0  0  0  0  0
   44.9150   26.2330  -12.6590 C   0  0  0  0  0  0  0  0  0  0  0  0
   44.6400   24.9810  -13.1050 N   0  0  0  0  0  0  0  0  0  0  0  0
   45.6640   24.1900  -13.4850 C   0  0  0  0  0  0  0  0  0  0  0  0
   46.9750   24.4790  -13.4980 N   0  0  0  0  0  0  0  0  0  0  0  0
   47.2000   25.7330  -13.0810 C   0  0  0  0  0  0  0  0  0  0  0  0
   48.4350   26.3170  -13.0110 N   0  0  0  0  0  0  0  0  0  0  0  0
   48.3120   27.6100  -12.5700 C   0  0  0  0  0  0  0  0  0  0  0  0
   46.9720   27.8510  -12.3510 C   0  0  0  0  0  0  0  0  0  0  0  0
   46.2560   26.6570  -12.6590 C   0  0  0  0  0  0  0  0  0  0  0  0
   41.3770   27.0600  -11.8860 C   0  0  0  0  0  0  0  0  0  0  0  0
   40.0770   26.9220  -12.3800 C   0  0  0  0  0  0  0  0  0  0  0  0
   37.2759   29.6262  -17.2017 H   0  0  0  0  0  0  0  0  0  0  0  0
   37.5369   28.0111  -19.0867 H   0  0  0  0  0  0  0  0  0  0  0  0
   38.2920   25.6775  -18.6367 H   0  0  0  0  0  0  0  0  0  0  0  0
   38.7817   24.9507  -16.2995 H   0  0  0  0  0  0  0  0  0  0  0  0
   40.8015   26.2172  -15.6401 H   0  0  0  0  0  0  0  0  0  0  0  0
   43.1161   26.4639  -14.7532 H   0  0  0  0  0  0  0  0  0  0  0  0
   44.0000   27.7330  -11.6280 H   0  0  0  0  0  0  0  0  0  0  0  0
   45.3907   23.1810  -13.8274 H   0  0  0  0  0  0  0  0  0  0  0  0
   49.2840   25.8770  -13.2430 H   0  0  0  0  0  0  0  0  0  0  0  0
   49.1337   28.3254  -12.4184 H   0  0  0  0  0  0  0  0  0  0  0  0
   46.5332   28.7969  -12.0007 H   0  0  0  0  0  0  0  0  0  0  0  0
   41.5325   27.2765  -10.8188 H   0  0  0  0  0  0  0  0  0  0  0  0
   39.2173   27.0289  -11.7022 H   0  0  0  0  0  0  0  0  0  0  0  0
  1  2  1  0
  2  3  2  0
  3  4  1  0
  4  5  2  0
  5  6  1  0
  6  7  2  0
  7  8  1  0
  8  9  1  0
  9 10  2  0
 10 11  1  0
 11 12  2  0
 12 13  1  0
 13 14  1  0
 14 15  2  0
 15 16  1  0
 16 17  2  0
 17 18  1  0
 18 19  1  0
 19 20  1  0
 20 21  2  0
 21 22  1  0
 12 23  1  0
 23 24  2  0
  7  2  1  0
 24  9  1  0
 22 14  1  0
 22 18  2  0
  3 25  1  0
  4 26  1  0
  5 27  1  0
  6 28  1  0
 10 29  1  0
 11 30  1  0
 13 31  1  0
 16 32  1  0
 19 33  1  0
 20 34  1  0
 21 35  1  0
 23 36  1  0
 24 37  1  0
M  END
>  <meeko>  (4) 
{"is_sidechain": [false], "free_energy": 0.559, "intermolecular_energy": 0.506, "internal_energy": -0.21}

$$$$
9IV_ttbk1_out
     RDKit          3D

 37 40  0  0  0  0  0  0  0  0999 V2000
   44.8820   27.7720  -14.6820 Cl  0  0  0  0  0  0  0  0  0  0  0  0
   45.8470   26.6980  -13.7370 C   0  0  0  0  0  0  0  0  0  0  0  0
   46.8630   27.2360  -12.9430 C   0  0  0  0  0  0  0  0  0  0  0  0
   47.6610   26.3950  -12.1650 C   0  0  0  0  0  0  0  0  0  0  0  0
   47.4420   25.0170  -12.1750 C   0  0  0  0  0  0  0  0  0  0  0  0
   46.4270   24.4760  -12.9670 C   0  0  0  0  0  0  0  0  0  0  0  0
   45.6400   25.3160  -13.7640 C   0  0  0  0  0  0  0  0  0  0  0  0
   44.6090   24.8030  -14.5210 O   0  0  0  0  0  0  0  0  0  0  0  0
   43.3390   25.2440  -14.2290 C   0  0  0  0  0  0  0  0  0  0  0  0
   42.2270   24.9400  -15.0150 C   0  0  0  0  0  0  0  0  0  0  0  0
   40.9740   25.4530  -14.6690 C   0  0  0  0  0  0  0  0  0  0  0  0
   40.8120   26.2710  -13.5430 C   0  0  0  0  0  0  0  0  0  0  0  0
   39.5260   26.7800  -13.2660 N   0  0  0  0  0  0  0  0  0  0  0  0
   38.7480   27.6400  -14.0570 C   0  0  0  0  0  0  0  0  0  0  0  0
   38.3050   28.7780  -13.4640 N   0  0  0  0  0  0  0  0  0  0  0  0
   37.5620   29.6370  -14.1900 C   0  0  0  0  0  0  0  0  0  0  0  0
   37.1900   29.5330  -15.4760 N   0  0  0  0  0  0  0  0  0  0  0  0
   37.6740   28.4130  -16.0310 C   0  0  0  0  0  0  0  0  0  0  0  0
   37.4830   28.0490  -17.3360 N   0  0  0  0  0  0  0  0  0  0  0  0
   38.1300   26.8660  -17.5870 C   0  0  0  0  0  0  0  0  0  0  0  0
   38.7430   26.4680  -16.4170 C   0  0  0  0  0  0  0  0  0  0  0  0
   38.4460   27.4390  -15.4160 C   0  0  0  0  0  0  0  0  0  0  0  0
   41.9470   26.6020  -12.7910 C   0  0  0  0  0  0  0  0  0  0  0  0
   43.2030   26.0930  -13.1310 C   0  0  0  0  0  0  0  0  0  0  0  0
   47.0342   28.3225  -12.9308 H   0  0  0  0  0  0  0  0  0  0  0  0
   48.4633   26.8193  -11.5434 H   0  0  0  0  0  0  0  0  0  0  0  0
   48.0693   24.3563  -11.5586 H   0  0  0  0  0  0  0  0  0  0  0  0
   46.2460   23.3910  -12.9647 H   0  0  0  0  0  0  0  0  0  0  0  0
   42.3361   24.2996  -15.9027 H   0  0  0  0  0  0  0  0  0  0  0  0
   40.0999   25.2105  -15.2913 H   0  0  0  0  0  0  0  0  0  0  0  0
   39.1260   26.4980  -12.4120 H   0  0  0  0  0  0  0  0  0  0  0  0
   37.2164   30.5378  -13.6617 H   0  0  0  0  0  0  0  0  0  0  0  0
   36.9600   28.5590  -17.9950 H   0  0  0  0  0  0  0  0  0  0  0  0
   38.1555   26.3311  -18.5478 H   0  0  0  0  0  0  0  0  0  0  0  0
   39.3525   25.5625  -16.2806 H   0  0  0  0  0  0  0  0  0  0  0  0
   41.8481   27.2703  -11.9229 H   0  0  0  0  0  0  0  0  0  0  0  0
   44.0855   26.3622  -12.5320 H   0  0  0  0  0  0  0  0  0  0  0  0
  1  2  1  0
  2  3  2  0
  3  4  1  0
  4  5  2  0
  5  6  1  0
  6  7  2  0
  7  8  1  0
  8  9  1  0
  9 10  2  0
 10 11  1  0
 11 12  2  0
 12 13  1  0
 13 14  1  0
 14 15  2  0
 15 16  1  0
 16 17  2  0
 17 18  1  0
 18 19  1  0
 19 20  1  0
 20 21  2  0
 21 22  1  0
 12 23  1  0
 23 24  2  0
  7  2  1  0
 24  9  1  0
 22 14  1  0
 22 18  2  0
  3 25  1  0
  4 26  1  0
  5 27  1  0
  6 28  1  0
 10 29  1  0
 11 30  1  0
 13 31  1  0
 16 32  1  0
 19 33  1  0
 20 34  1  0
 21 35  1  0
 23 36  1  0
 24 37  1  0
M  END
>  <meeko>  (5) 
{"is_sidechain": [false], "free_energy": 1.324, "intermolecular_energy": -0.272, "internal_energy": 1.512}

$$$$
9IV_ttbk1_out
     RDKit          3D

 37 40  0  0  0  0  0  0  0  0999 V2000
   43.7390   25.3300  -14.5500 Cl  0  0  0  0  0  0  0  0  0  0  0  0
   45.2410   24.9760  -13.7790 C   0  0  0  0  0  0  0  0  0  0  0  0
   45.8310   23.7300  -14.0040 C   0  0  0  0  0  0  0  0  0  0  0  0
   47.0470   23.4120  -13.3960 C   0  0  0  0  0  0  0  0  0  0  0  0
   47.6790   24.3410  -12.5690 C   0  0  0  0  0  0  0  0  0  0  0  0
   47.0940   25.5880  -12.3430 C   0  0  0  0  0  0  0  0  0  0  0  0
   45.8640   25.9000  -12.9340 C   0  0  0  0  0  0  0  0  0  0  0  0
   45.2910   27.1410  -12.7530 O   0  0  0  0  0  0  0  0  0  0  0  0
   43.9170   27.2040  -12.7690 C   0  0  0  0  0  0  0  0  0  0  0  0
   43.1990   27.9410  -13.7120 C   0  0  0  0  0  0  0  0  0  0  0  0
   41.8040   27.9810  -13.6440 C   0  0  0  0  0  0  0  0  0  0  0  0
   41.1100   27.2920  -12.6390 C   0  0  0  0  0  0  0  0  0  0  0  0
   39.7030   27.3970  -12.6080 N   0  0  0  0  0  0  0  0  0  0  0  0
   38.8570   27.9640  -13.5740 C   0  0  0  0  0  0  0  0  0  0  0  0
   38.1940   29.0930  -13.2160 N   0  0  0  0  0  0  0  0  0  0  0  0
   37.3780   29.6770  -14.1160 C   0  0  0  0  0  0  0  0  0  0  0  0
   37.1240   29.2940  -15.3770 N   0  0  0  0  0  0  0  0  0  0  0  0
   37.8220   28.1960  -15.7010 C   0  0  0  0  0  0  0  0  0  0  0  0
   37.7880   27.5890  -16.9260 N   0  0  0  0  0  0  0  0  0  0  0  0
   38.6340   26.5100  -16.9320 C   0  0  0  0  0  0  0  0  0  0  0  0
   39.2140   26.4270  -15.6840 C   0  0  0  0  0  0  0  0  0  0  0  0
   38.6930   27.4870  -14.8870 C   0  0  0  0  0  0  0  0  0  0  0  0
   41.8480   26.5940  -11.6760 C   0  0  0  0  0  0  0  0  0  0  0  0
   43.2440   26.5500  -11.7390 C   0  0  0  0  0  0  0  0  0  0  0  0
   45.3372   22.9987  -14.6608 H   0  0  0  0  0  0  0  0  0  0  0  0
   47.5072   22.4280  -13.5692 H   0  0  0  0  0  0  0  0  0  0  0  0
   48.6393   24.0905  -12.0946 H   0  0  0  0  0  0  0  0  0  0  0  0
   47.5990   26.3248  -11.7011 H   0  0  0  0  0  0  0  0  0  0  0  0
   43.7292   28.4881  -14.5055 H   0  0  0  0  0  0  0  0  0  0  0  0
   41.2417   28.5617  -14.3901 H   0  0  0  0  0  0  0  0  0  0  0  0
   39.2610   27.0280  -11.8100 H   0  0  0  0  0  0  0  0  0  0  0  0
   36.8541   30.5817  -13.7738 H   0  0  0  0  0  0  0  0  0  0  0  0
   37.2400   27.8830  -17.6890 H   0  0  0  0  0  0  0  0  0  0  0  0
   38.8169   25.8329  -17.7794 H   0  0  0  0  0  0  0  0  0  0  0  0
   39.9491   25.6753  -15.3607 H   0  0  0  0  0  0  0  0  0  0  0  0
   41.3238   26.0743  -10.8605 H   0  0  0  0  0  0  0  0  0  0  0  0
   43.8115   25.9986  -10.9748 H   0  0  0  0  0  0  0  0  0  0  0  0
  1  2  1  0
  2  3  2  0
  3  4  1  0
  4  5  2  0
  5  6  1  0
  6  7  2  0
  7  8  1  0
  8  9  1  0
  9 10  2  0
 10 11  1  0
 11 12  2  0
 12 13  1  0
 13 14  1  0
 14 15  2  0
 15 16  1  0
 16 17  2  0
 17 18  1  0
 18 19  1  0
 19 20  1  0
 20 21  2  0
 21 22  1  0
 12 23  1  0
 23 24  2  0
  7  2  1  0
 24  9  1  0
 22 14  1  0
 22 18  2  0
  3 25  1  0
  4 26  1  0
  5 27  1  0
  6 28  1  0
 10 29  1  0
 11 30  1  0
 13 31  1  0
 16 32  1  0
 19 33  1  0
 20 34  1  0
 21 35  1  0
 23 36  1  0
 24 37  1  0
M  END
>  <meeko>  (6) 
{"is_sidechain": [false], "free_energy": 1.452, "intermolecular_energy": 0.026, "internal_energy": 1.372}

$$$$
9IV_ttbk1_out
     RDKit          3D

 37 40  0  0  0  0  0  0  0  0999 V2000
   48.7920   27.0710  -15.2780 Cl  0  0  0  0  0  0  0  0  0  0  0  0
   48.2500   27.4010  -13.6740 C   0  0  0  0  0  0  0  0  0  0  0  0
   49.0790   28.1400  -12.8270 C   0  0  0  0  0  0  0  0  0  0  0  0
   48.6700   28.4260  -11.5220 C   0  0  0  0  0  0  0  0  0  0  0  0
   47.4300   27.9790  -11.0650 C   0  0  0  0  0  0  0  0  0  0  0  0
   46.5980   27.2400  -11.9090 C   0  0  0  0  0  0  0  0  0  0  0  0
   47.0160   26.9340  -13.2100 C   0  0  0  0  0  0  0  0  0  0  0  0
   46.1910   26.2400  -14.0690 O   0  0  0  0  0  0  0  0  0  0  0  0
   44.8360   26.3560  -13.8640 C   0  0  0  0  0  0  0  0  0  0  0  0
   44.2840   27.0800  -12.8070 C   0  0  0  0  0  0  0  0  0  0  0  0
   42.8960   27.1250  -12.6480 C   0  0  0  0  0  0  0  0  0  0  0  0
   42.0450   26.4500  -13.5340 C   0  0  0  0  0  0  0  0  0  0  0  0
   40.6550   26.5100  -13.3010 N   0  0  0  0  0  0  0  0  0  0  0  0
   39.7220   27.3990  -13.8570 C   0  0  0  0  0  0  0  0  0  0  0  0
   39.3850   28.4770  -13.1040 N   0  0  0  0  0  0  0  0  0  0  0  0
   38.5000   29.3630  -13.6030 C   0  0  0  0  0  0  0  0  0  0  0  0
   37.8850   29.3400  -14.7960 N   0  0  0  0  0  0  0  0  0  0  0  0
   38.2690   28.2780  -15.5200 C   0  0  0  0  0  0  0  0  0  0  0  0
   37.8320   28.0040  -16.7860 N   0  0  0  0  0  0  0  0  0  0  0  0
   38.4370   26.8630  -17.2480 C   0  0  0  0  0  0  0  0  0  0  0  0
   39.2730   26.4010  -16.2540 C   0  0  0  0  0  0  0  0  0  0  0  0
   39.1630   27.2870  -15.1420 C   0  0  0  0  0  0  0  0  0  0  0  0
   42.6180   25.6920  -14.5630 C   0  0  0  0  0  0  0  0  0  0  0  0
   44.0050   25.6430  -14.7270 C   0  0  0  0  0  0  0  0  0  0  0  0
   50.0549   28.4972  -13.1877 H   0  0  0  0  0  0  0  0  0  0  0  0
   49.3261   29.0040  -10.8545 H   0  0  0  0  0  0  0  0  0  0  0  0
   47.1072   28.2088  -10.0388 H   0  0  0  0  0  0  0  0  0  0  0  0
   45.6151   26.8986  -11.5520 H   0  0  0  0  0  0  0  0  0  0  0  0
   44.9383   27.6132  -12.1016 H   0  0  0  0  0  0  0  0  0  0  0  0
   42.4648   27.6991  -11.8146 H   0  0  0  0  0  0  0  0  0  0  0  0
   40.2950   25.8460  -12.6690 H   0  0  0  0  0  0  0  0  0  0  0  0
   38.2502   30.2122  -12.9500 H   0  0  0  0  0  0  0  0  0  0  0  0
   37.1810   28.5430  -17.2900 H   0  0  0  0  0  0  0  0  0  0  0  0
   38.2829   26.4001  -18.2339 H   0  0  0  0  0  0  0  0  0  0  0  0
   39.9118   25.5072  -16.3089 H   0  0  0  0  0  0  0  0  0  0  0  0
   41.9690   25.1289  -15.2498 H   0  0  0  0  0  0  0  0  0  0  0  0
   44.4415   25.0413  -15.5378 H   0  0  0  0  0  0  0  0  0  0  0  0
  1  2  1  0
  2  3  2  0
  3  4  1  0
  4  5  2  0
  5  6  1  0
  6  7  2  0
  7  8  1  0
  8  9  1  0
  9 10  2  0
 10 11  1  0
 11 12  2  0
 12 13  1  0
 13 14  1  0
 14 15  2  0
 15 16  1  0
 16 17  2  0
 17 18  1  0
 18 19  1  0
 19 20  1  0
 20 21  2  0
 21 22  1  0
 12 23  1  0
 23 24  2  0
  7  2  1  0
 24  9  1  0
 22 14  1  0
 22 18  2  0
  3 25  1  0
  4 26  1  0
  5 27  1  0
  6 28  1  0
 10 29  1  0
 11 30  1  0
 13 31  1  0
 16 32  1  0
 19 33  1  0
 20 34  1  0
 21 35  1  0
 23 36  1  0
 24 37  1  0
M  END
>  <meeko>  (7) 
{"is_sidechain": [false], "free_energy": 1.664, "intermolecular_energy": 1.204, "internal_energy": 0.455}

$$$$
