9IV_ttbk2_out
     RDKit          3D

 37 40  0  0  0  0  0  0  0  0999 V2000
   35.3140   34.0060  -18.1820 Cl  0  0  0  0  0  0  0  0  0  0  0  0
   34.1420   32.9860  -17.4330 C   0  0  0  0  0  0  0  0  0  0  0  0
   32.8240   33.0300  -17.8950 C   0  0  0  0  0  0  0  0  0  0  0  0
   31.8510   32.2160  -17.3110 C   0  0  0  0  0  0  0  0  0  0  0  0
   32.1940   31.3520  -16.2710 C   0  0  0  0  0  0  0  0  0  0  0  0
   33.5100   31.3040  -15.8070 C   0  0  0  0  0  0  0  0  0  0  0  0
   34.4830   32.1350  -16.3760 C   0  0  0  0  0  0  0  0  0  0  0  0
   35.7940   32.0730  -15.9580 O   0  0  0  0  0  0  0  0  0  0  0  0
   36.4040   30.8400  -15.9940 C   0  0  0  0  0  0  0  0  0  0  0  0
   36.5610   30.1020  -17.1690 C   0  0  0  0  0  0  0  0  0  0  0  0
   37.1640   28.8430  -17.1190 C   0  0  0  0  0  0  0  0  0  0  0  0
   37.6140   28.3030  -15.9060 C   0  0  0  0  0  0  0  0  0  0  0  0
   38.1870   27.0140  -15.9200 N   0  0  0  0  0  0  0  0  0  0  0  0
   39.5360   26.6650  -15.7490 C   0  0  0  0  0  0  0  0  0  0  0  0
   40.2030   26.2530  -16.8570 N   0  0  0  0  0  0  0  0  0  0  0  0
   41.5030   25.9170  -16.7410 C   0  0  0  0  0  0  0  0  0  0  0  0
   42.2730   25.9450  -15.6410 N   0  0  0  0  0  0  0  0  0  0  0  0
   41.5850   26.3870  -14.5780 C   0  0  0  0  0  0  0  0  0  0  0  0
   42.1110   26.5470  -13.3260 N   0  0  0  0  0  0  0  0  0  0  0  0
   41.1510   27.0390  -12.4790 C   0  0  0  0  0  0  0  0  0  0  0  0
   39.9900   27.1910  -13.2080 C   0  0  0  0  0  0  0  0  0  0  0  0
   40.2510   26.7650  -14.5420 C   0  0  0  0  0  0  0  0  0  0  0  0
   37.4090   29.0380  -14.7320 C   0  0  0  0  0  0  0  0  0  0  0  0
   36.8060   30.2990  -14.7750 C   0  0  0  0  0  0  0  0  0  0  0  0
   32.5527   33.7062  -18.7191 H   0  0  0  0  0  0  0  0  0  0  0  0
   30.8126   32.2563  -17.6717 H   0  0  0  0  0  0  0  0  0  0  0  0
   31.4271   30.7079  -15.8160 H   0  0  0  0  0  0  0  0  0  0  0  0
   33.7823   30.6138  -14.9949 H   0  0  0  0  0  0  0  0  0  0  0  0
   36.2116   30.5100  -18.1290 H   0  0  0  0  0  0  0  0  0  0  0  0
   37.2879   28.2655  -18.0470 H   0  0  0  0  0  0  0  0  0  0  0  0
   37.5630   26.2670  -16.0690 H   0  0  0  0  0  0  0  0  0  0  0  0
   41.9956   25.5769  -17.6638 H   0  0  0  0  0  0  0  0  0  0  0  0
   43.0390   26.3400  -13.0700 H   0  0  0  0  0  0  0  0  0  0  0  0
   41.2830   27.2704  -11.4118 H   0  0  0  0  0  0  0  0  0  0  0  0
   39.0318   27.5736  -12.8266 H   0  0  0  0  0  0  0  0  0  0  0  0
   37.7257   28.6190  -13.7655 H   0  0  0  0  0  0  0  0  0  0  0  0
   36.6489   30.8646  -13.8447 H   0  0  0  0  0  0  0  0  0  0  0  0
  1  2  1  0
  2  3  2  0
  3  4  1  0
  4  5  2  0
  5  6  1  0
  6  7  2  0
  7  8  1  0
  8  9  1  0
  9 10  2  0
 10 11  1  0
 11 12  2  0
 12 13  1  0
 13 14  1  0
 14 15  2  0
 15 16  1  0
 16 17  2  0
 17 18  1  0
 18 19  1  0
 19 20  1  0
 20 21  2  0
 21 22  1  0
 12 23  1  0
 23 24  2  0
  7  2  1  0
 24  9  1  0
 22 14  1  0
 22 18  2  0
  3 25  1  0
  4 26  1  0
  5 27  1  0
  6 28  1  0
 10 29  1  0
 11 30  1  0
 13 31  1  0
 16 32  1  0
 19 33  1  0
 20 34  1  0
 21 35  1  0
 23 36  1  0
 24 37  1  0
M  END
>  <meeko>  (1) 
{"is_sidechain": [false], "free_energy": -10.546, "intermolecular_energy": -13.012, "internal_energy": -0.809}

$$$$
9IV_ttbk2_out
     RDKit          3D

 37 40  0  0  0  0  0  0  0  0999 V2000
   41.7130   25.6940  -16.5490 Cl  0  0  0  0  0  0  0  0  0  0  0  0
   41.8720   26.1830  -14.9020 C   0  0  0  0  0  0  0  0  0  0  0  0
   43.1540   26.3810  -14.3840 C   0  0  0  0  0  0  0  0  0  0  0  0
   43.3180   26.7780  -13.0550 C   0  0  0  0  0  0  0  0  0  0  0  0
   42.2010   26.9840  -12.2450 C   0  0  0  0  0  0  0  0  0  0  0  0
   40.9180   26.7880  -12.7590 C   0  0  0  0  0  0  0  0  0  0  0  0
   40.7520   26.3690  -14.0850 C   0  0  0  0  0  0  0  0  0  0  0  0
   39.4930   26.2090  -14.6200 O   0  0  0  0  0  0  0  0  0  0  0  0
   38.8510   27.3440  -15.0600 C   0  0  0  0  0  0  0  0  0  0  0  0
   38.7090   28.4900  -14.2780 C   0  0  0  0  0  0  0  0  0  0  0  0
   38.0160   29.5930  -14.7850 C   0  0  0  0  0  0  0  0  0  0  0  0
   37.4580   29.5670  -16.0710 C   0  0  0  0  0  0  0  0  0  0  0  0
   36.7450   30.7020  -16.5110 N   0  0  0  0  0  0  0  0  0  0  0  0
   35.3610   30.9300  -16.4540 C   0  0  0  0  0  0  0  0  0  0  0  0
   34.7360   31.1810  -17.6330 N   0  0  0  0  0  0  0  0  0  0  0  0
   33.4060   31.3960  -17.6260 C   0  0  0  0  0  0  0  0  0  0  0  0
   32.5680   31.3850  -16.5760 N   0  0  0  0  0  0  0  0  0  0  0  0
   33.2190   31.1020  -15.4380 C   0  0  0  0  0  0  0  0  0  0  0  0
   32.6250   30.9960  -14.2110 N   0  0  0  0  0  0  0  0  0  0  0  0
   33.5660   30.6730  -13.2670 C   0  0  0  0  0  0  0  0  0  0  0  0
   34.7840   30.5750  -13.9080 C   0  0  0  0  0  0  0  0  0  0  0  0
   34.5770   30.8610  -15.2890 C   0  0  0  0  0  0  0  0  0  0  0  0
   37.5720   28.3920  -16.8240 C   0  0  0  0  0  0  0  0  0  0  0  0
   38.2640   27.2860  -16.3230 C   0  0  0  0  0  0  0  0  0  0  0  0
   44.0353   26.2241  -15.0234 H   0  0  0  0  0  0  0  0  0  0  0  0
   44.3283   26.9283  -12.6468 H   0  0  0  0  0  0  0  0  0  0  0  0
   42.3314   27.3013  -11.1999 H   0  0  0  0  0  0  0  0  0  0  0  0
   40.0378   26.9626  -12.1228 H   0  0  0  0  0  0  0  0  0  0  0  0
   39.1404   28.5257  -13.2668 H   0  0  0  0  0  0  0  0  0  0  0  0
   37.9067   30.4954  -14.1655 H   0  0  0  0  0  0  0  0  0  0  0  0
   37.2850   31.4220  -16.9090 H   0  0  0  0  0  0  0  0  0  0  0  0
   32.9483   31.6073  -18.6037 H   0  0  0  0  0  0  0  0  0  0  0  0
   31.6670   31.1310  -14.0320 H   0  0  0  0  0  0  0  0  0  0  0  0
   33.3829   30.5198  -12.1932 H   0  0  0  0  0  0  0  0  0  0  0  0
   35.7449   30.3211  -13.4366 H   0  0  0  0  0  0  0  0  0  0  0  0
   37.1115   28.3388  -17.8216 H   0  0  0  0  0  0  0  0  0  0  0  0
   38.3455   26.3693  -16.9256 H   0  0  0  0  0  0  0  0  0  0  0  0
  1  2  1  0
  2  3  2  0
  3  4  1  0
  4  5  2  0
  5  6  1  0
  6  7  2  0
  7  8  1  0
  8  9  1  0
  9 10  2  0
 10 11  1  0
 11 12  2  0
 12 13  1  0
 13 14  1  0
 14 15  2  0
 15 16  1  0
 16 17  2  0
 17 18  1  0
 18 19  1  0
 19 20  1  0
 20 21  2  0
 21 22  1  0
 12 23  1  0
 23 24  2  0
  7  2  1  0
 24  9  1  0
 22 14  1  0
 22 18  2  0
  3 25  1  0
  4 26  1  0
  5 27  1  0
  6 28  1  0
 10 29  1  0
 11 30  1  0
 13 31  1  0
 16 32  1  0
 19 33  1  0
 20 34  1  0
 21 35  1  0
 23 36  1  0
 24 37  1  0
M  END
>  <meeko>  (2) 
{"is_sidechain": [false], "free_energy": -10.21, "intermolecular_energy": -12.803, "internal_energy": -0.603}

$$$$
9IV_ttbk2_out
     RDKit          3D

 37 40  0  0  0  0  0  0  0  0999 V2000
   33.7440   30.6640  -13.9240 Cl  0  0  0  0  0  0  0  0  0  0  0  0
   33.3720   31.3180  -15.4760 C   0  0  0  0  0  0  0  0  0  0  0  0
   32.0350   31.3610  -15.8800 C   0  0  0  0  0  0  0  0  0  0  0  0
   31.6990   31.8860  -17.1300 C   0  0  0  0  0  0  0  0  0  0  0  0
   32.6970   32.3740  -17.9740 C   0  0  0  0  0  0  0  0  0  0  0  0
   34.0330   32.3330  -17.5740 C   0  0  0  0  0  0  0  0  0  0  0  0
   34.3750   31.7880  -16.3300 C   0  0  0  0  0  0  0  0  0  0  0  0
   35.6840   31.7760  -15.9030 O   0  0  0  0  0  0  0  0  0  0  0  0
   36.3560   30.5780  -15.9780 C   0  0  0  0  0  0  0  0  0  0  0  0
   36.3470   29.7700  -17.1150 C   0  0  0  0  0  0  0  0  0  0  0  0
   37.0290   28.5500  -17.1030 C   0  0  0  0  0  0  0  0  0  0  0  0
   37.7240   28.1210  -15.9630 C   0  0  0  0  0  0  0  0  0  0  0  0
   38.3660   26.8660  -16.0060 N   0  0  0  0  0  0  0  0  0  0  0  0
   39.7160   26.5770  -15.7540 C   0  0  0  0  0  0  0  0  0  0  0  0
   40.4600   26.1690  -16.8140 N   0  0  0  0  0  0  0  0  0  0  0  0
   41.7640   25.8900  -16.6190 C   0  0  0  0  0  0  0  0  0  0  0  0
   42.4700   25.9720  -15.4800 N   0  0  0  0  0  0  0  0  0  0  0  0
   41.7080   26.4080  -14.4670 C   0  0  0  0  0  0  0  0  0  0  0  0
   42.1570   26.6160  -13.1920 N   0  0  0  0  0  0  0  0  0  0  0  0
   41.1320   27.0860  -12.4110 C   0  0  0  0  0  0  0  0  0  0  0  0
   40.0080   27.1740  -13.2040 C   0  0  0  0  0  0  0  0  0  0  0  0
   40.3600   26.7310  -14.5130 C   0  0  0  0  0  0  0  0  0  0  0  0
   37.6850   28.9240  -14.8170 C   0  0  0  0  0  0  0  0  0  0  0  0
   37.0040   30.1450  -14.8220 C   0  0  0  0  0  0  0  0  0  0  0  0
   31.2468   30.9812  -15.2133 H   0  0  0  0  0  0  0  0  0  0  0  0
   30.6467   31.9147  -17.4492 H   0  0  0  0  0  0  0  0  0  0  0  0
   32.4302   32.7916  -18.9560 H   0  0  0  0  0  0  0  0  0  0  0  0
   34.8177   32.7287  -18.2356 H   0  0  0  0  0  0  0  0  0  0  0  0
   35.8056   30.0915  -18.0170 H   0  0  0  0  0  0  0  0  0  0  0  0
   37.0204   27.9163  -18.0021 H   0  0  0  0  0  0  0  0  0  0  0  0
   37.7970   26.0980  -16.2430 H   0  0  0  0  0  0  0  0  0  0  0  0
   42.3206   25.5522  -17.5056 H   0  0  0  0  0  0  0  0  0  0  0  0
   43.0770   26.4530  -12.8820 H   0  0  0  0  0  0  0  0  0  0  0  0
   41.1956   27.3459  -11.3440 H   0  0  0  0  0  0  0  0  0  0  0  0
   39.0155   27.5239  -12.8839 H   0  0  0  0  0  0  0  0  0  0  0  0
   38.1961   28.5904  -13.9019 H   0  0  0  0  0  0  0  0  0  0  0  0
   36.9795   30.7644  -13.9133 H   0  0  0  0  0  0  0  0  0  0  0  0
  1  2  1  0
  2  3  2  0
  3  4  1  0
  4  5  2  0
  5  6  1  0
  6  7  2  0
  7  8  1  0
  8  9  1  0
  9 10  2  0
 10 11  1  0
 11 12  2  0
 12 13  1  0
 13 14  1  0
 14 15  2  0
 15 16  1  0
 16 17  2  0
 17 18  1  0
 18 19  1  0
 19 20  1  0
 20 21  2  0
 21 22  1  0
 12 23  1  0
 23 24  2  0
  7  2  1  0
 24  9  1  0
 22 14  1  0
 22 18  2  0
  3 25  1  0
  4 26  1  0
  5 27  1  0
  6 28  1  0
 10 29  1  0
 11 30  1  0
 13 31  1  0
 16 32  1  0
 19 33  1  0
 20 34  1  0
 21 35  1  0
 23 36  1  0
 24 37  1  0
M  END
>  <meeko>  (3) 
{"is_sidechain": [false], "free_energy": -10.149, "intermolecular_energy": -12.87, "internal_energy": -0.461}

$$$$
9IV_ttbk2_out
     RDKit          3D

 37 40  0  0  0  0  0  0  0  0999 V2000
   39.9180   27.0300  -11.5400 Cl  0  0  0  0  0  0  0  0  0  0  0  0
   41.1580   26.7610  -12.7090 C   0  0  0  0  0  0  0  0  0  0  0  0
   42.4910   26.8970  -12.3130 C   0  0  0  0  0  0  0  0  0  0  0  0
   43.5180   26.6850  -13.2350 C   0  0  0  0  0  0  0  0  0  0  0  0
   43.2160   26.3320  -14.5500 C   0  0  0  0  0  0  0  0  0  0  0  0
   41.8860   26.1940  -14.9500 C   0  0  0  0  0  0  0  0  0  0  0  0
   40.8530   26.4270  -14.0330 C   0  0  0  0  0  0  0  0  0  0  0  0
   39.5360   26.2580  -14.3990 O   0  0  0  0  0  0  0  0  0  0  0  0
   38.8980   27.3400  -14.9610 C   0  0  0  0  0  0  0  0  0  0  0  0
   38.7590   28.5650  -14.3070 C   0  0  0  0  0  0  0  0  0  0  0  0
   38.0700   29.6090  -14.9310 C   0  0  0  0  0  0  0  0  0  0  0  0
   37.5120   29.4460  -16.2070 C   0  0  0  0  0  0  0  0  0  0  0  0
   36.8040   30.5280  -16.7690 N   0  0  0  0  0  0  0  0  0  0  0  0
   35.4370   30.8220  -16.6490 C   0  0  0  0  0  0  0  0  0  0  0  0
   34.7690   31.0940  -17.7990 N   0  0  0  0  0  0  0  0  0  0  0  0
   33.4520   31.3720  -17.7320 C   0  0  0  0  0  0  0  0  0  0  0  0
   32.6650   31.4080  -16.6440 N   0  0  0  0  0  0  0  0  0  0  0  0
   33.3560   31.1040  -15.5360 C   0  0  0  0  0  0  0  0  0  0  0  0
   32.8160   31.0360  -14.2810 N   0  0  0  0  0  0  0  0  0  0  0  0
   33.7850   30.6750  -13.3790 C   0  0  0  0  0  0  0  0  0  0  0  0
   34.9650   30.5150  -14.0750 C   0  0  0  0  0  0  0  0  0  0  0  0
   34.7060   30.8000  -15.4470 C   0  0  0  0  0  0  0  0  0  0  0  0
   37.6230   28.1960  -16.8290 C   0  0  0  0  0  0  0  0  0  0  0  0
   38.3110   27.1480  -16.2100 C   0  0  0  0  0  0  0  0  0  0  0  0
   42.7313   27.1710  -11.2751 H   0  0  0  0  0  0  0  0  0  0  0  0
   44.5671   26.7966  -12.9236 H   0  0  0  0  0  0  0  0  0  0  0  0
   44.0273   26.1621  -15.2731 H   0  0  0  0  0  0  0  0  0  0  0  0
   41.6493   25.9027  -15.9840 H   0  0  0  0  0  0  0  0  0  0  0  0
   39.1897   28.7084  -13.3050 H   0  0  0  0  0  0  0  0  0  0  0  0
   37.9639   30.5735  -14.4129 H   0  0  0  0  0  0  0  0  0  0  0  0
   37.3340   31.1550  -17.3130 H   0  0  0  0  0  0  0  0  0  0  0  0
   32.9593   31.5980  -18.6892 H   0  0  0  0  0  0  0  0  0  0  0  0
   31.8750   31.2180  -14.0580 H   0  0  0  0  0  0  0  0  0  0  0  0
   33.6459   30.5380  -12.2965 H   0  0  0  0  0  0  0  0  0  0  0  0
   35.9343   30.2197  -13.6469 H   0  0  0  0  0  0  0  0  0  0  0  0
   37.1636   28.0370  -17.8158 H   0  0  0  0  0  0  0  0  0  0  0  0
   38.3889   26.1710  -16.7095 H   0  0  0  0  0  0  0  0  0  0  0  0
  1  2  1  0
  2  3  2  0
  3  4  1  0
  4  5  2  0
  5  6  1  0
  6  7  2  0
  7  8  1  0
  8  9  1  0
  9 10  2  0
 10 11  1  0
 11 12  2  0
 12 13  1  0
 13 14  1  0
 14 15  2  0
 15 16  1  0
 16 17  2  0
 17 18  1  0
 18 19  1  0
 19 20  1  0
 20 21  2  0
 21 22  1  0
 12 23  1  0
 23 24  2  0
  7  2  1  0
 24  9  1  0
 22 14  1  0
 22 18  2  0
  3 25  1  0
  4 26  1  0
  5 27  1  0
  6 28  1  0
 10 29  1  0
 11 30  1  0
 13 31  1  0
 16 32  1  0
 19 33  1  0
 20 34  1  0
 21 35  1  0
 23 36  1  0
 24 37  1  0
M  END
>  <meeko>  (4) 
{"is_sidechain": [false], "free_energy": -9.916, "intermolecular_energy": -12.515, "internal_energy": -0.529}

$$$$
9IV_ttbk2_out
     RDKit          3D

 37 40  0  0  0  0  0  0  0  0999 V2000
   42.0460   25.5870  -16.3310 Cl  0  0  0  0  0  0  0  0  0  0  0  0
   42.4270   26.1260  -14.7370 C   0  0  0  0  0  0  0  0  0  0  0  0
   43.7590   26.4150  -14.4300 C   0  0  0  0  0  0  0  0  0  0  0  0
   44.1010   26.8550  -13.1490 C   0  0  0  0  0  0  0  0  0  0  0  0
   43.1130   27.0130  -12.1770 C   0  0  0  0  0  0  0  0  0  0  0  0
   41.7810   26.7250  -12.4800 C   0  0  0  0  0  0  0  0  0  0  0  0
   41.4380   26.2640  -13.7570 C   0  0  0  0  0  0  0  0  0  0  0  0
   40.1240   26.0130  -14.0860 O   0  0  0  0  0  0  0  0  0  0  0  0
   39.3670   27.0850  -14.4990 C   0  0  0  0  0  0  0  0  0  0  0  0
   39.1950   28.2370  -13.7310 C   0  0  0  0  0  0  0  0  0  0  0  0
   38.3850   29.2710  -14.2060 C   0  0  0  0  0  0  0  0  0  0  0  0
   37.7370   29.1720  -15.4460 C   0  0  0  0  0  0  0  0  0  0  0  0
   36.9100   30.2390  -15.8540 N   0  0  0  0  0  0  0  0  0  0  0  0
   35.6010   30.5260  -15.4370 C   0  0  0  0  0  0  0  0  0  0  0  0
   35.3540   30.4420  -14.1050 N   0  0  0  0  0  0  0  0  0  0  0  0
   34.1130   30.7200  -13.6590 C   0  0  0  0  0  0  0  0  0  0  0  0
   33.0400   31.0980  -14.3710 N   0  0  0  0  0  0  0  0  0  0  0  0
   33.3340   31.1990  -15.6750 C   0  0  0  0  0  0  0  0  0  0  0  0
   32.4480   31.5890  -16.6420 N   0  0  0  0  0  0  0  0  0  0  0  0
   33.0750   31.6120  -17.8620 C   0  0  0  0  0  0  0  0  0  0  0  0
   34.3840   31.2260  -17.6670 C   0  0  0  0  0  0  0  0  0  0  0  0
   34.5560   30.9460  -16.2800 C   0  0  0  0  0  0  0  0  0  0  0  0
   37.8860   27.9910  -16.1830 C   0  0  0  0  0  0  0  0  0  0  0  0
   38.6950   26.9520  -15.7130 C   0  0  0  0  0  0  0  0  0  0  0  0
   44.5385   26.2961  -15.1970 H   0  0  0  0  0  0  0  0  0  0  0  0
   45.1507   27.0771  -12.9065 H   0  0  0  0  0  0  0  0  0  0  0  0
   43.3837   27.3649  -11.1706 H   0  0  0  0  0  0  0  0  0  0  0  0
   41.0013   26.8601  -11.7160 H   0  0  0  0  0  0  0  0  0  0  0  0
   39.6951   28.3305  -12.7557 H   0  0  0  0  0  0  0  0  0  0  0  0
   38.2531   30.1779  -13.5976 H   0  0  0  0  0  0  0  0  0  0  0  0
   37.2980   30.8570  -16.5140 H   0  0  0  0  0  0  0  0  0  0  0  0
   33.9602   30.6250  -12.5738 H   0  0  0  0  0  0  0  0  0  0  0  0
   31.5040   31.8190  -16.4860 H   0  0  0  0  0  0  0  0  0  0  0  0
   32.6160   31.8886  -18.8226 H   0  0  0  0  0  0  0  0  0  0  0  0
   35.1586   31.1479  -18.4441 H   0  0  0  0  0  0  0  0  0  0  0  0
   37.3605   27.8792  -17.1429 H   0  0  0  0  0  0  0  0  0  0  0  0
   38.8013   26.0289  -16.3017 H   0  0  0  0  0  0  0  0  0  0  0  0
  1  2  1  0
  2  3  2  0
  3  4  1  0
  4  5  2  0
  5  6  1  0
  6  7  2  0
  7  8  1  0
  8  9  1  0
  9 10  2  0
 10 11  1  0
 11 12  2  0
 12 13  1  0
 13 14  1  0
 14 15  2  0
 15 16  1  0
 16 17  2  0
 17 18  1  0
 18 19  1  0
 19 20  1  0
 20 21  2  0
 21 22  1  0
 12 23  1  0
 23 24  2  0
  7  2  1  0
 24  9  1  0
 22 14  1  0
 22 18  2  0
  3 25  1  0
  4 26  1  0
  5 27  1  0
  6 28  1  0
 10 29  1  0
 11 30  1  0
 13 31  1  0
 16 32  1  0
 19 33  1  0
 20 34  1  0
 21 35  1  0
 23 36  1  0
 24 37  1  0
M  END
>  <meeko>  (5) 
{"is_sidechain": [false], "free_energy": -9.759, "intermolecular_energy": -12.431, "internal_energy": -0.42}

$$$$
9IV_ttbk2_out
     RDKit          3D

 37 40  0  0  0  0  0  0  0  0999 V2000
   40.5430   27.2970  -11.5490 Cl  0  0  0  0  0  0  0  0  0  0  0  0
   41.6250   26.8310  -12.8090 C   0  0  0  0  0  0  0  0  0  0  0  0
   42.9910   27.0680  -12.6400 C   0  0  0  0  0  0  0  0  0  0  0  0
   43.8940   26.7020  -13.6410 C   0  0  0  0  0  0  0  0  0  0  0  0
   43.4340   26.0920  -14.8080 C   0  0  0  0  0  0  0  0  0  0  0  0
   42.0690   25.8530  -14.9810 C   0  0  0  0  0  0  0  0  0  0  0  0
   41.1600   26.2390  -13.9880 C   0  0  0  0  0  0  0  0  0  0  0  0
   39.8150   25.9740  -14.1250 O   0  0  0  0  0  0  0  0  0  0  0  0
   39.0740   26.8650  -14.8670 C   0  0  0  0  0  0  0  0  0  0  0  0
   38.4380   27.9760  -14.3120 C   0  0  0  0  0  0  0  0  0  0  0  0
   37.6780   28.8170  -15.1280 C   0  0  0  0  0  0  0  0  0  0  0  0
   37.5400   28.5640  -16.5000 C   0  0  0  0  0  0  0  0  0  0  0  0
   36.7340   29.4350  -17.2620 N   0  0  0  0  0  0  0  0  0  0  0  0
   36.3040   30.7290  -16.9290 C   0  0  0  0  0  0  0  0  0  0  0  0
   37.2210   31.5430  -16.3450 N   0  0  0  0  0  0  0  0  0  0  0  0
   36.8550   32.7990  -16.0180 C   0  0  0  0  0  0  0  0  0  0  0  0
   35.6650   33.3920  -16.2040 N   0  0  0  0  0  0  0  0  0  0  0  0
   34.8000   32.5660  -16.8110 C   0  0  0  0  0  0  0  0  0  0  0  0
   33.5200   32.9010  -17.1550 N   0  0  0  0  0  0  0  0  0  0  0  0
   32.9160   31.8400  -17.7800 C   0  0  0  0  0  0  0  0  0  0  0  0
   33.8300   30.8090  -17.8320 C   0  0  0  0  0  0  0  0  0  0  0  0
   35.0290   31.2560  -17.2040 C   0  0  0  0  0  0  0  0  0  0  0  0
   38.1480   27.4200  -17.0310 C   0  0  0  0  0  0  0  0  0  0  0  0
   38.9110   26.5740  -16.2210 C   0  0  0  0  0  0  0  0  0  0  0  0
   43.3562   27.5434  -11.7177 H   0  0  0  0  0  0  0  0  0  0  0  0
   44.9688   26.8950  -13.5088 H   0  0  0  0  0  0  0  0  0  0  0  0
   44.1470   25.7990  -15.5927 H   0  0  0  0  0  0  0  0  0  0  0  0
   41.7080   25.3619  -15.8967 H   0  0  0  0  0  0  0  0  0  0  0  0
   38.5347   28.1885  -13.2371 H   0  0  0  0  0  0  0  0  0  0  0  0
   37.1793   29.6926  -14.6867 H   0  0  0  0  0  0  0  0  0  0  0  0
   36.4340   29.0930  -18.1350 H   0  0  0  0  0  0  0  0  0  0  0  0
   37.6293   33.4156  -15.5382 H   0  0  0  0  0  0  0  0  0  0  0  0
   33.0950   33.7710  -16.9790 H   0  0  0  0  0  0  0  0  0  0  0  0
   31.8876   31.8159  -18.1696 H   0  0  0  0  0  0  0  0  0  0  0  0
   33.6635   29.8177  -18.2787 H   0  0  0  0  0  0  0  0  0  0  0  0
   38.0238   27.1842  -18.0982 H   0  0  0  0  0  0  0  0  0  0  0  0
   39.3829   25.6786  -16.6517 H   0  0  0  0  0  0  0  0  0  0  0  0
  1  2  1  0
  2  3  2  0
  3  4  1  0
  4  5  2  0
  5  6  1  0
  6  7  2  0
  7  8  1  0
  8  9  1  0
  9 10  2  0
 10 11  1  0
 11 12  2  0
 12 13  1  0
 13 14  1  0
 14 15  2  0
 15 16  1  0
 16 17  2  0
 17 18  1  0
 18 19  1  0
 19 20  1  0
 20 21  2  0
 21 22  1  0
 12 23  1  0
 23 24  2  0
  7  2  1  0
 24  9  1  0
 22 14  1  0
 22 18  2  0
  3 25  1  0
  4 26  1  0
  5 27  1  0
  6 28  1  0
 10 29  1  0
 11 30  1  0
 13 31  1  0
 16 32  1  0
 19 33  1  0
 20 34  1  0
 21 35  1  0
 23 36  1  0
 24 37  1  0
M  END
>  <meeko>  (6) 
{"is_sidechain": [false], "free_energy": -9.673, "intermolecular_energy": -12.409, "internal_energy": -0.335}

$$$$
9IV_ttbk2_out
     RDKit          3D

 37 40  0  0  0  0  0  0  0  0999 V2000
   35.6330   34.0640  -18.4330 Cl  0  0  0  0  0  0  0  0  0  0  0  0
   34.6180   32.9250  -17.6280 C   0  0  0  0  0  0  0  0  0  0  0  0
   33.2530   33.2040  -17.5220 C   0  0  0  0  0  0  0  0  0  0  0  0
   32.4040   32.3020  -16.8770 C   0  0  0  0  0  0  0  0  0  0  0  0
   32.9150   31.1190  -16.3440 C   0  0  0  0  0  0  0  0  0  0  0  0
   34.2790   30.8370  -16.4480 C   0  0  0  0  0  0  0  0  0  0  0  0
   35.1360   31.7490  -17.0750 C   0  0  0  0  0  0  0  0  0  0  0  0
   36.4770   31.4690  -17.2220 O   0  0  0  0  0  0  0  0  0  0  0  0
   36.9650   30.3760  -16.5440 C   0  0  0  0  0  0  0  0  0  0  0  0
   37.2620   30.3960  -15.1810 C   0  0  0  0  0  0  0  0  0  0  0  0
   37.7850   29.2530  -14.5700 C   0  0  0  0  0  0  0  0  0  0  0  0
   38.0190   28.0820  -15.3050 C   0  0  0  0  0  0  0  0  0  0  0  0
   38.5770   26.9740  -14.6350 N   0  0  0  0  0  0  0  0  0  0  0  0
   39.7710   26.9190  -13.8990 C   0  0  0  0  0  0  0  0  0  0  0  0
   39.7050   27.3100  -12.6010 N   0  0  0  0  0  0  0  0  0  0  0  0
   40.8260   27.2640  -11.8540 C   0  0  0  0  0  0  0  0  0  0  0  0
   42.0510   26.8560  -12.2200 N   0  0  0  0  0  0  0  0  0  0  0  0
   42.0660   26.4490  -13.4980 C   0  0  0  0  0  0  0  0  0  0  0  0
   43.1670   25.9570  -14.1420 N   0  0  0  0  0  0  0  0  0  0  0  0
   42.8360   25.6100  -15.4270 C   0  0  0  0  0  0  0  0  0  0  0  0
   41.4970   25.8910  -15.6030 C   0  0  0  0  0  0  0  0  0  0  0  0
   41.0010   26.4400  -14.3850 C   0  0  0  0  0  0  0  0  0  0  0  0
   37.7570   28.0950  -16.6800 C   0  0  0  0  0  0  0  0  0  0  0  0
   37.2340   29.2350  -17.2980 C   0  0  0  0  0  0  0  0  0  0  0  0
   32.8471   34.1341  -17.9466 H   0  0  0  0  0  0  0  0  0  0  0  0
   31.3304   32.5251  -16.7893 H   0  0  0  0  0  0  0  0  0  0  0  0
   32.2434   30.4075  -15.8413 H   0  0  0  0  0  0  0  0  0  0  0  0
   34.6796   29.8985  -16.0373 H   0  0  0  0  0  0  0  0  0  0  0  0
   37.0854   31.3069  -14.5901 H   0  0  0  0  0  0  0  0  0  0  0  0
   38.0169   29.2723  -13.4949 H   0  0  0  0  0  0  0  0  0  0  0  0
   38.0650   26.1350  -14.6900 H   0  0  0  0  0  0  0  0  0  0  0  0
   40.7239   27.6038  -10.8128 H   0  0  0  0  0  0  0  0  0  0  0  0
   44.0630   25.8650  -13.7440 H   0  0  0  0  0  0  0  0  0  0  0  0
   43.5151   25.1847  -16.1806 H   0  0  0  0  0  0  0  0  0  0  0  0
   40.9151   25.7214  -16.5210 H   0  0  0  0  0  0  0  0  0  0  0  0
   37.9650   27.1978  -17.2814 H   0  0  0  0  0  0  0  0  0  0  0  0
   37.0347   29.2314  -18.3798 H   0  0  0  0  0  0  0  0  0  0  0  0
  1  2  1  0
  2  3  2  0
  3  4  1  0
  4  5  2  0
  5  6  1  0
  6  7  2  0
  7  8  1  0
  8  9  1  0
  9 10  2  0
 10 11  1  0
 11 12  2  0
 12 13  1  0
 13 14  1  0
 14 15  2  0
 15 16  1  0
 16 17  2  0
 17 18  1  0
 18 19  1  0
 19 20  1  0
 20 21  2  0
 21 22  1  0
 12 23  1  0
 23 24  2  0
  7  2  1  0
 24  9  1  0
 22 14  1  0
 22 18  2  0
  3 25  1  0
  4 26  1  0
  5 27  1  0
  6 28  1  0
 10 29  1  0
 11 30  1  0
 13 31  1  0
 16 32  1  0
 19 33  1  0
 20 34  1  0
 21 35  1  0
 23 36  1  0
 24 37  1  0
M  END
>  <meeko>  (7) 
{"is_sidechain": [false], "free_energy": -9.25, "intermolecular_energy": -11.807, "internal_energy": -0.416}

$$$$
9IV_ttbk2_out
     RDKit          3D

 37 40  0  0  0  0  0  0  0  0999 V2000
   41.6210   25.6290  -16.8950 Cl  0  0  0  0  0  0  0  0  0  0  0  0
   41.4750   26.1900  -15.2700 C   0  0  0  0  0  0  0  0  0  0  0  0
   42.6130   26.1920  -14.4590 C   0  0  0  0  0  0  0  0  0  0  0  0
   42.5300   26.6410  -13.1400 C   0  0  0  0  0  0  0  0  0  0  0  0
   41.3120   27.0950  -12.6310 C   0  0  0  0  0  0  0  0  0  0  0  0
   40.1730   27.0950  -13.4380 C   0  0  0  0  0  0  0  0  0  0  0  0
   40.2500   26.6250  -14.7550 C   0  0  0  0  0  0  0  0  0  0  0  0
   39.1450   26.6550  -15.5780 O   0  0  0  0  0  0  0  0  0  0  0  0
   38.3340   27.7630  -15.4960 C   0  0  0  0  0  0  0  0  0  0  0  0
   37.5430   28.2080  -16.5560 C   0  0  0  0  0  0  0  0  0  0  0  0
   36.7690   29.3620  -16.4060 C   0  0  0  0  0  0  0  0  0  0  0  0
   36.7750   30.0850  -15.2050 C   0  0  0  0  0  0  0  0  0  0  0  0
   35.9950   31.2580  -15.1280 N   0  0  0  0  0  0  0  0  0  0  0  0
   35.5140   32.0470  -16.1850 C   0  0  0  0  0  0  0  0  0  0  0  0
   36.4200   32.8340  -16.8190 N   0  0  0  0  0  0  0  0  0  0  0  0
   36.0040   33.6000  -17.8470 C   0  0  0  0  0  0  0  0  0  0  0  0
   34.7690   33.6940  -18.3660 N   0  0  0  0  0  0  0  0  0  0  0  0
   33.9130   32.8800  -17.7320 C   0  0  0  0  0  0  0  0  0  0  0  0
   32.5920   32.7400  -18.0560 N   0  0  0  0  0  0  0  0  0  0  0  0
   32.0080   31.8120  -17.2320 C   0  0  0  0  0  0  0  0  0  0  0  0
   32.9780   31.3550  -16.3650 C   0  0  0  0  0  0  0  0  0  0  0  0
   34.1920   32.0390  -16.6650 C   0  0  0  0  0  0  0  0  0  0  0  0
   37.6090   29.6490  -14.1680 C   0  0  0  0  0  0  0  0  0  0  0  0
   38.3850   28.4960  -14.3120 C   0  0  0  0  0  0  0  0  0  0  0  0
   43.5746   25.8396  -14.8603 H   0  0  0  0  0  0  0  0  0  0  0  0
   43.4253   26.6371  -12.5009 H   0  0  0  0  0  0  0  0  0  0  0  0
   41.2497   27.4532  -11.5928 H   0  0  0  0  0  0  0  0  0  0  0  0
   39.2161   27.4637  -13.0400 H   0  0  0  0  0  0  0  0  0  0  0  0
   37.5287   27.6529  -17.5056 H   0  0  0  0  0  0  0  0  0  0  0  0
   36.1454   29.7083  -17.2434 H   0  0  0  0  0  0  0  0  0  0  0  0
   35.7590   31.5610  -14.2220 H   0  0  0  0  0  0  0  0  0  0  0  0
   36.7733   34.2275  -18.3207 H   0  0  0  0  0  0  0  0  0  0  0  0
   32.1290   33.2320  -18.7720 H   0  0  0  0  0  0  0  0  0  0  0  0
   30.9563   31.4905  -17.2581 H   0  0  0  0  0  0  0  0  0  0  0  0
   32.8394   30.5965  -15.5804 H   0  0  0  0  0  0  0  0  0  0  0  0
   37.6537   30.2208  -13.2293 H   0  0  0  0  0  0  0  0  0  0  0  0
   39.0370   28.1665  -13.4896 H   0  0  0  0  0  0  0  0  0  0  0  0
  1  2  1  0
  2  3  2  0
  3  4  1  0
  4  5  2  0
  5  6  1  0
  6  7  2  0
  7  8  1  0
  8  9  1  0
  9 10  2  0
 10 11  1  0
 11 12  2  0
 12 13  1  0
 13 14  1  0
 14 15  2  0
 15 16  1  0
 16 17  2  0
 17 18  1  0
 18 19  1  0
 19 20  1  0
 20 21  2  0
 21 22  1  0
 12 23  1  0
 23 24  2  0
  7  2  1  0
 24  9  1  0
 22 14  1  0
 22 18  2  0
  3 25  1  0
  4 26  1  0
  5 27  1  0
  6 28  1  0
 10 29  1  0
 11 30  1  0
 13 31  1  0
 16 32  1  0
 19 33  1  0
 20 34  1  0
 21 35  1  0
 23 36  1  0
 24 37  1  0
M  END
>  <meeko>  (8) 
{"is_sidechain": [false], "free_energy": -9.074, "intermolecular_energy": -12.671, "internal_energy": 0.665}

$$$$
9IV_ttbk2_out
     RDKit          3D

 37 40  0  0  0  0  0  0  0  0999 V2000
   32.7800   31.1240  -17.3890 Cl  0  0  0  0  0  0  0  0  0  0  0  0
   34.3420   31.8460  -17.2760 C   0  0  0  0  0  0  0  0  0  0  0  0
   34.4360   33.2400  -17.2830 C   0  0  0  0  0  0  0  0  0  0  0  0
   35.6860   33.8570  -17.1920 C   0  0  0  0  0  0  0  0  0  0  0  0
   36.8410   33.0830  -17.0870 C   0  0  0  0  0  0  0  0  0  0  0  0
   36.7520   31.6900  -17.0790 C   0  0  0  0  0  0  0  0  0  0  0  0
   35.5020   31.0690  -17.1920 C   0  0  0  0  0  0  0  0  0  0  0  0
   35.3910   29.6960  -17.1460 O   0  0  0  0  0  0  0  0  0  0  0  0
   36.5000   28.9930  -16.7360 C   0  0  0  0  0  0  0  0  0  0  0  0
   37.1850   28.1010  -17.5620 C   0  0  0  0  0  0  0  0  0  0  0  0
   38.2860   27.4000  -17.0620 C   0  0  0  0  0  0  0  0  0  0  0  0
   38.7140   27.5750  -15.7390 C   0  0  0  0  0  0  0  0  0  0  0  0
   39.8130   26.8150  -15.2870 N   0  0  0  0  0  0  0  0  0  0  0  0
   40.4450   26.8680  -14.0350 C   0  0  0  0  0  0  0  0  0  0  0  0
   39.6420   27.0400  -12.9540 N   0  0  0  0  0  0  0  0  0  0  0  0
   40.2060   27.0860  -11.7310 C   0  0  0  0  0  0  0  0  0  0  0  0
   41.5040   26.9690  -11.4100 N   0  0  0  0  0  0  0  0  0  0  0  0
   42.2580   26.7690  -12.5010 C   0  0  0  0  0  0  0  0  0  0  0  0
   43.6130   26.5870  -12.4840 N   0  0  0  0  0  0  0  0  0  0  0  0
   44.0690   26.3840  -13.7610 C   0  0  0  0  0  0  0  0  0  0  0  0
   42.9810   26.4400  -14.6070 C   0  0  0  0  0  0  0  0  0  0  0  0
   41.8240   26.7000  -13.8160 C   0  0  0  0  0  0  0  0  0  0  0  0
   37.9880   28.4400  -14.9120 C   0  0  0  0  0  0  0  0  0  0  0  0
   36.8860   29.1450  -15.4060 C   0  0  0  0  0  0  0  0  0  0  0  0
   33.5252   33.8520  -17.3602 H   0  0  0  0  0  0  0  0  0  0  0  0
   35.7592   34.9545  -17.2032 H   0  0  0  0  0  0  0  0  0  0  0  0
   37.8239   33.5709  -17.0103 H   0  0  0  0  0  0  0  0  0  0  0  0
   37.6629   31.0807  -16.9840 H   0  0  0  0  0  0  0  0  0  0  0  0
   36.8600   27.9502  -18.6020 H   0  0  0  0  0  0  0  0  0  0  0  0
   38.8250   26.6999  -17.7172 H   0  0  0  0  0  0  0  0  0  0  0  0
   40.1830   26.1670  -15.9300 H   0  0  0  0  0  0  0  0  0  0  0  0
   39.5149   27.2388  -10.8889 H   0  0  0  0  0  0  0  0  0  0  0  0
   44.1770   26.6010  -11.6770 H   0  0  0  0  0  0  0  0  0  0  0  0
   45.1137   26.2082  -14.0573 H   0  0  0  0  0  0  0  0  0  0  0  0
   43.0024   26.3075  -15.6988 H   0  0  0  0  0  0  0  0  0  0  0  0
   38.2878   28.5667  -13.8613 H   0  0  0  0  0  0  0  0  0  0  0  0
   36.3236   29.8200  -14.7441 H   0  0  0  0  0  0  0  0  0  0  0  0
  1  2  1  0
  2  3  2  0
  3  4  1  0
  4  5  2  0
  5  6  1  0
  6  7  2  0
  7  8  1  0
  8  9  1  0
  9 10  2  0
 10 11  1  0
 11 12  2  0
 12 13  1  0
 13 14  1  0
 14 15  2  0
 15 16  1  0
 16 17  2  0
 17 18  1  0
 18 19  1  0
 19 20  1  0
 20 21  2  0
 21 22  1  0
 12 23  1  0
 23 24  2  0
  7  2  1  0
 24  9  1  0
 22 14  1  0
 22 18  2  0
  3 25  1  0
  4 26  1  0
  5 27  1  0
  6 28  1  0
 10 29  1  0
 11 30  1  0
 13 31  1  0
 16 32  1  0
 19 33  1  0
 20 34  1  0
 21 35  1  0
 23 36  1  0
 24 37  1  0
M  END
>  <meeko>  (9) 
{"is_sidechain": [false], "free_energy": -8.618, "intermolecular_energy": -11.632, "internal_energy": 0.19}

$$$$
