clorgyline_out
     RDKit          3D

 33 33  0  0  0  0  0  0  0  0999 V2000
   37.6170   26.9080  -18.2660 C   0  0  0  0  0  0  0  0  0  0  0  0
   38.3010   26.9180  -17.2790 C   0  0  0  0  0  0  0  0  0  0  0  0
   39.1420   26.9330  -16.0700 C   0  0  0  0  0  0  0  0  0  0  0  0
   38.4310   27.2870  -14.8280 N   0  0  2  0  0  0  0  0  0  0  0  0
   38.2340   28.7330  -14.7200 C   0  0  0  0  0  0  0  0  0  0  0  0
   39.0890   26.7160  -13.6400 C   0  0  0  0  0  0  0  0  0  0  0  0
   39.6800   27.7970  -12.7230 C   0  0  0  0  0  0  0  0  0  0  0  0
   41.1100   27.4600  -12.3010 C   0  0  0  0  0  0  0  0  0  0  0  0
   41.9380   27.4370  -13.4620 O   0  0  0  0  0  0  0  0  0  0  0  0
   43.1200   26.7480  -13.3970 C   0  0  0  0  0  0  0  0  0  0  0  0
   44.2230   27.1390  -12.6320 C   0  0  0  0  0  0  0  0  0  0  0  0
   45.3920   26.3690  -12.6340 C   0  0  0  0  0  0  0  0  0  0  0  0
   45.4640   25.2100  -13.4040 C   0  0  0  0  0  0  0  0  0  0  0  0
   46.9060   24.2730  -13.4010 Cl  0  0  0  0  0  0  0  0  0  0  0  0
   44.3790   24.8080  -14.1740 C   0  0  0  0  0  0  0  0  0  0  0  0
   43.2130   25.5770  -14.1710 C   0  0  0  0  0  0  0  0  0  0  0  0
   41.8860   25.0360  -15.1420 Cl  0  0  0  0  0  0  0  0  0  0  0  0
   36.9905   26.8988  -19.1701 H   0  0  0  0  0  0  0  0  0  0  0  0
   39.5759   25.9303  -15.9423 H   0  0  0  0  0  0  0  0  0  0  0  0
   39.8986   27.7157  -16.2281 H   0  0  0  0  0  0  0  0  0  0  0  0
   37.5020   26.8660  -14.8720 H   0  0  0  0  0  0  0  0  0  0  0  0
   38.1950   29.0195  -13.6587 H   0  0  0  0  0  0  0  0  0  0  0  0
   39.0694   29.2545  -15.2101 H   0  0  0  0  0  0  0  0  0  0  0  0
   37.2895   29.0120  -15.2101 H   0  0  0  0  0  0  0  0  0  0  0  0
   38.3483   26.1356  -13.0704 H   0  0  0  0  0  0  0  0  0  0  0  0
   39.9172   26.0809  -13.9875 H   0  0  0  0  0  0  0  0  0  0  0  0
   39.6836   28.7571  -13.2599 H   0  0  0  0  0  0  0  0  0  0  0  0
   39.0594   27.8548  -11.8166 H   0  0  0  0  0  0  0  0  0  0  0  0
   41.4781   28.2231  -11.5994 H   0  0  0  0  0  0  0  0  0  0  0  0
   41.1323   26.4778  -11.8063 H   0  0  0  0  0  0  0  0  0  0  0  0
   44.1720   28.0556  -12.0260 H   0  0  0  0  0  0  0  0  0  0  0  0
   46.2551   26.6794  -12.0268 H   0  0  0  0  0  0  0  0  0  0  0  0
   44.4380   23.8922  -14.7805 H   0  0  0  0  0  0  0  0  0  0  0  0
  1  2  3  0
  2  3  1  0
  3  4  1  0
  4  5  1  0
  4  6  1  0
  6  7  1  0
  7  8  1  0
  8  9  1  0
  9 10  1  0
 10 11  2  0
 11 12  1  0
 12 13  2  0
 13 14  1  0
 13 15  1  0
 15 16  2  0
 16 17  1  0
 16 10  1  0
  1 18  1  0
  3 19  1  0
  3 20  1  0
  4 21  1  6
  5 22  1  0
  5 23  1  0
  5 24  1  0
  6 25  1  0
  6 26  1  0
  7 27  1  0
  7 28  1  0
  8 29  1  0
  8 30  1  0
 11 31  1  0
 12 32  1  0
 15 33  1  0
M  CHG  1   4   1
M  END
>  <meeko>  (1) 
{"is_sidechain": [false], "free_energy": -5.747, "intermolecular_energy": -7.763, "internal_energy": -0.545}

$$$$
clorgyline_out
     RDKit          3D

 33 33  0  0  0  0  0  0  0  0999 V2000
   45.6490   24.3310  -13.5210 C   0  0  0  0  0  0  0  0  0  0  0  0
   44.6440   24.8740  -13.8920 C   0  0  0  0  0  0  0  0  0  0  0  0
   43.4100   25.5380  -14.3460 C   0  0  0  0  0  0  0  0  0  0  0  0
   43.1720   26.8680  -13.7570 N   0  0  2  0  0  0  0  0  0  0  0  0
   44.2780   27.7830  -14.0410 C   0  0  0  0  0  0  0  0  0  0  0  0
   42.8660   26.7820  -12.3180 C   0  0  0  0  0  0  0  0  0  0  0  0
   41.3690   26.9680  -12.0280 C   0  0  0  0  0  0  0  0  0  0  0  0
   40.8360   28.2700  -12.6240 C   0  0  0  0  0  0  0  0  0  0  0  0
   39.4600   28.0940  -12.9540 O   0  0  0  0  0  0  0  0  0  0  0  0
   39.1480   27.6830  -14.2230 C   0  0  0  0  0  0  0  0  0  0  0  0
   39.7800   26.6310  -14.8930 C   0  0  0  0  0  0  0  0  0  0  0  0
   39.3930   26.2880  -16.1930 C   0  0  0  0  0  0  0  0  0  0  0  0
   38.3760   26.9960  -16.8290 C   0  0  0  0  0  0  0  0  0  0  0  0
   37.9090   26.5670  -18.4280 Cl  0  0  0  0  0  0  0  0  0  0  0  0
   37.7380   28.0470  -16.1800 C   0  0  0  0  0  0  0  0  0  0  0  0
   38.1250   28.3890  -14.8820 C   0  0  0  0  0  0  0  0  0  0  0  0
   37.3000   29.7020  -14.1120 Cl  0  0  0  0  0  0  0  0  0  0  0  0
   46.5694   23.8337  -13.1812 H   0  0  0  0  0  0  0  0  0  0  0  0
   43.4649   25.6523  -15.4387 H   0  0  0  0  0  0  0  0  0  0  0  0
   42.5760   24.9000  -14.0181 H   0  0  0  0  0  0  0  0  0  0  0  0
   42.3430   27.2610  -14.2040 H   0  0  0  0  0  0  0  0  0  0  0  0
   44.7102   28.1406  -13.0948 H   0  0  0  0  0  0  0  0  0  0  0  0
   45.0501   27.2561  -14.6209 H   0  0  0  0  0  0  0  0  0  0  0  0
   43.9051   28.6402  -14.6209 H   0  0  0  0  0  0  0  0  0  0  0  0
   43.1778   25.7939  -11.9485 H   0  0  0  0  0  0  0  0  0  0  0  0
   43.4103   27.5913  -11.8093 H   0  0  0  0  0  0  0  0  0  0  0  0
   40.8140   26.1235  -12.4625 H   0  0  0  0  0  0  0  0  0  0  0  0
   41.2333   27.0091  -10.9372 H   0  0  0  0  0  0  0  0  0  0  0  0
   40.9392   29.0824  -11.8896 H   0  0  0  0  0  0  0  0  0  0  0  0
   41.4072   28.5292  -13.5276 H   0  0  0  0  0  0  0  0  0  0  0  0
   40.5852   26.0704  -14.3957 H   0  0  0  0  0  0  0  0  0  0  0  0
   39.8927   25.4578  -16.7137 H   0  0  0  0  0  0  0  0  0  0  0  0
   36.9351   28.6047  -16.6844 H   0  0  0  0  0  0  0  0  0  0  0  0
  1  2  3  0
  2  3  1  0
  3  4  1  0
  4  5  1  0
  4  6  1  0
  6  7  1  0
  7  8  1  0
  8  9  1  0
  9 10  1  0
 10 11  2  0
 11 12  1  0
 12 13  2  0
 13 14  1  0
 13 15  1  0
 15 16  2  0
 16 17  1  0
 16 10  1  0
  1 18  1  0
  3 19  1  0
  3 20  1  0
  4 21  1  6
  5 22  1  0
  5 23  1  0
  5 24  1  0
  6 25  1  0
  6 26  1  0
  7 27  1  0
  7 28  1  0
  8 29  1  0
  8 30  1  0
 11 31  1  0
 12 32  1  0
 15 33  1  0
M  CHG  1   4   1
M  END
>  <meeko>  (2) 
{"is_sidechain": [false], "free_energy": -5.623, "intermolecular_energy": -7.72, "internal_energy": -0.421}

$$$$
clorgyline_out
     RDKit          3D

 33 33  0  0  0  0  0  0  0  0999 V2000
   43.5510   28.1690  -13.1660 C   0  0  0  0  0  0  0  0  0  0  0  0
   44.4960   27.4380  -13.0460 C   0  0  0  0  0  0  0  0  0  0  0  0
   45.6550   26.5420  -12.8950 C   0  0  0  0  0  0  0  0  0  0  0  0
   45.3930   25.1310  -13.2350 N   0  0  2  0  0  0  0  0  0  0  0  0
   46.6040   24.3190  -13.1150 C   0  0  0  0  0  0  0  0  0  0  0  0
   44.7510   24.9970  -14.5540 C   0  0  0  0  0  0  0  0  0  0  0  0
   43.3320   24.4170  -14.4570 C   0  0  0  0  0  0  0  0  0  0  0  0
   42.2810   25.4080  -14.9570 C   0  0  0  0  0  0  0  0  0  0  0  0
   41.2530   25.5210  -13.9750 O   0  0  0  0  0  0  0  0  0  0  0  0
   40.2880   26.4740  -14.1590 C   0  0  0  0  0  0  0  0  0  0  0  0
   39.5820   26.6680  -15.3510 C   0  0  0  0  0  0  0  0  0  0  0  0
   38.6140   27.6740  -15.4430 C   0  0  0  0  0  0  0  0  0  0  0  0
   38.3510   28.4930  -14.3470 C   0  0  0  0  0  0  0  0  0  0  0  0
   37.1600   29.7280  -14.4710 Cl  0  0  0  0  0  0  0  0  0  0  0  0
   39.0440   28.3170  -13.1540 C   0  0  0  0  0  0  0  0  0  0  0  0
   40.0100   27.3120  -13.0640 C   0  0  0  0  0  0  0  0  0  0  0  0
   40.8450   27.1280  -11.5590 Cl  0  0  0  0  0  0  0  0  0  0  0  0
   42.6853   28.8387  -13.2759 H   0  0  0  0  0  0  0  0  0  0  0  0
   46.4588   26.9086  -13.5503 H   0  0  0  0  0  0  0  0  0  0  0  0
   45.9235   26.5593  -11.8284 H   0  0  0  0  0  0  0  0  0  0  0  0
   44.7260   24.7680  -12.5530 H   0  0  0  0  0  0  0  0  0  0  0  0
   46.8369   24.1629  -12.0513 H   0  0  0  0  0  0  0  0  0  0  0  0
   46.4427   23.3458  -13.6017 H   0  0  0  0  0  0  0  0  0  0  0  0
   47.4430   24.8378  -13.6017 H   0  0  0  0  0  0  0  0  0  0  0  0
   44.6955   25.9906  -15.0227 H   0  0  0  0  0  0  0  0  0  0  0  0
   45.3575   24.3024  -15.1538 H   0  0  0  0  0  0  0  0  0  0  0  0
   43.2782   23.5026  -15.0661 H   0  0  0  0  0  0  0  0  0  0  0  0
   43.1221   24.1989  -13.3995 H   0  0  0  0  0  0  0  0  0  0  0  0
   42.7472   26.3910  -15.1192 H   0  0  0  0  0  0  0  0  0  0  0  0
   41.8539   25.0530  -15.9065 H   0  0  0  0  0  0  0  0  0  0  0  0
   39.7889   26.0265  -16.2203 H   0  0  0  0  0  0  0  0  0  0  0  0
   38.0597   27.8185  -16.3821 H   0  0  0  0  0  0  0  0  0  0  0  0
   38.8333   28.9633  -12.2892 H   0  0  0  0  0  0  0  0  0  0  0  0
  1  2  3  0
  2  3  1  0
  3  4  1  0
  4  5  1  0
  4  6  1  0
  6  7  1  0
  7  8  1  0
  8  9  1  0
  9 10  1  0
 10 11  2  0
 11 12  1  0
 12 13  2  0
 13 14  1  0
 13 15  1  0
 15 16  2  0
 16 17  1  0
 16 10  1  0
  1 18  1  0
  3 19  1  0
  3 20  1  0
  4 21  1  1
  5 22  1  0
  5 23  1  0
  5 24  1  0
  6 25  1  0
  6 26  1  0
  7 27  1  0
  7 28  1  0
  8 29  1  0
  8 30  1  0
 11 31  1  0
 12 32  1  0
 15 33  1  0
M  CHG  1   4   1
M  END
>  <meeko>  (3) 
{"is_sidechain": [false], "free_energy": -4.753, "intermolecular_energy": -6.46, "internal_energy": -0.505}

$$$$
clorgyline_out
     RDKit          3D

 33 33  0  0  0  0  0  0  0  0999 V2000
   37.5750   26.8640  -18.3800 C   0  0  0  0  0  0  0  0  0  0  0  0
   38.2620   26.8680  -17.3950 C   0  0  0  0  0  0  0  0  0  0  0  0
   39.1070   26.8770  -16.1890 C   0  0  0  0  0  0  0  0  0  0  0  0
   38.3880   27.1600  -14.9330 N   0  0  2  0  0  0  0  0  0  0  0  0
   38.1520   28.5950  -14.7650 C   0  0  0  0  0  0  0  0  0  0  0  0
   39.0610   26.5570  -13.7700 C   0  0  0  0  0  0  0  0  0  0  0  0
   39.5090   27.6100  -12.7450 C   0  0  0  0  0  0  0  0  0  0  0  0
   41.0300   27.7460  -12.7040 C   0  0  0  0  0  0  0  0  0  0  0  0
   41.5650   27.3040  -13.9500 O   0  0  0  0  0  0  0  0  0  0  0  0
   42.6730   26.4990  -13.9270 C   0  0  0  0  0  0  0  0  0  0  0  0
   42.6880   25.1610  -14.3340 C   0  0  0  0  0  0  0  0  0  0  0  0
   43.8720   24.4170  -14.2690 C   0  0  0  0  0  0  0  0  0  0  0  0
   45.0420   25.0060  -13.7950 C   0  0  0  0  0  0  0  0  0  0  0  0
   46.4910   24.0820  -13.7190 Cl  0  0  0  0  0  0  0  0  0  0  0  0
   45.0450   26.3340  -13.3840 C   0  0  0  0  0  0  0  0  0  0  0  0
   43.8640   27.0750  -13.4490 C   0  0  0  0  0  0  0  0  0  0  0  0
   43.9160   28.7260  -12.9290 Cl  0  0  0  0  0  0  0  0  0  0  0  0
   36.9457   26.8603  -19.2822 H   0  0  0  0  0  0  0  0  0  0  0  0
   39.5820   25.8892  -16.0964 H   0  0  0  0  0  0  0  0  0  0  0  0
   39.8301   27.6950  -16.3233 H   0  0  0  0  0  0  0  0  0  0  0  0
   37.4700   26.7170  -14.9960 H   0  0  0  0  0  0  0  0  0  0  0  0
   38.1122   28.8370  -13.6927 H   0  0  0  0  0  0  0  0  0  0  0  0
   38.9695   29.1589  -15.2380 H   0  0  0  0  0  0  0  0  0  0  0  0
   37.1970   28.8674  -15.2380 H   0  0  0  0  0  0  0  0  0  0  0  0
   38.3647   25.8604  -13.2802 H   0  0  0  0  0  0  0  0  0  0  0  0
   39.9598   26.0373  -14.1334 H   0  0  0  0  0  0  0  0  0  0  0  0
   39.0713   28.5817  -13.0174 H   0  0  0  0  0  0  0  0  0  0  0  0
   39.1661   27.2886  -11.7504 H   0  0  0  0  0  0  0  0  0  0  0  0
   41.3026   28.7985  -12.5372 H   0  0  0  0  0  0  0  0  0  0  0  0
   41.4377   27.1356  -11.8847 H   0  0  0  0  0  0  0  0  0  0  0  0
   41.7657   24.6914  -14.7067 H   0  0  0  0  0  0  0  0  0  0  0  0
   43.8785   23.3657  -14.5927 H   0  0  0  0  0  0  0  0  0  0  0  0
   45.9704   26.7969  -13.0107 H   0  0  0  0  0  0  0  0  0  0  0  0
  1  2  3  0
  2  3  1  0
  3  4  1  0
  4  5  1  0
  4  6  1  0
  6  7  1  0
  7  8  1  0
  8  9  1  0
  9 10  1  0
 10 11  2  0
 11 12  1  0
 12 13  2  0
 13 14  1  0
 13 15  1  0
 15 16  2  0
 16 17  1  0
 16 10  1  0
  1 18  1  0
  3 19  1  0
  3 20  1  0
  4 21  1  6
  5 22  1  0
  5 23  1  0
  5 24  1  0
  6 25  1  0
  6 26  1  0
  7 27  1  0
  7 28  1  0
  8 29  1  0
  8 30  1  0
 11 31  1  0
 12 32  1  0
 15 33  1  0
M  CHG  1   4   1
M  END
>  <meeko>  (4) 
{"is_sidechain": [false], "free_energy": -4.617, "intermolecular_energy": -6.517, "internal_energy": -0.264}

$$$$
clorgyline_out
     RDKit          3D

 33 33  0  0  0  0  0  0  0  0999 V2000
   45.9330   24.2870  -13.3050 C   0  0  0  0  0  0  0  0  0  0  0  0
   44.9760   24.7670  -13.8490 C   0  0  0  0  0  0  0  0  0  0  0  0
   43.8000   25.3530  -14.5150 C   0  0  0  0  0  0  0  0  0  0  0  0
   43.5900   26.7870  -14.2440 N   0  0  2  0  0  0  0  0  0  0  0  0
   44.7560   27.5810  -14.6330 C   0  0  0  0  0  0  0  0  0  0  0  0
   43.1830   27.0260  -12.8480 C   0  0  0  0  0  0  0  0  0  0  0  0
   41.8870   27.8440  -12.7490 C   0  0  0  0  0  0  0  0  0  0  0  0
   40.7910   27.0780  -12.0100 C   0  0  0  0  0  0  0  0  0  0  0  0
   39.5290   27.6610  -12.3280 O   0  0  0  0  0  0  0  0  0  0  0  0
   39.1190   27.6380  -13.6340 C   0  0  0  0  0  0  0  0  0  0  0  0
   38.5070   28.7090  -14.2920 C   0  0  0  0  0  0  0  0  0  0  0  0
   38.1180   28.5870  -15.6310 C   0  0  0  0  0  0  0  0  0  0  0  0
   38.3360   27.3930  -16.3150 C   0  0  0  0  0  0  0  0  0  0  0  0
   37.8530   27.2530  -17.9600 Cl  0  0  0  0  0  0  0  0  0  0  0  0
   38.9410   26.3160  -15.6780 C   0  0  0  0  0  0  0  0  0  0  0  0
   39.3280   26.4390  -14.3410 C   0  0  0  0  0  0  0  0  0  0  0  0
   40.0800   25.0730  -13.5890 Cl  0  0  0  0  0  0  0  0  0  0  0  0
   46.8096   23.8473  -12.8067 H   0  0  0  0  0  0  0  0  0  0  0  0
   43.9210   25.2235  -15.6006 H   0  0  0  0  0  0  0  0  0  0  0  0
   42.9210   24.8285  -14.1121 H   0  0  0  0  0  0  0  0  0  0  0  0
   42.8130   27.1010  -14.8270 H   0  0  0  0  0  0  0  0  0  0  0  0
   45.2760   27.9351  -13.7307 H   0  0  0  0  0  0  0  0  0  0  0  0
   45.4398   26.9600  -15.2304 H   0  0  0  0  0  0  0  0  0  0  0  0
   44.4287   28.4447  -15.2304 H   0  0  0  0  0  0  0  0  0  0  0  0
   43.0270   26.0555  -12.3542 H   0  0  0  0  0  0  0  0  0  0  0  0
   43.9822   27.6025  -12.3592 H   0  0  0  0  0  0  0  0  0  0  0  0
   42.0957   28.7786  -12.2078 H   0  0  0  0  0  0  0  0  0  0  0  0
   41.5328   28.0505  -13.7697 H   0  0  0  0  0  0  0  0  0  0  0  0
   40.8009   26.0237  -12.3237 H   0  0  0  0  0  0  0  0  0  0  0  0
   40.9645   27.1307  -10.9250 H   0  0  0  0  0  0  0  0  0  0  0  0
   38.3303   29.6524  -13.7546 H   0  0  0  0  0  0  0  0  0  0  0  0
   37.6397   29.4346  -16.1437 H   0  0  0  0  0  0  0  0  0  0  0  0
   39.1136   25.3753  -16.2214 H   0  0  0  0  0  0  0  0  0  0  0  0
  1  2  3  0
  2  3  1  0
  3  4  1  0
  4  5  1  0
  4  6  1  0
  6  7  1  0
  7  8  1  0
  8  9  1  0
  9 10  1  0
 10 11  2  0
 11 12  1  0
 12 13  2  0
 13 14  1  0
 13 15  1  0
 15 16  2  0
 16 17  1  0
 16 10  1  0
  1 18  1  0
  3 19  1  0
  3 20  1  0
  4 21  1  6
  5 22  1  0
  5 23  1  0
  5 24  1  0
  6 25  1  0
  6 26  1  0
  7 27  1  0
  7 28  1  0
  8 29  1  0
  8 30  1  0
 11 31  1  0
 12 32  1  0
 15 33  1  0
M  CHG  1   4   1
M  END
>  <meeko>  (5) 
{"is_sidechain": [false], "free_energy": -4.474, "intermolecular_energy": -7.079, "internal_energy": 0.49}

$$$$
clorgyline_out
     RDKit          3D

 33 33  0  0  0  0  0  0  0  0999 V2000
   46.3390   24.1550  -13.0190 C   0  0  0  0  0  0  0  0  0  0  0  0
   46.1310   25.3380  -13.0380 C   0  0  0  0  0  0  0  0  0  0  0  0
   45.8770   26.7880  -13.0660 C   0  0  0  0  0  0  0  0  0  0  0  0
   44.4590   27.1690  -12.9360 N   0  0  2  0  0  0  0  0  0  0  0  0
   43.7890   26.3870  -11.8960 C   0  0  0  0  0  0  0  0  0  0  0  0
   43.7560   27.1080  -14.2300 C   0  0  0  0  0  0  0  0  0  0  0  0
   43.5520   25.6660  -14.7160 C   0  0  0  0  0  0  0  0  0  0  0  0
   42.1250   25.4320  -15.2090 C   0  0  0  0  0  0  0  0  0  0  0  0
   41.2230   25.6500  -14.1270 O   0  0  0  0  0  0  0  0  0  0  0  0
   40.2200   26.5670  -14.2970 C   0  0  0  0  0  0  0  0  0  0  0  0
   39.4960   26.7380  -15.4810 C   0  0  0  0  0  0  0  0  0  0  0  0
   38.4890   27.7070  -15.5590 C   0  0  0  0  0  0  0  0  0  0  0  0
   38.2070   28.5110  -14.4570 C   0  0  0  0  0  0  0  0  0  0  0  0
   36.9680   29.7000  -14.5640 Cl  0  0  0  0  0  0  0  0  0  0  0  0
   38.9180   28.3570  -13.2720 C   0  0  0  0  0  0  0  0  0  0  0  0
   39.9220   27.3900  -13.1960 C   0  0  0  0  0  0  0  0  0  0  0  0
   40.7800   27.2330  -11.7000 Cl  0  0  0  0  0  0  0  0  0  0  0  0
   46.5295   23.0718  -13.0016 H   0  0  0  0  0  0  0  0  0  0  0  0
   46.4328   27.2490  -12.2362 H   0  0  0  0  0  0  0  0  0  0  0  0
   46.2034   27.1409  -14.0554 H   0  0  0  0  0  0  0  0  0  0  0  0
   44.4260   28.1450  -12.6380 H   0  0  0  0  0  0  0  0  0  0  0  0
   44.1006   26.7507  -10.9058 H   0  0  0  0  0  0  0  0  0  0  0  0
   42.6994   26.4956  -12.0003 H   0  0  0  0  0  0  0  0  0  0  0  0
   44.0635   25.3269  -12.0003 H   0  0  0  0  0  0  0  0  0  0  0  0
   42.7717   27.5868  -14.1205 H   0  0  0  0  0  0  0  0  0  0  0  0
   44.3762   27.6289  -14.9743 H   0  0  0  0  0  0  0  0  0  0  0  0
   44.2515   25.4656  -15.5410 H   0  0  0  0  0  0  0  0  0  0  0  0
   43.7372   24.9893  -13.8688 H   0  0  0  0  0  0  0  0  0  0  0  0
   41.8971   26.1315  -16.0268 H   0  0  0  0  0  0  0  0  0  0  0  0
   42.0221   24.4013  -15.5792 H   0  0  0  0  0  0  0  0  0  0  0  0
   39.7188   26.1082  -16.3549 H   0  0  0  0  0  0  0  0  0  0  0  0
   37.9196   27.8338  -16.4916 H   0  0  0  0  0  0  0  0  0  0  0  0
   38.6914   28.9913  -12.4024 H   0  0  0  0  0  0  0  0  0  0  0  0
  1  2  3  0
  2  3  1  0
  3  4  1  0
  4  5  1  0
  4  6  1  0
  6  7  1  0
  7  8  1  0
  8  9  1  0
  9 10  1  0
 10 11  2  0
 11 12  1  0
 12 13  2  0
 13 14  1  0
 13 15  1  0
 15 16  2  0
 16 17  1  0
 16 10  1  0
  1 18  1  0
  3 19  1  0
  3 20  1  0
  4 21  1  1
  5 22  1  0
  5 23  1  0
  5 24  1  0
  6 25  1  0
  6 26  1  0
  7 27  1  0
  7 28  1  0
  8 29  1  0
  8 30  1  0
 11 31  1  0
 12 32  1  0
 15 33  1  0
M  CHG  1   4   1
M  END
>  <meeko>  (6) 
{"is_sidechain": [false], "free_energy": -4.416, "intermolecular_energy": -6.599, "internal_energy": 0.09}

$$$$
clorgyline_out
     RDKit          3D

 33 33  0  0  0  0  0  0  0  0999 V2000
   37.2300   29.3160  -14.5930 C   0  0  0  0  0  0  0  0  0  0  0  0
   38.2670   29.0080  -14.0720 C   0  0  0  0  0  0  0  0  0  0  0  0
   39.5390   28.6350  -13.4300 C   0  0  0  0  0  0  0  0  0  0  0  0
   39.5200   27.3360  -12.7320 N   0  0  2  0  0  0  0  0  0  0  0  0
   40.6620   27.1990  -11.8270 C   0  0  0  0  0  0  0  0  0  0  0  0
   39.4070   26.2100  -13.6750 C   0  0  0  0  0  0  0  0  0  0  0  0
   39.7980   26.6070  -15.1060 C   0  0  0  0  0  0  0  0  0  0  0  0
   41.2210   26.1670  -15.4460 C   0  0  0  0  0  0  0  0  0  0  0  0
   42.1300   26.8430  -14.5800 O   0  0  0  0  0  0  0  0  0  0  0  0
   43.2730   26.1880  -14.2070 C   0  0  0  0  0  0  0  0  0  0  0  0
   43.5580   24.8540  -14.5150 C   0  0  0  0  0  0  0  0  0  0  0  0
   44.7550   24.2700  -14.0840 C   0  0  0  0  0  0  0  0  0  0  0  0
   45.6680   25.0150  -13.3410 C   0  0  0  0  0  0  0  0  0  0  0  0
   47.1360   24.2880  -12.8160 Cl  0  0  0  0  0  0  0  0  0  0  0  0
   45.4010   26.3420  -13.0230 C   0  0  0  0  0  0  0  0  0  0  0  0
   44.2060   26.9230  -13.4530 C   0  0  0  0  0  0  0  0  0  0  0  0
   43.9170   28.5780  -13.0360 Cl  0  0  0  0  0  0  0  0  0  0  0  0
   36.2800   29.5982  -15.0703 H   0  0  0  0  0  0  0  0  0  0  0  0
   40.3162   28.5948  -14.2074 H   0  0  0  0  0  0  0  0  0  0  0  0
   39.7342   29.3975  -12.6615 H   0  0  0  0  0  0  0  0  0  0  0  0
   38.6800   27.3090  -12.1520 H   0  0  0  0  0  0  0  0  0  0  0  0
   40.3114   27.2411  -10.7852 H   0  0  0  0  0  0  0  0  0  0  0  0
   41.1595   26.2347  -12.0078 H   0  0  0  0  0  0  0  0  0  0  0  0
   41.3735   28.0182  -12.0078 H   0  0  0  0  0  0  0  0  0  0  0  0
   40.0702   25.3993  -13.3391 H   0  0  0  0  0  0  0  0  0  0  0  0
   38.3553   25.8881  -13.6905 H   0  0  0  0  0  0  0  0  0  0  0  0
   39.1000   26.1319  -15.8110 H   0  0  0  0  0  0  0  0  0  0  0  0
   39.7507   27.7033  -15.1826 H   0  0  0  0  0  0  0  0  0  0  0  0
   41.3155   25.0801  -15.3055 H   0  0  0  0  0  0  0  0  0  0  0  0
   41.4486   26.4142  -16.4934 H   0  0  0  0  0  0  0  0  0  0  0  0
   42.8384   24.2610  -15.0985 H   0  0  0  0  0  0  0  0  0  0  0  0
   44.9750   23.2212  -14.3324 H   0  0  0  0  0  0  0  0  0  0  0  0
   46.1244   26.9289  -12.4380 H   0  0  0  0  0  0  0  0  0  0  0  0
  1  2  3  0
  2  3  1  0
  3  4  1  0
  4  5  1  0
  4  6  1  0
  6  7  1  0
  7  8  1  0
  8  9  1  0
  9 10  1  0
 10 11  2  0
 11 12  1  0
 12 13  2  0
 13 14  1  0
 13 15  1  0
 15 16  2  0
 16 17  1  0
 16 10  1  0
  1 18  1  0
  3 19  1  0
  3 20  1  0
  4 21  1  1
  5 22  1  0
  5 23  1  0
  5 24  1  0
  6 25  1  0
  6 26  1  0
  7 27  1  0
  7 28  1  0
  8 29  1  0
  8 30  1  0
 11 31  1  0
 12 32  1  0
 15 33  1  0
M  CHG  1   4   1
M  END
>  <meeko>  (7) 
{"is_sidechain": [false], "free_energy": -4.3, "intermolecular_energy": -6.248, "internal_energy": -0.106}

$$$$
clorgyline_out
     RDKit          3D

 33 33  0  0  0  0  0  0  0  0999 V2000
   39.1380   29.2660  -13.2630 C   0  0  0  0  0  0  0  0  0  0  0  0
   38.4730   28.8770  -14.1850 C   0  0  0  0  0  0  0  0  0  0  0  0
   37.6570   28.4030  -15.3160 C   0  0  0  0  0  0  0  0  0  0  0  0
   38.4280   27.8330  -16.4360 N   0  0  2  0  0  0  0  0  0  0  0  0
   37.6200   27.7530  -17.6540 C   0  0  0  0  0  0  0  0  0  0  0  0
   39.0390   26.5410  -16.0770 C   0  0  0  0  0  0  0  0  0  0  0  0
   38.7160   26.1230  -14.6350 C   0  0  0  0  0  0  0  0  0  0  0  0
   39.9830   25.8100  -13.8410 C   0  0  0  0  0  0  0  0  0  0  0  0
   41.0720   26.5360  -14.4070 O   0  0  0  0  0  0  0  0  0  0  0  0
   42.3450   26.1250  -14.1120 C   0  0  0  0  0  0  0  0  0  0  0  0
   43.1540   25.3740  -14.9710 C   0  0  0  0  0  0  0  0  0  0  0  0
   44.4430   24.9970  -14.5770 C   0  0  0  0  0  0  0  0  0  0  0  0
   44.9250   25.3640  -13.3230 C   0  0  0  0  0  0  0  0  0  0  0  0
   46.5100   24.8940  -12.8480 Cl  0  0  0  0  0  0  0  0  0  0  0  0
   44.1350   26.1080  -12.4540 C   0  0  0  0  0  0  0  0  0  0  0  0
   42.8480   26.4840  -12.8490 C   0  0  0  0  0  0  0  0  0  0  0  0
   41.9010   27.4110  -11.7350 Cl  0  0  0  0  0  0  0  0  0  0  0  0
   39.7468   29.6221  -12.4189 H   0  0  0  0  0  0  0  0  0  0  0  0
   36.9713   27.6281  -14.9427 H   0  0  0  0  0  0  0  0  0  0  0  0
   37.1364   29.2861  -15.7150 H   0  0  0  0  0  0  0  0  0  0  0  0
   39.2000   28.4700  -16.6370 H   0  0  0  0  0  0  0  0  0  0  0  0
   36.5589   27.6479  -17.3838 H   0  0  0  0  0  0  0  0  0  0  0  0
   37.7585   28.6692  -18.2467 H   0  0  0  0  0  0  0  0  0  0  0  0
   37.9355   26.8817  -18.2467 H   0  0  0  0  0  0  0  0  0  0  0  0
   38.6604   25.7683  -16.7623 H   0  0  0  0  0  0  0  0  0  0  0  0
   40.1304   26.6512  -16.1585 H   0  0  0  0  0  0  0  0  0  0  0  0
   38.1773   26.9433  -14.1381 H   0  0  0  0  0  0  0  0  0  0  0  0
   38.1000   25.2124  -14.6714 H   0  0  0  0  0  0  0  0  0  0  0  0
   39.8449   26.1094  -12.7916 H   0  0  0  0  0  0  0  0  0  0  0  0
   40.1922   24.7309  -13.8819 H   0  0  0  0  0  0  0  0  0  0  0  0
   42.7755   25.0784  -15.9606 H   0  0  0  0  0  0  0  0  0  0  0  0
   45.0762   24.4101  -15.2587 H   0  0  0  0  0  0  0  0  0  0  0  0
   44.5191   26.3980  -11.4649 H   0  0  0  0  0  0  0  0  0  0  0  0
  1  2  3  0
  2  3  1  0
  3  4  1  0
  4  5  1  0
  4  6  1  0
  6  7  1  0
  7  8  1  0
  8  9  1  0
  9 10  1  0
 10 11  2  0
 11 12  1  0
 12 13  2  0
 13 14  1  0
 13 15  1  0
 15 16  2  0
 16 17  1  0
 16 10  1  0
  1 18  1  0
  3 19  1  0
  3 20  1  0
  4 21  1  6
  5 22  1  0
  5 23  1  0
  5 24  1  0
  6 25  1  0
  6 26  1  0
  7 27  1  0
  7 28  1  0
  8 29  1  0
  8 30  1  0
 11 31  1  0
 12 32  1  0
 15 33  1  0
M  CHG  1   4   1
M  END
>  <meeko>  (8) 
{"is_sidechain": [false], "free_energy": -4.266, "intermolecular_energy": -6.802, "internal_energy": 0.495}

$$$$
clorgyline_out
     RDKit          3D

 33 33  0  0  0  0  0  0  0  0999 V2000
   42.1280   26.9240  -11.6230 C   0  0  0  0  0  0  0  0  0  0  0  0
   43.2240   26.7440  -12.0810 C   0  0  0  0  0  0  0  0  0  0  0  0
   44.5700   26.5230  -12.6380 C   0  0  0  0  0  0  0  0  0  0  0  0
   44.7960   25.1740  -13.1880 N   0  0  2  0  0  0  0  0  0  0  0  0
   46.1880   24.7550  -13.0180 C   0  0  0  0  0  0  0  0  0  0  0  0
   44.3410   25.0710  -14.5860 C   0  0  0  0  0  0  0  0  0  0  0  0
   42.8190   24.8980  -14.6930 C   0  0  0  0  0  0  0  0  0  0  0  0
   42.1860   25.9890  -15.5560 C   0  0  0  0  0  0  0  0  0  0  0  0
   40.7820   25.7520  -15.6390 O   0  0  0  0  0  0  0  0  0  0  0  0
   39.9350   26.7410  -15.2160 C   0  0  0  0  0  0  0  0  0  0  0  0
   40.0560   27.4220  -14.0000 C   0  0  0  0  0  0  0  0  0  0  0  0
   39.1350   28.4170  -13.6530 C   0  0  0  0  0  0  0  0  0  0  0  0
   38.0890   28.7320  -14.5170 C   0  0  0  0  0  0  0  0  0  0  0  0
   36.9610   29.9560  -14.0810 Cl  0  0  0  0  0  0  0  0  0  0  0  0
   37.9510   28.0650  -15.7290 C   0  0  0  0  0  0  0  0  0  0  0  0
   38.8700   27.0720  -16.0740 C   0  0  0  0  0  0  0  0  0  0  0  0
   38.6610   26.2690  -17.5940 Cl  0  0  0  0  0  0  0  0  0  0  0  0
   41.1245   27.0888  -11.2037 H   0  0  0  0  0  0  0  0  0  0  0  0
   44.7309   27.2532  -13.4448 H   0  0  0  0  0  0  0  0  0  0  0  0
   45.2749   26.6392  -11.8016 H   0  0  0  0  0  0  0  0  0  0  0  0
   44.2240   24.5210  -12.6510 H   0  0  0  0  0  0  0  0  0  0  0  0
   46.4214   24.6848  -11.9453 H   0  0  0  0  0  0  0  0  0  0  0  0
   46.3355   23.7726  -13.4904 H   0  0  0  0  0  0  0  0  0  0  0  0
   46.8533   25.4927  -13.4904 H   0  0  0  0  0  0  0  0  0  0  0  0
   44.6312   25.9874  -15.1207 H   0  0  0  0  0  0  0  0  0  0  0  0
   44.8124   24.1810  -15.0283 H   0  0  0  0  0  0  0  0  0  0  0  0
   42.6023   23.9175  -15.1420 H   0  0  0  0  0  0  0  0  0  0  0  0
   42.3934   24.9706  -13.6813 H   0  0  0  0  0  0  0  0  0  0  0  0
   42.3685   26.9734  -15.1003 H   0  0  0  0  0  0  0  0  0  0  0  0
   42.6282   25.9727  -16.5631 H   0  0  0  0  0  0  0  0  0  0  0  0
   40.8789   27.1743  -13.3134 H   0  0  0  0  0  0  0  0  0  0  0  0
   39.2374   28.9509  -12.6967 H   0  0  0  0  0  0  0  0  0  0  0  0
   37.1250   28.3174  -16.4102 H   0  0  0  0  0  0  0  0  0  0  0  0
  1  2  3  0
  2  3  1  0
  3  4  1  0
  4  5  1  0
  4  6  1  0
  6  7  1  0
  7  8  1  0
  8  9  1  0
  9 10  1  0
 10 11  2  0
 11 12  1  0
 12 13  2  0
 13 14  1  0
 13 15  1  0
 15 16  2  0
 16 17  1  0
 16 10  1  0
  1 18  1  0
  3 19  1  0
  3 20  1  0
  4 21  1  1
  5 22  1  0
  5 23  1  0
  5 24  1  0
  6 25  1  0
  6 26  1  0
  7 27  1  0
  7 28  1  0
  8 29  1  0
  8 30  1  0
 11 31  1  0
 12 32  1  0
 15 33  1  0
M  CHG  1   4   1
M  END
>  <meeko>  (9) 
{"is_sidechain": [false], "free_energy": -4.253, "intermolecular_energy": -6.11, "internal_energy": -0.18}

$$$$
