clorgyline_out
     RDKit          3D

 33 33  0  0  0  0  0  0  0  0999 V2000
   45.6630   24.7620  -13.7560 C   0  0  0  0  0  0  0  0  0  0  0  0
   44.5560   25.0540  -14.1170 C   0  0  0  0  0  0  0  0  0  0  0  0
   43.1960   25.4080  -14.5590 C   0  0  0  0  0  0  0  0  0  0  0  0
   42.6090   26.5740  -13.8730 N   0  0  2  0  0  0  0  0  0  0  0  0
   43.2110   26.7770  -12.5550 C   0  0  0  0  0  0  0  0  0  0  0  0
   41.1390   26.4910  -13.8160 C   0  0  0  0  0  0  0  0  0  0  0  0
   40.5390   27.4600  -12.7870 C   0  0  0  0  0  0  0  0  0  0  0  0
   39.4470   28.3340  -13.4040 C   0  0  0  0  0  0  0  0  0  0  0  0
   39.0020   27.7260  -14.6150 O   0  0  0  0  0  0  0  0  0  0  0  0
   38.0150   28.3540  -15.3260 C   0  0  0  0  0  0  0  0  0  0  0  0
   37.1320   29.2990  -14.7930 C   0  0  0  0  0  0  0  0  0  0  0  0
   36.1510   29.8840  -15.6020 C   0  0  0  0  0  0  0  0  0  0  0  0
   36.0450   29.5230  -16.9430 C   0  0  0  0  0  0  0  0  0  0  0  0
   34.8340   30.2460  -17.9280 Cl  0  0  0  0  0  0  0  0  0  0  0  0
   36.9110   28.5830  -17.4900 C   0  0  0  0  0  0  0  0  0  0  0  0
   37.8900   28.0000  -16.6820 C   0  0  0  0  0  0  0  0  0  0  0  0
   38.9480   26.8370  -17.4070 Cl  0  0  0  0  0  0  0  0  0  0  0  0
   46.6774   24.4944  -13.4252 H   0  0  0  0  0  0  0  0  0  0  0  0
   43.2319   25.6267  -15.6364 H   0  0  0  0  0  0  0  0  0  0  0  0
   42.5557   24.5480  -14.3130 H   0  0  0  0  0  0  0  0  0  0  0  0
   42.8280   27.4020  -14.4280 H   0  0  0  0  0  0  0  0  0  0  0  0
   42.4766   26.5294  -11.7744 H   0  0  0  0  0  0  0  0  0  0  0  0
   44.0915   26.1261  -12.4499 H   0  0  0  0  0  0  0  0  0  0  0  0
   43.5175   27.8282  -12.4499 H   0  0  0  0  0  0  0  0  0  0  0  0
   40.7324   26.7334  -14.8089 H   0  0  0  0  0  0  0  0  0  0  0  0
   40.8717   25.4686  -13.5105 H   0  0  0  0  0  0  0  0  0  0  0  0
   40.1055   26.8785  -11.9600 H   0  0  0  0  0  0  0  0  0  0  0  0
   41.3428   28.1186  -12.4264 H   0  0  0  0  0  0  0  0  0  0  0  0
   38.6039   28.4223  -12.7030 H   0  0  0  0  0  0  0  0  0  0  0  0
   39.8453   29.3377  -13.6138 H   0  0  0  0  0  0  0  0  0  0  0  0
   37.2090   29.5836  -13.7333 H   0  0  0  0  0  0  0  0  0  0  0  0
   35.4627   30.6300  -15.1780 H   0  0  0  0  0  0  0  0  0  0  0  0
   36.8260   28.3008  -18.5498 H   0  0  0  0  0  0  0  0  0  0  0  0
  1  2  3  0
  2  3  1  0
  3  4  1  0
  4  5  1  0
  4  6  1  0
  6  7  1  0
  7  8  1  0
  8  9  1  0
  9 10  1  0
 10 11  2  0
 11 12  1  0
 12 13  2  0
 13 14  1  0
 13 15  1  0
 15 16  2  0
 16 17  1  0
 16 10  1  0
  1 18  1  0
  3 19  1  0
  3 20  1  0
  4 21  1  6
  5 22  1  0
  5 23  1  0
  5 24  1  0
  6 25  1  0
  6 26  1  0
  7 27  1  0
  7 28  1  0
  8 29  1  0
  8 30  1  0
 11 31  1  0
 12 32  1  0
 15 33  1  0
M  CHG  1   4   1
M  END
>  <meeko>  (1) 
{"is_sidechain": [false], "free_energy": -7.792, "intermolecular_energy": -10.526, "internal_energy": -0.238}

$$$$
clorgyline_out
     RDKit          3D

 33 33  0  0  0  0  0  0  0  0999 V2000
   32.2250   29.4530  -11.7480 C   0  0  0  0  0  0  0  0  0  0  0  0
   32.7110   30.0380  -12.6770 C   0  0  0  0  0  0  0  0  0  0  0  0
   33.3050   30.7600  -13.8150 C   0  0  0  0  0  0  0  0  0  0  0  0
   34.7760   30.6900  -13.8890 N   0  0  2  0  0  0  0  0  0  0  0  0
   35.4030   31.6440  -12.9730 C   0  0  0  0  0  0  0  0  0  0  0  0
   35.2610   30.8330  -15.2730 C   0  0  0  0  0  0  0  0  0  0  0  0
   36.0560   29.6070  -15.7430 C   0  0  0  0  0  0  0  0  0  0  0  0
   37.3800   29.4700  -14.9910 C   0  0  0  0  0  0  0  0  0  0  0  0
   37.7300   28.0890  -14.9260 O   0  0  0  0  0  0  0  0  0  0  0  0
   38.9470   27.7570  -14.3930 C   0  0  0  0  0  0  0  0  0  0  0  0
   39.4020   28.1710  -13.1370 C   0  0  0  0  0  0  0  0  0  0  0  0
   40.6670   27.7820  -12.6810 C   0  0  0  0  0  0  0  0  0  0  0  0
   41.4820   26.9820  -13.4790 C   0  0  0  0  0  0  0  0  0  0  0  0
   43.0350   26.5110  -12.9090 Cl  0  0  0  0  0  0  0  0  0  0  0  0
   41.0480   26.5630  -14.7320 C   0  0  0  0  0  0  0  0  0  0  0  0
   39.7860   26.9520  -15.1860 C   0  0  0  0  0  0  0  0  0  0  0  0
   39.2860   26.4040  -16.7510 Cl  0  0  0  0  0  0  0  0  0  0  0  0
   31.7797   28.9170  -10.8968 H   0  0  0  0  0  0  0  0  0  0  0  0
   32.8946   30.3345  -14.7426 H   0  0  0  0  0  0  0  0  0  0  0  0
   33.0511   31.8213  -13.6763 H   0  0  0  0  0  0  0  0  0  0  0  0
   35.0570   29.7580  -13.5820 H   0  0  0  0  0  0  0  0  0  0  0  0
   35.2036   31.3406  -11.9346 H   0  0  0  0  0  0  0  0  0  0  0  0
   36.4889   31.6609  -13.1480 H   0  0  0  0  0  0  0  0  0  0  0  0
   34.9878   32.6475  -13.1480 H   0  0  0  0  0  0  0  0  0  0  0  0
   34.3958   30.9695  -15.9384 H   0  0  0  0  0  0  0  0  0  0  0  0
   35.9344   31.7022  -15.3047 H   0  0  0  0  0  0  0  0  0  0  0  0
   35.4529   28.7034  -15.5706 H   0  0  0  0  0  0  0  0  0  0  0  0
   36.2803   29.7328  -16.8125 H   0  0  0  0  0  0  0  0  0  0  0  0
   38.1664   30.0262  -15.5223 H   0  0  0  0  0  0  0  0  0  0  0  0
   37.2769   29.8780  -13.9747 H   0  0  0  0  0  0  0  0  0  0  0  0
   38.7631   28.8050  -12.5047 H   0  0  0  0  0  0  0  0  0  0  0  0
   41.0182   28.1085  -11.6910 H   0  0  0  0  0  0  0  0  0  0  0  0
   41.6930   25.9308  -15.3599 H   0  0  0  0  0  0  0  0  0  0  0  0
  1  2  3  0
  2  3  1  0
  3  4  1  0
  4  5  1  0
  4  6  1  0
  6  7  1  0
  7  8  1  0
  8  9  1  0
  9 10  1  0
 10 11  2  0
 11 12  1  0
 12 13  2  0
 13 14  1  0
 13 15  1  0
 15 16  2  0
 16 17  1  0
 16 10  1  0
  1 18  1  0
  3 19  1  0
  3 20  1  0
  4 21  1  1
  5 22  1  0
  5 23  1  0
  5 24  1  0
  6 25  1  0
  6 26  1  0
  7 27  1  0
  7 28  1  0
  8 29  1  0
  8 30  1  0
 11 31  1  0
 12 32  1  0
 15 33  1  0
M  CHG  1   4   1
M  END
>  <meeko>  (2) 
{"is_sidechain": [false], "free_energy": -7.719, "intermolecular_energy": -10.328, "internal_energy": -0.337}

$$$$
clorgyline_out
     RDKit          3D

 33 33  0  0  0  0  0  0  0  0999 V2000
   35.0220   31.4730  -12.9990 C   0  0  0  0  0  0  0  0  0  0  0  0
   35.0460   31.2380  -14.1770 C   0  0  0  0  0  0  0  0  0  0  0  0
   35.0740   30.9550  -15.6220 C   0  0  0  0  0  0  0  0  0  0  0  0
   36.4070   30.6310  -16.1610 N   0  0  2  0  0  0  0  0  0  0  0  0
   37.0160   31.7910  -16.8130 C   0  0  0  0  0  0  0  0  0  0  0  0
   36.3700   29.4460  -17.0350 C   0  0  0  0  0  0  0  0  0  0  0  0
   37.5060   28.4590  -16.7300 C   0  0  0  0  0  0  0  0  0  0  0  0
   37.9310   28.5230  -15.2640 C   0  0  0  0  0  0  0  0  0  0  0  0
   38.3290   27.2200  -14.8430 O   0  0  0  0  0  0  0  0  0  0  0  0
   39.5370   27.0860  -14.2110 C   0  0  0  0  0  0  0  0  0  0  0  0
   39.7710   27.4170  -12.8730 C   0  0  0  0  0  0  0  0  0  0  0  0
   41.0450   27.2490  -12.3170 C   0  0  0  0  0  0  0  0  0  0  0  0
   42.0870   26.7530  -13.0960 C   0  0  0  0  0  0  0  0  0  0  0  0
   43.6490   26.5520  -12.4030 Cl  0  0  0  0  0  0  0  0  0  0  0  0
   41.8740   26.4210  -14.4290 C   0  0  0  0  0  0  0  0  0  0  0  0
   40.6030   26.5900  -14.9830 C   0  0  0  0  0  0  0  0  0  0  0  0
   40.3830   26.1610  -16.6460 Cl  0  0  0  0  0  0  0  0  0  0  0  0
   35.0000   31.6882  -11.9205 H   0  0  0  0  0  0  0  0  0  0  0  0
   34.4089   30.1007  -15.8167 H   0  0  0  0  0  0  0  0  0  0  0  0
   34.7516   31.8784  -16.1255 H   0  0  0  0  0  0  0  0  0  0  0  0
   37.0090   30.3870  -15.3730 H   0  0  0  0  0  0  0  0  0  0  0  0
   37.3834   32.4907  -16.0479 H   0  0  0  0  0  0  0  0  0  0  0  0
   37.8564   31.4596  -17.4406 H   0  0  0  0  0  0  0  0  0  0  0  0
   36.2660   32.2946  -17.4406 H   0  0  0  0  0  0  0  0  0  0  0  0
   35.4078   28.9322  -16.8932 H   0  0  0  0  0  0  0  0  0  0  0  0
   36.4937   29.7900  -18.0725 H   0  0  0  0  0  0  0  0  0  0  0  0
   37.1628   27.4390  -16.9576 H   0  0  0  0  0  0  0  0  0  0  0  0
   38.3726   28.7308  -17.3507 H   0  0  0  0  0  0  0  0  0  0  0  0
   38.7743   29.2207  -15.1538 H   0  0  0  0  0  0  0  0  0  0  0  0
   37.0912   28.8747  -14.6467 H   0  0  0  0  0  0  0  0  0  0  0  0
   38.9510   27.8110  -12.2546 H   0  0  0  0  0  0  0  0  0  0  0  0
   41.2229   27.5093  -11.2632 H   0  0  0  0  0  0  0  0  0  0  0  0
   42.6989   26.0288  -15.0419 H   0  0  0  0  0  0  0  0  0  0  0  0
  1  2  3  0
  2  3  1  0
  3  4  1  0
  4  5  1  0
  4  6  1  0
  6  7  1  0
  7  8  1  0
  8  9  1  0
  9 10  1  0
 10 11  2  0
 11 12  1  0
 12 13  2  0
 13 14  1  0
 13 15  1  0
 15 16  2  0
 16 17  1  0
 16 10  1  0
  1 18  1  0
  3 19  1  0
  3 20  1  0
  4 21  1  1
  5 22  1  0
  5 23  1  0
  5 24  1  0
  6 25  1  0
  6 26  1  0
  7 27  1  0
  7 28  1  0
  8 29  1  0
  8 30  1  0
 11 31  1  0
 12 32  1  0
 15 33  1  0
M  CHG  1   4   1
M  END
>  <meeko>  (3) 
{"is_sidechain": [false], "free_energy": -7.619, "intermolecular_energy": -10.007, "internal_energy": -0.523}

$$$$
clorgyline_out
     RDKit          3D

 33 33  0  0  0  0  0  0  0  0999 V2000
   34.1450   31.0120  -17.9350 C   0  0  0  0  0  0  0  0  0  0  0  0
   35.0290   30.2580  -17.6280 C   0  0  0  0  0  0  0  0  0  0  0  0
   36.1140   29.3350  -17.2550 C   0  0  0  0  0  0  0  0  0  0  0  0
   36.8180   29.6830  -16.0080 N   0  0  2  0  0  0  0  0  0  0  0  0
   37.4420   31.0040  -16.0970 C   0  0  0  0  0  0  0  0  0  0  0  0
   37.7720   28.6340  -15.6080 C   0  0  0  0  0  0  0  0  0  0  0  0
   37.9770   27.5820  -16.7070 C   0  0  0  0  0  0  0  0  0  0  0  0
   39.2230   26.7340  -16.4530 C   0  0  0  0  0  0  0  0  0  0  0  0
   39.4310   26.6340  -15.0460 O   0  0  0  0  0  0  0  0  0  0  0  0
   40.7190   26.5630  -14.5870 C   0  0  0  0  0  0  0  0  0  0  0  0
   41.7400   25.8310  -15.2030 C   0  0  0  0  0  0  0  0  0  0  0  0
   43.0270   25.8160  -14.6550 C   0  0  0  0  0  0  0  0  0  0  0  0
   43.2980   26.5280  -13.4890 C   0  0  0  0  0  0  0  0  0  0  0  0
   44.8840   26.5020  -12.8230 Cl  0  0  0  0  0  0  0  0  0  0  0  0
   42.2960   27.2590  -12.8610 C   0  0  0  0  0  0  0  0  0  0  0  0
   41.0110   27.2730  -13.4090 C   0  0  0  0  0  0  0  0  0  0  0  0
   39.7960   28.1990  -12.5950 Cl  0  0  0  0  0  0  0  0  0  0  0  0
   33.3359   31.7022  -18.2160 H   0  0  0  0  0  0  0  0  0  0  0  0
   35.6829   28.3300  -17.1359 H   0  0  0  0  0  0  0  0  0  0  0  0
   36.8614   29.3932  -18.0600 H   0  0  0  0  0  0  0  0  0  0  0  0
   36.1210   29.7360  -15.2640 H   0  0  0  0  0  0  0  0  0  0  0  0
   37.6253   31.3919  -15.0841 H   0  0  0  0  0  0  0  0  0  0  0  0
   38.3970   30.9228  -16.6369 H   0  0  0  0  0  0  0  0  0  0  0  0
   36.7728   31.6900  -16.6369 H   0  0  0  0  0  0  0  0  0  0  0  0
   38.7408   29.1041  -15.3834 H   0  0  0  0  0  0  0  0  0  0  0  0
   37.3590   28.1226  -14.7260 H   0  0  0  0  0  0  0  0  0  0  0  0
   37.0972   26.9225  -16.7376 H   0  0  0  0  0  0  0  0  0  0  0  0
   38.1094   28.1076  -17.6642 H   0  0  0  0  0  0  0  0  0  0  0  0
   39.0797   25.7296  -16.8780 H   0  0  0  0  0  0  0  0  0  0  0  0
   40.0975   27.2026  -16.9280 H   0  0  0  0  0  0  0  0  0  0  0  0
   41.5297   25.2648  -16.1223 H   0  0  0  0  0  0  0  0  0  0  0  0
   43.8262   25.2410  -15.1457 H   0  0  0  0  0  0  0  0  0  0  0  0
   42.5130   27.8213  -11.9409 H   0  0  0  0  0  0  0  0  0  0  0  0
  1  2  3  0
  2  3  1  0
  3  4  1  0
  4  5  1  0
  4  6  1  0
  6  7  1  0
  7  8  1  0
  8  9  1  0
  9 10  1  0
 10 11  2  0
 11 12  1  0
 12 13  2  0
 13 14  1  0
 13 15  1  0
 15 16  2  0
 16 17  1  0
 16 10  1  0
  1 18  1  0
  3 19  1  0
  3 20  1  0
  4 21  1  1
  5 22  1  0
  5 23  1  0
  5 24  1  0
  6 25  1  0
  6 26  1  0
  7 27  1  0
  7 28  1  0
  8 29  1  0
  8 30  1  0
 11 31  1  0
 12 32  1  0
 15 33  1  0
M  CHG  1   4   1
M  END
>  <meeko>  (4) 
{"is_sidechain": [false], "free_energy": -7.551, "intermolecular_energy": -9.945, "internal_energy": -0.493}

$$$$
clorgyline_out
     RDKit          3D

 33 33  0  0  0  0  0  0  0  0999 V2000
   34.8980   30.2750  -17.7780 C   0  0  0  0  0  0  0  0  0  0  0  0
   35.6030   29.8630  -16.8970 C   0  0  0  0  0  0  0  0  0  0  0  0
   36.4650   29.3540  -15.8170 C   0  0  0  0  0  0  0  0  0  0  0  0
   37.7500   28.7890  -16.2670 N   0  0  2  0  0  0  0  0  0  0  0  0
   37.6040   28.0740  -17.5360 C   0  0  0  0  0  0  0  0  0  0  0  0
   38.3800   27.9630  -15.2220 C   0  0  0  0  0  0  0  0  0  0  0  0
   38.8410   28.7970  -14.0180 C   0  0  0  0  0  0  0  0  0  0  0  0
   39.8470   28.0360  -13.1550 C   0  0  0  0  0  0  0  0  0  0  0  0
   40.4190   26.9870  -13.9330 O   0  0  0  0  0  0  0  0  0  0  0  0
   41.7350   26.6730  -13.7260 C   0  0  0  0  0  0  0  0  0  0  0  0
   42.4540   26.9970  -12.5700 C   0  0  0  0  0  0  0  0  0  0  0  0
   43.8010   26.6360  -12.4520 C   0  0  0  0  0  0  0  0  0  0  0  0
   44.4350   25.9550  -13.4890 C   0  0  0  0  0  0  0  0  0  0  0  0
   46.0910   25.5180  -13.3350 Cl  0  0  0  0  0  0  0  0  0  0  0  0
   43.7380   25.6280  -14.6470 C   0  0  0  0  0  0  0  0  0  0  0  0
   42.3930   25.9880  -14.7630 C   0  0  0  0  0  0  0  0  0  0  0  0
   41.5650   25.5570  -16.2210 Cl  0  0  0  0  0  0  0  0  0  0  0  0
   34.2524   30.6523  -18.5848 H   0  0  0  0  0  0  0  0  0  0  0  0
   36.6787   30.1853  -15.1290 H   0  0  0  0  0  0  0  0  0  0  0  0
   35.9130   28.5293  -15.3424 H   0  0  0  0  0  0  0  0  0  0  0  0
   38.3870   29.5680  -16.4400 H   0  0  0  0  0  0  0  0  0  0  0  0
   37.3876   27.0140  -17.3369 H   0  0  0  0  0  0  0  0  0  0  0  0
   36.7774   28.5150  -18.1124 H   0  0  0  0  0  0  0  0  0  0  0  0
   38.5374   28.1556  -18.1124 H   0  0  0  0  0  0  0  0  0  0  0  0
   37.6518   27.2147  -14.8758 H   0  0  0  0  0  0  0  0  0  0  0  0
   39.2689   27.4861  -15.6608 H   0  0  0  0  0  0  0  0  0  0  0  0
   39.3124   29.7210  -14.3840 H   0  0  0  0  0  0  0  0  0  0  0  0
   37.9598   29.0222  -13.3994 H   0  0  0  0  0  0  0  0  0  0  0  0
   40.6391   28.7214  -12.8193 H   0  0  0  0  0  0  0  0  0  0  0  0
   39.3404   27.6145  -12.2743 H   0  0  0  0  0  0  0  0  0  0  0  0
   41.9582   27.5378  -11.7504 H   0  0  0  0  0  0  0  0  0  0  0  0
   44.3599   26.8903  -11.5393 H   0  0  0  0  0  0  0  0  0  0  0  0
   44.2411   25.0907  -15.4644 H   0  0  0  0  0  0  0  0  0  0  0  0
  1  2  3  0
  2  3  1  0
  3  4  1  0
  4  5  1  0
  4  6  1  0
  6  7  1  0
  7  8  1  0
  8  9  1  0
  9 10  1  0
 10 11  2  0
 11 12  1  0
 12 13  2  0
 13 14  1  0
 13 15  1  0
 15 16  2  0
 16 17  1  0
 16 10  1  0
  1 18  1  0
  3 19  1  0
  3 20  1  0
  4 21  1  6
  5 22  1  0
  5 23  1  0
  5 24  1  0
  6 25  1  0
  6 26  1  0
  7 27  1  0
  7 28  1  0
  8 29  1  0
  8 30  1  0
 11 31  1  0
 12 32  1  0
 15 33  1  0
M  CHG  1   4   1
M  END
>  <meeko>  (5) 
{"is_sidechain": [false], "free_energy": -7.48, "intermolecular_energy": -10.024, "internal_energy": -0.317}

$$$$
clorgyline_out
     RDKit          3D

 33 33  0  0  0  0  0  0  0  0999 V2000
   33.1950   31.4230  -17.0740 C   0  0  0  0  0  0  0  0  0  0  0  0
   34.0890   31.2080  -16.3010 C   0  0  0  0  0  0  0  0  0  0  0  0
   35.1840   30.9410  -15.3520 C   0  0  0  0  0  0  0  0  0  0  0  0
   36.4830   30.6370  -15.9790 N   0  0  2  0  0  0  0  0  0  0  0  0
   37.1050   31.8410  -16.5300 C   0  0  0  0  0  0  0  0  0  0  0  0
   36.3710   29.5540  -16.9720 C   0  0  0  0  0  0  0  0  0  0  0  0
   37.3720   28.4190  -16.7130 C   0  0  0  0  0  0  0  0  0  0  0  0
   37.8870   28.4360  -15.2750 C   0  0  0  0  0  0  0  0  0  0  0  0
   38.3530   27.1310  -14.9380 O   0  0  0  0  0  0  0  0  0  0  0  0
   39.5450   27.0240  -14.2720 C   0  0  0  0  0  0  0  0  0  0  0  0
   39.7340   27.3610  -12.9280 C   0  0  0  0  0  0  0  0  0  0  0  0
   40.9950   27.2210  -12.3350 C   0  0  0  0  0  0  0  0  0  0  0  0
   42.0700   26.7480  -13.0850 C   0  0  0  0  0  0  0  0  0  0  0  0
   43.6150   26.5800  -12.3470 Cl  0  0  0  0  0  0  0  0  0  0  0  0
   41.9020   26.4110  -14.4230 C   0  0  0  0  0  0  0  0  0  0  0  0
   40.6430   26.5510  -15.0130 C   0  0  0  0  0  0  0  0  0  0  0  0
   40.4800   26.1170  -16.6810 Cl  0  0  0  0  0  0  0  0  0  0  0  0
   32.3763   31.6199  -17.7818 H   0  0  0  0  0  0  0  0  0  0  0  0
   35.3103   31.8295  -14.7160 H   0  0  0  0  0  0  0  0  0  0  0  0
   34.8937   30.0423  -14.7880 H   0  0  0  0  0  0  0  0  0  0  0  0
   37.1060   30.2920  -15.2480 H   0  0  0  0  0  0  0  0  0  0  0  0
   37.4402   32.4898  -15.7074 H   0  0  0  0  0  0  0  0  0  0  0  0
   37.9692   31.5570  -17.1485 H   0  0  0  0  0  0  0  0  0  0  0  0
   36.3733   32.3815  -17.1485 H   0  0  0  0  0  0  0  0  0  0  0  0
   35.3517   29.1423  -16.9327 H   0  0  0  0  0  0  0  0  0  0  0  0
   36.5947   29.9803  -17.9610 H   0  0  0  0  0  0  0  0  0  0  0  0
   36.8755   27.4559  -16.9023 H   0  0  0  0  0  0  0  0  0  0  0  0
   38.2307   28.5593  -17.3861 H   0  0  0  0  0  0  0  0  0  0  0  0
   38.7125   29.1576  -15.1865 H   0  0  0  0  0  0  0  0  0  0  0  0
   37.0773   28.7316  -14.5916 H   0  0  0  0  0  0  0  0  0  0  0  0
   38.8884   27.7378  -12.3339 H   0  0  0  0  0  0  0  0  0  0  0  0
   41.1369   27.4846  -11.2765 H   0  0  0  0  0  0  0  0  0  0  0  0
   42.7525   26.0374  -15.0122 H   0  0  0  0  0  0  0  0  0  0  0  0
  1  2  3  0
  2  3  1  0
  3  4  1  0
  4  5  1  0
  4  6  1  0
  6  7  1  0
  7  8  1  0
  8  9  1  0
  9 10  1  0
 10 11  2  0
 11 12  1  0
 12 13  2  0
 13 14  1  0
 13 15  1  0
 15 16  2  0
 16 17  1  0
 16 10  1  0
  1 18  1  0
  3 19  1  0
  3 20  1  0
  4 21  1  1
  5 22  1  0
  5 23  1  0
  5 24  1  0
  6 25  1  0
  6 26  1  0
  7 27  1  0
  7 28  1  0
  8 29  1  0
  8 30  1  0
 11 31  1  0
 12 32  1  0
 15 33  1  0
M  CHG  1   4   1
M  END
>  <meeko>  (6) 
{"is_sidechain": [false], "free_energy": -7.429, "intermolecular_energy": -9.763, "internal_energy": -0.509}

$$$$
clorgyline_out
     RDKit          3D

 33 33  0  0  0  0  0  0  0  0999 V2000
   44.0390   26.9120  -12.6560 C   0  0  0  0  0  0  0  0  0  0  0  0
   42.8530   27.0830  -12.7460 C   0  0  0  0  0  0  0  0  0  0  0  0
   41.4010   27.2970  -12.8600 C   0  0  0  0  0  0  0  0  0  0  0  0
   40.7080   26.3610  -13.7650 N   0  0  2  0  0  0  0  0  0  0  0  0
   41.4310   26.2070  -15.0280 C   0  0  0  0  0  0  0  0  0  0  0  0
   39.2970   26.7370  -13.9630 C   0  0  0  0  0  0  0  0  0  0  0  0
   39.0830   28.2560  -13.9020 C   0  0  0  0  0  0  0  0  0  0  0  0
   38.1800   28.7460  -15.0340 C   0  0  0  0  0  0  0  0  0  0  0  0
   37.1230   29.5220  -14.4740 O   0  0  0  0  0  0  0  0  0  0  0  0
   36.1480   29.9850  -15.3160 C   0  0  0  0  0  0  0  0  0  0  0  0
   36.0470   29.6530  -16.6710 C   0  0  0  0  0  0  0  0  0  0  0  0
   35.0140   30.1830  -17.4540 C   0  0  0  0  0  0  0  0  0  0  0  0
   34.0820   31.0480  -16.8860 C   0  0  0  0  0  0  0  0  0  0  0  0
   32.8180   31.6950  -17.8570 Cl  0  0  0  0  0  0  0  0  0  0  0  0
   34.1670   31.3920  -15.5420 C   0  0  0  0  0  0  0  0  0  0  0  0
   35.1990   30.8630  -14.7620 C   0  0  0  0  0  0  0  0  0  0  0  0
   35.2640   31.3170  -13.0930 Cl  0  0  0  0  0  0  0  0  0  0  0  0
   45.1247   26.7555  -12.5736 H   0  0  0  0  0  0  0  0  0  0  0  0
   40.9600   27.1938  -11.8576 H   0  0  0  0  0  0  0  0  0  0  0  0
   41.2683   28.3004  -13.2908 H   0  0  0  0  0  0  0  0  0  0  0  0
   40.7010   25.4450  -13.3160 H   0  0  0  0  0  0  0  0  0  0  0  0
   42.4876   25.9820  -14.8206 H   0  0  0  0  0  0  0  0  0  0  0  0
   40.9873   25.3832  -15.6064 H   0  0  0  0  0  0  0  0  0  0  0  0
   41.3616   27.1401  -15.6064 H   0  0  0  0  0  0  0  0  0  0  0  0
   38.9691   26.3732  -14.9480 H   0  0  0  0  0  0  0  0  0  0  0  0
   38.7112   26.2825  -13.1505 H   0  0  0  0  0  0  0  0  0  0  0  0
   38.6177   28.5120  -12.9387 H   0  0  0  0  0  0  0  0  0  0  0  0
   40.0626   28.7447  -14.0090 H   0  0  0  0  0  0  0  0  0  0  0  0
   38.7638   29.3648  -15.7314 H   0  0  0  0  0  0  0  0  0  0  0  0
   37.7644   27.8862  -15.5800 H   0  0  0  0  0  0  0  0  0  0  0  0
   36.7827   28.9721  -17.1239 H   0  0  0  0  0  0  0  0  0  0  0  0
   34.9387   29.9159  -18.5184 H   0  0  0  0  0  0  0  0  0  0  0  0
   33.4285   32.0746  -15.0962 H   0  0  0  0  0  0  0  0  0  0  0  0
  1  2  3  0
  2  3  1  0
  3  4  1  0
  4  5  1  0
  4  6  1  0
  6  7  1  0
  7  8  1  0
  8  9  1  0
  9 10  1  0
 10 11  2  0
 11 12  1  0
 12 13  2  0
 13 14  1  0
 13 15  1  0
 15 16  2  0
 16 17  1  0
 16 10  1  0
  1 18  1  0
  3 19  1  0
  3 20  1  0
  4 21  1  1
  5 22  1  0
  5 23  1  0
  5 24  1  0
  6 25  1  0
  6 26  1  0
  7 27  1  0
  7 28  1  0
  8 29  1  0
  8 30  1  0
 11 31  1  0
 12 32  1  0
 15 33  1  0
M  CHG  1   4   1
M  END
>  <meeko>  (7) 
{"is_sidechain": [false], "free_energy": -7.374, "intermolecular_energy": -9.862, "internal_energy": -0.337}

$$$$
clorgyline_out
     RDKit          3D

 33 33  0  0  0  0  0  0  0  0999 V2000
   39.7480   27.3160  -12.9870 C   0  0  0  0  0  0  0  0  0  0  0  0
   39.5650   27.1260  -14.1590 C   0  0  0  0  0  0  0  0  0  0  0  0
   39.3390   26.8880  -15.5950 C   0  0  0  0  0  0  0  0  0  0  0  0
   38.0230   27.3270  -16.0940 N   0  0  2  0  0  0  0  0  0  0  0  0
   37.9540   27.2540  -17.5540 C   0  0  0  0  0  0  0  0  0  0  0  0
   37.6590   28.6580  -15.5770 C   0  0  0  0  0  0  0  0  0  0  0  0
   37.0760   29.5680  -16.6680 C   0  0  0  0  0  0  0  0  0  0  0  0
   37.4690   31.0290  -16.4530 C   0  0  0  0  0  0  0  0  0  0  0  0
   36.2830   31.8130  -16.3430 O   0  0  0  0  0  0  0  0  0  0  0  0
   35.3920   31.4980  -15.3520 C   0  0  0  0  0  0  0  0  0  0  0  0
   35.6950   31.4950  -13.9860 C   0  0  0  0  0  0  0  0  0  0  0  0
   34.7150   31.1550  -13.0470 C   0  0  0  0  0  0  0  0  0  0  0  0
   33.4320   30.8130  -13.4680 C   0  0  0  0  0  0  0  0  0  0  0  0
   32.2360   30.3950  -12.3050 Cl  0  0  0  0  0  0  0  0  0  0  0  0
   33.1130   30.8080  -14.8210 C   0  0  0  0  0  0  0  0  0  0  0  0
   34.0910   31.1480  -15.7580 C   0  0  0  0  0  0  0  0  0  0  0  0
   33.6480   31.1310  -17.4310 Cl  0  0  0  0  0  0  0  0  0  0  0  0
   39.9156   27.4900  -11.9138 H   0  0  0  0  0  0  0  0  0  0  0  0
   40.1156   27.4267  -16.1577 H   0  0  0  0  0  0  0  0  0  0  0  0
   39.3771   25.7981  -15.7384 H   0  0  0  0  0  0  0  0  0  0  0  0
   37.3230   26.6770  -15.7330 H   0  0  0  0  0  0  0  0  0  0  0  0
   37.2260   26.4838  -17.8486 H   0  0  0  0  0  0  0  0  0  0  0  0
   37.6394   28.2286  -17.9554 H   0  0  0  0  0  0  0  0  0  0  0  0
   38.9448   26.9947  -17.9554 H   0  0  0  0  0  0  0  0  0  0  0  0
   36.9097   28.5355  -14.7810 H   0  0  0  0  0  0  0  0  0  0  0  0
   38.5753   29.1333  -15.1968 H   0  0  0  0  0  0  0  0  0  0  0  0
   37.4529   29.2376  -17.6472 H   0  0  0  0  0  0  0  0  0  0  0  0
   35.9791   29.4973  -16.6243 H   0  0  0  0  0  0  0  0  0  0  0  0
   38.0597   31.1208  -15.5296 H   0  0  0  0  0  0  0  0  0  0  0  0
   38.0728   31.3822  -17.3019 H   0  0  0  0  0  0  0  0  0  0  0  0
   36.7077   31.7610  -13.6490 H   0  0  0  0  0  0  0  0  0  0  0  0
   34.9582   31.1578  -11.9742 H   0  0  0  0  0  0  0  0  0  0  0  0
   32.0988   30.5385  -15.1508 H   0  0  0  0  0  0  0  0  0  0  0  0
  1  2  3  0
  2  3  1  0
  3  4  1  0
  4  5  1  0
  4  6  1  0
  6  7  1  0
  7  8  1  0
  8  9  1  0
  9 10  1  0
 10 11  2  0
 11 12  1  0
 12 13  2  0
 13 14  1  0
 13 15  1  0
 15 16  2  0
 16 17  1  0
 16 10  1  0
  1 18  1  0
  3 19  1  0
  3 20  1  0
  4 21  1  1
  5 22  1  0
  5 23  1  0
  5 24  1  0
  6 25  1  0
  6 26  1  0
  7 27  1  0
  7 28  1  0
  8 29  1  0
  8 30  1  0
 11 31  1  0
 12 32  1  0
 15 33  1  0
M  CHG  1   4   1
M  END
>  <meeko>  (8) 
{"is_sidechain": [false], "free_energy": -7.369, "intermolecular_energy": -9.684, "internal_energy": -0.507}

$$$$
clorgyline_out
     RDKit          3D

 33 33  0  0  0  0  0  0  0  0999 V2000
   45.4350   24.9740  -13.3490 C   0  0  0  0  0  0  0  0  0  0  0  0
   44.7580   25.9140  -13.6650 C   0  0  0  0  0  0  0  0  0  0  0  0
   43.9270   27.0660  -14.0570 C   0  0  0  0  0  0  0  0  0  0  0  0
   42.4860   26.9060  -13.7910 N   0  0  2  0  0  0  0  0  0  0  0  0
   42.1980   26.9620  -12.3570 C   0  0  0  0  0  0  0  0  0  0  0  0
   41.9430   25.6950  -14.4300 C   0  0  0  0  0  0  0  0  0  0  0  0
   41.9590   25.7860  -15.9630 C   0  0  0  0  0  0  0  0  0  0  0  0
   40.5840   26.1510  -16.5220 C   0  0  0  0  0  0  0  0  0  0  0  0
   39.7960   26.7110  -15.4730 O   0  0  0  0  0  0  0  0  0  0  0  0
   38.7450   27.5180  -15.8170 C   0  0  0  0  0  0  0  0  0  0  0  0
   38.0820   27.4750  -17.0470 C   0  0  0  0  0  0  0  0  0  0  0  0
   37.0180   28.3460  -17.3080 C   0  0  0  0  0  0  0  0  0  0  0  0
   36.6160   29.2660  -16.3410 C   0  0  0  0  0  0  0  0  0  0  0  0
   35.3080   30.3330  -16.6710 Cl  0  0  0  0  0  0  0  0  0  0  0  0
   37.2650   29.3250  -15.1130 C   0  0  0  0  0  0  0  0  0  0  0  0
   38.3270   28.4550  -14.8550 C   0  0  0  0  0  0  0  0  0  0  0  0
   39.1030   28.5640  -13.3110 Cl  0  0  0  0  0  0  0  0  0  0  0  0
   46.0552   24.1129  -13.0595 H   0  0  0  0  0  0  0  0  0  0  0  0
   44.2815   27.9481  -13.5036 H   0  0  0  0  0  0  0  0  0  0  0  0
   44.0319   27.1675  -15.1473 H   0  0  0  0  0  0  0  0  0  0  0  0
   42.0030   27.6970  -14.2190 H   0  0  0  0  0  0  0  0  0  0  0  0
   43.1232   26.7821  -11.7899 H   0  0  0  0  0  0  0  0  0  0  0  0
   41.7986   27.9546  -12.1017 H   0  0  0  0  0  0  0  0  0  0  0  0
   41.4557   26.1914  -12.1017 H   0  0  0  0  0  0  0  0  0  0  0  0
   42.5487   24.8304  -14.1209 H   0  0  0  0  0  0  0  0  0  0  0  0
   40.8958   25.5876  -14.1108 H   0  0  0  0  0  0  0  0  0  0  0  0
   42.6833   26.5561  -16.2669 H   0  0  0  0  0  0  0  0  0  0  0  0
   42.2408   24.8005  -16.3621 H   0  0  0  0  0  0  0  0  0  0  0  0
   40.6974   26.8863  -17.3322 H   0  0  0  0  0  0  0  0  0  0  0  0
   40.0915   25.2518  -16.9206 H   0  0  0  0  0  0  0  0  0  0  0  0
   38.3983   26.7526  -17.8139 H   0  0  0  0  0  0  0  0  0  0  0  0
   36.4987   28.3045  -18.2768 H   0  0  0  0  0  0  0  0  0  0  0  0
   36.9449   30.0507  -14.3509 H   0  0  0  0  0  0  0  0  0  0  0  0
  1  2  3  0
  2  3  1  0
  3  4  1  0
  4  5  1  0
  4  6  1  0
  6  7  1  0
  7  8  1  0
  8  9  1  0
  9 10  1  0
 10 11  2  0
 11 12  1  0
 12 13  2  0
 13 14  1  0
 13 15  1  0
 15 16  2  0
 16 17  1  0
 16 10  1  0
  1 18  1  0
  3 19  1  0
  3 20  1  0
  4 21  1  6
  5 22  1  0
  5 23  1  0
  5 24  1  0
  6 25  1  0
  6 26  1  0
  7 27  1  0
  7 28  1  0
  8 29  1  0
  8 30  1  0
 11 31  1  0
 12 32  1  0
 15 33  1  0
M  CHG  1   4   1
M  END
>  <meeko>  (9) 
{"is_sidechain": [false], "free_energy": -7.297, "intermolecular_energy": -9.321, "internal_energy": -0.773}

$$$$
