isatin_out
     RDKit          3D

 16 17  0  0  0  0  0  0  0  0999 V2000
   32.8480   33.5900  -17.9230 O   0  0  0  0  0  0  0  0  0  0  0  0
   33.7300   32.8030  -17.6640 C   0  0  0  0  0  0  0  0  0  0  0  0
   33.8000   31.4620  -17.9900 N   0  0  0  0  0  0  0  0  0  0  0  0
   34.9780   30.8950  -17.5120 C   0  0  0  0  0  0  0  0  0  0  0  0
   35.3880   29.5860  -17.6470 C   0  0  0  0  0  0  0  0  0  0  0  0
   36.6200   29.2370  -17.0820 C   0  0  0  0  0  0  0  0  0  0  0  0
   37.4090   30.1900  -16.4020 C   0  0  0  0  0  0  0  0  0  0  0  0
   36.9790   31.5120  -16.2740 C   0  0  0  0  0  0  0  0  0  0  0  0
   35.7610   31.8310  -16.8400 C   0  0  0  0  0  0  0  0  0  0  0  0
   35.0400   33.1050  -16.8810 C   0  0  0  0  0  0  0  0  0  0  0  0
   35.3910   34.1600  -16.4080 O   0  0  0  0  0  0  0  0  0  0  0  0
   33.1090   30.9730  -18.4920 H   0  0  0  0  0  0  0  0  0  0  0  0
   34.7716   28.8453  -18.1775 H   0  0  0  0  0  0  0  0  0  0  0  0
   36.9801   28.2013  -17.1694 H   0  0  0  0  0  0  0  0  0  0  0  0
   38.3735   29.8875  -15.9681 H   0  0  0  0  0  0  0  0  0  0  0  0
   37.5830   32.2649  -15.7464 H   0  0  0  0  0  0  0  0  0  0  0  0
  1  2  2  0
  2  3  1  0
  3  4  1  0
  4  5  2  0
  5  6  1  0
  6  7  2  0
  7  8  1  0
  8  9  2  0
  9 10  1  0
 10 11  2  0
 10  2  1  0
  9  4  1  0
  3 12  1  0
  5 13  1  0
  6 14  1  0
  7 15  1  0
  8 16  1  0
M  END
>  <meeko>  (1) 
{"is_sidechain": [false], "free_energy": -6.86, "intermolecular_energy": -6.86, "internal_energy": 0.0}

$$$$
isatin_out
     RDKit          3D

 16 17  0  0  0  0  0  0  0  0999 V2000
   39.4510   26.5440  -17.3950 O   0  0  0  0  0  0  0  0  0  0  0  0
   38.5950   27.3360  -17.0690 C   0  0  0  0  0  0  0  0  0  0  0  0
   37.6450   27.9440  -17.8670 N   0  0  0  0  0  0  0  0  0  0  0  0
   36.8380   28.7940  -17.1190 C   0  0  0  0  0  0  0  0  0  0  0  0
   35.7890   29.5650  -17.5750 C   0  0  0  0  0  0  0  0  0  0  0  0
   35.1120   30.3510  -16.6350 C   0  0  0  0  0  0  0  0  0  0  0  0
   35.4900   30.3510  -15.2750 C   0  0  0  0  0  0  0  0  0  0  0  0
   36.5540   29.5650  -14.8290 C   0  0  0  0  0  0  0  0  0  0  0  0
   37.2050   28.7990  -15.7750 C   0  0  0  0  0  0  0  0  0  0  0  0
   38.3390   27.8830  -15.6360 C   0  0  0  0  0  0  0  0  0  0  0  0
   38.9420   27.6140  -14.6240 O   0  0  0  0  0  0  0  0  0  0  0  0
   37.5540   27.7950  -18.8360 H   0  0  0  0  0  0  0  0  0  0  0  0
   35.4961   29.5623  -18.6353 H   0  0  0  0  0  0  0  0  0  0  0  0
   34.2707   30.9797  -16.9620 H   0  0  0  0  0  0  0  0  0  0  0  0
   34.9396   30.9779  -14.5580 H   0  0  0  0  0  0  0  0  0  0  0  0
   36.8596   29.5565  -13.7723 H   0  0  0  0  0  0  0  0  0  0  0  0
  1  2  2  0
  2  3  1  0
  3  4  1  0
  4  5  2  0
  5  6  1  0
  6  7  2  0
  7  8  1  0
  8  9  2  0
  9 10  1  0
 10 11  2  0
 10  2  1  0
  9  4  1  0
  3 12  1  0
  5 13  1  0
  6 14  1  0
  7 15  1  0
  8 16  1  0
M  END
>  <meeko>  (2) 
{"is_sidechain": [false], "free_energy": -6.808, "intermolecular_energy": -6.808, "internal_energy": 0.0}

$$$$
isatin_out
     RDKit          3D

 16 17  0  0  0  0  0  0  0  0999 V2000
   39.2880   26.8740  -15.7520 O   0  0  0  0  0  0  0  0  0  0  0  0
   38.3780   27.6650  -15.8650 C   0  0  0  0  0  0  0  0  0  0  0  0
   37.7720   28.4150  -14.8760 N   0  0  0  0  0  0  0  0  0  0  0  0
   36.7600   29.2110  -15.4050 C   0  0  0  0  0  0  0  0  0  0  0  0
   35.9430   30.0850  -14.7210 C   0  0  0  0  0  0  0  0  0  0  0  0
   34.9870   30.7870  -15.4640 C   0  0  0  0  0  0  0  0  0  0  0  0
   34.8670   30.6040  -16.8590 C   0  0  0  0  0  0  0  0  0  0  0  0
   35.7030   29.7140  -17.5370 C   0  0  0  0  0  0  0  0  0  0  0  0
   36.6370   29.0350  -16.7810 C   0  0  0  0  0  0  0  0  0  0  0  0
   37.6440   28.0500  -17.1810 C   0  0  0  0  0  0  0  0  0  0  0  0
   37.8550   27.6300  -18.2940 O   0  0  0  0  0  0  0  0  0  0  0  0
   38.0220   28.3890  -13.9240 H   0  0  0  0  0  0  0  0  0  0  0  0
   36.0385   30.2253  -13.6342 H   0  0  0  0  0  0  0  0  0  0  0  0
   34.3173   31.4938  -14.9522 H   0  0  0  0  0  0  0  0  0  0  0  0
   34.1065   31.1688  -17.4181 H   0  0  0  0  0  0  0  0  0  0  0  0
   35.6208   29.5613  -18.6232 H   0  0  0  0  0  0  0  0  0  0  0  0
  1  2  2  0
  2  3  1  0
  3  4  1  0
  4  5  2  0
  5  6  1  0
  6  7  2  0
  7  8  1  0
  8  9  2  0
  9 10  1  0
 10 11  2  0
 10  2  1  0
  9  4  1  0
  3 12  1  0
  5 13  1  0
  6 14  1  0
  7 15  1  0
  8 16  1  0
M  END
>  <meeko>  (3) 
{"is_sidechain": [false], "free_energy": -6.782, "intermolecular_energy": -6.782, "internal_energy": 0.0}

$$$$
isatin_out
     RDKit          3D

 16 17  0  0  0  0  0  0  0  0999 V2000
   37.4890   26.9100  -18.5960 O   0  0  0  0  0  0  0  0  0  0  0  0
   37.9500   27.1410  -17.5010 C   0  0  0  0  0  0  0  0  0  0  0  0
   38.9200   26.4330  -16.8170 N   0  0  0  0  0  0  0  0  0  0  0  0
   39.1820   27.0160  -15.5810 C   0  0  0  0  0  0  0  0  0  0  0  0
   40.0850   26.5870  -14.6310 C   0  0  0  0  0  0  0  0  0  0  0  0
   40.1820   27.3350  -13.4520 C   0  0  0  0  0  0  0  0  0  0  0  0
   39.3860   28.4830  -13.2470 C   0  0  0  0  0  0  0  0  0  0  0  0
   38.4760   28.9040  -14.2200 C   0  0  0  0  0  0  0  0  0  0  0  0
   38.4000   28.1490  -15.3730 C   0  0  0  0  0  0  0  0  0  0  0  0
   37.5630   28.3190  -16.5620 C   0  0  0  0  0  0  0  0  0  0  0  0
   36.7490   29.1880  -16.7660 O   0  0  0  0  0  0  0  0  0  0  0  0
   39.3640   25.6240  -17.1590 H   0  0  0  0  0  0  0  0  0  0  0  0
   40.7044   25.6926  -14.7934 H   0  0  0  0  0  0  0  0  0  0  0  0
   40.8911   27.0229  -12.6711 H   0  0  0  0  0  0  0  0  0  0  0  0
   39.4834   29.0523  -12.3108 H   0  0  0  0  0  0  0  0  0  0  0  0
   37.8491   29.7960  -14.0739 H   0  0  0  0  0  0  0  0  0  0  0  0
  1  2  2  0
  2  3  1  0
  3  4  1  0
  4  5  2  0
  5  6  1  0
  6  7  2  0
  7  8  1  0
  8  9  2  0
  9 10  1  0
 10 11  2  0
 10  2  1  0
  9  4  1  0
  3 12  1  0
  5 13  1  0
  6 14  1  0
  7 15  1  0
  8 16  1  0
M  END
>  <meeko>  (4) 
{"is_sidechain": [false], "free_energy": -6.737, "intermolecular_energy": -6.737, "internal_energy": 0.0}

$$$$
isatin_out
     RDKit          3D

 16 17  0  0  0  0  0  0  0  0999 V2000
   40.2550   26.5440  -15.3510 O   0  0  0  0  0  0  0  0  0  0  0  0
   39.3080   27.2770  -15.5320 C   0  0  0  0  0  0  0  0  0  0  0  0
   38.5530   27.4290  -16.6780 N   0  0  0  0  0  0  0  0  0  0  0  0
   37.5470   28.3720  -16.4900 C   0  0  0  0  0  0  0  0  0  0  0  0
   36.6060   28.7820  -17.4090 C   0  0  0  0  0  0  0  0  0  0  0  0
   35.6830   29.7500  -16.9960 C   0  0  0  0  0  0  0  0  0  0  0  0
   35.7170   30.2830  -15.6900 C   0  0  0  0  0  0  0  0  0  0  0  0
   36.6780   29.8560  -14.7700 C   0  0  0  0  0  0  0  0  0  0  0  0
   37.5760   28.9010  -15.2020 C   0  0  0  0  0  0  0  0  0  0  0  0
   38.6850   28.2560  -14.4960 C   0  0  0  0  0  0  0  0  0  0  0  0
   39.0360   28.4460  -13.3550 O   0  0  0  0  0  0  0  0  0  0  0  0
   38.7070   26.9360  -17.5170 H   0  0  0  0  0  0  0  0  0  0  0  0
   36.5810   28.3653  -18.4267 H   0  0  0  0  0  0  0  0  0  0  0  0
   34.9170   30.1017  -17.7028 H   0  0  0  0  0  0  0  0  0  0  0  0
   34.9791   31.0428  -15.3930 H   0  0  0  0  0  0  0  0  0  0  0  0
   36.7171   30.2622  -13.7485 H   0  0  0  0  0  0  0  0  0  0  0  0
  1  2  2  0
  2  3  1  0
  3  4  1  0
  4  5  2  0
  5  6  1  0
  6  7  2  0
  7  8  1  0
  8  9  2  0
  9 10  1  0
 10 11  2  0
 10  2  1  0
  9  4  1  0
  3 12  1  0
  5 13  1  0
  6 14  1  0
  7 15  1  0
  8 16  1  0
M  END
>  <meeko>  (5) 
{"is_sidechain": [false], "free_energy": -6.614, "intermolecular_energy": -6.614, "internal_energy": 0.0}

$$$$
isatin_out
     RDKit          3D

 16 17  0  0  0  0  0  0  0  0999 V2000
   37.9830   27.5640  -15.2260 O   0  0  0  0  0  0  0  0  0  0  0  0
   39.1040   27.2800  -14.8670 C   0  0  0  0  0  0  0  0  0  0  0  0
   40.0450   26.5180  -15.5310 N   0  0  0  0  0  0  0  0  0  0  0  0
   41.2190   26.4190  -14.7900 C   0  0  0  0  0  0  0  0  0  0  0  0
   42.3690   25.7410  -15.1330 C   0  0  0  0  0  0  0  0  0  0  0  0
   43.4340   25.7800  -14.2260 C   0  0  0  0  0  0  0  0  0  0  0  0
   43.3310   26.4860  -13.0090 C   0  0  0  0  0  0  0  0  0  0  0  0
   42.1590   27.1690  -12.6750 C   0  0  0  0  0  0  0  0  0  0  0  0
   41.1240   27.1150  -13.5870 C   0  0  0  0  0  0  0  0  0  0  0  0
   39.7880   27.7110  -13.5380 C   0  0  0  0  0  0  0  0  0  0  0  0
   39.3210   28.3920  -12.6550 O   0  0  0  0  0  0  0  0  0  0  0  0
   39.9040   26.0990  -16.4110 H   0  0  0  0  0  0  0  0  0  0  0  0
   42.4466   25.1909  -16.0824 H   0  0  0  0  0  0  0  0  0  0  0  0
   44.3679   25.2508  -14.4663 H   0  0  0  0  0  0  0  0  0  0  0  0
   44.1840   26.4989  -12.3145 H   0  0  0  0  0  0  0  0  0  0  0  0
   42.0653   27.7237  -11.7298 H   0  0  0  0  0  0  0  0  0  0  0  0
  1  2  2  0
  2  3  1  0
  3  4  1  0
  4  5  2  0
  5  6  1  0
  6  7  2  0
  7  8  1  0
  8  9  2  0
  9 10  1  0
 10 11  2  0
 10  2  1  0
  9  4  1  0
  3 12  1  0
  5 13  1  0
  6 14  1  0
  7 15  1  0
  8 16  1  0
M  END
>  <meeko>  (6) 
{"is_sidechain": [false], "free_energy": -6.507, "intermolecular_energy": -6.507, "internal_energy": 0.0}

$$$$
isatin_out
     RDKit          3D

 16 17  0  0  0  0  0  0  0  0999 V2000
   38.2900   26.5490  -17.2650 O   0  0  0  0  0  0  0  0  0  0  0  0
   38.9690   26.6490  -16.2670 C   0  0  0  0  0  0  0  0  0  0  0  0
   38.5780   27.0510  -15.0050 N   0  0  0  0  0  0  0  0  0  0  0  0
   39.6530   27.0340  -14.1220 C   0  0  0  0  0  0  0  0  0  0  0  0
   39.6400   27.3710  -12.7860 C   0  0  0  0  0  0  0  0  0  0  0  0
   40.8490   27.2780  -12.0870 C   0  0  0  0  0  0  0  0  0  0  0  0
   42.0330   26.8550  -12.7290 C   0  0  0  0  0  0  0  0  0  0  0  0
   42.0290   26.5160  -14.0840 C   0  0  0  0  0  0  0  0  0  0  0  0
   40.8240   26.6170  -14.7500 C   0  0  0  0  0  0  0  0  0  0  0  0
   40.4890   26.3410  -16.1480 C   0  0  0  0  0  0  0  0  0  0  0  0
   41.2350   25.9570  -17.0180 O   0  0  0  0  0  0  0  0  0  0  0  0
   37.6600   27.3150  -14.7640 H   0  0  0  0  0  0  0  0  0  0  0  0
   38.7158   27.7002  -12.2884 H   0  0  0  0  0  0  0  0  0  0  0  0
   40.8771   27.5391  -11.0188 H   0  0  0  0  0  0  0  0  0  0  0  0
   42.9695   26.7916  -12.1555 H   0  0  0  0  0  0  0  0  0  0  0  0
   42.9438   26.1839  -14.5967 H   0  0  0  0  0  0  0  0  0  0  0  0
  1  2  2  0
  2  3  1  0
  3  4  1  0
  4  5  2  0
  5  6  1  0
  6  7  2  0
  7  8  1  0
  8  9  2  0
  9 10  1  0
 10 11  2  0
 10  2  1  0
  9  4  1  0
  3 12  1  0
  5 13  1  0
  6 14  1  0
  7 15  1  0
  8 16  1  0
M  END
>  <meeko>  (7) 
{"is_sidechain": [false], "free_energy": -6.504, "intermolecular_energy": -6.504, "internal_energy": 0.0}

$$$$
isatin_out
     RDKit          3D

 16 17  0  0  0  0  0  0  0  0999 V2000
   32.9540   31.9080  -16.8540 O   0  0  0  0  0  0  0  0  0  0  0  0
   33.9330   31.2320  -16.6260 C   0  0  0  0  0  0  0  0  0  0  0  0
   34.6170   31.0960  -15.4340 N   0  0  0  0  0  0  0  0  0  0  0  0
   35.6930   30.2250  -15.5750 C   0  0  0  0  0  0  0  0  0  0  0  0
   36.5960   29.8500  -14.6040 C   0  0  0  0  0  0  0  0  0  0  0  0
   37.6060   28.9540  -14.9750 C   0  0  0  0  0  0  0  0  0  0  0  0
   37.6920   28.4560  -16.2930 C   0  0  0  0  0  0  0  0  0  0  0  0
   36.7700   28.8460  -17.2660 C   0  0  0  0  0  0  0  0  0  0  0  0
   35.7840   29.7300  -16.8740 C   0  0  0  0  0  0  0  0  0  0  0  0
   34.6850   30.3230  -17.6390 C   0  0  0  0  0  0  0  0  0  0  0  0
   34.4240   30.1420  -18.8050 O   0  0  0  0  0  0  0  0  0  0  0  0
   34.3760   31.5550  -14.5970 H   0  0  0  0  0  0  0  0  0  0  0  0
   36.5261   30.2393  -13.5776 H   0  0  0  0  0  0  0  0  0  0  0  0
   38.3452   28.6326  -14.2265 H   0  0  0  0  0  0  0  0  0  0  0  0
   38.4952   27.7521  -16.5566 H   0  0  0  0  0  0  0  0  0  0  0  0
   36.8262   28.4668  -18.2970 H   0  0  0  0  0  0  0  0  0  0  0  0
  1  2  2  0
  2  3  1  0
  3  4  1  0
  4  5  2  0
  5  6  1  0
  6  7  2  0
  7  8  1  0
  8  9  2  0
  9 10  1  0
 10 11  2  0
 10  2  1  0
  9  4  1  0
  3 12  1  0
  5 13  1  0
  6 14  1  0
  7 15  1  0
  8 16  1  0
M  END
>  <meeko>  (8) 
{"is_sidechain": [false], "free_energy": -6.463, "intermolecular_energy": -6.463, "internal_energy": 0.0}

$$$$
isatin_out
     RDKit          3D

 16 17  0  0  0  0  0  0  0  0999 V2000
   36.8060   28.7870  -16.9490 O   0  0  0  0  0  0  0  0  0  0  0  0
   37.6310   28.4210  -16.1420 C   0  0  0  0  0  0  0  0  0  0  0  0
   37.9190   28.9680  -14.9070 N   0  0  0  0  0  0  0  0  0  0  0  0
   38.9360   28.2620  -14.2740 C   0  0  0  0  0  0  0  0  0  0  0  0
   39.4850   28.5170  -13.0350 C   0  0  0  0  0  0  0  0  0  0  0  0
   40.5060   27.6670  -12.5960 C   0  0  0  0  0  0  0  0  0  0  0  0
   40.9560   26.5930  -13.3930 C   0  0  0  0  0  0  0  0  0  0  0  0
   40.3900   26.3470  -14.6460 C   0  0  0  0  0  0  0  0  0  0  0  0
   39.3840   27.1990  -15.0550 C   0  0  0  0  0  0  0  0  0  0  0  0
   38.6000   27.2130  -16.2920 C   0  0  0  0  0  0  0  0  0  0  0  0
   38.6900   26.4500  -17.2240 O   0  0  0  0  0  0  0  0  0  0  0  0
   37.4640   29.7550  -14.5260 H   0  0  0  0  0  0  0  0  0  0  0  0
   39.1340   29.3558  -12.4160 H   0  0  0  0  0  0  0  0  0  0  0  0
   40.9662   27.8391  -11.6118 H   0  0  0  0  0  0  0  0  0  0  0  0
   41.7619   25.9420  -13.0232 H   0  0  0  0  0  0  0  0  0  0  0  0
   40.7302   25.5130  -15.2775 H   0  0  0  0  0  0  0  0  0  0  0  0
  1  2  2  0
  2  3  1  0
  3  4  1  0
  4  5  2  0
  5  6  1  0
  6  7  2  0
  7  8  1  0
  8  9  2  0
  9 10  1  0
 10 11  2  0
 10  2  1  0
  9  4  1  0
  3 12  1  0
  5 13  1  0
  6 14  1  0
  7 15  1  0
  8 16  1  0
M  END
>  <meeko>  (9) 
{"is_sidechain": [false], "free_energy": -6.354, "intermolecular_energy": -6.354, "internal_energy": 0.0}

$$$$
