kaempferol_maoa_out
     RDKit          3D

 31 33  0  0  0  0  0  0  0  0999 V2000
   39.8810   26.2240  -17.5280 O   0  0  0  0  0  0  0  0  0  0  0  0
   39.3730   26.9130  -16.6460 C   0  0  0  0  0  0  0  0  0  0  0  0
   38.1720   27.7320  -16.9280 C   0  0  0  0  0  0  0  0  0  0  0  0
   37.6560   27.6700  -18.2100 O   0  0  0  0  0  0  0  0  0  0  0  0
   37.6470   28.4680  -15.9310 C   0  0  0  0  0  0  0  0  0  0  0  0
   36.4430   29.3120  -16.0920 C   0  0  0  0  0  0  0  0  0  0  0  0
   35.8660   29.5450  -17.3500 C   0  0  0  0  0  0  0  0  0  0  0  0
   34.7410   30.3650  -17.4830 C   0  0  0  0  0  0  0  0  0  0  0  0
   34.1940   30.9640  -16.3550 C   0  0  0  0  0  0  0  0  0  0  0  0
   33.0980   31.7710  -16.4380 O   0  0  0  0  0  0  0  0  0  0  0  0
   34.7520   30.7580  -15.1010 C   0  0  0  0  0  0  0  0  0  0  0  0
   35.8760   29.9370  -14.9690 C   0  0  0  0  0  0  0  0  0  0  0  0
   38.1600   28.5010  -14.6390 O   0  0  0  0  0  0  0  0  0  0  0  0
   39.2760   27.7580  -14.3480 C   0  0  0  0  0  0  0  0  0  0  0  0
   39.7640   27.8280  -13.0440 C   0  0  0  0  0  0  0  0  0  0  0  0
   40.8930   27.0940  -12.6940 C   0  0  0  0  0  0  0  0  0  0  0  0
   41.3370   27.1900  -11.4090 O   0  0  0  0  0  0  0  0  0  0  0  0
   41.5450   26.2890  -13.6260 C   0  0  0  0  0  0  0  0  0  0  0  0
   41.0540   26.2230  -14.9270 C   0  0  0  0  0  0  0  0  0  0  0  0
   41.7320   25.4180  -15.8010 O   0  0  0  0  0  0  0  0  0  0  0  0
   39.9190   26.9580  -15.2890 C   0  0  0  0  0  0  0  0  0  0  0  0
   38.0830   27.1500  -18.8610 H   0  0  0  0  0  0  0  0  0  0  0  0
   36.3045   29.0763  -18.2433 H   0  0  0  0  0  0  0  0  0  0  0  0
   34.2926   30.5345  -18.4731 H   0  0  0  0  0  0  0  0  0  0  0  0
   32.7090   32.1160  -15.6580 H   0  0  0  0  0  0  0  0  0  0  0  0
   34.3118   31.2386  -14.2148 H   0  0  0  0  0  0  0  0  0  0  0  0
   36.3209   29.7789  -13.9755 H   0  0  0  0  0  0  0  0  0  0  0  0
   39.2601   28.4590  -12.2971 H   0  0  0  0  0  0  0  0  0  0  0  0
   42.1440   27.6300  -11.2240 H   0  0  0  0  0  0  0  0  0  0  0  0
   42.4365   25.7129  -13.3373 H   0  0  0  0  0  0  0  0  0  0  0  0
   42.1470   24.6360  -15.4930 H   0  0  0  0  0  0  0  0  0  0  0  0
  1  2  2  0
  2  3  1  0
  3  4  1  0
  3  5  2  0
  5  6  1  0
  6  7  2  0
  7  8  1  0
  8  9  2  0
  9 10  1  0
  9 11  1  0
 11 12  2  0
  5 13  1  0
 13 14  1  0
 14 15  2  0
 15 16  1  0
 16 17  1  0
 16 18  2  0
 18 19  1  0
 19 20  1  0
 19 21  2  0
 21  2  1  0
 12  6  1  0
 21 14  1  0
  4 22  1  0
  7 23  1  0
  8 24  1  0
 10 25  1  0
 11 26  1  0
 12 27  1  0
 15 28  1  0
 17 29  1  0
 18 30  1  0
 20 31  1  0
M  END
>  <meeko>  (1) 
{"is_sidechain": [false], "free_energy": -9.624, "intermolecular_energy": -11.312, "internal_energy": 0.333}

$$$$
kaempferol_maoa_out
     RDKit          3D

 31 33  0  0  0  0  0  0  0  0999 V2000
   37.6390   27.1550  -18.3080 O   0  0  0  0  0  0  0  0  0  0  0  0
   37.7940   27.6610  -17.1990 C   0  0  0  0  0  0  0  0  0  0  0  0
   38.8760   27.1940  -16.3020 C   0  0  0  0  0  0  0  0  0  0  0  0
   39.6940   26.1850  -16.7770 O   0  0  0  0  0  0  0  0  0  0  0  0
   39.0110   27.7790  -15.0980 C   0  0  0  0  0  0  0  0  0  0  0  0
   40.0610   27.4050  -14.1260 C   0  0  0  0  0  0  0  0  0  0  0  0
   39.9580   27.7310  -12.7640 C   0  0  0  0  0  0  0  0  0  0  0  0
   40.9740   27.3890  -11.8660 C   0  0  0  0  0  0  0  0  0  0  0  0
   42.1020   26.7240  -12.3300 C   0  0  0  0  0  0  0  0  0  0  0  0
   43.1150   26.3710  -11.4890 O   0  0  0  0  0  0  0  0  0  0  0  0
   42.2320   26.3990  -13.6730 C   0  0  0  0  0  0  0  0  0  0  0  0
   41.2160   26.7410  -14.5700 C   0  0  0  0  0  0  0  0  0  0  0  0
   38.1970   28.8110  -14.6420 O   0  0  0  0  0  0  0  0  0  0  0  0
   37.1820   29.2610  -15.4470 C   0  0  0  0  0  0  0  0  0  0  0  0
   36.3830   30.2890  -14.9480 C   0  0  0  0  0  0  0  0  0  0  0  0
   35.3400   30.7860  -15.7240 C   0  0  0  0  0  0  0  0  0  0  0  0
   34.5840   31.7910  -15.1980 O   0  0  0  0  0  0  0  0  0  0  0  0
   35.0790   30.2720  -16.9920 C   0  0  0  0  0  0  0  0  0  0  0  0
   35.8790   29.2450  -17.4850 C   0  0  0  0  0  0  0  0  0  0  0  0
   35.5790   28.7770  -18.7360 O   0  0  0  0  0  0  0  0  0  0  0  0
   36.9310   28.7400  -16.7130 C   0  0  0  0  0  0  0  0  0  0  0  0
   39.3500   25.3220  -16.9000 H   0  0  0  0  0  0  0  0  0  0  0  0
   39.0667   28.2622  -12.3988 H   0  0  0  0  0  0  0  0  0  0  0  0
   40.8807   27.6446  -10.8002 H   0  0  0  0  0  0  0  0  0  0  0  0
   42.9450   26.2470  -10.5760 H   0  0  0  0  0  0  0  0  0  0  0  0
   43.1306   25.8746  -14.0300 H   0  0  0  0  0  0  0  0  0  0  0  0
   41.3223   26.4873  -15.6351 H   0  0  0  0  0  0  0  0  0  0  0  0
   36.5757   30.7044  -13.9478 H   0  0  0  0  0  0  0  0  0  0  0  0
   33.6870   31.8850  -15.4540 H   0  0  0  0  0  0  0  0  0  0  0  0
   34.2514   30.6724  -17.5960 H   0  0  0  0  0  0  0  0  0  0  0  0
   35.8710   27.9280  -19.0020 H   0  0  0  0  0  0  0  0  0  0  0  0
  1  2  2  0
  2  3  1  0
  3  4  1  0
  3  5  2  0
  5  6  1  0
  6  7  2  0
  7  8  1  0
  8  9  2  0
  9 10  1  0
  9 11  1  0
 11 12  2  0
  5 13  1  0
 13 14  1  0
 14 15  2  0
 15 16  1  0
 16 17  1  0
 16 18  2  0
 18 19  1  0
 19 20  1  0
 19 21  2  0
 21  2  1  0
 12  6  1  0
 21 14  1  0
  4 22  1  0
  7 23  1  0
  8 24  1  0
 10 25  1  0
 11 26  1  0
 12 27  1  0
 15 28  1  0
 17 29  1  0
 18 30  1  0
 20 31  1  0
M  END
>  <meeko>  (2) 
{"is_sidechain": [false], "free_energy": -8.886, "intermolecular_energy": -10.441, "internal_energy": 0.331}

$$$$
kaempferol_maoa_out
     RDKit          3D

 31 33  0  0  0  0  0  0  0  0999 V2000
   37.4150   26.9780  -18.5480 O   0  0  0  0  0  0  0  0  0  0  0  0
   37.1830   27.8150  -17.6780 C   0  0  0  0  0  0  0  0  0  0  0  0
   36.1180   28.8250  -17.8680 C   0  0  0  0  0  0  0  0  0  0  0  0
   35.4020   28.7690  -19.0500 O   0  0  0  0  0  0  0  0  0  0  0  0
   35.8980   29.7200  -16.8880 C   0  0  0  0  0  0  0  0  0  0  0  0
   34.8530   30.7650  -16.9610 C   0  0  0  0  0  0  0  0  0  0  0  0
   33.7250   30.7410  -16.1270 C   0  0  0  0  0  0  0  0  0  0  0  0
   32.7370   31.7260  -16.2280 C   0  0  0  0  0  0  0  0  0  0  0  0
   32.8720   32.7360  -17.1730 C   0  0  0  0  0  0  0  0  0  0  0  0
   31.9340   33.7150  -17.3060 O   0  0  0  0  0  0  0  0  0  0  0  0
   33.9730   32.7750  -18.0170 C   0  0  0  0  0  0  0  0  0  0  0  0
   34.9600   31.7910  -17.9140 C   0  0  0  0  0  0  0  0  0  0  0  0
   36.6080   29.7500  -15.6920 O   0  0  0  0  0  0  0  0  0  0  0  0
   37.6050   28.8310  -15.4890 C   0  0  0  0  0  0  0  0  0  0  0  0
   38.2990   28.9030  -14.2820 C   0  0  0  0  0  0  0  0  0  0  0  0
   39.3210   27.9940  -14.0220 C   0  0  0  0  0  0  0  0  0  0  0  0
   39.9740   28.0980  -12.8300 O   0  0  0  0  0  0  0  0  0  0  0  0
   39.6630   27.0120  -14.9500 C   0  0  0  0  0  0  0  0  0  0  0  0
   38.9670   26.9450  -16.1540 C   0  0  0  0  0  0  0  0  0  0  0  0
   39.3430   25.9620  -17.0290 O   0  0  0  0  0  0  0  0  0  0  0  0
   37.9380   27.8540  -16.4240 C   0  0  0  0  0  0  0  0  0  0  0  0
   35.8510   28.8200  -19.8720 H   0  0  0  0  0  0  0  0  0  0  0  0
   33.6162   29.9371  -15.3841 H   0  0  0  0  0  0  0  0  0  0  0  0
   31.8599   31.7014  -15.5646 H   0  0  0  0  0  0  0  0  0  0  0  0
   32.1920   34.5810  -17.5570 H   0  0  0  0  0  0  0  0  0  0  0  0
   34.0684   33.5770  -18.7638 H   0  0  0  0  0  0  0  0  0  0  0  0
   35.8300   31.8204  -18.5865 H   0  0  0  0  0  0  0  0  0  0  0  0
   38.0408   29.6729  -13.5400 H   0  0  0  0  0  0  0  0  0  0  0  0
   39.7330   27.5430  -12.1150 H   0  0  0  0  0  0  0  0  0  0  0  0
   40.4724   26.2991  -14.7340 H   0  0  0  0  0  0  0  0  0  0  0  0
   39.4060   25.0740  -16.7380 H   0  0  0  0  0  0  0  0  0  0  0  0
  1  2  2  0
  2  3  1  0
  3  4  1  0
  3  5  2  0
  5  6  1  0
  6  7  2  0
  7  8  1  0
  8  9  2  0
  9 10  1  0
  9 11  1  0
 11 12  2  0
  5 13  1  0
 13 14  1  0
 14 15  2  0
 15 16  1  0
 16 17  1  0
 16 18  2  0
 18 19  1  0
 19 20  1  0
 19 21  2  0
 21  2  1  0
 12  6  1  0
 21 14  1  0
  4 22  1  0
  7 23  1  0
  8 24  1  0
 10 25  1  0
 11 26  1  0
 12 27  1  0
 15 28  1  0
 17 29  1  0
 18 30  1  0
 20 31  1  0
M  END
>  <meeko>  (3) 
{"is_sidechain": [false], "free_energy": -8.734, "intermolecular_energy": -9.748, "internal_energy": -0.184}

$$$$
kaempferol_maoa_out
     RDKit          3D

 31 33  0  0  0  0  0  0  0  0999 V2000
   36.0140   28.8050  -18.4860 O   0  0  0  0  0  0  0  0  0  0  0  0
   36.5400   28.8000  -17.3750 C   0  0  0  0  0  0  0  0  0  0  0  0
   37.7280   27.9580  -17.1080 C   0  0  0  0  0  0  0  0  0  0  0  0
   38.2130   27.2030  -18.1600 O   0  0  0  0  0  0  0  0  0  0  0  0
   38.2730   27.9860  -15.8780 C   0  0  0  0  0  0  0  0  0  0  0  0
   39.4670   27.2000  -15.4990 C   0  0  0  0  0  0  0  0  0  0  0  0
   39.9440   27.1680  -14.1800 C   0  0  0  0  0  0  0  0  0  0  0  0
   41.0880   26.4370  -13.8470 C   0  0  0  0  0  0  0  0  0  0  0  0
   41.7660   25.7390  -14.8400 C   0  0  0  0  0  0  0  0  0  0  0  0
   42.8850   25.0130  -14.5610 O   0  0  0  0  0  0  0  0  0  0  0  0
   41.3210   25.7630  -16.1540 C   0  0  0  0  0  0  0  0  0  0  0  0
   40.1760   26.4930  -16.4840 C   0  0  0  0  0  0  0  0  0  0  0  0
   37.7910   28.7700  -14.8350 O   0  0  0  0  0  0  0  0  0  0  0  0
   36.6870   29.5560  -15.0500 C   0  0  0  0  0  0  0  0  0  0  0  0
   36.2300   30.3180  -13.9750 C   0  0  0  0  0  0  0  0  0  0  0  0
   35.1150   31.1340  -14.1370 C   0  0  0  0  0  0  0  0  0  0  0  0
   34.7020   31.8620  -13.0620 O   0  0  0  0  0  0  0  0  0  0  0  0
   34.4450   31.2020  -15.3570 C   0  0  0  0  0  0  0  0  0  0  0  0
   34.9060   30.4390  -16.4270 C   0  0  0  0  0  0  0  0  0  0  0  0
   34.2110   30.5440  -17.6020 O   0  0  0  0  0  0  0  0  0  0  0  0
   36.0270   29.6160  -16.2740 C   0  0  0  0  0  0  0  0  0  0  0  0
   38.2510   27.5700  -19.0210 H   0  0  0  0  0  0  0  0  0  0  0  0
   39.4101   27.7261  -13.3967 H   0  0  0  0  0  0  0  0  0  0  0  0
   41.4488   26.4142  -12.8081 H   0  0  0  0  0  0  0  0  0  0  0  0
   43.5930   24.9860  -15.1760 H   0  0  0  0  0  0  0  0  0  0  0  0
   41.8670   25.2099  -16.9324 H   0  0  0  0  0  0  0  0  0  0  0  0
   39.8261   26.5142  -17.5267 H   0  0  0  0  0  0  0  0  0  0  0  0
   36.7478   30.2741  -13.0055 H   0  0  0  0  0  0  0  0  0  0  0  0
   35.2670   31.9660  -12.3220 H   0  0  0  0  0  0  0  0  0  0  0  0
   33.5636   31.8498  -15.4734 H   0  0  0  0  0  0  0  0  0  0  0  0
   33.9190   29.7720  -18.0450 H   0  0  0  0  0  0  0  0  0  0  0  0
  1  2  2  0
  2  3  1  0
  3  4  1  0
  3  5  2  0
  5  6  1  0
  6  7  2  0
  7  8  1  0
  8  9  2  0
  9 10  1  0
  9 11  1  0
 11 12  2  0
  5 13  1  0
 13 14  1  0
 14 15  2  0
 15 16  1  0
 16 17  1  0
 16 18  2  0
 18 19  1  0
 19 20  1  0
 19 21  2  0
 21  2  1  0
 12  6  1  0
 21 14  1  0
  4 22  1  0
  7 23  1  0
  8 24  1  0
 10 25  1  0
 11 26  1  0
 12 27  1  0
 15 28  1  0
 17 29  1  0
 18 30  1  0
 20 31  1  0
M  END
>  <meeko>  (4) 
{"is_sidechain": [false], "free_energy": -8.633, "intermolecular_energy": -10.226, "internal_energy": 0.411}

$$$$
kaempferol_maoa_out
     RDKit          3D

 31 33  0  0  0  0  0  0  0  0999 V2000
   38.7510   28.7150  -13.0470 O   0  0  0  0  0  0  0  0  0  0  0  0
   39.4380   28.0410  -13.8110 C   0  0  0  0  0  0  0  0  0  0  0  0
   40.7760   27.5620  -13.3970 C   0  0  0  0  0  0  0  0  0  0  0  0
   41.1970   27.8960  -12.1230 O   0  0  0  0  0  0  0  0  0  0  0  0
   41.4930   26.8250  -14.2660 C   0  0  0  0  0  0  0  0  0  0  0  0
   42.8330   26.2810  -13.9580 C   0  0  0  0  0  0  0  0  0  0  0  0
   43.7540   26.9870  -13.1670 C   0  0  0  0  0  0  0  0  0  0  0  0
   45.0250   26.4650  -12.9070 C   0  0  0  0  0  0  0  0  0  0  0  0
   45.3830   25.2350  -13.4460 C   0  0  0  0  0  0  0  0  0  0  0  0
   46.6100   24.6890  -13.2180 O   0  0  0  0  0  0  0  0  0  0  0  0
   44.4940   24.5220  -14.2390 C   0  0  0  0  0  0  0  0  0  0  0  0
   43.2240   25.0450  -14.4980 C   0  0  0  0  0  0  0  0  0  0  0  0
   41.0470   26.4740  -15.5360 O   0  0  0  0  0  0  0  0  0  0  0  0
   39.8140   26.9090  -15.9510 C   0  0  0  0  0  0  0  0  0  0  0  0
   39.4110   26.5440  -17.2350 C   0  0  0  0  0  0  0  0  0  0  0  0
   38.1680   26.9570  -17.7070 C   0  0  0  0  0  0  0  0  0  0  0  0
   37.8120   26.5790  -18.9670 O   0  0  0  0  0  0  0  0  0  0  0  0
   37.3200   27.7310  -16.9170 C   0  0  0  0  0  0  0  0  0  0  0  0
   37.7290   28.0920  -15.6360 C   0  0  0  0  0  0  0  0  0  0  0  0
   36.8570   28.8520  -14.9040 O   0  0  0  0  0  0  0  0  0  0  0  0
   38.9750   27.6810  -15.1530 C   0  0  0  0  0  0  0  0  0  0  0  0
   41.5460   28.7480  -11.9540 H   0  0  0  0  0  0  0  0  0  0  0  0
   43.4719   27.9635  -12.7464 H   0  0  0  0  0  0  0  0  0  0  0  0
   45.7360   27.0237  -12.2806 H   0  0  0  0  0  0  0  0  0  0  0  0
   47.2170   25.1200  -12.6470 H   0  0  0  0  0  0  0  0  0  0  0  0
   44.7878   23.5498  -14.6616 H   0  0  0  0  0  0  0  0  0  0  0  0
   42.5229   24.4822  -15.1319 H   0  0  0  0  0  0  0  0  0  0  0  0
   40.0703   25.9343  -17.8703 H   0  0  0  0  0  0  0  0  0  0  0  0
   38.3680   26.7870  -19.6920 H   0  0  0  0  0  0  0  0  0  0  0  0
   36.3404   28.0525  -17.3005 H   0  0  0  0  0  0  0  0  0  0  0  0
   36.6090   29.7040  -15.2060 H   0  0  0  0  0  0  0  0  0  0  0  0
  1  2  2  0
  2  3  1  0
  3  4  1  0
  3  5  2  0
  5  6  1  0
  6  7  2  0
  7  8  1  0
  8  9  2  0
  9 10  1  0
  9 11  1  0
 11 12  2  0
  5 13  1  0
 13 14  1  0
 14 15  2  0
 15 16  1  0
 16 17  1  0
 16 18  2  0
 18 19  1  0
 19 20  1  0
 19 21  2  0
 21  2  1  0
 12  6  1  0
 21 14  1  0
  4 22  1  0
  7 23  1  0
  8 24  1  0
 10 25  1  0
 11 26  1  0
 12 27  1  0
 15 28  1  0
 17 29  1  0
 18 30  1  0
 20 31  1  0
M  END
>  <meeko>  (5) 
{"is_sidechain": [false], "free_energy": -8.608, "intermolecular_energy": -9.898, "internal_energy": 0.114}

$$$$
kaempferol_maoa_out
     RDKit          3D

 31 33  0  0  0  0  0  0  0  0999 V2000
   38.7950   28.8310  -12.9420 O   0  0  0  0  0  0  0  0  0  0  0  0
   38.4100   28.6720  -14.0990 C   0  0  0  0  0  0  0  0  0  0  0  0
   37.2200   29.3940  -14.6030 C   0  0  0  0  0  0  0  0  0  0  0  0
   36.5840   30.2500  -13.7220 O   0  0  0  0  0  0  0  0  0  0  0  0
   36.8360   29.1920  -15.8770 C   0  0  0  0  0  0  0  0  0  0  0  0
   35.6730   29.8680  -16.4920 C   0  0  0  0  0  0  0  0  0  0  0  0
   35.4080   29.7780  -17.8680 C   0  0  0  0  0  0  0  0  0  0  0  0
   34.3170   30.4430  -18.4330 C   0  0  0  0  0  0  0  0  0  0  0  0
   33.4880   31.2110  -17.6230 C   0  0  0  0  0  0  0  0  0  0  0  0
   32.4130   31.8750  -18.1320 O   0  0  0  0  0  0  0  0  0  0  0  0
   33.7350   31.3240  -16.2620 C   0  0  0  0  0  0  0  0  0  0  0  0
   34.8260   30.6570  -15.6980 C   0  0  0  0  0  0  0  0  0  0  0  0
   37.5000   28.3490  -16.7610 O   0  0  0  0  0  0  0  0  0  0  0  0
   38.6030   27.6610  -16.3220 C   0  0  0  0  0  0  0  0  0  0  0  0
   39.2310   26.8170  -17.2370 C   0  0  0  0  0  0  0  0  0  0  0  0
   40.3550   26.0960  -16.8450 C   0  0  0  0  0  0  0  0  0  0  0  0
   40.9400   25.2840  -17.7710 O   0  0  0  0  0  0  0  0  0  0  0  0
   40.8630   26.2020  -15.5530 C   0  0  0  0  0  0  0  0  0  0  0  0
   40.2310   27.0460  -14.6430 C   0  0  0  0  0  0  0  0  0  0  0  0
   40.7720   27.1130  -13.3870 O   0  0  0  0  0  0  0  0  0  0  0  0
   39.1010   27.7750  -15.0270 C   0  0  0  0  0  0  0  0  0  0  0  0
   35.9010   30.8140  -14.0280 H   0  0  0  0  0  0  0  0  0  0  0  0
   36.0682   29.1759  -18.5096 H   0  0  0  0  0  0  0  0  0  0  0  0
   34.1153   30.3596  -19.5111 H   0  0  0  0  0  0  0  0  0  0  0  0
   31.5970   31.4280  -18.2500 H   0  0  0  0  0  0  0  0  0  0  0  0
   33.0748   31.9360  -15.6298 H   0  0  0  0  0  0  0  0  0  0  0  0
   35.0231   30.7514  -14.6199 H   0  0  0  0  0  0  0  0  0  0  0  0
   38.8410   26.7217  -18.2611 H   0  0  0  0  0  0  0  0  0  0  0  0
   40.8890   25.4990  -18.6810 H   0  0  0  0  0  0  0  0  0  0  0  0
   41.7519   25.6267  -15.2549 H   0  0  0  0  0  0  0  0  0  0  0  0
   40.7930   27.9290  -12.9280 H   0  0  0  0  0  0  0  0  0  0  0  0
  1  2  2  0
  2  3  1  0
  3  4  1  0
  3  5  2  0
  5  6  1  0
  6  7  2  0
  7  8  1  0
  8  9  2  0
  9 10  1  0
  9 11  1  0
 11 12  2  0
  5 13  1  0
 13 14  1  0
 14 15  2  0
 15 16  1  0
 16 17  1  0
 16 18  2  0
 18 19  1  0
 19 20  1  0
 19 21  2  0
 21  2  1  0
 12  6  1  0
 21 14  1  0
  4 22  1  0
  7 23  1  0
  8 24  1  0
 10 25  1  0
 11 26  1  0
 12 27  1  0
 15 28  1  0
 17 29  1  0
 18 30  1  0
 20 31  1  0
M  END
>  <meeko>  (6) 
{"is_sidechain": [false], "free_energy": -8.565, "intermolecular_energy": -10.146, "internal_energy": 0.411}

$$$$
kaempferol_maoa_out
     RDKit          3D

 31 33  0  0  0  0  0  0  0  0999 V2000
   37.5390   29.9470  -13.1790 O   0  0  0  0  0  0  0  0  0  0  0  0
   37.1090   29.8390  -14.3260 C   0  0  0  0  0  0  0  0  0  0  0  0
   36.0600   30.7560  -14.8260 C   0  0  0  0  0  0  0  0  0  0  0  0
   35.6080   31.7300  -13.9550 O   0  0  0  0  0  0  0  0  0  0  0  0
   35.6210   30.6030  -16.0890 C   0  0  0  0  0  0  0  0  0  0  0  0
   34.5880   31.4670  -16.7010 C   0  0  0  0  0  0  0  0  0  0  0  0
   34.9220   32.6460  -17.3860 C   0  0  0  0  0  0  0  0  0  0  0  0
   33.9280   33.4610  -17.9370 C   0  0  0  0  0  0  0  0  0  0  0  0
   32.5930   33.1020  -17.7970 C   0  0  0  0  0  0  0  0  0  0  0  0
   31.5920   33.8670  -18.3180 O   0  0  0  0  0  0  0  0  0  0  0  0
   32.2370   31.9470  -17.1150 C   0  0  0  0  0  0  0  0  0  0  0  0
   33.2310   31.1330  -16.5650 C   0  0  0  0  0  0  0  0  0  0  0  0
   36.1020   29.6350  -16.9640 O   0  0  0  0  0  0  0  0  0  0  0  0
   37.0690   28.7660  -16.5280 C   0  0  0  0  0  0  0  0  0  0  0  0
   37.5160   27.8040  -17.4330 C   0  0  0  0  0  0  0  0  0  0  0  0
   38.4970   26.8980  -17.0430 C   0  0  0  0  0  0  0  0  0  0  0  0
   38.9060   25.9750  -17.9590 O   0  0  0  0  0  0  0  0  0  0  0  0
   39.0420   26.9350  -15.7610 C   0  0  0  0  0  0  0  0  0  0  0  0
   38.5920   27.8970  -14.8610 C   0  0  0  0  0  0  0  0  0  0  0  0
   39.1610   27.8890  -13.6160 O   0  0  0  0  0  0  0  0  0  0  0  0
   37.6060   28.8130  -15.2440 C   0  0  0  0  0  0  0  0  0  0  0  0
   34.8700   32.2590  -14.1860 H   0  0  0  0  0  0  0  0  0  0  0  0
   35.9789   32.9324  -17.4907 H   0  0  0  0  0  0  0  0  0  0  0  0
   34.2010   34.3795  -18.4772 H   0  0  0  0  0  0  0  0  0  0  0  0
   31.7460   34.7720  -18.5120 H   0  0  0  0  0  0  0  0  0  0  0  0
   31.1770   31.6734  -17.0078 H   0  0  0  0  0  0  0  0  0  0  0  0
   32.9472   30.2208  -16.0197 H   0  0  0  0  0  0  0  0  0  0  0  0
   37.0957   27.7618  -18.4487 H   0  0  0  0  0  0  0  0  0  0  0  0
   38.3600   25.7700  -18.6920 H   0  0  0  0  0  0  0  0  0  0  0  0
   39.8175   26.2136  -15.4641 H   0  0  0  0  0  0  0  0  0  0  0  0
   39.7060   28.6010  -13.3450 H   0  0  0  0  0  0  0  0  0  0  0  0
  1  2  2  0
  2  3  1  0
  3  4  1  0
  3  5  2  0
  5  6  1  0
  6  7  2  0
  7  8  1  0
  8  9  2  0
  9 10  1  0
  9 11  1  0
 11 12  2  0
  5 13  1  0
 13 14  1  0
 14 15  2  0
 15 16  1  0
 16 17  1  0
 16 18  2  0
 18 19  1  0
 19 20  1  0
 19 21  2  0
 21  2  1  0
 12  6  1  0
 21 14  1  0
  4 22  1  0
  7 23  1  0
  8 24  1  0
 10 25  1  0
 11 26  1  0
 12 27  1  0
 15 28  1  0
 17 29  1  0
 18 30  1  0
 20 31  1  0
M  END
>  <meeko>  (7) 
{"is_sidechain": [false], "free_energy": -8.228, "intermolecular_energy": -9.041, "internal_energy": -0.298}

$$$$
kaempferol_maoa_out
     RDKit          3D

 31 33  0  0  0  0  0  0  0  0999 V2000
   37.6660   33.3480  -17.8210 O   0  0  0  0  0  0  0  0  0  0  0  0
   37.1290   32.3920  -17.2650 C   0  0  0  0  0  0  0  0  0  0  0  0
   37.9450   31.3080  -16.6730 C   0  0  0  0  0  0  0  0  0  0  0  0
   39.3190   31.4330  -16.7660 O   0  0  0  0  0  0  0  0  0  0  0  0
   37.3140   30.2830  -16.0720 C   0  0  0  0  0  0  0  0  0  0  0  0
   38.0240   29.1530  -15.4350 C   0  0  0  0  0  0  0  0  0  0  0  0
   38.5860   29.2610  -14.1530 C   0  0  0  0  0  0  0  0  0  0  0  0
   39.2740   28.1880  -13.5780 C   0  0  0  0  0  0  0  0  0  0  0  0
   39.4090   27.0020  -14.2890 C   0  0  0  0  0  0  0  0  0  0  0  0
   40.0710   25.9310  -13.7670 O   0  0  0  0  0  0  0  0  0  0  0  0
   38.8710   26.8730  -15.5620 C   0  0  0  0  0  0  0  0  0  0  0  0
   38.1830   27.9460  -16.1350 C   0  0  0  0  0  0  0  0  0  0  0  0
   35.9310   30.1820  -15.9620 O   0  0  0  0  0  0  0  0  0  0  0  0
   35.1470   31.1670  -16.5060 C   0  0  0  0  0  0  0  0  0  0  0  0
   33.7660   31.0220  -16.3840 C   0  0  0  0  0  0  0  0  0  0  0  0
   32.9240   31.9930  -16.9170 C   0  0  0  0  0  0  0  0  0  0  0  0
   31.5800   31.8120  -16.7750 O   0  0  0  0  0  0  0  0  0  0  0  0
   33.4380   33.1090  -17.5720 C   0  0  0  0  0  0  0  0  0  0  0  0
   34.8180   33.2490  -17.6920 C   0  0  0  0  0  0  0  0  0  0  0  0
   35.2690   34.3650  -18.3450 O   0  0  0  0  0  0  0  0  0  0  0  0
   35.6730   32.2790  -17.1590 C   0  0  0  0  0  0  0  0  0  0  0  0
   39.7420   32.2000  -16.4330 H   0  0  0  0  0  0  0  0  0  0  0  0
   38.4837   30.2024  -13.5933 H   0  0  0  0  0  0  0  0  0  0  0  0
   39.7051   28.2822  -12.5704 H   0  0  0  0  0  0  0  0  0  0  0  0
   39.7530   25.5180  -12.9880 H   0  0  0  0  0  0  0  0  0  0  0  0
   38.9857   25.9304  -16.1173 H   0  0  0  0  0  0  0  0  0  0  0  0
   37.7612   27.8440  -17.1458 H   0  0  0  0  0  0  0  0  0  0  0  0
   33.3447   30.1457  -15.8697 H   0  0  0  0  0  0  0  0  0  0  0  0
   31.0130   32.5550  -16.7030 H   0  0  0  0  0  0  0  0  0  0  0  0
   32.7625   33.8703  -17.9893 H   0  0  0  0  0  0  0  0  0  0  0  0
   35.2530   34.3990  -19.2810 H   0  0  0  0  0  0  0  0  0  0  0  0
  1  2  2  0
  2  3  1  0
  3  4  1  0
  3  5  2  0
  5  6  1  0
  6  7  2  0
  7  8  1  0
  8  9  2  0
  9 10  1  0
  9 11  1  0
 11 12  2  0
  5 13  1  0
 13 14  1  0
 14 15  2  0
 15 16  1  0
 16 17  1  0
 16 18  2  0
 18 19  1  0
 19 20  1  0
 19 21  2  0
 21  2  1  0
 12  6  1  0
 21 14  1  0
  4 22  1  0
  7 23  1  0
  8 24  1  0
 10 25  1  0
 11 26  1  0
 12 27  1  0
 15 28  1  0
 17 29  1  0
 18 30  1  0
 20 31  1  0
M  END
>  <meeko>  (8) 
{"is_sidechain": [false], "free_energy": -8.17, "intermolecular_energy": -8.984, "internal_energy": -0.285}

$$$$
kaempferol_maoa_out
     RDKit          3D

 31 33  0  0  0  0  0  0  0  0999 V2000
   36.3930   30.6620  -13.4940 O   0  0  0  0  0  0  0  0  0  0  0  0
   36.8000   29.9310  -14.3950 C   0  0  0  0  0  0  0  0  0  0  0  0
   37.9880   29.0720  -14.1890 C   0  0  0  0  0  0  0  0  0  0  0  0
   38.5960   29.1260  -12.9480 O   0  0  0  0  0  0  0  0  0  0  0  0
   38.3960   28.2860  -15.2020 C   0  0  0  0  0  0  0  0  0  0  0  0
   39.5600   27.3770  -15.1080 C   0  0  0  0  0  0  0  0  0  0  0  0
   40.2950   27.2390  -13.9200 C   0  0  0  0  0  0  0  0  0  0  0  0
   41.4060   26.3920  -13.8580 C   0  0  0  0  0  0  0  0  0  0  0  0
   41.7910   25.6850  -14.9910 C   0  0  0  0  0  0  0  0  0  0  0  0
   42.8670   24.8490  -14.9760 O   0  0  0  0  0  0  0  0  0  0  0  0
   41.0870   25.8130  -16.1800 C   0  0  0  0  0  0  0  0  0  0  0  0
   39.9760   26.6590  -16.2400 C   0  0  0  0  0  0  0  0  0  0  0  0
   37.7610   28.2220  -16.4370 O   0  0  0  0  0  0  0  0  0  0  0  0
   36.6610   29.0100  -16.6610 C   0  0  0  0  0  0  0  0  0  0  0  0
   36.0610   28.9240  -17.9160 C   0  0  0  0  0  0  0  0  0  0  0  0
   34.9410   29.7010  -18.1960 C   0  0  0  0  0  0  0  0  0  0  0  0
   34.3850   29.5860  -19.4350 O   0  0  0  0  0  0  0  0  0  0  0  0
   34.4090   30.5660  -17.2430 C   0  0  0  0  0  0  0  0  0  0  0  0
   35.0130   30.6490  -15.9910 C   0  0  0  0  0  0  0  0  0  0  0  0
   34.4500   31.5150  -15.0920 O   0  0  0  0  0  0  0  0  0  0  0  0
   36.1390   29.8710  -15.6990 C   0  0  0  0  0  0  0  0  0  0  0  0
   38.5540   29.9120  -12.4400 H   0  0  0  0  0  0  0  0  0  0  0  0
   39.9931   27.8045  -13.0261 H   0  0  0  0  0  0  0  0  0  0  0  0
   41.9707   26.2861  -12.9200 H   0  0  0  0  0  0  0  0  0  0  0  0
   42.7630   23.9460  -15.2080 H   0  0  0  0  0  0  0  0  0  0  0  0
   41.4020   25.2510  -17.0716 H   0  0  0  0  0  0  0  0  0  0  0  0
   39.4218   26.7632  -17.1844 H   0  0  0  0  0  0  0  0  0  0  0  0
   36.4700   28.2465  -18.6800 H   0  0  0  0  0  0  0  0  0  0  0  0
   34.7490   28.9880  -20.0580 H   0  0  0  0  0  0  0  0  0  0  0  0
   33.5235   31.1755  -17.4761 H   0  0  0  0  0  0  0  0  0  0  0  0
   33.5480   31.7550  -15.1740 H   0  0  0  0  0  0  0  0  0  0  0  0
  1  2  2  0
  2  3  1  0
  3  4  1  0
  3  5  2  0
  5  6  1  0
  6  7  2  0
  7  8  1  0
  8  9  2  0
  9 10  1  0
  9 11  1  0
 11 12  2  0
  5 13  1  0
 13 14  1  0
 14 15  2  0
 15 16  1  0
 16 17  1  0
 16 18  2  0
 18 19  1  0
 19 20  1  0
 19 21  2  0
 21  2  1  0
 12  6  1  0
 21 14  1  0
  4 22  1  0
  7 23  1  0
  8 24  1  0
 10 25  1  0
 11 26  1  0
 12 27  1  0
 15 28  1  0
 17 29  1  0
 18 30  1  0
 20 31  1  0
M  END
>  <meeko>  (9) 
{"is_sidechain": [false], "free_energy": -7.235, "intermolecular_energy": -8.52, "internal_energy": 0.349}

$$$$
