quercetin_out
     RDKit          3D

 32 34  0  0  0  0  0  0  0  0999 V2000
   39.8960   26.2220  -17.4890 O   0  0  0  0  0  0  0  0  0  0  0  0
   39.3830   26.9070  -16.6060 C   0  0  0  0  0  0  0  0  0  0  0  0
   38.1780   27.7190  -16.8920 C   0  0  0  0  0  0  0  0  0  0  0  0
   37.6810   27.6750  -18.1820 O   0  0  0  0  0  0  0  0  0  0  0  0
   37.6500   28.4570  -15.8970 C   0  0  0  0  0  0  0  0  0  0  0  0
   36.4600   29.3220  -16.0690 C   0  0  0  0  0  0  0  0  0  0  0  0
   35.8690   29.9220  -14.9410 C   0  0  0  0  0  0  0  0  0  0  0  0
   34.7310   30.7240  -15.0650 C   0  0  0  0  0  0  0  0  0  0  0  0
   34.1790   30.9230  -16.3200 C   0  0  0  0  0  0  0  0  0  0  0  0
   33.0690   31.7070  -16.4440 O   0  0  0  0  0  0  0  0  0  0  0  0
   34.7450   30.3330  -17.4460 C   0  0  0  0  0  0  0  0  0  0  0  0
   34.1490   30.5710  -18.6550 O   0  0  0  0  0  0  0  0  0  0  0  0
   35.8760   29.5300  -17.3300 C   0  0  0  0  0  0  0  0  0  0  0  0
   38.1750   28.5110  -14.6110 O   0  0  0  0  0  0  0  0  0  0  0  0
   39.2860   27.7640  -14.3150 C   0  0  0  0  0  0  0  0  0  0  0  0
   39.7720   27.8390  -13.0100 C   0  0  0  0  0  0  0  0  0  0  0  0
   40.8990   27.1020  -12.6540 C   0  0  0  0  0  0  0  0  0  0  0  0
   41.3420   27.2050  -11.3690 O   0  0  0  0  0  0  0  0  0  0  0  0
   41.5500   26.2910  -13.5800 C   0  0  0  0  0  0  0  0  0  0  0  0
   41.0580   26.2200  -14.8820 C   0  0  0  0  0  0  0  0  0  0  0  0
   41.7360   25.4080  -15.7520 O   0  0  0  0  0  0  0  0  0  0  0  0
   39.9280   26.9560  -15.2490 C   0  0  0  0  0  0  0  0  0  0  0  0
   36.7780   27.4710  -18.3290 H   0  0  0  0  0  0  0  0  0  0  0  0
   36.3096   29.7571  -13.9467 H   0  0  0  0  0  0  0  0  0  0  0  0
   34.2794   31.1912  -14.1774 H   0  0  0  0  0  0  0  0  0  0  0  0
   32.7890   31.9920  -17.2910 H   0  0  0  0  0  0  0  0  0  0  0  0
   33.2690   30.2870  -18.8070 H   0  0  0  0  0  0  0  0  0  0  0  0
   36.3117   29.0592  -18.2236 H   0  0  0  0  0  0  0  0  0  0  0  0
   39.2690   28.4756  -12.2672 H   0  0  0  0  0  0  0  0  0  0  0  0
   40.7350   27.3860  -10.6780 H   0  0  0  0  0  0  0  0  0  0  0  0
   42.4401   25.7145  -13.2879 H   0  0  0  0  0  0  0  0  0  0  0  0
   41.9430   25.7140  -16.6130 H   0  0  0  0  0  0  0  0  0  0  0  0
  1  2  2  0
  2  3  1  0
  3  4  1  0
  3  5  2  0
  5  6  1  0
  6  7  2  0
  7  8  1  0
  8  9  2  0
  9 10  1  0
  9 11  1  0
 11 12  1  0
 11 13  2  0
  5 14  1  0
 14 15  1  0
 15 16  2  0
 16 17  1  0
 17 18  1  0
 17 19  2  0
 19 20  1  0
 20 21  1  0
 20 22  2  0
 22  2  1  0
 13  6  1  0
 22 15  1  0
  4 23  1  0
  7 24  1  0
  8 25  1  0
 10 26  1  0
 12 27  1  0
 13 28  1  0
 16 29  1  0
 18 30  1  0
 19 31  1  0
 21 32  1  0
M  END
>  <meeko>  (1) 
{"is_sidechain": [false], "free_energy": -9.776, "intermolecular_energy": -11.776, "internal_energy": 0.313}

$$$$
quercetin_out
     RDKit          3D

 32 34  0  0  0  0  0  0  0  0999 V2000
   40.0530   26.2790  -17.3880 O   0  0  0  0  0  0  0  0  0  0  0  0
   39.5110   26.9280  -16.4960 C   0  0  0  0  0  0  0  0  0  0  0  0
   38.2930   27.7210  -16.7780 C   0  0  0  0  0  0  0  0  0  0  0  0
   37.8160   27.7010  -18.0760 O   0  0  0  0  0  0  0  0  0  0  0  0
   37.7340   28.4210  -15.7730 C   0  0  0  0  0  0  0  0  0  0  0  0
   36.5280   29.2640  -15.9400 C   0  0  0  0  0  0  0  0  0  0  0  0
   36.0300   29.5160  -17.2320 C   0  0  0  0  0  0  0  0  0  0  0  0
   34.9080   30.3260  -17.4260 C   0  0  0  0  0  0  0  0  0  0  0  0
   34.2840   30.8900  -16.3250 C   0  0  0  0  0  0  0  0  0  0  0  0
   33.1880   31.6800  -16.5120 O   0  0  0  0  0  0  0  0  0  0  0  0
   34.7640   30.6570  -15.0400 C   0  0  0  0  0  0  0  0  0  0  0  0
   34.1010   31.2440  -13.9980 O   0  0  0  0  0  0  0  0  0  0  0  0
   35.8840   29.8550  -14.8390 C   0  0  0  0  0  0  0  0  0  0  0  0
   38.2390   28.4510  -14.4780 O   0  0  0  0  0  0  0  0  0  0  0  0
   39.3610   27.7210  -14.1840 C   0  0  0  0  0  0  0  0  0  0  0  0
   39.8260   27.7710  -12.8700 C   0  0  0  0  0  0  0  0  0  0  0  0
   40.9630   27.0500  -12.5160 C   0  0  0  0  0  0  0  0  0  0  0  0
   41.3850   27.1270  -11.2230 O   0  0  0  0  0  0  0  0  0  0  0  0
   41.6460   26.2780  -13.4540 C   0  0  0  0  0  0  0  0  0  0  0  0
   41.1750   26.2310  -14.7640 C   0  0  0  0  0  0  0  0  0  0  0  0
   41.8830   25.4580  -15.6450 O   0  0  0  0  0  0  0  0  0  0  0  0
   40.0350   26.9520  -15.1290 C   0  0  0  0  0  0  0  0  0  0  0  0
   36.9940   27.2940  -18.2670 H   0  0  0  0  0  0  0  0  0  0  0  0
   36.5318   29.0684  -18.1026 H   0  0  0  0  0  0  0  0  0  0  0  0
   34.5250   30.5135  -18.4400 H   0  0  0  0  0  0  0  0  0  0  0  0
   32.3490   31.4010  -16.2000 H   0  0  0  0  0  0  0  0  0  0  0  0
   33.9130   32.1630  -14.0200 H   0  0  0  0  0  0  0  0  0  0  0  0
   36.2642   29.6841  -13.8210 H   0  0  0  0  0  0  0  0  0  0  0  0
   39.2978   28.3761  -12.1184 H   0  0  0  0  0  0  0  0  0  0  0  0
   41.2130   26.4200  -10.6320 H   0  0  0  0  0  0  0  0  0  0  0  0
   42.5445   25.7137  -13.1639 H   0  0  0  0  0  0  0  0  0  0  0  0
   41.4330   24.9590  -16.2980 H   0  0  0  0  0  0  0  0  0  0  0  0
  1  2  2  0
  2  3  1  0
  3  4  1  0
  3  5  2  0
  5  6  1  0
  6  7  2  0
  7  8  1  0
  8  9  2  0
  9 10  1  0
  9 11  1  0
 11 12  1  0
 11 13  2  0
  5 14  1  0
 14 15  1  0
 15 16  2  0
 16 17  1  0
 17 18  1  0
 17 19  2  0
 19 20  1  0
 20 21  1  0
 20 22  2  0
 22  2  1  0
 13  6  1  0
 22 15  1  0
  4 23  1  0
  7 24  1  0
  8 25  1  0
 10 26  1  0
 12 27  1  0
 13 28  1  0
 16 29  1  0
 18 30  1  0
 19 31  1  0
 21 32  1  0
M  END
>  <meeko>  (2) 
{"is_sidechain": [false], "free_energy": -9.521, "intermolecular_energy": -11.527, "internal_energy": 0.371}

$$$$
quercetin_out
     RDKit          3D

 32 34  0  0  0  0  0  0  0  0999 V2000
   36.8290   27.3090  -18.5730 O   0  0  0  0  0  0  0  0  0  0  0  0
   37.1340   27.8890  -17.5340 C   0  0  0  0  0  0  0  0  0  0  0  0
   38.2250   27.3710  -16.6770 C   0  0  0  0  0  0  0  0  0  0  0  0
   38.8570   26.2140  -17.0950 O   0  0  0  0  0  0  0  0  0  0  0  0
   38.5250   28.0350  -15.5450 C   0  0  0  0  0  0  0  0  0  0  0  0
   39.5800   27.6020  -14.6020 C   0  0  0  0  0  0  0  0  0  0  0  0
   39.6050   28.1300  -13.2970 C   0  0  0  0  0  0  0  0  0  0  0  0
   40.6010   27.7600  -12.3890 C   0  0  0  0  0  0  0  0  0  0  0  0
   41.5780   26.8620  -12.7880 C   0  0  0  0  0  0  0  0  0  0  0  0
   42.5510   26.4980  -11.9030 O   0  0  0  0  0  0  0  0  0  0  0  0
   41.5730   26.3330  -14.0750 C   0  0  0  0  0  0  0  0  0  0  0  0
   42.5680   25.4530  -14.4030 O   0  0  0  0  0  0  0  0  0  0  0  0
   40.5870   26.7010  -14.9860 C   0  0  0  0  0  0  0  0  0  0  0  0
   37.8630   29.1840  -15.1250 O   0  0  0  0  0  0  0  0  0  0  0  0
   36.8540   29.6920  -15.9020 C   0  0  0  0  0  0  0  0  0  0  0  0
   36.2260   30.8520  -15.4480 C   0  0  0  0  0  0  0  0  0  0  0  0
   35.1930   31.4110  -16.1960 C   0  0  0  0  0  0  0  0  0  0  0  0
   34.6050   32.5430  -15.7160 O   0  0  0  0  0  0  0  0  0  0  0  0
   34.7770   30.8310  -17.3920 C   0  0  0  0  0  0  0  0  0  0  0  0
   35.4090   29.6730  -17.8400 C   0  0  0  0  0  0  0  0  0  0  0  0
   34.9610   29.1450  -19.0210 O   0  0  0  0  0  0  0  0  0  0  0  0
   36.4470   29.1050  -17.0950 C   0  0  0  0  0  0  0  0  0  0  0  0
   39.5480   26.2600  -17.7270 H   0  0  0  0  0  0  0  0  0  0  0  0
   38.8285   28.8449  -12.9872 H   0  0  0  0  0  0  0  0  0  0  0  0
   40.6092   28.1763  -11.3708 H   0  0  0  0  0  0  0  0  0  0  0  0
   42.5040   25.6690  -11.4700 H   0  0  0  0  0  0  0  0  0  0  0  0
   42.9750   25.4980  -15.2470 H   0  0  0  0  0  0  0  0  0  0  0  0
   40.5963   26.2869  -16.0050 H   0  0  0  0  0  0  0  0  0  0  0  0
   36.5446   31.3218  -14.5058 H   0  0  0  0  0  0  0  0  0  0  0  0
   34.9420   33.3830  -15.9580 H   0  0  0  0  0  0  0  0  0  0  0  0
   33.9602   31.2813  -17.9752 H   0  0  0  0  0  0  0  0  0  0  0  0
   35.4560   29.2670  -19.8070 H   0  0  0  0  0  0  0  0  0  0  0  0
  1  2  2  0
  2  3  1  0
  3  4  1  0
  3  5  2  0
  5  6  1  0
  6  7  2  0
  7  8  1  0
  8  9  2  0
  9 10  1  0
  9 11  1  0
 11 12  1  0
 11 13  2  0
  5 14  1  0
 14 15  1  0
 15 16  2  0
 16 17  1  0
 17 18  1  0
 17 19  2  0
 19 20  1  0
 20 21  1  0
 20 22  2  0
 22  2  1  0
 13  6  1  0
 22 15  1  0
  4 23  1  0
  7 24  1  0
  8 25  1  0
 10 26  1  0
 12 27  1  0
 13 28  1  0
 16 29  1  0
 18 30  1  0
 19 31  1  0
 21 32  1  0
M  END
>  <meeko>  (3) 
{"is_sidechain": [false], "free_energy": -8.914, "intermolecular_energy": -10.676, "internal_energy": 0.251}

$$$$
quercetin_out
     RDKit          3D

 32 34  0  0  0  0  0  0  0  0999 V2000
   37.5400   26.8270  -18.3550 O   0  0  0  0  0  0  0  0  0  0  0  0
   37.3580   27.7170  -17.5270 C   0  0  0  0  0  0  0  0  0  0  0  0
   36.3460   28.7700  -17.7670 C   0  0  0  0  0  0  0  0  0  0  0  0
   35.6420   28.7070  -18.9550 O   0  0  0  0  0  0  0  0  0  0  0  0
   36.1820   29.7280  -16.8350 C   0  0  0  0  0  0  0  0  0  0  0  0
   35.2160   30.8420  -16.9740 C   0  0  0  0  0  0  0  0  0  0  0  0
   33.8940   30.6750  -16.5190 C   0  0  0  0  0  0  0  0  0  0  0  0
   32.9510   31.6980  -16.6560 C   0  0  0  0  0  0  0  0  0  0  0  0
   33.3290   32.8880  -17.2540 C   0  0  0  0  0  0  0  0  0  0  0  0
   32.4110   33.8880  -17.3880 O   0  0  0  0  0  0  0  0  0  0  0  0
   34.6290   33.0700  -17.7150 C   0  0  0  0  0  0  0  0  0  0  0  0
   34.9350   34.2710  -18.2960 O   0  0  0  0  0  0  0  0  0  0  0  0
   35.5730   32.0550  -17.5860 C   0  0  0  0  0  0  0  0  0  0  0  0
   36.9150   29.7940  -15.6550 O   0  0  0  0  0  0  0  0  0  0  0  0
   37.8540   28.8270  -15.4020 C   0  0  0  0  0  0  0  0  0  0  0  0
   38.5580   28.9250  -14.2020 C   0  0  0  0  0  0  0  0  0  0  0  0
   39.5250   27.9720  -13.8930 C   0  0  0  0  0  0  0  0  0  0  0  0
   40.1910   28.1050  -12.7120 O   0  0  0  0  0  0  0  0  0  0  0  0
   39.8020   26.9210  -14.7650 C   0  0  0  0  0  0  0  0  0  0  0  0
   39.0940   26.8280  -15.9610 C   0  0  0  0  0  0  0  0  0  0  0  0
   39.4050   25.7760  -16.7800 O   0  0  0  0  0  0  0  0  0  0  0  0
   38.1220   27.7810  -16.2790 C   0  0  0  0  0  0  0  0  0  0  0  0
   34.7070   28.7710  -18.9500 H   0  0  0  0  0  0  0  0  0  0  0  0
   33.5988   29.7254  -16.0487 H   0  0  0  0  0  0  0  0  0  0  0  0
   31.9218   31.5592  -16.2933 H   0  0  0  0  0  0  0  0  0  0  0  0
   31.6210   33.7390  -17.8690 H   0  0  0  0  0  0  0  0  0  0  0  0
   34.3470   34.9960  -18.2100 H   0  0  0  0  0  0  0  0  0  0  0  0
   36.5960   32.2025  -17.9624 H   0  0  0  0  0  0  0  0  0  0  0  0
   38.3507   29.7497  -13.5043 H   0  0  0  0  0  0  0  0  0  0  0  0
   39.9740   27.5510  -11.9880 H   0  0  0  0  0  0  0  0  0  0  0  0
   40.5696   26.1747  -14.5123 H   0  0  0  0  0  0  0  0  0  0  0  0
   40.2010   25.2990  -16.6480 H   0  0  0  0  0  0  0  0  0  0  0  0
  1  2  2  0
  2  3  1  0
  3  4  1  0
  3  5  2  0
  5  6  1  0
  6  7  2  0
  7  8  1  0
  8  9  2  0
  9 10  1  0
  9 11  1  0
 11 12  1  0
 11 13  2  0
  5 14  1  0
 14 15  1  0
 15 16  2  0
 16 17  1  0
 17 18  1  0
 17 19  2  0
 19 20  1  0
 20 21  1  0
 20 22  2  0
 22  2  1  0
 13  6  1  0
 22 15  1  0
  4 23  1  0
  7 24  1  0
  8 25  1  0
 10 26  1  0
 12 27  1  0
 13 28  1  0
 16 29  1  0
 18 30  1  0
 19 31  1  0
 21 32  1  0
M  END
>  <meeko>  (4) 
{"is_sidechain": [false], "free_energy": -8.871, "intermolecular_energy": -10.042, "internal_energy": -0.332}

$$$$
quercetin_out
     RDKit          3D

 32 34  0  0  0  0  0  0  0  0999 V2000
   35.3670   29.2400  -18.3010 O   0  0  0  0  0  0  0  0  0  0  0  0
   36.0290   29.1750  -17.2670 C   0  0  0  0  0  0  0  0  0  0  0  0
   37.2150   28.2910  -17.1900 C   0  0  0  0  0  0  0  0  0  0  0  0
   37.5210   27.5490  -18.3170 O   0  0  0  0  0  0  0  0  0  0  0  0
   37.9100   28.2470  -16.0380 C   0  0  0  0  0  0  0  0  0  0  0  0
   39.0990   27.3880  -15.8370 C   0  0  0  0  0  0  0  0  0  0  0  0
   39.6730   27.2850  -14.5550 C   0  0  0  0  0  0  0  0  0  0  0  0
   40.8100   26.5010  -14.3370 C   0  0  0  0  0  0  0  0  0  0  0  0
   41.3770   25.8220  -15.4020 C   0  0  0  0  0  0  0  0  0  0  0  0
   42.4850   25.0550  -15.1910 O   0  0  0  0  0  0  0  0  0  0  0  0
   40.8270   25.9150  -16.6780 C   0  0  0  0  0  0  0  0  0  0  0  0
   41.4370   25.2190  -17.6850 O   0  0  0  0  0  0  0  0  0  0  0  0
   39.6980   26.6970  -16.9040 C   0  0  0  0  0  0  0  0  0  0  0  0
   37.5760   28.9800  -14.9040 O   0  0  0  0  0  0  0  0  0  0  0  0
   36.4880   29.8130  -14.9480 C   0  0  0  0  0  0  0  0  0  0  0  0
   36.1960   30.5380  -13.7930 C   0  0  0  0  0  0  0  0  0  0  0  0
   35.1010   31.3980  -13.7810 C   0  0  0  0  0  0  0  0  0  0  0  0
   34.8510   32.0870  -12.6320 O   0  0  0  0  0  0  0  0  0  0  0  0
   34.2910   31.5470  -14.9040 C   0  0  0  0  0  0  0  0  0  0  0  0
   34.5890   30.8210  -16.0550 C   0  0  0  0  0  0  0  0  0  0  0  0
   33.7610   31.0050  -17.1300 O   0  0  0  0  0  0  0  0  0  0  0  0
   35.6860   29.9550  -16.0770 C   0  0  0  0  0  0  0  0  0  0  0  0
   38.3440   27.1050  -18.3760 H   0  0  0  0  0  0  0  0  0  0  0  0
   39.2203   27.8292  -13.7131 H   0  0  0  0  0  0  0  0  0  0  0  0
   41.2488   26.4246  -13.3312 H   0  0  0  0  0  0  0  0  0  0  0  0
   43.1360   25.3310  -14.5760 H   0  0  0  0  0  0  0  0  0  0  0  0
   41.1080   24.3790  -17.9400 H   0  0  0  0  0  0  0  0  0  0  0  0
   39.2751   26.7740  -17.9166 H   0  0  0  0  0  0  0  0  0  0  0  0
   36.8263   30.4312  -12.8978 H   0  0  0  0  0  0  0  0  0  0  0  0
   34.9210   33.0210  -12.6220 H   0  0  0  0  0  0  0  0  0  0  0  0
   33.4278   32.2285  -14.8825 H   0  0  0  0  0  0  0  0  0  0  0  0
   32.9330   31.4300  -17.0160 H   0  0  0  0  0  0  0  0  0  0  0  0
  1  2  2  0
  2  3  1  0
  3  4  1  0
  3  5  2  0
  5  6  1  0
  6  7  2  0
  7  8  1  0
  8  9  2  0
  9 10  1  0
  9 11  1  0
 11 12  1  0
 11 13  2  0
  5 14  1  0
 14 15  1  0
 15 16  2  0
 16 17  1  0
 17 18  1  0
 17 19  2  0
 19 20  1  0
 20 21  1  0
 20 22  2  0
 22  2  1  0
 13  6  1  0
 22 15  1  0
  4 23  1  0
  7 24  1  0
  8 25  1  0
 10 26  1  0
 12 27  1  0
 13 28  1  0
 16 29  1  0
 18 30  1  0
 19 31  1  0
 21 32  1  0
M  END
>  <meeko>  (5) 
{"is_sidechain": [false], "free_energy": -8.849, "intermolecular_energy": -10.651, "internal_energy": 0.305}

$$$$
quercetin_out
     RDKit          3D

 32 34  0  0  0  0  0  0  0  0999 V2000
   38.7940   28.8710  -12.8940 O   0  0  0  0  0  0  0  0  0  0  0  0
   38.3940   28.7140  -14.0460 C   0  0  0  0  0  0  0  0  0  0  0  0
   37.1950   29.4370  -14.5290 C   0  0  0  0  0  0  0  0  0  0  0  0
   36.5570   30.2700  -13.6270 O   0  0  0  0  0  0  0  0  0  0  0  0
   36.7890   29.2320  -15.7960 C   0  0  0  0  0  0  0  0  0  0  0  0
   35.5960   29.8830  -16.3830 C   0  0  0  0  0  0  0  0  0  0  0  0
   35.4450   29.9270  -17.7820 C   0  0  0  0  0  0  0  0  0  0  0  0
   34.3430   30.5540  -18.3690 C   0  0  0  0  0  0  0  0  0  0  0  0
   33.3900   31.1440  -17.5550 C   0  0  0  0  0  0  0  0  0  0  0  0
   32.3120   31.7560  -18.1250 O   0  0  0  0  0  0  0  0  0  0  0  0
   33.5230   31.1170  -16.1700 C   0  0  0  0  0  0  0  0  0  0  0  0
   32.5460   31.7190  -15.4260 O   0  0  0  0  0  0  0  0  0  0  0  0
   34.6210   30.4980  -15.5780 C   0  0  0  0  0  0  0  0  0  0  0  0
   37.4260   28.3720  -16.6830 O   0  0  0  0  0  0  0  0  0  0  0  0
   38.5430   27.6950  -16.2670 C   0  0  0  0  0  0  0  0  0  0  0  0
   39.1570   26.8520  -17.1930 C   0  0  0  0  0  0  0  0  0  0  0  0
   40.2930   26.1380  -16.8230 C   0  0  0  0  0  0  0  0  0  0  0  0
   40.8610   25.3250  -17.7580 O   0  0  0  0  0  0  0  0  0  0  0  0
   40.8290   26.2520  -15.5420 C   0  0  0  0  0  0  0  0  0  0  0  0
   40.2120   27.0970  -14.6230 C   0  0  0  0  0  0  0  0  0  0  0  0
   40.7790   27.1710  -13.3790 O   0  0  0  0  0  0  0  0  0  0  0  0
   39.0700   27.8170  -14.9840 C   0  0  0  0  0  0  0  0  0  0  0  0
   35.9970   29.9070  -12.9700 H   0  0  0  0  0  0  0  0  0  0  0  0
   36.2070   29.4602  -18.4234 H   0  0  0  0  0  0  0  0  0  0  0  0
   34.2336   30.5788  -19.4633 H   0  0  0  0  0  0  0  0  0  0  0  0
   32.3700   32.0910  -18.9980 H   0  0  0  0  0  0  0  0  0  0  0  0
   31.7930   32.0850  -15.8490 H   0  0  0  0  0  0  0  0  0  0  0  0
   34.7253   30.4902  -14.4830 H   0  0  0  0  0  0  0  0  0  0  0  0
   38.7464   26.7521  -18.2086 H   0  0  0  0  0  0  0  0  0  0  0  0
   40.3200   24.7850  -18.3000 H   0  0  0  0  0  0  0  0  0  0  0  0
   41.7270   25.6825  -15.2605 H   0  0  0  0  0  0  0  0  0  0  0  0
   41.0240   26.3870  -12.9280 H   0  0  0  0  0  0  0  0  0  0  0  0
  1  2  2  0
  2  3  1  0
  3  4  1  0
  3  5  2  0
  5  6  1  0
  6  7  2  0
  7  8  1  0
  8  9  2  0
  9 10  1  0
  9 11  1  0
 11 12  1  0
 11 13  2  0
  5 14  1  0
 14 15  1  0
 15 16  2  0
 16 17  1  0
 17 18  1  0
 17 19  2  0
 19 20  1  0
 20 21  1  0
 20 22  2  0
 22  2  1  0
 13  6  1  0
 22 15  1  0
  4 23  1  0
  7 24  1  0
  8 25  1  0
 10 26  1  0
 12 27  1  0
 13 28  1  0
 16 29  1  0
 18 30  1  0
 19 31  1  0
 21 32  1  0
M  END
>  <meeko>  (6) 
{"is_sidechain": [false], "free_energy": -8.278, "intermolecular_energy": -9.926, "internal_energy": 0.267}

$$$$
quercetin_out
     RDKit          3D

 32 34  0  0  0  0  0  0  0  0999 V2000
   37.7840   27.0310  -18.2060 O   0  0  0  0  0  0  0  0  0  0  0  0
   37.9350   27.5700  -17.1120 C   0  0  0  0  0  0  0  0  0  0  0  0
   39.0190   27.1330  -16.2030 C   0  0  0  0  0  0  0  0  0  0  0  0
   39.8260   26.0980  -16.6380 O   0  0  0  0  0  0  0  0  0  0  0  0
   39.1460   27.7490  -15.0120 C   0  0  0  0  0  0  0  0  0  0  0  0
   40.1780   27.3850  -14.0140 C   0  0  0  0  0  0  0  0  0  0  0  0
   41.4710   27.0350  -14.4480 C   0  0  0  0  0  0  0  0  0  0  0  0
   42.4610   26.6640  -13.5340 C   0  0  0  0  0  0  0  0  0  0  0  0
   42.1570   26.6390  -12.1830 C   0  0  0  0  0  0  0  0  0  0  0  0
   43.1230   26.2790  -11.2890 O   0  0  0  0  0  0  0  0  0  0  0  0
   40.8840   26.9760  -11.7350 C   0  0  0  0  0  0  0  0  0  0  0  0
   40.6520   26.9300  -10.3870 O   0  0  0  0  0  0  0  0  0  0  0  0
   39.8910   27.3420  -12.6390 C   0  0  0  0  0  0  0  0  0  0  0  0
   38.3110   28.7720  -14.5770 O   0  0  0  0  0  0  0  0  0  0  0  0
   37.3030   29.2030  -15.4010 C   0  0  0  0  0  0  0  0  0  0  0  0
   36.4970   30.2390  -14.9290 C   0  0  0  0  0  0  0  0  0  0  0  0
   35.4570   30.7150  -15.7230 C   0  0  0  0  0  0  0  0  0  0  0  0
   34.6930   31.7270  -15.2240 O   0  0  0  0  0  0  0  0  0  0  0  0
   35.2080   30.1740  -16.9810 C   0  0  0  0  0  0  0  0  0  0  0  0
   36.0180   29.1400  -17.4470 C   0  0  0  0  0  0  0  0  0  0  0  0
   35.7280   28.6450  -18.6900 O   0  0  0  0  0  0  0  0  0  0  0  0
   37.0640   28.6550  -16.6570 C   0  0  0  0  0  0  0  0  0  0  0  0
   39.6990   25.7330  -17.4920 H   0  0  0  0  0  0  0  0  0  0  0  0
   41.7054   27.0539  -15.5226 H   0  0  0  0  0  0  0  0  0  0  0  0
   43.4689   26.3952  -13.8832 H   0  0  0  0  0  0  0  0  0  0  0  0
   44.0230   26.4660  -11.4690 H   0  0  0  0  0  0  0  0  0  0  0  0
   41.3330   27.1630   -9.7870 H   0  0  0  0  0  0  0  0  0  0  0  0
   38.8837   27.5970  -12.2779 H   0  0  0  0  0  0  0  0  0  0  0  0
   36.6817   30.6767  -13.9369 H   0  0  0  0  0  0  0  0  0  0  0  0
   34.9040   32.6170  -15.4290 H   0  0  0  0  0  0  0  0  0  0  0  0
   34.3829   30.5574  -17.5992 H   0  0  0  0  0  0  0  0  0  0  0  0
   34.9060   28.8430  -19.0940 H   0  0  0  0  0  0  0  0  0  0  0  0
  1  2  2  0
  2  3  1  0
  3  4  1  0
  3  5  2  0
  5  6  1  0
  6  7  2  0
  7  8  1  0
  8  9  2  0
  9 10  1  0
  9 11  1  0
 11 12  1  0
 11 13  2  0
  5 14  1  0
 14 15  1  0
 15 16  2  0
 16 17  1  0
 17 18  1  0
 17 19  2  0
 19 20  1  0
 20 21  1  0
 20 22  2  0
 22  2  1  0
 13  6  1  0
 22 15  1  0
  4 23  1  0
  7 24  1  0
  8 25  1  0
 10 26  1  0
 12 27  1  0
 13 28  1  0
 16 29  1  0
 18 30  1  0
 19 31  1  0
 21 32  1  0
M  END
>  <meeko>  (7) 
{"is_sidechain": [false], "free_energy": -8.151, "intermolecular_energy": -9.604, "internal_energy": 0.098}

$$$$
quercetin_out
     RDKit          3D

 32 34  0  0  0  0  0  0  0  0999 V2000
   38.0190   29.1840  -12.9830 O   0  0  0  0  0  0  0  0  0  0  0  0
   37.7180   29.2080  -14.1740 C   0  0  0  0  0  0  0  0  0  0  0  0
   36.6970   30.1580  -14.6720 C   0  0  0  0  0  0  0  0  0  0  0  0
   36.1050   30.9910  -13.7390 O   0  0  0  0  0  0  0  0  0  0  0  0
   36.3940   30.1470  -15.9840 C   0  0  0  0  0  0  0  0  0  0  0  0
   35.3790   31.0360  -16.5920 C   0  0  0  0  0  0  0  0  0  0  0  0
   34.0240   30.6520  -16.5840 C   0  0  0  0  0  0  0  0  0  0  0  0
   33.0430   31.4570  -17.1700 C   0  0  0  0  0  0  0  0  0  0  0  0
   33.4180   32.6480  -17.7700 C   0  0  0  0  0  0  0  0  0  0  0  0
   32.4620   33.4360  -18.3420 O   0  0  0  0  0  0  0  0  0  0  0  0
   34.7520   33.0430  -17.7930 C   0  0  0  0  0  0  0  0  0  0  0  0
   35.0520   34.2300  -18.4030 O   0  0  0  0  0  0  0  0  0  0  0  0
   35.7350   32.2440  -17.2150 C   0  0  0  0  0  0  0  0  0  0  0  0
   36.9800   29.2870  -16.9050 O   0  0  0  0  0  0  0  0  0  0  0  0
   37.9340   28.4010  -16.4750 C   0  0  0  0  0  0  0  0  0  0  0  0
   38.5030   27.5650  -17.4360 C   0  0  0  0  0  0  0  0  0  0  0  0
   39.4760   26.6440  -17.0550 C   0  0  0  0  0  0  0  0  0  0  0  0
   40.0050   25.8460  -18.0240 O   0  0  0  0  0  0  0  0  0  0  0  0
   39.8900   26.5440  -15.7290 C   0  0  0  0  0  0  0  0  0  0  0  0
   39.3190   27.3830  -14.7750 C   0  0  0  0  0  0  0  0  0  0  0  0
   39.7630   27.2430  -13.4880 O   0  0  0  0  0  0  0  0  0  0  0  0
   38.3410   28.3100  -15.1480 C   0  0  0  0  0  0  0  0  0  0  0  0
   35.6890   31.7830  -14.0160 H   0  0  0  0  0  0  0  0  0  0  0  0
   33.7331   29.7035  -16.1090 H   0  0  0  0  0  0  0  0  0  0  0  0
   31.9871   31.1489  -17.1549 H   0  0  0  0  0  0  0  0  0  0  0  0
   31.8060   33.8390  -17.8090 H   0  0  0  0  0  0  0  0  0  0  0  0
   35.2960   34.9740  -17.8860 H   0  0  0  0  0  0  0  0  0  0  0  0
   36.7888   32.5581  -17.2461 H   0  0  0  0  0  0  0  0  0  0  0  0
   38.1855   27.6327  -18.4870 H   0  0  0  0  0  0  0  0  0  0  0  0
   39.4800   25.5880  -18.7560 H   0  0  0  0  0  0  0  0  0  0  0  0
   40.6580   25.8119  -15.4389 H   0  0  0  0  0  0  0  0  0  0  0  0
   39.3230   27.6870  -12.7890 H   0  0  0  0  0  0  0  0  0  0  0  0
  1  2  2  0
  2  3  1  0
  3  4  1  0
  3  5  2  0
  5  6  1  0
  6  7  2  0
  7  8  1  0
  8  9  2  0
  9 10  1  0
  9 11  1  0
 11 12  1  0
 11 13  2  0
  5 14  1  0
 14 15  1  0
 15 16  2  0
 16 17  1  0
 17 18  1  0
 17 19  2  0
 19 20  1  0
 20 21  1  0
 20 22  2  0
 22  2  1  0
 13  6  1  0
 22 15  1  0
  4 23  1  0
  7 24  1  0
  8 25  1  0
 10 26  1  0
 12 27  1  0
 13 28  1  0
 16 29  1  0
 18 30  1  0
 19 31  1  0
 21 32  1  0
M  END
>  <meeko>  (8) 
{"is_sidechain": [false], "free_energy": -7.953, "intermolecular_energy": -8.936, "internal_energy": -0.332}

$$$$
