rasagiline_out
     RDKit          3D

 27 28  0  0  0  0  0  0  0  0999 V2000
   31.9670   29.1740  -11.5320 C   0  0  0  0  0  0  0  0  0  0  0  0
   32.3060   29.8580  -12.4600 C   0  0  0  0  0  0  0  0  0  0  0  0
   32.7220   30.6920  -13.5950 C   0  0  0  0  0  0  0  0  0  0  0  0
   34.1730   30.8180  -13.5970 N   0  0  0  0  0  0  0  0  0  0  0  0
   34.6990   31.1640  -14.9120 C   0  0  2  0  0  0  0  0  0  0  0  0
   33.6540   31.1050  -16.0490 C   0  0  0  0  0  0  0  0  0  0  0  0
   34.4350   30.8020  -17.3360 C   0  0  0  0  0  0  0  0  0  0  0  0
   35.5550   29.9680  -16.7990 C   0  0  0  0  0  0  0  0  0  0  0  0
   36.4030   29.1280  -17.5020 C   0  0  0  0  0  0  0  0  0  0  0  0
   37.4130   28.4680  -16.7980 C   0  0  0  0  0  0  0  0  0  0  0  0
   37.5690   28.6630  -15.4160 C   0  0  0  0  0  0  0  0  0  0  0  0
   36.7160   29.5220  -14.7200 C   0  0  0  0  0  0  0  0  0  0  0  0
   35.7050   30.1640  -15.4190 C   0  0  0  0  0  0  0  0  0  0  0  0
   31.6567   28.5479  -10.6825 H   0  0  0  0  0  0  0  0  0  0  0  0
   32.3931   30.2237  -14.5344 H   0  0  0  0  0  0  0  0  0  0  0  0
   32.2669   31.6893  -13.5042 H   0  0  0  0  0  0  0  0  0  0  0  0
   34.5790   29.9300  -13.3050 H   0  0  0  0  0  0  0  0  0  0  0  0
   34.4200   31.5710  -12.9540 H   0  0  0  0  0  0  0  0  0  0  0  0
   35.0957   32.1735  -14.7289 H   0  0  0  0  0  0  0  0  0  0  0  0
   32.9210   30.3089  -15.8518 H   0  0  0  0  0  0  0  0  0  0  0  0
   33.0986   32.0509  -16.1314 H   0  0  0  0  0  0  0  0  0  0  0  0
   33.8231   30.2407  -18.0575 H   0  0  0  0  0  0  0  0  0  0  0  0
   34.7594   31.6946  -17.8910 H   0  0  0  0  0  0  0  0  0  0  0  0
   36.2842   28.9845  -18.5861 H   0  0  0  0  0  0  0  0  0  0  0  0
   38.0934   27.7883  -17.3318 H   0  0  0  0  0  0  0  0  0  0  0  0
   38.3696   28.1348  -14.8775 H   0  0  0  0  0  0  0  0  0  0  0  0
   36.8434   29.6860  -13.6398 H   0  0  0  0  0  0  0  0  0  0  0  0
  1  2  3  0
  2  3  1  0
  3  4  1  0
  4  5  1  0
  5  6  1  0
  6  7  1  0
  7  8  1  0
  8  9  2  0
  9 10  1  0
 10 11  2  0
 11 12  1  0
 12 13  2  0
 13  5  1  0
 13  8  1  0
  1 14  1  0
  3 15  1  0
  3 16  1  0
  4 17  1  0
  4 18  1  0
  5 19  1  1
  6 20  1  0
  6 21  1  0
  7 22  1  0
  7 23  1  0
  9 24  1  0
 10 25  1  0
 11 26  1  0
 12 27  1  0
M  CHG  1   4   1
M  END
>  <meeko>  (1) 
{"is_sidechain": [false], "free_energy": -8.279, "intermolecular_energy": -9.247, "internal_energy": -0.236}

$$$$
rasagiline_out
     RDKit          3D

 27 28  0  0  0  0  0  0  0  0999 V2000
   32.6920   29.9730  -12.3490 C   0  0  0  0  0  0  0  0  0  0  0  0
   33.4550   30.5780  -13.0520 C   0  0  0  0  0  0  0  0  0  0  0  0
   34.3870   31.3170  -13.9130 C   0  0  0  0  0  0  0  0  0  0  0  0
   35.6630   30.6150  -13.9580 N   0  0  0  0  0  0  0  0  0  0  0  0
   36.2120   30.5450  -15.3070 C   0  0  2  0  0  0  0  0  0  0  0  0
   35.1560   30.3000  -16.4090 C   0  0  0  0  0  0  0  0  0  0  0  0
   35.8890   29.5880  -17.5560 C   0  0  0  0  0  0  0  0  0  0  0  0
   36.9170   28.8100  -16.7970 C   0  0  0  0  0  0  0  0  0  0  0  0
   37.6640   27.7300  -17.2380 C   0  0  0  0  0  0  0  0  0  0  0  0
   38.6030   27.1750  -16.3650 C   0  0  0  0  0  0  0  0  0  0  0  0
   38.7910   27.7090  -15.0810 C   0  0  0  0  0  0  0  0  0  0  0  0
   38.0420   28.8060  -14.6510 C   0  0  0  0  0  0  0  0  0  0  0  0
   37.1000   29.3450  -15.5140 C   0  0  0  0  0  0  0  0  0  0  0  0
   31.9932   29.4189  -11.7051 H   0  0  0  0  0  0  0  0  0  0  0  0
   33.9709   31.3879  -14.9288 H   0  0  0  0  0  0  0  0  0  0  0  0
   34.5379   32.3288  -13.5086 H   0  0  0  0  0  0  0  0  0  0  0  0
   35.5270   29.6660  -13.6110 H   0  0  0  0  0  0  0  0  0  0  0  0
   36.3240   31.1340  -13.3800 H   0  0  0  0  0  0  0  0  0  0  0  0
   36.7172   31.5188  -15.3875 H   0  0  0  0  0  0  0  0  0  0  0  0
   34.3436   29.6660  -16.0242 H   0  0  0  0  0  0  0  0  0  0  0  0
   34.7042   31.2441  -16.7476 H   0  0  0  0  0  0  0  0  0  0  0  0
   35.2139   28.9254  -18.1174 H   0  0  0  0  0  0  0  0  0  0  0  0
   36.3031   30.2638  -18.3187 H   0  0  0  0  0  0  0  0  0  0  0  0
   37.5216   27.3202  -18.2488 H   0  0  0  0  0  0  0  0  0  0  0  0
   39.2013   26.3102  -16.6876 H   0  0  0  0  0  0  0  0  0  0  0  0
   39.5352   27.2593  -14.4072 H   0  0  0  0  0  0  0  0  0  0  0  0
   38.1959   29.2335  -13.6492 H   0  0  0  0  0  0  0  0  0  0  0  0
  1  2  3  0
  2  3  1  0
  3  4  1  0
  4  5  1  0
  5  6  1  0
  6  7  1  0
  7  8  1  0
  8  9  2  0
  9 10  1  0
 10 11  2  0
 11 12  1  0
 12 13  2  0
 13  5  1  0
 13  8  1  0
  1 14  1  0
  3 15  1  0
  3 16  1  0
  4 17  1  0
  4 18  1  0
  5 19  1  6
  6 20  1  0
  6 21  1  0
  7 22  1  0
  7 23  1  0
  9 24  1  0
 10 25  1  0
 11 26  1  0
 12 27  1  0
M  CHG  1   4   1
M  END
>  <meeko>  (2) 
{"is_sidechain": [false], "free_energy": -7.564, "intermolecular_energy": -8.458, "internal_energy": -0.227}

$$$$
rasagiline_out
     RDKit          3D

 27 28  0  0  0  0  0  0  0  0999 V2000
   37.1750   28.6900  -17.2400 C   0  0  0  0  0  0  0  0  0  0  0  0
   37.8090   27.7140  -16.9430 C   0  0  0  0  0  0  0  0  0  0  0  0
   38.5840   26.5210  -16.5780 C   0  0  0  0  0  0  0  0  0  0  0  0
   39.8840   26.9280  -16.0630 N   0  0  0  0  0  0  0  0  0  0  0  0
   40.0350   26.6370  -14.6420 C   0  0  2  0  0  0  0  0  0  0  0  0
   39.6360   27.8050  -13.7110 C   0  0  0  0  0  0  0  0  0  0  0  0
   40.4610   27.6320  -12.4270 C   0  0  0  0  0  0  0  0  0  0  0  0
   41.7080   27.0090  -12.9710 C   0  0  0  0  0  0  0  0  0  0  0  0
   42.9480   26.9140  -12.3620 C   0  0  0  0  0  0  0  0  0  0  0  0
   43.9710   26.2510  -13.0440 C   0  0  0  0  0  0  0  0  0  0  0  0
   43.7410   25.6870  -14.3080 C   0  0  0  0  0  0  0  0  0  0  0  0
   42.4830   25.7760  -14.9080 C   0  0  0  0  0  0  0  0  0  0  0  0
   41.4740   26.4480  -14.2340 C   0  0  0  0  0  0  0  0  0  0  0  0
   36.5944   29.5838  -17.5120 H   0  0  0  0  0  0  0  0  0  0  0  0
   38.0439   25.9547  -15.8050 H   0  0  0  0  0  0  0  0  0  0  0  0
   38.7226   25.8868  -17.4660 H   0  0  0  0  0  0  0  0  0  0  0  0
   39.9930   27.9320  -16.2050 H   0  0  0  0  0  0  0  0  0  0  0  0
   40.5980   26.4000  -16.5660 H   0  0  0  0  0  0  0  0  0  0  0  0
   39.3986   25.7464  -14.5330 H   0  0  0  0  0  0  0  0  0  0  0  0
   39.8695   28.7687  -14.1871 H   0  0  0  0  0  0  0  0  0  0  0  0
   38.5569   27.7964  -13.4978 H   0  0  0  0  0  0  0  0  0  0  0  0
   40.6690   28.5996  -11.9470 H   0  0  0  0  0  0  0  0  0  0  0  0
   39.9631   27.0411  -11.6441 H   0  0  0  0  0  0  0  0  0  0  0  0
   43.1229   27.3493  -11.3671 H   0  0  0  0  0  0  0  0  0  0  0  0
   44.9675   26.1702  -12.5852 H   0  0  0  0  0  0  0  0  0  0  0  0
   44.5590   25.1700  -14.8311 H   0  0  0  0  0  0  0  0  0  0  0  0
   42.2965   25.3233  -15.8930 H   0  0  0  0  0  0  0  0  0  0  0  0
  1  2  3  0
  2  3  1  0
  3  4  1  0
  4  5  1  0
  5  6  1  0
  6  7  1  0
  7  8  1  0
  8  9  2  0
  9 10  1  0
 10 11  2  0
 11 12  1  0
 12 13  2  0
 13  5  1  0
 13  8  1  0
  1 14  1  0
  3 15  1  0
  3 16  1  0
  4 17  1  0
  4 18  1  0
  5 19  1  1
  6 20  1  0
  6 21  1  0
  7 22  1  0
  7 23  1  0
  9 24  1  0
 10 25  1  0
 11 26  1  0
 12 27  1  0
M  CHG  1   4   1
M  END
>  <meeko>  (3) 
{"is_sidechain": [false], "free_energy": -7.519, "intermolecular_energy": -8.409, "internal_energy": -0.225}

$$$$
rasagiline_out
     RDKit          3D

 27 28  0  0  0  0  0  0  0  0999 V2000
   42.6310   27.0000  -12.6790 C   0  0  0  0  0  0  0  0  0  0  0  0
   41.4340   27.1000  -12.6690 C   0  0  0  0  0  0  0  0  0  0  0  0
   39.9700   27.2210  -12.6580 C   0  0  0  0  0  0  0  0  0  0  0  0
   39.5520   28.1210  -13.7240 N   0  0  0  0  0  0  0  0  0  0  0  0
   38.6990   27.4620  -14.7050 C   0  0  2  0  0  0  0  0  0  0  0  0
   39.4540   26.9280  -15.9440 C   0  0  0  0  0  0  0  0  0  0  0  0
   38.4400   26.9240  -17.0970 C   0  0  0  0  0  0  0  0  0  0  0  0
   37.5830   28.0930  -16.7260 C   0  0  0  0  0  0  0  0  0  0  0  0
   36.7040   28.7950  -17.5340 C   0  0  0  0  0  0  0  0  0  0  0  0
   35.9710   29.8380  -16.9640 C   0  0  0  0  0  0  0  0  0  0  0  0
   36.1150   30.1560  -15.6050 C   0  0  0  0  0  0  0  0  0  0  0  0
   36.9940   29.4340  -14.7960 C   0  0  0  0  0  0  0  0  0  0  0  0
   37.7320   28.4080  -15.3690 C   0  0  0  0  0  0  0  0  0  0  0  0
   43.7271   26.9084  -12.6882 H   0  0  0  0  0  0  0  0  0  0  0  0
   39.5185   26.2304  -12.8156 H   0  0  0  0  0  0  0  0  0  0  0  0
   39.6413   27.6221  -11.6879 H   0  0  0  0  0  0  0  0  0  0  0  0
   40.3820   28.4760  -14.1980 H   0  0  0  0  0  0  0  0  0  0  0  0
   39.0120   28.8760  -13.3000 H   0  0  0  0  0  0  0  0  0  0  0  0
   38.2353   26.6734  -14.0942 H   0  0  0  0  0  0  0  0  0  0  0  0
   40.3027   27.5848  -16.1853 H   0  0  0  0  0  0  0  0  0  0  0  0
   39.8581   25.9210  -15.7630 H   0  0  0  0  0  0  0  0  0  0  0  0
   38.9324   27.0761  -18.0688 H   0  0  0  0  0  0  0  0  0  0  0  0
   37.8910   25.9782  -17.2154 H   0  0  0  0  0  0  0  0  0  0  0  0
   36.5864   28.5377  -18.5970 H   0  0  0  0  0  0  0  0  0  0  0  0
   35.2732   30.4165  -17.5872 H   0  0  0  0  0  0  0  0  0  0  0  0
   35.5301   30.9815  -15.1733 H   0  0  0  0  0  0  0  0  0  0  0  0
   37.0994   29.6731  -13.7275 H   0  0  0  0  0  0  0  0  0  0  0  0
  1  2  3  0
  2  3  1  0
  3  4  1  0
  4  5  1  0
  5  6  1  0
  6  7  1  0
  7  8  1  0
  8  9  2  0
  9 10  1  0
 10 11  2  0
 11 12  1  0
 12 13  2  0
 13  5  1  0
 13  8  1  0
  1 14  1  0
  3 15  1  0
  3 16  1  0
  4 17  1  0
  4 18  1  0
  5 19  1  1
  6 20  1  0
  6 21  1  0
  7 22  1  0
  7 23  1  0
  9 24  1  0
 10 25  1  0
 11 26  1  0
 12 27  1  0
M  CHG  1   4   1
M  END
>  <meeko>  (4) 
{"is_sidechain": [false], "free_energy": -7.517, "intermolecular_energy": -8.415, "internal_energy": -0.217}

$$$$
rasagiline_out
     RDKit          3D

 27 28  0  0  0  0  0  0  0  0999 V2000
   35.0200   30.2240  -17.5800 C   0  0  0  0  0  0  0  0  0  0  0  0
   35.6710   30.2640  -16.5710 C   0  0  0  0  0  0  0  0  0  0  0  0
   36.4690   30.3140  -15.3390 C   0  0  0  0  0  0  0  0  0  0  0  0
   36.8570   28.9620  -14.9600 N   0  0  0  0  0  0  0  0  0  0  0  0
   38.1370   28.5680  -15.5370 C   0  0  2  0  0  0  0  0  0  0  0  0
   38.0510   27.3730  -16.5130 C   0  0  0  0  0  0  0  0  0  0  0  0
   39.4200   26.6800  -16.4660 C   0  0  0  0  0  0  0  0  0  0  0  0
   39.8240   26.9420  -15.0490 C   0  0  0  0  0  0  0  0  0  0  0  0
   40.8030   26.3000  -14.3100 C   0  0  0  0  0  0  0  0  0  0  0  0
   41.0390   26.7360  -13.0040 C   0  0  0  0  0  0  0  0  0  0  0  0
   40.3100   27.8070  -12.4630 C   0  0  0  0  0  0  0  0  0  0  0  0
   39.3340   28.4560  -13.2220 C   0  0  0  0  0  0  0  0  0  0  0  0
   39.0910   28.0100  -14.5130 C   0  0  0  0  0  0  0  0  0  0  0  0
   34.4240   30.1874  -18.5038 H   0  0  0  0  0  0  0  0  0  0  0  0
   37.3706   30.9205  -15.5099 H   0  0  0  0  0  0  0  0  0  0  0  0
   35.8726   30.7654  -14.5324 H   0  0  0  0  0  0  0  0  0  0  0  0
   36.1390   28.3130  -15.2820 H   0  0  0  0  0  0  0  0  0  0  0  0
   36.9530   28.9390  -13.9440 H   0  0  0  0  0  0  0  0  0  0  0  0
   38.4593   29.5057  -16.0133 H   0  0  0  0  0  0  0  0  0  0  0  0
   37.2606   26.6773  -16.1948 H   0  0  0  0  0  0  0  0  0  0  0  0
   37.8058   27.7058  -17.5324 H   0  0  0  0  0  0  0  0  0  0  0  0
   39.3344   25.6023  -16.6690 H   0  0  0  0  0  0  0  0  0  0  0  0
   40.1378   27.0424  -17.2166 H   0  0  0  0  0  0  0  0  0  0  0  0
   41.3801   25.4681  -14.7401 H   0  0  0  0  0  0  0  0  0  0  0  0
   41.8042   26.2349  -12.3929 H   0  0  0  0  0  0  0  0  0  0  0  0
   40.5093   28.1375  -11.4329 H   0  0  0  0  0  0  0  0  0  0  0  0
   38.7697   29.3031  -12.8050 H   0  0  0  0  0  0  0  0  0  0  0  0
  1  2  3  0
  2  3  1  0
  3  4  1  0
  4  5  1  0
  5  6  1  0
  6  7  1  0
  7  8  1  0
  8  9  2  0
  9 10  1  0
 10 11  2  0
 11 12  1  0
 12 13  2  0
 13  5  1  0
 13  8  1  0
  1 14  1  0
  3 15  1  0
  3 16  1  0
  4 17  1  0
  4 18  1  0
  5 19  1  6
  6 20  1  0
  6 21  1  0
  7 22  1  0
  7 23  1  0
  9 24  1  0
 10 25  1  0
 11 26  1  0
 12 27  1  0
M  CHG  1   4   1
M  END
>  <meeko>  (5) 
{"is_sidechain": [false], "free_energy": -7.283, "intermolecular_energy": -8.094, "internal_energy": -0.276}

$$$$
rasagiline_out
     RDKit          3D

 27 28  0  0  0  0  0  0  0  0999 V2000
   39.9360   27.0650  -12.2700 C   0  0  0  0  0  0  0  0  0  0  0  0
   39.7110   27.1970  -13.4430 C   0  0  0  0  0  0  0  0  0  0  0  0
   39.4370   27.3590  -14.8760 C   0  0  0  0  0  0  0  0  0  0  0  0
   38.7030   28.5990  -15.0910 N   0  0  0  0  0  0  0  0  0  0  0  0
   37.4440   28.3850  -15.7960 C   0  0  2  0  0  0  0  0  0  0  0  0
   37.5680   28.4200  -17.3360 C   0  0  0  0  0  0  0  0  0  0  0  0
   36.1990   28.8720  -17.8670 C   0  0  0  0  0  0  0  0  0  0  0  0
   35.7470   29.7710  -16.7590 C   0  0  0  0  0  0  0  0  0  0  0  0
   34.7460   30.7260  -16.7930 C   0  0  0  0  0  0  0  0  0  0  0  0
   34.4640   31.4310  -15.6200 C   0  0  0  0  0  0  0  0  0  0  0  0
   35.1710   31.1660  -14.4370 C   0  0  0  0  0  0  0  0  0  0  0  0
   36.1700   30.1900  -14.4100 C   0  0  0  0  0  0  0  0  0  0  0  0
   36.4580   29.5030  -15.5800 C   0  0  0  0  0  0  0  0  0  0  0  0
   40.1420   26.9442  -11.1962 H   0  0  0  0  0  0  0  0  0  0  0  0
   40.3869   27.3940  -15.4296 H   0  0  0  0  0  0  0  0  0  0  0  0
   38.8364   26.5097  -15.2336 H   0  0  0  0  0  0  0  0  0  0  0  0
   39.2830   29.2310  -15.6420 H   0  0  0  0  0  0  0  0  0  0  0  0
   38.4840   28.9940  -14.1760 H   0  0  0  0  0  0  0  0  0  0  0  0
   37.1342   27.4069  -15.3992 H   0  0  0  0  0  0  0  0  0  0  0  0
   38.3488   29.1329  -17.6394 H   0  0  0  0  0  0  0  0  0  0  0  0
   37.8480   27.4350  -17.7377 H   0  0  0  0  0  0  0  0  0  0  0  0
   36.2942   29.4180  -18.8172 H   0  0  0  0  0  0  0  0  0  0  0  0
   35.5061   28.0486  -18.0948 H   0  0  0  0  0  0  0  0  0  0  0  0
   34.1870   30.9249  -17.7192 H   0  0  0  0  0  0  0  0  0  0  0  0
   33.6794   32.2020  -15.6239 H   0  0  0  0  0  0  0  0  0  0  0  0
   34.9365   31.7317  -13.5232 H   0  0  0  0  0  0  0  0  0  0  0  0
   36.7165   29.9710  -13.4808 H   0  0  0  0  0  0  0  0  0  0  0  0
  1  2  3  0
  2  3  1  0
  3  4  1  0
  4  5  1  0
  5  6  1  0
  6  7  1  0
  7  8  1  0
  8  9  2  0
  9 10  1  0
 10 11  2  0
 11 12  1  0
 12 13  2  0
 13  5  1  0
 13  8  1  0
  1 14  1  0
  3 15  1  0
  3 16  1  0
  4 17  1  0
  4 18  1  0
  5 19  1  6
  6 20  1  0
  6 21  1  0
  7 22  1  0
  7 23  1  0
  9 24  1  0
 10 25  1  0
 11 26  1  0
 12 27  1  0
M  CHG  1   4   1
M  END
>  <meeko>  (6) 
{"is_sidechain": [false], "free_energy": -7.251, "intermolecular_energy": -8.157, "internal_energy": -0.178}

$$$$
rasagiline_out
     RDKit          3D

 27 28  0  0  0  0  0  0  0  0999 V2000
   31.9350   33.3510  -17.5550 C   0  0  0  0  0  0  0  0  0  0  0  0
   33.1010   33.0640  -17.5880 C   0  0  0  0  0  0  0  0  0  0  0  0
   34.5260   32.7130  -17.6300 C   0  0  0  0  0  0  0  0  0  0  0  0
   34.6650   31.2740  -17.8050 N   0  0  0  0  0  0  0  0  0  0  0  0
   34.7820   30.5680  -16.5350 C   0  0  2  0  0  0  0  0  0  0  0  0
   35.0530   31.4870  -15.3220 C   0  0  0  0  0  0  0  0  0  0  0  0
   35.8070   30.6310  -14.2930 C   0  0  0  0  0  0  0  0  0  0  0  0
   36.5690   29.7100  -15.1940 C   0  0  0  0  0  0  0  0  0  0  0  0
   37.6680   28.9290  -14.8790 C   0  0  0  0  0  0  0  0  0  0  0  0
   38.2030   28.1080  -15.8740 C   0  0  0  0  0  0  0  0  0  0  0  0
   37.6310   28.0690  -17.1550 C   0  0  0  0  0  0  0  0  0  0  0  0
   36.5140   28.8510  -17.4580 C   0  0  0  0  0  0  0  0  0  0  0  0
   35.9950   29.6760  -16.4720 C   0  0  0  0  0  0  0  0  0  0  0  0
   30.8673   33.6138  -17.5248 H   0  0  0  0  0  0  0  0  0  0  0  0
   35.0074   33.2332  -18.4712 H   0  0  0  0  0  0  0  0  0  0  0  0
   35.0070   33.0167  -16.6885 H   0  0  0  0  0  0  0  0  0  0  0  0
   35.5010   31.0910  -18.3590 H   0  0  0  0  0  0  0  0  0  0  0  0
   33.8250   30.9340  -18.2740 H   0  0  0  0  0  0  0  0  0  0  0  0
   33.8154   30.0451  -16.4870 H   0  0  0  0  0  0  0  0  0  0  0  0
   35.6677   32.3472  -15.6256 H   0  0  0  0  0  0  0  0  0  0  0  0
   34.1162   31.8832  -14.9031 H   0  0  0  0  0  0  0  0  0  0  0  0
   36.4816   31.2421  -13.6754 H   0  0  0  0  0  0  0  0  0  0  0  0
   35.1594   30.1209  -13.5647 H   0  0  0  0  0  0  0  0  0  0  0  0
   38.1083   28.9545  -13.8713 H   0  0  0  0  0  0  0  0  0  0  0  0
   39.0820   27.4853  -15.6513 H   0  0  0  0  0  0  0  0  0  0  0  0
   38.0660   27.4171  -17.9269 H   0  0  0  0  0  0  0  0  0  0  0  0
   36.0560   28.8131  -18.4574 H   0  0  0  0  0  0  0  0  0  0  0  0
  1  2  3  0
  2  3  1  0
  3  4  1  0
  4  5  1  0
  5  6  1  0
  6  7  1  0
  7  8  1  0
  8  9  2  0
  9 10  1  0
 10 11  2  0
 11 12  1  0
 12 13  2  0
 13  5  1  0
 13  8  1  0
  1 14  1  0
  3 15  1  0
  3 16  1  0
  4 17  1  0
  4 18  1  0
  5 19  1  1
  6 20  1  0
  6 21  1  0
  7 22  1  0
  7 23  1  0
  9 24  1  0
 10 25  1  0
 11 26  1  0
 12 27  1  0
M  CHG  1   4   1
M  END
>  <meeko>  (7) 
{"is_sidechain": [false], "free_energy": -6.991, "intermolecular_energy": -7.914, "internal_energy": -0.131}

$$$$
rasagiline_out
     RDKit          3D

 27 28  0  0  0  0  0  0  0  0999 V2000
   35.7780   33.2940  -17.1640 C   0  0  0  0  0  0  0  0  0  0  0  0
   35.8940   32.7190  -16.1160 C   0  0  0  0  0  0  0  0  0  0  0  0
   36.0380   32.0150  -14.8350 C   0  0  0  0  0  0  0  0  0  0  0  0
   35.8760   30.5830  -15.0490 N   0  0  0  0  0  0  0  0  0  0  0  0
   36.8280   30.0540  -16.0190 C   0  0  2  0  0  0  0  0  0  0  0  0
   36.1830   29.2280  -17.1540 C   0  0  0  0  0  0  0  0  0  0  0  0
   37.2530   28.2300  -17.6210 C   0  0  0  0  0  0  0  0  0  0  0  0
   37.9960   27.9910  -16.3440 C   0  0  0  0  0  0  0  0  0  0  0  0
   38.8580   26.9500  -16.0440 C   0  0  0  0  0  0  0  0  0  0  0  0
   39.4770   26.9450  -14.7910 C   0  0  0  0  0  0  0  0  0  0  0  0
   39.2380   27.9760  -13.8690 C   0  0  0  0  0  0  0  0  0  0  0  0
   38.3760   29.0280  -14.1880 C   0  0  0  0  0  0  0  0  0  0  0  0
   37.7520   29.0210  -15.4260 C   0  0  0  0  0  0  0  0  0  0  0  0
   35.6718   33.8206  -18.1239 H   0  0  0  0  0  0  0  0  0  0  0  0
   37.0362   32.2131  -14.4175 H   0  0  0  0  0  0  0  0  0  0  0  0
   35.2704   32.3706  -14.1319 H   0  0  0  0  0  0  0  0  0  0  0  0
   34.9310   30.4090  -15.3900 H   0  0  0  0  0  0  0  0  0  0  0  0
   36.0450   30.1140  -14.1590 H   0  0  0  0  0  0  0  0  0  0  0  0
   37.3192   30.9747  -16.3668 H   0  0  0  0  0  0  0  0  0  0  0  0
   35.2988   28.6913  -16.7796 H   0  0  0  0  0  0  0  0  0  0  0  0
   35.8505   29.8740  -17.9799 H   0  0  0  0  0  0  0  0  0  0  0  0
   36.8013   27.3035  -18.0052 H   0  0  0  0  0  0  0  0  0  0  0  0
   37.8796   28.5912  -18.4498 H   0  0  0  0  0  0  0  0  0  0  0  0
   39.0505   26.1484  -16.7723 H   0  0  0  0  0  0  0  0  0  0  0  0
   40.1590   26.1241  -14.5244 H   0  0  0  0  0  0  0  0  0  0  0  0
   39.7335   27.9554  -12.8872 H   0  0  0  0  0  0  0  0  0  0  0  0
   38.1963   29.8440  -13.4726 H   0  0  0  0  0  0  0  0  0  0  0  0
  1  2  3  0
  2  3  1  0
  3  4  1  0
  4  5  1  0
  5  6  1  0
  6  7  1  0
  7  8  1  0
  8  9  2  0
  9 10  1  0
 10 11  2  0
 11 12  1  0
 12 13  2  0
 13  5  1  0
 13  8  1  0
  1 14  1  0
  3 15  1  0
  3 16  1  0
  4 17  1  0
  4 18  1  0
  5 19  1  6
  6 20  1  0
  6 21  1  0
  7 22  1  0
  7 23  1  0
  9 24  1  0
 10 25  1  0
 11 26  1  0
 12 27  1  0
M  CHG  1   4   1
M  END
>  <meeko>  (8) 
{"is_sidechain": [false], "free_energy": -6.968, "intermolecular_energy": -7.711, "internal_energy": -0.308}

$$$$
rasagiline_out
     RDKit          3D

 27 28  0  0  0  0  0  0  0  0999 V2000
   37.6050   29.5930  -15.5700 C   0  0  0  0  0  0  0  0  0  0  0  0
   37.4680   30.6750  -16.0730 C   0  0  0  0  0  0  0  0  0  0  0  0
   37.3020   31.9990  -16.6870 C   0  0  0  0  0  0  0  0  0  0  0  0
   36.0150   32.5560  -16.2940 N   0  0  0  0  0  0  0  0  0  0  0  0
   34.8940   31.7410  -16.7490 C   0  0  2  0  0  0  0  0  0  0  0  0
   33.9190   32.4780  -17.6940 C   0  0  0  0  0  0  0  0  0  0  0  0
   32.5510   31.8030  -17.5120 C   0  0  0  0  0  0  0  0  0  0  0  0
   32.6240   31.3960  -16.0740 C   0  0  0  0  0  0  0  0  0  0  0  0
   31.5810   31.0370  -15.2370 C   0  0  0  0  0  0  0  0  0  0  0  0
   31.8850   30.6520  -13.9290 C   0  0  0  0  0  0  0  0  0  0  0  0
   33.2150   30.6190  -13.4820 C   0  0  0  0  0  0  0  0  0  0  0  0
   34.2610   30.9700  -14.3390 C   0  0  0  0  0  0  0  0  0  0  0  0
   33.9540   31.3660  -15.6320 C   0  0  0  0  0  0  0  0  0  0  0  0
   37.7305   28.6020  -15.1093 H   0  0  0  0  0  0  0  0  0  0  0  0
   38.1092   32.6648  -16.3477 H   0  0  0  0  0  0  0  0  0  0  0  0
   37.3425   31.9041  -17.7821 H   0  0  0  0  0  0  0  0  0  0  0  0
   35.9260   33.4890  -16.6950 H   0  0  0  0  0  0  0  0  0  0  0  0
   35.9860   32.5830  -15.2740 H   0  0  0  0  0  0  0  0  0  0  0  0
   35.4159   30.8964  -17.2226 H   0  0  0  0  0  0  0  0  0  0  0  0
   33.8577   33.5425  -17.4236 H   0  0  0  0  0  0  0  0  0  0  0  0
   34.2565   32.4231  -18.7395 H   0  0  0  0  0  0  0  0  0  0  0  0
   31.7256   32.5076  -17.6912 H   0  0  0  0  0  0  0  0  0  0  0  0
   32.3573   30.9744  -18.2090 H   0  0  0  0  0  0  0  0  0  0  0  0
   30.5403   31.0545  -15.5927 H   0  0  0  0  0  0  0  0  0  0  0  0
   31.0731   30.3716  -13.2419 H   0  0  0  0  0  0  0  0  0  0  0  0
   33.4356   30.3142  -12.4483 H   0  0  0  0  0  0  0  0  0  0  0  0
   35.3054   30.9330  -13.9956 H   0  0  0  0  0  0  0  0  0  0  0  0
  1  2  3  0
  2  3  1  0
  3  4  1  0
  4  5  1  0
  5  6  1  0
  6  7  1  0
  7  8  1  0
  8  9  2  0
  9 10  1  0
 10 11  2  0
 11 12  1  0
 12 13  2  0
 13  5  1  0
 13  8  1  0
  1 14  1  0
  3 15  1  0
  3 16  1  0
  4 17  1  0
  4 18  1  0
  5 19  1  6
  6 20  1  0
  6 21  1  0
  7 22  1  0
  7 23  1  0
  9 24  1  0
 10 25  1  0
 11 26  1  0
 12 27  1  0
M  CHG  1   4   1
M  END
>  <meeko>  (9) 
{"is_sidechain": [false], "free_energy": -6.895, "intermolecular_energy": -7.52, "internal_energy": -0.417}

$$$$
