safinamide_out
     RDKit          3D

 42 43  0  0  0  0  0  0  0  0999 V2000
   39.0270   26.3010  -15.9970 C   0  0  0  0  0  0  0  0  0  0  0  0
   38.4260   27.6270  -16.4540 C   0  0  2  0  0  0  0  0  0  0  0  0
   37.3080   27.9920  -15.5460 N   0  0  0  0  0  0  0  0  0  0  0  0
   37.7390   28.9760  -14.5470 C   0  0  0  0  0  0  0  0  0  0  0  0
   38.8470   28.4040  -13.6940 C   0  0  0  0  0  0  0  0  0  0  0  0
   38.7660   27.0910  -13.2110 C   0  0  0  0  0  0  0  0  0  0  0  0
   39.7960   26.5470  -12.4350 C   0  0  0  0  0  0  0  0  0  0  0  0
   40.9250   27.3100  -12.1370 C   0  0  0  0  0  0  0  0  0  0  0  0
   41.9990   26.9060  -11.3950 O   0  0  0  0  0  0  0  0  0  0  0  0
   43.2820   27.3770  -11.7990 C   0  0  0  0  0  0  0  0  0  0  0  0
   43.8890   26.3420  -12.7140 C   0  0  0  0  0  0  0  0  0  0  0  0
   43.2600   26.0060  -13.9240 C   0  0  0  0  0  0  0  0  0  0  0  0
   43.8270   25.0600  -14.7830 C   0  0  0  0  0  0  0  0  0  0  0  0
   45.0320   24.4480  -14.4440 C   0  0  0  0  0  0  0  0  0  0  0  0
   45.6620   24.7910  -13.2540 C   0  0  0  0  0  0  0  0  0  0  0  0
   46.8240   24.2070  -12.9320 F   0  0  0  0  0  0  0  0  0  0  0  0
   45.1070   25.7310  -12.3910 C   0  0  0  0  0  0  0  0  0  0  0  0
   41.0140   28.6160  -12.6240 C   0  0  0  0  0  0  0  0  0  0  0  0
   39.9870   29.1600  -13.4000 C   0  0  0  0  0  0  0  0  0  0  0  0
   37.9080   27.4790  -17.8950 C   0  0  0  0  0  0  0  0  0  0  0  0
   38.7620   26.8290  -18.7460 N   0  0  0  0  0  0  0  0  0  0  0  0
   36.8340   27.9250  -18.2810 O   0  0  0  0  0  0  0  0  0  0  0  0
   39.0432   26.2653  -14.8977 H   0  0  0  0  0  0  0  0  0  0  0  0
   38.4175   25.4701  -16.3819 H   0  0  0  0  0  0  0  0  0  0  0  0
   40.0536   26.2117  -16.3819 H   0  0  0  0  0  0  0  0  0  0  0  0
   39.1901   28.4178  -16.4254 H   0  0  0  0  0  0  0  0  0  0  0  0
   36.9790   27.1540  -15.0680 H   0  0  0  0  0  0  0  0  0  0  0  0
   36.5590   28.4040  -16.1040 H   0  0  0  0  0  0  0  0  0  0  0  0
   38.1042   29.8780  -15.0598 H   0  0  0  0  0  0  0  0  0  0  0  0
   36.8848   29.2299  -13.9021 H   0  0  0  0  0  0  0  0  0  0  0  0
   37.8816   26.4801  -13.4447 H   0  0  0  0  0  0  0  0  0  0  0  0
   39.7150   25.5162  -12.0596 H   0  0  0  0  0  0  0  0  0  0  0  0
   43.1780   28.3330  -12.3330 H   0  0  0  0  0  0  0  0  0  0  0  0
   43.9253   27.5369  -10.9212 H   0  0  0  0  0  0  0  0  0  0  0  0
   42.3121   26.4919  -14.1984 H   0  0  0  0  0  0  0  0  0  0  0  0
   43.3226   24.7992  -15.7251 H   0  0  0  0  0  0  0  0  0  0  0  0
   45.4810   23.6992  -15.1132 H   0  0  0  0  0  0  0  0  0  0  0  0
   45.6243   25.9938  -11.4564 H   0  0  0  0  0  0  0  0  0  0  0  0
   41.9021   29.2230  -12.3942 H   0  0  0  0  0  0  0  0  0  0  0  0
   40.0753   30.1879  -13.7817 H   0  0  0  0  0  0  0  0  0  0  0  0
   39.6190   26.4800  -18.4110 H   0  0  0  0  0  0  0  0  0  0  0  0
   38.5180   26.7130  -19.6930 H   0  0  0  0  0  0  0  0  0  0  0  0
  1  2  1  0
  2  3  1  0
  3  4  1  0
  4  5  1  0
  5  6  2  0
  6  7  1  0
  7  8  2  0
  8  9  1  0
  9 10  1  0
 10 11  1  0
 11 12  2  0
 12 13  1  0
 13 14  2  0
 14 15  1  0
 15 16  1  0
 15 17  2  0
  8 18  1  0
 18 19  2  0
  2 20  1  0
 20 21  1  0
 20 22  2  0
 19  5  1  0
 17 11  1  0
  1 23  1  0
  1 24  1  0
  1 25  1  0
  2 26  1  6
  3 27  1  0
  3 28  1  0
  4 29  1  0
  4 30  1  0
  6 31  1  0
  7 32  1  0
 10 33  1  0
 10 34  1  0
 12 35  1  0
 13 36  1  0
 14 37  1  0
 17 38  1  0
 18 39  1  0
 19 40  1  0
 21 41  1  0
 21 42  1  0
M  CHG  1   3   1
M  END
>  <meeko>  (1) 
{"is_sidechain": [false], "free_energy": -4.973, "intermolecular_energy": -7.008, "internal_energy": 0.404}

$$$$
safinamide_out
     RDKit          3D

 42 43  0  0  0  0  0  0  0  0999 V2000
   39.1910   26.4840  -16.1390 C   0  0  0  0  0  0  0  0  0  0  0  0
   38.4190   27.7270  -16.5720 C   0  0  2  0  0  0  0  0  0  0  0  0
   37.3730   28.0270  -15.5600 N   0  0  0  0  0  0  0  0  0  0  0  0
   37.8490   29.0200  -14.5900 C   0  0  0  0  0  0  0  0  0  0  0  0
   38.8840   28.4060  -13.6780 C   0  0  0  0  0  0  0  0  0  0  0  0
   38.7260   27.0980  -13.2010 C   0  0  0  0  0  0  0  0  0  0  0  0
   39.6900   26.5160  -12.3700 C   0  0  0  0  0  0  0  0  0  0  0  0
   40.8290   27.2340  -12.0100 C   0  0  0  0  0  0  0  0  0  0  0  0
   41.8450   26.7890  -11.2100 O   0  0  0  0  0  0  0  0  0  0  0  0
   43.1620   27.2300  -11.5270 C   0  0  0  0  0  0  0  0  0  0  0  0
   43.6960   26.3440  -12.6250 C   0  0  0  0  0  0  0  0  0  0  0  0
   44.9030   25.6460  -12.4520 C   0  0  0  0  0  0  0  0  0  0  0  0
   45.3930   24.8110  -13.4600 C   0  0  0  0  0  0  0  0  0  0  0  0
   44.6780   24.6580  -14.6460 C   0  0  0  0  0  0  0  0  0  0  0  0
   43.4760   25.3360  -14.8110 C   0  0  0  0  0  0  0  0  0  0  0  0
   42.7850   25.1840  -15.9490 F   0  0  0  0  0  0  0  0  0  0  0  0
   42.9780   26.1710  -13.8160 C   0  0  0  0  0  0  0  0  0  0  0  0
   40.9960   28.5350  -12.4900 C   0  0  0  0  0  0  0  0  0  0  0  0
   40.0350   29.1180  -13.3200 C   0  0  0  0  0  0  0  0  0  0  0  0
   37.7680   27.4670  -17.9420 C   0  0  0  0  0  0  0  0  0  0  0  0
   38.4920   26.6590  -18.7760 N   0  0  0  0  0  0  0  0  0  0  0  0
   36.7010   27.9590  -18.2910 O   0  0  0  0  0  0  0  0  0  0  0  0
   39.2212   26.4353  -15.0405 H   0  0  0  0  0  0  0  0  0  0  0  0
   38.6912   25.5865  -16.5322 H   0  0  0  0  0  0  0  0  0  0  0  0
   40.2171   26.5342  -16.5322 H   0  0  0  0  0  0  0  0  0  0  0  0
   39.1014   28.5859  -16.6539 H   0  0  0  0  0  0  0  0  0  0  0  0
   37.1310   27.1690  -15.0660 H   0  0  0  0  0  0  0  0  0  0  0  0
   36.5580   28.4080  -16.0390 H   0  0  0  0  0  0  0  0  0  0  0  0
   38.2971   29.8680  -15.1287 H   0  0  0  0  0  0  0  0  0  0  0  0
   36.9982   29.3659  -13.9847 H   0  0  0  0  0  0  0  0  0  0  0  0
   37.8329   26.5213  -13.4833 H   0  0  0  0  0  0  0  0  0  0  0  0
   39.5484   25.4897  -12.0002 H   0  0  0  0  0  0  0  0  0  0  0  0
   43.1338   28.2747  -11.8702 H   0  0  0  0  0  0  0  0  0  0  0  0
   43.8093   27.1726  -10.6395 H   0  0  0  0  0  0  0  0  0  0  0  0
   45.4676   25.7577  -11.5146 H   0  0  0  0  0  0  0  0  0  0  0  0
   46.3428   24.2748  -13.3170 H   0  0  0  0  0  0  0  0  0  0  0  0
   45.0615   24.0063  -15.4448 H   0  0  0  0  0  0  0  0  0  0  0  0
   42.0220   26.6947  -13.9639 H   0  0  0  0  0  0  0  0  0  0  0  0
   41.8936   29.1067  -12.2116 H   0  0  0  0  0  0  0  0  0  0  0  0
   40.1836   30.1417  -13.6941 H   0  0  0  0  0  0  0  0  0  0  0  0
   39.3470   26.2770  -18.4710 H   0  0  0  0  0  0  0  0  0  0  0  0
   38.1590   26.4620  -19.6810 H   0  0  0  0  0  0  0  0  0  0  0  0
  1  2  1  0
  2  3  1  0
  3  4  1  0
  4  5  1  0
  5  6  2  0
  6  7  1  0
  7  8  2  0
  8  9  1  0
  9 10  1  0
 10 11  1  0
 11 12  2  0
 12 13  1  0
 13 14  2  0
 14 15  1  0
 15 16  1  0
 15 17  2  0
  8 18  1  0
 18 19  2  0
  2 20  1  0
 20 21  1  0
 20 22  2  0
 19  5  1  0
 17 11  1  0
  1 23  1  0
  1 24  1  0
  1 25  1  0
  2 26  1  6
  3 27  1  0
  3 28  1  0
  4 29  1  0
  4 30  1  0
  6 31  1  0
  7 32  1  0
 10 33  1  0
 10 34  1  0
 12 35  1  0
 13 36  1  0
 14 37  1  0
 17 38  1  0
 18 39  1  0
 19 40  1  0
 21 41  1  0
 21 42  1  0
M  CHG  1   3   1
M  END
>  <meeko>  (2) 
{"is_sidechain": [false], "free_energy": -4.807, "intermolecular_energy": -6.839, "internal_energy": 0.468}

$$$$
safinamide_out
     RDKit          3D

 42 43  0  0  0  0  0  0  0  0999 V2000
   38.1410   28.4230  -15.3810 C   0  0  0  0  0  0  0  0  0  0  0  0
   37.6270   27.2270  -16.1780 C   0  0  2  0  0  0  0  0  0  0  0  0
   38.3560   26.0060  -15.7480 N   0  0  0  0  0  0  0  0  0  0  0  0
   38.3980   25.9060  -14.2840 C   0  0  0  0  0  0  0  0  0  0  0  0
   39.7180   26.4220  -13.7630 C   0  0  0  0  0  0  0  0  0  0  0  0
   39.8270   26.9000  -12.4510 C   0  0  0  0  0  0  0  0  0  0  0  0
   41.0510   27.3630  -11.9540 C   0  0  0  0  0  0  0  0  0  0  0  0
   42.1850   27.3490  -12.7660 C   0  0  0  0  0  0  0  0  0  0  0  0
   43.4370   27.7690  -12.4110 O   0  0  0  0  0  0  0  0  0  0  0  0
   44.4170   27.8340  -13.4430 C   0  0  0  0  0  0  0  0  0  0  0  0
   45.2700   26.5930  -13.3520 C   0  0  0  0  0  0  0  0  0  0  0  0
   46.6120   26.6810  -12.9440 C   0  0  0  0  0  0  0  0  0  0  0  0
   47.4020   25.5320  -12.8420 C   0  0  0  0  0  0  0  0  0  0  0  0
   46.8560   24.2850  -13.1390 C   0  0  0  0  0  0  0  0  0  0  0  0
   45.5250   24.1960  -13.5290 C   0  0  0  0  0  0  0  0  0  0  0  0
   45.0000   22.9950  -13.8080 F   0  0  0  0  0  0  0  0  0  0  0  0
   44.7290   25.3320  -13.6340 C   0  0  0  0  0  0  0  0  0  0  0  0
   42.0830   26.8650  -14.0720 C   0  0  0  0  0  0  0  0  0  0  0  0
   40.8630   26.4020  -14.5690 C   0  0  0  0  0  0  0  0  0  0  0  0
   37.8610   27.4800  -17.6780 C   0  0  0  0  0  0  0  0  0  0  0  0
   37.8780   26.3530  -18.4530 N   0  0  0  0  0  0  0  0  0  0  0  0
   38.0510   28.5920  -18.1580 O   0  0  0  0  0  0  0  0  0  0  0  0
   38.0507   28.2128  -14.3051 H   0  0  0  0  0  0  0  0  0  0  0  0
   39.1965   28.6044  -15.6318 H   0  0  0  0  0  0  0  0  0  0  0  0
   37.5462   29.3137  -15.6318 H   0  0  0  0  0  0  0  0  0  0  0  0
   36.5506   27.0884  -15.9988 H   0  0  0  0  0  0  0  0  0  0  0  0
   39.3090   26.0430  -16.1070 H   0  0  0  0  0  0  0  0  0  0  0  0
   37.8660   25.1900  -16.1140 H   0  0  0  0  0  0  0  0  0  0  0  0
   37.5798   26.5035  -13.8555 H   0  0  0  0  0  0  0  0  0  0  0  0
   38.2854   24.8511  -13.9932 H   0  0  0  0  0  0  0  0  0  0  0  0
   38.9387   26.9117  -11.8023 H   0  0  0  0  0  0  0  0  0  0  0  0
   41.1186   27.7382  -10.9222 H   0  0  0  0  0  0  0  0  0  0  0  0
   43.9232   27.8768  -14.4250 H   0  0  0  0  0  0  0  0  0  0  0  0
   45.0375   28.7347  -13.3257 H   0  0  0  0  0  0  0  0  0  0  0  0
   47.0449   27.6630  -12.7027 H   0  0  0  0  0  0  0  0  0  0  0  0
   48.4531   25.6124  -12.5277 H   0  0  0  0  0  0  0  0  0  0  0  0
   47.4737   23.3778  -13.0654 H   0  0  0  0  0  0  0  0  0  0  0  0
   43.6759   25.2402  -13.9381 H   0  0  0  0  0  0  0  0  0  0  0  0
   42.9741   26.8483  -14.7167 H   0  0  0  0  0  0  0  0  0  0  0  0
   40.8010   26.0197  -15.5986 H   0  0  0  0  0  0  0  0  0  0  0  0
   37.7240   25.4710  -18.0440 H   0  0  0  0  0  0  0  0  0  0  0  0
   38.0470   26.4240  -19.4210 H   0  0  0  0  0  0  0  0  0  0  0  0
  1  2  1  0
  2  3  1  0
  3  4  1  0
  4  5  1  0
  5  6  2  0
  6  7  1  0
  7  8  2  0
  8  9  1  0
  9 10  1  0
 10 11  1  0
 11 12  2  0
 12 13  1  0
 13 14  2  0
 14 15  1  0
 15 16  1  0
 15 17  2  0
  8 18  1  0
 18 19  2  0
  2 20  1  0
 20 21  1  0
 20 22  2  0
 19  5  1  0
 17 11  1  0
  1 23  1  0
  1 24  1  0
  1 25  1  0
  2 26  1  6
  3 27  1  0
  3 28  1  0
  4 29  1  0
  4 30  1  0
  6 31  1  0
  7 32  1  0
 10 33  1  0
 10 34  1  0
 12 35  1  0
 13 36  1  0
 14 37  1  0
 17 38  1  0
 18 39  1  0
 19 40  1  0
 21 41  1  0
 21 42  1  0
M  CHG  1   3   1
M  END
>  <meeko>  (3) 
{"is_sidechain": [false], "free_energy": -4.185, "intermolecular_energy": -5.921, "internal_energy": 0.427}

$$$$
safinamide_out
     RDKit          3D

 42 43  0  0  0  0  0  0  0  0999 V2000
   45.1590   24.2260  -13.3790 C   0  0  0  0  0  0  0  0  0  0  0  0
   44.7910   25.1870  -14.5060 C   0  0  2  0  0  0  0  0  0  0  0  0
   45.0400   26.5810  -14.0560 N   0  0  0  0  0  0  0  0  0  0  0  0
   44.6570   26.7580  -12.6510 C   0  0  0  0  0  0  0  0  0  0  0  0
   43.1910   27.1080  -12.5480 C   0  0  0  0  0  0  0  0  0  0  0  0
   42.3870   26.5210  -11.5630 C   0  0  0  0  0  0  0  0  0  0  0  0
   41.0320   26.8540  -11.4500 C   0  0  0  0  0  0  0  0  0  0  0  0
   40.4650   27.7850  -12.3200 C   0  0  0  0  0  0  0  0  0  0  0  0
   39.1630   28.2000  -12.3220 O   0  0  0  0  0  0  0  0  0  0  0  0
   38.7210   28.9460  -13.4520 C   0  0  0  0  0  0  0  0  0  0  0  0
   38.6590   28.0080  -14.6320 C   0  0  0  0  0  0  0  0  0  0  0  0
   39.0870   26.6760  -14.5050 C   0  0  0  0  0  0  0  0  0  0  0  0
   39.0160   25.7990  -15.5910 C   0  0  0  0  0  0  0  0  0  0  0  0
   38.5090   26.2420  -16.8110 C   0  0  0  0  0  0  0  0  0  0  0  0
   38.0720   27.5560  -16.9330 C   0  0  0  0  0  0  0  0  0  0  0  0
   37.5790   27.9800  -18.1040 F   0  0  0  0  0  0  0  0  0  0  0  0
   38.1380   28.4380  -15.8590 C   0  0  0  0  0  0  0  0  0  0  0  0
   41.2660   28.3790  -13.2980 C   0  0  0  0  0  0  0  0  0  0  0  0
   42.6190   28.0490  -13.4120 C   0  0  0  0  0  0  0  0  0  0  0  0
   43.3050   25.0050  -14.8620 C   0  0  0  0  0  0  0  0  0  0  0  0
   42.8690   25.7690  -15.9100 N   0  0  0  0  0  0  0  0  0  0  0  0
   42.5460   24.2630  -14.2490 O   0  0  0  0  0  0  0  0  0  0  0  0
   44.9735   24.7103  -12.4089 H   0  0  0  0  0  0  0  0  0  0  0  0
   44.5456   23.3163  -13.4579 H   0  0  0  0  0  0  0  0  0  0  0  0
   46.2231   23.9587  -13.4579 H   0  0  0  0  0  0  0  0  0  0  0  0
   45.4029   24.9780  -15.3959 H   0  0  0  0  0  0  0  0  0  0  0  0
   44.4940   27.2200  -14.6330 H   0  0  0  0  0  0  0  0  0  0  0  0
   46.0360   26.7780  -14.1480 H   0  0  0  0  0  0  0  0  0  0  0  0
   44.8465   25.8235  -12.1026 H   0  0  0  0  0  0  0  0  0  0  0  0
   45.2517   27.5758  -12.2180 H   0  0  0  0  0  0  0  0  0  0  0  0
   42.8258   25.7889  -10.8692 H   0  0  0  0  0  0  0  0  0  0  0  0
   40.4133   26.3805  -10.6735 H   0  0  0  0  0  0  0  0  0  0  0  0
   37.7234   29.3659  -13.2556 H   0  0  0  0  0  0  0  0  0  0  0  0
   39.4135   29.7755  -13.6581 H   0  0  0  0  0  0  0  0  0  0  0  0
   39.4817   26.3199  -13.5420 H   0  0  0  0  0  0  0  0  0  0  0  0
   39.3601   24.7598  -15.4827 H   0  0  0  0  0  0  0  0  0  0  0  0
   38.4550   25.5576  -17.6705 H   0  0  0  0  0  0  0  0  0  0  0  0
   37.7813   29.4722  -15.9734 H   0  0  0  0  0  0  0  0  0  0  0  0
   40.8264   29.1155  -13.9868 H   0  0  0  0  0  0  0  0  0  0  0  0
   43.2371   28.5307  -14.1839 H   0  0  0  0  0  0  0  0  0  0  0  0
   43.4990   26.3570  -16.3860 H   0  0  0  0  0  0  0  0  0  0  0  0
   41.9250   25.7310  -16.1880 H   0  0  0  0  0  0  0  0  0  0  0  0
  1  2  1  0
  2  3  1  0
  3  4  1  0
  4  5  1  0
  5  6  2  0
  6  7  1  0
  7  8  2  0
  8  9  1  0
  9 10  1  0
 10 11  1  0
 11 12  2  0
 12 13  1  0
 13 14  2  0
 14 15  1  0
 15 16  1  0
 15 17  2  0
  8 18  1  0
 18 19  2  0
  2 20  1  0
 20 21  1  0
 20 22  2  0
 19  5  1  0
 17 11  1  0
  1 23  1  0
  1 24  1  0
  1 25  1  0
  2 26  1  6
  3 27  1  0
  3 28  1  0
  4 29  1  0
  4 30  1  0
  6 31  1  0
  7 32  1  0
 10 33  1  0
 10 34  1  0
 12 35  1  0
 13 36  1  0
 14 37  1  0
 17 38  1  0
 18 39  1  0
 19 40  1  0
 21 41  1  0
 21 42  1  0
M  CHG  1   3   1
M  END
>  <meeko>  (4) 
{"is_sidechain": [false], "free_energy": -3.99, "intermolecular_energy": -6.112, "internal_energy": 0.892}

$$$$
safinamide_out
     RDKit          3D

 42 43  0  0  0  0  0  0  0  0999 V2000
   38.5410   28.7590  -14.8750 C   0  0  0  0  0  0  0  0  0  0  0  0
   37.9960   27.4210  -15.3680 C   0  0  2  0  0  0  0  0  0  0  0  0
   38.7310   26.3190  -14.6960 N   0  0  0  0  0  0  0  0  0  0  0  0
   39.4430   26.8070  -13.5100 C   0  0  0  0  0  0  0  0  0  0  0  0
   40.9340   26.6500  -13.6940 C   0  0  0  0  0  0  0  0  0  0  0  0
   41.4450   25.9510  -14.7950 C   0  0  0  0  0  0  0  0  0  0  0  0
   42.8260   25.8160  -14.9830 C   0  0  0  0  0  0  0  0  0  0  0  0
   43.7140   26.3860  -14.0720 C   0  0  0  0  0  0  0  0  0  0  0  0
   45.0790   26.3320  -14.1330 O   0  0  0  0  0  0  0  0  0  0  0  0
   45.7800   26.2080  -12.8990 C   0  0  0  0  0  0  0  0  0  0  0  0
   47.0990   26.9250  -13.0410 C   0  0  0  0  0  0  0  0  0  0  0  0
   47.7180   27.5050  -11.9210 C   0  0  0  0  0  0  0  0  0  0  0  0
   48.9480   28.1560  -12.0440 C   0  0  0  0  0  0  0  0  0  0  0  0
   49.5760   28.2260  -13.2850 C   0  0  0  0  0  0  0  0  0  0  0  0
   48.9720   27.6400  -14.3910 C   0  0  0  0  0  0  0  0  0  0  0  0
   49.5800   27.7020  -15.5840 F   0  0  0  0  0  0  0  0  0  0  0  0
   47.7470   26.9900  -14.2810 C   0  0  0  0  0  0  0  0  0  0  0  0
   43.2090   27.0920  -12.9770 C   0  0  0  0  0  0  0  0  0  0  0  0
   41.8320   27.2280  -12.7890 C   0  0  0  0  0  0  0  0  0  0  0  0
   38.1860   27.3280  -16.8930 C   0  0  0  0  0  0  0  0  0  0  0  0
   38.6460   26.1200  -17.3400 N   0  0  0  0  0  0  0  0  0  0  0  0
   37.9780   28.2600  -17.6610 O   0  0  0  0  0  0  0  0  0  0  0  0
   38.5456   28.7702  -13.7751 H   0  0  0  0  0  0  0  0  0  0  0  0
   39.5669   28.8967  -15.2473 H   0  0  0  0  0  0  0  0  0  0  0  0
   37.9033   29.5743  -15.2473 H   0  0  0  0  0  0  0  0  0  0  0  0
   36.9248   27.3395  -15.1317 H   0  0  0  0  0  0  0  0  0  0  0  0
   39.4050   25.9200  -15.3480 H   0  0  0  0  0  0  0  0  0  0  0  0
   38.0560   25.6130  -14.4000 H   0  0  0  0  0  0  0  0  0  0  0  0
   39.2060   27.8701  -13.3560 H   0  0  0  0  0  0  0  0  0  0  0  0
   39.1261   26.2205  -12.6350 H   0  0  0  0  0  0  0  0  0  0  0  0
   40.7520   25.5020  -15.5218 H   0  0  0  0  0  0  0  0  0  0  0  0
   43.2106   25.2596  -15.8505 H   0  0  0  0  0  0  0  0  0  0  0  0
   45.1925   26.6633  -12.0881 H   0  0  0  0  0  0  0  0  0  0  0  0
   45.9444   25.1477  -12.6567 H   0  0  0  0  0  0  0  0  0  0  0  0
   47.2292   27.4459  -10.9373 H   0  0  0  0  0  0  0  0  0  0  0  0
   49.4199   28.6128  -11.1616 H   0  0  0  0  0  0  0  0  0  0  0  0
   50.5424   28.7410  -13.3890 H   0  0  0  0  0  0  0  0  0  0  0  0
   47.2877   26.5275  -15.1671 H   0  0  0  0  0  0  0  0  0  0  0  0
   43.9039   27.5457  -12.2550 H   0  0  0  0  0  0  0  0  0  0  0  0
   41.4509   27.7924  -11.9251 H   0  0  0  0  0  0  0  0  0  0  0  0
   38.8070   25.3870  -16.7020 H   0  0  0  0  0  0  0  0  0  0  0  0
   38.8190   25.9840  -18.3000 H   0  0  0  0  0  0  0  0  0  0  0  0
  1  2  1  0
  2  3  1  0
  3  4  1  0
  4  5  1  0
  5  6  2  0
  6  7  1  0
  7  8  2  0
  8  9  1  0
  9 10  1  0
 10 11  1  0
 11 12  2  0
 12 13  1  0
 13 14  2  0
 14 15  1  0
 15 16  1  0
 15 17  2  0
  8 18  1  0
 18 19  2  0
  2 20  1  0
 20 21  1  0
 20 22  2  0
 19  5  1  0
 17 11  1  0
  1 23  1  0
  1 24  1  0
  1 25  1  0
  2 26  1  6
  3 27  1  0
  3 28  1  0
  4 29  1  0
  4 30  1  0
  6 31  1  0
  7 32  1  0
 10 33  1  0
 10 34  1  0
 12 35  1  0
 13 36  1  0
 14 37  1  0
 17 38  1  0
 18 39  1  0
 19 40  1  0
 21 41  1  0
 21 42  1  0
M  CHG  1   3   1
M  END
>  <meeko>  (5) 
{"is_sidechain": [false], "free_energy": -3.764, "intermolecular_energy": -4.209, "internal_energy": -0.691}

$$$$
safinamide_out
     RDKit          3D

 42 43  0  0  0  0  0  0  0  0999 V2000
   38.3650   27.5680  -17.5700 C   0  0  0  0  0  0  0  0  0  0  0  0
   38.6290   27.4000  -16.0760 C   0  0  2  0  0  0  0  0  0  0  0  0
   38.1500   26.0620  -15.6440 N   0  0  0  0  0  0  0  0  0  0  0  0
   38.3650   25.8640  -14.2060 C   0  0  0  0  0  0  0  0  0  0  0  0
   39.6970   26.4420  -13.7920 C   0  0  0  0  0  0  0  0  0  0  0  0
   39.8370   27.0940  -12.5610 C   0  0  0  0  0  0  0  0  0  0  0  0
   41.0730   27.6170  -12.1620 C   0  0  0  0  0  0  0  0  0  0  0  0
   42.1870   27.4890  -12.9910 C   0  0  0  0  0  0  0  0  0  0  0  0
   43.4470   27.9500  -12.7270 O   0  0  0  0  0  0  0  0  0  0  0  0
   44.4140   27.8280  -13.7670 C   0  0  0  0  0  0  0  0  0  0  0  0
   45.2270   26.5850  -13.5010 C   0  0  0  0  0  0  0  0  0  0  0  0
   46.5200   26.6820  -12.9610 C   0  0  0  0  0  0  0  0  0  0  0  0
   47.2700   25.5320  -12.6980 C   0  0  0  0  0  0  0  0  0  0  0  0
   46.7320   24.2750  -12.9640 C   0  0  0  0  0  0  0  0  0  0  0  0
   45.4470   24.1770  -13.4850 C   0  0  0  0  0  0  0  0  0  0  0  0
   44.9280   22.9680  -13.7350 F   0  0  0  0  0  0  0  0  0  0  0  0
   44.6910   25.3140  -13.7510 C   0  0  0  0  0  0  0  0  0  0  0  0
   42.0540   26.8320  -14.2160 C   0  0  0  0  0  0  0  0  0  0  0  0
   40.8220   26.3080  -14.6150 C   0  0  0  0  0  0  0  0  0  0  0  0
   37.8840   28.5020  -15.3030 C   0  0  0  0  0  0  0  0  0  0  0  0
   38.6710   29.5390  -14.8820 N   0  0  0  0  0  0  0  0  0  0  0  0
   36.6860   28.4610  -15.0460 O   0  0  0  0  0  0  0  0  0  0  0  0
   37.4452   28.1533  -17.7163 H   0  0  0  0  0  0  0  0  0  0  0  0
   39.2120   28.0936  -18.0352 H   0  0  0  0  0  0  0  0  0  0  0  0
   38.2476   26.5781  -18.0352 H   0  0  0  0  0  0  0  0  0  0  0  0
   39.7068   27.4819  -15.8719 H   0  0  0  0  0  0  0  0  0  0  0  0
   38.6570   25.3440  -16.1590 H   0  0  0  0  0  0  0  0  0  0  0  0
   37.1490   26.0000  -15.8340 H   0  0  0  0  0  0  0  0  0  0  0  0
   37.5618   26.3656  -13.6463 H   0  0  0  0  0  0  0  0  0  0  0  0
   38.3589   24.7859  -13.9879 H   0  0  0  0  0  0  0  0  0  0  0  0
   38.9647   27.1967  -11.8987 H   0  0  0  0  0  0  0  0  0  0  0  0
   41.1654   28.1296  -11.1931 H   0  0  0  0  0  0  0  0  0  0  0  0
   43.9078   27.7424  -14.7398 H   0  0  0  0  0  0  0  0  0  0  0  0
   45.0654   28.7141  -13.7904 H   0  0  0  0  0  0  0  0  0  0  0  0
   46.9465   27.6722  -12.7430 H   0  0  0  0  0  0  0  0  0  0  0  0
   48.2842   25.6197  -12.2813 H   0  0  0  0  0  0  0  0  0  0  0  0
   47.3195   23.3669  -12.7633 H   0  0  0  0  0  0  0  0  0  0  0  0
   43.6735   25.2159  -14.1572 H   0  0  0  0  0  0  0  0  0  0  0  0
   42.9290   26.7259  -14.8741 H   0  0  0  0  0  0  0  0  0  0  0  0
   40.7352   25.7877  -15.5803 H   0  0  0  0  0  0  0  0  0  0  0  0
   39.6310   29.5490  -15.1000 H   0  0  0  0  0  0  0  0  0  0  0  0
   38.2780   30.2750  -14.3580 H   0  0  0  0  0  0  0  0  0  0  0  0
  1  2  1  0
  2  3  1  0
  3  4  1  0
  4  5  1  0
  5  6  2  0
  6  7  1  0
  7  8  2  0
  8  9  1  0
  9 10  1  0
 10 11  1  0
 11 12  2  0
 12 13  1  0
 13 14  2  0
 14 15  1  0
 15 16  1  0
 15 17  2  0
  8 18  1  0
 18 19  2  0
  2 20  1  0
 20 21  1  0
 20 22  2  0
 19  5  1  0
 17 11  1  0
  1 23  1  0
  1 24  1  0
  1 25  1  0
  2 26  1  6
  3 27  1  0
  3 28  1  0
  4 29  1  0
  4 30  1  0
  6 31  1  0
  7 32  1  0
 10 33  1  0
 10 34  1  0
 12 35  1  0
 13 36  1  0
 14 37  1  0
 17 38  1  0
 18 39  1  0
 19 40  1  0
 21 41  1  0
 21 42  1  0
M  CHG  1   3   1
M  END
>  <meeko>  (6) 
{"is_sidechain": [false], "free_energy": -3.715, "intermolecular_energy": -5.808, "internal_energy": 0.977}

$$$$
safinamide_out
     RDKit          3D

 42 43  0  0  0  0  0  0  0  0999 V2000
   46.3080   27.0390  -12.1570 C   0  0  0  0  0  0  0  0  0  0  0  0
   46.5270   26.2140  -13.4230 C   0  0  2  0  0  0  0  0  0  0  0  0
   45.6400   26.7280  -14.4970 N   0  0  0  0  0  0  0  0  0  0  0  0
   44.7650   27.7930  -13.9940 C   0  0  0  0  0  0  0  0  0  0  0  0
   43.3800   27.2500  -13.7290 C   0  0  0  0  0  0  0  0  0  0  0  0
   42.8450   26.2420  -14.5420 C   0  0  0  0  0  0  0  0  0  0  0  0
   41.5690   25.7200  -14.2920 C   0  0  0  0  0  0  0  0  0  0  0  0
   40.8160   26.1990  -13.2210 C   0  0  0  0  0  0  0  0  0  0  0  0
   39.5630   25.7810  -12.8650 O   0  0  0  0  0  0  0  0  0  0  0  0
   38.7220   25.2920  -13.9050 C   0  0  0  0  0  0  0  0  0  0  0  0
   38.4710   26.4240  -14.8700 C   0  0  0  0  0  0  0  0  0  0  0  0
   38.2920   27.7350  -14.3980 C   0  0  0  0  0  0  0  0  0  0  0  0
   38.0760   28.7900  -15.2900 C   0  0  0  0  0  0  0  0  0  0  0  0
   38.0450   28.5450  -16.6610 C   0  0  0  0  0  0  0  0  0  0  0  0
   38.2360   27.2510  -17.1300 C   0  0  0  0  0  0  0  0  0  0  0  0
   38.2120   27.0170  -18.4490 F   0  0  0  0  0  0  0  0  0  0  0  0
   38.4510   26.1930  -16.2520 C   0  0  0  0  0  0  0  0  0  0  0  0
   41.3490   27.1970  -12.4040 C   0  0  0  0  0  0  0  0  0  0  0  0
   42.6220   27.7180  -12.6500 C   0  0  0  0  0  0  0  0  0  0  0  0
   46.1990   24.7390  -13.1290 C   0  0  0  0  0  0  0  0  0  0  0  0
   47.2160   23.8630  -13.3950 N   0  0  0  0  0  0  0  0  0  0  0  0
   45.1110   24.3540  -12.7180 O   0  0  0  0  0  0  0  0  0  0  0  0
   46.4760   26.4060  -11.2732 H   0  0  0  0  0  0  0  0  0  0  0  0
   47.0132   27.8831  -12.1429 H   0  0  0  0  0  0  0  0  0  0  0  0
   45.2770   27.4222  -12.1429 H   0  0  0  0  0  0  0  0  0  0  0  0
   47.5747   26.2927  -13.7489 H   0  0  0  0  0  0  0  0  0  0  0  0
   45.0660   25.9640  -14.8510 H   0  0  0  0  0  0  0  0  0  0  0  0
   46.2220   27.1130  -15.2420 H   0  0  0  0  0  0  0  0  0  0  0  0
   45.1826   28.1949  -13.0591 H   0  0  0  0  0  0  0  0  0  0  0  0
   44.6993   28.5898  -14.7495 H   0  0  0  0  0  0  0  0  0  0  0  0
   43.4340   25.8557  -15.3869 H   0  0  0  0  0  0  0  0  0  0  0  0
   41.1610   24.9315  -14.9414 H   0  0  0  0  0  0  0  0  0  0  0  0
   39.2177   24.4597  -14.4262 H   0  0  0  0  0  0  0  0  0  0  0  0
   37.7719   24.9258  -13.4888 H   0  0  0  0  0  0  0  0  0  0  0  0
   38.3220   27.9335  -13.3165 H   0  0  0  0  0  0  0  0  0  0  0  0
   37.9308   29.8119  -14.9097 H   0  0  0  0  0  0  0  0  0  0  0  0
   37.8706   29.3700  -17.3673 H   0  0  0  0  0  0  0  0  0  0  0  0
   38.6051   25.1762  -16.6425 H   0  0  0  0  0  0  0  0  0  0  0  0
   40.7602   27.5779  -11.5566 H   0  0  0  0  0  0  0  0  0  0  0  0
   43.0301   28.4997  -11.9924 H   0  0  0  0  0  0  0  0  0  0  0  0
   48.0810   24.1980  -13.7250 H   0  0  0  0  0  0  0  0  0  0  0  0
   47.0820   22.8970  -13.2590 H   0  0  0  0  0  0  0  0  0  0  0  0
  1  2  1  0
  2  3  1  0
  3  4  1  0
  4  5  1  0
  5  6  2  0
  6  7  1  0
  7  8  2  0
  8  9  1  0
  9 10  1  0
 10 11  1  0
 11 12  2  0
 12 13  1  0
 13 14  2  0
 14 15  1  0
 15 16  1  0
 15 17  2  0
  8 18  1  0
 18 19  2  0
  2 20  1  0
 20 21  1  0
 20 22  2  0
 19  5  1  0
 17 11  1  0
  1 23  1  0
  1 24  1  0
  1 25  1  0
  2 26  1  6
  3 27  1  0
  3 28  1  0
  4 29  1  0
  4 30  1  0
  6 31  1  0
  7 32  1  0
 10 33  1  0
 10 34  1  0
 12 35  1  0
 13 36  1  0
 14 37  1  0
 17 38  1  0
 18 39  1  0
 19 40  1  0
 21 41  1  0
 21 42  1  0
M  CHG  1   3   1
M  END
>  <meeko>  (7) 
{"is_sidechain": [false], "free_energy": -2.883, "intermolecular_energy": -3.111, "internal_energy": -0.548}

$$$$
safinamide_out
     RDKit          3D

 42 43  0  0  0  0  0  0  0  0999 V2000
   46.6820   25.0020  -12.6480 C   0  0  0  0  0  0  0  0  0  0  0  0
   46.4220   26.4870  -12.8900 C   0  0  2  0  0  0  0  0  0  0  0  0
   46.0740   26.6930  -14.3190 N   0  0  0  0  0  0  0  0  0  0  0  0
   45.0570   27.7400  -14.4690 C   0  0  0  0  0  0  0  0  0  0  0  0
   43.6990   27.2090  -14.0750 C   0  0  0  0  0  0  0  0  0  0  0  0
   43.1640   26.0820  -14.7110 C   0  0  0  0  0  0  0  0  0  0  0  0
   41.9140   25.5730  -14.3400 C   0  0  0  0  0  0  0  0  0  0  0  0
   41.1840   26.1850  -13.3210 C   0  0  0  0  0  0  0  0  0  0  0  0
   39.9580   25.7950  -12.8590 O   0  0  0  0  0  0  0  0  0  0  0  0
   39.0280   25.3080  -13.8210 C   0  0  0  0  0  0  0  0  0  0  0  0
   38.6650   26.4500  -14.7370 C   0  0  0  0  0  0  0  0  0  0  0  0
   38.6930   26.2820  -16.1310 C   0  0  0  0  0  0  0  0  0  0  0  0
   38.3410   27.3330  -16.9830 C   0  0  0  0  0  0  0  0  0  0  0  0
   37.9510   28.5590  -16.4490 C   0  0  0  0  0  0  0  0  0  0  0  0
   37.9080   28.7220  -15.0700 C   0  0  0  0  0  0  0  0  0  0  0  0
   37.5260   29.9000  -14.5570 F   0  0  0  0  0  0  0  0  0  0  0  0
   38.2560   27.6840  -14.2120 C   0  0  0  0  0  0  0  0  0  0  0  0
   41.7180   27.3040  -12.6780 C   0  0  0  0  0  0  0  0  0  0  0  0
   42.9660   27.8130  -13.0460 C   0  0  0  0  0  0  0  0  0  0  0  0
   47.6860   27.2870  -12.5340 C   0  0  0  0  0  0  0  0  0  0  0  0
   48.6220   27.3540  -13.5300 N   0  0  0  0  0  0  0  0  0  0  0  0
   47.8760   27.8070  -11.4400 O   0  0  0  0  0  0  0  0  0  0  0  0
   46.7161   24.8073  -11.5659 H   0  0  0  0  0  0  0  0  0  0  0  0
   45.8739   24.4095  -13.1019 H   0  0  0  0  0  0  0  0  0  0  0  0
   47.6433   24.7193  -13.1019 H   0  0  0  0  0  0  0  0  0  0  0  0
   45.5883   26.8319  -12.2607 H   0  0  0  0  0  0  0  0  0  0  0  0
   45.7130   25.8210  -14.7040 H   0  0  0  0  0  0  0  0  0  0  0  0
   46.9140   26.9840  -14.8180 H   0  0  0  0  0  0  0  0  0  0  0  0
   45.3151   28.5923  -13.8233 H   0  0  0  0  0  0  0  0  0  0  0  0
   45.0253   28.0613  -15.5206 H   0  0  0  0  0  0  0  0  0  0  0  0
   43.7338   25.5900  -15.5130 H   0  0  0  0  0  0  0  0  0  0  0  0
   41.5067   24.6891  -14.8527 H   0  0  0  0  0  0  0  0  0  0  0  0
   39.4844   24.4934  -14.4025 H   0  0  0  0  0  0  0  0  0  0  0  0
   38.1291   24.9184  -13.3208 H   0  0  0  0  0  0  0  0  0  0  0  0
   38.9949   25.3137  -16.5568 H   0  0  0  0  0  0  0  0  0  0  0  0
   38.3720   27.1920  -18.0735 H   0  0  0  0  0  0  0  0  0  0  0  0
   37.6791   29.3918  -17.1142 H   0  0  0  0  0  0  0  0  0  0  0  0
   38.2104   27.8311  -13.1228 H   0  0  0  0  0  0  0  0  0  0  0  0
   41.1490   27.7905  -11.8720 H   0  0  0  0  0  0  0  0  0  0  0  0
   43.3744   28.6917  -12.5254 H   0  0  0  0  0  0  0  0  0  0  0  0
   48.4460   26.9280  -14.4000 H   0  0  0  0  0  0  0  0  0  0  0  0
   49.4720   27.8270  -13.3760 H   0  0  0  0  0  0  0  0  0  0  0  0
  1  2  1  0
  2  3  1  0
  3  4  1  0
  4  5  1  0
  5  6  2  0
  6  7  1  0
  7  8  2  0
  8  9  1  0
  9 10  1  0
 10 11  1  0
 11 12  2  0
 12 13  1  0
 13 14  2  0
 14 15  1  0
 15 16  1  0
 15 17  2  0
  8 18  1  0
 18 19  2  0
  2 20  1  0
 20 21  1  0
 20 22  2  0
 19  5  1  0
 17 11  1  0
  1 23  1  0
  1 24  1  0
  1 25  1  0
  2 26  1  1
  3 27  1  0
  3 28  1  0
  4 29  1  0
  4 30  1  0
  6 31  1  0
  7 32  1  0
 10 33  1  0
 10 34  1  0
 12 35  1  0
 13 36  1  0
 14 37  1  0
 17 38  1  0
 18 39  1  0
 19 40  1  0
 21 41  1  0
 21 42  1  0
M  CHG  1   3   1
M  END
>  <meeko>  (8) 
{"is_sidechain": [false], "free_energy": -2.783, "intermolecular_energy": -2.656, "internal_energy": -0.863}

$$$$
safinamide_out
     RDKit          3D

 42 43  0  0  0  0  0  0  0  0999 V2000
   48.0110   28.0510  -11.7980 C   0  0  0  0  0  0  0  0  0  0  0  0
   47.6220   27.3120  -13.0760 C   0  0  2  0  0  0  0  0  0  0  0  0
   47.1120   25.9630  -12.7220 N   0  0  0  0  0  0  0  0  0  0  0  0
   46.2010   25.4560  -13.7550 C   0  0  0  0  0  0  0  0  0  0  0  0
   44.7920   25.9280  -13.4870 C   0  0  0  0  0  0  0  0  0  0  0  0
   43.7930   25.7740  -14.4570 C   0  0  0  0  0  0  0  0  0  0  0  0
   42.4800   26.1920  -14.2090 C   0  0  0  0  0  0  0  0  0  0  0  0
   42.1490   26.7660  -12.9820 C   0  0  0  0  0  0  0  0  0  0  0  0
   40.9130   27.2150  -12.6080 O   0  0  0  0  0  0  0  0  0  0  0  0
   39.7940   26.4140  -12.9740 C   0  0  0  0  0  0  0  0  0  0  0  0
   39.0970   27.0900  -14.1290 C   0  0  0  0  0  0  0  0  0  0  0  0
   38.6150   28.4030  -14.0000 C   0  0  0  0  0  0  0  0  0  0  0  0
   37.9840   29.0390  -15.0730 C   0  0  0  0  0  0  0  0  0  0  0  0
   37.8350   28.3710  -16.2860 C   0  0  0  0  0  0  0  0  0  0  0  0
   38.3240   27.0770  -16.4190 C   0  0  0  0  0  0  0  0  0  0  0  0
   38.1870   26.4380  -17.5890 F   0  0  0  0  0  0  0  0  0  0  0  0
   38.9540   26.4340  -15.3590 C   0  0  0  0  0  0  0  0  0  0  0  0
   43.1390   26.9120  -12.0080 C   0  0  0  0  0  0  0  0  0  0  0  0
   44.4500   26.4950  -12.2530 C   0  0  0  0  0  0  0  0  0  0  0  0
   48.8580   27.1870  -13.9840 C   0  0  0  0  0  0  0  0  0  0  0  0
   49.5800   26.0370  -13.8140 N   0  0  0  0  0  0  0  0  0  0  0  0
   49.2040   28.0500  -14.7830 O   0  0  0  0  0  0  0  0  0  0  0  0
   47.7000   27.4603  -10.9237 H   0  0  0  0  0  0  0  0  0  0  0  0
   49.1014   28.1943  -11.7747 H   0  0  0  0  0  0  0  0  0  0  0  0
   47.5119   29.0310  -11.7747 H   0  0  0  0  0  0  0  0  0  0  0  0
   46.8367   27.8676  -13.6094 H   0  0  0  0  0  0  0  0  0  0  0  0
   46.6120   26.0180  -11.8350 H   0  0  0  0  0  0  0  0  0  0  0  0
   47.9040   25.3260  -12.6480 H   0  0  0  0  0  0  0  0  0  0  0  0
   46.5265   25.8248  -14.7389 H   0  0  0  0  0  0  0  0  0  0  0  0
   46.2193   24.3562  -13.7405 H   0  0  0  0  0  0  0  0  0  0  0  0
   44.0435   25.3186  -15.4264 H   0  0  0  0  0  0  0  0  0  0  0  0
   41.7085   26.0675  -14.9831 H   0  0  0  0  0  0  0  0  0  0  0  0
   40.1343   25.4129  -13.2772 H   0  0  0  0  0  0  0  0  0  0  0  0
   39.1062   26.3050  -12.1225 H   0  0  0  0  0  0  0  0  0  0  0  0
   38.7353   28.9360  -13.0453 H   0  0  0  0  0  0  0  0  0  0  0  0
   37.6057   30.0656  -14.9595 H   0  0  0  0  0  0  0  0  0  0  0  0
   37.3341   28.8639  -17.1323 H   0  0  0  0  0  0  0  0  0  0  0  0
   39.3396   25.4117  -15.4859 H   0  0  0  0  0  0  0  0  0  0  0  0
   42.8838   27.3605  -11.0365 H   0  0  0  0  0  0  0  0  0  0  0  0
   45.2168   26.6126  -11.4731 H   0  0  0  0  0  0  0  0  0  0  0  0
   49.2810   25.3600  -13.1650 H   0  0  0  0  0  0  0  0  0  0  0  0
   50.4000   25.8890  -14.3380 H   0  0  0  0  0  0  0  0  0  0  0  0
  1  2  1  0
  2  3  1  0
  3  4  1  0
  4  5  1  0
  5  6  2  0
  6  7  1  0
  7  8  2  0
  8  9  1  0
  9 10  1  0
 10 11  1  0
 11 12  2  0
 12 13  1  0
 13 14  2  0
 14 15  1  0
 15 16  1  0
 15 17  2  0
  8 18  1  0
 18 19  2  0
  2 20  1  0
 20 21  1  0
 20 22  2  0
 19  5  1  0
 17 11  1  0
  1 23  1  0
  1 24  1  0
  1 25  1  0
  2 26  1  6
  3 27  1  0
  3 28  1  0
  4 29  1  0
  4 30  1  0
  6 31  1  0
  7 32  1  0
 10 33  1  0
 10 34  1  0
 12 35  1  0
 13 36  1  0
 14 37  1  0
 17 38  1  0
 18 39  1  0
 19 40  1  0
 21 41  1  0
 21 42  1  0
M  CHG  1   3   1
M  END
>  <meeko>  (9) 
{"is_sidechain": [false], "free_energy": -2.645, "intermolecular_energy": -2.772, "internal_energy": -0.551}

$$$$
