safinamide_out
     RDKit          3D

 42 43  0  0  0  0  0  0  0  0999 V2000
   32.8200   33.3400  -17.5620 C   0  0  0  0  0  0  0  0  0  0  0  0
   34.1660   32.6490  -17.7680 C   0  0  2  0  0  0  0  0  0  0  0  0
   34.1780   31.3720  -17.0080 N   0  0  0  0  0  0  0  0  0  0  0  0
   34.8260   30.3060  -17.7810 C   0  0  0  0  0  0  0  0  0  0  0  0
   35.9000   29.6400  -16.9530 C   0  0  0  0  0  0  0  0  0  0  0  0
   36.7670   28.7050  -17.5330 C   0  0  0  0  0  0  0  0  0  0  0  0
   37.7770   28.0980  -16.7770 C   0  0  0  0  0  0  0  0  0  0  0  0
   37.9350   28.4240  -15.4310 C   0  0  0  0  0  0  0  0  0  0  0  0
   38.8740   27.9100  -14.5800 O   0  0  0  0  0  0  0  0  0  0  0  0
   39.4270   26.6400  -14.9140 C   0  0  0  0  0  0  0  0  0  0  0  0
   40.8130   26.5670  -14.3230 C   0  0  0  0  0  0  0  0  0  0  0  0
   41.1230   27.2690  -13.1460 C   0  0  0  0  0  0  0  0  0  0  0  0
   42.4010   27.1900  -12.5860 C   0  0  0  0  0  0  0  0  0  0  0  0
   43.3780   26.4040  -13.1920 C   0  0  0  0  0  0  0  0  0  0  0  0
   43.0680   25.6980  -14.3480 C   0  0  0  0  0  0  0  0  0  0  0  0
   44.0070   24.9360  -14.9260 F   0  0  0  0  0  0  0  0  0  0  0  0
   41.8000   25.7680  -14.9150 C   0  0  0  0  0  0  0  0  0  0  0  0
   37.0790   29.3620  -14.8510 C   0  0  0  0  0  0  0  0  0  0  0  0
   36.0710   29.9700  -15.6040 C   0  0  0  0  0  0  0  0  0  0  0  0
   35.2910   33.5710  -17.2660 C   0  0  0  0  0  0  0  0  0  0  0  0
   35.9230   34.2880  -18.2460 N   0  0  0  0  0  0  0  0  0  0  0  0
   35.6310   33.6520  -16.0920 O   0  0  0  0  0  0  0  0  0  0  0  0
   32.6213   33.4420  -16.4849 H   0  0  0  0  0  0  0  0  0  0  0  0
   32.8447   34.3369  -18.0263 H   0  0  0  0  0  0  0  0  0  0  0  0
   32.0244   32.7389  -18.0263 H   0  0  0  0  0  0  0  0  0  0  0  0
   34.3223   32.4377  -18.8361 H   0  0  0  0  0  0  0  0  0  0  0  0
   33.2180   31.0980  -16.8020 H   0  0  0  0  0  0  0  0  0  0  0  0
   34.7040   31.5130  -16.1460 H   0  0  0  0  0  0  0  0  0  0  0  0
   34.0733   29.5576  -18.0697 H   0  0  0  0  0  0  0  0  0  0  0  0
   35.2852   30.7430  -18.6800 H   0  0  0  0  0  0  0  0  0  0  0  0
   36.6528   28.4445  -18.5956 H   0  0  0  0  0  0  0  0  0  0  0  0
   38.4471   27.3625  -17.2461 H   0  0  0  0  0  0  0  0  0  0  0  0
   38.8002   25.8382  -14.4967 H   0  0  0  0  0  0  0  0  0  0  0  0
   39.4695   26.5162  -16.0062 H   0  0  0  0  0  0  0  0  0  0  0  0
   40.3527   27.8864  -12.6609 H   0  0  0  0  0  0  0  0  0  0  0  0
   42.6350   27.7481  -11.6674 H   0  0  0  0  0  0  0  0  0  0  0  0
   44.3873   26.3425  -12.7589 H   0  0  0  0  0  0  0  0  0  0  0  0
   41.5723   25.1968  -15.8271 H   0  0  0  0  0  0  0  0  0  0  0  0
   37.1993   29.6253  -13.7898 H   0  0  0  0  0  0  0  0  0  0  0  0
   35.4086   30.7118  -15.1339 H   0  0  0  0  0  0  0  0  0  0  0  0
   35.6310   34.2050  -19.1830 H   0  0  0  0  0  0  0  0  0  0  0  0
   36.6720   34.8840  -18.0140 H   0  0  0  0  0  0  0  0  0  0  0  0
  1  2  1  0
  2  3  1  0
  3  4  1  0
  4  5  1  0
  5  6  2  0
  6  7  1  0
  7  8  2  0
  8  9  1  0
  9 10  1  0
 10 11  1  0
 11 12  2  0
 12 13  1  0
 13 14  2  0
 14 15  1  0
 15 16  1  0
 15 17  2  0
  8 18  1  0
 18 19  2  0
  2 20  1  0
 20 21  1  0
 20 22  2  0
 19  5  1  0
 17 11  1  0
  1 23  1  0
  1 24  1  0
  1 25  1  0
  2 26  1  6
  3 27  1  0
  3 28  1  0
  4 29  1  0
  4 30  1  0
  6 31  1  0
  7 32  1  0
 10 33  1  0
 10 34  1  0
 12 35  1  0
 13 36  1  0
 14 37  1  0
 17 38  1  0
 18 39  1  0
 19 40  1  0
 21 41  1  0
 21 42  1  0
M  CHG  1   3   1
M  END
>  <meeko>  (1) 
{"is_sidechain": [false], "free_energy": -9.885, "intermolecular_energy": -13.93, "internal_energy": -0.668}

$$$$
safinamide_out
     RDKit          3D

 42 43  0  0  0  0  0  0  0  0999 V2000
   45.8290   24.3680  -13.4160 C   0  0  0  0  0  0  0  0  0  0  0  0
   46.1500   25.8590  -13.3600 C   0  0  2  0  0  0  0  0  0  0  0  0
   44.9510   26.6310  -13.7770 N   0  0  0  0  0  0  0  0  0  0  0  0
   43.9760   26.7190  -12.6840 C   0  0  0  0  0  0  0  0  0  0  0  0
   42.5700   26.7310  -13.2380 C   0  0  0  0  0  0  0  0  0  0  0  0
   41.5210   27.2990  -12.5030 C   0  0  0  0  0  0  0  0  0  0  0  0
   40.2200   27.3300  -13.0180 C   0  0  0  0  0  0  0  0  0  0  0  0
   39.9530   26.7970  -14.2780 C   0  0  0  0  0  0  0  0  0  0  0  0
   38.7350   26.7620  -14.8990 O   0  0  0  0  0  0  0  0  0  0  0  0
   38.6390   27.3850  -16.1760 C   0  0  0  0  0  0  0  0  0  0  0  0
   37.5210   28.3960  -16.1170 C   0  0  0  0  0  0  0  0  0  0  0  0
   37.2420   29.0810  -14.9220 C   0  0  0  0  0  0  0  0  0  0  0  0
   36.2180   30.0300  -14.8670 C   0  0  0  0  0  0  0  0  0  0  0  0
   35.4680   30.3100  -16.0070 C   0  0  0  0  0  0  0  0  0  0  0  0
   35.7520   29.6440  -17.1930 C   0  0  0  0  0  0  0  0  0  0  0  0
   35.0350   29.9190  -18.2910 F   0  0  0  0  0  0  0  0  0  0  0  0
   36.7690   28.6970  -17.2600 C   0  0  0  0  0  0  0  0  0  0  0  0
   40.9970   26.2380  -15.0170 C   0  0  0  0  0  0  0  0  0  0  0  0
   42.2970   26.2070  -14.5060 C   0  0  0  0  0  0  0  0  0  0  0  0
   47.3260   26.1590  -14.3060 C   0  0  0  0  0  0  0  0  0  0  0  0
   47.3810   25.3670  -15.4210 N   0  0  0  0  0  0  0  0  0  0  0  0
   48.1750   27.0150  -14.0850 O   0  0  0  0  0  0  0  0  0  0  0  0
   45.7439   23.9726  -12.3931 H   0  0  0  0  0  0  0  0  0  0  0  0
   44.8779   24.2174  -13.9477 H   0  0  0  0  0  0  0  0  0  0  0  0
   46.6339   23.8394  -13.9477 H   0  0  0  0  0  0  0  0  0  0  0  0
   46.4282   26.1474  -12.3356 H   0  0  0  0  0  0  0  0  0  0  0  0
   44.5170   26.1680  -14.5740 H   0  0  0  0  0  0  0  0  0  0  0  0
   45.2440   27.5750  -14.0260 H   0  0  0  0  0  0  0  0  0  0  0  0
   44.0969   25.8514  -12.0186 H   0  0  0  0  0  0  0  0  0  0  0  0
   44.1486   27.6495  -12.1233 H   0  0  0  0  0  0  0  0  0  0  0  0
   41.7224   27.7257  -11.5093 H   0  0  0  0  0  0  0  0  0  0  0  0
   39.4064   27.7760  -12.4271 H   0  0  0  0  0  0  0  0  0  0  0  0
   39.5862   27.8892  -16.4178 H   0  0  0  0  0  0  0  0  0  0  0  0
   38.4354   26.6342  -16.9538 H   0  0  0  0  0  0  0  0  0  0  0  0
   37.8358   28.8679  -14.0209 H   0  0  0  0  0  0  0  0  0  0  0  0
   36.0043   30.5554  -13.9245 H   0  0  0  0  0  0  0  0  0  0  0  0
   34.6573   31.0525  -15.9686 H   0  0  0  0  0  0  0  0  0  0  0  0
   36.9825   28.1849  -18.2098 H   0  0  0  0  0  0  0  0  0  0  0  0
   40.7939   25.8172  -16.0128 H   0  0  0  0  0  0  0  0  0  0  0  0
   43.1097   25.7685  -15.1036 H   0  0  0  0  0  0  0  0  0  0  0  0
   46.6860   24.6860  -15.5760 H   0  0  0  0  0  0  0  0  0  0  0  0
   48.1160   25.4760  -16.0670 H   0  0  0  0  0  0  0  0  0  0  0  0
  1  2  1  0
  2  3  1  0
  3  4  1  0
  4  5  1  0
  5  6  2  0
  6  7  1  0
  7  8  2  0
  8  9  1  0
  9 10  1  0
 10 11  1  0
 11 12  2  0
 12 13  1  0
 13 14  2  0
 14 15  1  0
 15 16  1  0
 15 17  2  0
  8 18  1  0
 18 19  2  0
  2 20  1  0
 20 21  1  0
 20 22  2  0
 19  5  1  0
 17 11  1  0
  1 23  1  0
  1 24  1  0
  1 25  1  0
  2 26  1  1
  3 27  1  0
  3 28  1  0
  4 29  1  0
  4 30  1  0
  6 31  1  0
  7 32  1  0
 10 33  1  0
 10 34  1  0
 12 35  1  0
 13 36  1  0
 14 37  1  0
 17 38  1  0
 18 39  1  0
 19 40  1  0
 21 41  1  0
 21 42  1  0
M  CHG  1   3   1
M  END
>  <meeko>  (2) 
{"is_sidechain": [false], "free_energy": -9.799, "intermolecular_energy": -13.786, "internal_energy": -0.691}

$$$$
safinamide_out
     RDKit          3D

 42 43  0  0  0  0  0  0  0  0999 V2000
   33.0870   32.7300  -17.5060 C   0  0  0  0  0  0  0  0  0  0  0  0
   34.5120   32.1920  -17.6050 C   0  0  2  0  0  0  0  0  0  0  0  0
   34.6060   30.9220  -16.8390 N   0  0  0  0  0  0  0  0  0  0  0  0
   35.3630   29.9110  -17.5870 C   0  0  0  0  0  0  0  0  0  0  0  0
   36.4290   29.3010  -16.7080 C   0  0  0  0  0  0  0  0  0  0  0  0
   36.6130   29.7530  -15.3950 C   0  0  0  0  0  0  0  0  0  0  0  0
   37.5860   29.1800  -14.5680 C   0  0  0  0  0  0  0  0  0  0  0  0
   38.3860   28.1420  -15.0450 C   0  0  0  0  0  0  0  0  0  0  0  0
   39.3690   27.4950  -14.3490 O   0  0  0  0  0  0  0  0  0  0  0  0
   40.1590   26.5510  -15.0670 C   0  0  0  0  0  0  0  0  0  0  0  0
   41.5030   26.4590  -14.3880 C   0  0  0  0  0  0  0  0  0  0  0  0
   41.7780   27.2300  -13.2460 C   0  0  0  0  0  0  0  0  0  0  0  0
   43.0160   27.1350  -12.6040 C   0  0  0  0  0  0  0  0  0  0  0  0
   43.9870   26.2630  -13.0920 C   0  0  0  0  0  0  0  0  0  0  0  0
   43.7100   25.4890  -14.2130 C   0  0  0  0  0  0  0  0  0  0  0  0
   44.6420   24.6460  -14.6770 F   0  0  0  0  0  0  0  0  0  0  0  0
   42.4820   25.5750  -14.8600 C   0  0  0  0  0  0  0  0  0  0  0  0
   38.2000   27.6820  -16.3500 C   0  0  0  0  0  0  0  0  0  0  0  0
   37.2280   28.2520  -17.1770 C   0  0  0  0  0  0  0  0  0  0  0  0
   35.4870   33.2310  -17.0250 C   0  0  0  0  0  0  0  0  0  0  0  0
   36.0620   34.0570  -17.9530 N   0  0  0  0  0  0  0  0  0  0  0  0
   35.7650   33.3120  -15.8340 O   0  0  0  0  0  0  0  0  0  0  0  0
   32.8076   32.8355  -16.4473 H   0  0  0  0  0  0  0  0  0  0  0  0
   33.0305   33.7114  -17.9997 H   0  0  0  0  0  0  0  0  0  0  0  0
   32.3960   32.0309  -17.9997 H   0  0  0  0  0  0  0  0  0  0  0  0
   34.7719   32.0016  -18.6568 H   0  0  0  0  0  0  0  0  0  0  0  0
   33.6670   30.5700  -16.6600 H   0  0  0  0  0  0  0  0  0  0  0  0
   35.0930   31.1080  -15.9620 H   0  0  0  0  0  0  0  0  0  0  0  0
   34.6768   29.1214  -17.9270 H   0  0  0  0  0  0  0  0  0  0  0  0
   35.8430   30.3902  -18.4530 H   0  0  0  0  0  0  0  0  0  0  0  0
   35.9845   30.5690  -15.0088 H   0  0  0  0  0  0  0  0  0  0  0  0
   37.7199   29.5489  -13.5404 H   0  0  0  0  0  0  0  0  0  0  0  0
   39.6670   25.5672  -15.0567 H   0  0  0  0  0  0  0  0  0  0  0  0
   40.2793   26.8691  -16.1131 H   0  0  0  0  0  0  0  0  0  0  0  0
   41.0118   27.9148  -12.8535 H   0  0  0  0  0  0  0  0  0  0  0  0
   43.2234   27.7480  -11.7145 H   0  0  0  0  0  0  0  0  0  0  0  0
   44.9650   26.1876  -12.5942 H   0  0  0  0  0  0  0  0  0  0  0  0
   42.2795   24.9493  -15.7418 H   0  0  0  0  0  0  0  0  0  0  0  0
   38.8255   26.8616  -16.7317 H   0  0  0  0  0  0  0  0  0  0  0  0
   37.0904   27.8745  -18.2010 H   0  0  0  0  0  0  0  0  0  0  0  0
   35.8220   33.9720  -18.9040 H   0  0  0  0  0  0  0  0  0  0  0  0
   36.7170   34.7350  -17.6690 H   0  0  0  0  0  0  0  0  0  0  0  0
  1  2  1  0
  2  3  1  0
  3  4  1  0
  4  5  1  0
  5  6  2  0
  6  7  1  0
  7  8  2  0
  8  9  1  0
  9 10  1  0
 10 11  1  0
 11 12  2  0
 12 13  1  0
 13 14  2  0
 14 15  1  0
 15 16  1  0
 15 17  2  0
  8 18  1  0
 18 19  2  0
  2 20  1  0
 20 21  1  0
 20 22  2  0
 19  5  1  0
 17 11  1  0
  1 23  1  0
  1 24  1  0
  1 25  1  0
  2 26  1  6
  3 27  1  0
  3 28  1  0
  4 29  1  0
  4 30  1  0
  6 31  1  0
  7 32  1  0
 10 33  1  0
 10 34  1  0
 12 35  1  0
 13 36  1  0
 14 37  1  0
 17 38  1  0
 18 39  1  0
 19 40  1  0
 21 41  1  0
 21 42  1  0
M  CHG  1   3   1
M  END
>  <meeko>  (3) 
{"is_sidechain": [false], "free_energy": -9.758, "intermolecular_energy": -13.716, "internal_energy": -0.702}

$$$$
safinamide_out
     RDKit          3D

 42 43  0  0  0  0  0  0  0  0999 V2000
   33.2870   32.1050  -17.1990 C   0  0  0  0  0  0  0  0  0  0  0  0
   34.7820   31.8390  -17.3510 C   0  0  2  0  0  0  0  0  0  0  0  0
   35.1240   30.5700  -16.6600 N   0  0  0  0  0  0  0  0  0  0  0  0
   35.8370   29.6550  -17.5590 C   0  0  0  0  0  0  0  0  0  0  0  0
   36.8920   28.8890  -16.7960 C   0  0  0  0  0  0  0  0  0  0  0  0
   37.2250   29.2520  -15.4850 C   0  0  0  0  0  0  0  0  0  0  0  0
   38.1890   28.5360  -14.7650 C   0  0  0  0  0  0  0  0  0  0  0  0
   38.8280   27.4420  -15.3480 C   0  0  0  0  0  0  0  0  0  0  0  0
   39.7820   26.6580  -14.7620 O   0  0  0  0  0  0  0  0  0  0  0  0
   40.5340   27.2350  -13.6990 C   0  0  0  0  0  0  0  0  0  0  0  0
   41.9280   26.6620  -13.7520 C   0  0  0  0  0  0  0  0  0  0  0  0
   42.2220   25.5820  -14.6000 C   0  0  0  0  0  0  0  0  0  0  0  0
   43.5160   25.0580  -14.6650 C   0  0  0  0  0  0  0  0  0  0  0  0
   44.5310   25.6140  -13.8890 C   0  0  0  0  0  0  0  0  0  0  0  0
   44.2440   26.6920  -13.0590 C   0  0  0  0  0  0  0  0  0  0  0  0
   45.2220   27.2300  -12.3180 F   0  0  0  0  0  0  0  0  0  0  0  0
   42.9600   27.2220  -12.9860 C   0  0  0  0  0  0  0  0  0  0  0  0
   38.4910   27.0710  -16.6510 C   0  0  0  0  0  0  0  0  0  0  0  0
   37.5290   27.7840  -17.3710 C   0  0  0  0  0  0  0  0  0  0  0  0
   35.5700   33.0070  -16.7300 C   0  0  0  0  0  0  0  0  0  0  0  0
   35.7260   34.0920  -17.5490 N   0  0  0  0  0  0  0  0  0  0  0  0
   36.0540   32.9770  -15.6050 O   0  0  0  0  0  0  0  0  0  0  0  0
   33.0295   32.1508  -16.1305 H   0  0  0  0  0  0  0  0  0  0  0  0
   33.0343   33.0622  -17.6784 H   0  0  0  0  0  0  0  0  0  0  0  0
   32.7196   31.2937  -17.6784 H   0  0  0  0  0  0  0  0  0  0  0  0
   35.0433   31.7529  -18.4160 H   0  0  0  0  0  0  0  0  0  0  0  0
   34.2650   30.1220  -16.3410 H   0  0  0  0  0  0  0  0  0  0  0  0
   35.7310   30.7840  -15.8680 H   0  0  0  0  0  0  0  0  0  0  0  0
   35.1201   28.9459  -17.9987 H   0  0  0  0  0  0  0  0  0  0  0  0
   36.3231   30.2398  -18.3538 H   0  0  0  0  0  0  0  0  0  0  0  0
   36.7229   30.1105  -15.0150 H   0  0  0  0  0  0  0  0  0  0  0  0
   38.4428   28.8368  -13.7378 H   0  0  0  0  0  0  0  0  0  0  0  0
   40.5743   28.3276  -13.8200 H   0  0  0  0  0  0  0  0  0  0  0  0
   40.0637   27.0089  -12.7306 H   0  0  0  0  0  0  0  0  0  0  0  0
   41.4256   25.1439  -15.2195 H   0  0  0  0  0  0  0  0  0  0  0  0
   43.7330   24.2075  -15.3281 H   0  0  0  0  0  0  0  0  0  0  0  0
   45.5506   25.2036  -13.9326 H   0  0  0  0  0  0  0  0  0  0  0  0
   42.7546   28.0793  -12.3281 H   0  0  0  0  0  0  0  0  0  0  0  0
   38.9886   26.2073  -17.1162 H   0  0  0  0  0  0  0  0  0  0  0  0
   37.2712   27.4751  -18.3948 H   0  0  0  0  0  0  0  0  0  0  0  0
   35.3280   34.0900  -18.4490 H   0  0  0  0  0  0  0  0  0  0  0  0
   36.2390   34.8730  -17.2380 H   0  0  0  0  0  0  0  0  0  0  0  0
  1  2  1  0
  2  3  1  0
  3  4  1  0
  4  5  1  0
  5  6  2  0
  6  7  1  0
  7  8  2  0
  8  9  1  0
  9 10  1  0
 10 11  1  0
 11 12  2  0
 12 13  1  0
 13 14  2  0
 14 15  1  0
 15 16  1  0
 15 17  2  0
  8 18  1  0
 18 19  2  0
  2 20  1  0
 20 21  1  0
 20 22  2  0
 19  5  1  0
 17 11  1  0
  1 23  1  0
  1 24  1  0
  1 25  1  0
  2 26  1  6
  3 27  1  0
  3 28  1  0
  4 29  1  0
  4 30  1  0
  6 31  1  0
  7 32  1  0
 10 33  1  0
 10 34  1  0
 12 35  1  0
 13 36  1  0
 14 37  1  0
 17 38  1  0
 18 39  1  0
 19 40  1  0
 21 41  1  0
 21 42  1  0
M  CHG  1   3   1
M  END
>  <meeko>  (4) 
{"is_sidechain": [false], "free_energy": -9.287, "intermolecular_energy": -13.127, "internal_energy": -0.628}

$$$$
safinamide_out
     RDKit          3D

 42 43  0  0  0  0  0  0  0  0999 V2000
   43.7590   26.4810  -12.0930 C   0  0  0  0  0  0  0  0  0  0  0  0
   44.5350   26.8240  -13.3630 C   0  0  2  0  0  0  0  0  0  0  0  0
   43.5930   26.8710  -14.5100 N   0  0  0  0  0  0  0  0  0  0  0  0
   42.5510   25.8470  -14.3790 C   0  0  0  0  0  0  0  0  0  0  0  0
   41.1860   26.4610  -14.5840 C   0  0  0  0  0  0  0  0  0  0  0  0
   40.6080   27.2590  -13.5880 C   0  0  0  0  0  0  0  0  0  0  0  0
   39.3520   27.8460  -13.7770 C   0  0  0  0  0  0  0  0  0  0  0  0
   38.6590   27.6470  -14.9710 C   0  0  0  0  0  0  0  0  0  0  0  0
   37.4320   28.1590  -15.2880 O   0  0  0  0  0  0  0  0  0  0  0  0
   37.1430   29.4790  -14.8370 C   0  0  0  0  0  0  0  0  0  0  0  0
   35.9650   29.9920  -15.6270 C   0  0  0  0  0  0  0  0  0  0  0  0
   35.0020   30.8130  -15.0170 C   0  0  0  0  0  0  0  0  0  0  0  0
   33.9180   31.3040  -15.7490 C   0  0  0  0  0  0  0  0  0  0  0  0
   33.7910   30.9880  -17.1000 C   0  0  0  0  0  0  0  0  0  0  0  0
   34.7510   30.1880  -17.7080 C   0  0  0  0  0  0  0  0  0  0  0  0
   34.6320   29.8900  -19.0090 F   0  0  0  0  0  0  0  0  0  0  0  0
   35.8340   29.6930  -16.9890 C   0  0  0  0  0  0  0  0  0  0  0  0
   39.2360   26.8600  -15.9710 C   0  0  0  0  0  0  0  0  0  0  0  0
   40.4900   26.2740  -15.7840 C   0  0  0  0  0  0  0  0  0  0  0  0
   45.6090   25.7480  -13.6050 C   0  0  0  0  0  0  0  0  0  0  0  0
   46.5890   26.1070  -14.4900 N   0  0  0  0  0  0  0  0  0  0  0  0
   45.5910   24.6400  -13.0820 O   0  0  0  0  0  0  0  0  0  0  0  0
   44.3615   26.7473  -11.2120 H   0  0  0  0  0  0  0  0  0  0  0  0
   42.8152   27.0458  -12.0762 H   0  0  0  0  0  0  0  0  0  0  0  0
   43.5414   25.4029  -12.0762 H   0  0  0  0  0  0  0  0  0  0  0  0
   45.0235   27.8037  -13.2553 H   0  0  0  0  0  0  0  0  0  0  0  0
   44.1110   26.7100  -15.3740 H   0  0  0  0  0  0  0  0  0  0  0  0
   43.1460   27.7880  -14.5250 H   0  0  0  0  0  0  0  0  0  0  0  0
   42.7142   25.0641  -15.1343 H   0  0  0  0  0  0  0  0  0  0  0  0
   42.6006   25.4121  -13.3698 H   0  0  0  0  0  0  0  0  0  0  0  0
   41.1488   27.4263  -12.6448 H   0  0  0  0  0  0  0  0  0  0  0  0
   38.9103   28.4655  -12.9825 H   0  0  0  0  0  0  0  0  0  0  0  0
   36.8953   29.4619  -13.7654 H   0  0  0  0  0  0  0  0  0  0  0  0
   38.0155   30.1329  -14.9823 H   0  0  0  0  0  0  0  0  0  0  0  0
   35.1024   31.0718  -13.9526 H   0  0  0  0  0  0  0  0  0  0  0  0
   33.1655   31.9395  -15.2592 H   0  0  0  0  0  0  0  0  0  0  0  0
   32.9378   31.3686  -17.6807 H   0  0  0  0  0  0  0  0  0  0  0  0
   36.5872   29.0670  -17.4899 H   0  0  0  0  0  0  0  0  0  0  0  0
   38.6966   26.7001  -16.9162 H   0  0  0  0  0  0  0  0  0  0  0  0
   40.9329   25.6624  -16.5839 H   0  0  0  0  0  0  0  0  0  0  0  0
   46.5810   27.0040  -14.8980 H   0  0  0  0  0  0  0  0  0  0  0  0
   47.3020   25.4680  -14.7210 H   0  0  0  0  0  0  0  0  0  0  0  0
  1  2  1  0
  2  3  1  0
  3  4  1  0
  4  5  1  0
  5  6  2  0
  6  7  1  0
  7  8  2  0
  8  9  1  0
  9 10  1  0
 10 11  1  0
 11 12  2  0
 12 13  1  0
 13 14  2  0
 14 15  1  0
 15 16  1  0
 15 17  2  0
  8 18  1  0
 18 19  2  0
  2 20  1  0
 20 21  1  0
 20 22  2  0
 19  5  1  0
 17 11  1  0
  1 23  1  0
  1 24  1  0
  1 25  1  0
  2 26  1  1
  3 27  1  0
  3 28  1  0
  4 29  1  0
  4 30  1  0
  6 31  1  0
  7 32  1  0
 10 33  1  0
 10 34  1  0
 12 35  1  0
 13 36  1  0
 14 37  1  0
 17 38  1  0
 18 39  1  0
 19 40  1  0
 21 41  1  0
 21 42  1  0
M  CHG  1   3   1
M  END
>  <meeko>  (5) 
{"is_sidechain": [false], "free_energy": -9.264, "intermolecular_energy": -13.114, "internal_energy": -0.609}

$$$$
safinamide_out
     RDKit          3D

 42 43  0  0  0  0  0  0  0  0999 V2000
   36.2170   32.6940  -16.5510 C   0  0  0  0  0  0  0  0  0  0  0  0
   34.8310   32.1600  -16.1980 C   0  0  2  0  0  0  0  0  0  0  0  0
   34.8910   30.6800  -16.0980 N   0  0  0  0  0  0  0  0  0  0  0  0
   35.6510   30.1070  -17.2150 C   0  0  0  0  0  0  0  0  0  0  0  0
   36.7270   29.1820  -16.6960 C   0  0  0  0  0  0  0  0  0  0  0  0
   37.1810   29.2910  -15.3750 C   0  0  0  0  0  0  0  0  0  0  0  0
   38.1650   28.4270  -14.8810 C   0  0  0  0  0  0  0  0  0  0  0  0
   38.7040   27.4380  -15.7030 C   0  0  0  0  0  0  0  0  0  0  0  0
   39.6650   26.5310  -15.3510 O   0  0  0  0  0  0  0  0  0  0  0  0
   39.9190   26.3610  -13.9600 C   0  0  0  0  0  0  0  0  0  0  0  0
   41.4130   26.3920  -13.7530 C   0  0  0  0  0  0  0  0  0  0  0  0
   41.9840   27.2800  -12.8260 C   0  0  0  0  0  0  0  0  0  0  0  0
   43.3670   27.3010  -12.6190 C   0  0  0  0  0  0  0  0  0  0  0  0
   44.1890   26.4300  -13.3300 C   0  0  0  0  0  0  0  0  0  0  0  0
   43.6230   25.5420  -14.2370 C   0  0  0  0  0  0  0  0  0  0  0  0
   44.4140   24.7000  -14.9150 F   0  0  0  0  0  0  0  0  0  0  0  0
   42.2490   25.5120  -14.4510 C   0  0  0  0  0  0  0  0  0  0  0  0
   38.2480   27.3200  -17.0170 C   0  0  0  0  0  0  0  0  0  0  0  0
   37.2650   28.1810  -17.5120 C   0  0  0  0  0  0  0  0  0  0  0  0
   33.8340   32.5760  -17.2930 C   0  0  0  0  0  0  0  0  0  0  0  0
   32.6540   31.8820  -17.2870 N   0  0  0  0  0  0  0  0  0  0  0  0
   34.0680   33.4360  -18.1340 O   0  0  0  0  0  0  0  0  0  0  0  0
   36.7736   32.9085  -15.6268 H   0  0  0  0  0  0  0  0  0  0  0  0
   36.7609   31.9411  -17.1403 H   0  0  0  0  0  0  0  0  0  0  0  0
   36.1151   33.6172  -17.1403 H   0  0  0  0  0  0  0  0  0  0  0  0
   34.5007   32.5746  -15.2341 H   0  0  0  0  0  0  0  0  0  0  0  0
   33.9430   30.3050  -16.1140 H   0  0  0  0  0  0  0  0  0  0  0  0
   35.3600   30.4320  -15.2270 H   0  0  0  0  0  0  0  0  0  0  0  0
   34.9685   29.5409  -17.8659 H   0  0  0  0  0  0  0  0  0  0  0  0
   36.1229   30.9224  -17.7829 H   0  0  0  0  0  0  0  0  0  0  0  0
   36.7587   30.0655  -14.7178 H   0  0  0  0  0  0  0  0  0  0  0  0
   38.5137   28.5283  -13.8427 H   0  0  0  0  0  0  0  0  0  0  0  0
   39.4462   27.1755  -13.3917 H   0  0  0  0  0  0  0  0  0  0  0  0
   39.5039   25.4046  -13.6093 H   0  0  0  0  0  0  0  0  0  0  0  0
   41.3374   27.9650  -12.2579 H   0  0  0  0  0  0  0  0  0  0  0  0
   43.8050   28.0045  -11.8956 H   0  0  0  0  0  0  0  0  0  0  0  0
   45.2779   26.4448  -13.1748 H   0  0  0  0  0  0  0  0  0  0  0  0
   41.8193   24.7972  -15.1683 H   0  0  0  0  0  0  0  0  0  0  0  0
   38.6672   26.5405  -17.6702 H   0  0  0  0  0  0  0  0  0  0  0  0
   36.9125   28.0712  -18.5482 H   0  0  0  0  0  0  0  0  0  0  0  0
   32.4910   31.1950  -16.6010 H   0  0  0  0  0  0  0  0  0  0  0  0
   31.9700   32.0680  -17.9700 H   0  0  0  0  0  0  0  0  0  0  0  0
  1  2  1  0
  2  3  1  0
  3  4  1  0
  4  5  1  0
  5  6  2  0
  6  7  1  0
  7  8  2  0
  8  9  1  0
  9 10  1  0
 10 11  1  0
 11 12  2  0
 12 13  1  0
 13 14  2  0
 14 15  1  0
 15 16  1  0
 15 17  2  0
  8 18  1  0
 18 19  2  0
  2 20  1  0
 20 21  1  0
 20 22  2  0
 19  5  1  0
 17 11  1  0
  1 23  1  0
  1 24  1  0
  1 25  1  0
  2 26  1  1
  3 27  1  0
  3 28  1  0
  4 29  1  0
  4 30  1  0
  6 31  1  0
  7 32  1  0
 10 33  1  0
 10 34  1  0
 12 35  1  0
 13 36  1  0
 14 37  1  0
 17 38  1  0
 18 39  1  0
 19 40  1  0
 21 41  1  0
 21 42  1  0
M  CHG  1   3   1
M  END
>  <meeko>  (6) 
{"is_sidechain": [false], "free_energy": -9.262, "intermolecular_energy": -13.056, "internal_energy": -0.665}

$$$$
safinamide_out
     RDKit          3D

 42 43  0  0  0  0  0  0  0  0999 V2000
   33.7150   31.2500  -16.7540 C   0  0  0  0  0  0  0  0  0  0  0  0
   34.9920   31.8490  -16.1700 C   0  0  2  0  0  0  0  0  0  0  0  0
   36.1670   31.1780  -16.7820 N   0  0  0  0  0  0  0  0  0  0  0  0
   35.8310   29.8160  -17.2130 C   0  0  0  0  0  0  0  0  0  0  0  0
   36.9070   28.8490  -16.7760 C   0  0  0  0  0  0  0  0  0  0  0  0
   37.3850   27.8720  -17.6580 C   0  0  0  0  0  0  0  0  0  0  0  0
   38.3940   26.9830  -17.2660 C   0  0  0  0  0  0  0  0  0  0  0  0
   38.9410   27.0670  -15.9860 C   0  0  0  0  0  0  0  0  0  0  0  0
   39.9270   26.2680  -15.4760 O   0  0  0  0  0  0  0  0  0  0  0  0
   40.1170   26.2940  -14.0640 C   0  0  0  0  0  0  0  0  0  0  0  0
   41.6010   26.3460  -13.7970 C   0  0  0  0  0  0  0  0  0  0  0  0
   42.1250   27.2590  -12.8670 C   0  0  0  0  0  0  0  0  0  0  0  0
   43.4970   27.2990  -12.6040 C   0  0  0  0  0  0  0  0  0  0  0  0
   44.3570   26.4210  -13.2610 C   0  0  0  0  0  0  0  0  0  0  0  0
   43.8370   25.5080  -14.1700 C   0  0  0  0  0  0  0  0  0  0  0  0
   44.6640   24.6600  -14.7970 F   0  0  0  0  0  0  0  0  0  0  0  0
   42.4730   25.4590  -14.4410 C   0  0  0  0  0  0  0  0  0  0  0  0
   38.4730   28.0450  -15.1070 C   0  0  0  0  0  0  0  0  0  0  0  0
   37.4670   28.9330  -15.4960 C   0  0  0  0  0  0  0  0  0  0  0  0
   34.9990   31.6390  -14.6460 C   0  0  0  0  0  0  0  0  0  0  0  0
   34.0770   30.7370  -14.1870 N   0  0  0  0  0  0  0  0  0  0  0  0
   35.7410   32.2430  -13.8800 O   0  0  0  0  0  0  0  0  0  0  0  0
   33.0491   30.9377  -15.9361 H   0  0  0  0  0  0  0  0  0  0  0  0
   33.2065   32.0035  -17.3734 H   0  0  0  0  0  0  0  0  0  0  0  0
   33.9693   30.3772  -17.3734 H   0  0  0  0  0  0  0  0  0  0  0  0
   35.0368   32.9268  -16.3854 H   0  0  0  0  0  0  0  0  0  0  0  0
   36.9210   31.1330  -16.0960 H   0  0  0  0  0  0  0  0  0  0  0  0
   36.4580   31.7130  -17.6000 H   0  0  0  0  0  0  0  0  0  0  0  0
   34.8717   29.5192  -16.7639 H   0  0  0  0  0  0  0  0  0  0  0  0
   35.7547   29.7957  -18.3102 H   0  0  0  0  0  0  0  0  0  0  0  0
   36.9628   27.8018  -18.6713 H   0  0  0  0  0  0  0  0  0  0  0  0
   38.7553   26.2177  -17.9687 H   0  0  0  0  0  0  0  0  0  0  0  0
   39.6291   27.1828  -13.6375 H   0  0  0  0  0  0  0  0  0  0  0  0
   39.6754   25.3991  -13.6013 H   0  0  0  0  0  0  0  0  0  0  0  0
   41.4491   27.9490  -12.3407 H   0  0  0  0  0  0  0  0  0  0  0  0
   43.8977   28.0228  -11.8791 H   0  0  0  0  0  0  0  0  0  0  0  0
   45.4384   26.4506  -13.0616 H   0  0  0  0  0  0  0  0  0  0  0  0
   42.0802   24.7248  -15.1598 H   0  0  0  0  0  0  0  0  0  0  0  0
   38.9012   28.1174  -14.0963 H   0  0  0  0  0  0  0  0  0  0  0  0
   37.1134   29.7017  -14.7931 H   0  0  0  0  0  0  0  0  0  0  0  0
   33.4920   30.2650  -14.8230 H   0  0  0  0  0  0  0  0  0  0  0  0
   33.9980   30.5620  -13.2220 H   0  0  0  0  0  0  0  0  0  0  0  0
  1  2  1  0
  2  3  1  0
  3  4  1  0
  4  5  1  0
  5  6  2  0
  6  7  1  0
  7  8  2  0
  8  9  1  0
  9 10  1  0
 10 11  1  0
 11 12  2  0
 12 13  1  0
 13 14  2  0
 14 15  1  0
 15 16  1  0
 15 17  2  0
  8 18  1  0
 18 19  2  0
  2 20  1  0
 20 21  1  0
 20 22  2  0
 19  5  1  0
 17 11  1  0
  1 23  1  0
  1 24  1  0
  1 25  1  0
  2 26  1  1
  3 27  1  0
  3 28  1  0
  4 29  1  0
  4 30  1  0
  6 31  1  0
  7 32  1  0
 10 33  1  0
 10 34  1  0
 12 35  1  0
 13 36  1  0
 14 37  1  0
 17 38  1  0
 18 39  1  0
 19 40  1  0
 21 41  1  0
 21 42  1  0
M  CHG  1   3   1
M  END
>  <meeko>  (7) 
{"is_sidechain": [false], "free_energy": -9.077, "intermolecular_energy": -12.629, "internal_energy": -0.83}

$$$$
safinamide_out
     RDKit          3D

 42 43  0  0  0  0  0  0  0  0999 V2000
   42.4710   26.9130  -12.0930 C   0  0  0  0  0  0  0  0  0  0  0  0
   42.7360   26.7980  -13.5930 C   0  0  2  0  0  0  0  0  0  0  0  0
   41.6690   25.9730  -14.2140 N   0  0  0  0  0  0  0  0  0  0  0  0
   40.3790   26.1920  -13.5490 C   0  0  0  0  0  0  0  0  0  0  0  0
   39.4860   27.0520  -14.4120 C   0  0  0  0  0  0  0  0  0  0  0  0
   39.0690   28.3140  -13.9690 C   0  0  0  0  0  0  0  0  0  0  0  0
   38.2560   29.1240  -14.7710 C   0  0  0  0  0  0  0  0  0  0  0  0
   37.8540   28.6810  -16.0310 C   0  0  0  0  0  0  0  0  0  0  0  0
   37.0650   29.3660  -16.9130 O   0  0  0  0  0  0  0  0  0  0  0  0
   35.7110   29.5920  -16.5330 C   0  0  0  0  0  0  0  0  0  0  0  0
   35.3390   30.9940  -16.9490 C   0  0  0  0  0  0  0  0  0  0  0  0
   36.2720   32.0390  -16.8420 C   0  0  0  0  0  0  0  0  0  0  0  0
   35.9370   33.3360  -17.2410 C   0  0  0  0  0  0  0  0  0  0  0  0
   34.6710   33.5990  -17.7590 C   0  0  0  0  0  0  0  0  0  0  0  0
   33.7530   32.5620  -17.8790 C   0  0  0  0  0  0  0  0  0  0  0  0
   32.5370   32.8150  -18.3820 F   0  0  0  0  0  0  0  0  0  0  0  0
   34.0740   31.2680  -17.4840 C   0  0  0  0  0  0  0  0  0  0  0  0
   38.2740   27.4280  -16.4800 C   0  0  0  0  0  0  0  0  0  0  0  0
   39.0860   26.6180  -15.6820 C   0  0  0  0  0  0  0  0  0  0  0  0
   44.1090   26.1400  -13.8150 C   0  0  0  0  0  0  0  0  0  0  0  0
   44.0890   25.0310  -14.6160 N   0  0  0  0  0  0  0  0  0  0  0  0
   45.1460   26.5420  -13.3010 O   0  0  0  0  0  0  0  0  0  0  0  0
   43.3416   26.5352  -11.5368 H   0  0  0  0  0  0  0  0  0  0  0  0
   42.2978   27.9672  -11.8310 H   0  0  0  0  0  0  0  0  0  0  0  0
   41.5827   26.3194  -11.8310 H   0  0  0  0  0  0  0  0  0  0  0  0
   42.7357   27.7966  -14.0543 H   0  0  0  0  0  0  0  0  0  0  0  0
   41.9200   24.9880  -14.1360 H   0  0  0  0  0  0  0  0  0  0  0  0
   41.5780   26.2440  -15.1930 H   0  0  0  0  0  0  0  0  0  0  0  0
   39.8908   25.2218  -13.3748 H   0  0  0  0  0  0  0  0  0  0  0  0
   40.5518   26.7032  -12.5905 H   0  0  0  0  0  0  0  0  0  0  0  0
   39.3844   28.6731  -12.9783 H   0  0  0  0  0  0  0  0  0  0  0  0
   37.9340   30.1108  -14.4070 H   0  0  0  0  0  0  0  0  0  0  0  0
   35.0555   28.8665  -17.0370 H   0  0  0  0  0  0  0  0  0  0  0  0
   35.5935   29.4715  -15.4460 H   0  0  0  0  0  0  0  0  0  0  0  0
   37.2755   31.8345  -16.4405 H   0  0  0  0  0  0  0  0  0  0  0  0
   36.6725   34.1484  -17.1460 H   0  0  0  0  0  0  0  0  0  0  0  0
   34.3999   34.6186  -18.0705 H   0  0  0  0  0  0  0  0  0  0  0  0
   33.3351   30.4603  -17.5916 H   0  0  0  0  0  0  0  0  0  0  0  0
   37.9621   27.0740  -17.4737 H   0  0  0  0  0  0  0  0  0  0  0  0
   39.4125   25.6352  -16.0529 H   0  0  0  0  0  0  0  0  0  0  0  0
   43.2420   24.7280  -15.0160 H   0  0  0  0  0  0  0  0  0  0  0  0
   44.9220   24.5340  -14.7890 H   0  0  0  0  0  0  0  0  0  0  0  0
  1  2  1  0
  2  3  1  0
  3  4  1  0
  4  5  1  0
  5  6  2  0
  6  7  1  0
  7  8  2  0
  8  9  1  0
  9 10  1  0
 10 11  1  0
 11 12  2  0
 12 13  1  0
 13 14  2  0
 14 15  1  0
 15 16  1  0
 15 17  2  0
  8 18  1  0
 18 19  2  0
  2 20  1  0
 20 21  1  0
 20 22  2  0
 19  5  1  0
 17 11  1  0
  1 23  1  0
  1 24  1  0
  1 25  1  0
  2 26  1  6
  3 27  1  0
  3 28  1  0
  4 29  1  0
  4 30  1  0
  6 31  1  0
  7 32  1  0
 10 33  1  0
 10 34  1  0
 12 35  1  0
 13 36  1  0
 14 37  1  0
 17 38  1  0
 18 39  1  0
 19 40  1  0
 21 41  1  0
 21 42  1  0
M  CHG  1   3   1
M  END
>  <meeko>  (8) 
{"is_sidechain": [false], "free_energy": -9.0, "intermolecular_energy": -12.635, "internal_energy": -0.716}

$$$$
safinamide_out
     RDKit          3D

 42 43  0  0  0  0  0  0  0  0999 V2000
   42.5660   25.5660  -15.3640 C   0  0  0  0  0  0  0  0  0  0  0  0
   42.7600   25.8130  -13.8690 C   0  0  2  0  0  0  0  0  0  0  0  0
   41.9560   26.9940  -13.4630 N   0  0  0  0  0  0  0  0  0  0  0  0
   40.5880   26.6030  -13.1060 C   0  0  0  0  0  0  0  0  0  0  0  0
   39.5970   27.2590  -14.0390 C   0  0  0  0  0  0  0  0  0  0  0  0
   39.0970   28.5370  -13.7610 C   0  0  0  0  0  0  0  0  0  0  0  0
   38.1920   29.1590  -14.6300 C   0  0  0  0  0  0  0  0  0  0  0  0
   37.7800   28.5100  -15.7920 C   0  0  0  0  0  0  0  0  0  0  0  0
   36.9070   28.9980  -16.7240 O   0  0  0  0  0  0  0  0  0  0  0  0
   36.7790   30.4140  -16.8140 C   0  0  0  0  0  0  0  0  0  0  0  0
   35.3400   30.7690  -16.5350 C   0  0  0  0  0  0  0  0  0  0  0  0
   34.4800   31.1350  -17.5840 C   0  0  0  0  0  0  0  0  0  0  0  0
   33.1420   31.4490  -17.3320 C   0  0  0  0  0  0  0  0  0  0  0  0
   32.6480   31.3920  -16.0310 C   0  0  0  0  0  0  0  0  0  0  0  0
   33.4940   31.0160  -14.9940 C   0  0  0  0  0  0  0  0  0  0  0  0
   33.0160   30.9550  -13.7430 F   0  0  0  0  0  0  0  0  0  0  0  0
   34.8280   30.7020  -15.2320 C   0  0  0  0  0  0  0  0  0  0  0  0
   38.2830   27.2390  -16.0780 C   0  0  0  0  0  0  0  0  0  0  0  0
   39.1860   26.6170  -15.2130 C   0  0  0  0  0  0  0  0  0  0  0  0
   44.2510   26.0670  -13.5880 C   0  0  0  0  0  0  0  0  0  0  0  0
   45.1080   25.2150  -14.2300 N   0  0  0  0  0  0  0  0  0  0  0  0
   44.6600   26.9380  -12.8290 O   0  0  0  0  0  0  0  0  0  0  0  0
   41.8925   24.7085  -15.5096 H   0  0  0  0  0  0  0  0  0  0  0  0
   42.1266   26.4606  -15.8294 H   0  0  0  0  0  0  0  0  0  0  0  0
   43.5392   25.3510  -15.8294 H   0  0  0  0  0  0  0  0  0  0  0  0
   42.4292   24.9352  -13.2945 H   0  0  0  0  0  0  0  0  0  0  0  0
   41.9220   27.6570  -14.2370 H   0  0  0  0  0  0  0  0  0  0  0  0
   42.3950   27.4190  -12.6460 H   0  0  0  0  0  0  0  0  0  0  0  0
   40.4908   25.5100  -13.1830 H   0  0  0  0  0  0  0  0  0  0  0  0
   40.3796   26.9272  -12.0757 H   0  0  0  0  0  0  0  0  0  0  0  0
   39.4193   29.0592  -12.8481 H   0  0  0  0  0  0  0  0  0  0  0  0
   37.8057   30.1617  -14.3948 H   0  0  0  0  0  0  0  0  0  0  0  0
   37.4332   30.8961  -16.0726 H   0  0  0  0  0  0  0  0  0  0  0  0
   37.0718   30.7619  -17.8156 H   0  0  0  0  0  0  0  0  0  0  0  0
   34.8639   31.1748  -18.6141 H   0  0  0  0  0  0  0  0  0  0  0  0
   32.4795   31.7409  -18.1602 H   0  0  0  0  0  0  0  0  0  0  0  0
   31.5968   31.6425  -15.8257 H   0  0  0  0  0  0  0  0  0  0  0  0
   35.4802   30.4015  -14.3987 H   0  0  0  0  0  0  0  0  0  0  0  0
   37.9643   26.7218  -16.9951 H   0  0  0  0  0  0  0  0  0  0  0  0
   39.5762   25.6175  -15.4555 H   0  0  0  0  0  0  0  0  0  0  0  0
   44.7540   24.5230  -14.8340 H   0  0  0  0  0  0  0  0  0  0  0  0
   46.0790   25.2930  -14.0850 H   0  0  0  0  0  0  0  0  0  0  0  0
  1  2  1  0
  2  3  1  0
  3  4  1  0
  4  5  1  0
  5  6  2  0
  6  7  1  0
  7  8  2  0
  8  9  1  0
  9 10  1  0
 10 11  1  0
 11 12  2  0
 12 13  1  0
 13 14  2  0
 14 15  1  0
 15 16  1  0
 15 17  2  0
  8 18  1  0
 18 19  2  0
  2 20  1  0
 20 21  1  0
 20 22  2  0
 19  5  1  0
 17 11  1  0
  1 23  1  0
  1 24  1  0
  1 25  1  0
  2 26  1  1
  3 27  1  0
  3 28  1  0
  4 29  1  0
  4 30  1  0
  6 31  1  0
  7 32  1  0
 10 33  1  0
 10 34  1  0
 12 35  1  0
 13 36  1  0
 14 37  1  0
 17 38  1  0
 18 39  1  0
 19 40  1  0
 21 41  1  0
 21 42  1  0
M  CHG  1   3   1
M  END
>  <meeko>  (9) 
{"is_sidechain": [false], "free_energy": -8.853, "intermolecular_energy": -12.439, "internal_energy": -0.705}

$$$$
