SAG_pdb_out
     RDKit          3D

 39 40  0  0  0  0  0  0  0  0999 V2000
   46.6030   24.5140  -13.3990 C   0  0  0  0  0  0  0  0  0  0  0  0
   46.7640   26.0270  -13.4420 C   0  0  2  0  0  0  0  0  0  0  0  0
   45.4300   26.6230  -13.7110 N   0  0  0  0  0  0  0  0  0  0  0  0
   44.4490   25.8290  -13.4360 C   0  0  0  0  0  0  0  0  0  0  0  0
   43.0440   26.2320  -13.6400 C   0  0  0  0  0  0  0  0  0  0  0  0
   42.3540   26.9510  -12.6610 C   0  0  0  0  0  0  0  0  0  0  0  0
   41.0200   27.3240  -12.8720 C   0  0  0  0  0  0  0  0  0  0  0  0
   40.3780   26.9770  -14.0620 C   0  0  0  0  0  0  0  0  0  0  0  0
   39.0870   27.2750  -14.3960 O   0  0  0  0  0  0  0  0  0  0  0  0
   38.8090   27.5200  -15.7730 C   0  0  0  0  0  0  0  0  0  0  0  0
   37.6380   28.4650  -15.8480 C   0  0  0  0  0  0  0  0  0  0  0  0
   37.2410   29.2010  -14.7200 C   0  0  0  0  0  0  0  0  0  0  0  0
   36.1660   30.0920  -14.7920 C   0  0  0  0  0  0  0  0  0  0  0  0
   35.4830   30.2610  -15.9950 C   0  0  0  0  0  0  0  0  0  0  0  0
   35.8840   29.5450  -17.1160 C   0  0  0  0  0  0  0  0  0  0  0  0
   35.2330   29.7160  -18.2740 F   0  0  0  0  0  0  0  0  0  0  0  0
   36.9520   28.6550  -17.0570 C   0  0  0  0  0  0  0  0  0  0  0  0
   41.0770   26.2570  -15.0360 C   0  0  0  0  0  0  0  0  0  0  0  0
   42.4080   25.8830  -14.8320 C   0  0  0  0  0  0  0  0  0  0  0  0
   47.7210   26.4240  -14.5730 C   0  0  0  0  0  0  0  0  0  0  0  0
   47.6870   25.6080  -15.6690 N   0  0  0  0  0  0  0  0  0  0  0  0
   48.4860   27.3810  -14.5110 O   0  0  0  0  0  0  0  0  0  0  0  0
   46.5673   24.1787  -12.3520 H   0  0  0  0  0  0  0  0  0  0  0  0
   45.6696   24.2300  -13.9070 H   0  0  0  0  0  0  0  0  0  0  0  0
   47.4558   24.0399  -13.9070 H   0  0  0  0  0  0  0  0  0  0  0  0
   47.1720   26.3858  -12.4856 H   0  0  0  0  0  0  0  0  0  0  0  0
   44.6665   24.8263  -13.0394 H   0  0  0  0  0  0  0  0  0  0  0  0
   42.8588   27.2248  -11.7228 H   0  0  0  0  0  0  0  0  0  0  0  0
   40.4786   27.8903  -12.0999 H   0  0  0  0  0  0  0  0  0  0  0  0
   39.6868   27.9735  -16.2566 H   0  0  0  0  0  0  0  0  0  0  0  0
   38.5748   26.5778  -16.2901 H   0  0  0  0  0  0  0  0  0  0  0  0
   37.7813   29.0753  -13.7701 H   0  0  0  0  0  0  0  0  0  0  0  0
   35.8597   30.6588  -13.9004 H   0  0  0  0  0  0  0  0  0  0  0  0
   34.6327   30.9562  -16.0565 H   0  0  0  0  0  0  0  0  0  0  0  0
   37.2580   28.1013  -17.9569 H   0  0  0  0  0  0  0  0  0  0  0  0
   40.5730   25.9817  -15.9742 H   0  0  0  0  0  0  0  0  0  0  0  0
   42.9499   25.3181  -15.6048 H   0  0  0  0  0  0  0  0  0  0  0  0
   47.0630   24.8460  -15.6960 H   0  0  0  0  0  0  0  0  0  0  0  0
   48.2840   25.7830  -16.4320 H   0  0  0  0  0  0  0  0  0  0  0  0
  1  2  1  0
  2  3  1  0
  3  4  2  0
  4  5  1  0
  5  6  2  0
  6  7  1  0
  7  8  2  0
  8  9  1  0
  9 10  1  0
 10 11  1  0
 11 12  2  0
 12 13  1  0
 13 14  2  0
 14 15  1  0
 15 16  1  0
 15 17  2  0
  8 18  1  0
 18 19  2  0
  2 20  1  0
 20 21  1  0
 20 22  2  0
 19  5  1  0
 17 11  1  0
  1 23  1  0
  1 24  1  0
  1 25  1  0
  2 26  1  1
  4 27  1  0
  6 28  1  0
  7 29  1  0
 10 30  1  0
 10 31  1  0
 12 32  1  0
 13 33  1  0
 14 34  1  0
 17 35  1  0
 18 36  1  0
 19 37  1  0
 21 38  1  0
 21 39  1  0
M  END
>  <meeko>  (1) 
{"is_sidechain": [false], "free_energy": -9.946, "intermolecular_energy": -13.435, "internal_energy": -0.628}

$$$$
SAG_pdb_out
     RDKit          3D

 39 40  0  0  0  0  0  0  0  0999 V2000
   46.6290   24.4950  -13.4180 C   0  0  0  0  0  0  0  0  0  0  0  0
   46.7900   26.0080  -13.4710 C   0  0  2  0  0  0  0  0  0  0  0  0
   45.4550   26.6010  -13.7440 N   0  0  0  0  0  0  0  0  0  0  0  0
   44.4740   25.8260  -13.4210 C   0  0  0  0  0  0  0  0  0  0  0  0
   43.0680   26.2290  -13.6190 C   0  0  0  0  0  0  0  0  0  0  0  0
   42.3900   26.9700  -12.6480 C   0  0  0  0  0  0  0  0  0  0  0  0
   41.0550   27.3420  -12.8530 C   0  0  0  0  0  0  0  0  0  0  0  0
   40.4000   26.9750  -14.0300 C   0  0  0  0  0  0  0  0  0  0  0  0
   39.1070   27.2710  -14.3580 O   0  0  0  0  0  0  0  0  0  0  0  0
   38.7990   27.4020  -15.7440 C   0  0  0  0  0  0  0  0  0  0  0  0
   37.7000   28.4250  -15.8780 C   0  0  0  0  0  0  0  0  0  0  0  0
   37.0530   28.6200  -17.1090 C   0  0  0  0  0  0  0  0  0  0  0  0
   36.0210   29.5550  -17.2320 C   0  0  0  0  0  0  0  0  0  0  0  0
   35.6210   30.2980  -16.1230 C   0  0  0  0  0  0  0  0  0  0  0  0
   36.2500   30.0970  -14.9010 C   0  0  0  0  0  0  0  0  0  0  0  0
   35.8590   30.8050  -13.8340 F   0  0  0  0  0  0  0  0  0  0  0  0
   37.2790   29.1690  -14.7660 C   0  0  0  0  0  0  0  0  0  0  0  0
   41.0880   26.2340  -14.9960 C   0  0  0  0  0  0  0  0  0  0  0  0
   42.4190   25.8590  -14.7980 C   0  0  0  0  0  0  0  0  0  0  0  0
   47.7460   26.3980  -14.6050 C   0  0  0  0  0  0  0  0  0  0  0  0
   47.6860   25.5960  -15.7110 N   0  0  0  0  0  0  0  0  0  0  0  0
   48.5320   27.3380  -14.5380 O   0  0  0  0  0  0  0  0  0  0  0  0
   46.5940   24.1665  -12.3688 H   0  0  0  0  0  0  0  0  0  0  0  0
   45.6952   24.2077  -13.9235 H   0  0  0  0  0  0  0  0  0  0  0  0
   47.4814   24.0176  -13.9235 H   0  0  0  0  0  0  0  0  0  0  0  0
   47.1987   26.3735  -12.5174 H   0  0  0  0  0  0  0  0  0  0  0  0
   44.6920   24.8391  -12.9867 H   0  0  0  0  0  0  0  0  0  0  0  0
   42.9052   27.2618  -11.7210 H   0  0  0  0  0  0  0  0  0  0  0  0
   40.5225   27.9236  -12.0861 H   0  0  0  0  0  0  0  0  0  0  0  0
   39.6903   27.7362  -16.2953 H   0  0  0  0  0  0  0  0  0  0  0  0
   38.4764   26.4355  -16.1586 H   0  0  0  0  0  0  0  0  0  0  0  0
   37.3614   28.0311  -17.9854 H   0  0  0  0  0  0  0  0  0  0  0  0
   35.5255   29.7040  -18.2027 H   0  0  0  0  0  0  0  0  0  0  0  0
   34.8128   31.0385  -16.2147 H   0  0  0  0  0  0  0  0  0  0  0  0
   37.7612   29.0195  -13.7887 H   0  0  0  0  0  0  0  0  0  0  0  0
   40.5743   25.9426  -15.9240 H   0  0  0  0  0  0  0  0  0  0  0  0
   42.9512   25.2770  -15.5648 H   0  0  0  0  0  0  0  0  0  0  0  0
   47.0460   24.8480  -15.7410 H   0  0  0  0  0  0  0  0  0  0  0  0
   48.2810   25.7670  -16.4760 H   0  0  0  0  0  0  0  0  0  0  0  0
  1  2  1  0
  2  3  1  0
  3  4  2  0
  4  5  1  0
  5  6  2  0
  6  7  1  0
  7  8  2  0
  8  9  1  0
  9 10  1  0
 10 11  1  0
 11 12  2  0
 12 13  1  0
 13 14  2  0
 14 15  1  0
 15 16  1  0
 15 17  2  0
  8 18  1  0
 18 19  2  0
  2 20  1  0
 20 21  1  0
 20 22  2  0
 19  5  1  0
 17 11  1  0
  1 23  1  0
  1 24  1  0
  1 25  1  0
  2 26  1  1
  4 27  1  0
  6 28  1  0
  7 29  1  0
 10 30  1  0
 10 31  1  0
 12 32  1  0
 13 33  1  0
 14 34  1  0
 17 35  1  0
 18 36  1  0
 19 37  1  0
 21 38  1  0
 21 39  1  0
M  END
>  <meeko>  (2) 
{"is_sidechain": [false], "free_energy": -9.849, "intermolecular_energy": -13.29, "internal_energy": -0.642}

$$$$
SAG_pdb_out
     RDKit          3D

 39 40  0  0  0  0  0  0  0  0999 V2000
   34.4160   30.9260  -16.4010 C   0  0  0  0  0  0  0  0  0  0  0  0
   35.6010   31.5230  -17.1460 C   0  0  2  0  0  0  0  0  0  0  0  0
   36.8080   30.7290  -16.8000 N   0  0  0  0  0  0  0  0  0  0  0  0
   36.5360   29.6140  -16.2090 C   0  0  0  0  0  0  0  0  0  0  0  0
   37.5970   28.6840  -15.7780 C   0  0  0  0  0  0  0  0  0  0  0  0
   37.9730   27.6020  -16.5790 C   0  0  0  0  0  0  0  0  0  0  0  0
   38.9820   26.7290  -16.1530 C   0  0  0  0  0  0  0  0  0  0  0  0
   39.6160   26.9390  -14.9270 C   0  0  0  0  0  0  0  0  0  0  0  0
   40.6110   26.1700  -14.3930 O   0  0  0  0  0  0  0  0  0  0  0  0
   41.6980   25.8230  -15.2470 C   0  0  0  0  0  0  0  0  0  0  0  0
   42.9740   25.9740  -14.4580 C   0  0  0  0  0  0  0  0  0  0  0  0
   43.1610   27.0750  -13.6080 C   0  0  0  0  0  0  0  0  0  0  0  0
   44.3350   27.2080  -12.8610 C   0  0  0  0  0  0  0  0  0  0  0  0
   45.3300   26.2360  -12.9530 C   0  0  0  0  0  0  0  0  0  0  0  0
   45.1410   25.1380  -13.7830 C   0  0  0  0  0  0  0  0  0  0  0  0
   46.0930   24.2000  -13.8640 F   0  0  0  0  0  0  0  0  0  0  0  0
   43.9750   24.9960  -14.5310 C   0  0  0  0  0  0  0  0  0  0  0  0
   39.2340   28.0250  -14.1330 C   0  0  0  0  0  0  0  0  0  0  0  0
   38.2280   28.8990  -14.5520 C   0  0  0  0  0  0  0  0  0  0  0  0
   35.8230   32.9760  -16.7070 C   0  0  0  0  0  0  0  0  0  0  0  0
   35.7610   33.8980  -17.7160 N   0  0  0  0  0  0  0  0  0  0  0  0
   36.0650   33.3080  -15.5520 O   0  0  0  0  0  0  0  0  0  0  0  0
   34.5839   31.0106  -15.3172 H   0  0  0  0  0  0  0  0  0  0  0  0
   33.4997   31.4700  -16.6736 H   0  0  0  0  0  0  0  0  0  0  0  0
   34.3078   29.8658  -16.6736 H   0  0  0  0  0  0  0  0  0  0  0  0
   35.4094   31.5011  -18.2290 H   0  0  0  0  0  0  0  0  0  0  0  0
   35.4847   29.3502  -16.0217 H   0  0  0  0  0  0  0  0  0  0  0  0
   37.4755   27.4358  -17.5459 H   0  0  0  0  0  0  0  0  0  0  0  0
   39.2751   25.8775  -16.7847 H   0  0  0  0  0  0  0  0  0  0  0  0
   41.5893   24.7823  -15.5862 H   0  0  0  0  0  0  0  0  0  0  0  0
   41.7146   26.4773  -16.1311 H   0  0  0  0  0  0  0  0  0  0  0  0
   42.3757   27.8411  -13.5288 H   0  0  0  0  0  0  0  0  0  0  0  0
   44.4734   28.0778  -12.2020 H   0  0  0  0  0  0  0  0  0  0  0  0
   46.2587   26.3377  -12.3723 H   0  0  0  0  0  0  0  0  0  0  0  0
   43.8398   24.1171  -15.1785 H   0  0  0  0  0  0  0  0  0  0  0  0
   39.7318   28.1931  -13.1666 H   0  0  0  0  0  0  0  0  0  0  0  0
   37.9353   29.7505  -13.9201 H   0  0  0  0  0  0  0  0  0  0  0  0
   35.5650   33.6080  -18.6360 H   0  0  0  0  0  0  0  0  0  0  0  0
   35.9120   34.8510  -17.5210 H   0  0  0  0  0  0  0  0  0  0  0  0
  1  2  1  0
  2  3  1  0
  3  4  2  0
  4  5  1  0
  5  6  2  0
  6  7  1  0
  7  8  2  0
  8  9  1  0
  9 10  1  0
 10 11  1  0
 11 12  2  0
 12 13  1  0
 13 14  2  0
 14 15  1  0
 15 16  1  0
 15 17  2  0
  8 18  1  0
 18 19  2  0
  2 20  1  0
 20 21  1  0
 20 22  2  0
 19  5  1  0
 17 11  1  0
  1 23  1  0
  1 24  1  0
  1 25  1  0
  2 26  1  6
  4 27  1  0
  6 28  1  0
  7 29  1  0
 10 30  1  0
 10 31  1  0
 12 32  1  0
 13 33  1  0
 14 34  1  0
 17 35  1  0
 18 36  1  0
 19 37  1  0
 21 38  1  0
 21 39  1  0
M  END
>  <meeko>  (3) 
{"is_sidechain": [false], "free_energy": -9.81, "intermolecular_energy": -13.222, "internal_energy": -0.657}

$$$$
SAG_pdb_out
     RDKit          3D

 39 40  0  0  0  0  0  0  0  0999 V2000
   34.4090   30.8720  -16.6160 C   0  0  0  0  0  0  0  0  0  0  0  0
   35.6390   31.5190  -17.2370 C   0  0  2  0  0  0  0  0  0  0  0  0
   36.8350   30.7690  -16.7720 N   0  0  0  0  0  0  0  0  0  0  0  0
   36.5440   29.6940  -16.1180 C   0  0  0  0  0  0  0  0  0  0  0  0
   37.5920   28.8130  -15.5670 C   0  0  0  0  0  0  0  0  0  0  0  0
   38.2040   29.1030  -14.3450 C   0  0  0  0  0  0  0  0  0  0  0  0
   39.1970   28.2550  -13.8380 C   0  0  0  0  0  0  0  0  0  0  0  0
   39.5760   27.1170  -14.5530 C   0  0  0  0  0  0  0  0  0  0  0  0
   40.5250   26.2090  -14.1760 O   0  0  0  0  0  0  0  0  0  0  0  0
   41.5560   25.9140  -15.1150 C   0  0  0  0  0  0  0  0  0  0  0  0
   42.8790   26.0260  -14.4010 C   0  0  0  0  0  0  0  0  0  0  0  0
   43.1430   27.1160  -13.5560 C   0  0  0  0  0  0  0  0  0  0  0  0
   44.3620   27.2130  -12.8780 C   0  0  0  0  0  0  0  0  0  0  0  0
   45.3250   26.2180  -13.0350 C   0  0  0  0  0  0  0  0  0  0  0  0
   45.0590   25.1320  -13.8600 C   0  0  0  0  0  0  0  0  0  0  0  0
   45.9820   24.1710  -14.0030 F   0  0  0  0  0  0  0  0  0  0  0  0
   43.8490   25.0240  -14.5390 C   0  0  0  0  0  0  0  0  0  0  0  0
   38.9570   26.8350  -15.7740 C   0  0  0  0  0  0  0  0  0  0  0  0
   37.9660   27.6770  -16.2850 C   0  0  0  0  0  0  0  0  0  0  0  0
   35.7600   32.9760  -16.7750 C   0  0  0  0  0  0  0  0  0  0  0  0
   35.6290   33.9070  -17.7680 N   0  0  0  0  0  0  0  0  0  0  0  0
   35.9820   33.3050  -15.6140 O   0  0  0  0  0  0  0  0  0  0  0  0
   34.4872   30.9131  -15.5196 H   0  0  0  0  0  0  0  0  0  0  0  0
   33.5074   31.4126  -16.9398 H   0  0  0  0  0  0  0  0  0  0  0  0
   34.3436   29.8228  -16.9398 H   0  0  0  0  0  0  0  0  0  0  0  0
   35.5579   31.4969  -18.3338 H   0  0  0  0  0  0  0  0  0  0  0  0
   35.4873   29.4281  -15.9677 H   0  0  0  0  0  0  0  0  0  0  0  0
   37.9056   29.9985  -13.7802 H   0  0  0  0  0  0  0  0  0  0  0  0
   39.6784   28.4856  -12.8762 H   0  0  0  0  0  0  0  0  0  0  0  0
   41.4264   24.8932  -15.5039 H   0  0  0  0  0  0  0  0  0  0  0  0
   41.5164   26.6163  -15.9607 H   0  0  0  0  0  0  0  0  0  0  0  0
   42.3835   27.9011  -13.4262 H   0  0  0  0  0  0  0  0  0  0  0  0
   44.5605   28.0732  -12.2218 H   0  0  0  0  0  0  0  0  0  0  0  0
   46.2886   26.2918  -12.5097 H   0  0  0  0  0  0  0  0  0  0  0  0
   43.6543   24.1537  -15.1829 H   0  0  0  0  0  0  0  0  0  0  0  0
   39.2536   25.9393  -16.3395 H   0  0  0  0  0  0  0  0  0  0  0  0
   37.4842   27.4458  -17.2465 H   0  0  0  0  0  0  0  0  0  0  0  0
   35.4500   33.6190  -18.6920 H   0  0  0  0  0  0  0  0  0  0  0  0
   35.7120   34.8660  -17.5580 H   0  0  0  0  0  0  0  0  0  0  0  0
  1  2  1  0
  2  3  1  0
  3  4  2  0
  4  5  1  0
  5  6  2  0
  6  7  1  0
  7  8  2  0
  8  9  1  0
  9 10  1  0
 10 11  1  0
 11 12  2  0
 12 13  1  0
 13 14  2  0
 14 15  1  0
 15 16  1  0
 15 17  2  0
  8 18  1  0
 18 19  2  0
  2 20  1  0
 20 21  1  0
 20 22  2  0
 19  5  1  0
 17 11  1  0
  1 23  1  0
  1 24  1  0
  1 25  1  0
  2 26  1  6
  4 27  1  0
  6 28  1  0
  7 29  1  0
 10 30  1  0
 10 31  1  0
 12 32  1  0
 13 33  1  0
 14 34  1  0
 17 35  1  0
 18 36  1  0
 19 37  1  0
 21 38  1  0
 21 39  1  0
M  END
>  <meeko>  (4) 
{"is_sidechain": [false], "free_energy": -9.786, "intermolecular_energy": -13.173, "internal_energy": -0.674}

$$$$
SAG_pdb_out
     RDKit          3D

 39 40  0  0  0  0  0  0  0  0999 V2000
   33.6330   31.6050  -16.3840 C   0  0  0  0  0  0  0  0  0  0  0  0
   34.6550   31.9870  -17.4460 C   0  0  2  0  0  0  0  0  0  0  0  0
   35.7180   30.9490  -17.4540 N   0  0  0  0  0  0  0  0  0  0  0  0
   35.8820   30.3740  -16.3090 C   0  0  0  0  0  0  0  0  0  0  0  0
   36.8940   29.3190  -16.1080 C   0  0  0  0  0  0  0  0  0  0  0  0
   37.2330   28.4420  -17.1420 C   0  0  0  0  0  0  0  0  0  0  0  0
   38.1960   27.4470  -16.9310 C   0  0  0  0  0  0  0  0  0  0  0  0
   38.8190   27.3290  -15.6870 C   0  0  0  0  0  0  0  0  0  0  0  0
   39.7710   26.4090  -15.3480 O   0  0  0  0  0  0  0  0  0  0  0  0
   40.0250   26.2150  -13.9580 C   0  0  0  0  0  0  0  0  0  0  0  0
   41.5140   26.3100  -13.7430 C   0  0  0  0  0  0  0  0  0  0  0  0
   42.0460   27.2410  -12.8370 C   0  0  0  0  0  0  0  0  0  0  0  0
   43.4260   27.3180  -12.6220 C   0  0  0  0  0  0  0  0  0  0  0  0
   44.2840   26.4580  -13.3050 C   0  0  0  0  0  0  0  0  0  0  0  0
   43.7580   25.5260  -14.1900 C   0  0  0  0  0  0  0  0  0  0  0  0
   44.5830   24.6940  -14.8390 F   0  0  0  0  0  0  0  0  0  0  0  0
   42.3860   25.4400  -14.4130 C   0  0  0  0  0  0  0  0  0  0  0  0
   38.4730   28.2110  -14.6590 C   0  0  0  0  0  0  0  0  0  0  0  0
   37.5140   29.2070  -14.8630 C   0  0  0  0  0  0  0  0  0  0  0  0
   35.2890   33.3420  -17.1050 C   0  0  0  0  0  0  0  0  0  0  0  0
   35.6380   34.1020  -18.1870 N   0  0  0  0  0  0  0  0  0  0  0  0
   35.5010   33.7240  -15.9590 O   0  0  0  0  0  0  0  0  0  0  0  0
   34.0645   31.7663  -15.3851 H   0  0  0  0  0  0  0  0  0  0  0  0
   32.7336   32.2277  -16.4998 H   0  0  0  0  0  0  0  0  0  0  0  0
   33.3625   30.5451  -16.4998 H   0  0  0  0  0  0  0  0  0  0  0  0
   34.1639   32.0583  -18.4277 H   0  0  0  0  0  0  0  0  0  0  0  0
   35.2506   30.6788  -15.4614 H   0  0  0  0  0  0  0  0  0  0  0  0
   36.7430   28.5332  -18.1226 H   0  0  0  0  0  0  0  0  0  0  0  0
   38.4617   26.7579  -17.7462 H   0  0  0  0  0  0  0  0  0  0  0  0
   39.5122   26.9920  -13.3721 H   0  0  0  0  0  0  0  0  0  0  0  0
   39.6522   25.2324  -13.6332 H   0  0  0  0  0  0  0  0  0  0  0  0
   41.3711   27.9165  -12.2909 H   0  0  0  0  0  0  0  0  0  0  0  0
   43.8332   28.0559  -11.9152 H   0  0  0  0  0  0  0  0  0  0  0  0
   45.3706   26.5170  -13.1442 H   0  0  0  0  0  0  0  0  0  0  0  0
   41.9873   24.6912  -15.1132 H   0  0  0  0  0  0  0  0  0  0  0  0
   38.9615   28.1200  -13.6776 H   0  0  0  0  0  0  0  0  0  0  0  0
   37.2500   29.8973  -14.0483 H   0  0  0  0  0  0  0  0  0  0  0  0
   35.4570   33.7740  -19.0970 H   0  0  0  0  0  0  0  0  0  0  0  0
   36.0690   34.9780  -18.0540 H   0  0  0  0  0  0  0  0  0  0  0  0
  1  2  1  0
  2  3  1  0
  3  4  2  0
  4  5  1  0
  5  6  2  0
  6  7  1  0
  7  8  2  0
  8  9  1  0
  9 10  1  0
 10 11  1  0
 11 12  2  0
 12 13  1  0
 13 14  2  0
 14 15  1  0
 15 16  1  0
 15 17  2  0
  8 18  1  0
 18 19  2  0
  2 20  1  0
 20 21  1  0
 20 22  2  0
 19  5  1  0
 17 11  1  0
  1 23  1  0
  1 24  1  0
  1 25  1  0
  2 26  1  6
  4 27  1  0
  6 28  1  0
  7 29  1  0
 10 30  1  0
 10 31  1  0
 12 32  1  0
 13 33  1  0
 14 34  1  0
 17 35  1  0
 18 36  1  0
 19 37  1  0
 21 38  1  0
 21 39  1  0
M  END
>  <meeko>  (5) 
{"is_sidechain": [false], "free_energy": -9.713, "intermolecular_energy": -13.093, "internal_energy": -0.655}

$$$$
SAG_pdb_out
     RDKit          3D

 39 40  0  0  0  0  0  0  0  0999 V2000
   34.2900   32.4340  -17.9140 C   0  0  0  0  0  0  0  0  0  0  0  0
   33.8180   32.0610  -16.5160 C   0  0  2  0  0  0  0  0  0  0  0  0
   34.6900   30.9680  -16.0130 N   0  0  0  0  0  0  0  0  0  0  0  0
   35.6120   30.6230  -16.8490 C   0  0  0  0  0  0  0  0  0  0  0  0
   36.5770   29.5500  -16.5410 C   0  0  0  0  0  0  0  0  0  0  0  0
   36.9710   28.6360  -17.5210 C   0  0  0  0  0  0  0  0  0  0  0  0
   37.8880   27.6240  -17.2100 C   0  0  0  0  0  0  0  0  0  0  0  0
   38.4110   27.5270  -15.9200 C   0  0  0  0  0  0  0  0  0  0  0  0
   39.3090   26.5950  -15.4820 O   0  0  0  0  0  0  0  0  0  0  0  0
   39.5280   26.5080  -14.0760 C   0  0  0  0  0  0  0  0  0  0  0  0
   41.0160   26.5100  -13.8380 C   0  0  0  0  0  0  0  0  0  0  0  0
   41.5870   27.3800  -12.8950 C   0  0  0  0  0  0  0  0  0  0  0  0
   42.9650   27.3710  -12.6590 C   0  0  0  0  0  0  0  0  0  0  0  0
   43.7840   26.4870  -13.3600 C   0  0  0  0  0  0  0  0  0  0  0  0
   43.2190   25.6160  -14.2830 C   0  0  0  0  0  0  0  0  0  0  0  0
   44.0060   24.7600  -14.9490 F   0  0  0  0  0  0  0  0  0  0  0  0
   41.8490   25.6150  -14.5260 C   0  0  0  0  0  0  0  0  0  0  0  0
   38.0120   28.4470  -14.9460 C   0  0  0  0  0  0  0  0  0  0  0  0
   37.0970   29.4600  -15.2500 C   0  0  0  0  0  0  0  0  0  0  0  0
   32.3700   31.5570  -16.5630 C   0  0  0  0  0  0  0  0  0  0  0  0
   31.7480   31.7050  -17.7720 N   0  0  0  0  0  0  0  0  0  0  0  0
   31.7850   31.0790  -15.5970 O   0  0  0  0  0  0  0  0  0  0  0  0
   35.1511   33.1145  -17.8409 H   0  0  0  0  0  0  0  0  0  0  0  0
   34.5869   31.5239  -18.4558 H   0  0  0  0  0  0  0  0  0  0  0  0
   33.4731   32.9332  -18.4558 H   0  0  0  0  0  0  0  0  0  0  0  0
   33.8686   32.9419  -15.8592 H   0  0  0  0  0  0  0  0  0  0  0  0
   35.6797   31.1427  -17.8161 H   0  0  0  0  0  0  0  0  0  0  0  0
   36.5604   28.7111  -18.5387 H   0  0  0  0  0  0  0  0  0  0  0  0
   38.1962   26.9050  -17.9834 H   0  0  0  0  0  0  0  0  0  0  0  0
   39.0677   27.3706  -13.5720 H   0  0  0  0  0  0  0  0  0  0  0  0
   39.0769   25.5888  -13.6741 H   0  0  0  0  0  0  0  0  0  0  0  0
   40.9435   28.0756  -12.3364 H   0  0  0  0  0  0  0  0  0  0  0  0
   43.4022   28.0602  -11.9215 H   0  0  0  0  0  0  0  0  0  0  0  0
   44.8697   26.4793  -13.1835 H   0  0  0  0  0  0  0  0  0  0  0  0
   41.4197   24.9135  -15.2565 H   0  0  0  0  0  0  0  0  0  0  0  0
   38.4227   28.3732  -13.9282 H   0  0  0  0  0  0  0  0  0  0  0  0
   36.7899   30.1800  -14.4771 H   0  0  0  0  0  0  0  0  0  0  0  0
   32.2390   32.0920  -18.5330 H   0  0  0  0  0  0  0  0  0  0  0  0
   30.8110   31.4240  -17.8810 H   0  0  0  0  0  0  0  0  0  0  0  0
  1  2  1  0
  2  3  1  0
  3  4  2  0
  4  5  1  0
  5  6  2  0
  6  7  1  0
  7  8  2  0
  8  9  1  0
  9 10  1  0
 10 11  1  0
 11 12  2  0
 12 13  1  0
 13 14  2  0
 14 15  1  0
 15 16  1  0
 15 17  2  0
  8 18  1  0
 18 19  2  0
  2 20  1  0
 20 21  1  0
 20 22  2  0
 19  5  1  0
 17 11  1  0
  1 23  1  0
  1 24  1  0
  1 25  1  0
  2 26  1  1
  4 27  1  0
  6 28  1  0
  7 29  1  0
 10 30  1  0
 10 31  1  0
 12 32  1  0
 13 33  1  0
 14 34  1  0
 17 35  1  0
 18 36  1  0
 19 37  1  0
 21 38  1  0
 21 39  1  0
M  END
>  <meeko>  (6) 
{"is_sidechain": [false], "free_energy": -9.63, "intermolecular_energy": -12.947, "internal_energy": -0.688}

$$$$
SAG_pdb_out
     RDKit          3D

 39 40  0  0  0  0  0  0  0  0999 V2000
   42.9810   25.1090  -14.9300 C   0  0  0  0  0  0  0  0  0  0  0  0
   41.9550   25.8220  -14.0610 C   0  0  2  0  0  0  0  0  0  0  0  0
   41.0460   26.5840  -14.9550 N   0  0  0  0  0  0  0  0  0  0  0  0
   39.9540   26.9600  -14.3760 C   0  0  0  0  0  0  0  0  0  0  0  0
   38.9160   27.7230  -15.0960 C   0  0  0  0  0  0  0  0  0  0  0  0
   38.3230   28.8490  -14.5180 C   0  0  0  0  0  0  0  0  0  0  0  0
   37.3390   29.5600  -15.2170 C   0  0  0  0  0  0  0  0  0  0  0  0
   36.9500   29.1470  -16.4920 C   0  0  0  0  0  0  0  0  0  0  0  0
   36.0080   29.7460  -17.2800 O   0  0  0  0  0  0  0  0  0  0  0  0
   35.8090   31.1470  -17.1090 C   0  0  0  0  0  0  0  0  0  0  0  0
   34.3360   31.3810  -16.8870 C   0  0  0  0  0  0  0  0  0  0  0  0
   33.5480   31.9670  -17.8900 C   0  0  0  0  0  0  0  0  0  0  0  0
   32.1780   32.1690  -17.6940 C   0  0  0  0  0  0  0  0  0  0  0  0
   31.5840   31.7800  -16.4940 C   0  0  0  0  0  0  0  0  0  0  0  0
   32.3600   31.1870  -15.5060 C   0  0  0  0  0  0  0  0  0  0  0  0
   31.7860   30.8050  -14.3580 F   0  0  0  0  0  0  0  0  0  0  0  0
   33.7240   30.9810  -15.6910 C   0  0  0  0  0  0  0  0  0  0  0  0
   37.5500   28.0200  -17.0620 C   0  0  0  0  0  0  0  0  0  0  0  0
   38.5320   27.3050  -16.3710 C   0  0  0  0  0  0  0  0  0  0  0  0
   42.6560   26.8060  -13.1150 C   0  0  0  0  0  0  0  0  0  0  0  0
   43.6820   27.5140  -13.6780 N   0  0  0  0  0  0  0  0  0  0  0  0
   42.3560   26.9440  -11.9340 O   0  0  0  0  0  0  0  0  0  0  0  0
   43.7145   24.5993  -14.2880 H   0  0  0  0  0  0  0  0  0  0  0  0
   42.4725   24.3686  -15.5651 H   0  0  0  0  0  0  0  0  0  0  0  0
   43.4976   25.8437  -15.5651 H   0  0  0  0  0  0  0  0  0  0  0  0
   41.3977   25.0855  -13.4635 H   0  0  0  0  0  0  0  0  0  0  0  0
   39.7936   26.7046  -13.3181 H   0  0  0  0  0  0  0  0  0  0  0  0
   38.6292   29.1770  -13.5137 H   0  0  0  0  0  0  0  0  0  0  0  0
   36.8723   30.4452  -14.7602 H   0  0  0  0  0  0  0  0  0  0  0  0
   36.3795   31.5022  -16.2381 H   0  0  0  0  0  0  0  0  0  0  0  0
   36.1548   31.6950  -17.9979 H   0  0  0  0  0  0  0  0  0  0  0  0
   34.0127   32.2704  -18.8397 H   0  0  0  0  0  0  0  0  0  0  0  0
   31.5706   32.6336  -18.4847 H   0  0  0  0  0  0  0  0  0  0  0  0
   30.5082   31.9416  -16.3307 H   0  0  0  0  0  0  0  0  0  0  0  0
   34.3212   30.5048  -14.8994 H   0  0  0  0  0  0  0  0  0  0  0  0
   37.2453   27.6921  -18.0668 H   0  0  0  0  0  0  0  0  0  0  0  0
   38.9985   26.4200  -16.8283 H   0  0  0  0  0  0  0  0  0  0  0  0
   43.9040   27.3860  -14.6280 H   0  0  0  0  0  0  0  0  0  0  0  0
   44.1960   28.1530  -13.1320 H   0  0  0  0  0  0  0  0  0  0  0  0
  1  2  1  0
  2  3  1  0
  3  4  2  0
  4  5  1  0
  5  6  2  0
  6  7  1  0
  7  8  2  0
  8  9  1  0
  9 10  1  0
 10 11  1  0
 11 12  2  0
 12 13  1  0
 13 14  2  0
 14 15  1  0
 15 16  1  0
 15 17  2  0
  8 18  1  0
 18 19  2  0
  2 20  1  0
 20 21  1  0
 20 22  2  0
 19  5  1  0
 17 11  1  0
  1 23  1  0
  1 24  1  0
  1 25  1  0
  2 26  1  1
  4 27  1  0
  6 28  1  0
  7 29  1  0
 10 30  1  0
 10 31  1  0
 12 32  1  0
 13 33  1  0
 14 34  1  0
 17 35  1  0
 18 36  1  0
 19 37  1  0
 21 38  1  0
 21 39  1  0
M  END
>  <meeko>  (7) 
{"is_sidechain": [false], "free_energy": -9.169, "intermolecular_energy": -12.386, "internal_energy": -0.627}

$$$$
SAG_pdb_out
     RDKit          3D

 39 40  0  0  0  0  0  0  0  0999 V2000
   43.9480   26.2160  -11.5950 C   0  0  0  0  0  0  0  0  0  0  0  0
   44.4420   26.7640  -12.9260 C   0  0  2  0  0  0  0  0  0  0  0  0
   43.2560   27.1660  -13.7260 N   0  0  0  0  0  0  0  0  0  0  0  0
   42.1380   27.0100  -13.0980 C   0  0  0  0  0  0  0  0  0  0  0  0
   40.8430   27.3450  -13.7220 C   0  0  0  0  0  0  0  0  0  0  0  0
   40.3610   26.6150  -14.8110 C   0  0  0  0  0  0  0  0  0  0  0  0
   39.1300   26.9490  -15.3910 C   0  0  0  0  0  0  0  0  0  0  0  0
   38.3820   28.0110  -14.8800 C   0  0  0  0  0  0  0  0  0  0  0  0
   37.1720   28.4420  -15.3470 O   0  0  0  0  0  0  0  0  0  0  0  0
   36.6610   29.6600  -14.8110 C   0  0  0  0  0  0  0  0  0  0  0  0
   35.5830   30.1580  -15.7390 C   0  0  0  0  0  0  0  0  0  0  0  0
   34.5900   31.0350  -15.2750 C   0  0  0  0  0  0  0  0  0  0  0  0
   33.5990   31.5120  -16.1380 C   0  0  0  0  0  0  0  0  0  0  0  0
   33.5970   31.1230  -17.4760 C   0  0  0  0  0  0  0  0  0  0  0  0
   34.5880   30.2660  -17.9410 C   0  0  0  0  0  0  0  0  0  0  0  0
   34.5900   29.9000  -19.2290 F   0  0  0  0  0  0  0  0  0  0  0  0
   35.5790   29.7850  -17.0910 C   0  0  0  0  0  0  0  0  0  0  0  0
   38.8730   28.7360  -13.7900 C   0  0  0  0  0  0  0  0  0  0  0  0
   40.1000   28.4080  -13.2070 C   0  0  0  0  0  0  0  0  0  0  0  0
   45.2100   25.6800  -13.6920 C   0  0  0  0  0  0  0  0  0  0  0  0
   44.4760   25.0080  -14.6300 N   0  0  0  0  0  0  0  0  0  0  0  0
   46.3850   25.4010  -13.4790 O   0  0  0  0  0  0  0  0  0  0  0  0
   44.4363   26.7577  -10.7715 H   0  0  0  0  0  0  0  0  0  0  0  0
   42.8582   26.3485  -11.5257 H   0  0  0  0  0  0  0  0  0  0  0  0
   44.1924   25.1457  -11.5257 H   0  0  0  0  0  0  0  0  0  0  0  0
   45.1103   27.6199  -12.7506 H   0  0  0  0  0  0  0  0  0  0  0  0
   42.1514   26.6170  -12.0707 H   0  0  0  0  0  0  0  0  0  0  0  0
   40.9486   25.7768  -15.2138 H   0  0  0  0  0  0  0  0  0  0  0  0
   38.7528   26.3740  -16.2495 H   0  0  0  0  0  0  0  0  0  0  0  0
   36.2397   29.4806  -13.8109 H   0  0  0  0  0  0  0  0  0  0  0  0
   37.4643   30.4061  -14.7214 H   0  0  0  0  0  0  0  0  0  0  0  0
   34.5916   31.3503  -14.2211 H   0  0  0  0  0  0  0  0  0  0  0  0
   32.8220   32.1934  -15.7613 H   0  0  0  0  0  0  0  0  0  0  0  0
   32.8173   31.4912  -18.1591 H   0  0  0  0  0  0  0  0  0  0  0  0
   36.3585   29.1129  -17.4790 H   0  0  0  0  0  0  0  0  0  0  0  0
   38.2865   29.5746  -13.3865 H   0  0  0  0  0  0  0  0  0  0  0  0
   40.4772   28.9834  -12.3487 H   0  0  0  0  0  0  0  0  0  0  0  0
   43.5350   25.2510  -14.7840 H   0  0  0  0  0  0  0  0  0  0  0  0
   44.8900   24.2830  -15.1520 H   0  0  0  0  0  0  0  0  0  0  0  0
  1  2  1  0
  2  3  1  0
  3  4  2  0
  4  5  1  0
  5  6  2  0
  6  7  1  0
  7  8  2  0
  8  9  1  0
  9 10  1  0
 10 11  1  0
 11 12  2  0
 12 13  1  0
 13 14  2  0
 14 15  1  0
 15 16  1  0
 15 17  2  0
  8 18  1  0
 18 19  2  0
  2 20  1  0
 20 21  1  0
 20 22  2  0
 19  5  1  0
 17 11  1  0
  1 23  1  0
  1 24  1  0
  1 25  1  0
  2 26  1  1
  4 27  1  0
  6 28  1  0
  7 29  1  0
 10 30  1  0
 10 31  1  0
 12 32  1  0
 13 33  1  0
 14 34  1  0
 17 35  1  0
 18 36  1  0
 19 37  1  0
 21 38  1  0
 21 39  1  0
M  END
>  <meeko>  (8) 
{"is_sidechain": [false], "free_energy": -9.064, "intermolecular_energy": -12.299, "internal_energy": -0.572}

$$$$
SAG_pdb_out
     RDKit          3D

 39 40  0  0  0  0  0  0  0  0999 V2000
   34.0340   31.0350  -18.0580 C   0  0  0  0  0  0  0  0  0  0  0  0
   34.1390   31.4480  -16.5970 C   0  0  2  0  0  0  0  0  0  0  0  0
   35.1050   30.5370  -15.9300 N   0  0  0  0  0  0  0  0  0  0  0  0
   35.9910   30.0530  -16.7340 C   0  0  0  0  0  0  0  0  0  0  0  0
   37.0370   29.1220  -16.2680 C   0  0  0  0  0  0  0  0  0  0  0  0
   37.5500   29.2090  -14.9710 C   0  0  0  0  0  0  0  0  0  0  0  0
   38.5430   28.3170  -14.5460 C   0  0  0  0  0  0  0  0  0  0  0  0
   39.0210   27.3370  -15.4180 C   0  0  0  0  0  0  0  0  0  0  0  0
   39.9820   26.4070  -15.1350 O   0  0  0  0  0  0  0  0  0  0  0  0
   40.3920   26.2850  -13.7750 C   0  0  0  0  0  0  0  0  0  0  0  0
   41.8890   26.1110  -13.7570 C   0  0  0  0  0  0  0  0  0  0  0  0
   42.5070   25.1590  -14.5840 C   0  0  0  0  0  0  0  0  0  0  0  0
   43.8970   25.0080  -14.5820 C   0  0  0  0  0  0  0  0  0  0  0  0
   44.6820   25.8120  -13.7580 C   0  0  0  0  0  0  0  0  0  0  0  0
   44.0730   26.7650  -12.9500 C   0  0  0  0  0  0  0  0  0  0  0  0
   44.8290   27.5440  -12.1660 F   0  0  0  0  0  0  0  0  0  0  0  0
   42.6900   26.9250  -12.9440 C   0  0  0  0  0  0  0  0  0  0  0  0
   38.5010   27.2570  -16.7140 C   0  0  0  0  0  0  0  0  0  0  0  0
   37.5110   28.1440  -17.1440 C   0  0  0  0  0  0  0  0  0  0  0  0
   32.7740   31.3110  -15.9100 C   0  0  0  0  0  0  0  0  0  0  0  0
   32.8240   30.8850  -14.6120 N   0  0  0  0  0  0  0  0  0  0  0  0
   31.7060   31.5350  -16.4700 O   0  0  0  0  0  0  0  0  0  0  0  0
   33.7634   29.9706  -18.1196 H   0  0  0  0  0  0  0  0  0  0  0  0
   33.2609   31.6393  -18.5552 H   0  0  0  0  0  0  0  0  0  0  0  0
   35.0018   31.1966  -18.5552 H   0  0  0  0  0  0  0  0  0  0  0  0
   34.4707   32.4946  -16.5289 H   0  0  0  0  0  0  0  0  0  0  0  0
   35.9658   30.3421  -17.7950 H   0  0  0  0  0  0  0  0  0  0  0  0
   37.1732   29.9796  -14.2823 H   0  0  0  0  0  0  0  0  0  0  0  0
   38.9462   28.3887  -13.5251 H   0  0  0  0  0  0  0  0  0  0  0  0
   40.1143   27.1920  -13.2180 H   0  0  0  0  0  0  0  0  0  0  0  0
   39.9000   25.4223  -13.3021 H   0  0  0  0  0  0  0  0  0  0  0  0
   41.8914   24.5258  -15.2399 H   0  0  0  0  0  0  0  0  0  0  0  0
   44.3702   24.2556  -15.2300 H   0  0  0  0  0  0  0  0  0  0  0  0
   45.7755   25.6934  -13.7470 H   0  0  0  0  0  0  0  0  0  0  0  0
   42.2266   27.6889  -12.3024 H   0  0  0  0  0  0  0  0  0  0  0  0
   38.8762   26.4861  -17.4032 H   0  0  0  0  0  0  0  0  0  0  0  0
   37.1081   28.0723  -18.1650 H   0  0  0  0  0  0  0  0  0  0  0  0
   33.6930   30.7120  -14.1840 H   0  0  0  0  0  0  0  0  0  0  0  0
   31.9900   30.7520  -14.1050 H   0  0  0  0  0  0  0  0  0  0  0  0
  1  2  1  0
  2  3  1  0
  3  4  2  0
  4  5  1  0
  5  6  2  0
  6  7  1  0
  7  8  2  0
  8  9  1  0
  9 10  1  0
 10 11  1  0
 11 12  2  0
 12 13  1  0
 13 14  2  0
 14 15  1  0
 15 16  1  0
 15 17  2  0
  8 18  1  0
 18 19  2  0
  2 20  1  0
 20 21  1  0
 20 22  2  0
 19  5  1  0
 17 11  1  0
  1 23  1  0
  1 24  1  0
  1 25  1  0
  2 26  1  6
  4 27  1  0
  6 28  1  0
  7 29  1  0
 10 30  1  0
 10 31  1  0
 12 32  1  0
 13 33  1  0
 14 34  1  0
 17 35  1  0
 18 36  1  0
 19 37  1  0
 21 38  1  0
 21 39  1  0
M  END
>  <meeko>  (9) 
{"is_sidechain": [false], "free_energy": -9.061, "intermolecular_energy": -12.25, "internal_energy": -0.617}

$$$$
