cand_018_out
     RDKit          3D

 44 47  0  0  0  0  0  0  0  0999 V2000
  176.6880   18.8580   46.2120 C   0  0  0  0  0  0  0  0  0  0  0  0
  177.7580   19.6930   46.8630 C   0  0  0  0  0  0  0  0  0  0  0  0
  179.0730   19.6250   46.3780 C   0  0  0  0  0  0  0  0  0  0  0  0
  180.0860   20.3890   46.9590 C   0  0  0  0  0  0  0  0  0  0  0  0
  179.8070   21.2470   48.0280 C   0  0  0  0  0  0  0  0  0  0  0  0
  180.8960   22.0360   48.6420 C   0  0  0  0  0  0  0  0  0  0  0  0
  181.0030   23.3150   48.1060 O   0  0  0  0  0  0  0  0  0  0  0  0
  181.9750   24.1560   48.5850 C   0  0  0  0  0  0  0  0  0  0  0  0
  182.0560   25.4240   48.0070 C   0  0  0  0  0  0  0  0  0  0  0  0
  183.0220   26.3300   48.4510 C   0  0  0  0  0  0  0  0  0  0  0  0
  183.9040   25.9690   49.4710 C   0  0  0  0  0  0  0  0  0  0  0  0
  183.8190   24.7050   50.0470 C   0  0  0  0  0  0  0  0  0  0  0  0
  184.7130   24.4170   51.0410 O   0  0  0  0  0  0  0  0  0  0  0  0
  182.8530   23.7970   49.6020 C   0  0  0  0  0  0  0  0  0  0  0  0
  182.7310   22.4570   50.1780 C   0  0  0  0  0  0  0  0  0  0  0  0
  183.4660   22.0690   51.0850 O   0  0  0  0  0  0  0  0  0  0  0  0
  181.6790   21.5690   49.6310 C   0  0  0  0  0  0  0  0  0  0  0  0
  181.5650   20.3110   50.1930 O   0  0  0  0  0  0  0  0  0  0  0  0
  178.4900   21.3070   48.5120 C   0  0  0  0  0  0  0  0  0  0  0  0
  177.4540   20.5410   47.9460 C   0  0  0  0  0  0  0  0  0  0  0  0
  176.1270   20.6280   48.4020 N   0  0  0  0  0  0  0  0  0  0  0  0
  175.4670   21.8740   47.9610 C   0  0  0  0  0  0  0  0  0  0  0  0
  174.4720   22.1810   49.0730 C   0  0  0  0  0  0  0  0  0  0  0  0
  175.2250   21.7310   50.3120 C   0  0  0  0  0  0  0  0  0  0  0  0
  175.8970   20.4440   49.8460 C   0  0  0  0  0  0  0  0  0  0  0  0
  176.0738   18.3787   46.9885 H   0  0  0  0  0  0  0  0  0  0  0  0
  176.0516   19.5006   45.5859 H   0  0  0  0  0  0  0  0  0  0  0  0
  177.1567   18.0845   45.5859 H   0  0  0  0  0  0  0  0  0  0  0  0
  179.3077   18.9629   45.5315 H   0  0  0  0  0  0  0  0  0  0  0  0
  181.1134   20.3158   46.5728 H   0  0  0  0  0  0  0  0  0  0  0  0
  181.3607   25.7091   47.2037 H   0  0  0  0  0  0  0  0  0  0  0  0
  183.0878   27.3294   47.9962 H   0  0  0  0  0  0  0  0  0  0  0  0
  184.6652   26.6827   49.8190 H   0  0  0  0  0  0  0  0  0  0  0  0
  185.3550   25.0520   51.2920 H   0  0  0  0  0  0  0  0  0  0  0  0
  181.2960   19.5850   49.6660 H   0  0  0  0  0  0  0  0  0  0  0  0
  178.2617   21.9720   49.3580 H   0  0  0  0  0  0  0  0  0  0  0  0
  176.1994   22.6880   47.8566 H   0  0  0  0  0  0  0  0  0  0  0  0
  174.9834   21.7707   46.9784 H   0  0  0  0  0  0  0  0  0  0  0  0
  174.2407   23.2556   49.1155 H   0  0  0  0  0  0  0  0  0  0  0  0
  173.4989   21.6846   48.9436 H   0  0  0  0  0  0  0  0  0  0  0  0
  175.9707   22.4800   50.6170 H   0  0  0  0  0  0  0  0  0  0  0  0
  174.5775   21.5924   51.1904 H   0  0  0  0  0  0  0  0  0  0  0  0
  176.8512   20.2948   50.3725 H   0  0  0  0  0  0  0  0  0  0  0  0
  175.2779   19.5589   50.0538 H   0  0  0  0  0  0  0  0  0  0  0  0
  1  2  1  0
  2  3  2  0
  3  4  1  0
  4  5  2  0
  5  6  1  0
  6  7  1  0
  7  8  1  0
  8  9  2  0
  9 10  1  0
 10 11  2  0
 11 12  1  0
 12 13  1  0
 12 14  2  0
 14 15  1  0
 15 16  2  0
 15 17  1  0
 17 18  1  0
  5 19  1  0
 19 20  2  0
 20 21  1  0
 21 22  1  0
 22 23  1  0
 23 24  1  0
 24 25  1  0
 20  2  1  0
 25 21  1  0
 17  6  2  0
 14  8  1  0
  1 26  1  0
  1 27  1  0
  1 28  1  0
  3 29  1  0
  4 30  1  0
  9 31  1  0
 10 32  1  0
 11 33  1  0
 13 34  1  0
 18 35  1  0
 19 36  1  0
 22 37  1  0
 22 38  1  0
 23 39  1  0
 23 40  1  0
 24 41  1  0
 24 42  1  0
 25 43  1  0
 25 44  1  0
M  END
>  <meeko>  (1) 
{"is_sidechain": [false], "free_energy": -7.26, "intermolecular_energy": -8.533, "internal_energy": -0.758}

$$$$
cand_018_out
     RDKit          3D

 44 47  0  0  0  0  0  0  0  0999 V2000
  176.4180   22.3860   48.8530 C   0  0  0  0  0  0  0  0  0  0  0  0
  177.2750   21.4250   48.0730 C   0  0  0  0  0  0  0  0  0  0  0  0
  176.6640   20.5030   47.2100 C   0  0  0  0  0  0  0  0  0  0  0  0
  177.4320   19.6020   46.4720 C   0  0  0  0  0  0  0  0  0  0  0  0
  178.8270   19.6100   46.5680 C   0  0  0  0  0  0  0  0  0  0  0  0
  179.6240   18.6370   45.7900 C   0  0  0  0  0  0  0  0  0  0  0  0
  179.0970   17.3510   45.8350 O   0  0  0  0  0  0  0  0  0  0  0  0
  179.7400   16.3470   45.1560 C   0  0  0  0  0  0  0  0  0  0  0  0
  179.1850   15.0690   45.2410 C   0  0  0  0  0  0  0  0  0  0  0  0
  179.7880   14.0030   44.5720 C   0  0  0  0  0  0  0  0  0  0  0  0
  180.9430   14.2130   43.8160 C   0  0  0  0  0  0  0  0  0  0  0  0
  181.4940   15.4890   43.7320 C   0  0  0  0  0  0  0  0  0  0  0  0
  182.6260   15.6260   42.9760 O   0  0  0  0  0  0  0  0  0  0  0  0
  180.8900   16.5570   44.4040 C   0  0  0  0  0  0  0  0  0  0  0  0
  181.4370   17.9130   44.3430 C   0  0  0  0  0  0  0  0  0  0  0  0
  182.4470   18.1800   43.6930 O   0  0  0  0  0  0  0  0  0  0  0  0
  180.7270   18.9730   45.0960 C   0  0  0  0  0  0  0  0  0  0  0  0
  181.2450   20.2530   45.0200 O   0  0  0  0  0  0  0  0  0  0  0  0
  179.4330   20.5320   47.4360 C   0  0  0  0  0  0  0  0  0  0  0  0
  178.6790   21.4450   48.1960 C   0  0  0  0  0  0  0  0  0  0  0  0
  179.2830   22.3960   49.0360 N   0  0  0  0  0  0  0  0  0  0  0  0
  180.2730   23.2250   48.3190 C   0  0  0  0  0  0  0  0  0  0  0  0
  181.3040   23.5770   49.3830 C   0  0  0  0  0  0  0  0  0  0  0  0
  181.3500   22.3110   50.2180 C   0  0  0  0  0  0  0  0  0  0  0  0
  179.8820   21.9030   50.2890 C   0  0  0  0  0  0  0  0  0  0  0  0
  176.5669   22.2190   49.9300 H   0  0  0  0  0  0  0  0  0  0  0  0
  176.7008   23.4184   48.5995 H   0  0  0  0  0  0  0  0  0  0  0  0
  175.3601   22.2228   48.5995 H   0  0  0  0  0  0  0  0  0  0  0  0
  175.5682   20.4904   47.1143 H   0  0  0  0  0  0  0  0  0  0  0  0
  176.9356   18.8786   45.8085 H   0  0  0  0  0  0  0  0  0  0  0  0
  178.2738   14.9024   45.8343 H   0  0  0  0  0  0  0  0  0  0  0  0
  179.3525   12.9952   44.6404 H   0  0  0  0  0  0  0  0  0  0  0  0
  181.4166   13.3722   43.2879 H   0  0  0  0  0  0  0  0  0  0  0  0
  182.6800   15.2150   42.1360 H   0  0  0  0  0  0  0  0  0  0  0  0
  181.2290   20.7170   44.2060 H   0  0  0  0  0  0  0  0  0  0  0  0
  180.5294   20.5409   47.5246 H   0  0  0  0  0  0  0  0  0  0  0  0
  180.7367   22.6573   47.4988 H   0  0  0  0  0  0  0  0  0  0  0  0
  179.8221   24.1158   47.8574 H   0  0  0  0  0  0  0  0  0  0  0  0
  182.2839   23.7931   48.9324 H   0  0  0  0  0  0  0  0  0  0  0  0
  181.0510   24.4778   49.9614 H   0  0  0  0  0  0  0  0  0  0  0  0
  181.9544   21.5339   49.7273 H   0  0  0  0  0  0  0  0  0  0  0  0
  181.8111   22.4562   51.2061 H   0  0  0  0  0  0  0  0  0  0  0  0
  179.7885   20.8091   50.3570 H   0  0  0  0  0  0  0  0  0  0  0  0
  179.3819   22.3197   51.1757 H   0  0  0  0  0  0  0  0  0  0  0  0
  1  2  1  0
  2  3  2  0
  3  4  1  0
  4  5  2  0
  5  6  1  0
  6  7  1  0
  7  8  1  0
  8  9  2  0
  9 10  1  0
 10 11  2  0
 11 12  1  0
 12 13  1  0
 12 14  2  0
 14 15  1  0
 15 16  2  0
 15 17  1  0
 17 18  1  0
  5 19  1  0
 19 20  2  0
 20 21  1  0
 21 22  1  0
 22 23  1  0
 23 24  1  0
 24 25  1  0
 20  2  1  0
 25 21  1  0
 17  6  2  0
 14  8  1  0
  1 26  1  0
  1 27  1  0
  1 28  1  0
  3 29  1  0
  4 30  1  0
  9 31  1  0
 10 32  1  0
 11 33  1  0
 13 34  1  0
 18 35  1  0
 19 36  1  0
 22 37  1  0
 22 38  1  0
 23 39  1  0
 23 40  1  0
 24 41  1  0
 24 42  1  0
 25 43  1  0
 25 44  1  0
M  END
>  <meeko>  (2) 
{"is_sidechain": [false], "free_energy": -7.235, "intermolecular_energy": -8.779, "internal_energy": -0.483}

$$$$
cand_018_out
     RDKit          3D

 44 47  0  0  0  0  0  0  0  0999 V2000
  180.6890   20.2460   45.6330 C   0  0  0  0  0  0  0  0  0  0  0  0
  179.8160   20.8100   46.7220 C   0  0  0  0  0  0  0  0  0  0  0  0
  178.4750   20.4070   46.8060 C   0  0  0  0  0  0  0  0  0  0  0  0
  177.6420   20.9090   47.8060 C   0  0  0  0  0  0  0  0  0  0  0  0
  178.1320   21.8140   48.7530 C   0  0  0  0  0  0  0  0  0  0  0  0
  177.2310   22.3480   49.7970 C   0  0  0  0  0  0  0  0  0  0  0  0
  176.1200   22.9970   49.2680 O   0  0  0  0  0  0  0  0  0  0  0  0
  175.2000   23.5420   50.1270 C   0  0  0  0  0  0  0  0  0  0  0  0
  174.1090   24.1970   49.5530 C   0  0  0  0  0  0  0  0  0  0  0  0
  173.1340   24.7720   50.3700 C   0  0  0  0  0  0  0  0  0  0  0  0
  173.2490   24.6920   51.7600 C   0  0  0  0  0  0  0  0  0  0  0  0
  174.3370   24.0380   52.3290 C   0  0  0  0  0  0  0  0  0  0  0  0
  174.3880   23.9960   53.6950 O   0  0  0  0  0  0  0  0  0  0  0  0
  175.3140   23.4620   51.5100 C   0  0  0  0  0  0  0  0  0  0  0  0
  176.4740   22.7660   52.0680 C   0  0  0  0  0  0  0  0  0  0  0  0
  176.6420   22.6480   53.2800 O   0  0  0  0  0  0  0  0  0  0  0  0
  177.4560   22.1980   51.1150 C   0  0  0  0  0  0  0  0  0  0  0  0
  178.5410   21.5310   51.6530 O   0  0  0  0  0  0  0  0  0  0  0  0
  179.4740   22.2170   48.6630 C   0  0  0  0  0  0  0  0  0  0  0  0
  180.3310   21.7290   47.6580 C   0  0  0  0  0  0  0  0  0  0  0  0
  181.6850   22.0990   47.5870 N   0  0  0  0  0  0  0  0  0  0  0  0
  182.5270   21.3090   48.5080 C   0  0  0  0  0  0  0  0  0  0  0  0
  183.6560   22.2600   48.8870 C   0  0  0  0  0  0  0  0  0  0  0  0
  182.9430   23.5980   48.9460 C   0  0  0  0  0  0  0  0  0  0  0  0
  182.0010   23.5290   47.7480 C   0  0  0  0  0  0  0  0  0  0  0  0
  181.5318   19.7015   46.0838 H   0  0  0  0  0  0  0  0  0  0  0  0
  180.0992   19.5578   45.0097 H   0  0  0  0  0  0  0  0  0  0  0  0
  181.0739   21.0666   45.0097 H   0  0  0  0  0  0  0  0  0  0  0  0
  178.0761   19.6876   46.0757 H   0  0  0  0  0  0  0  0  0  0  0  0
  176.5901   20.5901   47.8501 H   0  0  0  0  0  0  0  0  0  0  0  0
  174.0177   24.2599   48.4586 H   0  0  0  0  0  0  0  0  0  0  0  0
  172.2741   25.2887   49.9188 H   0  0  0  0  0  0  0  0  0  0  0  0
  172.4806   25.1454   52.4034 H   0  0  0  0  0  0  0  0  0  0  0  0
  174.9740   23.4030   54.1240 H   0  0  0  0  0  0  0  0  0  0  0  0
  178.8040   20.7040   51.3010 H   0  0  0  0  0  0  0  0  0  0  0  0
  179.8670   22.9343   49.3985 H   0  0  0  0  0  0  0  0  0  0  0  0
  181.9553   21.0071   49.3980 H   0  0  0  0  0  0  0  0  0  0  0  0
  182.8943   20.3782   48.0511 H   0  0  0  0  0  0  0  0  0  0  0  0
  184.0892   21.9957   49.8630 H   0  0  0  0  0  0  0  0  0  0  0  0
  184.5026   22.2418   48.1849 H   0  0  0  0  0  0  0  0  0  0  0  0
  182.3821   23.7075   49.8859 H   0  0  0  0  0  0  0  0  0  0  0  0
  183.6270   24.4589   48.9145 H   0  0  0  0  0  0  0  0  0  0  0  0
  181.0856   24.1067   47.9433 H   0  0  0  0  0  0  0  0  0  0  0  0
  182.4568   23.9539   46.8415 H   0  0  0  0  0  0  0  0  0  0  0  0
  1  2  1  0
  2  3  2  0
  3  4  1  0
  4  5  2  0
  5  6  1  0
  6  7  1  0
  7  8  1  0
  8  9  2  0
  9 10  1  0
 10 11  2  0
 11 12  1  0
 12 13  1  0
 12 14  2  0
 14 15  1  0
 15 16  2  0
 15 17  1  0
 17 18  1  0
  5 19  1  0
 19 20  2  0
 20 21  1  0
 21 22  1  0
 22 23  1  0
 23 24  1  0
 24 25  1  0
 20  2  1  0
 25 21  1  0
 17  6  2  0
 14  8  1  0
  1 26  1  0
  1 27  1  0
  1 28  1  0
  3 29  1  0
  4 30  1  0
  9 31  1  0
 10 32  1  0
 11 33  1  0
 13 34  1  0
 18 35  1  0
 19 36  1  0
 22 37  1  0
 22 38  1  0
 23 39  1  0
 23 40  1  0
 24 41  1  0
 24 42  1  0
 25 43  1  0
 25 44  1  0
M  END
>  <meeko>  (3) 
{"is_sidechain": [false], "free_energy": -7.156, "intermolecular_energy": -8.605, "internal_energy": -0.565}

$$$$
cand_018_out
     RDKit          3D

 44 47  0  0  0  0  0  0  0  0999 V2000
  185.7030   23.6280   48.6440 C   0  0  0  0  0  0  0  0  0  0  0  0
  184.3830   23.0030   48.2800 C   0  0  0  0  0  0  0  0  0  0  0  0
  183.5760   22.4620   49.2930 C   0  0  0  0  0  0  0  0  0  0  0  0
  182.3460   21.8780   48.9870 C   0  0  0  0  0  0  0  0  0  0  0  0
  181.8880   21.8340   47.6660 C   0  0  0  0  0  0  0  0  0  0  0  0
  180.5890   21.1970   47.3580 C   0  0  0  0  0  0  0  0  0  0  0  0
  179.5020   21.9770   47.7400 O   0  0  0  0  0  0  0  0  0  0  0  0
  178.2350   21.5050   47.5120 C   0  0  0  0  0  0  0  0  0  0  0  0
  177.1750   22.3130   47.9250 C   0  0  0  0  0  0  0  0  0  0  0  0
  175.8590   21.8930   47.7220 C   0  0  0  0  0  0  0  0  0  0  0  0
  175.6030   20.6660   47.1050 C   0  0  0  0  0  0  0  0  0  0  0  0
  176.6630   19.8630   46.6940 C   0  0  0  0  0  0  0  0  0  0  0  0
  176.3420   18.6740   46.0970 O   0  0  0  0  0  0  0  0  0  0  0  0
  177.9800   20.2840   46.8980 C   0  0  0  0  0  0  0  0  0  0  0  0
  179.1230   19.4690   46.4820 C   0  0  0  0  0  0  0  0  0  0  0  0
  178.9790   18.3810   45.9270 O   0  0  0  0  0  0  0  0  0  0  0  0
  180.4780   20.0010   46.7520 C   0  0  0  0  0  0  0  0  0  0  0  0
  181.5500   19.2290   46.3410 O   0  0  0  0  0  0  0  0  0  0  0  0
  182.7010   22.3730   46.6560 C   0  0  0  0  0  0  0  0  0  0  0  0
  183.9480   22.9600   46.9400 C   0  0  0  0  0  0  0  0  0  0  0  0
  184.7470   23.5360   45.9380 N   0  0  0  0  0  0  0  0  0  0  0  0
  184.2490   24.8630   45.5220 C   0  0  0  0  0  0  0  0  0  0  0  0
  184.6540   24.9690   44.0570 C   0  0  0  0  0  0  0  0  0  0  0  0
  184.4800   23.5420   43.5700 C   0  0  0  0  0  0  0  0  0  0  0  0
  185.0160   22.7220   44.7400 C   0  0  0  0  0  0  0  0  0  0  0  0
  185.7979   23.6729   49.7390 H   0  0  0  0  0  0  0  0  0  0  0  0
  186.5223   23.0222   48.2295 H   0  0  0  0  0  0  0  0  0  0  0  0
  185.7536   24.6457   48.2295 H   0  0  0  0  0  0  0  0  0  0  0  0
  183.9164   22.4987   50.3384 H   0  0  0  0  0  0  0  0  0  0  0  0
  181.7312   21.4485   49.7917 H   0  0  0  0  0  0  0  0  0  0  0  0
  177.3759   23.2797   48.4099 H   0  0  0  0  0  0  0  0  0  0  0  0
  175.0228   22.5289   48.0482 H   0  0  0  0  0  0  0  0  0  0  0  0
  174.5662   20.3353   46.9444 H   0  0  0  0  0  0  0  0  0  0  0  0
  176.5050   18.5510   45.1820 H   0  0  0  0  0  0  0  0  0  0  0  0
  181.4200   18.3270   46.1220 H   0  0  0  0  0  0  0  0  0  0  0  0
  182.3533   22.3353   45.6131 H   0  0  0  0  0  0  0  0  0  0  0  0
  183.1559   24.9214   45.6302 H   0  0  0  0  0  0  0  0  0  0  0  0
  184.6602   25.6793   46.1340 H   0  0  0  0  0  0  0  0  0  0  0  0
  183.9951   25.6597   43.5104 H   0  0  0  0  0  0  0  0  0  0  0  0
  185.6694   25.3648   43.9080 H   0  0  0  0  0  0  0  0  0  0  0  0
  183.4210   23.3145   43.3781 H   0  0  0  0  0  0  0  0  0  0  0  0
  184.9966   23.3382   42.6205 H   0  0  0  0  0  0  0  0  0  0  0  0
  184.4941   21.7559   44.8050 H   0  0  0  0  0  0  0  0  0  0  0  0
  186.0869   22.4972   44.6279 H   0  0  0  0  0  0  0  0  0  0  0  0
  1  2  1  0
  2  3  2  0
  3  4  1  0
  4  5  2  0
  5  6  1  0
  6  7  1  0
  7  8  1  0
  8  9  2  0
  9 10  1  0
 10 11  2  0
 11 12  1  0
 12 13  1  0
 12 14  2  0
 14 15  1  0
 15 16  2  0
 15 17  1  0
 17 18  1  0
  5 19  1  0
 19 20  2  0
 20 21  1  0
 21 22  1  0
 22 23  1  0
 23 24  1  0
 24 25  1  0
 20  2  1  0
 25 21  1  0
 17  6  2  0
 14  8  1  0
  1 26  1  0
  1 27  1  0
  1 28  1  0
  3 29  1  0
  4 30  1  0
  9 31  1  0
 10 32  1  0
 11 33  1  0
 13 34  1  0
 18 35  1  0
 19 36  1  0
 22 37  1  0
 22 38  1  0
 23 39  1  0
 23 40  1  0
 24 41  1  0
 24 42  1  0
 25 43  1  0
 25 44  1  0
M  END
>  <meeko>  (4) 
{"is_sidechain": [false], "free_energy": -7.12, "intermolecular_energy": -8.434, "internal_energy": -0.694}

$$$$
cand_018_out
     RDKit          3D

 44 47  0  0  0  0  0  0  0  0999 V2000
  185.1280   23.4010   48.6560 C   0  0  0  0  0  0  0  0  0  0  0  0
  183.6790   23.0480   48.8590 C   0  0  0  0  0  0  0  0  0  0  0  0
  183.2670   21.7150   48.7010 C   0  0  0  0  0  0  0  0  0  0  0  0
  181.9320   21.3570   48.8860 C   0  0  0  0  0  0  0  0  0  0  0  0
  180.9800   22.3160   49.2470 C   0  0  0  0  0  0  0  0  0  0  0  0
  179.5660   21.9210   49.4230 C   0  0  0  0  0  0  0  0  0  0  0  0
  178.9140   21.7010   48.2140 O   0  0  0  0  0  0  0  0  0  0  0  0
  177.5940   21.3280   48.2320 C   0  0  0  0  0  0  0  0  0  0  0  0
  176.9750   21.1340   46.9960 C   0  0  0  0  0  0  0  0  0  0  0  0
  175.6330   20.7510   46.9420 C   0  0  0  0  0  0  0  0  0  0  0  0
  174.9110   20.5630   48.1230 C   0  0  0  0  0  0  0  0  0  0  0  0
  175.5310   20.7570   49.3540 C   0  0  0  0  0  0  0  0  0  0  0  0
  174.7670   20.5550   50.4700 O   0  0  0  0  0  0  0  0  0  0  0  0
  176.8750   21.1410   49.4070 C   0  0  0  0  0  0  0  0  0  0  0  0
  177.5650   21.3570   50.6800 C   0  0  0  0  0  0  0  0  0  0  0  0
  176.9990   21.2040   51.7610 O   0  0  0  0  0  0  0  0  0  0  0  0
  178.9860   21.7700   50.6270 C   0  0  0  0  0  0  0  0  0  0  0  0
  179.6310   21.9570   51.8360 O   0  0  0  0  0  0  0  0  0  0  0  0
  181.3970   23.6480   49.3990 C   0  0  0  0  0  0  0  0  0  0  0  0
  182.7370   24.0340   49.2110 C   0  0  0  0  0  0  0  0  0  0  0  0
  183.1660   25.3590   49.4020 N   0  0  0  0  0  0  0  0  0  0  0  0
  182.9260   25.8300   50.7810 C   0  0  0  0  0  0  0  0  0  0  0  0
  182.6910   27.3270   50.6270 C   0  0  0  0  0  0  0  0  0  0  0  0
  181.9420   27.4020   49.3090 C   0  0  0  0  0  0  0  0  0  0  0  0
  182.6700   26.3710   48.4520 C   0  0  0  0  0  0  0  0  0  0  0  0
  185.6169   23.5201   49.6342 H   0  0  0  0  0  0  0  0  0  0  0  0
  185.6256   22.5978   48.0927 H   0  0  0  0  0  0  0  0  0  0  0  0
  185.2005   24.3431   48.0927 H   0  0  0  0  0  0  0  0  0  0  0  0
  184.0045   20.9456   48.4286 H   0  0  0  0  0  0  0  0  0  0  0  0
  181.6246   20.3101   48.7466 H   0  0  0  0  0  0  0  0  0  0  0  0
  177.5433   21.2825   46.0660 H   0  0  0  0  0  0  0  0  0  0  0  0
  175.1441   20.5973   45.9687 H   0  0  0  0  0  0  0  0  0  0  0  0
  173.8538   20.2620   48.0802 H   0  0  0  0  0  0  0  0  0  0  0  0
  174.2000   21.2350   50.7780 H   0  0  0  0  0  0  0  0  0  0  0  0
  180.5610   22.0600   51.8600 H   0  0  0  0  0  0  0  0  0  0  0  0
  180.6546   24.4120   49.6730 H   0  0  0  0  0  0  0  0  0  0  0  0
  182.0419   25.3384   51.2132 H   0  0  0  0  0  0  0  0  0  0  0  0
  183.7633   25.6015   51.4568 H   0  0  0  0  0  0  0  0  0  0  0  0
  182.0828   27.7221   51.4540 H   0  0  0  0  0  0  0  0  0  0  0  0
  183.6158   27.9223   50.6430 H   0  0  0  0  0  0  0  0  0  0  0  0
  180.8831   27.1339   49.4385 H   0  0  0  0  0  0  0  0  0  0  0  0
  181.9337   28.4096   48.8678 H   0  0  0  0  0  0  0  0  0  0  0  0
  181.9792   25.9144   47.7279 H   0  0  0  0  0  0  0  0  0  0  0  0
  183.4865   26.8233   47.8699 H   0  0  0  0  0  0  0  0  0  0  0  0
  1  2  1  0
  2  3  2  0
  3  4  1  0
  4  5  2  0
  5  6  1  0
  6  7  1  0
  7  8  1  0
  8  9  2  0
  9 10  1  0
 10 11  2  0
 11 12  1  0
 12 13  1  0
 12 14  2  0
 14 15  1  0
 15 16  2  0
 15 17  1  0
 17 18  1  0
  5 19  1  0
 19 20  2  0
 20 21  1  0
 21 22  1  0
 22 23  1  0
 23 24  1  0
 24 25  1  0
 20  2  1  0
 25 21  1  0
 17  6  2  0
 14  8  1  0
  1 26  1  0
  1 27  1  0
  1 28  1  0
  3 29  1  0
  4 30  1  0
  9 31  1  0
 10 32  1  0
 11 33  1  0
 13 34  1  0
 18 35  1  0
 19 36  1  0
 22 37  1  0
 22 38  1  0
 23 39  1  0
 23 40  1  0
 24 41  1  0
 24 42  1  0
 25 43  1  0
 25 44  1  0
M  END
>  <meeko>  (5) 
{"is_sidechain": [false], "free_energy": -7.099, "intermolecular_energy": -8.348, "internal_energy": -0.754}

$$$$
cand_018_out
     RDKit          3D

 44 47  0  0  0  0  0  0  0  0999 V2000
  176.4480   18.9040   46.3060 C   0  0  0  0  0  0  0  0  0  0  0  0
  176.3280   19.9200   47.4100 C   0  0  0  0  0  0  0  0  0  0  0  0
  175.2130   19.8820   48.2610 C   0  0  0  0  0  0  0  0  0  0  0  0
  175.0740   20.8080   49.2960 C   0  0  0  0  0  0  0  0  0  0  0  0
  176.0530   21.7840   49.5130 C   0  0  0  0  0  0  0  0  0  0  0  0
  175.8820   22.7680   50.6030 C   0  0  0  0  0  0  0  0  0  0  0  0
  175.2790   23.9470   50.1760 O   0  0  0  0  0  0  0  0  0  0  0  0
  175.0610   24.9480   51.0880 C   0  0  0  0  0  0  0  0  0  0  0  0
  174.4680   26.1180   50.6130 C   0  0  0  0  0  0  0  0  0  0  0  0
  174.2160   27.1760   51.4890 C   0  0  0  0  0  0  0  0  0  0  0  0
  174.5540   27.0630   52.8390 C   0  0  0  0  0  0  0  0  0  0  0  0
  175.1440   25.8930   53.3100 C   0  0  0  0  0  0  0  0  0  0  0  0
  175.4500   25.8490   54.6430 O   0  0  0  0  0  0  0  0  0  0  0  0
  175.3970   24.8350   52.4320 C   0  0  0  0  0  0  0  0  0  0  0  0
  176.0170   23.5890   52.8860 C   0  0  0  0  0  0  0  0  0  0  0  0
  176.3370   23.4110   54.0600 O   0  0  0  0  0  0  0  0  0  0  0  0
  176.2500   22.5320   51.8750 C   0  0  0  0  0  0  0  0  0  0  0  0
  176.8240   21.3540   52.3190 O   0  0  0  0  0  0  0  0  0  0  0  0
  177.1640   21.8210   48.6560 C   0  0  0  0  0  0  0  0  0  0  0  0
  177.3210   20.9010   47.6020 C   0  0  0  0  0  0  0  0  0  0  0  0
  178.4510   20.9090   46.7660 N   0  0  0  0  0  0  0  0  0  0  0  0
  179.2620   19.6830   46.9150 C   0  0  0  0  0  0  0  0  0  0  0  0
  180.6860   20.1430   46.6270 C   0  0  0  0  0  0  0  0  0  0  0  0
  180.7030   21.5360   47.2300 C   0  0  0  0  0  0  0  0  0  0  0  0
  179.3350   22.0860   46.8390 C   0  0  0  0  0  0  0  0  0  0  0  0
  176.5665   17.9011   46.7420 H   0  0  0  0  0  0  0  0  0  0  0  0
  175.5407   18.9289   45.6846 H   0  0  0  0  0  0  0  0  0  0  0  0
  177.3246   19.1396   45.6846 H   0  0  0  0  0  0  0  0  0  0  0  0
  174.4400   19.1140   48.1108 H   0  0  0  0  0  0  0  0  0  0  0  0
  174.1877   20.7703   49.9464 H   0  0  0  0  0  0  0  0  0  0  0  0
  174.1993   26.2070   49.5500 H   0  0  0  0  0  0  0  0  0  0  0  0
  173.7505   28.0998   51.1149 H   0  0  0  0  0  0  0  0  0  0  0  0
  174.3547   27.8963   53.5288 H   0  0  0  0  0  0  0  0  0  0  0  0
  174.7780   25.6700   55.2720 H   0  0  0  0  0  0  0  0  0  0  0  0
  176.6790   20.5570   51.8500 H   0  0  0  0  0  0  0  0  0  0  0  0
  177.9340   22.5908   48.8124 H   0  0  0  0  0  0  0  0  0  0  0  0
  179.1800   19.2821   47.9360 H   0  0  0  0  0  0  0  0  0  0  0  0
  178.9348   18.8757   46.2432 H   0  0  0  0  0  0  0  0  0  0  0  0
  181.4228   19.4883   47.1154 H   0  0  0  0  0  0  0  0  0  0  0  0
  180.9487   20.1216   45.5590 H   0  0  0  0  0  0  0  0  0  0  0  0
  180.8161   21.4938   48.3234 H   0  0  0  0  0  0  0  0  0  0  0  0
  181.5404   22.1552   46.8760 H   0  0  0  0  0  0  0  0  0  0  0  0
  178.9725   22.7940   47.5988 H   0  0  0  0  0  0  0  0  0  0  0  0
  179.3696   22.6336   45.8856 H   0  0  0  0  0  0  0  0  0  0  0  0
  1  2  1  0
  2  3  2  0
  3  4  1  0
  4  5  2  0
  5  6  1  0
  6  7  1  0
  7  8  1  0
  8  9  2  0
  9 10  1  0
 10 11  2  0
 11 12  1  0
 12 13  1  0
 12 14  2  0
 14 15  1  0
 15 16  2  0
 15 17  1  0
 17 18  1  0
  5 19  1  0
 19 20  2  0
 20 21  1  0
 21 22  1  0
 22 23  1  0
 23 24  1  0
 24 25  1  0
 20  2  1  0
 25 21  1  0
 17  6  2  0
 14  8  1  0
  1 26  1  0
  1 27  1  0
  1 28  1  0
  3 29  1  0
  4 30  1  0
  9 31  1  0
 10 32  1  0
 11 33  1  0
 13 34  1  0
 18 35  1  0
 19 36  1  0
 22 37  1  0
 22 38  1  0
 23 39  1  0
 23 40  1  0
 24 41  1  0
 24 42  1  0
 25 43  1  0
 25 44  1  0
M  END
>  <meeko>  (6) 
{"is_sidechain": [false], "free_energy": -7.045, "intermolecular_energy": -8.858, "internal_energy": -0.181}

$$$$
cand_018_out
     RDKit          3D

 44 47  0  0  0  0  0  0  0  0999 V2000
  177.1250   20.3740   45.8170 C   0  0  0  0  0  0  0  0  0  0  0  0
  176.4300   21.0080   46.9920 C   0  0  0  0  0  0  0  0  0  0  0  0
  175.1660   20.5380   47.3790 C   0  0  0  0  0  0  0  0  0  0  0  0
  174.4980   21.1040   48.4660 C   0  0  0  0  0  0  0  0  0  0  0  0
  175.0830   22.1410   49.2000 C   0  0  0  0  0  0  0  0  0  0  0  0
  174.3540   22.7400   50.3380 C   0  0  0  0  0  0  0  0  0  0  0  0
  175.1780   23.0000   51.4290 O   0  0  0  0  0  0  0  0  0  0  0  0
  174.6290   23.5560   52.5560 C   0  0  0  0  0  0  0  0  0  0  0  0
  175.4890   23.7850   53.6310 C   0  0  0  0  0  0  0  0  0  0  0  0
  174.9960   24.3510   54.8080 C   0  0  0  0  0  0  0  0  0  0  0  0
  173.6450   24.6890   54.9100 C   0  0  0  0  0  0  0  0  0  0  0  0
  172.7900   24.4600   53.8360 C   0  0  0  0  0  0  0  0  0  0  0  0
  171.4790   24.8150   54.0020 O   0  0  0  0  0  0  0  0  0  0  0  0
  173.2840   23.8930   52.6570 C   0  0  0  0  0  0  0  0  0  0  0  0
  172.4190   23.6340   51.5050 C   0  0  0  0  0  0  0  0  0  0  0  0
  171.2210   23.9110   51.5150 O   0  0  0  0  0  0  0  0  0  0  0  0
  173.0390   23.0220   50.3070 C   0  0  0  0  0  0  0  0  0  0  0  0
  172.2150   22.7960   49.2200 O   0  0  0  0  0  0  0  0  0  0  0  0
  176.3460   22.6110   48.8060 C   0  0  0  0  0  0  0  0  0  0  0  0
  177.0350   22.0600   47.7090 C   0  0  0  0  0  0  0  0  0  0  0  0
  178.3170   22.5000   47.3350 N   0  0  0  0  0  0  0  0  0  0  0  0
  179.3820   21.8390   48.1160 C   0  0  0  0  0  0  0  0  0  0  0  0
  180.4910   22.8810   48.1870 C   0  0  0  0  0  0  0  0  0  0  0  0
  179.7090   24.1770   48.2980 C   0  0  0  0  0  0  0  0  0  0  0  0
  178.5540   23.9540   47.3270 C   0  0  0  0  0  0  0  0  0  0  0  0
  177.8924   19.6740   46.1790 H   0  0  0  0  0  0  0  0  0  0  0  0
  176.3900   19.8288   45.2067 H   0  0  0  0  0  0  0  0  0  0  0  0
  177.6005   21.1559   45.2067 H   0  0  0  0  0  0  0  0  0  0  0  0
  174.6966   19.7150   46.8201 H   0  0  0  0  0  0  0  0  0  0  0  0
  173.5023   20.7311   48.7480 H   0  0  0  0  0  0  0  0  0  0  0  0
  176.5536   23.5199   53.5510 H   0  0  0  0  0  0  0  0  0  0  0  0
  175.6727   24.5310   55.6563 H   0  0  0  0  0  0  0  0  0  0  0  0
  173.2572   25.1354   55.8375 H   0  0  0  0  0  0  0  0  0  0  0  0
  171.0090   25.2140   53.2970 H   0  0  0  0  0  0  0  0  0  0  0  0
  171.9560   23.5100   48.6710 H   0  0  0  0  0  0  0  0  0  0  0  0
  176.8103   23.4331   49.3705 H   0  0  0  0  0  0  0  0  0  0  0  0
  179.0242   21.5801   49.1235 H   0  0  0  0  0  0  0  0  0  0  0  0
  179.7171   20.8959   47.6597 H   0  0  0  0  0  0  0  0  0  0  0  0
  181.1295   22.7240   49.0689 H   0  0  0  0  0  0  0  0  0  0  0  0
  181.1781   22.8528   47.3284 H   0  0  0  0  0  0  0  0  0  0  0  0
  179.3414   24.3323   49.3231 H   0  0  0  0  0  0  0  0  0  0  0  0
  180.3081   25.0702   48.0670 H   0  0  0  0  0  0  0  0  0  0  0  0
  177.6566   24.4929   47.6650 H   0  0  0  0  0  0  0  0  0  0  0  0
  178.7872   24.3267   46.3187 H   0  0  0  0  0  0  0  0  0  0  0  0
  1  2  1  0
  2  3  2  0
  3  4  1  0
  4  5  2  0
  5  6  1  0
  6  7  1  0
  7  8  1  0
  8  9  2  0
  9 10  1  0
 10 11  2  0
 11 12  1  0
 12 13  1  0
 12 14  2  0
 14 15  1  0
 15 16  2  0
 15 17  1  0
 17 18  1  0
  5 19  1  0
 19 20  2  0
 20 21  1  0
 21 22  1  0
 22 23  1  0
 23 24  1  0
 24 25  1  0
 20  2  1  0
 25 21  1  0
 17  6  2  0
 14  8  1  0
  1 26  1  0
  1 27  1  0
  1 28  1  0
  3 29  1  0
  4 30  1  0
  9 31  1  0
 10 32  1  0
 11 33  1  0
 13 34  1  0
 18 35  1  0
 19 36  1  0
 22 37  1  0
 22 38  1  0
 23 39  1  0
 23 40  1  0
 24 41  1  0
 24 42  1  0
 25 43  1  0
 25 44  1  0
M  END
>  <meeko>  (7) 
{"is_sidechain": [false], "free_energy": -7.024, "intermolecular_energy": -8.688, "internal_energy": -0.326}

$$$$
cand_018_out
     RDKit          3D

 44 47  0  0  0  0  0  0  0  0999 V2000
  174.7710   25.0890   54.3820 C   0  0  0  0  0  0  0  0  0  0  0  0
  175.1900   24.2450   53.2080 C   0  0  0  0  0  0  0  0  0  0  0  0
  176.2800   23.3710   53.3440 C   0  0  0  0  0  0  0  0  0  0  0  0
  176.6900   22.5740   52.2750 C   0  0  0  0  0  0  0  0  0  0  0  0
  176.0140   22.6200   51.0520 C   0  0  0  0  0  0  0  0  0  0  0  0
  176.4730   21.7800   49.9250 C   0  0  0  0  0  0  0  0  0  0  0  0
  177.6290   22.2670   49.3250 O   0  0  0  0  0  0  0  0  0  0  0  0
  178.1640   21.5830   48.2630 C   0  0  0  0  0  0  0  0  0  0  0  0
  179.3160   22.1170   47.6820 C   0  0  0  0  0  0  0  0  0  0  0  0
  179.9130   21.4690   46.6000 C   0  0  0  0  0  0  0  0  0  0  0  0
  179.3610   20.2880   46.0990 C   0  0  0  0  0  0  0  0  0  0  0  0
  178.2140   19.7580   46.6810 C   0  0  0  0  0  0  0  0  0  0  0  0
  177.7260   18.5990   46.1420 O   0  0  0  0  0  0  0  0  0  0  0  0
  177.6150   20.4070   47.7650 C   0  0  0  0  0  0  0  0  0  0  0  0
  176.4070   19.8840   48.4050 C   0  0  0  0  0  0  0  0  0  0  0  0
  175.8670   18.8470   48.0270 O   0  0  0  0  0  0  0  0  0  0  0  0
  175.8470   20.6520   49.5410 C   0  0  0  0  0  0  0  0  0  0  0  0
  174.7140   20.1400   50.1470 O   0  0  0  0  0  0  0  0  0  0  0  0
  174.9270   23.4980   50.9200 C   0  0  0  0  0  0  0  0  0  0  0  0
  174.4990   24.3170   51.9820 C   0  0  0  0  0  0  0  0  0  0  0  0
  173.3870   25.1690   51.8670 N   0  0  0  0  0  0  0  0  0  0  0  0
  172.1270   24.4190   51.6890 C   0  0  0  0  0  0  0  0  0  0  0  0
  171.2580   25.3470   50.8500 C   0  0  0  0  0  0  0  0  0  0  0  0
  172.2750   25.9950   49.9280 C   0  0  0  0  0  0  0  0  0  0  0  0
  173.4600   26.2400   50.8580 C   0  0  0  0  0  0  0  0  0  0  0  0
  175.0286   24.5701   55.3171 H   0  0  0  0  0  0  0  0  0  0  0  0
  175.2936   26.0562   54.3434 H   0  0  0  0  0  0  0  0  0  0  0  0
  173.6847   25.2574   54.3434 H   0  0  0  0  0  0  0  0  0  0  0  0
  176.8161   23.3140   54.3028 H   0  0  0  0  0  0  0  0  0  0  0  0
  177.5533   21.9030   52.3954 H   0  0  0  0  0  0  0  0  0  0  0  0
  179.7520   23.0467   48.0765 H   0  0  0  0  0  0  0  0  0  0  0  0
  180.8200   21.8891   46.1408 H   0  0  0  0  0  0  0  0  0  0  0  0
  179.8322   19.7779   45.2459 H   0  0  0  0  0  0  0  0  0  0  0  0
  178.2510   18.1020   45.5460 H   0  0  0  0  0  0  0  0  0  0  0  0
  174.2940   19.3820   49.7910 H   0  0  0  0  0  0  0  0  0  0  0  0
  174.3941   23.5476   49.9590 H   0  0  0  0  0  0  0  0  0  0  0  0
  172.3081   23.4708   51.1617 H   0  0  0  0  0  0  0  0  0  0  0  0
  171.6564   24.1507   52.6464 H   0  0  0  0  0  0  0  0  0  0  0  0
  170.5063   24.7816   50.2796 H   0  0  0  0  0  0  0  0  0  0  0  0
  170.6805   26.0688   51.4462 H   0  0  0  0  0  0  0  0  0  0  0  0
  172.5501   25.3205   49.1038 H   0  0  0  0  0  0  0  0  0  0  0  0
  171.9043   26.9095   49.4420 H   0  0  0  0  0  0  0  0  0  0  0  0
  174.4065   26.1809   50.3006 H   0  0  0  0  0  0  0  0  0  0  0  0
  173.4235   27.2395   51.3159 H   0  0  0  0  0  0  0  0  0  0  0  0
  1  2  1  0
  2  3  2  0
  3  4  1  0
  4  5  2  0
  5  6  1  0
  6  7  1  0
  7  8  1  0
  8  9  2  0
  9 10  1  0
 10 11  2  0
 11 12  1  0
 12 13  1  0
 12 14  2  0
 14 15  1  0
 15 16  2  0
 15 17  1  0
 17 18  1  0
  5 19  1  0
 19 20  2  0
 20 21  1  0
 21 22  1  0
 22 23  1  0
 23 24  1  0
 24 25  1  0
 20  2  1  0
 25 21  1  0
 17  6  2  0
 14  8  1  0
  1 26  1  0
  1 27  1  0
  1 28  1  0
  3 29  1  0
  4 30  1  0
  9 31  1  0
 10 32  1  0
 11 33  1  0
 13 34  1  0
 18 35  1  0
 19 36  1  0
 22 37  1  0
 22 38  1  0
 23 39  1  0
 23 40  1  0
 24 41  1  0
 24 42  1  0
 25 43  1  0
 25 44  1  0
M  END
>  <meeko>  (8) 
{"is_sidechain": [false], "free_energy": -6.843, "intermolecular_energy": -8.05, "internal_energy": -0.752}

$$$$
cand_018_out
     RDKit          3D

 44 47  0  0  0  0  0  0  0  0999 V2000
  174.5050   23.3650   49.3520 C   0  0  0  0  0  0  0  0  0  0  0  0
  176.0060   23.2470   49.3660 C   0  0  0  0  0  0  0  0  0  0  0  0
  176.7640   24.1960   50.0700 C   0  0  0  0  0  0  0  0  0  0  0  0
  178.1560   24.1110   50.1040 C   0  0  0  0  0  0  0  0  0  0  0  0
  178.8220   23.0700   49.4490 C   0  0  0  0  0  0  0  0  0  0  0  0
  180.2990   23.0050   49.4820 C   0  0  0  0  0  0  0  0  0  0  0  0
  180.8830   23.3920   48.2800 O   0  0  0  0  0  0  0  0  0  0  0  0
  182.2500   23.3790   48.1720 C   0  0  0  0  0  0  0  0  0  0  0  0
  182.7920   23.7590   46.9430 C   0  0  0  0  0  0  0  0  0  0  0  0
  184.1760   23.7700   46.7670 C   0  0  0  0  0  0  0  0  0  0  0  0
  185.0190   23.4020   47.8180 C   0  0  0  0  0  0  0  0  0  0  0  0
  184.4760   23.0240   49.0420 C   0  0  0  0  0  0  0  0  0  0  0  0
  185.3580   22.6750   50.0290 O   0  0  0  0  0  0  0  0  0  0  0  0
  183.0890   23.0120   49.2180 C   0  0  0  0  0  0  0  0  0  0  0  0
  182.4770   22.6200   50.4890 C   0  0  0  0  0  0  0  0  0  0  0  0
  183.1520   22.2900   51.4620 O   0  0  0  0  0  0  0  0  0  0  0  0
  180.9980   22.6340   50.5700 C   0  0  0  0  0  0  0  0  0  0  0  0
  180.4320   22.2750   51.7800 O   0  0  0  0  0  0  0  0  0  0  0  0
  178.0600   22.1260   48.7430 C   0  0  0  0  0  0  0  0  0  0  0  0
  176.6550   22.1950   48.6890 C   0  0  0  0  0  0  0  0  0  0  0  0
  175.8850   21.2300   48.0170 N   0  0  0  0  0  0  0  0  0  0  0  0
  175.7760   19.9730   48.7830 C   0  0  0  0  0  0  0  0  0  0  0  0
  175.6530   18.8950   47.7130 C   0  0  0  0  0  0  0  0  0  0  0  0
  176.5620   19.4230   46.6180 C   0  0  0  0  0  0  0  0  0  0  0  0
  176.2600   20.9190   46.6260 C   0  0  0  0  0  0  0  0  0  0  0  0
  174.1299   23.3945   50.3856 H   0  0  0  0  0  0  0  0  0  0  0  0
  174.2147   24.2887   48.8301 H   0  0  0  0  0  0  0  0  0  0  0  0
  174.0739   22.4980   48.8301 H   0  0  0  0  0  0  0  0  0  0  0  0
  176.2553   25.0147   50.6000 H   0  0  0  0  0  0  0  0  0  0  0  0
  178.7351   24.8696   50.6509 H   0  0  0  0  0  0  0  0  0  0  0  0
  182.1290   24.0493   46.1147 H   0  0  0  0  0  0  0  0  0  0  0  0
  184.6040   24.0690   45.7988 H   0  0  0  0  0  0  0  0  0  0  0  0
  186.1101   23.4110   47.6784 H   0  0  0  0  0  0  0  0  0  0  0  0
  186.0020   22.0150   49.8690 H   0  0  0  0  0  0  0  0  0  0  0  0
  180.5650   22.8110   52.5370 H   0  0  0  0  0  0  0  0  0  0  0  0
  178.5754   21.3090   48.2169 H   0  0  0  0  0  0  0  0  0  0  0  0
  176.6734   19.8117   49.3984 H   0  0  0  0  0  0  0  0  0  0  0  0
  174.9246   19.9756   49.4795 H   0  0  0  0  0  0  0  0  0  0  0  0
  176.0027   17.9211   48.0863 H   0  0  0  0  0  0  0  0  0  0  0  0
  174.6191   18.7189   47.3812 H   0  0  0  0  0  0  0  0  0  0  0  0
  177.6193   19.2302   46.8525 H   0  0  0  0  0  0  0  0  0  0  0  0
  176.3910   18.9477   45.6408 H   0  0  0  0  0  0  0  0  0  0  0  0
  177.1495   21.4937   46.3286 H   0  0  0  0  0  0  0  0  0  0  0  0
  175.4613   21.1810   45.9165 H   0  0  0  0  0  0  0  0  0  0  0  0
  1  2  1  0
  2  3  2  0
  3  4  1  0
  4  5  2  0
  5  6  1  0
  6  7  1  0
  7  8  1  0
  8  9  2  0
  9 10  1  0
 10 11  2  0
 11 12  1  0
 12 13  1  0
 12 14  2  0
 14 15  1  0
 15 16  2  0
 15 17  1  0
 17 18  1  0
  5 19  1  0
 19 20  2  0
 20 21  1  0
 21 22  1  0
 22 23  1  0
 23 24  1  0
 24 25  1  0
 20  2  1  0
 25 21  1  0
 17  6  2  0
 14  8  1  0
  1 26  1  0
  1 27  1  0
  1 28  1  0
  3 29  1  0
  4 30  1  0
  9 31  1  0
 10 32  1  0
 11 33  1  0
 13 34  1  0
 18 35  1  0
 19 36  1  0
 22 37  1  0
 22 38  1  0
 23 39  1  0
 23 40  1  0
 24 41  1  0
 24 42  1  0
 25 43  1  0
 25 44  1  0
M  END
>  <meeko>  (9) 
{"is_sidechain": [false], "free_energy": -6.835, "intermolecular_energy": -8.091, "internal_energy": -0.701}

$$$$
