cand_047_out
     RDKit          3D

 38 40  0  0  0  0  0  0  0  0999 V2000
  179.9370   14.1610   44.7970 C   0  0  0  0  0  0  0  0  0  0  0  0
  180.3420   15.5980   44.6130 C   0  0  0  0  0  0  0  0  0  0  0  0
  179.7510   16.5780   45.4350 C   0  0  0  0  0  0  0  0  0  0  0  0
  180.0790   17.9360   45.3130 C   0  0  0  0  0  0  0  0  0  0  0  0
  179.4430   18.9680   46.1600 C   0  0  0  0  0  0  0  0  0  0  0  0
  178.0550   18.9000   46.1450 O   0  0  0  0  0  0  0  0  0  0  0  0
  177.3390   19.8010   46.8910 C   0  0  0  0  0  0  0  0  0  0  0  0
  175.9490   19.6870   46.8590 C   0  0  0  0  0  0  0  0  0  0  0  0
  175.1590   20.5740   47.5950 C   0  0  0  0  0  0  0  0  0  0  0  0
  175.7600   21.5750   48.3600 C   0  0  0  0  0  0  0  0  0  0  0  0
  177.1480   21.6880   48.3900 C   0  0  0  0  0  0  0  0  0  0  0  0
  177.6700   22.6910   49.1580 O   0  0  0  0  0  0  0  0  0  0  0  0
  177.9370   20.7990   47.6540 C   0  0  0  0  0  0  0  0  0  0  0  0
  179.3980   20.8830   47.6580 C   0  0  0  0  0  0  0  0  0  0  0  0
  180.0000   21.7410   48.3000 O   0  0  0  0  0  0  0  0  0  0  0  0
  180.1430   19.8880   46.8510 C   0  0  0  0  0  0  0  0  0  0  0  0
  181.5230   19.9830   46.8510 O   0  0  0  0  0  0  0  0  0  0  0  0
  181.0020   18.3130   44.3330 C   0  0  0  0  0  0  0  0  0  0  0  0
  181.5930   17.3540   43.5060 C   0  0  0  0  0  0  0  0  0  0  0  0
  181.2700   15.9930   43.6310 C   0  0  0  0  0  0  0  0  0  0  0  0
  181.9610   15.0040   42.7210 C   0  0  0  0  0  0  0  0  0  0  0  0
  181.4500   15.0840   41.2920 C   0  0  0  0  0  0  0  0  0  0  0  0
  180.1020   15.2760   41.3220 F   0  0  0  0  0  0  0  0  0  0  0  0
  179.8727   13.9328   45.8712 H   0  0  0  0  0  0  0  0  0  0  0  0
  178.9566   13.9933   44.3272 H   0  0  0  0  0  0  0  0  0  0  0  0
  180.6855   13.5060   44.3272 H   0  0  0  0  0  0  0  0  0  0  0  0
  179.0140   16.2702   46.1913 H   0  0  0  0  0  0  0  0  0  0  0  0
  175.4752   18.8994   46.2548 H   0  0  0  0  0  0  0  0  0  0  0  0
  174.0630   20.4834   47.5715 H   0  0  0  0  0  0  0  0  0  0  0  0
  175.1381   22.2739   48.9386 H   0  0  0  0  0  0  0  0  0  0  0  0
  178.2660   22.4870   49.8530 H   0  0  0  0  0  0  0  0  0  0  0  0
  182.0350   19.3450   46.3960 H   0  0  0  0  0  0  0  0  0  0  0  0
  181.2654   19.3741   44.2118 H   0  0  0  0  0  0  0  0  0  0  0  0
  182.3223   17.6700   42.7455 H   0  0  0  0  0  0  0  0  0  0  0  0
  183.0406   15.2149   42.7234 H   0  0  0  0  0  0  0  0  0  0  0  0
  181.7496   13.9928   43.0989 H   0  0  0  0  0  0  0  0  0  0  0  0
  181.9325   15.9251   40.7726 H   0  0  0  0  0  0  0  0  0  0  0  0
  181.6847   14.1522   40.7566 H   0  0  0  0  0  0  0  0  0  0  0  0
  1  2  1  0
  2  3  2  0
  3  4  1  0
  4  5  1  0
  5  6  1  0
  6  7  1  0
  7  8  2  0
  8  9  1  0
  9 10  2  0
 10 11  1  0
 11 12  1  0
 11 13  2  0
 13 14  1  0
 14 15  2  0
 14 16  1  0
 16 17  1  0
  4 18  2  0
 18 19  1  0
 19 20  2  0
 20 21  1  0
 21 22  1  0
 22 23  1  0
 20  2  1  0
 16  5  2  0
 13  7  1  0
  1 24  1  0
  1 25  1  0
  1 26  1  0
  3 27  1  0
  8 28  1  0
  9 29  1  0
 10 30  1  0
 12 31  1  0
 17 32  1  0
 18 33  1  0
 19 34  1  0
 21 35  1  0
 21 36  1  0
 22 37  1  0
 22 38  1  0
M  END
>  <meeko>  (1) 
{"is_sidechain": [false], "free_energy": -7.979, "intermolecular_energy": -9.845, "internal_energy": -0.398}

$$$$
cand_047_out
     RDKit          3D

 38 40  0  0  0  0  0  0  0  0999 V2000
  179.7750   13.9850   44.7950 C   0  0  0  0  0  0  0  0  0  0  0  0
  180.2980   15.3540   44.4540 C   0  0  0  0  0  0  0  0  0  0  0  0
  180.0600   16.4120   45.3530 C   0  0  0  0  0  0  0  0  0  0  0  0
  180.5140   17.7130   45.0940 C   0  0  0  0  0  0  0  0  0  0  0  0
  180.2460   18.8300   46.0250 C   0  0  0  0  0  0  0  0  0  0  0  0
  181.4060   19.3730   46.5670 O   0  0  0  0  0  0  0  0  0  0  0  0
  181.3010   20.4180   47.4470 C   0  0  0  0  0  0  0  0  0  0  0  0
  182.4910   20.9420   47.9540 C   0  0  0  0  0  0  0  0  0  0  0  0
  182.4540   22.0080   48.8570 C   0  0  0  0  0  0  0  0  0  0  0  0
  181.2290   22.5470   49.2530 C   0  0  0  0  0  0  0  0  0  0  0  0
  180.0430   22.0220   48.7470 C   0  0  0  0  0  0  0  0  0  0  0  0
  178.8790   22.5970   49.1770 O   0  0  0  0  0  0  0  0  0  0  0  0
  180.0810   20.9570   47.8420 C   0  0  0  0  0  0  0  0  0  0  0  0
  178.8570   20.3760   47.2860 C   0  0  0  0  0  0  0  0  0  0  0  0
  177.7410   20.7910   47.5920 O   0  0  0  0  0  0  0  0  0  0  0  0
  179.0050   19.2550   46.3290 C   0  0  0  0  0  0  0  0  0  0  0  0
  177.8440   18.7040   45.8190 O   0  0  0  0  0  0  0  0  0  0  0  0
  181.2010   17.9530   43.9000 C   0  0  0  0  0  0  0  0  0  0  0  0
  181.4400   16.9160   42.9950 C   0  0  0  0  0  0  0  0  0  0  0  0
  180.9910   15.6110   43.2560 C   0  0  0  0  0  0  0  0  0  0  0  0
  181.3020   14.5290   42.2480 C   0  0  0  0  0  0  0  0  0  0  0  0
  181.0490   14.9850   40.8200 C   0  0  0  0  0  0  0  0  0  0  0  0
  179.7560   15.4000   40.7180 F   0  0  0  0  0  0  0  0  0  0  0  0
  179.7314   13.8710   45.8882 H   0  0  0  0  0  0  0  0  0  0  0  0
  178.7666   13.8621   44.3730 H   0  0  0  0  0  0  0  0  0  0  0  0
  180.4446   13.2211   44.3730 H   0  0  0  0  0  0  0  0  0  0  0  0
  179.5042   16.2126   46.2811 H   0  0  0  0  0  0  0  0  0  0  0  0
  183.4567   20.5166   47.6433 H   0  0  0  0  0  0  0  0  0  0  0  0
  183.3914   22.4227   49.2561 H   0  0  0  0  0  0  0  0  0  0  0  0
  181.2006   23.3857   49.9641 H   0  0  0  0  0  0  0  0  0  0  0  0
  178.0560   22.1990   48.9690 H   0  0  0  0  0  0  0  0  0  0  0  0
  177.7800   18.5100   44.9050 H   0  0  0  0  0  0  0  0  0  0  0  0
  181.5568   18.9684   43.6711 H   0  0  0  0  0  0  0  0  0  0  0  0
  181.9879   17.1246   42.0643 H   0  0  0  0  0  0  0  0  0  0  0  0
  182.3603   14.2459   42.3473 H   0  0  0  0  0  0  0  0  0  0  0  0
  180.6386   13.6758   42.4527 H   0  0  0  0  0  0  0  0  0  0  0  0
  181.7254   15.8160   40.5712 H   0  0  0  0  0  0  0  0  0  0  0  0
  181.2327   14.1544   40.1226 H   0  0  0  0  0  0  0  0  0  0  0  0
  1  2  1  0
  2  3  2  0
  3  4  1  0
  4  5  1  0
  5  6  1  0
  6  7  1  0
  7  8  2  0
  8  9  1  0
  9 10  2  0
 10 11  1  0
 11 12  1  0
 11 13  2  0
 13 14  1  0
 14 15  2  0
 14 16  1  0
 16 17  1  0
  4 18  2  0
 18 19  1  0
 19 20  2  0
 20 21  1  0
 21 22  1  0
 22 23  1  0
 20  2  1  0
 16  5  2  0
 13  7  1  0
  1 24  1  0
  1 25  1  0
  1 26  1  0
  3 27  1  0
  8 28  1  0
  9 29  1  0
 10 30  1  0
 12 31  1  0
 17 32  1  0
 18 33  1  0
 19 34  1  0
 21 35  1  0
 21 36  1  0
 22 37  1  0
 22 38  1  0
M  END
>  <meeko>  (2) 
{"is_sidechain": [false], "free_energy": -7.454, "intermolecular_energy": -9.183, "internal_energy": -0.411}

$$$$
cand_047_out
     RDKit          3D

 38 40  0  0  0  0  0  0  0  0999 V2000
  175.5710   18.8060   47.3890 C   0  0  0  0  0  0  0  0  0  0  0  0
  175.8450   20.2300   47.7900 C   0  0  0  0  0  0  0  0  0  0  0  0
  175.1360   20.7740   48.8780 C   0  0  0  0  0  0  0  0  0  0  0  0
  175.3380   22.0960   49.3010 C   0  0  0  0  0  0  0  0  0  0  0  0
  174.5790   22.6760   50.4300 C   0  0  0  0  0  0  0  0  0  0  0  0
  175.3810   22.9680   51.5270 O   0  0  0  0  0  0  0  0  0  0  0  0
  174.8030   23.5130   52.6440 C   0  0  0  0  0  0  0  0  0  0  0  0
  175.6470   23.8040   53.7170 C   0  0  0  0  0  0  0  0  0  0  0  0
  175.1220   24.3600   54.8860 C   0  0  0  0  0  0  0  0  0  0  0  0
  173.7540   24.6220   54.9830 C   0  0  0  0  0  0  0  0  0  0  0  0
  172.9130   24.3300   53.9120 C   0  0  0  0  0  0  0  0  0  0  0  0
  171.5850   24.6110   54.0740 O   0  0  0  0  0  0  0  0  0  0  0  0
  173.4400   23.7760   52.7420 C   0  0  0  0  0  0  0  0  0  0  0  0
  172.5910   23.4540   51.5930 C   0  0  0  0  0  0  0  0  0  0  0  0
  171.3780   23.6480   51.6050 O   0  0  0  0  0  0  0  0  0  0  0  0
  173.2480   22.8770   50.3970 C   0  0  0  0  0  0  0  0  0  0  0  0
  172.4360   22.5640   49.3220 O   0  0  0  0  0  0  0  0  0  0  0  0
  176.2550   22.8860   48.6010 C   0  0  0  0  0  0  0  0  0  0  0  0
  176.9620   22.3640   47.5140 C   0  0  0  0  0  0  0  0  0  0  0  0
  176.7650   21.0380   47.0940 C   0  0  0  0  0  0  0  0  0  0  0  0
  177.5770   20.5250   45.9280 C   0  0  0  0  0  0  0  0  0  0  0  0
  179.0660   20.4980   46.2330 C   0  0  0  0  0  0  0  0  0  0  0  0
  179.2680   19.7430   47.3480 F   0  0  0  0  0  0  0  0  0  0  0  0
  175.4520   18.1875   48.2909 H   0  0  0  0  0  0  0  0  0  0  0  0
  174.6484   18.7644   46.7915 H   0  0  0  0  0  0  0  0  0  0  0  0
  176.4123   18.4250   46.7915 H   0  0  0  0  0  0  0  0  0  0  0  0
  174.4054   20.1466   49.4096 H   0  0  0  0  0  0  0  0  0  0  0  0
  176.7245   23.5957   53.6421 H   0  0  0  0  0  0  0  0  0  0  0  0
  175.7870   24.5917   55.7310 H   0  0  0  0  0  0  0  0  0  0  0  0
  173.3410   25.0586   55.9043 H   0  0  0  0  0  0  0  0  0  0  0  0
  171.3080   25.1800   54.7660 H   0  0  0  0  0  0  0  0  0  0  0  0
  171.5050   22.6210   49.4080 H   0  0  0  0  0  0  0  0  0  0  0  0
  176.4217   23.9288   48.9088 H   0  0  0  0  0  0  0  0  0  0  0  0
  177.6828   23.0005   46.9799 H   0  0  0  0  0  0  0  0  0  0  0  0
  177.2460   19.5039   45.6878 H   0  0  0  0  0  0  0  0  0  0  0  0
  177.4183   21.2072   45.0798 H   0  0  0  0  0  0  0  0  0  0  0  0
  179.6101   20.0582   45.3842 H   0  0  0  0  0  0  0  0  0  0  0  0
  179.4336   21.5211   46.4006 H   0  0  0  0  0  0  0  0  0  0  0  0
  1  2  1  0
  2  3  2  0
  3  4  1  0
  4  5  1  0
  5  6  1  0
  6  7  1  0
  7  8  2  0
  8  9  1  0
  9 10  2  0
 10 11  1  0
 11 12  1  0
 11 13  2  0
 13 14  1  0
 14 15  2  0
 14 16  1  0
 16 17  1  0
  4 18  2  0
 18 19  1  0
 19 20  2  0
 20 21  1  0
 21 22  1  0
 22 23  1  0
 20  2  1  0
 16  5  2  0
 13  7  1  0
  1 24  1  0
  1 25  1  0
  1 26  1  0
  3 27  1  0
  8 28  1  0
  9 29  1  0
 10 30  1  0
 12 31  1  0
 17 32  1  0
 18 33  1  0
 19 34  1  0
 21 35  1  0
 21 36  1  0
 22 37  1  0
 22 38  1  0
M  END
>  <meeko>  (3) 
{"is_sidechain": [false], "free_energy": -7.164, "intermolecular_energy": -8.708, "internal_energy": -0.528}

$$$$
cand_047_out
     RDKit          3D

 38 40  0  0  0  0  0  0  0  0999 V2000
  174.8240   25.7680   50.0130 C   0  0  0  0  0  0  0  0  0  0  0  0
  175.0560   24.3180   49.6870 C   0  0  0  0  0  0  0  0  0  0  0  0
  176.3700   23.8870   49.4190 C   0  0  0  0  0  0  0  0  0  0  0  0
  176.6560   22.5510   49.1030 C   0  0  0  0  0  0  0  0  0  0  0  0
  178.0320   22.1010   48.8000 C   0  0  0  0  0  0  0  0  0  0  0  0
  178.1660   21.6010   47.5100 O   0  0  0  0  0  0  0  0  0  0  0  0
  179.3930   21.1500   47.0980 C   0  0  0  0  0  0  0  0  0  0  0  0
  179.4850   20.6700   45.7910 C   0  0  0  0  0  0  0  0  0  0  0  0
  180.7070   20.1940   45.3080 C   0  0  0  0  0  0  0  0  0  0  0  0
  181.8340   20.1960   46.1320 C   0  0  0  0  0  0  0  0  0  0  0  0
  181.7390   20.6740   47.4370 C   0  0  0  0  0  0  0  0  0  0  0  0
  182.8800   20.6460   48.1900 O   0  0  0  0  0  0  0  0  0  0  0  0
  180.5160   21.1520   47.9180 C   0  0  0  0  0  0  0  0  0  0  0  0
  180.3740   21.6630   49.2830 C   0  0  0  0  0  0  0  0  0  0  0  0
  181.3170   21.6900   50.0700 O   0  0  0  0  0  0  0  0  0  0  0  0
  179.0380   22.1540   49.6940 C   0  0  0  0  0  0  0  0  0  0  0  0
  178.9100   22.6230   50.9880 O   0  0  0  0  0  0  0  0  0  0  0  0
  175.5970   21.6420   49.0350 C   0  0  0  0  0  0  0  0  0  0  0  0
  174.2860   22.0540   49.2920 C   0  0  0  0  0  0  0  0  0  0  0  0
  173.9990   23.3900   49.6150 C   0  0  0  0  0  0  0  0  0  0  0  0
  172.5650   23.7680   49.9040 C   0  0  0  0  0  0  0  0  0  0  0  0
  172.1530   23.4130   51.3240 C   0  0  0  0  0  0  0  0  0  0  0  0
  173.2530   23.4740   52.1250 F   0  0  0  0  0  0  0  0  0  0  0  0
  174.8030   25.8995   51.1049 H   0  0  0  0  0  0  0  0  0  0  0  0
  175.6366   26.3743   49.5862 H   0  0  0  0  0  0  0  0  0  0  0  0
  173.8628   26.0905   49.5862 H   0  0  0  0  0  0  0  0  0  0  0  0
  177.1923   24.6166   49.4586 H   0  0  0  0  0  0  0  0  0  0  0  0
  178.5970   20.6663   45.1418 H   0  0  0  0  0  0  0  0  0  0  0  0
  180.7810   19.8173   44.2772 H   0  0  0  0  0  0  0  0  0  0  0  0
  182.7954   19.8207   45.7514 H   0  0  0  0  0  0  0  0  0  0  0  0
  182.8430   20.8570   49.1020 H   0  0  0  0  0  0  0  0  0  0  0  0
  179.6740   22.8420   51.4830 H   0  0  0  0  0  0  0  0  0  0  0  0
  175.7968   20.5916   48.7766 H   0  0  0  0  0  0  0  0  0  0  0  0
  173.4675   21.3209   49.2404 H   0  0  0  0  0  0  0  0  0  0  0  0
  172.4489   24.8526   49.7620 H   0  0  0  0  0  0  0  0  0  0  0  0
  171.9210   23.2030   49.2140 H   0  0  0  0  0  0  0  0  0  0  0  0
  171.3959   24.1274   51.6795 H   0  0  0  0  0  0  0  0  0  0  0  0
  171.7266   22.3993   51.3487 H   0  0  0  0  0  0  0  0  0  0  0  0
  1  2  1  0
  2  3  2  0
  3  4  1  0
  4  5  1  0
  5  6  1  0
  6  7  1  0
  7  8  2  0
  8  9  1  0
  9 10  2  0
 10 11  1  0
 11 12  1  0
 11 13  2  0
 13 14  1  0
 14 15  2  0
 14 16  1  0
 16 17  1  0
  4 18  2  0
 18 19  1  0
 19 20  2  0
 20 21  1  0
 21 22  1  0
 22 23  1  0
 20  2  1  0
 16  5  2  0
 13  7  1  0
  1 24  1  0
  1 25  1  0
  1 26  1  0
  3 27  1  0
  8 28  1  0
  9 29  1  0
 10 30  1  0
 12 31  1  0
 17 32  1  0
 18 33  1  0
 19 34  1  0
 21 35  1  0
 21 36  1  0
 22 37  1  0
 22 38  1  0
M  END
>  <meeko>  (4) 
{"is_sidechain": [false], "free_energy": -7.127, "intermolecular_energy": -8.687, "internal_energy": -0.505}

$$$$
cand_047_out
     RDKit          3D

 38 40  0  0  0  0  0  0  0  0999 V2000
  177.6240   18.9560   46.2190 C   0  0  0  0  0  0  0  0  0  0  0  0
  178.0990   20.1960   46.9260 C   0  0  0  0  0  0  0  0  0  0  0  0
  177.3370   20.6960   47.9990 C   0  0  0  0  0  0  0  0  0  0  0  0
  177.7190   21.8500   48.6980 C   0  0  0  0  0  0  0  0  0  0  0  0
  176.9090   22.3900   49.8110 C   0  0  0  0  0  0  0  0  0  0  0  0
  175.8020   23.1080   49.3760 O   0  0  0  0  0  0  0  0  0  0  0  0
  174.9620   23.6620   50.3070 C   0  0  0  0  0  0  0  0  0  0  0  0
  173.8550   24.3620   49.8260 C   0  0  0  0  0  0  0  0  0  0  0  0
  172.9610   24.9530   50.7220 C   0  0  0  0  0  0  0  0  0  0  0  0
  173.1750   24.8460   52.0970 C   0  0  0  0  0  0  0  0  0  0  0  0
  174.2810   24.1490   52.5750 C   0  0  0  0  0  0  0  0  0  0  0  0
  174.4320   24.0840   53.9330 O   0  0  0  0  0  0  0  0  0  0  0  0
  175.1750   23.5560   51.6780 C   0  0  0  0  0  0  0  0  0  0  0  0
  176.3500   22.8140   52.1390 C   0  0  0  0  0  0  0  0  0  0  0  0
  176.6100   22.6830   53.3320 O   0  0  0  0  0  0  0  0  0  0  0  0
  177.2300   22.2170   51.1070 C   0  0  0  0  0  0  0  0  0  0  0  0
  178.3440   21.5290   51.5520 O   0  0  0  0  0  0  0  0  0  0  0  0
  178.8770   22.5210   48.2930 C   0  0  0  0  0  0  0  0  0  0  0  0
  179.6410   22.0410   47.2260 C   0  0  0  0  0  0  0  0  0  0  0  0
  179.2630   20.8820   46.5290 C   0  0  0  0  0  0  0  0  0  0  0  0
  180.1440   20.4020   45.4000 C   0  0  0  0  0  0  0  0  0  0  0  0
  181.5490   20.0630   45.8720 C   0  0  0  0  0  0  0  0  0  0  0  0
  181.4580   19.2940   46.9920 F   0  0  0  0  0  0  0  0  0  0  0  0
  177.3339   18.1986   46.9621 H   0  0  0  0  0  0  0  0  0  0  0  0
  176.7567   19.2026   45.5890 H   0  0  0  0  0  0  0  0  0  0  0  0
  178.4341   18.5601   45.5890 H   0  0  0  0  0  0  0  0  0  0  0  0
  176.4189   20.1682   48.2965 H   0  0  0  0  0  0  0  0  0  0  0  0
  173.6864   24.4484   48.7424 H   0  0  0  0  0  0  0  0  0  0  0  0
  172.0872   25.5035   50.3433 H   0  0  0  0  0  0  0  0  0  0  0  0
  172.4707   25.3118   52.8019 H   0  0  0  0  0  0  0  0  0  0  0  0
  173.6980   24.2460   54.4930 H   0  0  0  0  0  0  0  0  0  0  0  0
  179.1680   21.9700   51.6250 H   0  0  0  0  0  0  0  0  0  0  0  0
  179.1894   23.4351   48.8192 H   0  0  0  0  0  0  0  0  0  0  0  0
  180.5526   22.5793   46.9274 H   0  0  0  0  0  0  0  0  0  0  0  0
  179.6926   19.5023   44.9564 H   0  0  0  0  0  0  0  0  0  0  0  0
  180.2223   21.2154   44.6636 H   0  0  0  0  0  0  0  0  0  0  0  0
  182.0808   19.5090   45.0844 H   0  0  0  0  0  0  0  0  0  0  0  0
  182.1034   20.9866   46.0947 H   0  0  0  0  0  0  0  0  0  0  0  0
  1  2  1  0
  2  3  2  0
  3  4  1  0
  4  5  1  0
  5  6  1  0
  6  7  1  0
  7  8  2  0
  8  9  1  0
  9 10  2  0
 10 11  1  0
 11 12  1  0
 11 13  2  0
 13 14  1  0
 14 15  2  0
 14 16  1  0
 16 17  1  0
  4 18  2  0
 18 19  1  0
 19 20  2  0
 20 21  1  0
 21 22  1  0
 22 23  1  0
 20  2  1  0
 16  5  2  0
 13  7  1  0
  1 24  1  0
  1 25  1  0
  1 26  1  0
  3 27  1  0
  8 28  1  0
  9 29  1  0
 10 30  1  0
 12 31  1  0
 17 32  1  0
 18 33  1  0
 19 34  1  0
 21 35  1  0
 21 36  1  0
 22 37  1  0
 22 38  1  0
M  END
>  <meeko>  (5) 
{"is_sidechain": [false], "free_energy": -7.08, "intermolecular_energy": -8.529, "internal_energy": -0.603}

$$$$
cand_047_out
     RDKit          3D

 38 40  0  0  0  0  0  0  0  0999 V2000
  176.6920   22.6570   47.7260 C   0  0  0  0  0  0  0  0  0  0  0  0
  177.8880   21.7750   47.4960 C   0  0  0  0  0  0  0  0  0  0  0  0
  179.1400   22.1910   47.9890 C   0  0  0  0  0  0  0  0  0  0  0  0
  180.2970   21.4200   47.8050 C   0  0  0  0  0  0  0  0  0  0  0  0
  181.6160   21.8660   48.3020 C   0  0  0  0  0  0  0  0  0  0  0  0
  182.4280   22.3790   47.2970 O   0  0  0  0  0  0  0  0  0  0  0  0
  183.6800   22.8320   47.6220 C   0  0  0  0  0  0  0  0  0  0  0  0
  184.4550   23.3530   46.5850 C   0  0  0  0  0  0  0  0  0  0  0  0
  185.7420   23.8290   46.8480 C   0  0  0  0  0  0  0  0  0  0  0  0
  186.2540   23.7820   48.1460 C   0  0  0  0  0  0  0  0  0  0  0  0
  185.4790   23.2610   49.1790 C   0  0  0  0  0  0  0  0  0  0  0  0
  186.0420   23.2440   50.4250 O   0  0  0  0  0  0  0  0  0  0  0  0
  184.1910   22.7860   48.9150 C   0  0  0  0  0  0  0  0  0  0  0  0
  183.3440   22.2300   49.9720 C   0  0  0  0  0  0  0  0  0  0  0  0
  183.7260   22.1480   51.1380 O   0  0  0  0  0  0  0  0  0  0  0  0
  181.9920   21.7610   49.5910 C   0  0  0  0  0  0  0  0  0  0  0  0
  181.2050   21.2260   50.5940 O   0  0  0  0  0  0  0  0  0  0  0  0
  180.1910   20.2210   47.0940 C   0  0  0  0  0  0  0  0  0  0  0  0
  178.9570   19.7960   46.5930 C   0  0  0  0  0  0  0  0  0  0  0  0
  177.7970   20.5640   46.7830 C   0  0  0  0  0  0  0  0  0  0  0  0
  176.4900   20.0390   46.2370 C   0  0  0  0  0  0  0  0  0  0  0  0
  175.9460   18.8840   47.0620 C   0  0  0  0  0  0  0  0  0  0  0  0
  176.0890   19.1860   48.3820 F   0  0  0  0  0  0  0  0  0  0  0  0
  176.5280   22.7779   48.8070 H   0  0  0  0  0  0  0  0  0  0  0  0
  176.8696   23.6420   47.2696 H   0  0  0  0  0  0  0  0  0  0  0  0
  175.8035   22.1963   47.2696 H   0  0  0  0  0  0  0  0  0  0  0  0
  179.2122   23.1448   48.5321 H   0  0  0  0  0  0  0  0  0  0  0  0
  184.0531   23.3889   45.5617 H   0  0  0  0  0  0  0  0  0  0  0  0
  186.3527   24.2413   46.0313 H   0  0  0  0  0  0  0  0  0  0  0  0
  187.2677   24.1558   48.3523 H   0  0  0  0  0  0  0  0  0  0  0  0
  186.5230   23.9880   50.7320 H   0  0  0  0  0  0  0  0  0  0  0  0
  180.3460   21.5680   50.7470 H   0  0  0  0  0  0  0  0  0  0  0  0
  181.0875   19.6058   46.9271 H   0  0  0  0  0  0  0  0  0  0  0  0
  178.8939   18.8461   46.0419 H   0  0  0  0  0  0  0  0  0  0  0  0
  175.7519   20.8546   46.2393 H   0  0  0  0  0  0  0  0  0  0  0  0
  176.6741   19.6688   45.2177 H   0  0  0  0  0  0  0  0  0  0  0  0
  174.8815   18.7323   46.8300 H   0  0  0  0  0  0  0  0  0  0  0  0
  176.4976   17.9620   46.8262 H   0  0  0  0  0  0  0  0  0  0  0  0
  1  2  1  0
  2  3  2  0
  3  4  1  0
  4  5  1  0
  5  6  1  0
  6  7  1  0
  7  8  2  0
  8  9  1  0
  9 10  2  0
 10 11  1  0
 11 12  1  0
 11 13  2  0
 13 14  1  0
 14 15  2  0
 14 16  1  0
 16 17  1  0
  4 18  2  0
 18 19  1  0
 19 20  2  0
 20 21  1  0
 21 22  1  0
 22 23  1  0
 20  2  1  0
 16  5  2  0
 13  7  1  0
  1 24  1  0
  1 25  1  0
  1 26  1  0
  3 27  1  0
  8 28  1  0
  9 29  1  0
 10 30  1  0
 12 31  1  0
 17 32  1  0
 18 33  1  0
 19 34  1  0
 21 35  1  0
 21 36  1  0
 22 37  1  0
 22 38  1  0
M  END
>  <meeko>  (6) 
{"is_sidechain": [false], "free_energy": -7.074, "intermolecular_energy": -8.489, "internal_energy": -0.637}

$$$$
cand_047_out
     RDKit          3D

 38 40  0  0  0  0  0  0  0  0999 V2000
  181.3450   21.8610   47.0930 C   0  0  0  0  0  0  0  0  0  0  0  0
  179.9050   21.4330   47.1680 C   0  0  0  0  0  0  0  0  0  0  0  0
  179.1070   21.9280   48.2180 C   0  0  0  0  0  0  0  0  0  0  0  0
  177.7580   21.5650   48.3510 C   0  0  0  0  0  0  0  0  0  0  0  0
  176.9240   22.0670   49.4640 C   0  0  0  0  0  0  0  0  0  0  0  0
  175.7270   22.6270   49.0340 O   0  0  0  0  0  0  0  0  0  0  0  0
  174.8580   23.1300   49.9660 C   0  0  0  0  0  0  0  0  0  0  0  0
  173.6610   23.6690   49.4900 C   0  0  0  0  0  0  0  0  0  0  0  0
  172.7310   24.2000   50.3870 C   0  0  0  0  0  0  0  0  0  0  0  0
  172.9980   24.1940   51.7580 C   0  0  0  0  0  0  0  0  0  0  0  0
  174.1930   23.6570   52.2300 C   0  0  0  0  0  0  0  0  0  0  0  0
  174.3910   23.6840   53.5830 O   0  0  0  0  0  0  0  0  0  0  0  0
  175.1220   23.1240   51.3310 C   0  0  0  0  0  0  0  0  0  0  0  0
  176.3900   22.5500   51.7860 C   0  0  0  0  0  0  0  0  0  0  0  0
  176.7000   22.5150   52.9750 O   0  0  0  0  0  0  0  0  0  0  0  0
  177.3030   22.0040   50.7550 C   0  0  0  0  0  0  0  0  0  0  0  0
  178.5030   21.4750   51.1930 O   0  0  0  0  0  0  0  0  0  0  0  0
  177.2150   20.6730   47.4220 C   0  0  0  0  0  0  0  0  0  0  0  0
  177.9950   20.1670   46.3790 C   0  0  0  0  0  0  0  0  0  0  0  0
  179.3430   20.5350   46.2410 C   0  0  0  0  0  0  0  0  0  0  0  0
  180.1260   19.9710   45.0780 C   0  0  0  0  0  0  0  0  0  0  0  0
  180.7870   18.6460   45.4190 C   0  0  0  0  0  0  0  0  0  0  0  0
  179.8250   17.6840   45.4850 F   0  0  0  0  0  0  0  0  0  0  0  0
  181.7456   21.9801   48.1105 H   0  0  0  0  0  0  0  0  0  0  0  0
  181.9271   21.0970   46.5568 H   0  0  0  0  0  0  0  0  0  0  0  0
  181.4154   22.8189   46.5568 H   0  0  0  0  0  0  0  0  0  0  0  0
  179.5522   22.6160   48.9517 H   0  0  0  0  0  0  0  0  0  0  0  0
  173.4507   23.6755   48.4103 H   0  0  0  0  0  0  0  0  0  0  0  0
  171.7871   24.6234   50.0131 H   0  0  0  0  0  0  0  0  0  0  0  0
  172.2655   24.6128   52.4637 H   0  0  0  0  0  0  0  0  0  0  0  0
  173.8670   24.2440   54.1210 H   0  0  0  0  0  0  0  0  0  0  0  0
  179.3100   21.8870   50.9540 H   0  0  0  0  0  0  0  0  0  0  0  0
  176.1626   20.3661   47.5129 H   0  0  0  0  0  0  0  0  0  0  0  0
  177.5465   19.4703   45.6555 H   0  0  0  0  0  0  0  0  0  0  0  0
  179.4410   19.8174   44.2311 H   0  0  0  0  0  0  0  0  0  0  0  0
  180.9201   20.6892   44.8259 H   0  0  0  0  0  0  0  0  0  0  0  0
  181.5185   18.3856   44.6398 H   0  0  0  0  0  0  0  0  0  0  0  0
  181.3073   18.7236   46.3850 H   0  0  0  0  0  0  0  0  0  0  0  0
  1  2  1  0
  2  3  2  0
  3  4  1  0
  4  5  1  0
  5  6  1  0
  6  7  1  0
  7  8  2  0
  8  9  1  0
  9 10  2  0
 10 11  1  0
 11 12  1  0
 11 13  2  0
 13 14  1  0
 14 15  2  0
 14 16  1  0
 16 17  1  0
  4 18  2  0
 18 19  1  0
 19 20  2  0
 20 21  1  0
 21 22  1  0
 22 23  1  0
 20  2  1  0
 16  5  2  0
 13  7  1  0
  1 24  1  0
  1 25  1  0
  1 26  1  0
  3 27  1  0
  8 28  1  0
  9 29  1  0
 10 30  1  0
 12 31  1  0
 17 32  1  0
 18 33  1  0
 19 34  1  0
 21 35  1  0
 21 36  1  0
 22 37  1  0
 22 38  1  0
M  END
>  <meeko>  (7) 
{"is_sidechain": [false], "free_energy": -7.01, "intermolecular_energy": -8.807, "internal_energy": -0.241}

$$$$
cand_047_out
     RDKit          3D

 38 40  0  0  0  0  0  0  0  0999 V2000
  182.7360   25.8860   48.1040 C   0  0  0  0  0  0  0  0  0  0  0  0
  182.4010   24.4380   47.8680 C   0  0  0  0  0  0  0  0  0  0  0  0
  181.1430   23.9590   48.2800 C   0  0  0  0  0  0  0  0  0  0  0  0
  180.7680   22.6200   48.0960 C   0  0  0  0  0  0  0  0  0  0  0  0
  179.4560   22.1100   48.5470 C   0  0  0  0  0  0  0  0  0  0  0  0
  178.5590   21.9250   47.5020 O   0  0  0  0  0  0  0  0  0  0  0  0
  177.3030   21.4540   47.7810 C   0  0  0  0  0  0  0  0  0  0  0  0
  176.4400   21.2690   46.7000 C   0  0  0  0  0  0  0  0  0  0  0  0
  175.1440   20.7920   46.9150 C   0  0  0  0  0  0  0  0  0  0  0  0
  174.7120   20.5030   48.2110 C   0  0  0  0  0  0  0  0  0  0  0  0
  175.5740   20.6900   49.2890 C   0  0  0  0  0  0  0  0  0  0  0  0
  175.0860   20.3890   50.5300 O   0  0  0  0  0  0  0  0  0  0  0  0
  176.8710   21.1650   49.0710 C   0  0  0  0  0  0  0  0  0  0  0  0
  177.8080   21.3750   50.1760 C   0  0  0  0  0  0  0  0  0  0  0  0
  177.4990   21.1510   51.3450 O   0  0  0  0  0  0  0  0  0  0  0  0
  179.1620   21.8740   49.8400 C   0  0  0  0  0  0  0  0  0  0  0  0
  180.0360   22.0820   50.8910 O   0  0  0  0  0  0  0  0  0  0  0  0
  181.6880   21.7480   47.5060 C   0  0  0  0  0  0  0  0  0  0  0  0
  182.9430   22.2050   47.0980 C   0  0  0  0  0  0  0  0  0  0  0  0
  183.3160   23.5470   47.2760 C   0  0  0  0  0  0  0  0  0  0  0  0
  184.6790   23.9850   46.7920 C   0  0  0  0  0  0  0  0  0  0  0  0
  184.7180   24.1790   45.2850 C   0  0  0  0  0  0  0  0  0  0  0  0
  183.8680   25.1890   44.9530 F   0  0  0  0  0  0  0  0  0  0  0  0
  182.7810   26.0804   49.1858 H   0  0  0  0  0  0  0  0  0  0  0  0
  183.7110   26.1156   47.6494 H   0  0  0  0  0  0  0  0  0  0  0  0
  181.9609   26.5205   47.6494 H   0  0  0  0  0  0  0  0  0  0  0  0
  180.4360   24.6526   48.7585 H   0  0  0  0  0  0  0  0  0  0  0  0
  176.7796   21.4985   45.6792 H   0  0  0  0  0  0  0  0  0  0  0  0
  174.4641   20.6442   46.0630 H   0  0  0  0  0  0  0  0  0  0  0  0
  173.6919   20.1280   48.3805 H   0  0  0  0  0  0  0  0  0  0  0  0
  175.3610   19.6040   50.9630 H   0  0  0  0  0  0  0  0  0  0  0  0
  179.7440   21.9590   51.7730 H   0  0  0  0  0  0  0  0  0  0  0  0
  181.4205   20.6908   47.3617 H   0  0  0  0  0  0  0  0  0  0  0  0
  183.6496   21.5035   46.6304 H   0  0  0  0  0  0  0  0  0  0  0  0
  184.9387   24.9367   47.2785 H   0  0  0  0  0  0  0  0  0  0  0  0
  185.3990   23.1942   47.0495 H   0  0  0  0  0  0  0  0  0  0  0  0
  185.7402   24.4373   44.9714 H   0  0  0  0  0  0  0  0  0  0  0  0
  184.4129   23.2509   44.7796 H   0  0  0  0  0  0  0  0  0  0  0  0
  1  2  1  0
  2  3  2  0
  3  4  1  0
  4  5  1  0
  5  6  1  0
  6  7  1  0
  7  8  2  0
  8  9  1  0
  9 10  2  0
 10 11  1  0
 11 12  1  0
 11 13  2  0
 13 14  1  0
 14 15  2  0
 14 16  1  0
 16 17  1  0
  4 18  2  0
 18 19  1  0
 19 20  2  0
 20 21  1  0
 21 22  1  0
 22 23  1  0
 20  2  1  0
 16  5  2  0
 13  7  1  0
  1 24  1  0
  1 25  1  0
  1 26  1  0
  3 27  1  0
  8 28  1  0
  9 29  1  0
 10 30  1  0
 12 31  1  0
 17 32  1  0
 18 33  1  0
 19 34  1  0
 21 35  1  0
 21 36  1  0
 22 37  1  0
 22 38  1  0
M  END
>  <meeko>  (8) 
{"is_sidechain": [false], "free_energy": -6.862, "intermolecular_energy": -8.272, "internal_energy": -0.592}

$$$$
cand_047_out
     RDKit          3D

 38 40  0  0  0  0  0  0  0  0999 V2000
  171.7840   24.2260   49.0570 C   0  0  0  0  0  0  0  0  0  0  0  0
  173.0630   23.7600   49.6960 C   0  0  0  0  0  0  0  0  0  0  0  0
  173.9500   22.9710   48.9370 C   0  0  0  0  0  0  0  0  0  0  0  0
  175.1570   22.4980   49.4720 C   0  0  0  0  0  0  0  0  0  0  0  0
  176.0780   21.6520   48.6840 C   0  0  0  0  0  0  0  0  0  0  0  0
  177.3660   22.1710   48.6180 O   0  0  0  0  0  0  0  0  0  0  0  0
  178.3230   21.4840   47.9180 C   0  0  0  0  0  0  0  0  0  0  0  0
  179.6060   22.0340   47.8910 C   0  0  0  0  0  0  0  0  0  0  0  0
  180.6280   21.3840   47.1940 C   0  0  0  0  0  0  0  0  0  0  0  0
  180.3670   20.1880   46.5230 C   0  0  0  0  0  0  0  0  0  0  0  0
  179.0860   19.6420   46.5510 C   0  0  0  0  0  0  0  0  0  0  0  0
  178.8990   18.4690   45.8720 O   0  0  0  0  0  0  0  0  0  0  0  0
  178.0650   20.2920   47.2500 C   0  0  0  0  0  0  0  0  0  0  0  0
  176.7050   19.7520   47.3040 C   0  0  0  0  0  0  0  0  0  0  0  0
  176.3950   18.7080   46.7330 O   0  0  0  0  0  0  0  0  0  0  0  0
  175.6960   20.5120   48.0780 C   0  0  0  0  0  0  0  0  0  0  0  0
  174.4120   20.0010   48.1120 O   0  0  0  0  0  0  0  0  0  0  0  0
  175.4620   22.8090   50.8000 C   0  0  0  0  0  0  0  0  0  0  0  0
  174.5910   23.5840   51.5690 C   0  0  0  0  0  0  0  0  0  0  0  0
  173.3850   24.0640   51.0320 C   0  0  0  0  0  0  0  0  0  0  0  0
  172.4960   24.9170   51.9080 C   0  0  0  0  0  0  0  0  0  0  0  0
  171.8510   24.1140   53.0260 C   0  0  0  0  0  0  0  0  0  0  0  0
  171.2250   23.0340   52.4810 F   0  0  0  0  0  0  0  0  0  0  0  0
  171.0581   24.4905   49.8400 H   0  0  0  0  0  0  0  0  0  0  0  0
  171.9866   25.1081   48.4318 H   0  0  0  0  0  0  0  0  0  0  0  0
  171.3717   23.4203   48.4318 H   0  0  0  0  0  0  0  0  0  0  0  0
  173.6891   22.7196   47.8984 H   0  0  0  0  0  0  0  0  0  0  0  0
  179.8120   22.9775   48.4176 H   0  0  0  0  0  0  0  0  0  0  0  0
  181.6397   21.8154   47.1740 H   0  0  0  0  0  0  0  0  0  0  0  0
  181.1716   19.6777   45.9732 H   0  0  0  0  0  0  0  0  0  0  0  0
  179.5670   18.1500   45.2960 H   0  0  0  0  0  0  0  0  0  0  0  0
  173.8980   19.9760   47.3300 H   0  0  0  0  0  0  0  0  0  0  0  0
  176.3980   22.4395   51.2443 H   0  0  0  0  0  0  0  0  0  0  0  0
  174.8532   23.8220   52.6104 H   0  0  0  0  0  0  0  0  0  0  0  0
  173.1022   25.7199   52.3527 H   0  0  0  0  0  0  0  0  0  0  0  0
  171.6919   25.3248   51.2778 H   0  0  0  0  0  0  0  0  0  0  0  0
  172.6233   23.7768   53.7330 H   0  0  0  0  0  0  0  0  0  0  0  0
  171.1225   24.7380   53.5644 H   0  0  0  0  0  0  0  0  0  0  0  0
  1  2  1  0
  2  3  2  0
  3  4  1  0
  4  5  1  0
  5  6  1  0
  6  7  1  0
  7  8  2  0
  8  9  1  0
  9 10  2  0
 10 11  1  0
 11 12  1  0
 11 13  2  0
 13 14  1  0
 14 15  2  0
 14 16  1  0
 16 17  1  0
  4 18  2  0
 18 19  1  0
 19 20  2  0
 20 21  1  0
 21 22  1  0
 22 23  1  0
 20  2  1  0
 16  5  2  0
 13  7  1  0
  1 24  1  0
  1 25  1  0
  1 26  1  0
  3 27  1  0
  8 28  1  0
  9 29  1  0
 10 30  1  0
 12 31  1  0
 17 32  1  0
 18 33  1  0
 19 34  1  0
 21 35  1  0
 21 36  1  0
 22 37  1  0
 22 38  1  0
M  END
>  <meeko>  (9) 
{"is_sidechain": [false], "free_energy": -6.813, "intermolecular_energy": -8.376, "internal_energy": -0.428}

$$$$
