cand_015_out
     RDKit          3D

 36 38  0  0  0  0  0  0  0  0999 V2000
  181.2160   14.5240   41.6310 C   0  0  0  0  0  0  0  0  0  0  0  0
  181.8500   15.2040   42.5920 C   0  0  0  0  0  0  0  0  0  0  0  0
  183.1730   14.9780   42.7570 F   0  0  0  0  0  0  0  0  0  0  0  0
  181.2030   16.1580   43.5080 C   0  0  0  0  0  0  0  0  0  0  0  0
  181.4590   17.5340   43.3730 C   0  0  0  0  0  0  0  0  0  0  0  0
  180.8830   18.4680   44.2410 C   0  0  0  0  0  0  0  0  0  0  0  0
  180.0350   18.0560   45.2710 C   0  0  0  0  0  0  0  0  0  0  0  0
  179.4380   19.0180   46.2220 C   0  0  0  0  0  0  0  0  0  0  0  0
  178.0480   18.9940   46.2150 O   0  0  0  0  0  0  0  0  0  0  0  0
  177.3670   19.8400   47.0510 C   0  0  0  0  0  0  0  0  0  0  0  0
  175.9720   19.7720   47.0230 C   0  0  0  0  0  0  0  0  0  0  0  0
  175.2170   20.6080   47.8480 C   0  0  0  0  0  0  0  0  0  0  0  0
  175.8540   21.5110   48.7010 C   0  0  0  0  0  0  0  0  0  0  0  0
  177.2450   21.5760   48.7280 C   0  0  0  0  0  0  0  0  0  0  0  0
  177.8040   22.4830   49.5870 O   0  0  0  0  0  0  0  0  0  0  0  0
  178.0000   20.7390   47.9020 C   0  0  0  0  0  0  0  0  0  0  0  0
  179.4640   20.7760   47.9000 C   0  0  0  0  0  0  0  0  0  0  0  0
  180.0970   21.5480   48.6160 O   0  0  0  0  0  0  0  0  0  0  0  0
  180.1700   19.8430   46.9920 C   0  0  0  0  0  0  0  0  0  0  0  0
  181.5530   19.8950   46.9880 O   0  0  0  0  0  0  0  0  0  0  0  0
  179.7910   16.6820   45.4210 C   0  0  0  0  0  0  0  0  0  0  0  0
  180.3540   15.7290   44.5490 C   0  0  0  0  0  0  0  0  0  0  0  0
  180.0430   14.2730   44.7770 C   0  0  0  0  0  0  0  0  0  0  0  0
  180.1398   14.6799   41.4655 H   0  0  0  0  0  0  0  0  0  0  0  0
  181.7707   13.8087   41.0059 H   0  0  0  0  0  0  0  0  0  0  0  0
  182.1247   17.8827   42.5698 H   0  0  0  0  0  0  0  0  0  0  0  0
  181.1005   19.5384   44.1106 H   0  0  0  0  0  0  0  0  0  0  0  0
  175.4688   19.0606   46.3517 H   0  0  0  0  0  0  0  0  0  0  0  0
  174.1185   20.5550   47.8258 H   0  0  0  0  0  0  0  0  0  0  0  0
  175.2587   22.1697   49.3504 H   0  0  0  0  0  0  0  0  0  0  0  0
  177.2570   23.0690   50.0710 H   0  0  0  0  0  0  0  0  0  0  0  0
  182.0510   19.1020   46.9940 H   0  0  0  0  0  0  0  0  0  0  0  0
  179.1429   16.3399   46.2413 H   0  0  0  0  0  0  0  0  0  0  0  0
  180.0001   14.0721   45.8576 H   0  0  0  0  0  0  0  0  0  0  0  0
  179.0726   14.0294   44.3199 H   0  0  0  0  0  0  0  0  0  0  0  0
  180.8292   13.6542   44.3199 H   0  0  0  0  0  0  0  0  0  0  0  0
  1  2  2  0
  2  3  1  0
  2  4  1  0
  4  5  2  0
  5  6  1  0
  6  7  2  0
  7  8  1  0
  8  9  1  0
  9 10  1  0
 10 11  2  0
 11 12  1  0
 12 13  2  0
 13 14  1  0
 14 15  1  0
 14 16  2  0
 16 17  1  0
 17 18  2  0
 17 19  1  0
 19 20  1  0
  7 21  1  0
 21 22  2  0
 22 23  1  0
 22  4  1  0
 19  8  2  0
 16 10  1  0
  1 24  1  0
  1 25  1  0
  5 26  1  0
  6 27  1  0
 11 28  1  0
 12 29  1  0
 13 30  1  0
 15 31  1  0
 20 32  1  0
 21 33  1  0
 23 34  1  0
 23 35  1  0
 23 36  1  0
M  END
>  <meeko>  (1) 
{"is_sidechain": [false], "free_energy": -7.974, "intermolecular_energy": -9.373, "internal_energy": -0.225}

$$$$
cand_015_out
     RDKit          3D

 36 38  0  0  0  0  0  0  0  0999 V2000
  179.0220   20.6330   46.6620 C   0  0  0  0  0  0  0  0  0  0  0  0
  177.6950   20.7520   46.5480 C   0  0  0  0  0  0  0  0  0  0  0  0
  177.1260   20.3760   45.3800 F   0  0  0  0  0  0  0  0  0  0  0  0
  176.8100   21.2960   47.5920 C   0  0  0  0  0  0  0  0  0  0  0  0
  176.8580   22.6670   47.8970 C   0  0  0  0  0  0  0  0  0  0  0  0
  176.0520   23.2150   48.9020 C   0  0  0  0  0  0  0  0  0  0  0  0
  175.1750   22.4090   49.6310 C   0  0  0  0  0  0  0  0  0  0  0  0
  174.3350   22.9570   50.7180 C   0  0  0  0  0  0  0  0  0  0  0  0
  175.0700   23.3030   51.8460 O   0  0  0  0  0  0  0  0  0  0  0  0
  174.4120   23.8240   52.9310 C   0  0  0  0  0  0  0  0  0  0  0  0
  175.1910   24.1710   54.0370 C   0  0  0  0  0  0  0  0  0  0  0  0
  174.5840   24.7050   55.1760 C   0  0  0  0  0  0  0  0  0  0  0  0
  173.2000   24.8920   55.2090 C   0  0  0  0  0  0  0  0  0  0  0  0
  172.4270   24.5460   54.1050 C   0  0  0  0  0  0  0  0  0  0  0  0
  171.0780   24.7560   54.2040 O   0  0  0  0  0  0  0  0  0  0  0  0
  173.0350   24.0120   52.9650 C   0  0  0  0  0  0  0  0  0  0  0  0
  172.2580   23.6350   51.7830 C   0  0  0  0  0  0  0  0  0  0  0  0
  171.0360   23.7620   51.7380 O   0  0  0  0  0  0  0  0  0  0  0  0
  172.9990   23.0840   50.6250 C   0  0  0  0  0  0  0  0  0  0  0  0
  172.2540   22.7180   49.5180 O   0  0  0  0  0  0  0  0  0  0  0  0
  175.1370   21.0370   49.3420 C   0  0  0  0  0  0  0  0  0  0  0  0
  175.9340   20.4700   48.3270 C   0  0  0  0  0  0  0  0  0  0  0  0
  175.8350   18.9880   48.0780 C   0  0  0  0  0  0  0  0  0  0  0  0
  179.5225   20.9281   47.5960 H   0  0  0  0  0  0  0  0  0  0  0  0
  179.6132   20.2400   45.8217 H   0  0  0  0  0  0  0  0  0  0  0  0
  177.5413   23.3214   47.3359 H   0  0  0  0  0  0  0  0  0  0  0  0
  176.1101   24.2917   49.1197 H   0  0  0  0  0  0  0  0  0  0  0  0
  176.2808   24.0240   54.0112 H   0  0  0  0  0  0  0  0  0  0  0  0
  175.1964   24.9786   56.0479 H   0  0  0  0  0  0  0  0  0  0  0  0
  172.7221   25.3121   56.1063 H   0  0  0  0  0  0  0  0  0  0  0  0
  170.7530   25.5890   54.4840 H   0  0  0  0  0  0  0  0  0  0  0  0
  172.2150   21.8200   49.2560 H   0  0  0  0  0  0  0  0  0  0  0  0
  174.4672   20.3860   49.9230 H   0  0  0  0  0  0  0  0  0  0  0  0
  175.7995   18.4561   49.0402 H   0  0  0  0  0  0  0  0  0  0  0  0
  174.9205   18.7726   47.5060 H   0  0  0  0  0  0  0  0  0  0  0  0
  176.7128   18.6529   47.5060 H   0  0  0  0  0  0  0  0  0  0  0  0
  1  2  2  0
  2  3  1  0
  2  4  1  0
  4  5  2  0
  5  6  1  0
  6  7  2  0
  7  8  1  0
  8  9  1  0
  9 10  1  0
 10 11  2  0
 11 12  1  0
 12 13  2  0
 13 14  1  0
 14 15  1  0
 14 16  2  0
 16 17  1  0
 17 18  2  0
 17 19  1  0
 19 20  1  0
  7 21  1  0
 21 22  2  0
 22 23  1  0
 22  4  1  0
 19  8  2  0
 16 10  1  0
  1 24  1  0
  1 25  1  0
  5 26  1  0
  6 27  1  0
 11 28  1  0
 12 29  1  0
 13 30  1  0
 15 31  1  0
 20 32  1  0
 21 33  1  0
 23 34  1  0
 23 35  1  0
 23 36  1  0
M  END
>  <meeko>  (2) 
{"is_sidechain": [false], "free_energy": -7.699, "intermolecular_energy": -8.755, "internal_energy": -0.519}

$$$$
cand_015_out
     RDKit          3D

 36 38  0  0  0  0  0  0  0  0999 V2000
  171.6310   24.2520   48.8850 C   0  0  0  0  0  0  0  0  0  0  0  0
  172.5040   23.7950   49.7890 C   0  0  0  0  0  0  0  0  0  0  0  0
  172.1080   23.7450   51.0810 F   0  0  0  0  0  0  0  0  0  0  0  0
  173.8830   23.3750   49.4830 C   0  0  0  0  0  0  0  0  0  0  0  0
  174.1270   22.0610   49.0480 C   0  0  0  0  0  0  0  0  0  0  0  0
  175.4260   21.6180   48.7740 C   0  0  0  0  0  0  0  0  0  0  0  0
  176.5190   22.4740   48.9260 C   0  0  0  0  0  0  0  0  0  0  0  0
  177.9040   22.0220   48.6730 C   0  0  0  0  0  0  0  0  0  0  0  0
  178.0860   21.5340   47.3840 O   0  0  0  0  0  0  0  0  0  0  0  0
  179.3260   21.0810   47.0160 C   0  0  0  0  0  0  0  0  0  0  0  0
  179.4680   20.6130   45.7080 C   0  0  0  0  0  0  0  0  0  0  0  0
  180.7050   20.1340   45.2690 C   0  0  0  0  0  0  0  0  0  0  0  0
  181.7990   20.1240   46.1370 C   0  0  0  0  0  0  0  0  0  0  0  0
  181.6550   20.5920   47.4410 C   0  0  0  0  0  0  0  0  0  0  0  0
  182.7670   20.5540   48.2370 O   0  0  0  0  0  0  0  0  0  0  0  0
  180.4170   21.0710   47.8790 C   0  0  0  0  0  0  0  0  0  0  0  0
  180.2240   21.5720   49.2410 C   0  0  0  0  0  0  0  0  0  0  0  0
  181.1350   21.5880   50.0650 O   0  0  0  0  0  0  0  0  0  0  0  0
  178.8740   22.0630   49.6030 C   0  0  0  0  0  0  0  0  0  0  0  0
  178.6980   22.5210   50.8970 O   0  0  0  0  0  0  0  0  0  0  0  0
  176.2800   23.7810   49.3770 C   0  0  0  0  0  0  0  0  0  0  0  0
  174.9790   24.2470   49.6490 C   0  0  0  0  0  0  0  0  0  0  0  0
  174.8070   25.6640   50.1290 C   0  0  0  0  0  0  0  0  0  0  0  0
  171.9163   24.3077   47.8241 H   0  0  0  0  0  0  0  0  0  0  0  0
  170.6276   24.5722   49.2023 H   0  0  0  0  0  0  0  0  0  0  0  0
  173.2819   21.3684   48.9206 H   0  0  0  0  0  0  0  0  0  0  0  0
  175.5879   20.5841   48.4351 H   0  0  0  0  0  0  0  0  0  0  0  0
  178.6067   20.6214   45.0238 H   0  0  0  0  0  0  0  0  0  0  0  0
  180.8172   19.7645   44.2390 H   0  0  0  0  0  0  0  0  0  0  0  0
  182.7729   19.7471   45.7914 H   0  0  0  0  0  0  0  0  0  0  0  0
  182.8400   19.9030   48.9080 H   0  0  0  0  0  0  0  0  0  0  0  0
  179.3000   23.1410   51.2600 H   0  0  0  0  0  0  0  0  0  0  0  0
  177.1326   24.4607   49.5222 H   0  0  0  0  0  0  0  0  0  0  0  0
  174.8050   25.6809   51.2289 H   0  0  0  0  0  0  0  0  0  0  0  0
  175.6368   26.2813   49.7544 H   0  0  0  0  0  0  0  0  0  0  0  0
  173.8536   26.0649   49.7544 H   0  0  0  0  0  0  0  0  0  0  0  0
  1  2  2  0
  2  3  1  0
  2  4  1  0
  4  5  2  0
  5  6  1  0
  6  7  2  0
  7  8  1  0
  8  9  1  0
  9 10  1  0
 10 11  2  0
 11 12  1  0
 12 13  2  0
 13 14  1  0
 14 15  1  0
 14 16  2  0
 16 17  1  0
 17 18  2  0
 17 19  1  0
 19 20  1  0
  7 21  1  0
 21 22  2  0
 22 23  1  0
 22  4  1  0
 19  8  2  0
 16 10  1  0
  1 24  1  0
  1 25  1  0
  5 26  1  0
  6 27  1  0
 11 28  1  0
 12 29  1  0
 13 30  1  0
 15 31  1  0
 20 32  1  0
 21 33  1  0
 23 34  1  0
 23 35  1  0
 23 36  1  0
M  END
>  <meeko>  (3) 
{"is_sidechain": [false], "free_energy": -7.652, "intermolecular_energy": -8.852, "internal_energy": -0.367}

$$$$
cand_015_out
     RDKit          3D

 36 38  0  0  0  0  0  0  0  0999 V2000
  181.2220   19.5500   45.8750 C   0  0  0  0  0  0  0  0  0  0  0  0
  180.1130   20.2610   45.6440 C   0  0  0  0  0  0  0  0  0  0  0  0
  179.7700   20.4950   44.3580 F   0  0  0  0  0  0  0  0  0  0  0  0
  179.2560   20.8390   46.6930 C   0  0  0  0  0  0  0  0  0  0  0  0
  179.6950   21.9710   47.4020 C   0  0  0  0  0  0  0  0  0  0  0  0
  178.9200   22.5320   48.4240 C   0  0  0  0  0  0  0  0  0  0  0  0
  177.6850   21.9780   48.7680 C   0  0  0  0  0  0  0  0  0  0  0  0
  176.8610   22.5320   49.8640 C   0  0  0  0  0  0  0  0  0  0  0  0
  175.7530   23.2340   49.4050 O   0  0  0  0  0  0  0  0  0  0  0  0
  174.9030   23.8010   50.3200 C   0  0  0  0  0  0  0  0  0  0  0  0
  173.7940   24.4850   49.8150 C   0  0  0  0  0  0  0  0  0  0  0  0
  172.8900   25.0880   50.6920 C   0  0  0  0  0  0  0  0  0  0  0  0
  173.0930   25.0080   52.0710 C   0  0  0  0  0  0  0  0  0  0  0  0
  174.1980   24.3260   52.5710 C   0  0  0  0  0  0  0  0  0  0  0  0
  174.3370   24.2860   53.9320 O   0  0  0  0  0  0  0  0  0  0  0  0
  175.1030   23.7220   51.6930 C   0  0  0  0  0  0  0  0  0  0  0  0
  176.2780   22.9950   52.1780 C   0  0  0  0  0  0  0  0  0  0  0  0
  176.5290   22.8870   53.3760 O   0  0  0  0  0  0  0  0  0  0  0  0
  177.1710   22.3860   51.1650 C   0  0  0  0  0  0  0  0  0  0  0  0
  178.2850   21.7130   51.6330 O   0  0  0  0  0  0  0  0  0  0  0  0
  177.2520   20.8380   48.0750 C   0  0  0  0  0  0  0  0  0  0  0  0
  178.0140   20.2660   47.0370 C   0  0  0  0  0  0  0  0  0  0  0  0
  177.4800   19.0420   46.3420 C   0  0  0  0  0  0  0  0  0  0  0  0
  181.5344   19.3384   46.9083 H   0  0  0  0  0  0  0  0  0  0  0  0
  181.8217   19.1768   45.0317 H   0  0  0  0  0  0  0  0  0  0  0  0
  180.6650   22.4240   47.1491 H   0  0  0  0  0  0  0  0  0  0  0  0
  179.2876   23.4184   48.9617 H   0  0  0  0  0  0  0  0  0  0  0  0
  173.6334   24.5483   48.7286 H   0  0  0  0  0  0  0  0  0  0  0  0
  172.0167   25.6268   50.2958 H   0  0  0  0  0  0  0  0  0  0  0  0
  172.3805   25.4834   52.7612 H   0  0  0  0  0  0  0  0  0  0  0  0
  174.8650   23.6220   54.3300 H   0  0  0  0  0  0  0  0  0  0  0  0
  178.5150   20.8800   51.2710 H   0  0  0  0  0  0  0  0  0  0  0  0
  176.2912   20.3779   48.3494 H   0  0  0  0  0  0  0  0  0  0  0  0
  177.1585   18.3051   47.0927 H   0  0  0  0  0  0  0  0  0  0  0  0
  176.6224   19.3225   45.7127 H   0  0  0  0  0  0  0  0  0  0  0  0
  178.2689   18.6041   45.7127 H   0  0  0  0  0  0  0  0  0  0  0  0
  1  2  2  0
  2  3  1  0
  2  4  1  0
  4  5  2  0
  5  6  1  0
  6  7  2  0
  7  8  1  0
  8  9  1  0
  9 10  1  0
 10 11  2  0
 11 12  1  0
 12 13  2  0
 13 14  1  0
 14 15  1  0
 14 16  2  0
 16 17  1  0
 17 18  2  0
 17 19  1  0
 19 20  1  0
  7 21  1  0
 21 22  2  0
 22 23  1  0
 22  4  1  0
 19  8  2  0
 16 10  1  0
  1 24  1  0
  1 25  1  0
  5 26  1  0
  6 27  1  0
 11 28  1  0
 12 29  1  0
 13 30  1  0
 15 31  1  0
 20 32  1  0
 21 33  1  0
 23 34  1  0
 23 35  1  0
 23 36  1  0
M  END
>  <meeko>  (4) 
{"is_sidechain": [false], "free_energy": -7.609, "intermolecular_energy": -8.628, "internal_energy": -0.541}

$$$$
cand_015_out
     RDKit          3D

 36 38  0  0  0  0  0  0  0  0999 V2000
  176.6760   23.7390   48.6450 C   0  0  0  0  0  0  0  0  0  0  0  0
  176.7190   22.4330   48.9300 C   0  0  0  0  0  0  0  0  0  0  0  0
  176.0720   22.0060   50.0370 F   0  0  0  0  0  0  0  0  0  0  0  0
  177.4530   21.4290   48.1400 C   0  0  0  0  0  0  0  0  0  0  0  0
  178.8550   21.3660   48.2270 C   0  0  0  0  0  0  0  0  0  0  0  0
  179.5870   20.4440   47.4720 C   0  0  0  0  0  0  0  0  0  0  0  0
  178.9420   19.5570   46.6070 C   0  0  0  0  0  0  0  0  0  0  0  0
  179.6940   18.5940   45.7750 C   0  0  0  0  0  0  0  0  0  0  0  0
  179.1890   17.3020   45.8530 O   0  0  0  0  0  0  0  0  0  0  0  0
  179.7950   16.3080   45.1290 C   0  0  0  0  0  0  0  0  0  0  0  0
  179.2450   15.0280   45.2260 C   0  0  0  0  0  0  0  0  0  0  0  0
  179.8160   13.9690   44.5160 C   0  0  0  0  0  0  0  0  0  0  0  0
  180.9350   14.1900   43.7100 C   0  0  0  0  0  0  0  0  0  0  0  0
  181.4810   15.4670   43.6150 C   0  0  0  0  0  0  0  0  0  0  0  0
  182.5760   15.6130   42.8080 O   0  0  0  0  0  0  0  0  0  0  0  0
  180.9090   16.5260   44.3260 C   0  0  0  0  0  0  0  0  0  0  0  0
  181.4510   17.8840   44.2530 C   0  0  0  0  0  0  0  0  0  0  0  0
  182.4380   18.1560   43.5730 O   0  0  0  0  0  0  0  0  0  0  0  0
  180.7680   18.9360   45.0400 C   0  0  0  0  0  0  0  0  0  0  0  0
  181.2960   20.2130   44.9750 O   0  0  0  0  0  0  0  0  0  0  0  0
  177.5440   19.6290   46.5040 C   0  0  0  0  0  0  0  0  0  0  0  0
  176.7900   20.5440   47.2640 C   0  0  0  0  0  0  0  0  0  0  0  0
  175.2930   20.5580   47.0960 C   0  0  0  0  0  0  0  0  0  0  0  0
  177.1905   24.1244   47.7524 H   0  0  0  0  0  0  0  0  0  0  0  0
  176.1261   24.4278   49.3032 H   0  0  0  0  0  0  0  0  0  0  0  0
  179.3857   22.0544   48.9011 H   0  0  0  0  0  0  0  0  0  0  0  0
  180.6831   20.4170   47.5604 H   0  0  0  0  0  0  0  0  0  0  0  0
  178.3635   14.8539   45.8605 H   0  0  0  0  0  0  0  0  0  0  0  0
  179.3839   12.9603   44.5918 H   0  0  0  0  0  0  0  0  0  0  0  0
  181.3843   13.3560   43.1509 H   0  0  0  0  0  0  0  0  0  0  0  0
  183.1670   16.3270   42.9450 H   0  0  0  0  0  0  0  0  0  0  0  0
  182.2120   20.3490   45.1180 H   0  0  0  0  0  0  0  0  0  0  0  0
  177.0231   18.9522   45.8107 H   0  0  0  0  0  0  0  0  0  0  0  0
  174.8130   20.5625   48.0857 H   0  0  0  0  0  0  0  0  0  0  0  0
  174.9949   21.4590   46.5398 H   0  0  0  0  0  0  0  0  0  0  0  0
  174.9781   19.6628   46.5398 H   0  0  0  0  0  0  0  0  0  0  0  0
  1  2  2  0
  2  3  1  0
  2  4  1  0
  4  5  2  0
  5  6  1  0
  6  7  2  0
  7  8  1  0
  8  9  1  0
  9 10  1  0
 10 11  2  0
 11 12  1  0
 12 13  2  0
 13 14  1  0
 14 15  1  0
 14 16  2  0
 16 17  1  0
 17 18  2  0
 17 19  1  0
 19 20  1  0
  7 21  1  0
 21 22  2  0
 22 23  1  0
 22  4  1  0
 19  8  2  0
 16 10  1  0
  1 24  1  0
  1 25  1  0
  5 26  1  0
  6 27  1  0
 11 28  1  0
 12 29  1  0
 13 30  1  0
 15 31  1  0
 20 32  1  0
 21 33  1  0
 23 34  1  0
 23 35  1  0
 23 36  1  0
M  END
>  <meeko>  (5) 
{"is_sidechain": [false], "free_energy": -7.53, "intermolecular_energy": -8.768, "internal_energy": -0.308}

$$$$
cand_015_out
     RDKit          3D

 36 38  0  0  0  0  0  0  0  0999 V2000
  170.8800   25.2140   50.8750 C   0  0  0  0  0  0  0  0  0  0  0  0
  171.7620   25.4120   49.8890 C   0  0  0  0  0  0  0  0  0  0  0  0
  171.3840   26.1880   48.8490 F   0  0  0  0  0  0  0  0  0  0  0  0
  173.1080   24.8150   49.8390 C   0  0  0  0  0  0  0  0  0  0  0  0
  173.2480   23.4350   49.6090 C   0  0  0  0  0  0  0  0  0  0  0  0
  174.5080   22.8290   49.5810 C   0  0  0  0  0  0  0  0  0  0  0  0
  175.6670   23.5820   49.7830 C   0  0  0  0  0  0  0  0  0  0  0  0
  177.0090   22.9610   49.7890 C   0  0  0  0  0  0  0  0  0  0  0  0
  177.4470   22.6070   48.5180 O   0  0  0  0  0  0  0  0  0  0  0  0
  178.6780   22.0200   48.3810 C   0  0  0  0  0  0  0  0  0  0  0  0
  179.0840   21.6950   47.0850 C   0  0  0  0  0  0  0  0  0  0  0  0
  180.3270   21.0920   46.8750 C   0  0  0  0  0  0  0  0  0  0  0  0
  181.1620   20.8150   47.9590 C   0  0  0  0  0  0  0  0  0  0  0  0
  180.7550   21.1410   49.2500 C   0  0  0  0  0  0  0  0  0  0  0  0
  181.6220   20.8420   50.2660 O   0  0  0  0  0  0  0  0  0  0  0  0
  179.5120   21.7450   49.4600 C   0  0  0  0  0  0  0  0  0  0  0  0
  179.0460   22.1030   50.8000 C   0  0  0  0  0  0  0  0  0  0  0  0
  179.7200   21.8850   51.8050 O   0  0  0  0  0  0  0  0  0  0  0  0
  177.7160   22.7450   50.9130 C   0  0  0  0  0  0  0  0  0  0  0  0
  177.2790   23.0680   52.1850 O   0  0  0  0  0  0  0  0  0  0  0  0
  175.5310   24.9570   50.0300 C   0  0  0  0  0  0  0  0  0  0  0  0
  174.2700   25.5860   50.0520 C   0  0  0  0  0  0  0  0  0  0  0  0
  174.2090   27.0660   50.3240 C   0  0  0  0  0  0  0  0  0  0  0  0
  171.1512   24.5884   51.7381 H   0  0  0  0  0  0  0  0  0  0  0  0
  169.8835   25.6768   50.8227 H   0  0  0  0  0  0  0  0  0  0  0  0
  172.3498   22.8207   49.4481 H   0  0  0  0  0  0  0  0  0  0  0  0
  174.5873   21.7473   49.3979 H   0  0  0  0  0  0  0  0  0  0  0  0
  178.4263   21.9133   46.2307 H   0  0  0  0  0  0  0  0  0  0  0  0
  180.6478   20.8353   45.8546 H   0  0  0  0  0  0  0  0  0  0  0  0
  182.1402   20.3398   47.7934 H   0  0  0  0  0  0  0  0  0  0  0  0
  181.2920   20.6490   51.1210 H   0  0  0  0  0  0  0  0  0  0  0  0
  177.3730   22.4500   52.8840 H   0  0  0  0  0  0  0  0  0  0  0  0
  176.4330   25.5599   50.2113 H   0  0  0  0  0  0  0  0  0  0  0  0
  174.2019   27.2392   51.4103 H   0  0  0  0  0  0  0  0  0  0  0  0
  175.0877   27.5569   49.8802 H   0  0  0  0  0  0  0  0  0  0  0  0
  173.2929   27.4829   49.8802 H   0  0  0  0  0  0  0  0  0  0  0  0
  1  2  2  0
  2  3  1  0
  2  4  1  0
  4  5  2  0
  5  6  1  0
  6  7  2  0
  7  8  1  0
  8  9  1  0
  9 10  1  0
 10 11  2  0
 11 12  1  0
 12 13  2  0
 13 14  1  0
 14 15  1  0
 14 16  2  0
 16 17  1  0
 17 18  2  0
 17 19  1  0
 19 20  1  0
  7 21  1  0
 21 22  2  0
 22 23  1  0
 22  4  1  0
 19  8  2  0
 16 10  1  0
  1 24  1  0
  1 25  1  0
  5 26  1  0
  6 27  1  0
 11 28  1  0
 12 29  1  0
 13 30  1  0
 15 31  1  0
 20 32  1  0
 21 33  1  0
 23 34  1  0
 23 35  1  0
 23 36  1  0
M  END
>  <meeko>  (6) 
{"is_sidechain": [false], "free_energy": -7.419, "intermolecular_energy": -8.416, "internal_energy": -0.529}

$$$$
cand_015_out
     RDKit          3D

 36 38  0  0  0  0  0  0  0  0999 V2000
  185.9490   23.7930   48.7700 C   0  0  0  0  0  0  0  0  0  0  0  0
  185.0270   23.4260   47.8740 C   0  0  0  0  0  0  0  0  0  0  0  0
  185.3840   23.4080   46.5710 F   0  0  0  0  0  0  0  0  0  0  0  0
  183.6350   23.0720   48.2040 C   0  0  0  0  0  0  0  0  0  0  0  0
  183.3540   21.8210   48.7800 C   0  0  0  0  0  0  0  0  0  0  0  0
  182.0420   21.4390   49.0810 C   0  0  0  0  0  0  0  0  0  0  0  0
  180.9710   22.2960   48.8160 C   0  0  0  0  0  0  0  0  0  0  0  0
  179.5730   21.9060   49.0960 C   0  0  0  0  0  0  0  0  0  0  0  0
  178.8610   21.5840   47.9460 O   0  0  0  0  0  0  0  0  0  0  0  0
  177.5490   21.2040   48.0640 C   0  0  0  0  0  0  0  0  0  0  0  0
  176.8760   20.8770   46.8850 C   0  0  0  0  0  0  0  0  0  0  0  0
  175.5370   20.4830   46.9340 C   0  0  0  0  0  0  0  0  0  0  0  0
  174.8710   20.4180   48.1600 C   0  0  0  0  0  0  0  0  0  0  0  0
  175.5440   20.7450   49.3340 C   0  0  0  0  0  0  0  0  0  0  0  0
  174.8320   20.6590   50.4990 O   0  0  0  0  0  0  0  0  0  0  0  0
  176.8850   21.1380   49.2840 C   0  0  0  0  0  0  0  0  0  0  0  0
  177.6290   21.4900   50.4950 C   0  0  0  0  0  0  0  0  0  0  0  0
  177.1110   21.4640   51.6090 O   0  0  0  0  0  0  0  0  0  0  0  0
  179.0470   21.8870   50.3340 C   0  0  0  0  0  0  0  0  0  0  0  0
  179.7380   22.2300   51.4830 O   0  0  0  0  0  0  0  0  0  0  0  0
  181.2460   23.5390   48.2250 C   0  0  0  0  0  0  0  0  0  0  0  0
  182.5620   23.9430   47.9240 C   0  0  0  0  0  0  0  0  0  0  0  0
  182.7720   25.2930   47.2890 C   0  0  0  0  0  0  0  0  0  0  0  0
  185.6959   23.8200   49.8401 H   0  0  0  0  0  0  0  0  0  0  0  0
  186.9607   24.0680   48.4370 H   0  0  0  0  0  0  0  0  0  0  0  0
  184.1810   21.1293   48.9982 H   0  0  0  0  0  0  0  0  0  0  0  0
  181.8519   20.4535   49.5311 H   0  0  0  0  0  0  0  0  0  0  0  0
  177.3997   20.9296   45.9191 H   0  0  0  0  0  0  0  0  0  0  0  0
  175.0063   20.2236   46.0060 H   0  0  0  0  0  0  0  0  0  0  0  0
  173.8160   20.1088   48.1979 H   0  0  0  0  0  0  0  0  0  0  0  0
  175.2030   20.2280   51.2430 H   0  0  0  0  0  0  0  0  0  0  0  0
  180.4010   21.6600   51.8180 H   0  0  0  0  0  0  0  0  0  0  0  0
  180.4115   24.2162   47.9904 H   0  0  0  0  0  0  0  0  0  0  0  0
  182.8903   26.0535   48.0749 H   0  0  0  0  0  0  0  0  0  0  0  0
  183.6770   25.2675   46.6642 H   0  0  0  0  0  0  0  0  0  0  0  0
  181.9020   25.5437   46.6642 H   0  0  0  0  0  0  0  0  0  0  0  0
  1  2  2  0
  2  3  1  0
  2  4  1  0
  4  5  2  0
  5  6  1  0
  6  7  2  0
  7  8  1  0
  8  9  1  0
  9 10  1  0
 10 11  2  0
 11 12  1  0
 12 13  2  0
 13 14  1  0
 14 15  1  0
 14 16  2  0
 16 17  1  0
 17 18  2  0
 17 19  1  0
 19 20  1  0
  7 21  1  0
 21 22  2  0
 22 23  1  0
 22  4  1  0
 19  8  2  0
 16 10  1  0
  1 24  1  0
  1 25  1  0
  5 26  1  0
  6 27  1  0
 11 28  1  0
 12 29  1  0
 13 30  1  0
 15 31  1  0
 20 32  1  0
 21 33  1  0
 23 34  1  0
 23 35  1  0
 23 36  1  0
M  END
>  <meeko>  (7) 
{"is_sidechain": [false], "free_energy": -7.382, "intermolecular_energy": -8.35, "internal_energy": -0.551}

$$$$
cand_015_out
     RDKit          3D

 36 38  0  0  0  0  0  0  0  0999 V2000
  175.3610   19.8600   47.6030 C   0  0  0  0  0  0  0  0  0  0  0  0
  176.0780   20.7980   46.9760 C   0  0  0  0  0  0  0  0  0  0  0  0
  175.5070   21.4340   45.9280 F   0  0  0  0  0  0  0  0  0  0  0  0
  177.4620   21.1640   47.3230 C   0  0  0  0  0  0  0  0  0  0  0  0
  178.5090   20.2720   47.0350 C   0  0  0  0  0  0  0  0  0  0  0  0
  179.8330   20.5730   47.3740 C   0  0  0  0  0  0  0  0  0  0  0  0
  180.1500   21.7750   48.0120 C   0  0  0  0  0  0  0  0  0  0  0  0
  181.5350   22.1050   48.4090 C   0  0  0  0  0  0  0  0  0  0  0  0
  182.3140   22.5410   47.3430 O   0  0  0  0  0  0  0  0  0  0  0  0
  183.6220   22.8800   47.5730 C   0  0  0  0  0  0  0  0  0  0  0  0
  184.3630   23.3260   46.4770 C   0  0  0  0  0  0  0  0  0  0  0  0
  185.7030   23.6860   46.6420 C   0  0  0  0  0  0  0  0  0  0  0  0
  186.3010   23.5990   47.9010 C   0  0  0  0  0  0  0  0  0  0  0  0
  185.5600   23.1540   48.9920 C   0  0  0  0  0  0  0  0  0  0  0  0
  186.2070   23.0930   50.1950 O   0  0  0  0  0  0  0  0  0  0  0  0
  184.2190   22.7950   48.8260 C   0  0  0  0  0  0  0  0  0  0  0  0
  183.4040   22.3220   49.9470 C   0  0  0  0  0  0  0  0  0  0  0  0
  183.8600   22.2110   51.0830 O   0  0  0  0  0  0  0  0  0  0  0  0
  181.9920   21.9730   49.6670 C   0  0  0  0  0  0  0  0  0  0  0  0
  181.2350   21.5150   50.7300 O   0  0  0  0  0  0  0  0  0  0  0  0
  179.1050   22.6610   48.3170 C   0  0  0  0  0  0  0  0  0  0  0  0
  177.7670   22.3770   47.9740 C   0  0  0  0  0  0  0  0  0  0  0  0
  176.7040   23.3800   48.3370 C   0  0  0  0  0  0  0  0  0  0  0  0
  175.7907   19.3204   48.4599 H   0  0  0  0  0  0  0  0  0  0  0  0
  174.3413   19.6277   47.2621 H   0  0  0  0  0  0  0  0  0  0  0  0
  178.2836   19.3192   46.5336 H   0  0  0  0  0  0  0  0  0  0  0  0
  180.6324   19.8559   47.1357 H   0  0  0  0  0  0  0  0  0  0  0  0
  183.8926   23.3939   45.4850 H   0  0  0  0  0  0  0  0  0  0  0  0
  186.2875   24.0383   45.7793 H   0  0  0  0  0  0  0  0  0  0  0  0
  187.3561   23.8818   48.0303 H   0  0  0  0  0  0  0  0  0  0  0  0
  187.1020   23.3610   50.2600 H   0  0  0  0  0  0  0  0  0  0  0  0
  181.4840   21.7270   51.6080 H   0  0  0  0  0  0  0  0  0  0  0  0
  179.3359   23.6021   48.8375 H   0  0  0  0  0  0  0  0  0  0  0  0
  176.6270   23.4526   49.4319 H   0  0  0  0  0  0  0  0  0  0  0  0
  176.9706   24.3633   47.9221 H   0  0  0  0  0  0  0  0  0  0  0  0
  175.7379   23.0567   47.9221 H   0  0  0  0  0  0  0  0  0  0  0  0
  1  2  2  0
  2  3  1  0
  2  4  1  0
  4  5  2  0
  5  6  1  0
  6  7  2  0
  7  8  1  0
  8  9  1  0
  9 10  1  0
 10 11  2  0
 11 12  1  0
 12 13  2  0
 13 14  1  0
 14 15  1  0
 14 16  2  0
 16 17  1  0
 17 18  2  0
 17 19  1  0
 19 20  1  0
  7 21  1  0
 21 22  2  0
 22 23  1  0
 22  4  1  0
 19  8  2  0
 16 10  1  0
  1 24  1  0
  1 25  1  0
  5 26  1  0
  6 27  1  0
 11 28  1  0
 12 29  1  0
 13 30  1  0
 15 31  1  0
 20 32  1  0
 21 33  1  0
 23 34  1  0
 23 35  1  0
 23 36  1  0
M  END
>  <meeko>  (8) 
{"is_sidechain": [false], "free_energy": -7.365, "intermolecular_energy": -8.325, "internal_energy": -0.557}

$$$$
cand_015_out
     RDKit          3D

 36 38  0  0  0  0  0  0  0  0999 V2000
  175.5940   18.9240   47.2730 C   0  0  0  0  0  0  0  0  0  0  0  0
  175.9710   20.2060   47.2390 C   0  0  0  0  0  0  0  0  0  0  0  0
  175.2340   21.0620   46.4980 F   0  0  0  0  0  0  0  0  0  0  0  0
  177.1570   20.7470   47.9260 C   0  0  0  0  0  0  0  0  0  0  0  0
  177.0490   21.1860   49.2570 C   0  0  0  0  0  0  0  0  0  0  0  0
  178.1460   21.7310   49.9320 C   0  0  0  0  0  0  0  0  0  0  0  0
  179.3850   21.8530   49.2980 C   0  0  0  0  0  0  0  0  0  0  0  0
  180.5530   22.4530   49.9790 C   0  0  0  0  0  0  0  0  0  0  0  0
  180.3780   23.8030   50.2620 O   0  0  0  0  0  0  0  0  0  0  0  0
  181.3870   24.4830   50.8940 C   0  0  0  0  0  0  0  0  0  0  0  0
  181.1640   25.8330   51.1720 C   0  0  0  0  0  0  0  0  0  0  0  0
  182.1520   26.5850   51.8110 C   0  0  0  0  0  0  0  0  0  0  0  0
  183.3620   25.9890   52.1720 C   0  0  0  0  0  0  0  0  0  0  0  0
  183.5820   24.6430   51.8930 C   0  0  0  0  0  0  0  0  0  0  0  0
  184.7890   24.1220   52.2740 O   0  0  0  0  0  0  0  0  0  0  0  0
  182.5920   23.8900   51.2540 C   0  0  0  0  0  0  0  0  0  0  0  0
  182.7830   22.4730   50.9430 C   0  0  0  0  0  0  0  0  0  0  0  0
  183.8230   21.8790   51.2220 O   0  0  0  0  0  0  0  0  0  0  0  0
  181.6710   21.7640   50.2700 C   0  0  0  0  0  0  0  0  0  0  0  0
  181.8660   20.4280   49.9690 O   0  0  0  0  0  0  0  0  0  0  0  0
  179.4930   21.4320   47.9640 C   0  0  0  0  0  0  0  0  0  0  0  0
  178.4000   20.8730   47.2720 C   0  0  0  0  0  0  0  0  0  0  0  0
  178.5980   20.4460   45.8410 C   0  0  0  0  0  0  0  0  0  0  0  0
  176.1691   18.1971   47.8654 H   0  0  0  0  0  0  0  0  0  0  0  0
  174.7087   18.5959   46.7086 H   0  0  0  0  0  0  0  0  0  0  0  0
  176.0837   21.0993   49.7773 H   0  0  0  0  0  0  0  0  0  0  0  0
  178.0321   22.0672   50.9732 H   0  0  0  0  0  0  0  0  0  0  0  0
  180.2112   26.3036   50.8880 H   0  0  0  0  0  0  0  0  0  0  0  0
  181.9768   27.6486   52.0303 H   0  0  0  0  0  0  0  0  0  0  0  0
  184.1397   26.5818   52.6758 H   0  0  0  0  0  0  0  0  0  0  0  0
  185.5240   24.1750   51.6960 H   0  0  0  0  0  0  0  0  0  0  0  0
  181.4090   19.7670   50.4510 H   0  0  0  0  0  0  0  0  0  0  0  0
  180.4564   21.5412   47.4445 H   0  0  0  0  0  0  0  0  0  0  0  0
  179.0607   19.4483   45.8167 H   0  0  0  0  0  0  0  0  0  0  0  0
  177.6242   20.4111   45.3307 H   0  0  0  0  0  0  0  0  0  0  0  0
  179.2538   21.1668   45.3307 H   0  0  0  0  0  0  0  0  0  0  0  0
  1  2  2  0
  2  3  1  0
  2  4  1  0
  4  5  2  0
  5  6  1  0
  6  7  2  0
  7  8  1  0
  8  9  1  0
  9 10  1  0
 10 11  2  0
 11 12  1  0
 12 13  2  0
 13 14  1  0
 14 15  1  0
 14 16  2  0
 16 17  1  0
 17 18  2  0
 17 19  1  0
 19 20  1  0
  7 21  1  0
 21 22  2  0
 22 23  1  0
 22  4  1  0
 19  8  2  0
 16 10  1  0
  1 24  1  0
  1 25  1  0
  5 26  1  0
  6 27  1  0
 11 28  1  0
 12 29  1  0
 13 30  1  0
 15 31  1  0
 20 32  1  0
 21 33  1  0
 23 34  1  0
 23 35  1  0
 23 36  1  0
M  END
>  <meeko>  (9) 
{"is_sidechain": [false], "free_energy": -7.193, "intermolecular_energy": -8.218, "internal_energy": -0.461}

$$$$
