cand_008_out
     RDKit          3D

 35 37  0  0  0  0  0  0  0  0999 V2000
  180.4040   21.8170   48.3990 O   0  0  0  0  0  0  0  0  0  0  0  0
  179.7190   21.0350   47.7440 C   0  0  0  0  0  0  0  0  0  0  0  0
  180.3610   19.9910   46.9100 C   0  0  0  0  0  0  0  0  0  0  0  0
  181.7440   19.9570   46.8990 O   0  0  0  0  0  0  0  0  0  0  0  0
  179.5750   19.1560   46.2070 C   0  0  0  0  0  0  0  0  0  0  0  0
  180.1050   18.0880   45.3330 C   0  0  0  0  0  0  0  0  0  0  0  0
  181.0470   18.3530   44.3340 C   0  0  0  0  0  0  0  0  0  0  0  0
  181.5530   17.3250   43.5340 C   0  0  0  0  0  0  0  0  0  0  0  0
  181.1320   15.9980   43.7160 C   0  0  0  0  0  0  0  0  0  0  0  0
  181.7000   14.9060   42.8370 C   0  0  0  0  0  0  0  0  0  0  0  0
  183.0180   15.0920   42.5360 F   0  0  0  0  0  0  0  0  0  0  0  0
  181.0630   14.8300   41.6350 F   0  0  0  0  0  0  0  0  0  0  0  0
  180.1990   15.7090   44.7370 C   0  0  0  0  0  0  0  0  0  0  0  0
  179.7140   14.2970   44.9800 C   0  0  0  0  0  0  0  0  0  0  0  0
  180.6800   13.5110   45.5340 F   0  0  0  0  0  0  0  0  0  0  0  0
  178.6600   14.2330   45.8430 F   0  0  0  0  0  0  0  0  0  0  0  0
  179.6950   16.7600   45.5270 C   0  0  0  0  0  0  0  0  0  0  0  0
  178.1860   19.2170   46.2030 O   0  0  0  0  0  0  0  0  0  0  0  0
  177.5630   20.1680   46.9710 C   0  0  0  0  0  0  0  0  0  0  0  0
  176.1670   20.1850   46.9460 C   0  0  0  0  0  0  0  0  0  0  0  0
  175.4700   21.1280   47.7040 C   0  0  0  0  0  0  0  0  0  0  0  0
  176.1670   22.0530   48.4860 C   0  0  0  0  0  0  0  0  0  0  0  0
  177.5590   22.0330   48.5080 C   0  0  0  0  0  0  0  0  0  0  0  0
  178.1780   22.9660   49.2930 O   0  0  0  0  0  0  0  0  0  0  0  0
  178.2570   21.0880   47.7500 C   0  0  0  0  0  0  0  0  0  0  0  0
  182.2040   19.4230   47.5150 H   0  0  0  0  0  0  0  0  0  0  0  0
  181.3944   19.3846   44.1758 H   0  0  0  0  0  0  0  0  0  0  0  0
  182.2904   17.5584   42.7518 H   0  0  0  0  0  0  0  0  0  0  0  0
  181.5601   13.9912   43.4316 H   0  0  0  0  0  0  0  0  0  0  0  0
  179.4221   13.9442   43.9798 H   0  0  0  0  0  0  0  0  0  0  0  0
  178.9619   16.5346   46.3155 H   0  0  0  0  0  0  0  0  0  0  0  0
  175.6177   19.4573   46.3306 H   0  0  0  0  0  0  0  0  0  0  0  0
  174.3703   21.1428   47.6856 H   0  0  0  0  0  0  0  0  0  0  0  0
  175.6170   22.7954   49.0829 H   0  0  0  0  0  0  0  0  0  0  0  0
  179.1070   22.9360   49.4110 H   0  0  0  0  0  0  0  0  0  0  0  0
  1  2  2  0
  2  3  1  0
  3  4  1  0
  3  5  2  0
  5  6  1  0
  6  7  2  0
  7  8  1  0
  8  9  2  0
  9 10  1  0
 10 11  1  0
 10 12  1  0
  9 13  1  0
 13 14  1  0
 14 15  1  0
 14 16  1  0
 13 17  2  0
  5 18  1  0
 18 19  1  0
 19 20  2  0
 20 21  1  0
 21 22  2  0
 22 23  1  0
 23 24  1  0
 23 25  2  0
 25  2  1  0
 17  6  1  0
 25 19  1  0
  4 26  1  0
  7 27  1  0
  8 28  1  0
 10 29  1  0
 14 30  1  0
 17 31  1  0
 20 32  1  0
 21 33  1  0
 22 34  1  0
 24 35  1  0
M  END
>  <meeko>  (1) 
{"is_sidechain": [false], "free_energy": -8.27, "intermolecular_energy": -10.204, "internal_energy": -0.427}

$$$$
cand_008_out
     RDKit          3D

 35 37  0  0  0  0  0  0  0  0999 V2000
  171.0460   23.7710   51.5900 O   0  0  0  0  0  0  0  0  0  0  0  0
  172.2660   23.6410   51.6700 C   0  0  0  0  0  0  0  0  0  0  0  0
  173.0430   23.1140   50.5240 C   0  0  0  0  0  0  0  0  0  0  0  0
  172.3330   22.7680   49.3880 O   0  0  0  0  0  0  0  0  0  0  0  0
  174.3760   22.9860   50.6550 C   0  0  0  0  0  0  0  0  0  0  0  0
  175.2480   22.4600   49.5830 C   0  0  0  0  0  0  0  0  0  0  0  0
  176.1750   23.2730   48.9230 C   0  0  0  0  0  0  0  0  0  0  0  0
  177.0050   22.7510   47.9280 C   0  0  0  0  0  0  0  0  0  0  0  0
  176.9340   21.3960   47.5680 C   0  0  0  0  0  0  0  0  0  0  0  0
  177.8490   20.8590   46.4900 C   0  0  0  0  0  0  0  0  0  0  0  0
  178.8700   21.7080   46.1820 F   0  0  0  0  0  0  0  0  0  0  0  0
  177.1900   20.6460   45.3160 F   0  0  0  0  0  0  0  0  0  0  0  0
  176.0190   20.5550   48.2420 C   0  0  0  0  0  0  0  0  0  0  0  0
  175.9020   19.0870   47.8980 C   0  0  0  0  0  0  0  0  0  0  0  0
  175.7730   18.3090   49.0100 F   0  0  0  0  0  0  0  0  0  0  0  0
  174.8110   18.8010   47.1310 F   0  0  0  0  0  0  0  0  0  0  0  0
  175.1850   21.1020   49.2360 C   0  0  0  0  0  0  0  0  0  0  0  0
  175.0760   23.3090   51.8110 O   0  0  0  0  0  0  0  0  0  0  0  0
  174.3850   23.8070   52.8870 C   0  0  0  0  0  0  0  0  0  0  0  0
  175.1300   24.1300   54.0230 C   0  0  0  0  0  0  0  0  0  0  0  0
  174.4880   24.6400   55.1530 C   0  0  0  0  0  0  0  0  0  0  0  0
  173.1040   24.8270   55.1480 C   0  0  0  0  0  0  0  0  0  0  0  0
  172.3640   24.5050   54.0140 C   0  0  0  0  0  0  0  0  0  0  0  0
  171.0140   24.7120   54.0770 O   0  0  0  0  0  0  0  0  0  0  0  0
  173.0060   23.9940   52.8820 C   0  0  0  0  0  0  0  0  0  0  0  0
  171.4310   22.5250   49.4550 H   0  0  0  0  0  0  0  0  0  0  0  0
  176.2515   24.3372   49.1908 H   0  0  0  0  0  0  0  0  0  0  0  0
  177.7238   23.4105   47.4198 H   0  0  0  0  0  0  0  0  0  0  0  0
  178.2360   19.9221   46.9171 H   0  0  0  0  0  0  0  0  0  0  0  0
  176.8315   18.8705   47.3511 H   0  0  0  0  0  0  0  0  0  0  0  0
  174.4667   20.4488   49.7530 H   0  0  0  0  0  0  0  0  0  0  0  0
  176.2201   23.9830   54.0276 H   0  0  0  0  0  0  0  0  0  0  0  0
  175.0733   24.8950   56.0488 H   0  0  0  0  0  0  0  0  0  0  0  0
  172.5993   25.2283   56.0392 H   0  0  0  0  0  0  0  0  0  0  0  0
  170.5970   25.2720   53.4520 H   0  0  0  0  0  0  0  0  0  0  0  0
  1  2  2  0
  2  3  1  0
  3  4  1  0
  3  5  2  0
  5  6  1  0
  6  7  2  0
  7  8  1  0
  8  9  2  0
  9 10  1  0
 10 11  1  0
 10 12  1  0
  9 13  1  0
 13 14  1  0
 14 15  1  0
 14 16  1  0
 13 17  2  0
  5 18  1  0
 18 19  1  0
 19 20  2  0
 20 21  1  0
 21 22  2  0
 22 23  1  0
 23 24  1  0
 23 25  2  0
 25  2  1  0
 17  6  1  0
 25 19  1  0
  4 26  1  0
  7 27  1  0
  8 28  1  0
 10 29  1  0
 14 30  1  0
 17 31  1  0
 20 32  1  0
 21 33  1  0
 22 34  1  0
 24 35  1  0
M  END
>  <meeko>  (2) 
{"is_sidechain": [false], "free_energy": -7.754, "intermolecular_energy": -9.386, "internal_energy": -0.608}

$$$$
cand_008_out
     RDKit          3D

 35 37  0  0  0  0  0  0  0  0999 V2000
  177.6280   21.0320   47.7620 O   0  0  0  0  0  0  0  0  0  0  0  0
  178.7480   20.6130   47.4780 C   0  0  0  0  0  0  0  0  0  0  0  0
  178.9140   19.5250   46.4860 C   0  0  0  0  0  0  0  0  0  0  0  0
  177.7620   19.0070   45.9210 O   0  0  0  0  0  0  0  0  0  0  0  0
  180.1580   19.0950   46.2050 C   0  0  0  0  0  0  0  0  0  0  0  0
  180.4410   18.0080   45.2430 C   0  0  0  0  0  0  0  0  0  0  0  0
  181.1630   18.2360   44.0670 C   0  0  0  0  0  0  0  0  0  0  0  0
  181.4390   17.1910   43.1820 C   0  0  0  0  0  0  0  0  0  0  0  0
  181.0020   15.8840   43.4510 C   0  0  0  0  0  0  0  0  0  0  0  0
  181.3190   14.7720   42.4760 C   0  0  0  0  0  0  0  0  0  0  0  0
  182.6490   14.6770   42.1860 F   0  0  0  0  0  0  0  0  0  0  0  0
  180.7000   14.9500   41.2750 F   0  0  0  0  0  0  0  0  0  0  0  0
  180.2910   15.6320   44.6470 C   0  0  0  0  0  0  0  0  0  0  0  0
  179.8000   14.2440   44.9900 C   0  0  0  0  0  0  0  0  0  0  0  0
  180.7730   13.4850   45.5710 F   0  0  0  0  0  0  0  0  0  0  0  0
  178.7670   14.2450   45.8800 F   0  0  0  0  0  0  0  0  0  0  0  0
  180.0160   16.7000   45.5220 C   0  0  0  0  0  0  0  0  0  0  0  0
  181.3070   19.6030   46.7990 O   0  0  0  0  0  0  0  0  0  0  0  0
  181.1860   20.6160   47.7160 C   0  0  0  0  0  0  0  0  0  0  0  0
  182.3660   21.1040   48.2790 C   0  0  0  0  0  0  0  0  0  0  0  0
  182.3140   22.1340   49.2200 C   0  0  0  0  0  0  0  0  0  0  0  0
  181.0830   22.6760   49.5980 C   0  0  0  0  0  0  0  0  0  0  0  0
  179.9080   22.1870   49.0350 C   0  0  0  0  0  0  0  0  0  0  0  0
  178.7390   22.7620   49.4500 O   0  0  0  0  0  0  0  0  0  0  0  0
  179.9600   21.1560   48.0920 C   0  0  0  0  0  0  0  0  0  0  0  0
  177.8160   18.4730   45.1540 H   0  0  0  0  0  0  0  0  0  0  0  0
  181.5180   19.2512   43.8360 H   0  0  0  0  0  0  0  0  0  0  0  0
  182.0064   17.3948   42.2619 H   0  0  0  0  0  0  0  0  0  0  0  0
  180.9648   13.8650   42.9877 H   0  0  0  0  0  0  0  0  0  0  0  0
  179.4809   13.8318   44.0213 H   0  0  0  0  0  0  0  0  0  0  0  0
  179.4541   16.5044   46.4472 H   0  0  0  0  0  0  0  0  0  0  0  0
  183.3355   20.6778   47.9818 H   0  0  0  0  0  0  0  0  0  0  0  0
  183.2435   22.5194   49.6644 H   0  0  0  0  0  0  0  0  0  0  0  0
  181.0426   23.4877   50.3392 H   0  0  0  0  0  0  0  0  0  0  0  0
  177.9900   22.7580   48.8860 H   0  0  0  0  0  0  0  0  0  0  0  0
  1  2  2  0
  2  3  1  0
  3  4  1  0
  3  5  2  0
  5  6  1  0
  6  7  2  0
  7  8  1  0
  8  9  2  0
  9 10  1  0
 10 11  1  0
 10 12  1  0
  9 13  1  0
 13 14  1  0
 14 15  1  0
 14 16  1  0
 13 17  2  0
  5 18  1  0
 18 19  1  0
 19 20  2  0
 20 21  1  0
 21 22  2  0
 22 23  1  0
 23 24  1  0
 23 25  2  0
 25  2  1  0
 17  6  1  0
 25 19  1  0
  4 26  1  0
  7 27  1  0
  8 28  1  0
 10 29  1  0
 14 30  1  0
 17 31  1  0
 20 32  1  0
 21 33  1  0
 22 34  1  0
 24 35  1  0
M  END
>  <meeko>  (3) 
{"is_sidechain": [false], "free_energy": -7.73, "intermolecular_energy": -9.426, "internal_energy": -0.539}

$$$$
cand_008_out
     RDKit          3D

 35 37  0  0  0  0  0  0  0  0999 V2000
  176.3100   23.3780   53.9670 O   0  0  0  0  0  0  0  0  0  0  0  0
  176.0500   23.5790   52.7830 C   0  0  0  0  0  0  0  0  0  0  0  0
  176.2390   22.5060   51.7790 C   0  0  0  0  0  0  0  0  0  0  0  0
  176.7280   21.2950   52.2370 O   0  0  0  0  0  0  0  0  0  0  0  0
  175.9440   22.7680   50.4930 C   0  0  0  0  0  0  0  0  0  0  0  0
  176.1060   21.7780   49.4070 C   0  0  0  0  0  0  0  0  0  0  0  0
  175.1570   20.7770   49.1770 C   0  0  0  0  0  0  0  0  0  0  0  0
  175.3180   19.8640   48.1310 C   0  0  0  0  0  0  0  0  0  0  0  0
  176.4330   19.9320   47.2810 C   0  0  0  0  0  0  0  0  0  0  0  0
  176.5760   18.9330   46.1540 C   0  0  0  0  0  0  0  0  0  0  0  0
  175.6710   17.9150   46.2210 F   0  0  0  0  0  0  0  0  0  0  0  0
  177.7980   18.3300   46.1550 F   0  0  0  0  0  0  0  0  0  0  0  0
  177.3880   20.9530   47.4840 C   0  0  0  0  0  0  0  0  0  0  0  0
  178.6060   21.0760   46.5960 C   0  0  0  0  0  0  0  0  0  0  0  0
  179.0990   22.3470   46.5760 F   0  0  0  0  0  0  0  0  0  0  0  0
  179.6470   20.2940   47.0020 F   0  0  0  0  0  0  0  0  0  0  0  0
  177.2130   21.8580   48.5490 C   0  0  0  0  0  0  0  0  0  0  0  0
  175.4810   23.9970   50.0390 O   0  0  0  0  0  0  0  0  0  0  0  0
  175.2890   25.0090   50.9460 C   0  0  0  0  0  0  0  0  0  0  0  0
  174.8110   26.2230   50.4480 C   0  0  0  0  0  0  0  0  0  0  0  0
  174.5950   27.2940   51.3170 C   0  0  0  0  0  0  0  0  0  0  0  0
  174.8560   27.1530   52.6820 C   0  0  0  0  0  0  0  0  0  0  0  0
  175.3330   25.9410   53.1750 C   0  0  0  0  0  0  0  0  0  0  0  0
  175.5680   25.8720   54.5200 O   0  0  0  0  0  0  0  0  0  0  0  0
  175.5490   24.8680   52.3050 C   0  0  0  0  0  0  0  0  0  0  0  0
  176.3600   20.9010   53.0020 H   0  0  0  0  0  0  0  0  0  0  0  0
  174.2727   20.7073   49.8275 H   0  0  0  0  0  0  0  0  0  0  0  0
  174.5610   19.0819   47.9718 H   0  0  0  0  0  0  0  0  0  0  0  0
  176.4179   19.5358   45.2476 H   0  0  0  0  0  0  0  0  0  0  0  0
  178.2428   20.7605   45.6068 H   0  0  0  0  0  0  0  0  0  0  0  0
  177.9624   22.6466   48.7119 H   0  0  0  0  0  0  0  0  0  0  0  0
  174.6051   26.3351   49.3733 H   0  0  0  0  0  0  0  0  0  0  0  0
  174.2185   28.2508   50.9261 H   0  0  0  0  0  0  0  0  0  0  0  0
  174.6852   27.9974   53.3660 H   0  0  0  0  0  0  0  0  0  0  0  0
  176.4310   26.0240   54.8530 H   0  0  0  0  0  0  0  0  0  0  0  0
  1  2  2  0
  2  3  1  0
  3  4  1  0
  3  5  2  0
  5  6  1  0
  6  7  2  0
  7  8  1  0
  8  9  2  0
  9 10  1  0
 10 11  1  0
 10 12  1  0
  9 13  1  0
 13 14  1  0
 14 15  1  0
 14 16  1  0
 13 17  2  0
  5 18  1  0
 18 19  1  0
 19 20  2  0
 20 21  1  0
 21 22  2  0
 22 23  1  0
 23 24  1  0
 23 25  2  0
 25  2  1  0
 17  6  1  0
 25 19  1  0
  4 26  1  0
  7 27  1  0
  8 28  1  0
 10 29  1  0
 14 30  1  0
 17 31  1  0
 20 32  1  0
 21 33  1  0
 22 34  1  0
 24 35  1  0
M  END
>  <meeko>  (4) 
{"is_sidechain": [false], "free_energy": -7.485, "intermolecular_energy": -9.196, "internal_energy": -0.467}

$$$$
cand_008_out
     RDKit          3D

 35 37  0  0  0  0  0  0  0  0999 V2000
  180.3580   22.6230   51.8430 O   0  0  0  0  0  0  0  0  0  0  0  0
  179.6240   22.4370   50.8740 C   0  0  0  0  0  0  0  0  0  0  0  0
  178.2320   22.9430   50.8780 C   0  0  0  0  0  0  0  0  0  0  0  0
  177.8070   23.6100   52.0140 O   0  0  0  0  0  0  0  0  0  0  0  0
  177.4610   22.7160   49.7990 C   0  0  0  0  0  0  0  0  0  0  0  0
  176.0560   23.1630   49.6980 C   0  0  0  0  0  0  0  0  0  0  0  0
  175.0270   22.2860   49.3420 C   0  0  0  0  0  0  0  0  0  0  0  0
  173.7030   22.7240   49.2740 C   0  0  0  0  0  0  0  0  0  0  0  0
  173.3680   24.0560   49.5660 C   0  0  0  0  0  0  0  0  0  0  0  0
  171.9250   24.5000   49.4880 C   0  0  0  0  0  0  0  0  0  0  0  0
  171.2380   24.2960   50.6490 F   0  0  0  0  0  0  0  0  0  0  0  0
  171.2290   23.8200   48.5340 F   0  0  0  0  0  0  0  0  0  0  0  0
  174.3930   24.9500   49.9510 C   0  0  0  0  0  0  0  0  0  0  0  0
  174.0900   26.3950   50.2810 C   0  0  0  0  0  0  0  0  0  0  0  0
  173.6430   26.5460   51.5600 F   0  0  0  0  0  0  0  0  0  0  0  0
  175.1810   27.2070   50.1840 F   0  0  0  0  0  0  0  0  0  0  0  0
  175.7230   24.4920   50.0050 C   0  0  0  0  0  0  0  0  0  0  0  0
  177.8890   22.0200   48.6740 O   0  0  0  0  0  0  0  0  0  0  0  0
  179.1750   21.5450   48.6380 C   0  0  0  0  0  0  0  0  0  0  0  0
  179.5660   20.8620   47.4840 C   0  0  0  0  0  0  0  0  0  0  0  0
  180.8610   20.3520   47.3830 C   0  0  0  0  0  0  0  0  0  0  0  0
  181.7660   20.5240   48.4330 C   0  0  0  0  0  0  0  0  0  0  0  0
  181.3740   21.2050   49.5820 C   0  0  0  0  0  0  0  0  0  0  0  0
  182.3080   21.3370   50.5720 O   0  0  0  0  0  0  0  0  0  0  0  0
  180.0770   21.7170   49.6840 C   0  0  0  0  0  0  0  0  0  0  0  0
  177.7550   23.1560   52.8310 H   0  0  0  0  0  0  0  0  0  0  0  0
  175.2637   21.2366   49.1123 H   0  0  0  0  0  0  0  0  0  0  0  0
  172.9114   22.0159   48.9877 H   0  0  0  0  0  0  0  0  0  0  0  0
  171.9931   25.5734   49.2574 H   0  0  0  0  0  0  0  0  0  0  0  0
  173.3250   26.6780   49.5429 H   0  0  0  0  0  0  0  0  0  0  0  0
  176.5205   25.1921   50.2946 H   0  0  0  0  0  0  0  0  0  0  0  0
  178.8543   20.7264   46.6563 H   0  0  0  0  0  0  0  0  0  0  0  0
  181.1697   19.8135   46.4748 H   0  0  0  0  0  0  0  0  0  0  0  0
  182.7867   20.1220   48.3520 H   0  0  0  0  0  0  0  0  0  0  0  0
  182.6360   22.1850   50.7960 H   0  0  0  0  0  0  0  0  0  0  0  0
  1  2  2  0
  2  3  1  0
  3  4  1  0
  3  5  2  0
  5  6  1  0
  6  7  2  0
  7  8  1  0
  8  9  2  0
  9 10  1  0
 10 11  1  0
 10 12  1  0
  9 13  1  0
 13 14  1  0
 14 15  1  0
 14 16  1  0
 13 17  2  0
  5 18  1  0
 18 19  1  0
 19 20  2  0
 20 21  1  0
 21 22  2  0
 22 23  1  0
 23 24  1  0
 23 25  2  0
 25  2  1  0
 17  6  1  0
 25 19  1  0
  4 26  1  0
  7 27  1  0
  8 28  1  0
 10 29  1  0
 14 30  1  0
 17 31  1  0
 20 32  1  0
 21 33  1  0
 22 34  1  0
 24 35  1  0
M  END
>  <meeko>  (5) 
{"is_sidechain": [false], "free_energy": -7.478, "intermolecular_energy": -9.245, "internal_energy": -0.409}

$$$$
cand_008_out
     RDKit          3D

 35 37  0  0  0  0  0  0  0  0999 V2000
  176.6840   22.6230   53.2440 O   0  0  0  0  0  0  0  0  0  0  0  0
  176.4620   22.6920   52.0370 C   0  0  0  0  0  0  0  0  0  0  0  0
  177.3470   22.0040   51.0690 C   0  0  0  0  0  0  0  0  0  0  0  0
  178.4240   21.3060   51.5860 O   0  0  0  0  0  0  0  0  0  0  0  0
  177.0690   22.1070   49.7560 C   0  0  0  0  0  0  0  0  0  0  0  0
  177.8900   21.4730   48.7020 C   0  0  0  0  0  0  0  0  0  0  0  0
  177.3650   20.5000   47.8460 C   0  0  0  0  0  0  0  0  0  0  0  0
  178.1510   19.9290   46.8420 C   0  0  0  0  0  0  0  0  0  0  0  0
  179.4880   20.3210   46.6630 C   0  0  0  0  0  0  0  0  0  0  0  0
  180.3120   19.6890   45.5650 C   0  0  0  0  0  0  0  0  0  0  0  0
  180.0500   20.2080   44.3310 F   0  0  0  0  0  0  0  0  0  0  0  0
  180.0770   18.3520   45.4510 F   0  0  0  0  0  0  0  0  0  0  0  0
  180.0260   21.3210   47.5040 C   0  0  0  0  0  0  0  0  0  0  0  0
  181.4580   21.7850   47.3540 C   0  0  0  0  0  0  0  0  0  0  0  0
  181.6520   23.0280   47.8800 F   0  0  0  0  0  0  0  0  0  0  0  0
  182.3520   20.9810   47.9950 F   0  0  0  0  0  0  0  0  0  0  0  0
  179.2200   21.8780   48.5160 C   0  0  0  0  0  0  0  0  0  0  0  0
  176.0010   22.8340   49.2450 O   0  0  0  0  0  0  0  0  0  0  0  0
  175.1590   23.4760   50.1170 C   0  0  0  0  0  0  0  0  0  0  0  0
  174.0920   24.1850   49.5610 C   0  0  0  0  0  0  0  0  0  0  0  0
  173.1980   24.8620   50.3920 C   0  0  0  0  0  0  0  0  0  0  0  0
  173.3700   24.8320   51.7780 C   0  0  0  0  0  0  0  0  0  0  0  0
  174.4340   24.1240   52.3300 C   0  0  0  0  0  0  0  0  0  0  0  0
  174.5440   24.1370   53.6930 O   0  0  0  0  0  0  0  0  0  0  0  0
  175.3290   23.4450   51.4980 C   0  0  0  0  0  0  0  0  0  0  0  0
  178.3030   20.7320   52.3160 H   0  0  0  0  0  0  0  0  0  0  0  0
  176.3193   20.1799   47.9647 H   0  0  0  0  0  0  0  0  0  0  0  0
  177.7172   19.1624   46.1830 H   0  0  0  0  0  0  0  0  0  0  0  0
  181.3499   19.8975   45.8636 H   0  0  0  0  0  0  0  0  0  0  0  0
  181.6266   21.7682   46.2671 H   0  0  0  0  0  0  0  0  0  0  0  0
  179.6437   22.6491   49.1763 H   0  0  0  0  0  0  0  0  0  0  0  0
  173.9563   24.2099   48.4697 H   0  0  0  0  0  0  0  0  0  0  0  0
  172.3568   25.4200   49.9549 H   0  0  0  0  0  0  0  0  0  0  0  0
  172.6658   25.3670   52.4322 H   0  0  0  0  0  0  0  0  0  0  0  0
  175.0830   23.5030   54.1240 H   0  0  0  0  0  0  0  0  0  0  0  0
  1  2  2  0
  2  3  1  0
  3  4  1  0
  3  5  2  0
  5  6  1  0
  6  7  2  0
  7  8  1  0
  8  9  2  0
  9 10  1  0
 10 11  1  0
 10 12  1  0
  9 13  1  0
 13 14  1  0
 14 15  1  0
 14 16  1  0
 13 17  2  0
  5 18  1  0
 18 19  1  0
 19 20  2  0
 20 21  1  0
 21 22  2  0
 22 23  1  0
 23 24  1  0
 23 25  2  0
 25  2  1  0
 17  6  1  0
 25 19  1  0
  4 26  1  0
  7 27  1  0
  8 28  1  0
 10 29  1  0
 14 30  1  0
 17 31  1  0
 20 32  1  0
 21 33  1  0
 22 34  1  0
 24 35  1  0
M  END
>  <meeko>  (6) 
{"is_sidechain": [false], "free_energy": -7.462, "intermolecular_energy": -9.103, "internal_energy": -0.53}

$$$$
cand_008_out
     RDKit          3D

 35 37  0  0  0  0  0  0  0  0999 V2000
  184.5920   22.3600   51.0750 O   0  0  0  0  0  0  0  0  0  0  0  0
  184.1790   22.5540   49.9330 C   0  0  0  0  0  0  0  0  0  0  0  0
  182.9020   21.9530   49.4830 C   0  0  0  0  0  0  0  0  0  0  0  0
  182.2220   21.1640   50.3940 O   0  0  0  0  0  0  0  0  0  0  0  0
  182.4880   22.1890   48.2250 C   0  0  0  0  0  0  0  0  0  0  0  0
  181.2380   21.6310   47.6660 C   0  0  0  0  0  0  0  0  0  0  0  0
  179.9890   22.1900   47.9530 C   0  0  0  0  0  0  0  0  0  0  0  0
  178.8220   21.6610   47.3960 C   0  0  0  0  0  0  0  0  0  0  0  0
  178.8730   20.5570   46.5300 C   0  0  0  0  0  0  0  0  0  0  0  0
  177.5930   20.0090   45.9400 C   0  0  0  0  0  0  0  0  0  0  0  0
  176.5400   20.8700   46.0500 F   0  0  0  0  0  0  0  0  0  0  0  0
  177.1900   18.8650   46.5600 F   0  0  0  0  0  0  0  0  0  0  0  0
  180.1300   19.9950   46.2100 C   0  0  0  0  0  0  0  0  0  0  0  0
  180.2440   18.8080   45.2800 C   0  0  0  0  0  0  0  0  0  0  0  0
  181.5180   18.6360   44.8240 F   0  0  0  0  0  0  0  0  0  0  0  0
  179.9140   17.6260   45.8760 F   0  0  0  0  0  0  0  0  0  0  0  0
  181.2940   20.5370   46.7880 C   0  0  0  0  0  0  0  0  0  0  0  0
  183.1930   22.9590   47.3080 O   0  0  0  0  0  0  0  0  0  0  0  0
  184.3760   23.5360   47.6980 C   0  0  0  0  0  0  0  0  0  0  0  0
  185.0440   24.3110   46.7490 C   0  0  0  0  0  0  0  0  0  0  0  0
  186.2540   24.9250   47.0800 C   0  0  0  0  0  0  0  0  0  0  0  0
  186.7940   24.7650   48.3580 C   0  0  0  0  0  0  0  0  0  0  0  0
  186.1250   23.9910   49.3020 C   0  0  0  0  0  0  0  0  0  0  0  0
  186.7090   23.8750   50.5330 O   0  0  0  0  0  0  0  0  0  0  0  0
  184.9130   23.3770   48.9710 C   0  0  0  0  0  0  0  0  0  0  0  0
  182.6350   20.9130   51.1960 H   0  0  0  0  0  0  0  0  0  0  0  0
  179.9243   23.0576   48.6261 H   0  0  0  0  0  0  0  0  0  0  0  0
  177.8503   22.1155   47.6392 H   0  0  0  0  0  0  0  0  0  0  0  0
  177.8452   19.8339   44.8837 H   0  0  0  0  0  0  0  0  0  0  0  0
  179.5437   19.0437   44.4652 H   0  0  0  0  0  0  0  0  0  0  0  0
  182.2706   20.0925   46.5458 H   0  0  0  0  0  0  0  0  0  0  0  0
  184.6185   24.4380   45.7426 H   0  0  0  0  0  0  0  0  0  0  0  0
  186.7824   25.5355   46.3330 H   0  0  0  0  0  0  0  0  0  0  0  0
  187.7465   25.2498   48.6182 H   0  0  0  0  0  0  0  0  0  0  0  0
  186.4220   24.4190   51.2400 H   0  0  0  0  0  0  0  0  0  0  0  0
  1  2  2  0
  2  3  1  0
  3  4  1  0
  3  5  2  0
  5  6  1  0
  6  7  2  0
  7  8  1  0
  8  9  2  0
  9 10  1  0
 10 11  1  0
 10 12  1  0
  9 13  1  0
 13 14  1  0
 14 15  1  0
 14 16  1  0
 13 17  2  0
  5 18  1  0
 18 19  1  0
 19 20  2  0
 20 21  1  0
 21 22  2  0
 22 23  1  0
 23 24  1  0
 23 25  2  0
 25  2  1  0
 17  6  1  0
 25 19  1  0
  4 26  1  0
  7 27  1  0
  8 28  1  0
 10 29  1  0
 14 30  1  0
 17 31  1  0
 20 32  1  0
 21 33  1  0
 22 34  1  0
 24 35  1  0
M  END
>  <meeko>  (7) 
{"is_sidechain": [false], "free_energy": -7.433, "intermolecular_energy": -8.893, "internal_energy": -0.706}

$$$$
cand_008_out
     RDKit          3D

 35 37  0  0  0  0  0  0  0  0999 V2000
  176.6790   22.6400   53.3510 O   0  0  0  0  0  0  0  0  0  0  0  0
  176.6000   22.8510   52.1430 C   0  0  0  0  0  0  0  0  0  0  0  0
  177.6460   22.3480   51.2220 C   0  0  0  0  0  0  0  0  0  0  0  0
  178.7020   21.6550   51.7880 O   0  0  0  0  0  0  0  0  0  0  0  0
  177.5230   22.6030   49.9070 C   0  0  0  0  0  0  0  0  0  0  0  0
  178.5110   22.1610   48.9000 C   0  0  0  0  0  0  0  0  0  0  0  0
  179.8330   22.6170   48.9170 C   0  0  0  0  0  0  0  0  0  0  0  0
  180.7570   22.1700   47.9690 C   0  0  0  0  0  0  0  0  0  0  0  0
  180.3840   21.2480   46.9780 C   0  0  0  0  0  0  0  0  0  0  0  0
  181.4080   20.7790   45.9690 C   0  0  0  0  0  0  0  0  0  0  0  0
  181.8420   19.5060   46.1970 F   0  0  0  0  0  0  0  0  0  0  0  0
  182.5310   21.5510   45.9790 F   0  0  0  0  0  0  0  0  0  0  0  0
  179.0580   20.7590   46.9620 C   0  0  0  0  0  0  0  0  0  0  0  0
  178.6020   19.7610   45.9200 C   0  0  0  0  0  0  0  0  0  0  0  0
  179.0480   18.5010   46.1880 F   0  0  0  0  0  0  0  0  0  0  0  0
  177.2450   19.6520   45.8400 F   0  0  0  0  0  0  0  0  0  0  0  0
  178.1390   21.2280   47.9200 C   0  0  0  0  0  0  0  0  0  0  0  0
  176.4720   23.3250   49.3530 O   0  0  0  0  0  0  0  0  0  0  0  0
  175.4840   23.7980   50.1790 C   0  0  0  0  0  0  0  0  0  0  0  0
  174.4420   24.5070   49.5780 C   0  0  0  0  0  0  0  0  0  0  0  0
  173.4050   25.0160   50.3620 C   0  0  0  0  0  0  0  0  0  0  0  0
  173.4090   24.8170   51.7440 C   0  0  0  0  0  0  0  0  0  0  0  0
  174.4490   24.1090   52.3410 C   0  0  0  0  0  0  0  0  0  0  0  0
  174.3910   23.9520   53.6980 O   0  0  0  0  0  0  0  0  0  0  0  0
  175.4880   23.5990   51.5560 C   0  0  0  0  0  0  0  0  0  0  0  0
  178.5360   20.9730   52.4070 H   0  0  0  0  0  0  0  0  0  0  0  0
  180.1494   23.3367   49.6864 H   0  0  0  0  0  0  0  0  0  0  0  0
  181.7905   22.5455   47.9995 H   0  0  0  0  0  0  0  0  0  0  0  0
  180.8770   20.8436   45.0078 H   0  0  0  0  0  0  0  0  0  0  0  0
  179.0187   20.1528   44.9804 H   0  0  0  0  0  0  0  0  0  0  0  0
  177.1047   20.8541   47.8998 H   0  0  0  0  0  0  0  0  0  0  0  0
  174.4382   24.6641   48.4893 H   0  0  0  0  0  0  0  0  0  0  0  0
  172.5834   25.5748   49.8901 H   0  0  0  0  0  0  0  0  0  0  0  0
  172.5915   25.2190   52.3605 H   0  0  0  0  0  0  0  0  0  0  0  0
  174.0600   24.6440   54.2350 H   0  0  0  0  0  0  0  0  0  0  0  0
  1  2  2  0
  2  3  1  0
  3  4  1  0
  3  5  2  0
  5  6  1  0
  6  7  2  0
  7  8  1  0
  8  9  2  0
  9 10  1  0
 10 11  1  0
 10 12  1  0
  9 13  1  0
 13 14  1  0
 14 15  1  0
 14 16  1  0
 13 17  2  0
  5 18  1  0
 18 19  1  0
 19 20  2  0
 20 21  1  0
 21 22  2  0
 22 23  1  0
 23 24  1  0
 23 25  2  0
 25  2  1  0
 17  6  1  0
 25 19  1  0
  4 26  1  0
  7 27  1  0
  8 28  1  0
 10 29  1  0
 14 30  1  0
 17 31  1  0
 20 32  1  0
 21 33  1  0
 22 34  1  0
 24 35  1  0
M  END
>  <meeko>  (8) 
{"is_sidechain": [false], "free_energy": -7.432, "intermolecular_energy": -9.017, "internal_energy": -0.579}

$$$$
cand_008_out
     RDKit          3D

 35 37  0  0  0  0  0  0  0  0999 V2000
  176.2950   23.2360   54.0880 O   0  0  0  0  0  0  0  0  0  0  0  0
  176.2420   23.5520   52.9010 C   0  0  0  0  0  0  0  0  0  0  0  0
  176.7540   22.6350   51.8560 C   0  0  0  0  0  0  0  0  0  0  0  0
  177.2980   21.4350   52.2820 O   0  0  0  0  0  0  0  0  0  0  0  0
  176.6780   23.0190   50.5690 C   0  0  0  0  0  0  0  0  0  0  0  0
  177.1690   22.1920   49.4460 C   0  0  0  0  0  0  0  0  0  0  0  0
  178.4870   22.2790   48.9880 C   0  0  0  0  0  0  0  0  0  0  0  0
  178.9360   21.4720   47.9400 C   0  0  0  0  0  0  0  0  0  0  0  0
  178.0770   20.5490   47.3220 C   0  0  0  0  0  0  0  0  0  0  0  0
  178.5940   19.6860   46.1930 C   0  0  0  0  0  0  0  0  0  0  0  0
  179.6920   18.9530   46.5370 F   0  0  0  0  0  0  0  0  0  0  0  0
  178.9780   20.4260   45.1150 F   0  0  0  0  0  0  0  0  0  0  0  0
  176.7490   20.4310   47.7890 C   0  0  0  0  0  0  0  0  0  0  0  0
  175.7820   19.4510   47.1640 C   0  0  0  0  0  0  0  0  0  0  0  0
  175.6780   18.3000   47.8880 F   0  0  0  0  0  0  0  0  0  0  0  0
  174.5100   19.9350   47.0760 F   0  0  0  0  0  0  0  0  0  0  0  0
  176.3120   21.2590   48.8410 C   0  0  0  0  0  0  0  0  0  0  0  0
  176.1560   24.2390   50.1540 O   0  0  0  0  0  0  0  0  0  0  0  0
  175.6680   25.1060   51.0980 C   0  0  0  0  0  0  0  0  0  0  0  0
  175.1420   26.3140   50.6350 C   0  0  0  0  0  0  0  0  0  0  0  0
  174.6290   27.2420   51.5430 C   0  0  0  0  0  0  0  0  0  0  0  0
  174.6420   26.9640   52.9120 C   0  0  0  0  0  0  0  0  0  0  0  0
  175.1670   25.7590   53.3710 C   0  0  0  0  0  0  0  0  0  0  0  0
  175.1490   25.5510   54.7220 O   0  0  0  0  0  0  0  0  0  0  0  0
  175.6800   24.8290   52.4610 C   0  0  0  0  0  0  0  0  0  0  0  0
  177.8260   20.9280   51.6990 H   0  0  0  0  0  0  0  0  0  0  0  0
  179.1794   22.9922   49.4590 H   0  0  0  0  0  0  0  0  0  0  0  0
  179.9765   21.5607   47.5942 H   0  0  0  0  0  0  0  0  0  0  0  0
  177.7445   19.0285   45.9561 H   0  0  0  0  0  0  0  0  0  0  0  0
  176.2021   19.2701   46.1636 H   0  0  0  0  0  0  0  0  0  0  0  0
  175.2748   21.1727   49.1970 H   0  0  0  0  0  0  0  0  0  0  0  0
  175.1319   26.5338   49.5572 H   0  0  0  0  0  0  0  0  0  0  0  0
  174.2138   28.1937   51.1799 H   0  0  0  0  0  0  0  0  0  0  0  0
  174.2379   27.6963   53.6265 H   0  0  0  0  0  0  0  0  0  0  0  0
  175.9180   25.2400   55.1580 H   0  0  0  0  0  0  0  0  0  0  0  0
  1  2  2  0
  2  3  1  0
  3  4  1  0
  3  5  2  0
  5  6  1  0
  6  7  2  0
  7  8  1  0
  8  9  2  0
  9 10  1  0
 10 11  1  0
 10 12  1  0
  9 13  1  0
 13 14  1  0
 14 15  1  0
 14 16  1  0
 13 17  2  0
  5 18  1  0
 18 19  1  0
 19 20  2  0
 20 21  1  0
 21 22  2  0
 22 23  1  0
 23 24  1  0
 23 25  2  0
 25  2  1  0
 17  6  1  0
 25 19  1  0
  4 26  1  0
  7 27  1  0
  8 28  1  0
 10 29  1  0
 14 30  1  0
 17 31  1  0
 20 32  1  0
 21 33  1  0
 22 34  1  0
 24 35  1  0
M  END
>  <meeko>  (9) 
{"is_sidechain": [false], "free_energy": -7.389, "intermolecular_energy": -8.888, "internal_energy": -0.655}

$$$$
