cand_031_out
     RDKit          3D

 36 38  0  0  0  0  0  0  0  0999 V2000
  179.0080   13.6890   45.0220 C   0  0  0  0  0  0  0  0  0  0  0  0
  180.2400   14.1680   44.8100 C   0  0  0  0  0  0  0  0  0  0  0  0
  180.5320   15.5970   44.6180 C   0  0  0  0  0  0  0  0  0  0  0  0
  179.8740   16.5510   45.4180 C   0  0  0  0  0  0  0  0  0  0  0  0
  180.0920   17.9270   45.2500 C   0  0  0  0  0  0  0  0  0  0  0  0
  179.4030   18.8930   46.1320 C   0  0  0  0  0  0  0  0  0  0  0  0
  178.0190   18.7700   46.0880 O   0  0  0  0  0  0  0  0  0  0  0  0
  177.2530   19.6080   46.8580 C   0  0  0  0  0  0  0  0  0  0  0  0
  175.8690   19.4410   46.7940 C   0  0  0  0  0  0  0  0  0  0  0  0
  175.0320   20.2620   47.5520 C   0  0  0  0  0  0  0  0  0  0  0  0
  175.5780   21.2490   48.3740 C   0  0  0  0  0  0  0  0  0  0  0  0
  176.9600   21.4140   48.4370 C   0  0  0  0  0  0  0  0  0  0  0  0
  177.4270   22.4000   49.2620 O   0  0  0  0  0  0  0  0  0  0  0  0
  177.7970   20.5920   47.6780 C   0  0  0  0  0  0  0  0  0  0  0  0
  179.2530   20.7310   47.7160 C   0  0  0  0  0  0  0  0  0  0  0  0
  179.8090   21.5810   48.4090 O   0  0  0  0  0  0  0  0  0  0  0  0
  180.0510   19.8060   46.8790 C   0  0  0  0  0  0  0  0  0  0  0  0
  181.4250   19.9560   46.9100 O   0  0  0  0  0  0  0  0  0  0  0  0
  180.9930   18.3420   44.2650 C   0  0  0  0  0  0  0  0  0  0  0  0
  181.6450   17.4090   43.4560 C   0  0  0  0  0  0  0  0  0  0  0  0
  181.4250   16.0330   43.6210 C   0  0  0  0  0  0  0  0  0  0  0  0
  182.1490   15.0650   42.7240 C   0  0  0  0  0  0  0  0  0  0  0  0
  178.8540   12.6084   45.1585 H   0  0  0  0  0  0  0  0  0  0  0  0
  178.1497   14.3760   45.0597 H   0  0  0  0  0  0  0  0  0  0  0  0
  181.0777   13.4559   44.7777 H   0  0  0  0  0  0  0  0  0  0  0  0
  179.1723   16.2094   46.1932 H   0  0  0  0  0  0  0  0  0  0  0  0
  175.4378   18.6630   46.1468 H   0  0  0  0  0  0  0  0  0  0  0  0
  173.9410   20.1308   47.5013 H   0  0  0  0  0  0  0  0  0  0  0  0
  174.9182   21.8956   48.9712 H   0  0  0  0  0  0  0  0  0  0  0  0
  177.9620   23.0870   48.9170 H   0  0  0  0  0  0  0  0  0  0  0  0
  181.8010   20.7770   47.1600 H   0  0  0  0  0  0  0  0  0  0  0  0
  181.1905   19.4151   44.1257 H   0  0  0  0  0  0  0  0  0  0  0  0
  182.3408   17.7576   42.6786 H   0  0  0  0  0  0  0  0  0  0  0  0
  182.6955   14.3343   43.3383 H   0  0  0  0  0  0  0  0  0  0  0  0
  181.4211   14.5387   42.0891 H   0  0  0  0  0  0  0  0  0  0  0  0
  182.8595   15.6146   42.0891 H   0  0  0  0  0  0  0  0  0  0  0  0
  1  2  2  0
  2  3  1  0
  3  4  2  0
  4  5  1  0
  5  6  1  0
  6  7  1  0
  7  8  1  0
  8  9  2  0
  9 10  1  0
 10 11  2  0
 11 12  1  0
 12 13  1  0
 12 14  2  0
 14 15  1  0
 15 16  2  0
 15 17  1  0
 17 18  1  0
  5 19  2  0
 19 20  1  0
 20 21  2  0
 21 22  1  0
 21  3  1  0
 17  6  2  0
 14  8  1  0
  1 23  1  0
  1 24  1  0
  2 25  1  0
  4 26  1  0
  9 27  1  0
 10 28  1  0
 11 29  1  0
 13 30  1  0
 18 31  1  0
 19 32  1  0
 20 33  1  0
 22 34  1  0
 22 35  1  0
 22 36  1  0
M  END
>  <meeko>  (1) 
{"is_sidechain": [false], "free_energy": -7.771, "intermolecular_energy": -9.134, "internal_energy": -0.286}

$$$$
cand_031_out
     RDKit          3D

 36 38  0  0  0  0  0  0  0  0999 V2000
  175.5610   18.2810   46.7070 C   0  0  0  0  0  0  0  0  0  0  0  0
  176.7110   18.8320   46.3010 C   0  0  0  0  0  0  0  0  0  0  0  0
  177.4850   19.7830   47.1130 C   0  0  0  0  0  0  0  0  0  0  0  0
  176.8320   20.5390   48.1040 C   0  0  0  0  0  0  0  0  0  0  0  0
  177.5200   21.4830   48.8820 C   0  0  0  0  0  0  0  0  0  0  0  0
  176.8000   22.2350   49.9320 C   0  0  0  0  0  0  0  0  0  0  0  0
  175.8320   23.0890   49.4160 O   0  0  0  0  0  0  0  0  0  0  0  0
  175.0890   23.8500   50.2820 C   0  0  0  0  0  0  0  0  0  0  0  0
  174.1200   24.6840   49.7230 C   0  0  0  0  0  0  0  0  0  0  0  0
  173.3300   25.4860   50.5490 C   0  0  0  0  0  0  0  0  0  0  0  0
  173.5080   25.4540   51.9330 C   0  0  0  0  0  0  0  0  0  0  0  0
  174.4750   24.6200   52.4890 C   0  0  0  0  0  0  0  0  0  0  0  0
  174.5960   24.6390   53.8520 O   0  0  0  0  0  0  0  0  0  0  0  0
  175.2650   23.8180   51.6620 C   0  0  0  0  0  0  0  0  0  0  0  0
  176.2920   22.9280   52.2060 C   0  0  0  0  0  0  0  0  0  0  0  0
  176.5140   22.8500   53.4130 O   0  0  0  0  0  0  0  0  0  0  0  0
  177.0720   22.1150   51.2450 C   0  0  0  0  0  0  0  0  0  0  0  0
  178.0490   21.2880   51.7680 O   0  0  0  0  0  0  0  0  0  0  0  0
  178.8890   21.6590   48.6570 C   0  0  0  0  0  0  0  0  0  0  0  0
  179.5490   20.9240   47.6710 C   0  0  0  0  0  0  0  0  0  0  0  0
  178.8620   19.9820   46.8910 C   0  0  0  0  0  0  0  0  0  0  0  0
  179.6160   19.2150   45.8370 C   0  0  0  0  0  0  0  0  0  0  0  0
  175.0281   17.5753   46.0527 H   0  0  0  0  0  0  0  0  0  0  0  0
  175.1487   18.5338   47.6950 H   0  0  0  0  0  0  0  0  0  0  0  0
  177.0976   18.5593   45.3079 H   0  0  0  0  0  0  0  0  0  0  0  0
  175.7558   20.3864   48.2731 H   0  0  0  0  0  0  0  0  0  0  0  0
  173.9786   24.7096   48.6324 H   0  0  0  0  0  0  0  0  0  0  0  0
  172.5664   26.1439   50.1084 H   0  0  0  0  0  0  0  0  0  0  0  0
  172.8857   26.0863   52.5834 H   0  0  0  0  0  0  0  0  0  0  0  0
  174.0550   24.0850   54.3790 H   0  0  0  0  0  0  0  0  0  0  0  0
  178.1850   20.4350   51.4040 H   0  0  0  0  0  0  0  0  0  0  0  0
  179.4515   22.3842   49.2634 H   0  0  0  0  0  0  0  0  0  0  0  0
  180.6240   21.0858   47.5030 H   0  0  0  0  0  0  0  0  0  0  0  0
  180.3085   18.5106   46.3211 H   0  0  0  0  0  0  0  0  0  0  0  0
  178.9047   18.6574   45.2100 H   0  0  0  0  0  0  0  0  0  0  0  0
  180.1856   19.9167   45.2100 H   0  0  0  0  0  0  0  0  0  0  0  0
  1  2  2  0
  2  3  1  0
  3  4  2  0
  4  5  1  0
  5  6  1  0
  6  7  1  0
  7  8  1  0
  8  9  2  0
  9 10  1  0
 10 11  2  0
 11 12  1  0
 12 13  1  0
 12 14  2  0
 14 15  1  0
 15 16  2  0
 15 17  1  0
 17 18  1  0
  5 19  2  0
 19 20  1  0
 20 21  2  0
 21 22  1  0
 21  3  1  0
 17  6  2  0
 14  8  1  0
  1 23  1  0
  1 24  1  0
  2 25  1  0
  4 26  1  0
  9 27  1  0
 10 28  1  0
 11 29  1  0
 13 30  1  0
 18 31  1  0
 19 32  1  0
 20 33  1  0
 22 34  1  0
 22 35  1  0
 22 36  1  0
M  END
>  <meeko>  (2) 
{"is_sidechain": [false], "free_energy": -7.331, "intermolecular_energy": -8.542, "internal_energy": -0.361}

$$$$
cand_031_out
     RDKit          3D

 36 38  0  0  0  0  0  0  0  0999 V2000
  179.6880   20.1640   46.7510 C   0  0  0  0  0  0  0  0  0  0  0  0
  178.4450   20.5220   46.4050 C   0  0  0  0  0  0  0  0  0  0  0  0
  177.2980   20.4570   47.3240 C   0  0  0  0  0  0  0  0  0  0  0  0
  177.1720   21.4190   48.3430 C   0  0  0  0  0  0  0  0  0  0  0  0
  176.1150   21.3790   49.2660 C   0  0  0  0  0  0  0  0  0  0  0  0
  176.0060   22.4270   50.3030 C   0  0  0  0  0  0  0  0  0  0  0  0
  175.4960   23.6230   49.8090 O   0  0  0  0  0  0  0  0  0  0  0  0
  175.3430   24.6830   50.6650 C   0  0  0  0  0  0  0  0  0  0  0  0
  174.8150   25.8590   50.1310 C   0  0  0  0  0  0  0  0  0  0  0  0
  174.6340   26.9760   50.9490 C   0  0  0  0  0  0  0  0  0  0  0  0
  174.9820   26.9180   52.3000 C   0  0  0  0  0  0  0  0  0  0  0  0
  175.5090   25.7440   52.8310 C   0  0  0  0  0  0  0  0  0  0  0  0
  175.8280   25.7570   54.1610 O   0  0  0  0  0  0  0  0  0  0  0  0
  175.6890   24.6260   52.0120 C   0  0  0  0  0  0  0  0  0  0  0  0
  176.2390   23.3720   52.5300 C   0  0  0  0  0  0  0  0  0  0  0  0
  176.5750   23.2450   53.7060 O   0  0  0  0  0  0  0  0  0  0  0  0
  176.3830   22.2440   51.5820 C   0  0  0  0  0  0  0  0  0  0  0  0
  176.9170   21.0690   52.0780 O   0  0  0  0  0  0  0  0  0  0  0  0
  175.1700   20.3560   49.1490 C   0  0  0  0  0  0  0  0  0  0  0  0
  175.2860   19.3880   48.1500 C   0  0  0  0  0  0  0  0  0  0  0  0
  176.3440   19.4250   47.2290 C   0  0  0  0  0  0  0  0  0  0  0  0
  176.4290   18.3580   46.1700 C   0  0  0  0  0  0  0  0  0  0  0  0
  180.5051   20.2353   46.0180 H   0  0  0  0  0  0  0  0  0  0  0  0
  179.8921   19.7986   47.7683 H   0  0  0  0  0  0  0  0  0  0  0  0
  178.2725   20.8834   45.3805 H   0  0  0  0  0  0  0  0  0  0  0  0
  177.9200   22.2220   48.4183 H   0  0  0  0  0  0  0  0  0  0  0  0
  174.5416   25.9061   49.0666 H   0  0  0  0  0  0  0  0  0  0  0  0
  174.2167   27.9029   50.5286 H   0  0  0  0  0  0  0  0  0  0  0  0
  174.8399   27.7986   52.9437 H   0  0  0  0  0  0  0  0  0  0  0  0
  176.4280   25.1250   54.5060 H   0  0  0  0  0  0  0  0  0  0  0  0
  177.8130   21.0410   52.3510 H   0  0  0  0  0  0  0  0  0  0  0  0
  174.3252   20.3132   49.8522 H   0  0  0  0  0  0  0  0  0  0  0  0
  174.5374   18.5848   48.0838 H   0  0  0  0  0  0  0  0  0  0  0  0
  176.5076   17.3711   46.6494 H   0  0  0  0  0  0  0  0  0  0  0  0
  175.5254   18.3904   45.5435 H   0  0  0  0  0  0  0  0  0  0  0  0
  177.3160   18.5330   45.5435 H   0  0  0  0  0  0  0  0  0  0  0  0
  1  2  2  0
  2  3  1  0
  3  4  2  0
  4  5  1  0
  5  6  1  0
  6  7  1  0
  7  8  1  0
  8  9  2  0
  9 10  1  0
 10 11  2  0
 11 12  1  0
 12 13  1  0
 12 14  2  0
 14 15  1  0
 15 16  2  0
 15 17  1  0
 17 18  1  0
  5 19  2  0
 19 20  1  0
 20 21  2  0
 21 22  1  0
 21  3  1  0
 17  6  2  0
 14  8  1  0
  1 23  1  0
  1 24  1  0
  2 25  1  0
  4 26  1  0
  9 27  1  0
 10 28  1  0
 11 29  1  0
 13 30  1  0
 18 31  1  0
 19 32  1  0
 20 33  1  0
 22 34  1  0
 22 35  1  0
 22 36  1  0
M  END
>  <meeko>  (3) 
{"is_sidechain": [false], "free_energy": -7.326, "intermolecular_energy": -8.421, "internal_energy": -0.477}

$$$$
cand_031_out
     RDKit          3D

 36 38  0  0  0  0  0  0  0  0999 V2000
  179.0540   13.5610   45.1050 C   0  0  0  0  0  0  0  0  0  0  0  0
  180.3020   13.9910   44.8800 C   0  0  0  0  0  0  0  0  0  0  0  0
  180.6130   15.3030   44.2930 C   0  0  0  0  0  0  0  0  0  0  0  0
  180.4630   16.4640   45.0740 C   0  0  0  0  0  0  0  0  0  0  0  0
  180.7130   17.7410   44.5490 C   0  0  0  0  0  0  0  0  0  0  0  0
  180.5710   18.9320   45.4150 C   0  0  0  0  0  0  0  0  0  0  0  0
  181.7220   19.7100   45.4540 O   0  0  0  0  0  0  0  0  0  0  0  0
  181.7290   20.8460   46.2220 C   0  0  0  0  0  0  0  0  0  0  0  0
  182.9000   21.6050   46.2230 C   0  0  0  0  0  0  0  0  0  0  0  0
  182.9740   22.7730   46.9840 C   0  0  0  0  0  0  0  0  0  0  0  0
  181.8770   23.1820   47.7460 C   0  0  0  0  0  0  0  0  0  0  0  0
  180.7100   22.4230   47.7440 C   0  0  0  0  0  0  0  0  0  0  0  0
  179.6750   22.8820   48.5130 O   0  0  0  0  0  0  0  0  0  0  0  0
  180.6370   21.2550   46.9810 C   0  0  0  0  0  0  0  0  0  0  0  0
  179.4280   20.4290   46.9510 C   0  0  0  0  0  0  0  0  0  0  0  0
  178.4250   20.7190   47.6000 O   0  0  0  0  0  0  0  0  0  0  0  0
  179.4510   19.2140   46.1050 C   0  0  0  0  0  0  0  0  0  0  0  0
  178.3100   18.4330   46.0960 O   0  0  0  0  0  0  0  0  0  0  0  0
  181.1290   17.8430   43.2180 C   0  0  0  0  0  0  0  0  0  0  0  0
  181.2730   16.7020   42.4270 C   0  0  0  0  0  0  0  0  0  0  0  0
  181.0190   15.4250   42.9500 C   0  0  0  0  0  0  0  0  0  0  0  0
  181.1850   14.2230   42.0580 C   0  0  0  0  0  0  0  0  0  0  0  0
  178.8858   12.5680   45.5474 H   0  0  0  0  0  0  0  0  0  0  0  0
  178.1970   14.2007   44.8475 H   0  0  0  0  0  0  0  0  0  0  0  0
  181.1381   13.3284   45.1482 H   0  0  0  0  0  0  0  0  0  0  0  0
  180.1419   16.3681   46.1217 H   0  0  0  0  0  0  0  0  0  0  0  0
  183.7647   21.2830   45.6242 H   0  0  0  0  0  0  0  0  0  0  0  0
  183.8968   23.3717   46.9836 H   0  0  0  0  0  0  0  0  0  0  0  0
  181.9352   24.1019   48.3464 H   0  0  0  0  0  0  0  0  0  0  0  0
  179.1170   22.2760   48.9590 H   0  0  0  0  0  0  0  0  0  0  0  0
  177.4740   18.8220   46.2660 H   0  0  0  0  0  0  0  0  0  0  0  0
  181.3451   18.8329   42.7897 H   0  0  0  0  0  0  0  0  0  0  0  0
  181.5901   16.8054   41.3788 H   0  0  0  0  0  0  0  0  0  0  0  0
  181.3094   13.3219   42.6764 H   0  0  0  0  0  0  0  0  0  0  0  0
  180.2937   14.1117   41.4230 H   0  0  0  0  0  0  0  0  0  0  0  0
  182.0731   14.3575   41.4230 H   0  0  0  0  0  0  0  0  0  0  0  0
  1  2  2  0
  2  3  1  0
  3  4  2  0
  4  5  1  0
  5  6  1  0
  6  7  1  0
  7  8  1  0
  8  9  2  0
  9 10  1  0
 10 11  2  0
 11 12  1  0
 12 13  1  0
 12 14  2  0
 14 15  1  0
 15 16  2  0
 15 17  1  0
 17 18  1  0
  5 19  2  0
 19 20  1  0
 20 21  2  0
 21 22  1  0
 21  3  1  0
 17  6  2  0
 14  8  1  0
  1 23  1  0
  1 24  1  0
  2 25  1  0
  4 26  1  0
  9 27  1  0
 10 28  1  0
 11 29  1  0
 13 30  1  0
 18 31  1  0
 19 32  1  0
 20 33  1  0
 22 34  1  0
 22 35  1  0
 22 36  1  0
M  END
>  <meeko>  (4) 
{"is_sidechain": [false], "free_energy": -7.306, "intermolecular_energy": -8.627, "internal_energy": -0.247}

$$$$
cand_031_out
     RDKit          3D

 36 38  0  0  0  0  0  0  0  0999 V2000
  175.0340   27.2790   50.6600 C   0  0  0  0  0  0  0  0  0  0  0  0
  174.1060   26.4690   50.1370 C   0  0  0  0  0  0  0  0  0  0  0  0
  174.3400   25.0440   49.8550 C   0  0  0  0  0  0  0  0  0  0  0  0
  175.6510   24.5360   49.9030 C   0  0  0  0  0  0  0  0  0  0  0  0
  175.9310   23.1920   49.6080 C   0  0  0  0  0  0  0  0  0  0  0  0
  177.3200   22.6940   49.7000 C   0  0  0  0  0  0  0  0  0  0  0  0
  177.7340   22.0370   48.5470 O   0  0  0  0  0  0  0  0  0  0  0  0
  179.0040   21.5210   48.4960 C   0  0  0  0  0  0  0  0  0  0  0  0
  179.3830   20.8820   47.3150 C   0  0  0  0  0  0  0  0  0  0  0  0
  180.6610   20.3340   47.1990 C   0  0  0  0  0  0  0  0  0  0  0  0
  181.5610   20.4240   48.2630 C   0  0  0  0  0  0  0  0  0  0  0  0
  181.1810   21.0620   49.4400 C   0  0  0  0  0  0  0  0  0  0  0  0
  182.1110   21.1140   50.4420 O   0  0  0  0  0  0  0  0  0  0  0  0
  179.9010   21.6110   49.5560 C   0  0  0  0  0  0  0  0  0  0  0  0
  179.4620   22.2910   50.7760 C   0  0  0  0  0  0  0  0  0  0  0  0
  180.1930   22.4040   51.7570 O   0  0  0  0  0  0  0  0  0  0  0  0
  178.0880   22.8440   50.7940 C   0  0  0  0  0  0  0  0  0  0  0  0
  177.6780   23.4710   51.9570 O   0  0  0  0  0  0  0  0  0  0  0  0
  174.8670   22.3520   49.2670 C   0  0  0  0  0  0  0  0  0  0  0  0
  173.5620   22.8440   49.2050 C   0  0  0  0  0  0  0  0  0  0  0  0
  173.2820   24.1870   49.4960 C   0  0  0  0  0  0  0  0  0  0  0  0
  171.8590   24.6720   49.4140 C   0  0  0  0  0  0  0  0  0  0  0  0
  174.7979   28.3368   50.8480 H   0  0  0  0  0  0  0  0  0  0  0  0
  176.0329   26.8870   50.9019 H   0  0  0  0  0  0  0  0  0  0  0  0
  173.1166   26.8905   49.9059 H   0  0  0  0  0  0  0  0  0  0  0  0
  176.4771   25.2082   50.1784 H   0  0  0  0  0  0  0  0  0  0  0  0
  178.6750   20.8103   46.4762 H   0  0  0  0  0  0  0  0  0  0  0  0
  180.9600   19.8303   46.2680 H   0  0  0  0  0  0  0  0  0  0  0  0
  182.5682   19.9915   48.1710 H   0  0  0  0  0  0  0  0  0  0  0  0
  182.9290   20.6670   50.3470 H   0  0  0  0  0  0  0  0  0  0  0  0
  178.3150   23.8030   52.5590 H   0  0  0  0  0  0  0  0  0  0  0  0
  175.0600   21.2920   49.0451 H   0  0  0  0  0  0  0  0  0  0  0  0
  172.7410   22.1681   48.9237 H   0  0  0  0  0  0  0  0  0  0  0  0
  171.4590   24.8083   50.4296 H   0  0  0  0  0  0  0  0  0  0  0  0
  171.8289   25.6311   48.8763 H   0  0  0  0  0  0  0  0  0  0  0  0
  171.2494   23.9309   48.8763 H   0  0  0  0  0  0  0  0  0  0  0  0
  1  2  2  0
  2  3  1  0
  3  4  2  0
  4  5  1  0
  5  6  1  0
  6  7  1  0
  7  8  1  0
  8  9  2  0
  9 10  1  0
 10 11  2  0
 11 12  1  0
 12 13  1  0
 12 14  2  0
 14 15  1  0
 15 16  2  0
 15 17  1  0
 17 18  1  0
  5 19  2  0
 19 20  1  0
 20 21  2  0
 21 22  1  0
 21  3  1  0
 17  6  2  0
 14  8  1  0
  1 23  1  0
  1 24  1  0
  2 25  1  0
  4 26  1  0
  9 27  1  0
 10 28  1  0
 11 29  1  0
 13 30  1  0
 18 31  1  0
 19 32  1  0
 20 33  1  0
 22 34  1  0
 22 35  1  0
 22 36  1  0
M  END
>  <meeko>  (5) 
{"is_sidechain": [false], "free_energy": -7.287, "intermolecular_energy": -8.626, "internal_energy": -0.225}

$$$$
cand_031_out
     RDKit          3D

 36 38  0  0  0  0  0  0  0  0999 V2000
  175.1930   18.7230   46.9560 C   0  0  0  0  0  0  0  0  0  0  0  0
  175.9490   19.1850   47.9600 C   0  0  0  0  0  0  0  0  0  0  0  0
  176.0470   20.6100   48.3110 C   0  0  0  0  0  0  0  0  0  0  0  0
  175.2080   21.1360   49.3110 C   0  0  0  0  0  0  0  0  0  0  0  0
  175.2390   22.4950   49.6570 C   0  0  0  0  0  0  0  0  0  0  0  0
  174.3600   22.9990   50.7350 C   0  0  0  0  0  0  0  0  0  0  0  0
  175.0650   23.3900   51.8670 O   0  0  0  0  0  0  0  0  0  0  0  0
  174.3720   23.8760   52.9460 C   0  0  0  0  0  0  0  0  0  0  0  0
  175.1200   24.2690   54.0560 C   0  0  0  0  0  0  0  0  0  0  0  0
  174.4750   24.7720   55.1880 C   0  0  0  0  0  0  0  0  0  0  0  0
  173.0840   24.8820   55.2100 C   0  0  0  0  0  0  0  0  0  0  0  0
  172.3390   24.4890   54.1010 C   0  0  0  0  0  0  0  0  0  0  0  0
  170.9810   24.6240   54.1910 O   0  0  0  0  0  0  0  0  0  0  0  0
  172.9850   23.9860   52.9680 C   0  0  0  0  0  0  0  0  0  0  0  0
  172.2400   23.5630   51.7820 C   0  0  0  0  0  0  0  0  0  0  0  0
  171.0130   23.6220   51.7270 O   0  0  0  0  0  0  0  0  0  0  0  0
  173.0190   23.0510   50.6310 C   0  0  0  0  0  0  0  0  0  0  0  0
  172.3050   22.6400   49.5210 O   0  0  0  0  0  0  0  0  0  0  0  0
  176.1370   23.3320   48.9870 C   0  0  0  0  0  0  0  0  0  0  0  0
  176.9690   22.8270   47.9860 C   0  0  0  0  0  0  0  0  0  0  0  0
  176.9360   21.4690   47.6360 C   0  0  0  0  0  0  0  0  0  0  0  0
  177.8500   20.9710   46.5490 C   0  0  0  0  0  0  0  0  0  0  0  0
  175.1614   17.6444   46.7426 H   0  0  0  0  0  0  0  0  0  0  0  0
  174.6036   19.4221   46.3446 H   0  0  0  0  0  0  0  0  0  0  0  0
  176.5269   18.4611   48.5532 H   0  0  0  0  0  0  0  0  0  0  0  0
  174.5108   20.4650   49.8341 H   0  0  0  0  0  0  0  0  0  0  0  0
  176.2165   24.1828   54.0397 H   0  0  0  0  0  0  0  0  0  0  0  0
  175.0643   25.0819   56.0636 H   0  0  0  0  0  0  0  0  0  0  0  0
  172.5768   25.2785   56.1019 H   0  0  0  0  0  0  0  0  0  0  0  0
  170.6100   25.3840   54.5930 H   0  0  0  0  0  0  0  0  0  0  0  0
  171.5340   23.1050   49.2610 H   0  0  0  0  0  0  0  0  0  0  0  0
  176.1883   24.3986   49.2512 H   0  0  0  0  0  0  0  0  0  0  0  0
  177.6609   23.5043   47.4639 H   0  0  0  0  0  0  0  0  0  0  0  0
  178.7304   20.4913   47.0014 H   0  0  0  0  0  0  0  0  0  0  0  0
  177.3141   20.2402   45.9255 H   0  0  0  0  0  0  0  0  0  0  0  0
  178.1735   21.8175   45.9255 H   0  0  0  0  0  0  0  0  0  0  0  0
  1  2  2  0
  2  3  1  0
  3  4  2  0
  4  5  1  0
  5  6  1  0
  6  7  1  0
  7  8  1  0
  8  9  2  0
  9 10  1  0
 10 11  2  0
 11 12  1  0
 12 13  1  0
 12 14  2  0
 14 15  1  0
 15 16  2  0
 15 17  1  0
 17 18  1  0
  5 19  2  0
 19 20  1  0
 20 21  2  0
 21 22  1  0
 21  3  1  0
 17  6  2  0
 14  8  1  0
  1 23  1  0
  1 24  1  0
  2 25  1  0
  4 26  1  0
  9 27  1  0
 10 28  1  0
 11 29  1  0
 13 30  1  0
 18 31  1  0
 19 32  1  0
 20 33  1  0
 22 34  1  0
 22 35  1  0
 22 36  1  0
M  END
>  <meeko>  (6) 
{"is_sidechain": [false], "free_energy": -7.203, "intermolecular_energy": -8.455, "internal_energy": -0.298}

$$$$
cand_031_out
     RDKit          3D

 36 38  0  0  0  0  0  0  0  0999 V2000
  182.4130   21.3290   47.9340 C   0  0  0  0  0  0  0  0  0  0  0  0
  181.4350   21.7070   47.1010 C   0  0  0  0  0  0  0  0  0  0  0  0
  180.0500   21.2220   47.2060 C   0  0  0  0  0  0  0  0  0  0  0  0
  179.2140   21.7310   48.2160 C   0  0  0  0  0  0  0  0  0  0  0  0
  177.8960   21.2750   48.3790 C   0  0  0  0  0  0  0  0  0  0  0  0
  177.0420   21.8590   49.4360 C   0  0  0  0  0  0  0  0  0  0  0  0
  175.8770   22.4290   48.9340 O   0  0  0  0  0  0  0  0  0  0  0  0
  174.9930   23.0100   49.8070 C   0  0  0  0  0  0  0  0  0  0  0  0
  173.8310   23.5570   49.2630 C   0  0  0  0  0  0  0  0  0  0  0  0
  172.8900   24.1640   50.0960 C   0  0  0  0  0  0  0  0  0  0  0  0
  173.1110   24.2250   51.4730 C   0  0  0  0  0  0  0  0  0  0  0  0
  174.2720   23.6790   52.0140 C   0  0  0  0  0  0  0  0  0  0  0  0
  174.4240   23.7740   53.3710 O   0  0  0  0  0  0  0  0  0  0  0  0
  175.2130   23.0700   51.1800 C   0  0  0  0  0  0  0  0  0  0  0  0
  176.4450   22.4830   51.7080 C   0  0  0  0  0  0  0  0  0  0  0  0
  176.7140   22.5040   52.9080 O   0  0  0  0  0  0  0  0  0  0  0  0
  177.3740   21.8560   50.7400 C   0  0  0  0  0  0  0  0  0  0  0  0
  178.5420   21.3180   51.2480 O   0  0  0  0  0  0  0  0  0  0  0  0
  177.4180   20.2970   47.5030 C   0  0  0  0  0  0  0  0  0  0  0  0
  178.2390   19.7740   46.5020 C   0  0  0  0  0  0  0  0  0  0  0  0
  179.5570   20.2260   46.3400 C   0  0  0  0  0  0  0  0  0  0  0  0
  180.4060   19.6320   45.2490 C   0  0  0  0  0  0  0  0  0  0  0  0
  183.4303   21.7269   47.8044 H   0  0  0  0  0  0  0  0  0  0  0  0
  182.1991   20.6206   48.7479 H   0  0  0  0  0  0  0  0  0  0  0  0
  181.6798   22.4166   46.2969 H   0  0  0  0  0  0  0  0  0  0  0  0
  179.6020   22.5049   48.8946 H   0  0  0  0  0  0  0  0  0  0  0  0
  173.6563   23.5100   48.1780 H   0  0  0  0  0  0  0  0  0  0  0  0
  171.9733   24.5948   49.6670 H   0  0  0  0  0  0  0  0  0  0  0  0
  172.3693   24.7035   52.1294 H   0  0  0  0  0  0  0  0  0  0  0  0
  175.1700   24.2120   53.7300 H   0  0  0  0  0  0  0  0  0  0  0  0
  178.9440   21.6990   52.0040 H   0  0  0  0  0  0  0  0  0  0  0  0
  176.3840   19.9353   47.6030 H   0  0  0  0  0  0  0  0  0  0  0  0
  177.8465   18.9961   45.8306 H   0  0  0  0  0  0  0  0  0  0  0  0
  181.2291   19.0562   45.6973 H   0  0  0  0  0  0  0  0  0  0  0  0
  179.7899   18.9669   44.6260 H   0  0  0  0  0  0  0  0  0  0  0  0
  180.8197   20.4387   44.6260 H   0  0  0  0  0  0  0  0  0  0  0  0
  1  2  2  0
  2  3  1  0
  3  4  2  0
  4  5  1  0
  5  6  1  0
  6  7  1  0
  7  8  1  0
  8  9  2  0
  9 10  1  0
 10 11  2  0
 11 12  1  0
 12 13  1  0
 12 14  2  0
 14 15  1  0
 15 16  2  0
 15 17  1  0
 17 18  1  0
  5 19  2  0
 19 20  1  0
 20 21  2  0
 21 22  1  0
 21  3  1  0
 17  6  2  0
 14  8  1  0
  1 23  1  0
  1 24  1  0
  2 25  1  0
  4 26  1  0
  9 27  1  0
 10 28  1  0
 11 29  1  0
 13 30  1  0
 18 31  1  0
 19 32  1  0
 20 33  1  0
 22 34  1  0
 22 35  1  0
 22 36  1  0
M  END
>  <meeko>  (7) 
{"is_sidechain": [false], "free_energy": -7.1, "intermolecular_energy": -8.352, "internal_energy": -0.279}

$$$$
cand_031_out
     RDKit          3D

 36 38  0  0  0  0  0  0  0  0999 V2000
  177.4430   23.7920   47.7360 C   0  0  0  0  0  0  0  0  0  0  0  0
  177.4250   22.4780   47.4810 C   0  0  0  0  0  0  0  0  0  0  0  0
  178.6410   21.6630   47.3380 C   0  0  0  0  0  0  0  0  0  0  0  0
  179.8710   22.1710   47.7940 C   0  0  0  0  0  0  0  0  0  0  0  0
  181.0650   21.4470   47.6480 C   0  0  0  0  0  0  0  0  0  0  0  0
  182.3320   22.0060   48.1680 C   0  0  0  0  0  0  0  0  0  0  0  0
  183.0440   22.7120   47.2060 O   0  0  0  0  0  0  0  0  0  0  0  0
  184.2420   23.2840   47.5540 C   0  0  0  0  0  0  0  0  0  0  0  0
  184.9180   23.9940   46.5610 C   0  0  0  0  0  0  0  0  0  0  0  0
  186.1420   24.6000   46.8490 C   0  0  0  0  0  0  0  0  0  0  0  0
  186.6920   24.4940   48.1280 C   0  0  0  0  0  0  0  0  0  0  0  0
  186.0160   23.7840   49.1170 C   0  0  0  0  0  0  0  0  0  0  0  0
  186.6110   23.7210   50.3470 O   0  0  0  0  0  0  0  0  0  0  0  0
  184.7900   23.1790   48.8280 C   0  0  0  0  0  0  0  0  0  0  0  0
  184.0470   22.4250   49.8390 C   0  0  0  0  0  0  0  0  0  0  0  0
  184.4680   22.2810   50.9850 O   0  0  0  0  0  0  0  0  0  0  0  0
  182.7530   21.8280   49.4340 C   0  0  0  0  0  0  0  0  0  0  0  0
  182.0670   21.1050   50.3920 O   0  0  0  0  0  0  0  0  0  0  0  0
  181.0100   20.1890   47.0400 C   0  0  0  0  0  0  0  0  0  0  0  0
  179.7980   19.6760   46.5730 C   0  0  0  0  0  0  0  0  0  0  0  0
  178.6050   20.4010   46.7150 C   0  0  0  0  0  0  0  0  0  0  0  0
  177.3230   19.8080   46.1940 C   0  0  0  0  0  0  0  0  0  0  0  0
  176.4979   24.3466   47.8319 H   0  0  0  0  0  0  0  0  0  0  0  0
  178.4029   24.3171   47.8497 H   0  0  0  0  0  0  0  0  0  0  0  0
  176.4494   21.9816   47.3727 H   0  0  0  0  0  0  0  0  0  0  0  0
  179.8980   23.1592   48.2765 H   0  0  0  0  0  0  0  0  0  0  0  0
  184.4868   24.0760   45.5524 H   0  0  0  0  0  0  0  0  0  0  0  0
  186.6741   25.1619   46.0672 H   0  0  0  0  0  0  0  0  0  0  0  0
  187.6574   24.9704   48.3539 H   0  0  0  0  0  0  0  0  0  0  0  0
  186.6530   22.9060   50.8070 H   0  0  0  0  0  0  0  0  0  0  0  0
  181.1470   21.2390   50.5100 H   0  0  0  0  0  0  0  0  0  0  0  0
  181.9307   19.5975   46.9284 H   0  0  0  0  0  0  0  0  0  0  0  0
  179.7783   18.6894   46.0869 H   0  0  0  0  0  0  0  0  0  0  0  0
  176.6850   19.5129   47.0401 H   0  0  0  0  0  0  0  0  0  0  0  0
  176.7966   20.5541   45.5806 H   0  0  0  0  0  0  0  0  0  0  0  0
  177.5507   18.9237   45.5806 H   0  0  0  0  0  0  0  0  0  0  0  0
  1  2  2  0
  2  3  1  0
  3  4  2  0
  4  5  1  0
  5  6  1  0
  6  7  1  0
  7  8  1  0
  8  9  2  0
  9 10  1  0
 10 11  2  0
 11 12  1  0
 12 13  1  0
 12 14  2  0
 14 15  1  0
 15 16  2  0
 15 17  1  0
 17 18  1  0
  5 19  2  0
 19 20  1  0
 20 21  2  0
 21 22  1  0
 21  3  1  0
 17  6  2  0
 14  8  1  0
  1 23  1  0
  1 24  1  0
  2 25  1  0
  4 26  1  0
  9 27  1  0
 10 28  1  0
 11 29  1  0
 13 30  1  0
 18 31  1  0
 19 32  1  0
 20 33  1  0
 22 34  1  0
 22 35  1  0
 22 36  1  0
M  END
>  <meeko>  (8) 
{"is_sidechain": [false], "free_energy": -7.088, "intermolecular_energy": -8.134, "internal_energy": -0.484}

$$$$
cand_031_out
     RDKit          3D

 36 38  0  0  0  0  0  0  0  0999 V2000
  173.0430   24.3860   54.2950 C   0  0  0  0  0  0  0  0  0  0  0  0
  172.2420   23.7170   53.4570 C   0  0  0  0  0  0  0  0  0  0  0  0
  172.2880   23.8720   51.9950 C   0  0  0  0  0  0  0  0  0  0  0  0
  173.4000   23.3870   51.2830 C   0  0  0  0  0  0  0  0  0  0  0  0
  173.5070   23.5410   49.8920 C   0  0  0  0  0  0  0  0  0  0  0  0
  174.6800   22.9890   49.1790 C   0  0  0  0  0  0  0  0  0  0  0  0
  174.4530   21.7140   48.6750 O   0  0  0  0  0  0  0  0  0  0  0  0
  175.4600   21.0820   47.9920 C   0  0  0  0  0  0  0  0  0  0  0  0
  175.1850   19.8090   47.4910 C   0  0  0  0  0  0  0  0  0  0  0  0
  176.1680   19.1100   46.7870 C   0  0  0  0  0  0  0  0  0  0  0  0
  177.4250   19.6830   46.5840 C   0  0  0  0  0  0  0  0  0  0  0  0
  177.6970   20.9530   47.0850 C   0  0  0  0  0  0  0  0  0  0  0  0
  178.9480   21.4540   46.8500 O   0  0  0  0  0  0  0  0  0  0  0  0
  176.7130   21.6520   47.7890 C   0  0  0  0  0  0  0  0  0  0  0  0
  176.9580   22.9900   48.3310 C   0  0  0  0  0  0  0  0  0  0  0  0
  178.0400   23.5580   48.2000 O   0  0  0  0  0  0  0  0  0  0  0  0
  175.8470   23.6480   49.0560 C   0  0  0  0  0  0  0  0  0  0  0  0
  176.0930   24.9050   49.5770 O   0  0  0  0  0  0  0  0  0  0  0  0
  172.4710   24.1890   49.2130 C   0  0  0  0  0  0  0  0  0  0  0  0
  171.3660   24.6860   49.9070 C   0  0  0  0  0  0  0  0  0  0  0  0
  171.2590   24.5350   51.2980 C   0  0  0  0  0  0  0  0  0  0  0  0
  170.0500   25.0880   52.0030 C   0  0  0  0  0  0  0  0  0  0  0  0
  172.9601   24.2263   55.3802 H   0  0  0  0  0  0  0  0  0  0  0  0
  173.7842   25.0955   53.8985 H   0  0  0  0  0  0  0  0  0  0  0  0
  171.5111   23.0145   53.8839 H   0  0  0  0  0  0  0  0  0  0  0  0
  174.2053   22.8746   51.8297 H   0  0  0  0  0  0  0  0  0  0  0  0
  174.1951   19.3566   47.6504 H   0  0  0  0  0  0  0  0  0  0  0  0
  175.9516   18.1065   46.3918 H   0  0  0  0  0  0  0  0  0  0  0  0
  178.1988   19.1320   46.0293 H   0  0  0  0  0  0  0  0  0  0  0  0
  179.6230   20.8950   46.5170 H   0  0  0  0  0  0  0  0  0  0  0  0
  175.9670   25.6660   49.0440 H   0  0  0  0  0  0  0  0  0  0  0  0
  172.5269   24.3086   48.1209 H   0  0  0  0  0  0  0  0  0  0  0  0
  170.5675   25.2036   49.3552 H   0  0  0  0  0  0  0  0  0  0  0  0
  170.1973   25.0206   53.0910 H   0  0  0  0  0  0  0  0  0  0  0  0
  169.9081   26.1406   51.7167 H   0  0  0  0  0  0  0  0  0  0  0  0
  169.1609   24.5070   51.7167 H   0  0  0  0  0  0  0  0  0  0  0  0
  1  2  2  0
  2  3  1  0
  3  4  2  0
  4  5  1  0
  5  6  1  0
  6  7  1  0
  7  8  1  0
  8  9  2  0
  9 10  1  0
 10 11  2  0
 11 12  1  0
 12 13  1  0
 12 14  2  0
 14 15  1  0
 15 16  2  0
 15 17  1  0
 17 18  1  0
  5 19  2  0
 19 20  1  0
 20 21  2  0
 21 22  1  0
 21  3  1  0
 17  6  2  0
 14  8  1  0
  1 23  1  0
  1 24  1  0
  2 25  1  0
  4 26  1  0
  9 27  1  0
 10 28  1  0
 11 29  1  0
 13 30  1  0
 18 31  1  0
 19 32  1  0
 20 33  1  0
 22 34  1  0
 22 35  1  0
 22 36  1  0
M  END
>  <meeko>  (9) 
{"is_sidechain": [false], "free_energy": -7.049, "intermolecular_energy": -8.08, "internal_energy": -0.491}

$$$$
