cand_005_out
     RDKit          3D

 36 38  0  0  0  0  0  0  0  0999 V2000
  179.1120   13.6830   45.0700 C   0  0  0  0  0  0  0  0  0  0  0  0
  180.3180   14.2050   44.8210 C   0  0  0  0  0  0  0  0  0  0  0  0
  180.5120   15.6220   44.4840 C   0  0  0  0  0  0  0  0  0  0  0  0
  180.0290   16.6000   45.3720 C   0  0  0  0  0  0  0  0  0  0  0  0
  180.1650   17.9710   45.1010 C   0  0  0  0  0  0  0  0  0  0  0  0
  179.6670   18.9650   46.0740 C   0  0  0  0  0  0  0  0  0  0  0  0
  178.2800   18.9880   46.1610 O   0  0  0  0  0  0  0  0  0  0  0  0
  177.6850   19.8700   47.0280 C   0  0  0  0  0  0  0  0  0  0  0  0
  176.2910   19.8510   47.0940 C   0  0  0  0  0  0  0  0  0  0  0  0
  175.6230   20.7230   47.9550 C   0  0  0  0  0  0  0  0  0  0  0  0
  176.3460   21.6140   48.7500 C   0  0  0  0  0  0  0  0  0  0  0  0
  177.7380   21.6320   48.6810 C   0  0  0  0  0  0  0  0  0  0  0  0
  178.3830   22.5300   49.4860 O   0  0  0  0  0  0  0  0  0  0  0  0
  178.4060   20.7580   47.8200 C   0  0  0  0  0  0  0  0  0  0  0  0
  179.8660   20.7440   47.7190 C   0  0  0  0  0  0  0  0  0  0  0  0
  180.5730   21.5020   48.3790 O   0  0  0  0  0  0  0  0  0  0  0  0
  180.4780   19.7740   46.7800 C   0  0  0  0  0  0  0  0  0  0  0  0
  181.8560   19.7790   46.6800 O   0  0  0  0  0  0  0  0  0  0  0  0
  180.8110   18.3530   43.9210 C   0  0  0  0  0  0  0  0  0  0  0  0
  181.2910   17.3910   43.0270 C   0  0  0  0  0  0  0  0  0  0  0  0
  181.1460   16.0180   43.2920 C   0  0  0  0  0  0  0  0  0  0  0  0
  181.6870   15.0070   42.3080 C   0  0  0  0  0  0  0  0  0  0  0  0
  183.0020   14.7180   42.5080 F   0  0  0  0  0  0  0  0  0  0  0  0
  181.6010   15.4210   41.0100 F   0  0  0  0  0  0  0  0  0  0  0  0
  181.0240   13.8160   42.3490 F   0  0  0  0  0  0  0  0  0  0  0  0
  179.0152   12.6158   45.3184 H   0  0  0  0  0  0  0  0  0  0  0  0
  178.2169   14.3209   45.0264 H   0  0  0  0  0  0  0  0  0  0  0  0
  181.1988   13.5480   44.8704 H   0  0  0  0  0  0  0  0  0  0  0  0
  179.5328   16.2832   46.3012 H   0  0  0  0  0  0  0  0  0  0  0  0
  175.7196   19.1497   46.4682 H   0  0  0  0  0  0  0  0  0  0  0  0
  174.5243   20.7081   48.0072 H   0  0  0  0  0  0  0  0  0  0  0  0
  175.8186   22.3001   49.4291 H   0  0  0  0  0  0  0  0  0  0  0  0
  178.3200   22.4550   50.4170 H   0  0  0  0  0  0  0  0  0  0  0  0
  182.3810   19.5280   47.4150 H   0  0  0  0  0  0  0  0  0  0  0  0
  180.9429   19.4212   43.6938 H   0  0  0  0  0  0  0  0  0  0  0  0
  181.7901   17.7137   42.1014 H   0  0  0  0  0  0  0  0  0  0  0  0
  1  2  2  0
  2  3  1  0
  3  4  2  0
  4  5  1  0
  5  6  1  0
  6  7  1  0
  7  8  1  0
  8  9  2  0
  9 10  1  0
 10 11  2  0
 11 12  1  0
 12 13  1  0
 12 14  2  0
 14 15  1  0
 15 16  2  0
 15 17  1  0
 17 18  1  0
  5 19  2  0
 19 20  1  0
 20 21  2  0
 21 22  1  0
 22 23  1  0
 22 24  1  0
 22 25  1  0
 21  3  1  0
 17  6  2  0
 14  8  1  0
  1 26  1  0
  1 27  1  0
  2 28  1  0
  4 29  1  0
  9 30  1  0
 10 31  1  0
 11 32  1  0
 13 33  1  0
 18 34  1  0
 19 35  1  0
 20 36  1  0
M  END
>  <meeko>  (1) 
{"is_sidechain": [false], "free_energy": -8.341, "intermolecular_energy": -10.292, "internal_energy": -0.199}

$$$$
cand_005_out
     RDKit          3D

 36 38  0  0  0  0  0  0  0  0999 V2000
  175.0980   18.6540   46.9860 C   0  0  0  0  0  0  0  0  0  0  0  0
  175.8840   19.0880   47.9770 C   0  0  0  0  0  0  0  0  0  0  0  0
  176.0280   20.5120   48.3060 C   0  0  0  0  0  0  0  0  0  0  0  0
  175.2010   21.0640   49.3020 C   0  0  0  0  0  0  0  0  0  0  0  0
  175.2750   22.4210   49.6510 C   0  0  0  0  0  0  0  0  0  0  0  0
  174.4050   22.9530   50.7210 C   0  0  0  0  0  0  0  0  0  0  0  0
  175.1060   23.2820   51.8750 O   0  0  0  0  0  0  0  0  0  0  0  0
  174.4160   23.7860   52.9480 C   0  0  0  0  0  0  0  0  0  0  0  0
  175.1610   24.1160   54.0810 C   0  0  0  0  0  0  0  0  0  0  0  0
  174.5210   24.6320   55.2090 C   0  0  0  0  0  0  0  0  0  0  0  0
  173.1370   24.8200   55.2050 C   0  0  0  0  0  0  0  0  0  0  0  0
  172.3960   24.4890   54.0720 C   0  0  0  0  0  0  0  0  0  0  0  0
  171.0460   24.6980   54.1360 O   0  0  0  0  0  0  0  0  0  0  0  0
  173.0380   23.9730   52.9440 C   0  0  0  0  0  0  0  0  0  0  0  0
  172.2960   23.6140   51.7340 C   0  0  0  0  0  0  0  0  0  0  0  0
  171.0770   23.7430   51.6540 O   0  0  0  0  0  0  0  0  0  0  0  0
  173.0720   23.0810   50.5890 C   0  0  0  0  0  0  0  0  0  0  0  0
  172.3610   22.7300   49.4560 O   0  0  0  0  0  0  0  0  0  0  0  0
  176.2090   23.2260   48.9910 C   0  0  0  0  0  0  0  0  0  0  0  0
  177.0340   22.6930   47.9970 C   0  0  0  0  0  0  0  0  0  0  0  0
  176.9540   21.3350   47.6380 C   0  0  0  0  0  0  0  0  0  0  0  0
  177.8690   20.7910   46.5670 C   0  0  0  0  0  0  0  0  0  0  0  0
  178.5210   19.6570   46.9450 F   0  0  0  0  0  0  0  0  0  0  0  0
  178.8500   21.6680   46.2020 F   0  0  0  0  0  0  0  0  0  0  0  0
  177.2130   20.4860   45.4100 F   0  0  0  0  0  0  0  0  0  0  0  0
  175.0216   17.5769   46.7762 H   0  0  0  0  0  0  0  0  0  0  0  0
  174.5279   19.3741   46.3807 H   0  0  0  0  0  0  0  0  0  0  0  0
  176.4446   18.3495   48.5689 H   0  0  0  0  0  0  0  0  0  0  0  0
  174.4788   20.4156   49.8197 H   0  0  0  0  0  0  0  0  0  0  0  0
  176.2512   23.9696   54.0851 H   0  0  0  0  0  0  0  0  0  0  0  0
  175.1077   24.8911   56.1027 H   0  0  0  0  0  0  0  0  0  0  0  0
  172.6333   25.2282   56.0936 H   0  0  0  0  0  0  0  0  0  0  0  0
  170.6820   25.5080   53.8390 H   0  0  0  0  0  0  0  0  0  0  0  0
  172.2670   23.3430   48.7530 H   0  0  0  0  0  0  0  0  0  0  0  0
  176.2951   24.2898   49.2571 H   0  0  0  0  0  0  0  0  0  0  0  0
  177.7577   23.3458   47.4870 H   0  0  0  0  0  0  0  0  0  0  0  0
  1  2  2  0
  2  3  1  0
  3  4  2  0
  4  5  1  0
  5  6  1  0
  6  7  1  0
  7  8  1  0
  8  9  2  0
  9 10  1  0
 10 11  2  0
 11 12  1  0
 12 13  1  0
 12 14  2  0
 14 15  1  0
 15 16  2  0
 15 17  1  0
 17 18  1  0
  5 19  2  0
 19 20  1  0
 20 21  2  0
 21 22  1  0
 22 23  1  0
 22 24  1  0
 22 25  1  0
 21  3  1  0
 17  6  2  0
 14  8  1  0
  1 26  1  0
  1 27  1  0
  2 28  1  0
  4 29  1  0
  9 30  1  0
 10 31  1  0
 11 32  1  0
 13 33  1  0
 18 34  1  0
 19 35  1  0
 20 36  1  0
M  END
>  <meeko>  (2) 
{"is_sidechain": [false], "free_energy": -8.125, "intermolecular_energy": -9.776, "internal_energy": -0.448}

$$$$
cand_005_out
     RDKit          3D

 36 38  0  0  0  0  0  0  0  0999 V2000
  176.6120   18.8230   46.3250 C   0  0  0  0  0  0  0  0  0  0  0  0
  177.9000   19.1870   46.3070 C   0  0  0  0  0  0  0  0  0  0  0  0
  178.4030   20.3490   47.0510 C   0  0  0  0  0  0  0  0  0  0  0  0
  177.5930   20.9140   48.0530 C   0  0  0  0  0  0  0  0  0  0  0  0
  178.0070   22.0360   48.7880 C   0  0  0  0  0  0  0  0  0  0  0  0
  177.1350   22.5810   49.8500 C   0  0  0  0  0  0  0  0  0  0  0  0
  176.0400   23.2730   49.3480 O   0  0  0  0  0  0  0  0  0  0  0  0
  175.1490   23.8330   50.2290 C   0  0  0  0  0  0  0  0  0  0  0  0
  174.0560   24.5070   49.6820 C   0  0  0  0  0  0  0  0  0  0  0  0
  173.1130   25.1010   50.5230 C   0  0  0  0  0  0  0  0  0  0  0  0
  173.2620   25.0210   51.9090 C   0  0  0  0  0  0  0  0  0  0  0  0
  174.3540   24.3480   52.4520 C   0  0  0  0  0  0  0  0  0  0  0  0
  174.4380   24.3090   53.8160 O   0  0  0  0  0  0  0  0  0  0  0  0
  175.2970   23.7530   51.6100 C   0  0  0  0  0  0  0  0  0  0  0  0
  176.4580   23.0370   52.1400 C   0  0  0  0  0  0  0  0  0  0  0  0
  176.6630   22.9290   53.3460 O   0  0  0  0  0  0  0  0  0  0  0  0
  177.3960   22.4360   51.1620 C   0  0  0  0  0  0  0  0  0  0  0  0
  178.4970   21.7740   51.6710 O   0  0  0  0  0  0  0  0  0  0  0  0
  179.2630   22.5830   48.5110 C   0  0  0  0  0  0  0  0  0  0  0  0
  180.0760   22.0360   47.5150 C   0  0  0  0  0  0  0  0  0  0  0  0
  179.6590   20.9180   46.7710 C   0  0  0  0  0  0  0  0  0  0  0  0
  180.5690   20.3470   45.7090 C   0  0  0  0  0  0  0  0  0  0  0  0
  180.9810   19.0780   45.9840 F   0  0  0  0  0  0  0  0  0  0  0  0
  181.7150   21.0690   45.5370 F   0  0  0  0  0  0  0  0  0  0  0  0
  179.9880   20.3000   44.4770 F   0  0  0  0  0  0  0  0  0  0  0  0
  176.2806   17.9446   45.7517 H   0  0  0  0  0  0  0  0  0  0  0  0
  175.8849   19.4023   46.9131 H   0  0  0  0  0  0  0  0  0  0  0  0
  178.6091   18.5928   45.7119 H   0  0  0  0  0  0  0  0  0  0  0  0
  176.6113   20.4656   48.2657 H   0  0  0  0  0  0  0  0  0  0  0  0
  173.9377   24.5701   48.5902 H   0  0  0  0  0  0  0  0  0  0  0  0
  172.2514   25.6328   50.0930 H   0  0  0  0  0  0  0  0  0  0  0  0
  172.5183   25.4886   52.5710 H   0  0  0  0  0  0  0  0  0  0  0  0
  175.0470   24.8630   54.2650 H   0  0  0  0  0  0  0  0  0  0  0  0
  179.2290   22.2610   51.9960 H   0  0  0  0  0  0  0  0  0  0  0  0
  179.6153   23.4537   49.0834 H   0  0  0  0  0  0  0  0  0  0  0  0
  181.0580   22.4871   47.3096 H   0  0  0  0  0  0  0  0  0  0  0  0
  1  2  2  0
  2  3  1  0
  3  4  2  0
  4  5  1  0
  5  6  1  0
  6  7  1  0
  7  8  1  0
  8  9  2  0
  9 10  1  0
 10 11  2  0
 11 12  1  0
 12 13  1  0
 12 14  2  0
 14 15  1  0
 15 16  2  0
 15 17  1  0
 17 18  1  0
  5 19  2  0
 19 20  1  0
 20 21  2  0
 21 22  1  0
 22 23  1  0
 22 24  1  0
 22 25  1  0
 21  3  1  0
 17  6  2  0
 14  8  1  0
  1 26  1  0
  1 27  1  0
  2 28  1  0
  4 29  1  0
  9 30  1  0
 10 31  1  0
 11 32  1  0
 13 33  1  0
 18 34  1  0
 19 35  1  0
 20 36  1  0
M  END
>  <meeko>  (3) 
{"is_sidechain": [false], "free_energy": -8.006, "intermolecular_energy": -9.543, "internal_energy": -0.534}

$$$$
cand_005_out
     RDKit          3D

 36 38  0  0  0  0  0  0  0  0999 V2000
  178.9320   23.8540   47.7550 C   0  0  0  0  0  0  0  0  0  0  0  0
  177.8240   23.2960   47.2540 C   0  0  0  0  0  0  0  0  0  0  0  0
  176.9600   22.4090   48.0440 C   0  0  0  0  0  0  0  0  0  0  0  0
  176.1290   22.9740   49.0280 C   0  0  0  0  0  0  0  0  0  0  0  0
  175.2930   22.1810   49.8290 C   0  0  0  0  0  0  0  0  0  0  0  0
  174.4160   22.8190   50.8340 C   0  0  0  0  0  0  0  0  0  0  0  0
  175.0970   23.1900   51.9880 O   0  0  0  0  0  0  0  0  0  0  0  0
  174.3990   23.7920   53.0030 C   0  0  0  0  0  0  0  0  0  0  0  0
  175.1240   24.1600   54.1380 C   0  0  0  0  0  0  0  0  0  0  0  0
  174.4740   24.7770   55.2090 C   0  0  0  0  0  0  0  0  0  0  0  0
  173.1020   25.0260   55.1470 C   0  0  0  0  0  0  0  0  0  0  0  0
  172.3810   24.6570   54.0140 C   0  0  0  0  0  0  0  0  0  0  0  0
  171.0410   24.9290   54.0190 O   0  0  0  0  0  0  0  0  0  0  0  0
  173.0320   24.0410   52.9420 C   0  0  0  0  0  0  0  0  0  0  0  0
  172.3110   23.6380   51.7320 C   0  0  0  0  0  0  0  0  0  0  0  0
  171.1020   23.8160   51.6040 O   0  0  0  0  0  0  0  0  0  0  0  0
  173.0950   22.9980   50.6500 C   0  0  0  0  0  0  0  0  0  0  0  0
  172.4040   22.6080   49.5180 O   0  0  0  0  0  0  0  0  0  0  0  0
  175.2900   20.7980   49.6200 C   0  0  0  0  0  0  0  0  0  0  0  0
  176.1140   20.2230   48.6490 C   0  0  0  0  0  0  0  0  0  0  0  0
  176.9600   21.0150   47.8530 C   0  0  0  0  0  0  0  0  0  0  0  0
  177.8290   20.3580   46.8060 C   0  0  0  0  0  0  0  0  0  0  0  0
  179.1610   20.5400   47.0250 F   0  0  0  0  0  0  0  0  0  0  0  0
  177.6030   20.8320   45.5450 F   0  0  0  0  0  0  0  0  0  0  0  0
  177.6380   19.0110   46.7220 F   0  0  0  0  0  0  0  0  0  0  0  0
  179.5491   24.5123   47.1259 H   0  0  0  0  0  0  0  0  0  0  0  0
  179.2259   23.6544   48.7961 H   0  0  0  0  0  0  0  0  0  0  0  0
  177.5496   23.5097   46.2104 H   0  0  0  0  0  0  0  0  0  0  0  0
  176.1345   24.0643   49.1733 H   0  0  0  0  0  0  0  0  0  0  0  0
  176.2053   23.9643   54.1885 H   0  0  0  0  0  0  0  0  0  0  0  0
  175.0446   25.0674   56.1035 H   0  0  0  0  0  0  0  0  0  0  0  0
  172.5914   25.5126   55.9911 H   0  0  0  0  0  0  0  0  0  0  0  0
  170.5890   25.0450   54.8320 H   0  0  0  0  0  0  0  0  0  0  0  0
  172.8650   22.4440   48.7200 H   0  0  0  0  0  0  0  0  0  0  0  0
  174.6327   20.1569   50.2258 H   0  0  0  0  0  0  0  0  0  0  0  0
  176.1005   19.1325   48.5050 H   0  0  0  0  0  0  0  0  0  0  0  0
  1  2  2  0
  2  3  1  0
  3  4  2  0
  4  5  1  0
  5  6  1  0
  6  7  1  0
  7  8  1  0
  8  9  2  0
  9 10  1  0
 10 11  2  0
 11 12  1  0
 12 13  1  0
 12 14  2  0
 14 15  1  0
 15 16  2  0
 15 17  1  0
 17 18  1  0
  5 19  2  0
 19 20  1  0
 20 21  2  0
 21 22  1  0
 22 23  1  0
 22 24  1  0
 22 25  1  0
 21  3  1  0
 17  6  2  0
 14  8  1  0
  1 26  1  0
  1 27  1  0
  2 28  1  0
  4 29  1  0
  9 30  1  0
 10 31  1  0
 11 32  1  0
 13 33  1  0
 18 34  1  0
 19 35  1  0
 20 36  1  0
M  END
>  <meeko>  (4) 
{"is_sidechain": [false], "free_energy": -7.709, "intermolecular_energy": -9.088, "internal_energy": -0.623}

$$$$
cand_005_out
     RDKit          3D

 36 38  0  0  0  0  0  0  0  0999 V2000
  176.4860   23.5000   48.8700 C   0  0  0  0  0  0  0  0  0  0  0  0
  177.0730   23.2120   47.7020 C   0  0  0  0  0  0  0  0  0  0  0  0
  178.1430   22.2140   47.5800 C   0  0  0  0  0  0  0  0  0  0  0  0
  179.4490   22.5720   47.9650 C   0  0  0  0  0  0  0  0  0  0  0  0
  180.5200   21.6710   47.8570 C   0  0  0  0  0  0  0  0  0  0  0  0
  181.8700   22.0800   48.2970 C   0  0  0  0  0  0  0  0  0  0  0  0
  182.6510   22.5740   47.2590 O   0  0  0  0  0  0  0  0  0  0  0  0
  183.9300   22.9880   47.5320 C   0  0  0  0  0  0  0  0  0  0  0  0
  184.6750   23.4900   46.4630 C   0  0  0  0  0  0  0  0  0  0  0  0
  185.9850   23.9270   46.6710 C   0  0  0  0  0  0  0  0  0  0  0  0
  186.5500   23.8640   47.9470 C   0  0  0  0  0  0  0  0  0  0  0  0
  185.8050   23.3620   49.0110 C   0  0  0  0  0  0  0  0  0  0  0  0
  186.4190   23.3270   50.2320 O   0  0  0  0  0  0  0  0  0  0  0  0
  184.4940   22.9250   48.8020 C   0  0  0  0  0  0  0  0  0  0  0  0
  183.6770   22.3920   49.8940 C   0  0  0  0  0  0  0  0  0  0  0  0
  184.1050   22.2970   51.0420 O   0  0  0  0  0  0  0  0  0  0  0  0
  182.2970   21.9620   49.5680 C   0  0  0  0  0  0  0  0  0  0  0  0
  181.5380   21.4460   50.6020 O   0  0  0  0  0  0  0  0  0  0  0  0
  180.2620   20.3890   47.3650 C   0  0  0  0  0  0  0  0  0  0  0  0
  178.9710   20.0210   46.9740 C   0  0  0  0  0  0  0  0  0  0  0  0
  177.8980   20.9250   47.0720 C   0  0  0  0  0  0  0  0  0  0  0  0
  176.5150   20.4900   46.6500 C   0  0  0  0  0  0  0  0  0  0  0  0
  176.5160   19.3390   45.9200 F   0  0  0  0  0  0  0  0  0  0  0  0
  175.8750   21.4110   45.8710 F   0  0  0  0  0  0  0  0  0  0  0  0
  175.6790   20.2700   47.7050 F   0  0  0  0  0  0  0  0  0  0  0  0
  175.6879   24.2558   48.9128 H   0  0  0  0  0  0  0  0  0  0  0  0
  176.8017   22.9809   49.7870 H   0  0  0  0  0  0  0  0  0  0  0  0
  176.7408   23.7438   46.7982 H   0  0  0  0  0  0  0  0  0  0  0  0
  179.6346   23.5818   48.3598 H   0  0  0  0  0  0  0  0  0  0  0  0
  184.2305   23.5412   45.4581 H   0  0  0  0  0  0  0  0  0  0  0  0
  186.5727   24.3213   45.8289 H   0  0  0  0  0  0  0  0  0  0  0  0
  187.5812   24.2102   48.1109 H   0  0  0  0  0  0  0  0  0  0  0  0
  186.1950   23.9570   50.8880 H   0  0  0  0  0  0  0  0  0  0  0  0
  180.7210   21.8450   50.8280 H   0  0  0  0  0  0  0  0  0  0  0  0
  181.0832   19.6615   47.2844 H   0  0  0  0  0  0  0  0  0  0  0  0
  178.7917   19.0084   46.5835 H   0  0  0  0  0  0  0  0  0  0  0  0
  1  2  2  0
  2  3  1  0
  3  4  2  0
  4  5  1  0
  5  6  1  0
  6  7  1  0
  7  8  1  0
  8  9  2  0
  9 10  1  0
 10 11  2  0
 11 12  1  0
 12 13  1  0
 12 14  2  0
 14 15  1  0
 15 16  2  0
 15 17  1  0
 17 18  1  0
  5 19  2  0
 19 20  1  0
 20 21  2  0
 21 22  1  0
 22 23  1  0
 22 24  1  0
 22 25  1  0
 21  3  1  0
 17  6  2  0
 14  8  1  0
  1 26  1  0
  1 27  1  0
  2 28  1  0
  4 29  1  0
  9 30  1  0
 10 31  1  0
 11 32  1  0
 13 33  1  0
 18 34  1  0
 19 35  1  0
 20 36  1  0
M  END
>  <meeko>  (5) 
{"is_sidechain": [false], "free_energy": -7.667, "intermolecular_energy": -9.07, "internal_energy": -0.589}

$$$$
cand_005_out
     RDKit          3D

 36 38  0  0  0  0  0  0  0  0999 V2000
  180.4050   18.4970   45.4040 C   0  0  0  0  0  0  0  0  0  0  0  0
  179.4430   18.9480   46.2180 C   0  0  0  0  0  0  0  0  0  0  0  0
  179.5000   20.2720   46.8510 C   0  0  0  0  0  0  0  0  0  0  0  0
  180.7360   20.7350   47.3400 C   0  0  0  0  0  0  0  0  0  0  0  0
  180.8550   21.9830   47.9720 C   0  0  0  0  0  0  0  0  0  0  0  0
  182.1780   22.4410   48.4480 C   0  0  0  0  0  0  0  0  0  0  0  0
  182.8180   23.2770   47.5410 O   0  0  0  0  0  0  0  0  0  0  0  0
  184.0570   23.7730   47.8590 C   0  0  0  0  0  0  0  0  0  0  0  0
  184.6590   24.6190   46.9260 C   0  0  0  0  0  0  0  0  0  0  0  0
  185.9200   25.1580   47.1860 C   0  0  0  0  0  0  0  0  0  0  0  0
  186.5800   24.8520   48.3780 C   0  0  0  0  0  0  0  0  0  0  0  0
  185.9780   24.0070   49.3070 C   0  0  0  0  0  0  0  0  0  0  0  0
  186.6800   23.7490   50.4520 O   0  0  0  0  0  0  0  0  0  0  0  0
  184.7150   23.4690   49.0460 C   0  0  0  0  0  0  0  0  0  0  0  0
  184.0470   22.5770   49.9960 C   0  0  0  0  0  0  0  0  0  0  0  0
  184.5650   22.2550   51.0630 O   0  0  0  0  0  0  0  0  0  0  0  0
  182.7060   22.0660   49.6270 C   0  0  0  0  0  0  0  0  0  0  0  0
  182.0900   21.2130   50.5230 O   0  0  0  0  0  0  0  0  0  0  0  0
  179.7100   22.7750   48.0980 C   0  0  0  0  0  0  0  0  0  0  0  0
  178.4760   22.3250   47.6220 C   0  0  0  0  0  0  0  0  0  0  0  0
  178.3520   21.0710   46.9970 C   0  0  0  0  0  0  0  0  0  0  0  0
  177.0040   20.6230   46.4850 C   0  0  0  0  0  0  0  0  0  0  0  0
  176.5760   19.4600   47.0510 F   0  0  0  0  0  0  0  0  0  0  0  0
  176.9880   20.3970   45.1390 F   0  0  0  0  0  0  0  0  0  0  0  0
  176.0180   21.5380   46.7060 F   0  0  0  0  0  0  0  0  0  0  0  0
  180.3194   17.4977   44.9522 H   0  0  0  0  0  0  0  0  0  0  0  0
  181.2812   19.1256   45.1868 H   0  0  0  0  0  0  0  0  0  0  0  0
  178.5761   18.3020   46.4207 H   0  0  0  0  0  0  0  0  0  0  0  0
  181.6297   20.1042   47.2243 H   0  0  0  0  0  0  0  0  0  0  0  0
  184.1400   24.8607   45.9867 H   0  0  0  0  0  0  0  0  0  0  0  0
  186.3945   25.8247   46.4510 H   0  0  0  0  0  0  0  0  0  0  0  0
  187.5735   25.2776   48.5828 H   0  0  0  0  0  0  0  0  0  0  0  0
  187.5000   23.2990   50.4080 H   0  0  0  0  0  0  0  0  0  0  0  0
  182.5990   20.7560   51.1630 H   0  0  0  0  0  0  0  0  0  0  0  0
  179.7814   23.7627   48.5769 H   0  0  0  0  0  0  0  0  0  0  0  0
  177.5867   22.9619   47.7379 H   0  0  0  0  0  0  0  0  0  0  0  0
  1  2  2  0
  2  3  1  0
  3  4  2  0
  4  5  1  0
  5  6  1  0
  6  7  1  0
  7  8  1  0
  8  9  2  0
  9 10  1  0
 10 11  2  0
 11 12  1  0
 12 13  1  0
 12 14  2  0
 14 15  1  0
 15 16  2  0
 15 17  1  0
 17 18  1  0
  5 19  2  0
 19 20  1  0
 20 21  2  0
 21 22  1  0
 22 23  1  0
 22 24  1  0
 22 25  1  0
 21  3  1  0
 17  6  2  0
 14  8  1  0
  1 26  1  0
  1 27  1  0
  2 28  1  0
  4 29  1  0
  9 30  1  0
 10 31  1  0
 11 32  1  0
 13 33  1  0
 18 34  1  0
 19 35  1  0
 20 36  1  0
M  END
>  <meeko>  (6) 
{"is_sidechain": [false], "free_energy": -7.657, "intermolecular_energy": -9.041, "internal_energy": -0.605}

$$$$
cand_005_out
     RDKit          3D

 36 38  0  0  0  0  0  0  0  0999 V2000
  174.1200   26.7790   51.5360 C   0  0  0  0  0  0  0  0  0  0  0  0
  174.1740   26.3680   50.2640 C   0  0  0  0  0  0  0  0  0  0  0  0
  174.4170   24.9670   49.8960 C   0  0  0  0  0  0  0  0  0  0  0  0
  175.7340   24.4730   49.9490 C   0  0  0  0  0  0  0  0  0  0  0  0
  176.0370   23.1500   49.5920 C   0  0  0  0  0  0  0  0  0  0  0  0
  177.4300   22.6640   49.6880 C   0  0  0  0  0  0  0  0  0  0  0  0
  177.8600   22.0250   48.5310 O   0  0  0  0  0  0  0  0  0  0  0  0
  179.1360   21.5250   48.4860 C   0  0  0  0  0  0  0  0  0  0  0  0
  179.5320   20.9030   47.3010 C   0  0  0  0  0  0  0  0  0  0  0  0
  180.8180   20.3700   47.1900 C   0  0  0  0  0  0  0  0  0  0  0  0
  181.7080   20.4580   48.2620 C   0  0  0  0  0  0  0  0  0  0  0  0
  181.3100   21.0780   49.4450 C   0  0  0  0  0  0  0  0  0  0  0  0
  182.2310   21.1290   50.4540 O   0  0  0  0  0  0  0  0  0  0  0  0
  180.0230   21.6120   49.5550 C   0  0  0  0  0  0  0  0  0  0  0  0
  179.5670   22.2730   50.7790 C   0  0  0  0  0  0  0  0  0  0  0  0
  180.2870   22.3840   51.7680 O   0  0  0  0  0  0  0  0  0  0  0  0
  178.1860   22.8110   50.7910 C   0  0  0  0  0  0  0  0  0  0  0  0
  177.7580   23.4190   51.9560 O   0  0  0  0  0  0  0  0  0  0  0  0
  174.9900   22.3140   49.1910 C   0  0  0  0  0  0  0  0  0  0  0  0
  173.6790   22.7930   49.1280 C   0  0  0  0  0  0  0  0  0  0  0  0
  173.3750   24.1220   49.4750 C   0  0  0  0  0  0  0  0  0  0  0  0
  171.9440   24.6010   49.4060 C   0  0  0  0  0  0  0  0  0  0  0  0
  171.3530   24.7000   50.6300 F   0  0  0  0  0  0  0  0  0  0  0  0
  171.1340   23.7770   48.6800 F   0  0  0  0  0  0  0  0  0  0  0  0
  171.8200   25.8280   48.8240 F   0  0  0  0  0  0  0  0  0  0  0  0
  173.9354   27.8391   51.7641 H   0  0  0  0  0  0  0  0  0  0  0  0
  174.2602   26.0568   52.3538 H   0  0  0  0  0  0  0  0  0  0  0  0
  174.0309   27.1079   49.4627 H   0  0  0  0  0  0  0  0  0  0  0  0
  176.5448   25.1396   50.2780 H   0  0  0  0  0  0  0  0  0  0  0  0
  178.8319   20.8327   46.4554 H   0  0  0  0  0  0  0  0  0  0  0  0
  181.1303   19.8799   46.2561 H   0  0  0  0  0  0  0  0  0  0  0  0
  182.7211   20.0389   48.1731 H   0  0  0  0  0  0  0  0  0  0  0  0
  182.7860   21.8780   50.5450 H   0  0  0  0  0  0  0  0  0  0  0  0
  177.1260   24.1090   51.9200 H   0  0  0  0  0  0  0  0  0  0  0  0
  175.2009   21.2684   48.9224 H   0  0  0  0  0  0  0  0  0  0  0  0
  172.8719   22.1204   48.8020 H   0  0  0  0  0  0  0  0  0  0  0  0
  1  2  2  0
  2  3  1  0
  3  4  2  0
  4  5  1  0
  5  6  1  0
  6  7  1  0
  7  8  1  0
  8  9  2  0
  9 10  1  0
 10 11  2  0
 11 12  1  0
 12 13  1  0
 12 14  2  0
 14 15  1  0
 15 16  2  0
 15 17  1  0
 17 18  1  0
  5 19  2  0
 19 20  1  0
 20 21  2  0
 21 22  1  0
 22 23  1  0
 22 24  1  0
 22 25  1  0
 21  3  1  0
 17  6  2  0
 14  8  1  0
  1 26  1  0
  1 27  1  0
  2 28  1  0
  4 29  1  0
  9 30  1  0
 10 31  1  0
 11 32  1  0
 13 33  1  0
 18 34  1  0
 19 35  1  0
 20 36  1  0
M  END
>  <meeko>  (7) 
{"is_sidechain": [false], "free_energy": -7.626, "intermolecular_energy": -9.312, "internal_energy": -0.296}

$$$$
cand_005_out
     RDKit          3D

 36 38  0  0  0  0  0  0  0  0999 V2000
  180.0200   21.6070   47.4810 C   0  0  0  0  0  0  0  0  0  0  0  0
  178.7790   21.8410   47.0390 C   0  0  0  0  0  0  0  0  0  0  0  0
  177.5860   21.5450   47.8410 C   0  0  0  0  0  0  0  0  0  0  0  0
  177.3010   22.3560   48.9560 C   0  0  0  0  0  0  0  0  0  0  0  0
  176.1870   22.1150   49.7750 C   0  0  0  0  0  0  0  0  0  0  0  0
  175.9110   23.0080   50.9200 C   0  0  0  0  0  0  0  0  0  0  0  0
  175.3310   24.2120   50.5400 O   0  0  0  0  0  0  0  0  0  0  0  0
  175.0250   25.1340   51.5090 C   0  0  0  0  0  0  0  0  0  0  0  0
  174.4320   26.3250   51.0850 C   0  0  0  0  0  0  0  0  0  0  0  0
  174.0970   27.3060   52.0190 C   0  0  0  0  0  0  0  0  0  0  0  0
  174.3540   27.0990   53.3760 C   0  0  0  0  0  0  0  0  0  0  0  0
  174.9470   25.9110   53.7960 C   0  0  0  0  0  0  0  0  0  0  0  0
  175.1710   25.7740   55.1380 O   0  0  0  0  0  0  0  0  0  0  0  0
  175.2820   24.9280   52.8610 C   0  0  0  0  0  0  0  0  0  0  0  0
  175.9050   23.6660   53.2610 C   0  0  0  0  0  0  0  0  0  0  0  0
  176.1700   23.4120   54.4330 O   0  0  0  0  0  0  0  0  0  0  0  0
  176.2150   22.6880   52.1920 C   0  0  0  0  0  0  0  0  0  0  0  0
  176.8170   21.5040   52.5770 O   0  0  0  0  0  0  0  0  0  0  0  0
  175.3430   21.0480   49.4510 C   0  0  0  0  0  0  0  0  0  0  0  0
  175.6160   20.2320   48.3500 C   0  0  0  0  0  0  0  0  0  0  0  0
  176.7380   20.4650   47.5350 C   0  0  0  0  0  0  0  0  0  0  0  0
  176.9950   19.5680   46.3460 C   0  0  0  0  0  0  0  0  0  0  0  0
  178.1980   18.9320   46.4060 F   0  0  0  0  0  0  0  0  0  0  0  0
  177.0000   20.2390   45.1570 F   0  0  0  0  0  0  0  0  0  0  0  0
  176.0550   18.5910   46.2020 F   0  0  0  0  0  0  0  0  0  0  0  0
  180.8847   21.8451   46.8441 H   0  0  0  0  0  0  0  0  0  0  0  0
  180.1756   21.1765   48.4812 H   0  0  0  0  0  0  0  0  0  0  0  0
  178.6478   22.2720   46.0355 H   0  0  0  0  0  0  0  0  0  0  0  0
  177.9675   23.1989   49.1910 H   0  0  0  0  0  0  0  0  0  0  0  0
  174.2293   26.4896   50.0164 H   0  0  0  0  0  0  0  0  0  0  0  0
  173.6295   28.2443   51.6858 H   0  0  0  0  0  0  0  0  0  0  0  0
  174.0886   27.8727   54.1115 H   0  0  0  0  0  0  0  0  0  0  0  0
  174.5330   25.3540   55.6800 H   0  0  0  0  0  0  0  0  0  0  0  0
  176.4900   21.0300   53.3150 H   0  0  0  0  0  0  0  0  0  0  0  0
  174.4552   20.8491   50.0692 H   0  0  0  0  0  0  0  0  0  0  0  0
  174.9425   19.3940   48.1171 H   0  0  0  0  0  0  0  0  0  0  0  0
  1  2  2  0
  2  3  1  0
  3  4  2  0
  4  5  1  0
  5  6  1  0
  6  7  1  0
  7  8  1  0
  8  9  2  0
  9 10  1  0
 10 11  2  0
 11 12  1  0
 12 13  1  0
 12 14  2  0
 14 15  1  0
 15 16  2  0
 15 17  1  0
 17 18  1  0
  5 19  2  0
 19 20  1  0
 20 21  2  0
 21 22  1  0
 22 23  1  0
 22 24  1  0
 22 25  1  0
 21  3  1  0
 17  6  2  0
 14  8  1  0
  1 26  1  0
  1 27  1  0
  2 28  1  0
  4 29  1  0
  9 30  1  0
 10 31  1  0
 11 32  1  0
 13 33  1  0
 18 34  1  0
 19 35  1  0
 20 36  1  0
M  END
>  <meeko>  (8) 
{"is_sidechain": [false], "free_energy": -7.578, "intermolecular_energy": -8.907, "internal_energy": -0.642}

$$$$
cand_005_out
     RDKit          3D

 36 38  0  0  0  0  0  0  0  0999 V2000
  181.7750   22.9420   47.9530 C   0  0  0  0  0  0  0  0  0  0  0  0
  181.3290   21.7850   47.4480 C   0  0  0  0  0  0  0  0  0  0  0  0
  179.9490   21.3210   47.6360 C   0  0  0  0  0  0  0  0  0  0  0  0
  179.1530   21.9440   48.6160 C   0  0  0  0  0  0  0  0  0  0  0  0
  177.8320   21.5360   48.8580 C   0  0  0  0  0  0  0  0  0  0  0  0
  177.0230   22.2350   49.8790 C   0  0  0  0  0  0  0  0  0  0  0  0
  175.9680   22.9550   49.3320 O   0  0  0  0  0  0  0  0  0  0  0  0
  175.1370   23.6540   50.1710 C   0  0  0  0  0  0  0  0  0  0  0  0
  174.0830   24.3530   49.5820 C   0  0  0  0  0  0  0  0  0  0  0  0
  173.2020   25.0860   50.3790 C   0  0  0  0  0  0  0  0  0  0  0  0
  173.3730   25.1200   51.7640 C   0  0  0  0  0  0  0  0  0  0  0  0
  174.4280   24.4230   52.3500 C   0  0  0  0  0  0  0  0  0  0  0  0
  174.5380   24.5010   53.7110 O   0  0  0  0  0  0  0  0  0  0  0  0
  175.3090   23.6890   51.5520 C   0  0  0  0  0  0  0  0  0  0  0  0
  176.4280   22.9420   52.1270 C   0  0  0  0  0  0  0  0  0  0  0  0
  176.6500   22.9280   53.3360 O   0  0  0  0  0  0  0  0  0  0  0  0
  177.3000   22.1900   51.1950 C   0  0  0  0  0  0  0  0  0  0  0  0
  178.3640   21.5000   51.7460 O   0  0  0  0  0  0  0  0  0  0  0  0
  177.3080   20.4930   48.0890 C   0  0  0  0  0  0  0  0  0  0  0  0
  178.0880   19.8620   47.1160 C   0  0  0  0  0  0  0  0  0  0  0  0
  179.4150   20.2620   46.8790 C   0  0  0  0  0  0  0  0  0  0  0  0
  180.2260   19.5650   45.8120 C   0  0  0  0  0  0  0  0  0  0  0  0
  181.4830   19.2400   46.2220 F   0  0  0  0  0  0  0  0  0  0  0  0
  180.3960   20.3190   44.6860 F   0  0  0  0  0  0  0  0  0  0  0  0
  179.6540   18.4040   45.3820 F   0  0  0  0  0  0  0  0  0  0  0  0
  182.8180   23.2491   47.7864 H   0  0  0  0  0  0  0  0  0  0  0  0
  181.0984   23.5855   48.5345 H   0  0  0  0  0  0  0  0  0  0  0  0
  182.0235   21.1578   46.8698 H   0  0  0  0  0  0  0  0  0  0  0  0
  179.5764   22.7702   49.2061 H   0  0  0  0  0  0  0  0  0  0  0  0
  173.9464   24.3266   48.4908 H   0  0  0  0  0  0  0  0  0  0  0  0
  172.3714   25.6379   49.9147 H   0  0  0  0  0  0  0  0  0  0  0  0
  172.6766   25.6956   52.3914 H   0  0  0  0  0  0  0  0  0  0  0  0
  175.3020   24.1700   54.1390 H   0  0  0  0  0  0  0  0  0  0  0  0
  179.2220   21.8750   51.7390 H   0  0  0  0  0  0  0  0  0  0  0  0
  176.2706   20.1653   48.2514 H   0  0  0  0  0  0  0  0  0  0  0  0
  177.6570   19.0395   46.5263 H   0  0  0  0  0  0  0  0  0  0  0  0
  1  2  2  0
  2  3  1  0
  3  4  2  0
  4  5  1  0
  5  6  1  0
  6  7  1  0
  7  8  1  0
  8  9  2  0
  9 10  1  0
 10 11  2  0
 11 12  1  0
 12 13  1  0
 12 14  2  0
 14 15  1  0
 15 16  2  0
 15 17  1  0
 17 18  1  0
  5 19  2  0
 19 20  1  0
 20 21  2  0
 21 22  1  0
 22 23  1  0
 22 24  1  0
 22 25  1  0
 21  3  1  0
 17  6  2  0
 14  8  1  0
  1 26  1  0
  1 27  1  0
  2 28  1  0
  4 29  1  0
  9 30  1  0
 10 31  1  0
 11 32  1  0
 13 33  1  0
 18 34  1  0
 19 35  1  0
 20 36  1  0
M  END
>  <meeko>  (9) 
{"is_sidechain": [false], "free_energy": -7.542, "intermolecular_energy": -9.094, "internal_energy": -0.411}

$$$$
