cand_029_out
     RDKit          3D

 50 53  0  0  0  0  0  0  0  0999 V2000
  174.8720   19.0020   47.0220 C   0  0  0  0  0  0  0  0  0  0  0  0
  175.3860   20.4050   47.3100 C   0  0  0  0  0  0  0  0  0  0  0  0
  176.8960   20.4510   47.3900 C   0  0  0  0  0  0  0  0  0  0  0  0
  177.6440   19.5490   46.6080 C   0  0  0  0  0  0  0  0  0  0  0  0
  179.0450   19.5230   46.6520 C   0  0  0  0  0  0  0  0  0  0  0  0
  179.7920   18.5810   45.7930 C   0  0  0  0  0  0  0  0  0  0  0  0
  179.2750   17.2910   45.8290 O   0  0  0  0  0  0  0  0  0  0  0  0
  179.8750   16.3130   45.0770 C   0  0  0  0  0  0  0  0  0  0  0  0
  179.3150   15.0360   45.1350 C   0  0  0  0  0  0  0  0  0  0  0  0
  179.8780   13.9950   44.3950 C   0  0  0  0  0  0  0  0  0  0  0  0
  181.0010   14.2290   43.5990 C   0  0  0  0  0  0  0  0  0  0  0  0
  181.5580   15.5050   43.5440 C   0  0  0  0  0  0  0  0  0  0  0  0
  182.6570   15.6640   42.7450 O   0  0  0  0  0  0  0  0  0  0  0  0
  180.9930   16.5460   44.2840 C   0  0  0  0  0  0  0  0  0  0  0  0
  181.5480   17.9010   44.2550 C   0  0  0  0  0  0  0  0  0  0  0  0
  182.5380   18.1850   43.5840 O   0  0  0  0  0  0  0  0  0  0  0  0
  180.8710   18.9360   45.0700 C   0  0  0  0  0  0  0  0  0  0  0  0
  181.4110   20.2080   45.0450 O   0  0  0  0  0  0  0  0  0  0  0  0
  179.6960   20.4340   47.4890 C   0  0  0  0  0  0  0  0  0  0  0  0
  178.9660   21.3290   48.2770 C   0  0  0  0  0  0  0  0  0  0  0  0
  177.5630   21.3470   48.2480 C   0  0  0  0  0  0  0  0  0  0  0  0
  176.8110   22.2450   49.0360 N   0  0  0  0  0  0  0  0  0  0  0  0
  177.0750   22.1200   50.4780 C   0  0  0  0  0  0  0  0  0  0  0  0
  176.0420   22.9490   51.2440 C   0  0  0  0  0  0  0  0  0  0  0  0
  176.0480   24.4040   50.7780 C   0  0  0  0  0  0  0  0  0  0  0  0
  175.8770   24.4920   49.2620 C   0  0  0  0  0  0  0  0  0  0  0  0
  176.9050   23.6250   48.5350 C   0  0  0  0  0  0  0  0  0  0  0  0
  174.6806   18.4796   47.9710 H   0  0  0  0  0  0  0  0  0  0  0  0
  173.9386   19.0651   46.4434 H   0  0  0  0  0  0  0  0  0  0  0  0
  175.6252   18.4471   46.4434 H   0  0  0  0  0  0  0  0  0  0  0  0
  175.0525   21.0773   46.5057 H   0  0  0  0  0  0  0  0  0  0  0  0
  174.9848   20.7200   48.2846 H   0  0  0  0  0  0  0  0  0  0  0  0
  177.1154   18.8473   45.9461 H   0  0  0  0  0  0  0  0  0  0  0  0
  178.4312   14.8501   45.7630 H   0  0  0  0  0  0  0  0  0  0  0  0
  179.4362   12.9886   44.4390 H   0  0  0  0  0  0  0  0  0  0  0  0
  181.4449   13.4081   43.0168 H   0  0  0  0  0  0  0  0  0  0  0  0
  183.1060   14.9130   42.4100 H   0  0  0  0  0  0  0  0  0  0  0  0
  181.7270   20.5990   45.8370 H   0  0  0  0  0  0  0  0  0  0  0  0
  180.7952   20.4468   47.5281 H   0  0  0  0  0  0  0  0  0  0  0  0
  179.5014   22.0322   48.9319 H   0  0  0  0  0  0  0  0  0  0  0  0
  176.9972   21.0645   50.7776 H   0  0  0  0  0  0  0  0  0  0  0  0
  178.0879   22.4843   50.7047 H   0  0  0  0  0  0  0  0  0  0  0  0
  175.0424   22.5220   51.0753 H   0  0  0  0  0  0  0  0  0  0  0  0
  176.2981   22.9240   52.3135 H   0  0  0  0  0  0  0  0  0  0  0  0
  175.2214   24.9416   51.2654 H   0  0  0  0  0  0  0  0  0  0  0  0
  177.0134   24.8559   51.0495 H   0  0  0  0  0  0  0  0  0  0  0  0
  174.8664   24.1492   48.9950 H   0  0  0  0  0  0  0  0  0  0  0  0
  176.0270   25.5379   48.9562 H   0  0  0  0  0  0  0  0  0  0  0  0
  176.7006   23.6393   47.4543 H   0  0  0  0  0  0  0  0  0  0  0  0
  177.9163   24.0175   48.7174 H   0  0  0  0  0  0  0  0  0  0  0  0
  1  2  1  0
  2  3  1  0
  3  4  2  0
  4  5  1  0
  5  6  1  0
  6  7  1  0
  7  8  1  0
  8  9  2  0
  9 10  1  0
 10 11  2  0
 11 12  1  0
 12 13  1  0
 12 14  2  0
 14 15  1  0
 15 16  2  0
 15 17  1  0
 17 18  1  0
  5 19  2  0
 19 20  1  0
 20 21  2  0
 21 22  1  0
 22 23  1  0
 23 24  1  0
 24 25  1  0
 25 26  1  0
 26 27  1  0
 21  3  1  0
 27 22  1  0
 17  6  2  0
 14  8  1  0
  1 28  1  0
  1 29  1  0
  1 30  1  0
  2 31  1  0
  2 32  1  0
  4 33  1  0
  9 34  1  0
 10 35  1  0
 11 36  1  0
 13 37  1  0
 18 38  1  0
 19 39  1  0
 20 40  1  0
 23 41  1  0
 23 42  1  0
 24 43  1  0
 24 44  1  0
 25 45  1  0
 25 46  1  0
 26 47  1  0
 26 48  1  0
 27 49  1  0
 27 50  1  0
M  END
>  <meeko>  (1) 
{"is_sidechain": [false], "free_energy": -7.97, "intermolecular_energy": -9.834, "internal_energy": -0.541}

$$$$
cand_029_out
     RDKit          3D

 50 53  0  0  0  0  0  0  0  0999 V2000
  180.4600   21.5830   49.7450 C   0  0  0  0  0  0  0  0  0  0  0  0
  178.9750   21.8920   49.6310 C   0  0  0  0  0  0  0  0  0  0  0  0
  178.3370   21.1870   48.4540 C   0  0  0  0  0  0  0  0  0  0  0  0
  179.1270   20.3190   47.6750 C   0  0  0  0  0  0  0  0  0  0  0  0
  178.6040   19.6530   46.5570 C   0  0  0  0  0  0  0  0  0  0  0  0
  179.4590   18.7280   45.7840 C   0  0  0  0  0  0  0  0  0  0  0  0
  179.0220   17.4100   45.8440 O   0  0  0  0  0  0  0  0  0  0  0  0
  179.7270   16.4440   45.1720 C   0  0  0  0  0  0  0  0  0  0  0  0
  179.2450   15.1380   45.2490 C   0  0  0  0  0  0  0  0  0  0  0  0
  179.9160   14.1070   44.5890 C   0  0  0  0  0  0  0  0  0  0  0  0
  181.0710   14.3820   43.8530 C   0  0  0  0  0  0  0  0  0  0  0  0
  181.5490   15.6880   43.7770 C   0  0  0  0  0  0  0  0  0  0  0  0
  182.6840   15.8870   43.0390 O   0  0  0  0  0  0  0  0  0  0  0  0
  180.8760   16.7190   44.4370 C   0  0  0  0  0  0  0  0  0  0  0  0
  181.3460   18.1050   44.3840 C   0  0  0  0  0  0  0  0  0  0  0  0
  182.3570   18.4250   43.7610 O   0  0  0  0  0  0  0  0  0  0  0  0
  180.5570   19.1240   45.1130 C   0  0  0  0  0  0  0  0  0  0  0  0
  181.0180   20.4270   45.0660 O   0  0  0  0  0  0  0  0  0  0  0  0
  177.2590   19.8590   46.2350 C   0  0  0  0  0  0  0  0  0  0  0  0
  176.4660   20.7240   46.9940 C   0  0  0  0  0  0  0  0  0  0  0  0
  176.9890   21.4050   48.1040 C   0  0  0  0  0  0  0  0  0  0  0  0
  176.2030   22.2810   48.8830 N   0  0  0  0  0  0  0  0  0  0  0  0
  176.3710   23.6970   48.5200 C   0  0  0  0  0  0  0  0  0  0  0  0
  175.6770   24.5640   49.5730 C   0  0  0  0  0  0  0  0  0  0  0  0
  174.2080   24.1760   49.7240 C   0  0  0  0  0  0  0  0  0  0  0  0
  174.0640   22.6790   49.9960 C   0  0  0  0  0  0  0  0  0  0  0  0
  174.7970   21.8490   48.9410 C   0  0  0  0  0  0  0  0  0  0  0  0
  180.7419   21.5243   50.8067 H   0  0  0  0  0  0  0  0  0  0  0  0
  180.6731   20.6213   49.2554 H   0  0  0  0  0  0  0  0  0  0  0  0
  181.0390   22.3799   49.2554 H   0  0  0  0  0  0  0  0  0  0  0  0
  178.4729   21.5669   50.5542 H   0  0  0  0  0  0  0  0  0  0  0  0
  178.8647   22.9757   49.4779 H   0  0  0  0  0  0  0  0  0  0  0  0
  180.1800   20.1596   47.9503 H   0  0  0  0  0  0  0  0  0  0  0  0
  178.3364   14.9201   45.8295 H   0  0  0  0  0  0  0  0  0  0  0  0
  179.5348   13.0769   44.6486 H   0  0  0  0  0  0  0  0  0  0  0  0
  181.6015   13.5695   43.3350 H   0  0  0  0  0  0  0  0  0  0  0  0
  183.3300   15.2110   42.9800 H   0  0  0  0  0  0  0  0  0  0  0  0
  181.3150   20.7900   44.2540 H   0  0  0  0  0  0  0  0  0  0  0  0
  176.8198   19.3339   45.3740 H   0  0  0  0  0  0  0  0  0  0  0  0
  175.4123   20.8738   46.7162 H   0  0  0  0  0  0  0  0  0  0  0  0
  177.4422   23.9448   48.4852 H   0  0  0  0  0  0  0  0  0  0  0  0
  175.9264   23.8837   47.5313 H   0  0  0  0  0  0  0  0  0  0  0  0
  176.1849   24.4306   50.5396 H   0  0  0  0  0  0  0  0  0  0  0  0
  175.7293   25.6143   49.2502 H   0  0  0  0  0  0  0  0  0  0  0  0
  173.7715   24.7380   50.5629 H   0  0  0  0  0  0  0  0  0  0  0  0
  173.6835   24.4148   48.7870 H   0  0  0  0  0  0  0  0  0  0  0  0
  174.4857   22.4527   50.9864 H   0  0  0  0  0  0  0  0  0  0  0  0
  172.9953   22.4209   49.9596 H   0  0  0  0  0  0  0  0  0  0  0  0
  174.7494   20.7838   49.2113 H   0  0  0  0  0  0  0  0  0  0  0  0
  174.3230   21.9939   47.9590 H   0  0  0  0  0  0  0  0  0  0  0  0
  1  2  1  0
  2  3  1  0
  3  4  2  0
  4  5  1  0
  5  6  1  0
  6  7  1  0
  7  8  1  0
  8  9  2  0
  9 10  1  0
 10 11  2  0
 11 12  1  0
 12 13  1  0
 12 14  2  0
 14 15  1  0
 15 16  2  0
 15 17  1  0
 17 18  1  0
  5 19  2  0
 19 20  1  0
 20 21  2  0
 21 22  1  0
 22 23  1  0
 23 24  1  0
 24 25  1  0
 25 26  1  0
 26 27  1  0
 21  3  1  0
 27 22  1  0
 17  6  2  0
 14  8  1  0
  1 28  1  0
  1 29  1  0
  1 30  1  0
  2 31  1  0
  2 32  1  0
  4 33  1  0
  9 34  1  0
 10 35  1  0
 11 36  1  0
 13 37  1  0
 18 38  1  0
 19 39  1  0
 20 40  1  0
 23 41  1  0
 23 42  1  0
 24 43  1  0
 24 44  1  0
 25 45  1  0
 25 46  1  0
 26 47  1  0
 26 48  1  0
 27 49  1  0
 27 50  1  0
M  END
>  <meeko>  (2) 
{"is_sidechain": [false], "free_energy": -7.892, "intermolecular_energy": -9.73, "internal_energy": -0.549}

$$$$
cand_029_out
     RDKit          3D

 50 53  0  0  0  0  0  0  0  0999 V2000
  179.9600   24.5000   48.3720 C   0  0  0  0  0  0  0  0  0  0  0  0
  178.7900   24.0400   47.5150 C   0  0  0  0  0  0  0  0  0  0  0  0
  177.9640   22.9770   48.2060 C   0  0  0  0  0  0  0  0  0  0  0  0
  176.9580   23.3780   49.1060 C   0  0  0  0  0  0  0  0  0  0  0  0
  176.1730   22.4430   49.7960 C   0  0  0  0  0  0  0  0  0  0  0  0
  175.1070   22.9080   50.7090 C   0  0  0  0  0  0  0  0  0  0  0  0
  175.5940   23.3130   51.9470 O   0  0  0  0  0  0  0  0  0  0  0  0
  174.7110   23.7670   52.8930 C   0  0  0  0  0  0  0  0  0  0  0  0
  175.2460   24.1740   54.1150 C   0  0  0  0  0  0  0  0  0  0  0  0
  174.4010   24.6460   55.1220 C   0  0  0  0  0  0  0  0  0  0  0  0
  173.0230   24.7080   54.9080 C   0  0  0  0  0  0  0  0  0  0  0  0
  172.4920   24.3010   53.6860 C   0  0  0  0  0  0  0  0  0  0  0  0
  171.1340   24.3890   53.5430 O   0  0  0  0  0  0  0  0  0  0  0  0
  173.3380   23.8310   52.6780 C   0  0  0  0  0  0  0  0  0  0  0  0
  172.8210   23.3920   51.3800 C   0  0  0  0  0  0  0  0  0  0  0  0
  171.6200   23.4110   51.1180 O   0  0  0  0  0  0  0  0  0  0  0  0
  173.8020   22.9160   50.3780 C   0  0  0  0  0  0  0  0  0  0  0  0
  173.3010   22.4920   49.1610 O   0  0  0  0  0  0  0  0  0  0  0  0
  176.4020   21.0850   49.5590 C   0  0  0  0  0  0  0  0  0  0  0  0
  177.4030   20.6730   48.6750 C   0  0  0  0  0  0  0  0  0  0  0  0
  178.2020   21.6040   47.9950 C   0  0  0  0  0  0  0  0  0  0  0  0
  179.2160   21.2050   47.0980 N   0  0  0  0  0  0  0  0  0  0  0  0
  180.4430   20.7460   47.7680 C   0  0  0  0  0  0  0  0  0  0  0  0
  181.5460   20.5780   46.7220 C   0  0  0  0  0  0  0  0  0  0  0  0
  181.1080   19.6320   45.6060 C   0  0  0  0  0  0  0  0  0  0  0  0
  179.7780   20.0790   45.0020 C   0  0  0  0  0  0  0  0  0  0  0  0
  178.7110   20.2670   46.0830 C   0  0  0  0  0  0  0  0  0  0  0  0
  179.6983   24.3971   49.4355 H   0  0  0  0  0  0  0  0  0  0  0  0
  180.8424   23.8819   48.1501 H   0  0  0  0  0  0  0  0  0  0  0  0
  180.1852   25.5536   48.1501 H   0  0  0  0  0  0  0  0  0  0  0  0
  178.1462   24.9054   47.2992 H   0  0  0  0  0  0  0  0  0  0  0  0
  179.1968   23.6058   46.5898 H   0  0  0  0  0  0  0  0  0  0  0  0
  176.7835   24.4513   49.2719 H   0  0  0  0  0  0  0  0  0  0  0  0
  176.3315   24.1234   54.2854 H   0  0  0  0  0  0  0  0  0  0  0  0
  174.8221   24.9694   56.0854 H   0  0  0  0  0  0  0  0  0  0  0  0
  172.3578   25.0774   55.7024 H   0  0  0  0  0  0  0  0  0  0  0  0
  170.7260   24.1010   52.7500 H   0  0  0  0  0  0  0  0  0  0  0  0
  173.8890   22.2620   48.4680 H   0  0  0  0  0  0  0  0  0  0  0  0
  175.7875   20.3319   50.0740 H   0  0  0  0  0  0  0  0  0  0  0  0
  177.5674   19.5981   48.5093 H   0  0  0  0  0  0  0  0  0  0  0  0
  180.7546   21.4889   48.5170 H   0  0  0  0  0  0  0  0  0  0  0  0
  180.2562   19.7852   48.2699 H   0  0  0  0  0  0  0  0  0  0  0  0
  181.7816   21.5608   46.2877 H   0  0  0  0  0  0  0  0  0  0  0  0
  182.4315   20.1499   47.2146 H   0  0  0  0  0  0  0  0  0  0  0  0
  181.8762   19.6239   44.8188 H   0  0  0  0  0  0  0  0  0  0  0  0
  180.9805   18.6248   46.0294 H   0  0  0  0  0  0  0  0  0  0  0  0
  179.9264   21.0333   44.4754 H   0  0  0  0  0  0  0  0  0  0  0  0
  179.4335   19.2997   44.3062 H   0  0  0  0  0  0  0  0  0  0  0  0
  177.7945   20.6727   45.6297 H   0  0  0  0  0  0  0  0  0  0  0  0
  178.4839   19.2986   46.5528 H   0  0  0  0  0  0  0  0  0  0  0  0
  1  2  1  0
  2  3  1  0
  3  4  2  0
  4  5  1  0
  5  6  1  0
  6  7  1  0
  7  8  1  0
  8  9  2  0
  9 10  1  0
 10 11  2  0
 11 12  1  0
 12 13  1  0
 12 14  2  0
 14 15  1  0
 15 16  2  0
 15 17  1  0
 17 18  1  0
  5 19  2  0
 19 20  1  0
 20 21  2  0
 21 22  1  0
 22 23  1  0
 23 24  1  0
 24 25  1  0
 25 26  1  0
 26 27  1  0
 21  3  1  0
 27 22  1  0
 17  6  2  0
 14  8  1  0
  1 28  1  0
  1 29  1  0
  1 30  1  0
  2 31  1  0
  2 32  1  0
  4 33  1  0
  9 34  1  0
 10 35  1  0
 11 36  1  0
 13 37  1  0
 18 38  1  0
 19 39  1  0
 20 40  1  0
 23 41  1  0
 23 42  1  0
 24 43  1  0
 24 44  1  0
 25 45  1  0
 25 46  1  0
 26 47  1  0
 26 48  1  0
 27 49  1  0
 27 50  1  0
M  END
>  <meeko>  (3) 
{"is_sidechain": [false], "free_energy": -7.758, "intermolecular_energy": -9.223, "internal_energy": -0.889}

$$$$
cand_029_out
     RDKit          3D

 50 53  0  0  0  0  0  0  0  0999 V2000
  179.8820   20.1970   45.2310 C   0  0  0  0  0  0  0  0  0  0  0  0
  179.6940   19.6950   46.6550 C   0  0  0  0  0  0  0  0  0  0  0  0
  179.9320   20.7840   47.6780 C   0  0  0  0  0  0  0  0  0  0  0  0
  181.2520   21.2150   47.9140 C   0  0  0  0  0  0  0  0  0  0  0  0
  181.5450   22.2040   48.8640 C   0  0  0  0  0  0  0  0  0  0  0  0
  182.9410   22.6480   49.0590 C   0  0  0  0  0  0  0  0  0  0  0  0
  183.5530   23.0420   47.8750 O   0  0  0  0  0  0  0  0  0  0  0  0
  184.8540   23.4760   47.9110 C   0  0  0  0  0  0  0  0  0  0  0  0
  185.4230   23.8730   46.7010 C   0  0  0  0  0  0  0  0  0  0  0  0
  186.7440   24.3240   46.6680 C   0  0  0  0  0  0  0  0  0  0  0  0
  187.4960   24.3770   47.8440 C   0  0  0  0  0  0  0  0  0  0  0  0
  186.9240   23.9800   49.0510 C   0  0  0  0  0  0  0  0  0  0  0  0
  187.7160   24.0570   50.1630 O   0  0  0  0  0  0  0  0  0  0  0  0
  185.6020   23.5300   49.0830 C   0  0  0  0  0  0  0  0  0  0  0  0
  184.9630   23.1020   50.3290 C   0  0  0  0  0  0  0  0  0  0  0  0
  185.5610   23.1140   51.4040 O   0  0  0  0  0  0  0  0  0  0  0  0
  183.5560   22.6480   50.2570 C   0  0  0  0  0  0  0  0  0  0  0  0
  182.9670   22.2340   51.4380 O   0  0  0  0  0  0  0  0  0  0  0  0
  180.4830   22.7730   49.5730 C   0  0  0  0  0  0  0  0  0  0  0  0
  179.1690   22.3490   49.3550 C   0  0  0  0  0  0  0  0  0  0  0  0
  178.8730   21.3490   48.4170 C   0  0  0  0  0  0  0  0  0  0  0  0
  177.5520   20.9100   48.1830 N   0  0  0  0  0  0  0  0  0  0  0  0
  176.7690   20.7300   49.4150 C   0  0  0  0  0  0  0  0  0  0  0  0
  175.4560   20.0240   49.0700 C   0  0  0  0  0  0  0  0  0  0  0  0
  174.6830   20.7920   47.9990 C   0  0  0  0  0  0  0  0  0  0  0  0
  175.5600   21.0530   46.7750 C   0  0  0  0  0  0  0  0  0  0  0  0
  176.8750   21.7290   47.1660 C   0  0  0  0  0  0  0  0  0  0  0  0
  180.2677   21.2269   45.2532 H   0  0  0  0  0  0  0  0  0  0  0  0
  180.5982   19.5485   44.7052 H   0  0  0  0  0  0  0  0  0  0  0  0
  178.9160   20.1785   44.7052 H   0  0  0  0  0  0  0  0  0  0  0  0
  178.6652   19.3220   46.7667 H   0  0  0  0  0  0  0  0  0  0  0  0
  180.4294   18.8965   46.8327 H   0  0  0  0  0  0  0  0  0  0  0  0
  182.0740   20.7643   47.3385 H   0  0  0  0  0  0  0  0  0  0  0  0
  184.8320   23.8308   45.7742 H   0  0  0  0  0  0  0  0  0  0  0  0
  187.1933   24.6381   45.7143 H   0  0  0  0  0  0  0  0  0  0  0  0
  188.5371   24.7312   47.8173 H   0  0  0  0  0  0  0  0  0  0  0  0
  188.1400   24.8630   50.3820 H   0  0  0  0  0  0  0  0  0  0  0  0
  182.1580   21.7620   51.4180 H   0  0  0  0  0  0  0  0  0  0  0  0
  180.6837   23.5636   50.3110 H   0  0  0  0  0  0  0  0  0  0  0  0
  178.3515   22.8083   49.9300 H   0  0  0  0  0  0  0  0  0  0  0  0
  177.3401   20.1188   50.1293 H   0  0  0  0  0  0  0  0  0  0  0  0
  176.5571   21.7097   49.8680 H   0  0  0  0  0  0  0  0  0  0  0  0
  175.6788   19.0135   48.6970 H   0  0  0  0  0  0  0  0  0  0  0  0
  174.8376   19.9734   49.9783 H   0  0  0  0  0  0  0  0  0  0  0  0
  173.8063   20.2015   47.6945 H   0  0  0  0  0  0  0  0  0  0  0  0
  174.3682   21.7590   48.4183 H   0  0  0  0  0  0  0  0  0  0  0  0
  175.7825   20.0947   46.2830 H   0  0  0  0  0  0  0  0  0  0  0  0
  175.0146   21.7233   46.0943 H   0  0  0  0  0  0  0  0  0  0  0  0
  177.5193   21.8224   46.2793 H   0  0  0  0  0  0  0  0  0  0  0  0
  176.6709   22.7308   47.5719 H   0  0  0  0  0  0  0  0  0  0  0  0
  1  2  1  0
  2  3  1  0
  3  4  2  0
  4  5  1  0
  5  6  1  0
  6  7  1  0
  7  8  1  0
  8  9  2  0
  9 10  1  0
 10 11  2  0
 11 12  1  0
 12 13  1  0
 12 14  2  0
 14 15  1  0
 15 16  2  0
 15 17  1  0
 17 18  1  0
  5 19  2  0
 19 20  1  0
 20 21  2  0
 21 22  1  0
 22 23  1  0
 23 24  1  0
 24 25  1  0
 25 26  1  0
 26 27  1  0
 21  3  1  0
 27 22  1  0
 17  6  2  0
 14  8  1  0
  1 28  1  0
  1 29  1  0
  1 30  1  0
  2 31  1  0
  2 32  1  0
  4 33  1  0
  9 34  1  0
 10 35  1  0
 11 36  1  0
 13 37  1  0
 18 38  1  0
 19 39  1  0
 20 40  1  0
 23 41  1  0
 23 42  1  0
 24 43  1  0
 24 44  1  0
 25 45  1  0
 25 46  1  0
 26 47  1  0
 26 48  1  0
 27 49  1  0
 27 50  1  0
M  END
>  <meeko>  (4) 
{"is_sidechain": [false], "free_energy": -7.565, "intermolecular_energy": -9.2, "internal_energy": -0.674}

$$$$
cand_029_out
     RDKit          3D

 50 53  0  0  0  0  0  0  0  0999 V2000
  180.5180   22.8970   51.0910 C   0  0  0  0  0  0  0  0  0  0  0  0
  179.7680   21.6840   50.5610 C   0  0  0  0  0  0  0  0  0  0  0  0
  178.6870   22.0700   49.5760 C   0  0  0  0  0  0  0  0  0  0  0  0
  177.4950   22.6390   50.0670 C   0  0  0  0  0  0  0  0  0  0  0  0
  176.4440   22.9980   49.2100 C   0  0  0  0  0  0  0  0  0  0  0  0
  175.2230   23.6190   49.7630 C   0  0  0  0  0  0  0  0  0  0  0  0
  175.2520   25.0080   49.7120 O   0  0  0  0  0  0  0  0  0  0  0  0
  174.1800   25.7150   50.1950 C   0  0  0  0  0  0  0  0  0  0  0  0
  174.2470   27.1050   50.1120 C   0  0  0  0  0  0  0  0  0  0  0  0
  173.1910   27.8840   50.5870 C   0  0  0  0  0  0  0  0  0  0  0  0
  172.0670   27.2720   51.1480 C   0  0  0  0  0  0  0  0  0  0  0  0
  172.0030   25.8830   51.2290 C   0  0  0  0  0  0  0  0  0  0  0  0
  170.8740   25.3490   51.7890 O   0  0  0  0  0  0  0  0  0  0  0  0
  173.0600   25.1050   50.7520 C   0  0  0  0  0  0  0  0  0  0  0  0
  173.0330   23.6420   50.8200 C   0  0  0  0  0  0  0  0  0  0  0  0
  172.0830   23.0310   51.3040 O   0  0  0  0  0  0  0  0  0  0  0  0
  174.2020   22.9100   50.2810 C   0  0  0  0  0  0  0  0  0  0  0  0
  174.1710   21.5300   50.3620 O   0  0  0  0  0  0  0  0  0  0  0  0
  176.6110   22.7920   47.8370 C   0  0  0  0  0  0  0  0  0  0  0  0
  177.7850   22.2200   47.3380 C   0  0  0  0  0  0  0  0  0  0  0  0
  178.8320   21.8440   48.1930 C   0  0  0  0  0  0  0  0  0  0  0  0
  180.0250   21.2670   47.7050 N   0  0  0  0  0  0  0  0  0  0  0  0
  179.8010   20.2550   46.6610 C   0  0  0  0  0  0  0  0  0  0  0  0
  181.1170   19.5260   46.3870 C   0  0  0  0  0  0  0  0  0  0  0  0
  182.2230   20.5110   46.0100 C   0  0  0  0  0  0  0  0  0  0  0  0
  182.3580   21.6090   47.0640 C   0  0  0  0  0  0  0  0  0  0  0  0
  181.0150   22.2900   47.3330 C   0  0  0  0  0  0  0  0  0  0  0  0
  180.5088   22.8820   52.1909 H   0  0  0  0  0  0  0  0  0  0  0  0
  181.5577   22.8706   50.7327 H   0  0  0  0  0  0  0  0  0  0  0  0
  180.0298   23.8153   50.7327 H   0  0  0  0  0  0  0  0  0  0  0  0
  180.4834   21.0160   50.0590 H   0  0  0  0  0  0  0  0  0  0  0  0
  179.2864   21.1838   51.4141 H   0  0  0  0  0  0  0  0  0  0  0  0
  177.3859   22.8058   51.1488 H   0  0  0  0  0  0  0  0  0  0  0  0
  175.1321   27.5877   49.6721 H   0  0  0  0  0  0  0  0  0  0  0  0
  173.2435   28.9807   50.5197 H   0  0  0  0  0  0  0  0  0  0  0  0
  171.2352   27.8854   51.5245 H   0  0  0  0  0  0  0  0  0  0  0  0
  170.0680   25.8280   51.7660 H   0  0  0  0  0  0  0  0  0  0  0  0
  173.3500   21.0790   50.3530 H   0  0  0  0  0  0  0  0  0  0  0  0
  175.8097   23.0832   47.1419 H   0  0  0  0  0  0  0  0  0  0  0  0
  177.8899   22.0617   46.2545 H   0  0  0  0  0  0  0  0  0  0  0  0
  179.0436   19.5339   47.0022 H   0  0  0  0  0  0  0  0  0  0  0  0
  179.4459   20.7415   45.7406 H   0  0  0  0  0  0  0  0  0  0  0  0
  181.4182   18.9763   47.2909 H   0  0  0  0  0  0  0  0  0  0  0  0
  180.9644   18.8333   45.5463 H   0  0  0  0  0  0  0  0  0  0  0  0
  183.1767   19.9686   45.9308 H   0  0  0  0  0  0  0  0  0  0  0  0
  181.9652   20.9774   45.0477 H   0  0  0  0  0  0  0  0  0  0  0  0
  182.7278   21.1640   47.9995 H   0  0  0  0  0  0  0  0  0  0  0  0
  183.0619   22.3662   46.6881 H   0  0  0  0  0  0  0  0  0  0  0  0
  181.1259   23.0121   48.1553 H   0  0  0  0  0  0  0  0  0  0  0  0
  180.6797   22.8203   46.4295 H   0  0  0  0  0  0  0  0  0  0  0  0
  1  2  1  0
  2  3  1  0
  3  4  2  0
  4  5  1  0
  5  6  1  0
  6  7  1  0
  7  8  1  0
  8  9  2  0
  9 10  1  0
 10 11  2  0
 11 12  1  0
 12 13  1  0
 12 14  2  0
 14 15  1  0
 15 16  2  0
 15 17  1  0
 17 18  1  0
  5 19  2  0
 19 20  1  0
 20 21  2  0
 21 22  1  0
 22 23  1  0
 23 24  1  0
 24 25  1  0
 25 26  1  0
 26 27  1  0
 21  3  1  0
 27 22  1  0
 17  6  2  0
 14  8  1  0
  1 28  1  0
  1 29  1  0
  1 30  1  0
  2 31  1  0
  2 32  1  0
  4 33  1  0
  9 34  1  0
 10 35  1  0
 11 36  1  0
 13 37  1  0
 18 38  1  0
 19 39  1  0
 20 40  1  0
 23 41  1  0
 23 42  1  0
 24 43  1  0
 24 44  1  0
 25 45  1  0
 25 46  1  0
 26 47  1  0
 26 48  1  0
 27 49  1  0
 27 50  1  0
M  END
>  <meeko>  (5) 
{"is_sidechain": [false], "free_energy": -7.552, "intermolecular_energy": -9.008, "internal_energy": -0.851}

$$$$
cand_029_out
     RDKit          3D

 50 53  0  0  0  0  0  0  0  0999 V2000
  181.8760   26.5560   48.8740 C   0  0  0  0  0  0  0  0  0  0  0  0
  182.7280   25.6900   47.9580 C   0  0  0  0  0  0  0  0  0  0  0  0
  182.5030   24.2150   48.2010 C   0  0  0  0  0  0  0  0  0  0  0  0
  181.2020   23.7690   48.5080 C   0  0  0  0  0  0  0  0  0  0  0  0
  180.9290   22.4180   48.7680 C   0  0  0  0  0  0  0  0  0  0  0  0
  179.5450   21.9890   49.0570 C   0  0  0  0  0  0  0  0  0  0  0  0
  178.8030   21.7420   47.9080 O   0  0  0  0  0  0  0  0  0  0  0  0
  177.4990   21.3370   48.0320 C   0  0  0  0  0  0  0  0  0  0  0  0
  176.7970   21.0880   46.8520 C   0  0  0  0  0  0  0  0  0  0  0  0
  175.4650   20.6760   46.9070 C   0  0  0  0  0  0  0  0  0  0  0  0
  174.8330   20.5130   48.1420 C   0  0  0  0  0  0  0  0  0  0  0  0
  175.5360   20.7620   49.3190 C   0  0  0  0  0  0  0  0  0  0  0  0
  174.8570   20.5830   50.4930 O   0  0  0  0  0  0  0  0  0  0  0  0
  176.8700   21.1740   49.2620 C   0  0  0  0  0  0  0  0  0  0  0  0
  177.6450   21.4480   50.4740 C   0  0  0  0  0  0  0  0  0  0  0  0
  177.1580   21.3330   51.5970 O   0  0  0  0  0  0  0  0  0  0  0  0
  179.0530   21.8730   50.3060 C   0  0  0  0  0  0  0  0  0  0  0  0
  179.7710   22.1420   51.4570 O   0  0  0  0  0  0  0  0  0  0  0  0
  181.9860   21.5060   48.6980 C   0  0  0  0  0  0  0  0  0  0  0  0
  183.2830   21.9350   48.4030 C   0  0  0  0  0  0  0  0  0  0  0  0
  183.5640   23.2880   48.1590 C   0  0  0  0  0  0  0  0  0  0  0  0
  184.8670   23.7390   47.8570 N   0  0  0  0  0  0  0  0  0  0  0  0
  185.8880   23.2450   48.7940 C   0  0  0  0  0  0  0  0  0  0  0  0
  187.2020   23.9820   48.5290 C   0  0  0  0  0  0  0  0  0  0  0  0
  187.6340   23.8320   47.0720 C   0  0  0  0  0  0  0  0  0  0  0  0
  186.5110   24.2540   46.1240 C   0  0  0  0  0  0  0  0  0  0  0  0
  185.2080   23.5200   46.4430 C   0  0  0  0  0  0  0  0  0  0  0  0
  182.1086   26.3196   49.9228 H   0  0  0  0  0  0  0  0  0  0  0  0
  182.0920   27.6171   48.6807 H   0  0  0  0  0  0  0  0  0  0  0  0
  180.8115   26.3574   48.6807 H   0  0  0  0  0  0  0  0  0  0  0  0
  182.4729   25.9206   46.9131 H   0  0  0  0  0  0  0  0  0  0  0  0
  183.7848   25.9112   48.1682 H   0  0  0  0  0  0  0  0  0  0  0  0
  180.3798   24.4988   48.5447 H   0  0  0  0  0  0  0  0  0  0  0  0
  177.2935   21.2165   45.8789 H   0  0  0  0  0  0  0  0  0  0  0  0
  174.9120   20.4793   45.9767 H   0  0  0  0  0  0  0  0  0  0  0  0
  173.7827   20.1888   48.1853 H   0  0  0  0  0  0  0  0  0  0  0  0
  175.3270   20.4090   51.2850 H   0  0  0  0  0  0  0  0  0  0  0  0
  179.3190   22.3440   52.2530 H   0  0  0  0  0  0  0  0  0  0  0  0
  181.7946   20.4377   48.8773 H   0  0  0  0  0  0  0  0  0  0  0  0
  184.0988   21.1983   48.3613 H   0  0  0  0  0  0  0  0  0  0  0  0
  185.5618   23.4320   49.8277 H   0  0  0  0  0  0  0  0  0  0  0  0
  186.0320   22.1637   48.6521 H   0  0  0  0  0  0  0  0  0  0  0  0
  187.0665   25.0499   48.7551 H   0  0  0  0  0  0  0  0  0  0  0  0
  187.9819   23.5461   49.1706 H   0  0  0  0  0  0  0  0  0  0  0  0
  188.5153   24.4648   46.8906 H   0  0  0  0  0  0  0  0  0  0  0  0
  187.8746   22.7753   46.8836 H   0  0  0  0  0  0  0  0  0  0  0  0
  186.3458   25.3369   46.2241 H   0  0  0  0  0  0  0  0  0  0  0  0
  186.8102   23.9988   45.0967 H   0  0  0  0  0  0  0  0  0  0  0  0
  184.4006   23.9083   45.8048 H   0  0  0  0  0  0  0  0  0  0  0  0
  185.3327   22.4436   46.2539 H   0  0  0  0  0  0  0  0  0  0  0  0
  1  2  1  0
  2  3  1  0
  3  4  2  0
  4  5  1  0
  5  6  1  0
  6  7  1  0
  7  8  1  0
  8  9  2  0
  9 10  1  0
 10 11  2  0
 11 12  1  0
 12 13  1  0
 12 14  2  0
 14 15  1  0
 15 16  2  0
 15 17  1  0
 17 18  1  0
  5 19  2  0
 19 20  1  0
 20 21  2  0
 21 22  1  0
 22 23  1  0
 23 24  1  0
 24 25  1  0
 25 26  1  0
 26 27  1  0
 21  3  1  0
 27 22  1  0
 17  6  2  0
 14  8  1  0
  1 28  1  0
  1 29  1  0
  1 30  1  0
  2 31  1  0
  2 32  1  0
  4 33  1  0
  9 34  1  0
 10 35  1  0
 11 36  1  0
 13 37  1  0
 18 38  1  0
 19 39  1  0
 20 40  1  0
 23 41  1  0
 23 42  1  0
 24 43  1  0
 24 44  1  0
 25 45  1  0
 25 46  1  0
 26 47  1  0
 26 48  1  0
 27 49  1  0
 27 50  1  0
M  END
>  <meeko>  (6) 
{"is_sidechain": [false], "free_energy": -7.437, "intermolecular_energy": -8.874, "internal_energy": -0.843}

$$$$
cand_029_out
     RDKit          3D

 50 53  0  0  0  0  0  0  0  0999 V2000
  180.1840   24.3760   48.4620 C   0  0  0  0  0  0  0  0  0  0  0  0
  179.0970   24.0300   47.4550 C   0  0  0  0  0  0  0  0  0  0  0  0
  178.1070   23.0300   48.0090 C   0  0  0  0  0  0  0  0  0  0  0  0
  177.0320   23.5020   48.7880 C   0  0  0  0  0  0  0  0  0  0  0  0
  176.0920   22.6260   49.3510 C   0  0  0  0  0  0  0  0  0  0  0  0
  174.9630   23.1660   50.1380 C   0  0  0  0  0  0  0  0  0  0  0  0
  173.9410   23.6700   49.3410 O   0  0  0  0  0  0  0  0  0  0  0  0
  172.8310   24.2040   49.9430 C   0  0  0  0  0  0  0  0  0  0  0  0
  171.8250   24.6870   49.1050 C   0  0  0  0  0  0  0  0  0  0  0  0
  170.6690   25.2450   49.6530 C   0  0  0  0  0  0  0  0  0  0  0  0
  170.5190   25.3220   51.0400 C   0  0  0  0  0  0  0  0  0  0  0  0
  171.5240   24.8390   51.8740 C   0  0  0  0  0  0  0  0  0  0  0  0
  171.3120   24.9460   53.2220 O   0  0  0  0  0  0  0  0  0  0  0  0
  172.6800   24.2800   51.3240 C   0  0  0  0  0  0  0  0  0  0  0  0
  173.7610   23.7620   52.1650 C   0  0  0  0  0  0  0  0  0  0  0  0
  173.7050   23.8000   53.3930 O   0  0  0  0  0  0  0  0  0  0  0  0
  174.9420   23.1830   51.4840 C   0  0  0  0  0  0  0  0  0  0  0  0
  175.9620   22.7100   52.2890 O   0  0  0  0  0  0  0  0  0  0  0  0
  176.2350   21.2580   49.1080 C   0  0  0  0  0  0  0  0  0  0  0  0
  177.3020   20.7750   48.3440 C   0  0  0  0  0  0  0  0  0  0  0  0
  178.2540   21.6460   47.7920 C   0  0  0  0  0  0  0  0  0  0  0  0
  179.3360   21.1760   47.0170 N   0  0  0  0  0  0  0  0  0  0  0  0
  180.4170   20.5820   47.8190 C   0  0  0  0  0  0  0  0  0  0  0  0
  181.6280   20.3380   46.9170 C   0  0  0  0  0  0  0  0  0  0  0  0
  181.2540   19.4700   45.7170 C   0  0  0  0  0  0  0  0  0  0  0  0
  180.0610   20.0600   44.9670 C   0  0  0  0  0  0  0  0  0  0  0  0
  178.8840   20.3190   45.9090 C   0  0  0  0  0  0  0  0  0  0  0  0
  179.7919   24.2512   49.4822 H   0  0  0  0  0  0  0  0  0  0  0  0
  181.0454   23.7076   48.3159 H   0  0  0  0  0  0  0  0  0  0  0  0
  180.5005   25.4193   48.3159 H   0  0  0  0  0  0  0  0  0  0  0  0
  178.5582   24.9500   47.1842 H   0  0  0  0  0  0  0  0  0  0  0  0
  179.5802   23.5777   46.5764 H   0  0  0  0  0  0  0  0  0  0  0  0
  176.9273   24.5836   48.9588 H   0  0  0  0  0  0  0  0  0  0  0  0
  171.9431   24.6280   48.0130 H   0  0  0  0  0  0  0  0  0  0  0  0
  169.8755   25.6244   48.9925 H   0  0  0  0  0  0  0  0  0  0  0  0
  169.6088   25.7633   51.4722 H   0  0  0  0  0  0  0  0  0  0  0  0
  171.9420   24.6040   53.8240 H   0  0  0  0  0  0  0  0  0  0  0  0
  176.7600   23.1950   52.3670 H   0  0  0  0  0  0  0  0  0  0  0  0
  175.4998   20.5525   49.5224 H   0  0  0  0  0  0  0  0  0  0  0  0
  177.3969   19.6926   48.1725 H   0  0  0  0  0  0  0  0  0  0  0  0
  180.6945   21.2698   48.6314 H   0  0  0  0  0  0  0  0  0  0  0  0
  180.0783   19.6297   48.2531 H   0  0  0  0  0  0  0  0  0  0  0  0
  182.0079   21.3052   46.5563 H   0  0  0  0  0  0  0  0  0  0  0  0
  182.3985   19.8134   47.5010 H   0  0  0  0  0  0  0  0  0  0  0  0
  182.1144   19.4097   45.0343 H   0  0  0  0  0  0  0  0  0  0  0  0
  180.9800   18.4684   46.0800 H   0  0  0  0  0  0  0  0  0  0  0  0
  180.3641   21.0101   44.5029 H   0  0  0  0  0  0  0  0  0  0  0  0
  179.7405   19.3374   44.2020 H   0  0  0  0  0  0  0  0  0  0  0  0
  178.0756   20.8231   45.3591 H   0  0  0  0  0  0  0  0  0  0  0  0
  178.5096   19.3642   46.3068 H   0  0  0  0  0  0  0  0  0  0  0  0
  1  2  1  0
  2  3  1  0
  3  4  2  0
  4  5  1  0
  5  6  1  0
  6  7  1  0
  7  8  1  0
  8  9  2  0
  9 10  1  0
 10 11  2  0
 11 12  1  0
 12 13  1  0
 12 14  2  0
 14 15  1  0
 15 16  2  0
 15 17  1  0
 17 18  1  0
  5 19  2  0
 19 20  1  0
 20 21  2  0
 21 22  1  0
 22 23  1  0
 23 24  1  0
 24 25  1  0
 25 26  1  0
 26 27  1  0
 21  3  1  0
 27 22  1  0
 17  6  2  0
 14  8  1  0
  1 28  1  0
  1 29  1  0
  1 30  1  0
  2 31  1  0
  2 32  1  0
  4 33  1  0
  9 34  1  0
 10 35  1  0
 11 36  1  0
 13 37  1  0
 18 38  1  0
 19 39  1  0
 20 40  1  0
 23 41  1  0
 23 42  1  0
 24 43  1  0
 24 44  1  0
 25 45  1  0
 25 46  1  0
 26 47  1  0
 26 48  1  0
 27 49  1  0
 27 50  1  0
M  END
>  <meeko>  (7) 
{"is_sidechain": [false], "free_energy": -7.334, "intermolecular_energy": -8.686, "internal_energy": -0.903}

$$$$
cand_029_out
     RDKit          3D

 50 53  0  0  0  0  0  0  0  0999 V2000
  173.3200   24.7190   49.6090 C   0  0  0  0  0  0  0  0  0  0  0  0
  174.7230   25.2550   49.8530 C   0  0  0  0  0  0  0  0  0  0  0  0
  175.6680   24.1750   50.3310 C   0  0  0  0  0  0  0  0  0  0  0  0
  176.3900   23.4350   49.3740 C   0  0  0  0  0  0  0  0  0  0  0  0
  177.2640   22.4040   49.7480 C   0  0  0  0  0  0  0  0  0  0  0  0
  178.0250   21.6730   48.7130 C   0  0  0  0  0  0  0  0  0  0  0  0
  179.3310   22.1280   48.5790 O   0  0  0  0  0  0  0  0  0  0  0  0
  180.1500   21.5370   47.6510 C   0  0  0  0  0  0  0  0  0  0  0  0
  181.4560   22.0180   47.5600 C   0  0  0  0  0  0  0  0  0  0  0  0
  182.3410   21.4600   46.6340 C   0  0  0  0  0  0  0  0  0  0  0  0
  181.9190   20.4240   45.7990 C   0  0  0  0  0  0  0  0  0  0  0  0
  180.6140   19.9450   45.8930 C   0  0  0  0  0  0  0  0  0  0  0  0
  180.2670   18.9290   45.0460 O   0  0  0  0  0  0  0  0  0  0  0  0
  179.7300   20.5030   46.8200 C   0  0  0  0  0  0  0  0  0  0  0  0
  178.3500   20.0310   46.9500 C   0  0  0  0  0  0  0  0  0  0  0  0
  177.9030   19.1260   46.2480 O   0  0  0  0  0  0  0  0  0  0  0  0
  177.4950   20.6840   47.9680 C   0  0  0  0  0  0  0  0  0  0  0  0
  176.1910   20.2390   48.0730 O   0  0  0  0  0  0  0  0  0  0  0  0
  177.4200   22.1320   51.1100 C   0  0  0  0  0  0  0  0  0  0  0  0
  176.7030   22.8530   52.0700 C   0  0  0  0  0  0  0  0  0  0  0  0
  175.8150   23.8740   51.6990 C   0  0  0  0  0  0  0  0  0  0  0  0
  175.0840   24.6130   52.6550 N   0  0  0  0  0  0  0  0  0  0  0  0
  174.2750   23.7720   53.5510 C   0  0  0  0  0  0  0  0  0  0  0  0
  173.3460   24.6700   54.3700 C   0  0  0  0  0  0  0  0  0  0  0  0
  174.1380   25.7320   55.1310 C   0  0  0  0  0  0  0  0  0  0  0  0
  175.0460   26.5170   54.1860 C   0  0  0  0  0  0  0  0  0  0  0  0
  175.9340   25.5830   53.3630 C   0  0  0  0  0  0  0  0  0  0  0  0
  172.8266   24.5305   50.5739 H   0  0  0  0  0  0  0  0  0  0  0  0
  172.7391   25.4585   49.0384 H   0  0  0  0  0  0  0  0  0  0  0  0
  173.3801   23.7805   49.0384 H   0  0  0  0  0  0  0  0  0  0  0  0
  175.1107   25.6755   48.9134 H   0  0  0  0  0  0  0  0  0  0  0  0
  174.6610   26.0234   50.6377 H   0  0  0  0  0  0  0  0  0  0  0  0
  176.2651   23.6717   48.3071 H   0  0  0  0  0  0  0  0  0  0  0  0
  181.7888   22.8356   48.2164 H   0  0  0  0  0  0  0  0  0  0  0  0
  183.3717   21.8376   46.5628 H   0  0  0  0  0  0  0  0  0  0  0  0
  182.6153   19.9867   45.0683 H   0  0  0  0  0  0  0  0  0  0  0  0
  179.5520   18.3620   45.2610 H   0  0  0  0  0  0  0  0  0  0  0  0
  175.8230   20.0610   48.9160 H   0  0  0  0  0  0  0  0  0  0  0  0
  178.1148   21.3417   51.4305 H   0  0  0  0  0  0  0  0  0  0  0  0
  176.8377   22.6153   53.1355 H   0  0  0  0  0  0  0  0  0  0  0  0
  173.6763   23.0673   52.9551 H   0  0  0  0  0  0  0  0  0  0  0  0
  174.9339   23.2047   54.2248 H   0  0  0  0  0  0  0  0  0  0  0  0
  172.6374   25.1677   53.6916 H   0  0  0  0  0  0  0  0  0  0  0  0
  172.8093   24.0451   55.0990 H   0  0  0  0  0  0  0  0  0  0  0  0
  173.4359   26.4266   55.6153 H   0  0  0  0  0  0  0  0  0  0  0  0
  174.7640   25.2309   55.8840 H   0  0  0  0  0  0  0  0  0  0  0  0
  174.4226   27.1125   53.5028 H   0  0  0  0  0  0  0  0  0  0  0  0
  175.6944   27.1687   54.7901 H   0  0  0  0  0  0  0  0  0  0  0  0
  176.5099   26.1705   52.6328 H   0  0  0  0  0  0  0  0  0  0  0  0
  176.6299   25.0508   54.0281 H   0  0  0  0  0  0  0  0  0  0  0  0
  1  2  1  0
  2  3  1  0
  3  4  2  0
  4  5  1  0
  5  6  1  0
  6  7  1  0
  7  8  1  0
  8  9  2  0
  9 10  1  0
 10 11  2  0
 11 12  1  0
 12 13  1  0
 12 14  2  0
 14 15  1  0
 15 16  2  0
 15 17  1  0
 17 18  1  0
  5 19  2  0
 19 20  1  0
 20 21  2  0
 21 22  1  0
 22 23  1  0
 23 24  1  0
 24 25  1  0
 25 26  1  0
 26 27  1  0
 21  3  1  0
 27 22  1  0
 17  6  2  0
 14  8  1  0
  1 28  1  0
  1 29  1  0
  1 30  1  0
  2 31  1  0
  2 32  1  0
  4 33  1  0
  9 34  1  0
 10 35  1  0
 11 36  1  0
 13 37  1  0
 18 38  1  0
 19 39  1  0
 20 40  1  0
 23 41  1  0
 23 42  1  0
 24 43  1  0
 24 44  1  0
 25 45  1  0
 25 46  1  0
 26 47  1  0
 26 48  1  0
 27 49  1  0
 27 50  1  0
M  END
>  <meeko>  (8) 
{"is_sidechain": [false], "free_energy": -7.31, "intermolecular_energy": -8.708, "internal_energy": -0.852}

$$$$
cand_029_out
     RDKit          3D

 50 53  0  0  0  0  0  0  0  0999 V2000
  175.7550   26.6330   51.6320 C   0  0  0  0  0  0  0  0  0  0  0  0
  175.0790   26.2300   50.3290 C   0  0  0  0  0  0  0  0  0  0  0  0
  175.1320   24.7360   50.1000 C   0  0  0  0  0  0  0  0  0  0  0  0
  176.3580   24.1520   49.7220 C   0  0  0  0  0  0  0  0  0  0  0  0
  176.4700   22.7770   49.4710 C   0  0  0  0  0  0  0  0  0  0  0  0
  177.7820   22.2010   49.1070 C   0  0  0  0  0  0  0  0  0  0  0  0
  177.8170   21.7190   47.8030 O   0  0  0  0  0  0  0  0  0  0  0  0
  178.9750   21.1550   47.3340 C   0  0  0  0  0  0  0  0  0  0  0  0
  178.9690   20.6970   46.0160 C   0  0  0  0  0  0  0  0  0  0  0  0
  180.1150   20.1110   45.4770 C   0  0  0  0  0  0  0  0  0  0  0  0
  181.2680   19.9810   46.2550 C   0  0  0  0  0  0  0  0  0  0  0  0
  181.2710   20.4390   47.5700 C   0  0  0  0  0  0  0  0  0  0  0  0
  182.4330   20.2810   48.2760 O   0  0  0  0  0  0  0  0  0  0  0  0
  180.1240   21.0270   48.1090 C   0  0  0  0  0  0  0  0  0  0  0  0
  180.0850   21.5210   49.4870 C   0  0  0  0  0  0  0  0  0  0  0  0
  181.0560   21.4370   50.2350 O   0  0  0  0  0  0  0  0  0  0  0  0
  178.8220   22.1330   49.9590 C   0  0  0  0  0  0  0  0  0  0  0  0
  178.7920   22.5830   51.2660 O   0  0  0  0  0  0  0  0  0  0  0  0
  175.3300   21.9830   49.6200 C   0  0  0  0  0  0  0  0  0  0  0  0
  174.1060   22.5510   49.9850 C   0  0  0  0  0  0  0  0  0  0  0  0
  173.9840   23.9280   50.2210 C   0  0  0  0  0  0  0  0  0  0  0  0
  172.7560   24.5180   50.5920 N   0  0  0  0  0  0  0  0  0  0  0  0
  171.8580   24.7630   49.4540 C   0  0  0  0  0  0  0  0  0  0  0  0
  170.6810   25.6190   49.9270 C   0  0  0  0  0  0  0  0  0  0  0  0
  169.9600   24.9620   51.1020 C   0  0  0  0  0  0  0  0  0  0  0  0
  170.9400   24.6240   52.2240 C   0  0  0  0  0  0  0  0  0  0  0  0
  172.1170   23.7970   51.7050 C   0  0  0  0  0  0  0  0  0  0  0  0
  175.1553   26.2755   52.4820 H   0  0  0  0  0  0  0  0  0  0  0  0
  176.7590   26.1859   51.6778 H   0  0  0  0  0  0  0  0  0  0  0  0
  175.8392   27.7288   51.6778 H   0  0  0  0  0  0  0  0  0  0  0  0
  174.0261   26.5467   50.3627 H   0  0  0  0  0  0  0  0  0  0  0  0
  175.6161   26.7190   49.5029 H   0  0  0  0  0  0  0  0  0  0  0  0
  177.2482   24.7903   49.6215 H   0  0  0  0  0  0  0  0  0  0  0  0
  178.0616   20.7978   45.4024 H   0  0  0  0  0  0  0  0  0  0  0  0
  180.1105   19.7508   44.4377 H   0  0  0  0  0  0  0  0  0  0  0  0
  182.1709   19.5182   45.8300 H   0  0  0  0  0  0  0  0  0  0  0  0
  182.4760   20.5440   49.1740 H   0  0  0  0  0  0  0  0  0  0  0  0
  178.9680   23.4840   51.4550 H   0  0  0  0  0  0  0  0  0  0  0  0
  175.3965   20.8985   49.4481 H   0  0  0  0  0  0  0  0  0  0  0  0
  173.2215   21.9054   50.0891 H   0  0  0  0  0  0  0  0  0  0  0  0
  172.4044   25.2929   48.6598 H   0  0  0  0  0  0  0  0  0  0  0  0
  171.4876   23.8057   49.0586 H   0  0  0  0  0  0  0  0  0  0  0  0
  171.0567   26.6039   50.2414 H   0  0  0  0  0  0  0  0  0  0  0  0
  169.9691   25.7241   49.0951 H   0  0  0  0  0  0  0  0  0  0  0  0
  169.1959   25.6531   51.4875 H   0  0  0  0  0  0  0  0  0  0  0  0
  169.4934   24.0298   50.7508 H   0  0  0  0  0  0  0  0  0  0  0  0
  171.3233   25.5591   52.6584 H   0  0  0  0  0  0  0  0  0  0  0  0
  170.4076   24.0313   52.9825 H   0  0  0  0  0  0  0  0  0  0  0  0
  172.8469   23.6462   52.5140 H   0  0  0  0  0  0  0  0  0  0  0  0
  171.7576   22.8178   51.3557 H   0  0  0  0  0  0  0  0  0  0  0  0
  1  2  1  0
  2  3  1  0
  3  4  2  0
  4  5  1  0
  5  6  1  0
  6  7  1  0
  7  8  1  0
  8  9  2  0
  9 10  1  0
 10 11  2  0
 11 12  1  0
 12 13  1  0
 12 14  2  0
 14 15  1  0
 15 16  2  0
 15 17  1  0
 17 18  1  0
  5 19  2  0
 19 20  1  0
 20 21  2  0
 21 22  1  0
 22 23  1  0
 23 24  1  0
 24 25  1  0
 25 26  1  0
 26 27  1  0
 21  3  1  0
 27 22  1  0
 17  6  2  0
 14  8  1  0
  1 28  1  0
  1 29  1  0
  1 30  1  0
  2 31  1  0
  2 32  1  0
  4 33  1  0
  9 34  1  0
 10 35  1  0
 11 36  1  0
 13 37  1  0
 18 38  1  0
 19 39  1  0
 20 40  1  0
 23 41  1  0
 23 42  1  0
 24 43  1  0
 24 44  1  0
 25 45  1  0
 25 46  1  0
 26 47  1  0
 26 48  1  0
 27 49  1  0
 27 50  1  0
M  END
>  <meeko>  (9) 
{"is_sidechain": [false], "free_energy": -7.24, "intermolecular_energy": -8.721, "internal_energy": -0.753}

$$$$
