cand_038_out
     RDKit          3D

 47 49  0  0  0  0  0  0  0  0999 V2000
  175.6360   18.7060   47.0550 C   0  0  0  0  0  0  0  0  0  0  0  0
  176.9010   19.1970   46.3580 C   0  0  0  0  0  0  0  0  0  0  0  0
  177.7220   20.1200   47.2360 C   0  0  0  0  0  0  0  0  0  0  0  0
  176.9680   20.7960   48.2340 C   0  0  0  0  0  0  0  0  0  0  0  0
  177.5420   21.6770   49.1530 C   0  0  0  0  0  0  0  0  0  0  0  0
  176.7410   22.3890   50.1700 C   0  0  0  0  0  0  0  0  0  0  0  0
  175.7140   23.1460   49.6170 O   0  0  0  0  0  0  0  0  0  0  0  0
  174.8920   23.8580   50.4500 C   0  0  0  0  0  0  0  0  0  0  0  0
  173.8660   24.5930   49.8540 C   0  0  0  0  0  0  0  0  0  0  0  0
  172.9930   25.3420   50.6450 C   0  0  0  0  0  0  0  0  0  0  0  0
  173.1460   25.3580   52.0330 C   0  0  0  0  0  0  0  0  0  0  0  0
  174.1710   24.6250   52.6270 C   0  0  0  0  0  0  0  0  0  0  0  0
  174.2640   24.6860   53.9900 O   0  0  0  0  0  0  0  0  0  0  0  0
  175.0430   23.8750   51.8340 C   0  0  0  0  0  0  0  0  0  0  0  0
  176.1330   23.0900   52.4170 C   0  0  0  0  0  0  0  0  0  0  0  0
  176.3370   23.0600   53.6290 O   0  0  0  0  0  0  0  0  0  0  0  0
  176.9970   22.3230   51.4900 C   0  0  0  0  0  0  0  0  0  0  0  0
  178.0320   21.5960   52.0510 O   0  0  0  0  0  0  0  0  0  0  0  0
  178.9100   21.9040   49.0530 C   0  0  0  0  0  0  0  0  0  0  0  0
  179.6740   21.2530   48.0760 C   0  0  0  0  0  0  0  0  0  0  0  0
  179.1220   20.3410   47.1440 C   0  0  0  0  0  0  0  0  0  0  0  0
  180.0630   19.6880   46.0930 C   0  0  0  0  0  0  0  0  0  0  0  0
  179.7890   18.1720   45.8650 C   0  0  0  0  0  0  0  0  0  0  0  0
  179.9070   20.3240   44.6930 C   0  0  0  0  0  0  0  0  0  0  0  0
  181.5270   19.7730   46.5750 C   0  0  0  0  0  0  0  0  0  0  0  0
  175.7737   18.7594   48.1450 H   0  0  0  0  0  0  0  0  0  0  0  0
  174.7861   19.3395   46.7613 H   0  0  0  0  0  0  0  0  0  0  0  0
  175.4361   17.6650   46.7613 H   0  0  0  0  0  0  0  0  0  0  0  0
  177.5164   18.3262   46.0879 H   0  0  0  0  0  0  0  0  0  0  0  0
  176.5947   19.7653   45.4674 H   0  0  0  0  0  0  0  0  0  0  0  0
  175.8838   20.6170   48.2845 H   0  0  0  0  0  0  0  0  0  0  0  0
  173.7453   24.5821   48.7607 H   0  0  0  0  0  0  0  0  0  0  0  0
  172.1839   25.9200   50.1746 H   0  0  0  0  0  0  0  0  0  0  0  0
  172.4583   25.9484   52.6563 H   0  0  0  0  0  0  0  0  0  0  0  0
  174.5310   25.4820   54.4060 H   0  0  0  0  0  0  0  0  0  0  0  0
  178.0360   20.6620   51.9860 H   0  0  0  0  0  0  0  0  0  0  0  0
  179.3978   22.6025   49.7488 H   0  0  0  0  0  0  0  0  0  0  0  0
  180.7534   21.4599   48.0306 H   0  0  0  0  0  0  0  0  0  0  0  0
  179.6975   17.6657   46.8372 H   0  0  0  0  0  0  0  0  0  0  0  0
  178.8542   18.0495   45.2984 H   0  0  0  0  0  0  0  0  0  0  0  0
  180.6218   17.7300   45.2984 H   0  0  0  0  0  0  0  0  0  0  0  0
  179.6462   21.3872   44.8003 H   0  0  0  0  0  0  0  0  0  0  0  0
  180.8542   20.2327   44.1412 H   0  0  0  0  0  0  0  0  0  0  0  0
  179.1096   19.8047   44.1412 H   0  0  0  0  0  0  0  0  0  0  0  0
  181.5514   19.7744   47.6747 H   0  0  0  0  0  0  0  0  0  0  0  0
  182.0884   18.9059   46.1969 H   0  0  0  0  0  0  0  0  0  0  0  0
  181.9843   20.6992   46.1969 H   0  0  0  0  0  0  0  0  0  0  0  0
  1  2  1  0
  2  3  1  0
  3  4  2  0
  4  5  1  0
  5  6  1  0
  6  7  1  0
  7  8  1  0
  8  9  2  0
  9 10  1  0
 10 11  2  0
 11 12  1  0
 12 13  1  0
 12 14  2  0
 14 15  1  0
 15 16  2  0
 15 17  1  0
 17 18  1  0
  5 19  2  0
 19 20  1  0
 20 21  2  0
 21 22  1  0
 22 23  1  0
 22 24  1  0
 22 25  1  0
 21  3  1  0
 17  6  2  0
 14  8  1  0
  1 26  1  0
  1 27  1  0
  1 28  1  0
  2 29  1  0
  2 30  1  0
  4 31  1  0
  9 32  1  0
 10 33  1  0
 11 34  1  0
 13 35  1  0
 18 36  1  0
 19 37  1  0
 20 38  1  0
 23 39  1  0
 23 40  1  0
 23 41  1  0
 24 42  1  0
 24 43  1  0
 24 44  1  0
 25 45  1  0
 25 46  1  0
 25 47  1  0
M  END
>  <meeko>  (1) 
{"is_sidechain": [false], "free_energy": -7.743, "intermolecular_energy": -9.553, "internal_energy": -0.279}

$$$$
cand_038_out
     RDKit          3D

 47 49  0  0  0  0  0  0  0  0999 V2000
  174.9380   19.7180   47.3800 C   0  0  0  0  0  0  0  0  0  0  0  0
  175.7310   20.9770   47.0430 C   0  0  0  0  0  0  0  0  0  0  0  0
  177.2070   20.8290   47.3490 C   0  0  0  0  0  0  0  0  0  0  0  0
  177.8820   19.8910   46.5200 C   0  0  0  0  0  0  0  0  0  0  0  0
  179.2480   19.6230   46.6330 C   0  0  0  0  0  0  0  0  0  0  0  0
  179.9290   18.6290   45.7780 C   0  0  0  0  0  0  0  0  0  0  0  0
  179.3330   17.3730   45.8280 O   0  0  0  0  0  0  0  0  0  0  0  0
  179.8660   16.3560   45.0800 C   0  0  0  0  0  0  0  0  0  0  0  0
  179.2280   15.1170   45.1500 C   0  0  0  0  0  0  0  0  0  0  0  0
  179.7200   14.0370   44.4140 C   0  0  0  0  0  0  0  0  0  0  0  0
  180.8510   14.1950   43.6100 C   0  0  0  0  0  0  0  0  0  0  0  0
  181.4870   15.4320   43.5430 C   0  0  0  0  0  0  0  0  0  0  0  0
  182.5890   15.5170   42.7370 O   0  0  0  0  0  0  0  0  0  0  0  0
  180.9930   16.5120   44.2790 C   0  0  0  0  0  0  0  0  0  0  0  0
  181.6300   17.8300   44.2360 C   0  0  0  0  0  0  0  0  0  0  0  0
  182.6330   18.0460   43.5580 O   0  0  0  0  0  0  0  0  0  0  0  0
  181.0240   18.9110   45.0470 C   0  0  0  0  0  0  0  0  0  0  0  0
  181.6430   20.1470   45.0100 O   0  0  0  0  0  0  0  0  0  0  0  0
  179.9540   20.2990   47.6210 C   0  0  0  0  0  0  0  0  0  0  0  0
  179.3110   21.2250   48.4530 C   0  0  0  0  0  0  0  0  0  0  0  0
  177.9310   21.5310   48.3490 C   0  0  0  0  0  0  0  0  0  0  0  0
  177.3210   22.5650   49.3360 C   0  0  0  0  0  0  0  0  0  0  0  0
  178.3530   23.1500   50.3450 C   0  0  0  0  0  0  0  0  0  0  0  0
  176.7480   23.8010   48.6070 C   0  0  0  0  0  0  0  0  0  0  0  0
  176.2380   21.8870   50.2030 C   0  0  0  0  0  0  0  0  0  0  0  0
  174.8695   19.6093   48.4725 H   0  0  0  0  0  0  0  0  0  0  0  0
  173.9264   19.7972   46.9553 H   0  0  0  0  0  0  0  0  0  0  0  0
  175.4463   18.8398   46.9553 H   0  0  0  0  0  0  0  0  0  0  0  0
  175.6124   21.1928   45.9709 H   0  0  0  0  0  0  0  0  0  0  0  0
  175.3401   21.7960   47.6647 H   0  0  0  0  0  0  0  0  0  0  0  0
  177.3023   19.3526   45.7557 H   0  0  0  0  0  0  0  0  0  0  0  0
  178.3382   14.9911   45.7844 H   0  0  0  0  0  0  0  0  0  0  0  0
  179.2161   13.0607   44.4676 H   0  0  0  0  0  0  0  0  0  0  0  0
  181.2386   13.3440   43.0308 H   0  0  0  0  0  0  0  0  0  0  0  0
  182.8890   16.3530   42.4410 H   0  0  0  0  0  0  0  0  0  0  0  0
  182.1440   20.4420   45.7450 H   0  0  0  0  0  0  0  0  0  0  0  0
  181.0289   20.1050   47.7512 H   0  0  0  0  0  0  0  0  0  0  0  0
  179.9052   21.7387   49.2231 H   0  0  0  0  0  0  0  0  0  0  0  0
  178.0114   22.9564   51.3725 H   0  0  0  0  0  0  0  0  0  0  0  0
  179.3312   22.6721   50.1876 H   0  0  0  0  0  0  0  0  0  0  0  0
  178.4453   24.2348   50.1876 H   0  0  0  0  0  0  0  0  0  0  0  0
  176.4062   24.5382   49.3484 H   0  0  0  0  0  0  0  0  0  0  0  0
  177.5298   24.2501   47.9768 H   0  0  0  0  0  0  0  0  0  0  0  0
  175.9001   23.4946   47.9768 H   0  0  0  0  0  0  0  0  0  0  0  0
  176.4744   22.0350   51.2671 H   0  0  0  0  0  0  0  0  0  0  0  0
  175.2575   22.3328   49.9798 H   0  0  0  0  0  0  0  0  0  0  0  0
  176.2106   20.8102   49.9798 H   0  0  0  0  0  0  0  0  0  0  0  0
  1  2  1  0
  2  3  1  0
  3  4  2  0
  4  5  1  0
  5  6  1  0
  6  7  1  0
  7  8  1  0
  8  9  2  0
  9 10  1  0
 10 11  2  0
 11 12  1  0
 12 13  1  0
 12 14  2  0
 14 15  1  0
 15 16  2  0
 15 17  1  0
 17 18  1  0
  5 19  2  0
 19 20  1  0
 20 21  2  0
 21 22  1  0
 22 23  1  0
 22 24  1  0
 22 25  1  0
 21  3  1  0
 17  6  2  0
 14  8  1  0
  1 26  1  0
  1 27  1  0
  1 28  1  0
  2 29  1  0
  2 30  1  0
  4 31  1  0
  9 32  1  0
 10 33  1  0
 11 34  1  0
 13 35  1  0
 18 36  1  0
 19 37  1  0
 20 38  1  0
 23 39  1  0
 23 40  1  0
 23 41  1  0
 24 42  1  0
 24 43  1  0
 24 44  1  0
 25 45  1  0
 25 46  1  0
 25 47  1  0
M  END
>  <meeko>  (2) 
{"is_sidechain": [false], "free_energy": -7.699, "intermolecular_energy": -9.368, "internal_energy": -0.41}

$$$$
cand_038_out
     RDKit          3D

 47 49  0  0  0  0  0  0  0  0999 V2000
  180.7470   21.5420   49.9440 C   0  0  0  0  0  0  0  0  0  0  0  0
  179.7830   22.3050   49.0420 C   0  0  0  0  0  0  0  0  0  0  0  0
  178.8950   21.3800   48.2340 C   0  0  0  0  0  0  0  0  0  0  0  0
  179.6050   20.4450   47.4320 C   0  0  0  0  0  0  0  0  0  0  0  0
  178.9690   19.4970   46.6280 C   0  0  0  0  0  0  0  0  0  0  0  0
  179.7220   18.5470   45.7830 C   0  0  0  0  0  0  0  0  0  0  0  0
  179.2130   17.2540   45.8400 O   0  0  0  0  0  0  0  0  0  0  0  0
  179.8180   16.2700   45.1020 C   0  0  0  0  0  0  0  0  0  0  0  0
  179.2650   14.9900   45.1770 C   0  0  0  0  0  0  0  0  0  0  0  0
  179.8340   13.9420   44.4520 C   0  0  0  0  0  0  0  0  0  0  0  0
  180.9560   14.1710   43.6520 C   0  0  0  0  0  0  0  0  0  0  0  0
  181.5070   15.4490   43.5800 C   0  0  0  0  0  0  0  0  0  0  0  0
  182.6050   15.6030   42.7790 O   0  0  0  0  0  0  0  0  0  0  0  0
  180.9360   16.4970   44.3050 C   0  0  0  0  0  0  0  0  0  0  0  0
  181.4820   17.8550   44.2570 C   0  0  0  0  0  0  0  0  0  0  0  0
  182.4720   18.1340   43.5830 O   0  0  0  0  0  0  0  0  0  0  0  0
  180.7990   18.8970   45.0570 C   0  0  0  0  0  0  0  0  0  0  0  0
  181.3330   20.1730   45.0140 O   0  0  0  0  0  0  0  0  0  0  0  0
  177.5790   19.5020   46.6090 C   0  0  0  0  0  0  0  0  0  0  0  0
  176.8560   20.4160   47.3880 C   0  0  0  0  0  0  0  0  0  0  0  0
  177.4740   21.3750   48.2270 C   0  0  0  0  0  0  0  0  0  0  0  0
  176.5720   22.3500   49.0340 C   0  0  0  0  0  0  0  0  0  0  0  0
  175.0480   22.0910   48.8460 C   0  0  0  0  0  0  0  0  0  0  0  0
  176.8000   22.2310   50.5590 C   0  0  0  0  0  0  0  0  0  0  0  0
  176.8060   23.7990   48.5560 C   0  0  0  0  0  0  0  0  0  0  0  0
  180.4978   21.7393   50.9971 H   0  0  0  0  0  0  0  0  0  0  0  0
  180.6619   20.4639   49.7428 H   0  0  0  0  0  0  0  0  0  0  0  0
  181.7767   21.8724   49.7428 H   0  0  0  0  0  0  0  0  0  0  0  0
  179.1469   22.9479   49.6681 H   0  0  0  0  0  0  0  0  0  0  0  0
  180.3822   22.8977   48.3351 H   0  0  0  0  0  0  0  0  0  0  0  0
  180.7046   20.4696   47.4455 H   0  0  0  0  0  0  0  0  0  0  0  0
  178.3818   14.8079   45.8069 H   0  0  0  0  0  0  0  0  0  0  0  0
  179.3981   12.9337   44.5106 H   0  0  0  0  0  0  0  0  0  0  0  0
  181.4035   13.3446   43.0803 H   0  0  0  0  0  0  0  0  0  0  0  0
  182.6940   15.0880   42.0020 H   0  0  0  0  0  0  0  0  0  0  0  0
  180.7640   20.9180   45.0010 H   0  0  0  0  0  0  0  0  0  0  0  0
  177.0408   18.7811   45.9760 H   0  0  0  0  0  0  0  0  0  0  0  0
  175.7572   20.3870   47.3456 H   0  0  0  0  0  0  0  0  0  0  0  0
  174.5657   22.0090   49.8312 H   0  0  0  0  0  0  0  0  0  0  0  0
  174.6004   22.9260   48.2870 H   0  0  0  0  0  0  0  0  0  0  0  0
  174.9014   21.1551   48.2870 H   0  0  0  0  0  0  0  0  0  0  0  0
  175.9475   22.6760   51.0930 H   0  0  0  0  0  0  0  0  0  0  0  0
  176.8918   21.1700   50.8343 H   0  0  0  0  0  0  0  0  0  0  0  0
  177.7229   22.7624   50.8343 H   0  0  0  0  0  0  0  0  0  0  0  0
  176.9128   24.4602   49.4286 H   0  0  0  0  0  0  0  0  0  0  0  0
  177.7226   23.8415   47.9494 H   0  0  0  0  0  0  0  0  0  0  0  0
  175.9493   24.1279   47.9494 H   0  0  0  0  0  0  0  0  0  0  0  0
  1  2  1  0
  2  3  1  0
  3  4  2  0
  4  5  1  0
  5  6  1  0
  6  7  1  0
  7  8  1  0
  8  9  2  0
  9 10  1  0
 10 11  2  0
 11 12  1  0
 12 13  1  0
 12 14  2  0
 14 15  1  0
 15 16  2  0
 15 17  1  0
 17 18  1  0
  5 19  2  0
 19 20  1  0
 20 21  2  0
 21 22  1  0
 22 23  1  0
 22 24  1  0
 22 25  1  0
 21  3  1  0
 17  6  2  0
 14  8  1  0
  1 26  1  0
  1 27  1  0
  1 28  1  0
  2 29  1  0
  2 30  1  0
  4 31  1  0
  9 32  1  0
 10 33  1  0
 11 34  1  0
 13 35  1  0
 18 36  1  0
 19 37  1  0
 20 38  1  0
 23 39  1  0
 23 40  1  0
 23 41  1  0
 24 42  1  0
 24 43  1  0
 24 44  1  0
 25 45  1  0
 25 46  1  0
 25 47  1  0
M  END
>  <meeko>  (3) 
{"is_sidechain": [false], "free_energy": -7.654, "intermolecular_energy": -9.451, "internal_energy": -0.272}

$$$$
cand_038_out
     RDKit          3D

 47 49  0  0  0  0  0  0  0  0999 V2000
  177.4010   21.5800   51.1570 C   0  0  0  0  0  0  0  0  0  0  0  0
  177.2020   22.1390   49.7520 C   0  0  0  0  0  0  0  0  0  0  0  0
  178.1990   21.5750   48.7600 C   0  0  0  0  0  0  0  0  0  0  0  0
  179.5260   22.0560   48.9320 C   0  0  0  0  0  0  0  0  0  0  0  0
  180.5930   21.6450   48.1290 C   0  0  0  0  0  0  0  0  0  0  0  0
  181.9620   22.1710   48.3070 C   0  0  0  0  0  0  0  0  0  0  0  0
  182.3840   22.9520   47.2360 O   0  0  0  0  0  0  0  0  0  0  0  0
  183.6370   23.5050   47.2720 C   0  0  0  0  0  0  0  0  0  0  0  0
  184.0140   24.2930   46.1840 C   0  0  0  0  0  0  0  0  0  0  0  0
  185.2790   24.8840   46.1550 C   0  0  0  0  0  0  0  0  0  0  0  0
  186.1670   24.6870   47.2150 C   0  0  0  0  0  0  0  0  0  0  0  0
  185.7900   23.8990   48.2990 C   0  0  0  0  0  0  0  0  0  0  0  0
  186.7090   23.7470   49.3010 O   0  0  0  0  0  0  0  0  0  0  0  0
  184.5240   23.3090   48.3270 C   0  0  0  0  0  0  0  0  0  0  0  0
  184.0870   22.4740   49.4480 C   0  0  0  0  0  0  0  0  0  0  0  0
  184.8140   22.2480   50.4130 O   0  0  0  0  0  0  0  0  0  0  0  0
  182.7230   21.9010   49.3840 C   0  0  0  0  0  0  0  0  0  0  0  0
  182.3260   21.1030   50.4430 O   0  0  0  0  0  0  0  0  0  0  0  0
  180.3160   20.7410   47.1100 C   0  0  0  0  0  0  0  0  0  0  0  0
  179.0160   20.2550   46.9180 C   0  0  0  0  0  0  0  0  0  0  0  0
  177.9190   20.6400   47.7280 C   0  0  0  0  0  0  0  0  0  0  0  0
  176.5170   20.0480   47.4130 C   0  0  0  0  0  0  0  0  0  0  0  0
  175.8610   19.3180   48.6230 C   0  0  0  0  0  0  0  0  0  0  0  0
  175.4960   21.1390   47.0200 C   0  0  0  0  0  0  0  0  0  0  0  0
  176.6350   18.9810   46.3040 C   0  0  0  0  0  0  0  0  0  0  0  0
  177.1284   22.3457   51.8983 H   0  0  0  0  0  0  0  0  0  0  0  0
  176.7629   20.6944   51.2930 H   0  0  0  0  0  0  0  0  0  0  0  0
  178.4552   21.2968   51.2930 H   0  0  0  0  0  0  0  0  0  0  0  0
  176.1859   21.8889   49.4128 H   0  0  0  0  0  0  0  0  0  0  0  0
  177.3544   23.2274   49.7991 H   0  0  0  0  0  0  0  0  0  0  0  0
  179.7213   22.7842   49.7330 H   0  0  0  0  0  0  0  0  0  0  0  0
  183.3149   24.4487   45.3491 H   0  0  0  0  0  0  0  0  0  0  0  0
  185.5762   25.5049   45.2970 H   0  0  0  0  0  0  0  0  0  0  0  0
  187.1628   25.1538   47.1933 H   0  0  0  0  0  0  0  0  0  0  0  0
  186.8290   24.4270   49.9340 H   0  0  0  0  0  0  0  0  0  0  0  0
  181.4840   20.6920   50.4280 H   0  0  0  0  0  0  0  0  0  0  0  0
  181.1263   20.4035   46.4471 H   0  0  0  0  0  0  0  0  0  0  0  0
  178.8387   19.5411   46.1001 H   0  0  0  0  0  0  0  0  0  0  0  0
  176.2450   19.7453   49.5611 H   0  0  0  0  0  0  0  0  0  0  0  0
  174.7694   19.4470   48.5811 H   0  0  0  0  0  0  0  0  0  0  0  0
  176.1055   18.2463   48.5811 H   0  0  0  0  0  0  0  0  0  0  0  0
  175.0735   21.5905   47.9297 H   0  0  0  0  0  0  0  0  0  0  0  0
  175.9996   21.9153   46.4252 H   0  0  0  0  0  0  0  0  0  0  0  0
  174.6881   20.6879   46.4252 H   0  0  0  0  0  0  0  0  0  0  0  0
  176.7449   17.9869   46.7619 H   0  0  0  0  0  0  0  0  0  0  0  0
  175.7294   18.9991   45.6799 H   0  0  0  0  0  0  0  0  0  0  0  0
  177.5148   19.1966   45.6799 H   0  0  0  0  0  0  0  0  0  0  0  0
  1  2  1  0
  2  3  1  0
  3  4  2  0
  4  5  1  0
  5  6  1  0
  6  7  1  0
  7  8  1  0
  8  9  2  0
  9 10  1  0
 10 11  2  0
 11 12  1  0
 12 13  1  0
 12 14  2  0
 14 15  1  0
 15 16  2  0
 15 17  1  0
 17 18  1  0
  5 19  2  0
 19 20  1  0
 20 21  2  0
 21 22  1  0
 22 23  1  0
 22 24  1  0
 22 25  1  0
 21  3  1  0
 17  6  2  0
 14  8  1  0
  1 26  1  0
  1 27  1  0
  1 28  1  0
  2 29  1  0
  2 30  1  0
  4 31  1  0
  9 32  1  0
 10 33  1  0
 11 34  1  0
 13 35  1  0
 18 36  1  0
 19 37  1  0
 20 38  1  0
 23 39  1  0
 23 40  1  0
 23 41  1  0
 24 42  1  0
 24 43  1  0
 24 44  1  0
 25 45  1  0
 25 46  1  0
 25 47  1  0
M  END
>  <meeko>  (4) 
{"is_sidechain": [false], "free_energy": -7.52, "intermolecular_energy": -9.028, "internal_energy": -0.53}

$$$$
cand_038_out
     RDKit          3D

 47 49  0  0  0  0  0  0  0  0999 V2000
  179.7700   18.9410   45.9120 C   0  0  0  0  0  0  0  0  0  0  0  0
  178.4630   19.4690   46.4950 C   0  0  0  0  0  0  0  0  0  0  0  0
  178.6850   20.6040   47.4730 C   0  0  0  0  0  0  0  0  0  0  0  0
  180.0500   20.9550   47.6580 C   0  0  0  0  0  0  0  0  0  0  0  0
  180.4620   21.9850   48.5060 C   0  0  0  0  0  0  0  0  0  0  0  0
  181.8870   22.3220   48.7040 C   0  0  0  0  0  0  0  0  0  0  0  0
  182.5310   22.6640   47.5190 O   0  0  0  0  0  0  0  0  0  0  0  0
  183.8590   23.0000   47.5590 C   0  0  0  0  0  0  0  0  0  0  0  0
  184.4610   23.3510   46.3500 C   0  0  0  0  0  0  0  0  0  0  0  0
  185.8120   23.7020   46.3200 C   0  0  0  0  0  0  0  0  0  0  0  0
  186.5620   23.7030   47.4980 C   0  0  0  0  0  0  0  0  0  0  0  0
  185.9590   23.3520   48.7040 C   0  0  0  0  0  0  0  0  0  0  0  0
  186.7510   23.3720   49.8190 O   0  0  0  0  0  0  0  0  0  0  0  0
  184.6070   23.0010   48.7330 C   0  0  0  0  0  0  0  0  0  0  0  0
  183.9340   22.6260   49.9780 C   0  0  0  0  0  0  0  0  0  0  0  0
  184.5280   22.5960   51.0540 O   0  0  0  0  0  0  0  0  0  0  0  0
  182.4970   22.2790   49.9030 C   0  0  0  0  0  0  0  0  0  0  0  0
  181.8750   21.9140   51.0840 O   0  0  0  0  0  0  0  0  0  0  0  0
  179.4760   22.6710   49.2060 C   0  0  0  0  0  0  0  0  0  0  0  0
  178.1240   22.3420   49.0440 C   0  0  0  0  0  0  0  0  0  0  0  0
  177.6760   21.3150   48.1780 C   0  0  0  0  0  0  0  0  0  0  0  0
  176.1520   21.0270   48.0880 C   0  0  0  0  0  0  0  0  0  0  0  0
  175.2750   22.0560   48.8620 C   0  0  0  0  0  0  0  0  0  0  0  0
  175.6290   21.0890   46.6350 C   0  0  0  0  0  0  0  0  0  0  0  0
  175.8380   19.6570   48.7280 C   0  0  0  0  0  0  0  0  0  0  0  0
  180.4517   18.6656   46.7302 H   0  0  0  0  0  0  0  0  0  0  0  0
  179.5640   18.0556   45.2927 H   0  0  0  0  0  0  0  0  0  0  0  0
  180.2368   19.7211   45.2927 H   0  0  0  0  0  0  0  0  0  0  0  0
  177.8294   19.8307   45.6718 H   0  0  0  0  0  0  0  0  0  0  0  0
  177.9816   18.6444   47.0412 H   0  0  0  0  0  0  0  0  0  0  0  0
  180.8166   20.3894   47.1081 H   0  0  0  0  0  0  0  0  0  0  0  0
  183.8715   23.3511   45.4213 H   0  0  0  0  0  0  0  0  0  0  0  0
  186.2865   23.9782   45.3668 H   0  0  0  0  0  0  0  0  0  0  0  0
  187.6262   23.9802   47.4738 H   0  0  0  0  0  0  0  0  0  0  0  0
  186.6740   22.6940   50.4600 H   0  0  0  0  0  0  0  0  0  0  0  0
  180.9720   21.6640   51.0790 H   0  0  0  0  0  0  0  0  0  0  0  0
  179.7605   23.4806   49.8942 H   0  0  0  0  0  0  0  0  0  0  0  0
  177.3748   22.9083   49.6167 H   0  0  0  0  0  0  0  0  0  0  0  0
  175.4028   21.9060   49.9442 H   0  0  0  0  0  0  0  0  0  0  0  0
  175.5850   23.0768   48.5941 H   0  0  0  0  0  0  0  0  0  0  0  0
  174.2179   21.9117   48.5941 H   0  0  0  0  0  0  0  0  0  0  0  0
  174.5367   21.2185   46.6437 H   0  0  0  0  0  0  0  0  0  0  0  0
  176.0948   21.9382   46.1136 H   0  0  0  0  0  0  0  0  0  0  0  0
  175.8833   20.1544   46.1136 H   0  0  0  0  0  0  0  0  0  0  0  0
  175.8595   19.7507   49.8238 H   0  0  0  0  0  0  0  0  0  0  0  0
  174.8400   19.3229   48.4080 H   0  0  0  0  0  0  0  0  0  0  0  0
  176.5909   18.9216   48.4080 H   0  0  0  0  0  0  0  0  0  0  0  0
  1  2  1  0
  2  3  1  0
  3  4  2  0
  4  5  1  0
  5  6  1  0
  6  7  1  0
  7  8  1  0
  8  9  2  0
  9 10  1  0
 10 11  2  0
 11 12  1  0
 12 13  1  0
 12 14  2  0
 14 15  1  0
 15 16  2  0
 15 17  1  0
 17 18  1  0
  5 19  2  0
 19 20  1  0
 20 21  2  0
 21 22  1  0
 22 23  1  0
 22 24  1  0
 22 25  1  0
 21  3  1  0
 17  6  2  0
 14  8  1  0
  1 26  1  0
  1 27  1  0
  1 28  1  0
  2 29  1  0
  2 30  1  0
  4 31  1  0
  9 32  1  0
 10 33  1  0
 11 34  1  0
 13 35  1  0
 18 36  1  0
 19 37  1  0
 20 38  1  0
 23 39  1  0
 23 40  1  0
 23 41  1  0
 24 42  1  0
 24 43  1  0
 24 44  1  0
 25 45  1  0
 25 46  1  0
 25 47  1  0
M  END
>  <meeko>  (5) 
{"is_sidechain": [false], "free_energy": -7.386, "intermolecular_energy": -9.038, "internal_energy": -0.355}

$$$$
cand_038_out
     RDKit          3D

 47 49  0  0  0  0  0  0  0  0999 V2000
  180.0790   19.3370   45.5310 C   0  0  0  0  0  0  0  0  0  0  0  0
  178.9460   20.3520   45.6490 C   0  0  0  0  0  0  0  0  0  0  0  0
  178.8100   20.9050   47.0530 C   0  0  0  0  0  0  0  0  0  0  0  0
  179.9820   21.5450   47.5420 C   0  0  0  0  0  0  0  0  0  0  0  0
  180.0540   22.1330   48.8070 C   0  0  0  0  0  0  0  0  0  0  0  0
  181.2860   22.7760   49.3090 C   0  0  0  0  0  0  0  0  0  0  0  0
  181.3840   24.1150   48.9440 O   0  0  0  0  0  0  0  0  0  0  0  0
  182.4800   24.8330   49.3460 C   0  0  0  0  0  0  0  0  0  0  0  0
  182.5310   26.1760   48.9710 C   0  0  0  0  0  0  0  0  0  0  0  0
  183.6210   26.9640   49.3450 C   0  0  0  0  0  0  0  0  0  0  0  0
  184.6610   26.4100   50.0940 C   0  0  0  0  0  0  0  0  0  0  0  0
  184.6100   25.0690   50.4660 C   0  0  0  0  0  0  0  0  0  0  0  0
  185.6620   24.5900   51.1980 O   0  0  0  0  0  0  0  0  0  0  0  0
  183.5180   24.2810   50.0920 C   0  0  0  0  0  0  0  0  0  0  0  0
  183.4230   22.8680   50.4630 C   0  0  0  0  0  0  0  0  0  0  0  0
  184.3020   22.3060   51.1140 O   0  0  0  0  0  0  0  0  0  0  0  0
  182.2220   22.1230   50.0230 C   0  0  0  0  0  0  0  0  0  0  0  0
  182.1500   20.7850   50.3680 O   0  0  0  0  0  0  0  0  0  0  0  0
  178.9250   22.0570   49.6140 C   0  0  0  0  0  0  0  0  0  0  0  0
  177.7590   21.4280   49.1560 C   0  0  0  0  0  0  0  0  0  0  0  0
  177.6510   20.8400   47.8720 C   0  0  0  0  0  0  0  0  0  0  0  0
  176.3130   20.1560   47.4760 C   0  0  0  0  0  0  0  0  0  0  0  0
  176.5000   18.8710   46.6150 C   0  0  0  0  0  0  0  0  0  0  0  0
  175.5110   19.6830   48.7090 C   0  0  0  0  0  0  0  0  0  0  0  0
  175.4710   21.1140   46.6070 C   0  0  0  0  0  0  0  0  0  0  0  0
  180.4110   19.0396   46.5366 H   0  0  0  0  0  0  0  0  0  0  0  0
  179.7221   18.4509   44.9856 H   0  0  0  0  0  0  0  0  0  0  0  0
  180.9207   19.7888   44.9856 H   0  0  0  0  0  0  0  0  0  0  0  0
  179.1448   21.1852   44.9589 H   0  0  0  0  0  0  0  0  0  0  0  0
  178.0068   19.8369   45.3989 H   0  0  0  0  0  0  0  0  0  0  0  0
  180.8713   21.5785   46.8954 H   0  0  0  0  0  0  0  0  0  0  0  0
  181.7125   26.6138   48.3808 H   0  0  0  0  0  0  0  0  0  0  0  0
  183.6606   28.0227   49.0492 H   0  0  0  0  0  0  0  0  0  0  0  0
  185.5190   27.0316   50.3897 H   0  0  0  0  0  0  0  0  0  0  0  0
  186.2610   23.9820   50.8130 H   0  0  0  0  0  0  0  0  0  0  0  0
  182.5920   20.4750   51.1340 H   0  0  0  0  0  0  0  0  0  0  0  0
  178.9467   22.4951   50.6228 H   0  0  0  0  0  0  0  0  0  0  0  0
  176.8869   21.3893   49.8253 H   0  0  0  0  0  0  0  0  0  0  0  0
  176.6265   18.0015   47.2767 H   0  0  0  0  0  0  0  0  0  0  0  0
  175.6140   18.7228   45.9802 H   0  0  0  0  0  0  0  0  0  0  0  0
  177.3915   18.9815   45.9802 H   0  0  0  0  0  0  0  0  0  0  0  0
  176.0336   19.9912   49.6266 H   0  0  0  0  0  0  0  0  0  0  0  0
  174.5080   20.1342   48.6891 H   0  0  0  0  0  0  0  0  0  0  0  0
  175.4205   18.5869   48.6891 H   0  0  0  0  0  0  0  0  0  0  0  0
  174.8854   21.7802   47.2576 H   0  0  0  0  0  0  0  0  0  0  0  0
  176.1383   21.7152   45.9720 H   0  0  0  0  0  0  0  0  0  0  0  0
  174.7891   20.5294   45.9720 H   0  0  0  0  0  0  0  0  0  0  0  0
  1  2  1  0
  2  3  1  0
  3  4  2  0
  4  5  1  0
  5  6  1  0
  6  7  1  0
  7  8  1  0
  8  9  2  0
  9 10  1  0
 10 11  2  0
 11 12  1  0
 12 13  1  0
 12 14  2  0
 14 15  1  0
 15 16  2  0
 15 17  1  0
 17 18  1  0
  5 19  2  0
 19 20  1  0
 20 21  2  0
 21 22  1  0
 22 23  1  0
 22 24  1  0
 22 25  1  0
 21  3  1  0
 17  6  2  0
 14  8  1  0
  1 26  1  0
  1 27  1  0
  1 28  1  0
  2 29  1  0
  2 30  1  0
  4 31  1  0
  9 32  1  0
 10 33  1  0
 11 34  1  0
 13 35  1  0
 18 36  1  0
 19 37  1  0
 20 38  1  0
 23 39  1  0
 23 40  1  0
 23 41  1  0
 24 42  1  0
 24 43  1  0
 24 44  1  0
 25 45  1  0
 25 46  1  0
 25 47  1  0
M  END
>  <meeko>  (6) 
{"is_sidechain": [false], "free_energy": -7.253, "intermolecular_energy": -8.813, "internal_energy": -0.415}

$$$$
cand_038_out
     RDKit          3D

 47 49  0  0  0  0  0  0  0  0999 V2000
  182.0640   26.6770   48.7780 C   0  0  0  0  0  0  0  0  0  0  0  0
  182.6020   25.6440   47.7940 C   0  0  0  0  0  0  0  0  0  0  0  0
  182.5410   24.2340   48.3460 C   0  0  0  0  0  0  0  0  0  0  0  0
  181.2220   23.7450   48.5480 C   0  0  0  0  0  0  0  0  0  0  0  0
  180.9530   22.4640   49.0340 C   0  0  0  0  0  0  0  0  0  0  0  0
  179.5750   21.9780   49.2590 C   0  0  0  0  0  0  0  0  0  0  0  0
  178.9060   21.6840   48.0750 O   0  0  0  0  0  0  0  0  0  0  0  0
  177.6180   21.2220   48.1390 C   0  0  0  0  0  0  0  0  0  0  0  0
  176.9900   20.9250   46.9290 C   0  0  0  0  0  0  0  0  0  0  0  0
  175.6760   20.4520   46.9220 C   0  0  0  0  0  0  0  0  0  0  0  0
  174.9890   20.2770   48.1260 C   0  0  0  0  0  0  0  0  0  0  0  0
  175.6170   20.5750   49.3330 C   0  0  0  0  0  0  0  0  0  0  0  0
  174.8870   20.3820   50.4730 O   0  0  0  0  0  0  0  0  0  0  0  0
  176.9320   21.0470   49.3380 C   0  0  0  0  0  0  0  0  0  0  0  0
  177.6300   21.3720   50.5830 C   0  0  0  0  0  0  0  0  0  0  0  0
  177.0900   21.2520   51.6820 O   0  0  0  0  0  0  0  0  0  0  0  0
  179.0250   21.8570   50.4810 C   0  0  0  0  0  0  0  0  0  0  0  0
  179.6690   22.1740   51.6640 O   0  0  0  0  0  0  0  0  0  0  0  0
  182.0400   21.6570   49.3480 C   0  0  0  0  0  0  0  0  0  0  0  0
  183.3500   22.1170   49.1620 C   0  0  0  0  0  0  0  0  0  0  0  0
  183.6530   23.4040   48.6530 C   0  0  0  0  0  0  0  0  0  0  0  0
  185.1440   23.8140   48.5020 C   0  0  0  0  0  0  0  0  0  0  0  0
  186.1430   22.7490   49.0460 C   0  0  0  0  0  0  0  0  0  0  0  0
  185.5510   24.0070   47.0240 C   0  0  0  0  0  0  0  0  0  0  0  0
  185.4220   25.0940   49.3200 C   0  0  0  0  0  0  0  0  0  0  0  0
  182.2438   26.3318   49.8068 H   0  0  0  0  0  0  0  0  0  0  0  0
  182.5766   27.6371   48.6185 H   0  0  0  0  0  0  0  0  0  0  0  0
  180.9834   26.8073   48.6185 H   0  0  0  0  0  0  0  0  0  0  0  0
  182.0033   25.6888   46.8723 H   0  0  0  0  0  0  0  0  0  0  0  0
  183.6581   25.8831   47.6006 H   0  0  0  0  0  0  0  0  0  0  0  0
  180.3749   24.4054   48.3108 H   0  0  0  0  0  0  0  0  0  0  0  0
  177.5298   21.0634   45.9806 H   0  0  0  0  0  0  0  0  0  0  0  0
  175.1815   20.2170   45.9679 H   0  0  0  0  0  0  0  0  0  0  0  0
  173.9540   19.9045   48.1207 H   0  0  0  0  0  0  0  0  0  0  0  0
  175.2830   19.9800   51.2210 H   0  0  0  0  0  0  0  0  0  0  0  0
  179.5910   23.0360   52.0230 H   0  0  0  0  0  0  0  0  0  0  0  0
  181.8698   20.6461   49.7469 H   0  0  0  0  0  0  0  0  0  0  0  0
  184.1827   21.4474   49.4235 H   0  0  0  0  0  0  0  0  0  0  0  0
  186.1304   22.7625   50.1458 H   0  0  0  0  0  0  0  0  0  0  0  0
  185.8469   21.7519   48.6881 H   0  0  0  0  0  0  0  0  0  0  0  0
  187.1570   22.9808   48.6881 H   0  0  0  0  0  0  0  0  0  0  0  0
  186.5439   24.4779   46.9756 H   0  0  0  0  0  0  0  0  0  0  0  0
  185.5842   23.0287   46.5221 H   0  0  0  0  0  0  0  0  0  0  0  0
  184.8146   24.6518   46.5221 H   0  0  0  0  0  0  0  0  0  0  0  0
  185.3714   24.8611   50.3939 H   0  0  0  0  0  0  0  0  0  0  0  0
  186.4240   25.4757   49.0744 H   0  0  0  0  0  0  0  0  0  0  0  0
  184.6686   25.8570   49.0744 H   0  0  0  0  0  0  0  0  0  0  0  0
  1  2  1  0
  2  3  1  0
  3  4  2  0
  4  5  1  0
  5  6  1  0
  6  7  1  0
  7  8  1  0
  8  9  2  0
  9 10  1  0
 10 11  2  0
 11 12  1  0
 12 13  1  0
 12 14  2  0
 14 15  1  0
 15 16  2  0
 15 17  1  0
 17 18  1  0
  5 19  2  0
 19 20  1  0
 20 21  2  0
 21 22  1  0
 22 23  1  0
 22 24  1  0
 22 25  1  0
 21  3  1  0
 17  6  2  0
 14  8  1  0
  1 26  1  0
  1 27  1  0
  1 28  1  0
  2 29  1  0
  2 30  1  0
  4 31  1  0
  9 32  1  0
 10 33  1  0
 11 34  1  0
 13 35  1  0
 18 36  1  0
 19 37  1  0
 20 38  1  0
 23 39  1  0
 23 40  1  0
 23 41  1  0
 24 42  1  0
 24 43  1  0
 24 44  1  0
 25 45  1  0
 25 46  1  0
 25 47  1  0
M  END
>  <meeko>  (7) 
{"is_sidechain": [false], "free_energy": -7.188, "intermolecular_energy": -8.606, "internal_energy": -0.543}

$$$$
cand_038_out
     RDKit          3D

 47 49  0  0  0  0  0  0  0  0999 V2000
  172.8910   23.7340   49.2470 C   0  0  0  0  0  0  0  0  0  0  0  0
  174.1070   24.5710   49.6320 C   0  0  0  0  0  0  0  0  0  0  0  0
  175.2160   23.7340   50.2360 C   0  0  0  0  0  0  0  0  0  0  0  0
  176.0160   23.0520   49.2790 C   0  0  0  0  0  0  0  0  0  0  0  0
  177.0980   22.2420   49.6320 C   0  0  0  0  0  0  0  0  0  0  0  0
  177.9070   21.5230   48.6260 C   0  0  0  0  0  0  0  0  0  0  0  0
  179.1970   22.0300   48.5070 O   0  0  0  0  0  0  0  0  0  0  0  0
  180.0550   21.4530   47.6080 C   0  0  0  0  0  0  0  0  0  0  0  0
  181.3440   21.9830   47.5320 C   0  0  0  0  0  0  0  0  0  0  0  0
  182.2680   21.4440   46.6350 C   0  0  0  0  0  0  0  0  0  0  0  0
  181.9040   20.3740   45.8140 C   0  0  0  0  0  0  0  0  0  0  0  0
  180.6170   19.8470   45.8900 C   0  0  0  0  0  0  0  0  0  0  0  0
  180.3280   18.8010   45.0570 O   0  0  0  0  0  0  0  0  0  0  0  0
  179.6940   20.3880   46.7890 C   0  0  0  0  0  0  0  0  0  0  0  0
  178.3310   19.8630   46.9020 C   0  0  0  0  0  0  0  0  0  0  0  0
  177.9340   18.9290   46.2080 O   0  0  0  0  0  0  0  0  0  0  0  0
  177.4320   20.5000   47.8900 C   0  0  0  0  0  0  0  0  0  0  0  0
  176.1430   20.0060   47.9790 O   0  0  0  0  0  0  0  0  0  0  0  0
  177.3720   22.0950   50.9870 C   0  0  0  0  0  0  0  0  0  0  0  0
  176.5950   22.7530   51.9490 C   0  0  0  0  0  0  0  0  0  0  0  0
  175.5040   23.5950   51.6200 C   0  0  0  0  0  0  0  0  0  0  0  0
  174.7040   24.2620   52.7720 C   0  0  0  0  0  0  0  0  0  0  0  0
  174.6410   25.8150   52.6710 C   0  0  0  0  0  0  0  0  0  0  0  0
  173.2240   23.8160   52.7910 C   0  0  0  0  0  0  0  0  0  0  0  0
  175.3850   23.9650   54.1250 C   0  0  0  0  0  0  0  0  0  0  0  0
  172.3832   23.3844   50.1580 H   0  0  0  0  0  0  0  0  0  0  0  0
  172.1973   24.3468   48.6527 H   0  0  0  0  0  0  0  0  0  0  0  0
  173.2158   22.8672   48.6527 H   0  0  0  0  0  0  0  0  0  0  0  0
  174.4920   25.0702   48.7306 H   0  0  0  0  0  0  0  0  0  0  0  0
  173.7859   25.3002   50.3904 H   0  0  0  0  0  0  0  0  0  0  0  0
  175.7721   23.1673   48.2126 H   0  0  0  0  0  0  0  0  0  0  0  0
  181.6317   22.8251   48.1787 H   0  0  0  0  0  0  0  0  0  0  0  0
  183.2836   21.8622   46.5746 H   0  0  0  0  0  0  0  0  0  0  0  0
  182.6328   19.9483   45.1085 H   0  0  0  0  0  0  0  0  0  0  0  0
  180.9770   18.4830   44.4620 H   0  0  0  0  0  0  0  0  0  0  0  0
  175.4350   20.4710   47.5790 H   0  0  0  0  0  0  0  0  0  0  0  0
  178.2077   21.4553   51.3070 H   0  0  0  0  0  0  0  0  0  0  0  0
  176.8438   22.6091   53.0108 H   0  0  0  0  0  0  0  0  0  0  0  0
  174.6235   26.2478   53.6821 H   0  0  0  0  0  0  0  0  0  0  0  0
  175.5249   26.1834   52.1298 H   0  0  0  0  0  0  0  0  0  0  0  0
  173.7301   26.1106   52.1298 H   0  0  0  0  0  0  0  0  0  0  0  0
  172.8852   23.7139   53.8325 H   0  0  0  0  0  0  0  0  0  0  0  0
  172.6077   24.5683   52.2770 H   0  0  0  0  0  0  0  0  0  0  0  0
  173.1260   22.8484   52.2770 H   0  0  0  0  0  0  0  0  0  0  0  0
  174.7135   24.2579   54.9456 H   0  0  0  0  0  0  0  0  0  0  0  0
  175.6044   22.8895   54.1968 H   0  0  0  0  0  0  0  0  0  0  0  0
  176.3224   24.5360   54.1968 H   0  0  0  0  0  0  0  0  0  0  0  0
  1  2  1  0
  2  3  1  0
  3  4  2  0
  4  5  1  0
  5  6  1  0
  6  7  1  0
  7  8  1  0
  8  9  2  0
  9 10  1  0
 10 11  2  0
 11 12  1  0
 12 13  1  0
 12 14  2  0
 14 15  1  0
 15 16  2  0
 15 17  1  0
 17 18  1  0
  5 19  2  0
 19 20  1  0
 20 21  2  0
 21 22  1  0
 22 23  1  0
 22 24  1  0
 22 25  1  0
 21  3  1  0
 17  6  2  0
 14  8  1  0
  1 26  1  0
  1 27  1  0
  1 28  1  0
  2 29  1  0
  2 30  1  0
  4 31  1  0
  9 32  1  0
 10 33  1  0
 11 34  1  0
 13 35  1  0
 18 36  1  0
 19 37  1  0
 20 38  1  0
 23 39  1  0
 23 40  1  0
 23 41  1  0
 24 42  1  0
 24 43  1  0
 24 44  1  0
 25 45  1  0
 25 46  1  0
 25 47  1  0
M  END
>  <meeko>  (8) 
{"is_sidechain": [false], "free_energy": -7.164, "intermolecular_energy": -8.623, "internal_energy": -0.495}

$$$$
cand_038_out
     RDKit          3D

 47 49  0  0  0  0  0  0  0  0999 V2000
  175.9050   26.3420   51.7190 C   0  0  0  0  0  0  0  0  0  0  0  0
  175.1560   26.2170   50.3960 C   0  0  0  0  0  0  0  0  0  0  0  0
  175.0780   24.7830   49.9110 C   0  0  0  0  0  0  0  0  0  0  0  0
  176.3430   24.1850   49.6600 C   0  0  0  0  0  0  0  0  0  0  0  0
  176.4860   22.8660   49.2230 C   0  0  0  0  0  0  0  0  0  0  0  0
  177.8070   22.2650   48.9450 C   0  0  0  0  0  0  0  0  0  0  0  0
  177.9160   21.7750   47.6480 O   0  0  0  0  0  0  0  0  0  0  0  0
  179.0930   21.1920   47.2570 C   0  0  0  0  0  0  0  0  0  0  0  0
  179.1640   20.7270   45.9420 C   0  0  0  0  0  0  0  0  0  0  0  0
  180.3330   20.1200   45.4800 C   0  0  0  0  0  0  0  0  0  0  0  0
  181.4310   19.9770   46.3300 C   0  0  0  0  0  0  0  0  0  0  0  0
  181.3580   20.4400   47.6410 C   0  0  0  0  0  0  0  0  0  0  0  0
  182.4690   20.2670   48.4200 O   0  0  0  0  0  0  0  0  0  0  0  0
  180.1880   21.0480   48.1030 C   0  0  0  0  0  0  0  0  0  0  0  0
  180.0690   21.5500   49.4740 C   0  0  0  0  0  0  0  0  0  0  0  0
  180.9890   21.4530   50.2840 O   0  0  0  0  0  0  0  0  0  0  0  0
  178.7890   22.1850   49.8630 C   0  0  0  0  0  0  0  0  0  0  0  0
  178.6840   22.6430   51.1640 O   0  0  0  0  0  0  0  0  0  0  0  0
  175.3240   22.1330   49.0100 C   0  0  0  0  0  0  0  0  0  0  0  0
  174.0660   22.7010   49.2470 C   0  0  0  0  0  0  0  0  0  0  0  0
  173.8920   24.0290   49.7080 C   0  0  0  0  0  0  0  0  0  0  0  0
  172.4470   24.5600   49.9220 C   0  0  0  0  0  0  0  0  0  0  0  0
  172.3420   26.1140   49.8930 C   0  0  0  0  0  0  0  0  0  0  0  0
  171.4790   24.0860   48.8140 C   0  0  0  0  0  0  0  0  0  0  0  0
  171.9340   24.1390   51.3160 C   0  0  0  0  0  0  0  0  0  0  0  0
  175.1978   26.2240   52.5533 H   0  0  0  0  0  0  0  0  0  0  0  0
  176.6765   25.5602   51.7789 H   0  0  0  0  0  0  0  0  0  0  0  0
  176.3808   27.3320   51.7789 H   0  0  0  0  0  0  0  0  0  0  0  0
  174.1339   26.6007   50.5308 H   0  0  0  0  0  0  0  0  0  0  0  0
  175.7074   26.7973   49.6416 H   0  0  0  0  0  0  0  0  0  0  0  0
  177.2496   24.7878   49.8169 H   0  0  0  0  0  0  0  0  0  0  0  0
  178.2996   20.8390   45.2710 H   0  0  0  0  0  0  0  0  0  0  0  0
  180.3891   19.7537   44.4443 H   0  0  0  0  0  0  0  0  0  0  0  0
  182.3521   19.4994   45.9647 H   0  0  0  0  0  0  0  0  0  0  0  0
  183.3230   20.3470   48.0430 H   0  0  0  0  0  0  0  0  0  0  0  0
  179.3370   23.2180   51.5120 H   0  0  0  0  0  0  0  0  0  0  0  0
  175.3935   21.0954   48.6513 H   0  0  0  0  0  0  0  0  0  0  0  0
  173.1712   22.0871   49.0667 H   0  0  0  0  0  0  0  0  0  0  0  0
  172.3160   26.4990   50.9231 H   0  0  0  0  0  0  0  0  0  0  0  0
  173.2140   26.5307   49.3677 H   0  0  0  0  0  0  0  0  0  0  0  0
  171.4218   26.4096   49.3677 H   0  0  0  0  0  0  0  0  0  0  0  0
  170.5817   23.6466   49.2743 H   0  0  0  0  0  0  0  0  0  0  0  0
  171.1882   24.9437   48.1896 H   0  0  0  0  0  0  0  0  0  0  0  0
  171.9782   23.3304   48.1896 H   0  0  0  0  0  0  0  0  0  0  0  0
  172.5360   24.6331   52.0928 H   0  0  0  0  0  0  0  0  0  0  0  0
  170.8805   24.4363   51.4242 H   0  0  0  0  0  0  0  0  0  0  0  0
  172.0200   23.0477   51.4242 H   0  0  0  0  0  0  0  0  0  0  0  0
  1  2  1  0
  2  3  1  0
  3  4  2  0
  4  5  1  0
  5  6  1  0
  6  7  1  0
  7  8  1  0
  8  9  2  0
  9 10  1  0
 10 11  2  0
 11 12  1  0
 12 13  1  0
 12 14  2  0
 14 15  1  0
 15 16  2  0
 15 17  1  0
 17 18  1  0
  5 19  2  0
 19 20  1  0
 20 21  2  0
 21 22  1  0
 22 23  1  0
 22 24  1  0
 22 25  1  0
 21  3  1  0
 17  6  2  0
 14  8  1  0
  1 26  1  0
  1 27  1  0
  1 28  1  0
  2 29  1  0
  2 30  1  0
  4 31  1  0
  9 32  1  0
 10 33  1  0
 11 34  1  0
 13 35  1  0
 18 36  1  0
 19 37  1  0
 20 38  1  0
 23 39  1  0
 23 40  1  0
 23 41  1  0
 24 42  1  0
 24 43  1  0
 24 44  1  0
 25 45  1  0
 25 46  1  0
 25 47  1  0
M  END
>  <meeko>  (9) 
{"is_sidechain": [false], "free_energy": -7.156, "intermolecular_energy": -9.055, "internal_energy": -0.053}

$$$$
