cand_034_out
     RDKit          3D

 40 42  0  0  0  0  0  0  0  0999 V2000
  176.8040   22.1410   50.3990 C   0  0  0  0  0  0  0  0  0  0  0  0
  176.7000   22.2980   48.9450 N   0  0  0  0  0  0  0  0  0  0  0  0
  176.9250   23.6760   48.4840 C   0  0  0  0  0  0  0  0  0  0  0  0
  177.4720   21.3840   48.1950 C   0  0  0  0  0  0  0  0  0  0  0  0
  178.8730   21.4580   48.1390 C   0  0  0  0  0  0  0  0  0  0  0  0
  179.6180   20.5550   47.3710 C   0  0  0  0  0  0  0  0  0  0  0  0
  178.9860   19.5500   46.6350 C   0  0  0  0  0  0  0  0  0  0  0  0
  179.7470   18.6050   45.7890 C   0  0  0  0  0  0  0  0  0  0  0  0
  179.2420   17.3110   45.8360 O   0  0  0  0  0  0  0  0  0  0  0  0
  179.8570   16.3310   45.1010 C   0  0  0  0  0  0  0  0  0  0  0  0
  179.3100   15.0490   45.1720 C   0  0  0  0  0  0  0  0  0  0  0  0
  179.8880   14.0040   44.4480 C   0  0  0  0  0  0  0  0  0  0  0  0
  181.0130   14.2400   43.6560 C   0  0  0  0  0  0  0  0  0  0  0  0
  181.5580   15.5200   43.5880 C   0  0  0  0  0  0  0  0  0  0  0  0
  182.6600   15.6820   42.7930 O   0  0  0  0  0  0  0  0  0  0  0  0
  180.9780   16.5660   44.3120 C   0  0  0  0  0  0  0  0  0  0  0  0
  181.5190   17.9250   44.2700 C   0  0  0  0  0  0  0  0  0  0  0  0
  182.5100   18.2110   43.6020 O   0  0  0  0  0  0  0  0  0  0  0  0
  180.8280   18.9620   45.0700 C   0  0  0  0  0  0  0  0  0  0  0  0
  181.3570   20.2400   45.0360 O   0  0  0  0  0  0  0  0  0  0  0  0
  177.5870   19.4820   46.6750 C   0  0  0  0  0  0  0  0  0  0  0  0
  176.8260   20.3770   47.4530 C   0  0  0  0  0  0  0  0  0  0  0  0
  175.3250   20.2560   47.4570 C   0  0  0  0  0  0  0  0  0  0  0  0
  174.8930   19.0280   47.0310 F   0  0  0  0  0  0  0  0  0  0  0  0
  174.7260   21.1510   46.6190 F   0  0  0  0  0  0  0  0  0  0  0  0
  176.2620   22.9592   50.8958 H   0  0  0  0  0  0  0  0  0  0  0  0
  176.3653   21.1770   50.6960 H   0  0  0  0  0  0  0  0  0  0  0  0
  177.8628   22.1690   50.6960 H   0  0  0  0  0  0  0  0  0  0  0  0
  177.0335   24.3405   49.3538 H   0  0  0  0  0  0  0  0  0  0  0  0
  177.8413   23.7144   47.8766 H   0  0  0  0  0  0  0  0  0  0  0  0
  176.0685   24.0039   47.8766 H   0  0  0  0  0  0  0  0  0  0  0  0
  179.3952   22.2403   48.7094 H   0  0  0  0  0  0  0  0  0  0  0  0
  180.7146   20.6380   47.3469 H   0  0  0  0  0  0  0  0  0  0  0  0
  178.4247   14.8619   45.7975 H   0  0  0  0  0  0  0  0  0  0  0  0
  179.4562   12.9937   44.5019 H   0  0  0  0  0  0  0  0  0  0  0  0
  181.4684   13.4164   43.0865 H   0  0  0  0  0  0  0  0  0  0  0  0
  182.8360   16.5140   42.4000 H   0  0  0  0  0  0  0  0  0  0  0  0
  182.0050   20.4600   44.3960 H   0  0  0  0  0  0  0  0  0  0  0  0
  177.0702   18.7111   46.0846 H   0  0  0  0  0  0  0  0  0  0  0  0
  175.0507   20.4374   48.5067 H   0  0  0  0  0  0  0  0  0  0  0  0
  1  2  1  0
  2  3  1  0
  2  4  1  0
  4  5  2  0
  5  6  1  0
  6  7  2  0
  7  8  1  0
  8  9  1  0
  9 10  1  0
 10 11  2  0
 11 12  1  0
 12 13  2  0
 13 14  1  0
 14 15  1  0
 14 16  2  0
 16 17  1  0
 17 18  2  0
 17 19  1  0
 19 20  1  0
  7 21  1  0
 21 22  2  0
 22 23  1  0
 23 24  1  0
 23 25  1  0
 22  4  1  0
 19  8  2  0
 16 10  1  0
  1 26  1  0
  1 27  1  0
  1 28  1  0
  3 29  1  0
  3 30  1  0
  3 31  1  0
  5 32  1  0
  6 33  1  0
 11 34  1  0
 12 35  1  0
 13 36  1  0
 15 37  1  0
 20 38  1  0
 21 39  1  0
 23 40  1  0
M  END
>  <meeko>  (1) 
{"is_sidechain": [false], "free_energy": -7.636, "intermolecular_energy": -9.422, "internal_energy": -0.289}

$$$$
cand_034_out
     RDKit          3D

 40 42  0  0  0  0  0  0  0  0999 V2000
  172.0840   24.4420   53.2710 C   0  0  0  0  0  0  0  0  0  0  0  0
  172.6670   25.0720   52.0820 N   0  0  0  0  0  0  0  0  0  0  0  0
  173.3150   26.3630   52.3580 C   0  0  0  0  0  0  0  0  0  0  0  0
  173.5160   24.2350   51.3260 C   0  0  0  0  0  0  0  0  0  0  0  0
  174.7050   23.7060   51.8510 C   0  0  0  0  0  0  0  0  0  0  0  0
  175.5440   22.8960   51.0760 C   0  0  0  0  0  0  0  0  0  0  0  0
  175.2200   22.5880   49.7530 C   0  0  0  0  0  0  0  0  0  0  0  0
  176.1040   21.7630   48.9020 C   0  0  0  0  0  0  0  0  0  0  0  0
  177.3670   22.3190   48.7370 O   0  0  0  0  0  0  0  0  0  0  0  0
  178.2880   21.6570   47.9650 C   0  0  0  0  0  0  0  0  0  0  0  0
  179.5460   22.2480   47.8340 C   0  0  0  0  0  0  0  0  0  0  0  0
  180.5290   21.6270   47.0620 C   0  0  0  0  0  0  0  0  0  0  0  0
  180.2560   20.4180   46.4200 C   0  0  0  0  0  0  0  0  0  0  0  0
  178.9990   19.8310   46.5510 C   0  0  0  0  0  0  0  0  0  0  0  0
  178.7980   18.6470   45.8960 O   0  0  0  0  0  0  0  0  0  0  0  0
  178.0150   20.4530   47.3250 C   0  0  0  0  0  0  0  0  0  0  0  0
  176.6820   19.8720   47.4890 C   0  0  0  0  0  0  0  0  0  0  0  0
  176.3630   18.8140   46.9510 O   0  0  0  0  0  0  0  0  0  0  0  0
  175.7130   20.6070   48.3330 C   0  0  0  0  0  0  0  0  0  0  0  0
  174.4510   20.0570   48.4680 O   0  0  0  0  0  0  0  0  0  0  0  0
  174.0400   23.1270   49.2190 C   0  0  0  0  0  0  0  0  0  0  0  0
  173.1830   23.9350   49.9920 C   0  0  0  0  0  0  0  0  0  0  0  0
  171.9290   24.4860   49.3650 C   0  0  0  0  0  0  0  0  0  0  0  0
  171.6720   23.9440   48.1340 F   0  0  0  0  0  0  0  0  0  0  0  0
  172.0000   25.8320   49.1510 F   0  0  0  0  0  0  0  0  0  0  0  0
  172.5093   24.9016   54.1753 H   0  0  0  0  0  0  0  0  0  0  0  0
  170.9935   24.5859   53.2648 H   0  0  0  0  0  0  0  0  0  0  0  0
  172.3119   23.3659   53.2648 H   0  0  0  0  0  0  0  0  0  0  0  0
  173.3892   26.5109   53.4455 H   0  0  0  0  0  0  0  0  0  0  0  0
  174.3229   26.3690   51.9175 H   0  0  0  0  0  0  0  0  0  0  0  0
  172.7175   27.1748   51.9175 H   0  0  0  0  0  0  0  0  0  0  0  0
  174.9832   23.9319   52.8910 H   0  0  0  0  0  0  0  0  0  0  0  0
  176.4704   22.4971   51.5150 H   0  0  0  0  0  0  0  0  0  0  0  0
  179.7621   23.2014   48.3383 H   0  0  0  0  0  0  0  0  0  0  0  0
  181.5209   22.0913   46.9593 H   0  0  0  0  0  0  0  0  0  0  0  0
  181.0316   19.9296   45.8118 H   0  0  0  0  0  0  0  0  0  0  0  0
  179.4950   18.0240   45.8280 H   0  0  0  0  0  0  0  0  0  0  0  0
  174.3280   19.1360   48.3510 H   0  0  0  0  0  0  0  0  0  0  0  0
  173.7777   22.9138   48.1722 H   0  0  0  0  0  0  0  0  0  0  0  0
  171.1405   24.2318   50.0887 H   0  0  0  0  0  0  0  0  0  0  0  0
  1  2  1  0
  2  3  1  0
  2  4  1  0
  4  5  2  0
  5  6  1  0
  6  7  2  0
  7  8  1  0
  8  9  1  0
  9 10  1  0
 10 11  2  0
 11 12  1  0
 12 13  2  0
 13 14  1  0
 14 15  1  0
 14 16  2  0
 16 17  1  0
 17 18  2  0
 17 19  1  0
 19 20  1  0
  7 21  1  0
 21 22  2  0
 22 23  1  0
 23 24  1  0
 23 25  1  0
 22  4  1  0
 19  8  2  0
 16 10  1  0
  1 26  1  0
  1 27  1  0
  1 28  1  0
  3 29  1  0
  3 30  1  0
  3 31  1  0
  5 32  1  0
  6 33  1  0
 11 34  1  0
 12 35  1  0
 13 36  1  0
 15 37  1  0
 20 38  1  0
 21 39  1  0
 23 40  1  0
M  END
>  <meeko>  (2) 
{"is_sidechain": [false], "free_energy": -7.263, "intermolecular_energy": -8.761, "internal_energy": -0.489}

$$$$
cand_034_out
     RDKit          3D

 40 42  0  0  0  0  0  0  0  0999 V2000
  186.0390   22.9700   49.1120 C   0  0  0  0  0  0  0  0  0  0  0  0
  185.0260   23.4680   48.1750 N   0  0  0  0  0  0  0  0  0  0  0  0
  185.3520   23.2120   46.7650 C   0  0  0  0  0  0  0  0  0  0  0  0
  183.7050   23.0660   48.4660 C   0  0  0  0  0  0  0  0  0  0  0  0
  183.3880   21.7520   48.8440 C   0  0  0  0  0  0  0  0  0  0  0  0
  182.0670   21.3700   49.1060 C   0  0  0  0  0  0  0  0  0  0  0  0
  181.0210   22.2890   49.0000 C   0  0  0  0  0  0  0  0  0  0  0  0
  179.6130   21.9040   49.2390 C   0  0  0  0  0  0  0  0  0  0  0  0
  178.9130   21.6580   48.0640 O   0  0  0  0  0  0  0  0  0  0  0  0
  177.5930   21.2960   48.1410 C   0  0  0  0  0  0  0  0  0  0  0  0
  176.9330   21.0500   46.9360 C   0  0  0  0  0  0  0  0  0  0  0  0
  175.5870   20.6780   46.9430 C   0  0  0  0  0  0  0  0  0  0  0  0
  174.9020   20.5520   48.1530 C   0  0  0  0  0  0  0  0  0  0  0  0
  175.5620   20.7990   49.3540 C   0  0  0  0  0  0  0  0  0  0  0  0
  174.8320   20.6580   50.5020 O   0  0  0  0  0  0  0  0  0  0  0  0
  176.9100   21.1710   49.3460 C   0  0  0  0  0  0  0  0  0  0  0  0
  177.6420   21.4400   50.5840 C   0  0  0  0  0  0  0  0  0  0  0  0
  177.1080   21.3570   51.6880 O   0  0  0  0  0  0  0  0  0  0  0  0
  179.0680   21.8230   50.4680 C   0  0  0  0  0  0  0  0  0  0  0  0
  179.7460   22.0910   51.6430 O   0  0  0  0  0  0  0  0  0  0  0  0
  181.3300   23.5990   48.6090 C   0  0  0  0  0  0  0  0  0  0  0  0
  182.6570   23.9990   48.3530 C   0  0  0  0  0  0  0  0  0  0  0  0
  182.9280   25.4210   47.9350 C   0  0  0  0  0  0  0  0  0  0  0  0
  181.9410   26.2840   48.3270 F   0  0  0  0  0  0  0  0  0  0  0  0
  183.0040   25.5620   46.5800 F   0  0  0  0  0  0  0  0  0  0  0  0
  185.6977   23.1378   50.1442 H   0  0  0  0  0  0  0  0  0  0  0  0
  186.1932   21.8934   48.9472 H   0  0  0  0  0  0  0  0  0  0  0  0
  186.9857   23.5054   48.9472 H   0  0  0  0  0  0  0  0  0  0  0  0
  186.2159   22.5336   46.7057 H   0  0  0  0  0  0  0  0  0  0  0  0
  184.4874   22.7490   46.2670 H   0  0  0  0  0  0  0  0  0  0  0  0
  185.5968   24.1618   46.2670 H   0  0  0  0  0  0  0  0  0  0  0  0
  184.1930   21.0081   48.9361 H   0  0  0  0  0  0  0  0  0  0  0  0
  181.8501   20.3322   49.3992 H   0  0  0  0  0  0  0  0  0  0  0  0
  177.4722   21.1490   45.9824 H   0  0  0  0  0  0  0  0  0  0  0  0
  175.0658   20.4840   45.9939 H   0  0  0  0  0  0  0  0  0  0  0  0
  173.8420   20.2579   48.1576 H   0  0  0  0  0  0  0  0  0  0  0  0
  173.9090   20.8190   50.4930 H   0  0  0  0  0  0  0  0  0  0  0  0
  179.3750   22.6770   52.2730 H   0  0  0  0  0  0  0  0  0  0  0  0
  180.5175   24.3324   48.4993 H   0  0  0  0  0  0  0  0  0  0  0  0
  183.8857   25.6586   48.4212 H   0  0  0  0  0  0  0  0  0  0  0  0
  1  2  1  0
  2  3  1  0
  2  4  1  0
  4  5  2  0
  5  6  1  0
  6  7  2  0
  7  8  1  0
  8  9  1  0
  9 10  1  0
 10 11  2  0
 11 12  1  0
 12 13  2  0
 13 14  1  0
 14 15  1  0
 14 16  2  0
 16 17  1  0
 17 18  2  0
 17 19  1  0
 19 20  1  0
  7 21  1  0
 21 22  2  0
 22 23  1  0
 23 24  1  0
 23 25  1  0
 22  4  1  0
 19  8  2  0
 16 10  1  0
  1 26  1  0
  1 27  1  0
  1 28  1  0
  3 29  1  0
  3 30  1  0
  3 31  1  0
  5 32  1  0
  6 33  1  0
 11 34  1  0
 12 35  1  0
 13 36  1  0
 15 37  1  0
 20 38  1  0
 21 39  1  0
 23 40  1  0
M  END
>  <meeko>  (3) 
{"is_sidechain": [false], "free_energy": -7.239, "intermolecular_energy": -8.637, "internal_energy": -0.584}

$$$$
cand_034_out
     RDKit          3D

 40 42  0  0  0  0  0  0  0  0999 V2000
  171.8080   24.3070   48.9630 C   0  0  0  0  0  0  0  0  0  0  0  0
  172.7530   24.1810   50.0760 N   0  0  0  0  0  0  0  0  0  0  0  0
  172.2030   23.4670   51.2380 C   0  0  0  0  0  0  0  0  0  0  0  0
  174.0180   23.6640   49.7220 C   0  0  0  0  0  0  0  0  0  0  0  0
  174.1750   22.3860   49.1640 C   0  0  0  0  0  0  0  0  0  0  0  0
  175.4410   21.8840   48.8410 C   0  0  0  0  0  0  0  0  0  0  0  0
  176.5910   22.6450   49.0640 C   0  0  0  0  0  0  0  0  0  0  0  0
  177.9420   22.1260   48.7630 C   0  0  0  0  0  0  0  0  0  0  0  0
  178.0520   21.6220   47.4720 O   0  0  0  0  0  0  0  0  0  0  0  0
  179.2530   21.1030   47.0610 C   0  0  0  0  0  0  0  0  0  0  0  0
  179.3200   20.6180   45.7540 C   0  0  0  0  0  0  0  0  0  0  0  0
  180.5130   20.0760   45.2730 C   0  0  0  0  0  0  0  0  0  0  0  0
  181.6380   20.0180   46.0970 C   0  0  0  0  0  0  0  0  0  0  0  0
  181.5690   20.5020   47.4010 C   0  0  0  0  0  0  0  0  0  0  0  0
  182.7080   20.4150   48.1550 O   0  0  0  0  0  0  0  0  0  0  0  0
  180.3740   21.0460   47.8830 C   0  0  0  0  0  0  0  0  0  0  0  0
  180.2580   21.5640   49.2460 C   0  0  0  0  0  0  0  0  0  0  0  0
  181.2010   21.5430   50.0330 O   0  0  0  0  0  0  0  0  0  0  0  0
  178.9490   22.1230   49.6560 C   0  0  0  0  0  0  0  0  0  0  0  0
  178.8460   22.5960   50.9520 O   0  0  0  0  0  0  0  0  0  0  0  0
  176.4420   23.9160   49.6350 C   0  0  0  0  0  0  0  0  0  0  0  0
  175.1720   24.4370   49.9550 C   0  0  0  0  0  0  0  0  0  0  0  0
  175.0730   25.8100   50.5670 C   0  0  0  0  0  0  0  0  0  0  0  0
  174.5980   26.7460   49.6890 F   0  0  0  0  0  0  0  0  0  0  0  0
  176.2850   26.2890   50.9730 F   0  0  0  0  0  0  0  0  0  0  0  0
  170.7908   24.4426   49.3592 H   0  0  0  0  0  0  0  0  0  0  0  0
  172.0806   25.1767   48.3472 H   0  0  0  0  0  0  0  0  0  0  0  0
  171.8432   23.3962   48.3472 H   0  0  0  0  0  0  0  0  0  0  0  0
  172.5660   23.9382   52.1633 H   0  0  0  0  0  0  0  0  0  0  0  0
  171.1043   23.5125   51.2099 H   0  0  0  0  0  0  0  0  0  0  0  0
  172.5273   22.4163   51.2099 H   0  0  0  0  0  0  0  0  0  0  0  0
  173.2855   21.7665   48.9768 H   0  0  0  0  0  0  0  0  0  0  0  0
  175.5315   20.8777   48.4061 H   0  0  0  0  0  0  0  0  0  0  0  0
  178.4339   20.6628   45.1038 H   0  0  0  0  0  0  0  0  0  0  0  0
  180.5666   19.6940   44.2429 H   0  0  0  0  0  0  0  0  0  0  0  0
  182.5777   19.5907   45.7170 H   0  0  0  0  0  0  0  0  0  0  0  0
  182.6480   20.3510   49.0880 H   0  0  0  0  0  0  0  0  0  0  0  0
  178.7660   21.9930   51.6650 H   0  0  0  0  0  0  0  0  0  0  0  0
  177.3375   24.5216   49.8383 H   0  0  0  0  0  0  0  0  0  0  0  0
  174.3871   25.6703   51.4156 H   0  0  0  0  0  0  0  0  0  0  0  0
  1  2  1  0
  2  3  1  0
  2  4  1  0
  4  5  2  0
  5  6  1  0
  6  7  2  0
  7  8  1  0
  8  9  1  0
  9 10  1  0
 10 11  2  0
 11 12  1  0
 12 13  2  0
 13 14  1  0
 14 15  1  0
 14 16  2  0
 16 17  1  0
 17 18  2  0
 17 19  1  0
 19 20  1  0
  7 21  1  0
 21 22  2  0
 22 23  1  0
 23 24  1  0
 23 25  1  0
 22  4  1  0
 19  8  2  0
 16 10  1  0
  1 26  1  0
  1 27  1  0
  1 28  1  0
  3 29  1  0
  3 30  1  0
  3 31  1  0
  5 32  1  0
  6 33  1  0
 11 34  1  0
 12 35  1  0
 13 36  1  0
 15 37  1  0
 20 38  1  0
 21 39  1  0
 23 40  1  0
M  END
>  <meeko>  (4) 
{"is_sidechain": [false], "free_energy": -7.195, "intermolecular_energy": -8.784, "internal_energy": -0.383}

$$$$
cand_034_out
     RDKit          3D

 40 42  0  0  0  0  0  0  0  0999 V2000
  175.4720   28.2060   52.7000 C   0  0  0  0  0  0  0  0  0  0  0  0
  174.6030   27.0290   52.7970 N   0  0  0  0  0  0  0  0  0  0  0  0
  173.1690   27.3500   52.7340 C   0  0  0  0  0  0  0  0  0  0  0  0
  174.9230   25.9830   51.9050 C   0  0  0  0  0  0  0  0  0  0  0  0
  174.8540   26.1390   50.5120 C   0  0  0  0  0  0  0  0  0  0  0  0
  175.1550   25.0810   49.6470 C   0  0  0  0  0  0  0  0  0  0  0  0
  175.5350   23.8330   50.1460 C   0  0  0  0  0  0  0  0  0  0  0  0
  175.8260   22.6900   49.2550 C   0  0  0  0  0  0  0  0  0  0  0  0
  177.1650   22.6190   48.8870 O   0  0  0  0  0  0  0  0  0  0  0  0
  177.5720   21.6060   48.0560 C   0  0  0  0  0  0  0  0  0  0  0  0
  178.9260   21.5690   47.7210 C   0  0  0  0  0  0  0  0  0  0  0  0
  179.4070   20.5650   46.8780 C   0  0  0  0  0  0  0  0  0  0  0  0
  178.5350   19.6000   46.3710 C   0  0  0  0  0  0  0  0  0  0  0  0
  177.1840   19.6400   46.7060 C   0  0  0  0  0  0  0  0  0  0  0  0
  176.3850   18.6650   46.1740 O   0  0  0  0  0  0  0  0  0  0  0  0
  176.7030   20.6450   47.5500 C   0  0  0  0  0  0  0  0  0  0  0  0
  175.2920   20.7250   47.9270 C   0  0  0  0  0  0  0  0  0  0  0  0
  174.4610   19.9170   47.5160 O   0  0  0  0  0  0  0  0  0  0  0  0
  174.8850   21.8260   48.8300 C   0  0  0  0  0  0  0  0  0  0  0  0
  173.5450   21.9010   49.1660 O   0  0  0  0  0  0  0  0  0  0  0  0
  175.5920   23.6670   51.5370 C   0  0  0  0  0  0  0  0  0  0  0  0
  175.3010   24.7280   52.4190 C   0  0  0  0  0  0  0  0  0  0  0  0
  175.3780   24.4900   53.9050 C   0  0  0  0  0  0  0  0  0  0  0  0
  176.2840   23.5200   54.2380 F   0  0  0  0  0  0  0  0  0  0  0  0
  174.1920   24.0620   54.4260 F   0  0  0  0  0  0  0  0  0  0  0  0
  175.7301   28.5555   53.7106 H   0  0  0  0  0  0  0  0  0  0  0  0
  176.3915   27.9393   52.1583 H   0  0  0  0  0  0  0  0  0  0  0  0
  174.9464   29.0062   52.1583 H   0  0  0  0  0  0  0  0  0  0  0  0
  172.7682   27.4397   53.7544 H   0  0  0  0  0  0  0  0  0  0  0  0
  173.0294   28.3016   52.2002 H   0  0  0  0  0  0  0  0  0  0  0  0
  172.6370   26.5487   52.2002 H   0  0  0  0  0  0  0  0  0  0  0  0
  174.5576   27.1115   50.0921 H   0  0  0  0  0  0  0  0  0  0  0  0
  175.0915   25.2342   48.5596 H   0  0  0  0  0  0  0  0  0  0  0  0
  179.6133   22.3294   48.1203 H   0  0  0  0  0  0  0  0  0  0  0  0
  180.4742   20.5345   46.6132 H   0  0  0  0  0  0  0  0  0  0  0  0
  178.9146   18.8089   45.7076 H   0  0  0  0  0  0  0  0  0  0  0  0
  176.2150   17.8820   46.6590 H   0  0  0  0  0  0  0  0  0  0  0  0
  173.2050   22.6810   49.5590 H   0  0  0  0  0  0  0  0  0  0  0  0
  175.8702   22.6862   51.9500 H   0  0  0  0  0  0  0  0  0  0  0  0
  175.6704   25.4686   54.3135 H   0  0  0  0  0  0  0  0  0  0  0  0
  1  2  1  0
  2  3  1  0
  2  4  1  0
  4  5  2  0
  5  6  1  0
  6  7  2  0
  7  8  1  0
  8  9  1  0
  9 10  1  0
 10 11  2  0
 11 12  1  0
 12 13  2  0
 13 14  1  0
 14 15  1  0
 14 16  2  0
 16 17  1  0
 17 18  2  0
 17 19  1  0
 19 20  1  0
  7 21  1  0
 21 22  2  0
 22 23  1  0
 23 24  1  0
 23 25  1  0
 22  4  1  0
 19  8  2  0
 16 10  1  0
  1 26  1  0
  1 27  1  0
  1 28  1  0
  3 29  1  0
  3 30  1  0
  3 31  1  0
  5 32  1  0
  6 33  1  0
 11 34  1  0
 12 35  1  0
 13 36  1  0
 15 37  1  0
 20 38  1  0
 21 39  1  0
 23 40  1  0
M  END
>  <meeko>  (5) 
{"is_sidechain": [false], "free_energy": -7.154, "intermolecular_energy": -8.437, "internal_energy": -0.679}

$$$$
cand_034_out
     RDKit          3D

 40 42  0  0  0  0  0  0  0  0999 V2000
  171.0200   26.7520   51.9610 C   0  0  0  0  0  0  0  0  0  0  0  0
  171.1930   25.3120   52.1820 N   0  0  0  0  0  0  0  0  0  0  0  0
  169.9300   24.5590   52.1730 C   0  0  0  0  0  0  0  0  0  0  0  0
  172.1500   24.6970   51.3460 C   0  0  0  0  0  0  0  0  0  0  0  0
  171.9960   24.6340   49.9520 C   0  0  0  0  0  0  0  0  0  0  0  0
  172.9470   23.9990   49.1440 C   0  0  0  0  0  0  0  0  0  0  0  0
  174.0820   23.4090   49.7030 C   0  0  0  0  0  0  0  0  0  0  0  0
  175.0850   22.7030   48.8760 C   0  0  0  0  0  0  0  0  0  0  0  0
  174.6890   21.4170   48.5280 O   0  0  0  0  0  0  0  0  0  0  0  0
  175.5300   20.6480   47.7640 C   0  0  0  0  0  0  0  0  0  0  0  0
  175.0880   19.3670   47.4310 C   0  0  0  0  0  0  0  0  0  0  0  0
  175.8950   18.5320   46.6560 C   0  0  0  0  0  0  0  0  0  0  0  0
  177.1430   18.9760   46.2150 C   0  0  0  0  0  0  0  0  0  0  0  0
  177.5820   20.2550   46.5500 C   0  0  0  0  0  0  0  0  0  0  0  0
  178.8140   20.6270   46.0860 O   0  0  0  0  0  0  0  0  0  0  0  0
  176.7730   21.0910   47.3250 C   0  0  0  0  0  0  0  0  0  0  0  0
  177.1960   22.4410   47.7010 C   0  0  0  0  0  0  0  0  0  0  0  0
  178.2830   22.9010   47.3570 O   0  0  0  0  0  0  0  0  0  0  0  0
  176.2640   23.2470   48.5200 C   0  0  0  0  0  0  0  0  0  0  0  0
  176.6810   24.5160   48.8830 O   0  0  0  0  0  0  0  0  0  0  0  0
  174.2340   23.4560   51.0960 C   0  0  0  0  0  0  0  0  0  0  0  0
  173.2890   24.1010   51.9190 C   0  0  0  0  0  0  0  0  0  0  0  0
  173.5050   24.1190   53.4100 C   0  0  0  0  0  0  0  0  0  0  0  0
  174.7000   23.5630   53.7780 F   0  0  0  0  0  0  0  0  0  0  0  0
  172.5590   23.4020   54.0830 F   0  0  0  0  0  0  0  0  0  0  0  0
  170.9581   27.2670   52.9310 H   0  0  0  0  0  0  0  0  0  0  0  0
  171.8778   27.1415   51.3931 H   0  0  0  0  0  0  0  0  0  0  0  0
  170.0944   26.9272   51.3931 H   0  0  0  0  0  0  0  0  0  0  0  0
  169.6096   24.3680   53.2078 H   0  0  0  0  0  0  0  0  0  0  0  0
  169.1578   25.1443   51.6522 H   0  0  0  0  0  0  0  0  0  0  0  0
  170.0777   23.6014   51.6522 H   0  0  0  0  0  0  0  0  0  0  0  0
  171.1114   25.0922   49.4857 H   0  0  0  0  0  0  0  0  0  0  0  0
  172.7979   23.9646   48.0547 H   0  0  0  0  0  0  0  0  0  0  0  0
  174.1053   19.0157   47.7786 H   0  0  0  0  0  0  0  0  0  0  0  0
  175.5469   17.5224   46.3923 H   0  0  0  0  0  0  0  0  0  0  0  0
  177.7782   18.3174   45.6044 H   0  0  0  0  0  0  0  0  0  0  0  0
  179.5660   20.5540   46.6420 H   0  0  0  0  0  0  0  0  0  0  0  0
  176.0760   25.1110   49.2800 H   0  0  0  0  0  0  0  0  0  0  0  0
  175.1110   22.9784   51.5572 H   0  0  0  0  0  0  0  0  0  0  0  0
  173.4635   25.1876   53.6676 H   0  0  0  0  0  0  0  0  0  0  0  0
  1  2  1  0
  2  3  1  0
  2  4  1  0
  4  5  2  0
  5  6  1  0
  6  7  2  0
  7  8  1  0
  8  9  1  0
  9 10  1  0
 10 11  2  0
 11 12  1  0
 12 13  2  0
 13 14  1  0
 14 15  1  0
 14 16  2  0
 16 17  1  0
 17 18  2  0
 17 19  1  0
 19 20  1  0
  7 21  1  0
 21 22  2  0
 22 23  1  0
 23 24  1  0
 23 25  1  0
 22  4  1  0
 19  8  2  0
 16 10  1  0
  1 26  1  0
  1 27  1  0
  1 28  1  0
  3 29  1  0
  3 30  1  0
  3 31  1  0
  5 32  1  0
  6 33  1  0
 11 34  1  0
 12 35  1  0
 13 36  1  0
 15 37  1  0
 20 38  1  0
 21 39  1  0
 23 40  1  0
M  END
>  <meeko>  (6) 
{"is_sidechain": [false], "free_energy": -7.149, "intermolecular_energy": -8.503, "internal_energy": -0.607}

$$$$
cand_034_out
     RDKit          3D

 40 42  0  0  0  0  0  0  0  0999 V2000
  171.8680   25.4460   53.8750 C   0  0  0  0  0  0  0  0  0  0  0  0
  172.6190   26.1670   52.8430 N   0  0  0  0  0  0  0  0  0  0  0  0
  173.4800   27.2330   53.3770 C   0  0  0  0  0  0  0  0  0  0  0  0
  173.3380   25.3420   51.9500 C   0  0  0  0  0  0  0  0  0  0  0  0
  174.3400   24.4620   52.3870 C   0  0  0  0  0  0  0  0  0  0  0  0
  175.0550   23.6690   51.4810 C   0  0  0  0  0  0  0  0  0  0  0  0
  174.7910   23.7310   50.1110 C   0  0  0  0  0  0  0  0  0  0  0  0
  175.5540   22.9290   49.1300 C   0  0  0  0  0  0  0  0  0  0  0  0
  174.9660   21.6980   48.8650 O   0  0  0  0  0  0  0  0  0  0  0  0
  175.5740   20.8500   47.9750 C   0  0  0  0  0  0  0  0  0  0  0  0
  174.9430   19.6290   47.7320 C   0  0  0  0  0  0  0  0  0  0  0  0
  175.5090   18.7180   46.8370 C   0  0  0  0  0  0  0  0  0  0  0  0
  176.7050   19.0280   46.1870 C   0  0  0  0  0  0  0  0  0  0  0  0
  177.3330   20.2460   46.4320 C   0  0  0  0  0  0  0  0  0  0  0  0
  178.5020   20.4860   45.7620 O   0  0  0  0  0  0  0  0  0  0  0  0
  176.7650   21.1580   47.3270 C   0  0  0  0  0  0  0  0  0  0  0  0
  177.3920   22.4490   47.6140 C   0  0  0  0  0  0  0  0  0  0  0  0
  178.4480   22.7910   47.0870 O   0  0  0  0  0  0  0  0  0  0  0  0
  176.7080   23.3440   48.5750 C   0  0  0  0  0  0  0  0  0  0  0  0
  177.3180   24.5540   48.8510 O   0  0  0  0  0  0  0  0  0  0  0  0
  173.8010   24.6200   49.6680 C   0  0  0  0  0  0  0  0  0  0  0  0
  173.0670   25.4150   50.5700 C   0  0  0  0  0  0  0  0  0  0  0  0
  172.0160   26.3530   50.0360 C   0  0  0  0  0  0  0  0  0  0  0  0
  171.4720   25.9200   48.8570 F   0  0  0  0  0  0  0  0  0  0  0  0
  172.5140   27.5940   49.7620 F   0  0  0  0  0  0  0  0  0  0  0  0
  172.2068   25.7713   54.8697 H   0  0  0  0  0  0  0  0  0  0  0  0
  170.7948   25.6607   53.7649 H   0  0  0  0  0  0  0  0  0  0  0  0
  172.0388   24.3649   53.7649 H   0  0  0  0  0  0  0  0  0  0  0  0
  173.4580   27.2058   54.4764 H   0  0  0  0  0  0  0  0  0  0  0  0
  174.5117   27.0809   53.0270 H   0  0  0  0  0  0  0  0  0  0  0  0
  173.1143   28.2096   53.0270 H   0  0  0  0  0  0  0  0  0  0  0  0
  174.5679   24.3939   53.4610 H   0  0  0  0  0  0  0  0  0  0  0  0
  175.8348   22.9883   51.8532 H   0  0  0  0  0  0  0  0  0  0  0  0
  174.0010   19.3844   48.2447 H   0  0  0  0  0  0  0  0  0  0  0  0
  175.0120   17.7558   46.6443 H   0  0  0  0  0  0  0  0  0  0  0  0
  177.1506   18.3107   45.4821 H   0  0  0  0  0  0  0  0  0  0  0  0
  179.2930   20.6390   46.2400 H   0  0  0  0  0  0  0  0  0  0  0  0
  177.7060   24.7010   49.6910 H   0  0  0  0  0  0  0  0  0  0  0  0
  173.5927   24.6984   48.5907 H   0  0  0  0  0  0  0  0  0  0  0  0
  171.2631   26.3867   50.8372 H   0  0  0  0  0  0  0  0  0  0  0  0
  1  2  1  0
  2  3  1  0
  2  4  1  0
  4  5  2  0
  5  6  1  0
  6  7  2  0
  7  8  1  0
  8  9  1  0
  9 10  1  0
 10 11  2  0
 11 12  1  0
 12 13  2  0
 13 14  1  0
 14 15  1  0
 14 16  2  0
 16 17  1  0
 17 18  2  0
 17 19  1  0
 19 20  1  0
  7 21  1  0
 21 22  2  0
 22 23  1  0
 23 24  1  0
 23 25  1  0
 22  4  1  0
 19  8  2  0
 16 10  1  0
  1 26  1  0
  1 27  1  0
  1 28  1  0
  3 29  1  0
  3 30  1  0
  3 31  1  0
  5 32  1  0
  6 33  1  0
 11 34  1  0
 12 35  1  0
 13 36  1  0
 15 37  1  0
 20 38  1  0
 21 39  1  0
 23 40  1  0
M  END
>  <meeko>  (7) 
{"is_sidechain": [false], "free_energy": -7.114, "intermolecular_energy": -8.387, "internal_energy": -0.68}

$$$$
cand_034_out
     RDKit          3D

 40 42  0  0  0  0  0  0  0  0999 V2000
  172.0360   25.9470   51.6390 C   0  0  0  0  0  0  0  0  0  0  0  0
  172.3770   24.5970   52.0970 N   0  0  0  0  0  0  0  0  0  0  0  0
  171.2040   23.7670   52.4100 C   0  0  0  0  0  0  0  0  0  0  0  0
  173.2770   23.8990   51.2620 C   0  0  0  0  0  0  0  0  0  0  0  0
  172.9370   23.5070   49.9580 C   0  0  0  0  0  0  0  0  0  0  0  0
  173.8370   22.7970   49.1550 C   0  0  0  0  0  0  0  0  0  0  0  0
  175.1050   22.4560   49.6290 C   0  0  0  0  0  0  0  0  0  0  0  0
  176.0630   21.6780   48.8140 C   0  0  0  0  0  0  0  0  0  0  0  0
  177.3170   22.2720   48.7400 O   0  0  0  0  0  0  0  0  0  0  0  0
  178.3010   21.6570   48.0090 C   0  0  0  0  0  0  0  0  0  0  0  0
  179.5470   22.2840   47.9710 C   0  0  0  0  0  0  0  0  0  0  0  0
  180.5930   21.7110   47.2450 C   0  0  0  0  0  0  0  0  0  0  0  0
  180.3930   20.5130   46.5570 C   0  0  0  0  0  0  0  0  0  0  0  0
  179.1480   19.8890   46.5960 C   0  0  0  0  0  0  0  0  0  0  0  0
  179.0210   18.7180   45.8990 O   0  0  0  0  0  0  0  0  0  0  0  0
  178.1020   20.4630   47.3240 C   0  0  0  0  0  0  0  0  0  0  0  0
  176.7780   19.8420   47.3910 C   0  0  0  0  0  0  0  0  0  0  0  0
  176.5220   18.7910   46.8070 O   0  0  0  0  0  0  0  0  0  0  0  0
  175.7400   20.5280   48.1920 C   0  0  0  0  0  0  0  0  0  0  0  0
  174.4880   19.9410   48.2350 O   0  0  0  0  0  0  0  0  0  0  0  0
  175.4450   22.8330   50.9360 C   0  0  0  0  0  0  0  0  0  0  0  0
  174.5520   23.5570   51.7510 C   0  0  0  0  0  0  0  0  0  0  0  0
  174.9720   23.9340   53.1480 C   0  0  0  0  0  0  0  0  0  0  0  0
  175.3810   25.2360   53.2430 F   0  0  0  0  0  0  0  0  0  0  0  0
  176.0320   23.1970   53.5910 F   0  0  0  0  0  0  0  0  0  0  0  0
  171.8713   26.5989   52.5096 H   0  0  0  0  0  0  0  0  0  0  0  0
  172.8612   26.3476   51.0318 H   0  0  0  0  0  0  0  0  0  0  0  0
  171.1196   25.9077   51.0318 H   0  0  0  0  0  0  0  0  0  0  0  0
  171.0917   23.6876   53.5014 H   0  0  0  0  0  0  0  0  0  0  0  0
  170.3027   24.2295   51.9814 H   0  0  0  0  0  0  0  0  0  0  0  0
  171.3402   22.7631   51.9814 H   0  0  0  0  0  0  0  0  0  0  0  0
  171.9441   23.7627   49.5594 H   0  0  0  0  0  0  0  0  0  0  0  0
  173.5413   22.5038   48.1369 H   0  0  0  0  0  0  0  0  0  0  0  0
  179.7050   23.2285   48.5123 H   0  0  0  0  0  0  0  0  0  0  0  0
  181.5758   22.2042   47.2152 H   0  0  0  0  0  0  0  0  0  0  0  0
  181.2173   20.0623   45.9848 H   0  0  0  0  0  0  0  0  0  0  0  0
  178.6410   18.7220   45.0430 H   0  0  0  0  0  0  0  0  0  0  0  0
  174.1400   19.5260   47.4710 H   0  0  0  0  0  0  0  0  0  0  0  0
  176.4324   22.5570   51.3347 H   0  0  0  0  0  0  0  0  0  0  0  0
  174.0705   23.7512   53.7512 H   0  0  0  0  0  0  0  0  0  0  0  0
  1  2  1  0
  2  3  1  0
  2  4  1  0
  4  5  2  0
  5  6  1  0
  6  7  2  0
  7  8  1  0
  8  9  1  0
  9 10  1  0
 10 11  2  0
 11 12  1  0
 12 13  2  0
 13 14  1  0
 14 15  1  0
 14 16  2  0
 16 17  1  0
 17 18  2  0
 17 19  1  0
 19 20  1  0
  7 21  1  0
 21 22  2  0
 22 23  1  0
 23 24  1  0
 23 25  1  0
 22  4  1  0
 19  8  2  0
 16 10  1  0
  1 26  1  0
  1 27  1  0
  1 28  1  0
  3 29  1  0
  3 30  1  0
  3 31  1  0
  5 32  1  0
  6 33  1  0
 11 34  1  0
 12 35  1  0
 13 36  1  0
 15 37  1  0
 20 38  1  0
 21 39  1  0
 23 40  1  0
M  END
>  <meeko>  (8) 
{"is_sidechain": [false], "free_energy": -7.052, "intermolecular_energy": -8.561, "internal_energy": -0.429}

$$$$
cand_034_out
     RDKit          3D

 40 42  0  0  0  0  0  0  0  0999 V2000
  175.0090   26.9860   53.9130 C   0  0  0  0  0  0  0  0  0  0  0  0
  175.4570   27.2340   52.5380 N   0  0  0  0  0  0  0  0  0  0  0  0
  176.6550   28.0810   52.4530 C   0  0  0  0  0  0  0  0  0  0  0  0
  175.6050   26.0740   51.7470 C   0  0  0  0  0  0  0  0  0  0  0  0
  176.6070   25.1220   51.9950 C   0  0  0  0  0  0  0  0  0  0  0  0
  176.7500   23.9900   51.1830 C   0  0  0  0  0  0  0  0  0  0  0  0
  175.8960   23.7730   50.1000 C   0  0  0  0  0  0  0  0  0  0  0  0
  176.0460   22.6040   49.2070 C   0  0  0  0  0  0  0  0  0  0  0  0
  177.3320   22.4770   48.6950 O   0  0  0  0  0  0  0  0  0  0  0  0
  177.6090   21.4350   47.8480 C   0  0  0  0  0  0  0  0  0  0  0  0
  178.9150   21.3410   47.3650 C   0  0  0  0  0  0  0  0  0  0  0  0
  179.2650   20.3050   46.4970 C   0  0  0  0  0  0  0  0  0  0  0  0
  178.3090   19.3630   46.1110 C   0  0  0  0  0  0  0  0  0  0  0  0
  177.0050   19.4590   46.5930 C   0  0  0  0  0  0  0  0  0  0  0  0
  176.1190   18.5050   46.1740 O   0  0  0  0  0  0  0  0  0  0  0  0
  176.6570   20.4970   47.4630 C   0  0  0  0  0  0  0  0  0  0  0  0
  175.2990   20.6360   47.9910 C   0  0  0  0  0  0  0  0  0  0  0  0
  174.4010   19.8520   47.6930 O   0  0  0  0  0  0  0  0  0  0  0  0
  175.0340   21.7680   48.9090 C   0  0  0  0  0  0  0  0  0  0  0  0
  173.7440   21.8990   49.3900 O   0  0  0  0  0  0  0  0  0  0  0  0
  174.9030   24.7280   49.8390 C   0  0  0  0  0  0  0  0  0  0  0  0
  174.7420   25.8670   50.6540 C   0  0  0  0  0  0  0  0  0  0  0  0
  173.6580   26.8590   50.3250 C   0  0  0  0  0  0  0  0  0  0  0  0
  172.6750   26.3260   49.5360 F   0  0  0  0  0  0  0  0  0  0  0  0
  174.1280   27.9330   49.6270 F   0  0  0  0  0  0  0  0  0  0  0  0
  175.7473   27.3947   54.6185 H   0  0  0  0  0  0  0  0  0  0  0  0
  174.0369   27.4745   54.0756 H   0  0  0  0  0  0  0  0  0  0  0  0
  174.9069   25.9029   54.0756 H   0  0  0  0  0  0  0  0  0  0  0  0
  177.0029   28.3269   53.4671 H   0  0  0  0  0  0  0  0  0  0  0  0
  177.4479   27.5416   51.9141 H   0  0  0  0  0  0  0  0  0  0  0  0
  176.4109   29.0084   51.9141 H   0  0  0  0  0  0  0  0  0  0  0  0
  177.2924   25.2681   52.8429 H   0  0  0  0  0  0  0  0  0  0  0  0
  177.5455   23.2623   51.4013 H   0  0  0  0  0  0  0  0  0  0  0  0
  179.6684   22.0830   47.6681 H   0  0  0  0  0  0  0  0  0  0  0  0
  180.2946   20.2307   46.1169 H   0  0  0  0  0  0  0  0  0  0  0  0
  178.5849   18.5465   45.4275 H   0  0  0  0  0  0  0  0  0  0  0  0
  175.6110   18.0300   46.8020 H   0  0  0  0  0  0  0  0  0  0  0  0
  173.1580   21.1680   49.3620 H   0  0  0  0  0  0  0  0  0  0  0  0
  174.2337   24.5850   48.9778 H   0  0  0  0  0  0  0  0  0  0  0  0
  173.2662   27.1546   51.3094 H   0  0  0  0  0  0  0  0  0  0  0  0
  1  2  1  0
  2  3  1  0
  2  4  1  0
  4  5  2  0
  5  6  1  0
  6  7  2  0
  7  8  1  0
  8  9  1  0
  9 10  1  0
 10 11  2  0
 11 12  1  0
 12 13  2  0
 13 14  1  0
 14 15  1  0
 14 16  2  0
 16 17  1  0
 17 18  2  0
 17 19  1  0
 19 20  1  0
  7 21  1  0
 21 22  2  0
 22 23  1  0
 23 24  1  0
 23 25  1  0
 22  4  1  0
 19  8  2  0
 16 10  1  0
  1 26  1  0
  1 27  1  0
  1 28  1  0
  3 29  1  0
  3 30  1  0
  3 31  1  0
  5 32  1  0
  6 33  1  0
 11 34  1  0
 12 35  1  0
 13 36  1  0
 15 37  1  0
 20 38  1  0
 21 39  1  0
 23 40  1  0
M  END
>  <meeko>  (9) 
{"is_sidechain": [false], "free_energy": -7.032, "intermolecular_energy": -8.531, "internal_energy": -0.434}

$$$$
