cand_010_out
     RDKit          3D

 35 37  0  0  0  0  0  0  0  0999 V2000
  179.6290   21.8350   48.4230 O   0  0  0  0  0  0  0  0  0  0  0  0
  179.1010   20.9460   47.7580 C   0  0  0  0  0  0  0  0  0  0  0  0
  179.9260   20.0340   46.9330 C   0  0  0  0  0  0  0  0  0  0  0  0
  181.2960   20.2230   46.9620 O   0  0  0  0  0  0  0  0  0  0  0  0
  179.3080   19.0720   46.2230 C   0  0  0  0  0  0  0  0  0  0  0  0
  180.0320   18.1000   45.3760 C   0  0  0  0  0  0  0  0  0  0  0  0
  180.9590   18.5110   44.4140 C   0  0  0  0  0  0  0  0  0  0  0  0
  181.6130   17.5770   43.6050 C   0  0  0  0  0  0  0  0  0  0  0  0
  181.3490   16.2050   43.7310 C   0  0  0  0  0  0  0  0  0  0  0  0
  182.0820   15.2260   42.8430 C   0  0  0  0  0  0  0  0  0  0  0  0
  181.6690   15.2630   41.5430 F   0  0  0  0  0  0  0  0  0  0  0  0
  180.4140   15.7720   44.6960 C   0  0  0  0  0  0  0  0  0  0  0  0
  180.0890   14.3060   44.8730 C   0  0  0  0  0  0  0  0  0  0  0  0
  179.9280   13.6300   43.7010 F   0  0  0  0  0  0  0  0  0  0  0  0
  181.0610   13.6400   45.5560 F   0  0  0  0  0  0  0  0  0  0  0  0
  178.9390   14.1090   45.5750 F   0  0  0  0  0  0  0  0  0  0  0  0
  179.7620   16.7290   45.5000 C   0  0  0  0  0  0  0  0  0  0  0  0
  177.9330   18.8700   46.2230 O   0  0  0  0  0  0  0  0  0  0  0  0
  177.1410   19.7050   46.9700 C   0  0  0  0  0  0  0  0  0  0  0  0
  175.7650   19.4760   46.9300 C   0  0  0  0  0  0  0  0  0  0  0  0
  174.9020   20.2880   47.6690 C   0  0  0  0  0  0  0  0  0  0  0  0
  175.4150   21.3290   48.4460 C   0  0  0  0  0  0  0  0  0  0  0  0
  176.7880   21.5560   48.4840 C   0  0  0  0  0  0  0  0  0  0  0  0
  177.2220   22.5900   49.2670 O   0  0  0  0  0  0  0  0  0  0  0  0
  177.6510   20.7420   47.7450 C   0  0  0  0  0  0  0  0  0  0  0  0
  181.6640   21.0300   46.6580 H   0  0  0  0  0  0  0  0  0  0  0  0
  181.1766   19.5823   44.2920 H   0  0  0  0  0  0  0  0  0  0  0  0
  182.3444   17.9226   42.8596 H   0  0  0  0  0  0  0  0  0  0  0  0
  183.1559   15.4619   42.8751 H   0  0  0  0  0  0  0  0  0  0  0  0
  181.8679   14.2167   43.2244 H   0  0  0  0  0  0  0  0  0  0  0  0
  179.0236   16.3925   46.2426 H   0  0  0  0  0  0  0  0  0  0  0  0
  175.3606   18.6569   46.3171 H   0  0  0  0  0  0  0  0  0  0  0  0
  173.8173   20.1075   47.6391 H   0  0  0  0  0  0  0  0  0  0  0  0
  174.7349   21.9689   49.0274 H   0  0  0  0  0  0  0  0  0  0  0  0
  177.7870   22.4210   49.9960 H   0  0  0  0  0  0  0  0  0  0  0  0
  1  2  2  0
  2  3  1  0
  3  4  1  0
  3  5  2  0
  5  6  1  0
  6  7  2  0
  7  8  1  0
  8  9  2  0
  9 10  1  0
 10 11  1  0
  9 12  1  0
 12 13  1  0
 13 14  1  0
 13 15  1  0
 13 16  1  0
 12 17  2  0
  5 18  1  0
 18 19  1  0
 19 20  2  0
 20 21  1  0
 21 22  2  0
 22 23  1  0
 23 24  1  0
 23 25  2  0
 25  2  1  0
 17  6  1  0
 25 19  1  0
  4 26  1  0
  7 27  1  0
  8 28  1  0
 10 29  1  0
 10 30  1  0
 17 31  1  0
 20 32  1  0
 21 33  1  0
 22 34  1  0
 24 35  1  0
M  END
>  <meeko>  (1) 
{"is_sidechain": [false], "free_energy": -8.458, "intermolecular_energy": -10.436, "internal_energy": -0.193}

$$$$
cand_010_out
     RDKit          3D

 35 37  0  0  0  0  0  0  0  0999 V2000
  182.5410   18.1440   43.6540 O   0  0  0  0  0  0  0  0  0  0  0  0
  181.5360   17.8710   44.3090 C   0  0  0  0  0  0  0  0  0  0  0  0
  180.8530   18.9160   45.1070 C   0  0  0  0  0  0  0  0  0  0  0  0
  181.3860   20.1910   45.0640 O   0  0  0  0  0  0  0  0  0  0  0  0
  179.7550   18.5750   45.8060 C   0  0  0  0  0  0  0  0  0  0  0  0
  178.9880   19.5370   46.6260 C   0  0  0  0  0  0  0  0  0  0  0  0
  179.6210   20.5320   47.3770 C   0  0  0  0  0  0  0  0  0  0  0  0
  178.8780   21.4140   48.1670 C   0  0  0  0  0  0  0  0  0  0  0  0
  177.4800   21.3190   48.2350 C   0  0  0  0  0  0  0  0  0  0  0  0
  176.7130   22.2970   49.0940 C   0  0  0  0  0  0  0  0  0  0  0  0
  176.3010   23.4060   48.4140 F   0  0  0  0  0  0  0  0  0  0  0  0
  176.8240   20.3180   47.4850 C   0  0  0  0  0  0  0  0  0  0  0  0
  175.3200   20.1680   47.5230 C   0  0  0  0  0  0  0  0  0  0  0  0
  174.8070   20.0620   48.7800 F   0  0  0  0  0  0  0  0  0  0  0  0
  174.6810   21.2230   46.9470 F   0  0  0  0  0  0  0  0  0  0  0  0
  174.8910   19.0630   46.8520 F   0  0  0  0  0  0  0  0  0  0  0  0
  177.5910   19.4350   46.6960 C   0  0  0  0  0  0  0  0  0  0  0  0
  179.2090   17.2970   45.8190 O   0  0  0  0  0  0  0  0  0  0  0  0
  179.8240   16.3060   45.0980 C   0  0  0  0  0  0  0  0  0  0  0  0
  179.2510   15.0360   45.1500 C   0  0  0  0  0  0  0  0  0  0  0  0
  179.8270   13.9820   44.4370 C   0  0  0  0  0  0  0  0  0  0  0  0
  180.9750   14.1990   43.6720 C   0  0  0  0  0  0  0  0  0  0  0  0
  181.5460   15.4680   43.6220 C   0  0  0  0  0  0  0  0  0  0  0  0
  182.6680   15.6110   42.8530 O   0  0  0  0  0  0  0  0  0  0  0  0
  180.9690   16.5220   44.3350 C   0  0  0  0  0  0  0  0  0  0  0  0
  181.3420   20.6910   44.2720 H   0  0  0  0  0  0  0  0  0  0  0  0
  180.7169   20.6219   47.3458 H   0  0  0  0  0  0  0  0  0  0  0  0
  179.3970   22.1938   48.7437 H   0  0  0  0  0  0  0  0  0  0  0  0
  175.8266   21.7861   49.4981 H   0  0  0  0  0  0  0  0  0  0  0  0
  177.3942   22.6365   49.8881 H   0  0  0  0  0  0  0  0  0  0  0  0
  177.0809   18.6475   46.1218 H   0  0  0  0  0  0  0  0  0  0  0  0
  178.3464   14.8643   45.7518 H   0  0  0  0  0  0  0  0  0  0  0  0
  179.3757   12.9797   44.4781 H   0  0  0  0  0  0  0  0  0  0  0  0
  181.4275   13.3688   43.1098 H   0  0  0  0  0  0  0  0  0  0  0  0
  182.6850   15.2670   41.9810 H   0  0  0  0  0  0  0  0  0  0  0  0
  1  2  2  0
  2  3  1  0
  3  4  1  0
  3  5  2  0
  5  6  1  0
  6  7  2  0
  7  8  1  0
  8  9  2  0
  9 10  1  0
 10 11  1  0
  9 12  1  0
 12 13  1  0
 13 14  1  0
 13 15  1  0
 13 16  1  0
 12 17  2  0
  5 18  1  0
 18 19  1  0
 19 20  2  0
 20 21  1  0
 21 22  2  0
 22 23  1  0
 23 24  1  0
 23 25  2  0
 25  2  1  0
 17  6  1  0
 25 19  1  0
  4 26  1  0
  7 27  1  0
  8 28  1  0
 10 29  1  0
 10 30  1  0
 17 31  1  0
 20 32  1  0
 21 33  1  0
 22 34  1  0
 24 35  1  0
M  END
>  <meeko>  (2) 
{"is_sidechain": [false], "free_energy": -7.871, "intermolecular_energy": -9.745, "internal_energy": -0.16}

$$$$
cand_010_out
     RDKit          3D

 35 37  0  0  0  0  0  0  0  0999 V2000
  176.6850   22.4480   53.1940 O   0  0  0  0  0  0  0  0  0  0  0  0
  176.7110   22.6630   51.9830 C   0  0  0  0  0  0  0  0  0  0  0  0
  177.8830   22.2570   51.1740 C   0  0  0  0  0  0  0  0  0  0  0  0
  178.9190   21.6240   51.8360 O   0  0  0  0  0  0  0  0  0  0  0  0
  177.8680   22.5080   49.8520 C   0  0  0  0  0  0  0  0  0  0  0  0
  178.9770   22.1380   48.9460 C   0  0  0  0  0  0  0  0  0  0  0  0
  180.2020   22.8110   48.9700 C   0  0  0  0  0  0  0  0  0  0  0  0
  181.2280   22.4620   48.0870 C   0  0  0  0  0  0  0  0  0  0  0  0
  181.0520   21.4350   47.1470 C   0  0  0  0  0  0  0  0  0  0  0  0
  182.1880   21.0830   46.2150 C   0  0  0  0  0  0  0  0  0  0  0  0
  183.0870   22.0960   46.0520 F   0  0  0  0  0  0  0  0  0  0  0  0
  179.8200   20.7460   47.1070 C   0  0  0  0  0  0  0  0  0  0  0  0
  179.5740   19.6330   46.1130 C   0  0  0  0  0  0  0  0  0  0  0  0
  180.4440   18.5900   46.2260 F   0  0  0  0  0  0  0  0  0  0  0  0
  178.3300   19.0950   46.2380 F   0  0  0  0  0  0  0  0  0  0  0  0
  179.6690   20.0570   44.8230 F   0  0  0  0  0  0  0  0  0  0  0  0
  178.7960   21.1150   48.0040 C   0  0  0  0  0  0  0  0  0  0  0  0
  176.8100   23.1180   49.1890 O   0  0  0  0  0  0  0  0  0  0  0  0
  175.7140   23.5130   49.9140 C   0  0  0  0  0  0  0  0  0  0  0  0
  174.6810   24.1340   49.2110 C   0  0  0  0  0  0  0  0  0  0  0  0
  173.5360   24.5590   49.8890 C   0  0  0  0  0  0  0  0  0  0  0  0
  173.4250   24.3640   51.2670 C   0  0  0  0  0  0  0  0  0  0  0  0
  174.4570   23.7440   51.9660 C   0  0  0  0  0  0  0  0  0  0  0  0
  174.2820   23.5830   53.3130 O   0  0  0  0  0  0  0  0  0  0  0  0
  175.6030   23.3190   51.2880 C   0  0  0  0  0  0  0  0  0  0  0  0
  179.3570   20.8990   51.4350 H   0  0  0  0  0  0  0  0  0  0  0  0
  180.3605   23.6251   49.6925 H   0  0  0  0  0  0  0  0  0  0  0  0
  182.1866   22.9999   48.1296 H   0  0  0  0  0  0  0  0  0  0  0  0
  182.7169   20.2095   46.6239 H   0  0  0  0  0  0  0  0  0  0  0  0
  181.7475   20.8770   45.2283 H   0  0  0  0  0  0  0  0  0  0  0  0
  177.8317   20.5874   47.9637 H   0  0  0  0  0  0  0  0  0  0  0  0
  174.7681   24.2885   48.1254 H   0  0  0  0  0  0  0  0  0  0  0  0
  172.7204   25.0481   49.3362 H   0  0  0  0  0  0  0  0  0  0  0  0
  172.5231   24.6999   51.7998 H   0  0  0  0  0  0  0  0  0  0  0  0
  174.7700   22.9280   53.7730 H   0  0  0  0  0  0  0  0  0  0  0  0
  1  2  2  0
  2  3  1  0
  3  4  1  0
  3  5  2  0
  5  6  1  0
  6  7  2  0
  7  8  1  0
  8  9  2  0
  9 10  1  0
 10 11  1  0
  9 12  1  0
 12 13  1  0
 13 14  1  0
 13 15  1  0
 13 16  1  0
 12 17  2  0
  5 18  1  0
 18 19  1  0
 19 20  2  0
 20 21  1  0
 21 22  2  0
 22 23  1  0
 23 24  1  0
 23 25  2  0
 25  2  1  0
 17  6  1  0
 25 19  1  0
  4 26  1  0
  7 27  1  0
  8 28  1  0
 10 29  1  0
 10 30  1  0
 17 31  1  0
 20 32  1  0
 21 33  1  0
 22 34  1  0
 24 35  1  0
M  END
>  <meeko>  (3) 
{"is_sidechain": [false], "free_energy": -7.767, "intermolecular_energy": -9.382, "internal_energy": -0.395}

$$$$
cand_010_out
     RDKit          3D

 35 37  0  0  0  0  0  0  0  0999 V2000
  176.3220   23.2760   53.8750 O   0  0  0  0  0  0  0  0  0  0  0  0
  176.0730   23.4710   52.6860 C   0  0  0  0  0  0  0  0  0  0  0  0
  176.2780   22.3950   51.6900 C   0  0  0  0  0  0  0  0  0  0  0  0
  176.7410   21.1790   52.1600 O   0  0  0  0  0  0  0  0  0  0  0  0
  175.9900   22.6490   50.4000 C   0  0  0  0  0  0  0  0  0  0  0  0
  176.1460   21.6480   49.3240 C   0  0  0  0  0  0  0  0  0  0  0  0
  175.1770   20.6680   49.0850 C   0  0  0  0  0  0  0  0  0  0  0  0
  175.3570   19.7140   48.0790 C   0  0  0  0  0  0  0  0  0  0  0  0
  176.5160   19.7080   47.2890 C   0  0  0  0  0  0  0  0  0  0  0  0
  176.6700   18.6650   46.2070 C   0  0  0  0  0  0  0  0  0  0  0  0
  175.6610   17.7450   46.1980 F   0  0  0  0  0  0  0  0  0  0  0  0
  177.5070   20.6890   47.5180 C   0  0  0  0  0  0  0  0  0  0  0  0
  178.7770   20.7280   46.6990 C   0  0  0  0  0  0  0  0  0  0  0  0
  178.5660   20.7560   45.3540 F   0  0  0  0  0  0  0  0  0  0  0  0
  179.5380   21.8220   46.9790 F   0  0  0  0  0  0  0  0  0  0  0  0
  179.5770   19.6510   46.9280 F   0  0  0  0  0  0  0  0  0  0  0  0
  177.3090   21.6410   48.5400 C   0  0  0  0  0  0  0  0  0  0  0  0
  175.4970   23.8650   49.9410 O   0  0  0  0  0  0  0  0  0  0  0  0
  175.3050   24.8840   50.8380 C   0  0  0  0  0  0  0  0  0  0  0  0
  174.8220   26.0910   50.3320 C   0  0  0  0  0  0  0  0  0  0  0  0
  174.6030   27.1690   51.1930 C   0  0  0  0  0  0  0  0  0  0  0  0
  174.8670   27.0390   52.5580 C   0  0  0  0  0  0  0  0  0  0  0  0
  175.3490   25.8340   53.0610 C   0  0  0  0  0  0  0  0  0  0  0  0
  175.5850   25.7760   54.4070 O   0  0  0  0  0  0  0  0  0  0  0  0
  175.5680   24.7550   52.1990 C   0  0  0  0  0  0  0  0  0  0  0  0
  177.1360   21.1250   53.0090 H   0  0  0  0  0  0  0  0  0  0  0  0
  174.2624   20.6477   49.6959 H   0  0  0  0  0  0  0  0  0  0  0  0
  174.5783   18.9570   47.9044 H   0  0  0  0  0  0  0  0  0  0  0  0
  176.6881   19.1733   45.2317 H   0  0  0  0  0  0  0  0  0  0  0  0
  177.6052   18.1219   46.4078 H   0  0  0  0  0  0  0  0  0  0  0  0
  178.0862   22.3968   48.7267 H   0  0  0  0  0  0  0  0  0  0  0  0
  174.6140   26.1937   49.2567 H   0  0  0  0  0  0  0  0  0  0  0  0
  174.2222   28.1213   50.7953 H   0  0  0  0  0  0  0  0  0  0  0  0
  174.6942   27.8883   53.2353 H   0  0  0  0  0  0  0  0  0  0  0  0
  176.0580   25.0520   54.7680 H   0  0  0  0  0  0  0  0  0  0  0  0
  1  2  2  0
  2  3  1  0
  3  4  1  0
  3  5  2  0
  5  6  1  0
  6  7  2  0
  7  8  1  0
  8  9  2  0
  9 10  1  0
 10 11  1  0
  9 12  1  0
 12 13  1  0
 13 14  1  0
 13 15  1  0
 13 16  1  0
 12 17  2  0
  5 18  1  0
 18 19  1  0
 19 20  2  0
 20 21  1  0
 21 22  2  0
 22 23  1  0
 23 24  1  0
 23 25  2  0
 25  2  1  0
 17  6  1  0
 25 19  1  0
  4 26  1  0
  7 27  1  0
  8 28  1  0
 10 29  1  0
 10 30  1  0
 17 31  1  0
 20 32  1  0
 21 33  1  0
 22 34  1  0
 24 35  1  0
M  END
>  <meeko>  (4) 
{"is_sidechain": [false], "free_energy": -7.764, "intermolecular_energy": -9.353, "internal_energy": -0.42}

$$$$
cand_010_out
     RDKit          3D

 35 37  0  0  0  0  0  0  0  0999 V2000
  183.4790   21.9840   51.0880 O   0  0  0  0  0  0  0  0  0  0  0  0
  182.7270   22.3860   50.2020 C   0  0  0  0  0  0  0  0  0  0  0  0
  181.6590   21.5090   49.6700 C   0  0  0  0  0  0  0  0  0  0  0  0
  181.5450   20.2460   50.2220 O   0  0  0  0  0  0  0  0  0  0  0  0
  180.8550   21.9890   48.7030 C   0  0  0  0  0  0  0  0  0  0  0  0
  179.7510   21.2070   48.1070 C   0  0  0  0  0  0  0  0  0  0  0  0
  179.9840   20.2220   47.1420 C   0  0  0  0  0  0  0  0  0  0  0  0
  178.9220   19.5130   46.5720 C   0  0  0  0  0  0  0  0  0  0  0  0
  177.5960   19.7770   46.9450 C   0  0  0  0  0  0  0  0  0  0  0  0
  176.4770   18.9840   46.3110 C   0  0  0  0  0  0  0  0  0  0  0  0
  175.9170   18.0710   47.1560 F   0  0  0  0  0  0  0  0  0  0  0  0
  177.3420   20.7710   47.9160 C   0  0  0  0  0  0  0  0  0  0  0  0
  175.9320   21.0990   48.3540 C   0  0  0  0  0  0  0  0  0  0  0  0
  175.3430   20.1210   49.0970 F   0  0  0  0  0  0  0  0  0  0  0  0
  175.8770   22.2280   49.1130 F   0  0  0  0  0  0  0  0  0  0  0  0
  175.0980   21.3190   47.3000 F   0  0  0  0  0  0  0  0  0  0  0  0
  178.4250   21.4780   48.4780 C   0  0  0  0  0  0  0  0  0  0  0  0
  180.9570   23.2710   48.1740 O   0  0  0  0  0  0  0  0  0  0  0  0
  181.9430   24.1020   48.6410 C   0  0  0  0  0  0  0  0  0  0  0  0
  182.0180   25.3750   48.0730 C   0  0  0  0  0  0  0  0  0  0  0  0
  182.9980   26.2720   48.5040 C   0  0  0  0  0  0  0  0  0  0  0  0
  183.9010   25.8980   49.5000 C   0  0  0  0  0  0  0  0  0  0  0  0
  183.8240   24.6280   50.0650 C   0  0  0  0  0  0  0  0  0  0  0  0
  184.7380   24.3270   51.0380 O   0  0  0  0  0  0  0  0  0  0  0  0
  182.8430   23.7300   49.6350 C   0  0  0  0  0  0  0  0  0  0  0  0
  182.1160   19.5580   49.9400 H   0  0  0  0  0  0  0  0  0  0  0  0
  181.0150   20.0023   46.8276 H   0  0  0  0  0  0  0  0  0  0  0  0
  179.1295   18.7371   45.8203 H   0  0  0  0  0  0  0  0  0  0  0  0
  175.6939   19.6843   45.9849 H   0  0  0  0  0  0  0  0  0  0  0  0
  176.9103   18.4253   45.4683 H   0  0  0  0  0  0  0  0  0  0  0  0
  178.2257   22.2605   49.2250 H   0  0  0  0  0  0  0  0  0  0  0  0
  181.3069   25.6710   47.2877 H   0  0  0  0  0  0  0  0  0  0  0  0
  183.0581   27.2754   48.0574 H   0  0  0  0  0  0  0  0  0  0  0  0
  184.6724   26.6055   49.8381 H   0  0  0  0  0  0  0  0  0  0  0  0
  185.4780   24.8860   51.1730 H   0  0  0  0  0  0  0  0  0  0  0  0
  1  2  2  0
  2  3  1  0
  3  4  1  0
  3  5  2  0
  5  6  1  0
  6  7  2  0
  7  8  1  0
  8  9  2  0
  9 10  1  0
 10 11  1  0
  9 12  1  0
 12 13  1  0
 13 14  1  0
 13 15  1  0
 13 16  1  0
 12 17  2  0
  5 18  1  0
 18 19  1  0
 19 20  2  0
 20 21  1  0
 21 22  2  0
 22 23  1  0
 23 24  1  0
 23 25  2  0
 25  2  1  0
 17  6  1  0
 25 19  1  0
  4 26  1  0
  7 27  1  0
  8 28  1  0
 10 29  1  0
 10 30  1  0
 17 31  1  0
 20 32  1  0
 21 33  1  0
 22 34  1  0
 24 35  1  0
M  END
>  <meeko>  (5) 
{"is_sidechain": [false], "free_energy": -7.53, "intermolecular_energy": -9.0, "internal_energy": -0.484}

$$$$
cand_010_out
     RDKit          3D

 35 37  0  0  0  0  0  0  0  0999 V2000
  171.1610   23.7780   51.5710 O   0  0  0  0  0  0  0  0  0  0  0  0
  172.3810   23.6380   51.6430 C   0  0  0  0  0  0  0  0  0  0  0  0
  173.1480   23.1240   50.4850 C   0  0  0  0  0  0  0  0  0  0  0  0
  172.4360   22.8300   49.3370 O   0  0  0  0  0  0  0  0  0  0  0  0
  174.4820   22.9890   50.6060 C   0  0  0  0  0  0  0  0  0  0  0  0
  175.3470   22.4970   49.5130 C   0  0  0  0  0  0  0  0  0  0  0  0
  176.2320   23.3430   48.8380 C   0  0  0  0  0  0  0  0  0  0  0  0
  177.0220   22.8620   47.7900 C   0  0  0  0  0  0  0  0  0  0  0  0
  176.9420   21.5220   47.3810 C   0  0  0  0  0  0  0  0  0  0  0  0
  177.8180   21.0400   46.2490 C   0  0  0  0  0  0  0  0  0  0  0  0
  179.0680   21.5860   46.2630 F   0  0  0  0  0  0  0  0  0  0  0  0
  176.0510   20.6540   48.0510 C   0  0  0  0  0  0  0  0  0  0  0  0
  175.9210   19.2020   47.6510 C   0  0  0  0  0  0  0  0  0  0  0  0
  176.9500   18.7460   46.8830 F   0  0  0  0  0  0  0  0  0  0  0  0
  175.8660   18.3720   48.7290 F   0  0  0  0  0  0  0  0  0  0  0  0
  174.7880   18.9580   46.9370 F   0  0  0  0  0  0  0  0  0  0  0  0
  175.2600   21.1580   49.1040 C   0  0  0  0  0  0  0  0  0  0  0  0
  175.1930   23.3160   51.7550 O   0  0  0  0  0  0  0  0  0  0  0  0
  174.5100   23.7860   52.8460 C   0  0  0  0  0  0  0  0  0  0  0  0
  175.2610   24.0890   53.9820 C   0  0  0  0  0  0  0  0  0  0  0  0
  174.6270   24.5740   55.1280 C   0  0  0  0  0  0  0  0  0  0  0  0
  173.2430   24.7560   55.1380 C   0  0  0  0  0  0  0  0  0  0  0  0
  172.4950   24.4530   54.0040 C   0  0  0  0  0  0  0  0  0  0  0  0
  171.1440   24.6560   54.0810 O   0  0  0  0  0  0  0  0  0  0  0  0
  173.1290   23.9680   52.8570 C   0  0  0  0  0  0  0  0  0  0  0  0
  171.5100   22.9780   49.3090 H   0  0  0  0  0  0  0  0  0  0  0  0
  176.3075   24.3994   49.1351 H   0  0  0  0  0  0  0  0  0  0  0  0
  177.7168   23.5441   47.2782 H   0  0  0  0  0  0  0  0  0  0  0  0
  177.9139   19.9467   46.3231 H   0  0  0  0  0  0  0  0  0  0  0  0
  177.3372   21.3517   45.3100 H   0  0  0  0  0  0  0  0  0  0  0  0
  174.5576   20.4847   49.6172 H   0  0  0  0  0  0  0  0  0  0  0  0
  176.3516   23.9460   53.9751 H   0  0  0  0  0  0  0  0  0  0  0  0
  175.2190   24.8129   56.0238 H   0  0  0  0  0  0  0  0  0  0  0  0
  172.7443   25.1383   56.0408 H   0  0  0  0  0  0  0  0  0  0  0  0
  170.6480   24.2500   54.7650 H   0  0  0  0  0  0  0  0  0  0  0  0
  1  2  2  0
  2  3  1  0
  3  4  1  0
  3  5  2  0
  5  6  1  0
  6  7  2  0
  7  8  1  0
  8  9  2  0
  9 10  1  0
 10 11  1  0
  9 12  1  0
 12 13  1  0
 13 14  1  0
 13 15  1  0
 13 16  1  0
 12 17  2  0
  5 18  1  0
 18 19  1  0
 19 20  2  0
 20 21  1  0
 21 22  2  0
 22 23  1  0
 23 24  1  0
 23 25  2  0
 25  2  1  0
 17  6  1  0
 25 19  1  0
  4 26  1  0
  7 27  1  0
  8 28  1  0
 10 29  1  0
 10 30  1  0
 17 31  1  0
 20 32  1  0
 21 33  1  0
 22 34  1  0
 24 35  1  0
M  END
>  <meeko>  (6) 
{"is_sidechain": [false], "free_energy": -7.437, "intermolecular_energy": -9.431, "internal_energy": 0.061}

$$$$
cand_010_out
     RDKit          3D

 35 37  0  0  0  0  0  0  0  0999 V2000
  176.5420   22.9330   53.3140 O   0  0  0  0  0  0  0  0  0  0  0  0
  176.3140   22.9720   52.1060 C   0  0  0  0  0  0  0  0  0  0  0  0
  177.1510   22.2000   51.1580 C   0  0  0  0  0  0  0  0  0  0  0  0
  178.1730   21.4380   51.6950 O   0  0  0  0  0  0  0  0  0  0  0  0
  176.8640   22.2680   49.8450 C   0  0  0  0  0  0  0  0  0  0  0  0
  177.6240   21.5330   48.8120 C   0  0  0  0  0  0  0  0  0  0  0  0
  176.9980   20.6500   47.9270 C   0  0  0  0  0  0  0  0  0  0  0  0
  177.7400   19.9440   46.9760 C   0  0  0  0  0  0  0  0  0  0  0  0
  179.1320   20.0960   46.8890 C   0  0  0  0  0  0  0  0  0  0  0  0
  179.8970   19.3210   45.8410 C   0  0  0  0  0  0  0  0  0  0  0  0
  180.1440   20.0430   44.7090 F   0  0  0  0  0  0  0  0  0  0  0  0
  179.7820   20.9820   47.7770 C   0  0  0  0  0  0  0  0  0  0  0  0
  181.2800   21.1830   47.7300 C   0  0  0  0  0  0  0  0  0  0  0  0
  181.7300   21.7100   46.5570 F   0  0  0  0  0  0  0  0  0  0  0  0
  181.7190   22.0220   48.7080 F   0  0  0  0  0  0  0  0  0  0  0  0
  181.9660   20.0190   47.9030 F   0  0  0  0  0  0  0  0  0  0  0  0
  179.0170   21.6830   48.7320 C   0  0  0  0  0  0  0  0  0  0  0  0
  175.8160   23.0140   49.3180 O   0  0  0  0  0  0  0  0  0  0  0  0
  175.0290   23.7450   50.1700 C   0  0  0  0  0  0  0  0  0  0  0  0
  173.9970   24.4900   49.5970 C   0  0  0  0  0  0  0  0  0  0  0  0
  173.1580   25.2560   50.4080 C   0  0  0  0  0  0  0  0  0  0  0  0
  173.3500   25.2780   51.7910 C   0  0  0  0  0  0  0  0  0  0  0  0
  174.3800   24.5350   52.3600 C   0  0  0  0  0  0  0  0  0  0  0  0
  174.5100   24.6000   53.7210 O   0  0  0  0  0  0  0  0  0  0  0  0
  175.2200   23.7680   51.5480 C   0  0  0  0  0  0  0  0  0  0  0  0
  178.1870   20.5110   51.5570 H   0  0  0  0  0  0  0  0  0  0  0  0
  175.9083   20.5092   47.9798 H   0  0  0  0  0  0  0  0  0  0  0  0
  177.2252   19.2594   46.2859 H   0  0  0  0  0  0  0  0  0  0  0  0
  180.8592   19.0071   46.2719 H   0  0  0  0  0  0  0  0  0  0  0  0
  179.2734   18.4627   45.5505 H   0  0  0  0  0  0  0  0  0  0  0  0
  179.5245   22.3639   49.4312 H   0  0  0  0  0  0  0  0  0  0  0  0
  173.8451   24.4735   48.5077 H   0  0  0  0  0  0  0  0  0  0  0  0
  172.3444   25.8432   49.9571 H   0  0  0  0  0  0  0  0  0  0  0  0
  172.6882   25.8816   52.4296 H   0  0  0  0  0  0  0  0  0  0  0  0
  174.9140   25.3480   54.1160 H   0  0  0  0  0  0  0  0  0  0  0  0
  1  2  2  0
  2  3  1  0
  3  4  1  0
  3  5  2  0
  5  6  1  0
  6  7  2  0
  7  8  1  0
  8  9  2  0
  9 10  1  0
 10 11  1  0
  9 12  1  0
 12 13  1  0
 13 14  1  0
 13 15  1  0
 13 16  1  0
 12 17  2  0
  5 18  1  0
 18 19  1  0
 19 20  2  0
 20 21  1  0
 21 22  2  0
 22 23  1  0
 23 24  1  0
 23 25  2  0
 25  2  1  0
 17  6  1  0
 25 19  1  0
  4 26  1  0
  7 27  1  0
  8 28  1  0
 10 29  1  0
 10 30  1  0
 17 31  1  0
 20 32  1  0
 21 33  1  0
 22 34  1  0
 24 35  1  0
M  END
>  <meeko>  (7) 
{"is_sidechain": [false], "free_energy": -7.344, "intermolecular_energy": -8.945, "internal_energy": -0.309}

$$$$
cand_010_out
     RDKit          3D

 35 37  0  0  0  0  0  0  0  0999 V2000
  176.2590   18.8440   46.9380 O   0  0  0  0  0  0  0  0  0  0  0  0
  176.6210   19.8970   47.4600 C   0  0  0  0  0  0  0  0  0  0  0  0
  175.6830   20.6830   48.2950 C   0  0  0  0  0  0  0  0  0  0  0  0
  174.4090   20.1710   48.4650 O   0  0  0  0  0  0  0  0  0  0  0  0
  176.1220   21.8270   48.8510 C   0  0  0  0  0  0  0  0  0  0  0  0
  175.2770   22.6840   49.7100 C   0  0  0  0  0  0  0  0  0  0  0  0
  175.5890   22.9140   51.0530 C   0  0  0  0  0  0  0  0  0  0  0  0
  174.7620   23.7070   51.8550 C   0  0  0  0  0  0  0  0  0  0  0  0
  173.5930   24.2840   51.3360 C   0  0  0  0  0  0  0  0  0  0  0  0
  172.7300   25.1400   52.2330 C   0  0  0  0  0  0  0  0  0  0  0  0
  172.9440   26.4780   52.0720 F   0  0  0  0  0  0  0  0  0  0  0  0
  173.2610   24.0600   49.9820 C   0  0  0  0  0  0  0  0  0  0  0  0
  172.0120   24.6540   49.3710 C   0  0  0  0  0  0  0  0  0  0  0  0
  170.8780   24.4080   50.0850 F   0  0  0  0  0  0  0  0  0  0  0  0
  172.0900   26.0080   49.2520 F   0  0  0  0  0  0  0  0  0  0  0  0
  171.7720   24.1840   48.1170 F   0  0  0  0  0  0  0  0  0  0  0  0
  174.1060   23.2550   49.1900 C   0  0  0  0  0  0  0  0  0  0  0  0
  177.4130   22.3180   48.7000 O   0  0  0  0  0  0  0  0  0  0  0  0
  178.3020   21.6180   47.9250 C   0  0  0  0  0  0  0  0  0  0  0  0
  179.5830   22.1540   47.7880 C   0  0  0  0  0  0  0  0  0  0  0  0
  180.5370   21.4900   47.0150 C   0  0  0  0  0  0  0  0  0  0  0  0
  180.2100   20.2910   46.3770 C   0  0  0  0  0  0  0  0  0  0  0  0
  178.9310   19.7580   46.5150 C   0  0  0  0  0  0  0  0  0  0  0  0
  178.6790   18.5810   45.8650 O   0  0  0  0  0  0  0  0  0  0  0  0
  177.9760   20.4230   47.2890 C   0  0  0  0  0  0  0  0  0  0  0  0
  173.9490   19.8100   47.7320 H   0  0  0  0  0  0  0  0  0  0  0  0
  176.4962   22.4658   51.4844 H   0  0  0  0  0  0  0  0  0  0  0  0
  175.0317   23.8808   52.9072 H   0  0  0  0  0  0  0  0  0  0  0  0
  171.6744   24.9260   52.0095 H   0  0  0  0  0  0  0  0  0  0  0  0
  172.9928   24.8910   53.2717 H   0  0  0  0  0  0  0  0  0  0  0  0
  173.8402   23.0704   48.1387 H   0  0  0  0  0  0  0  0  0  0  0  0
  179.8408   23.0989   48.2887 H   0  0  0  0  0  0  0  0  0  0  0  0
  181.5475   21.9114   46.9081 H   0  0  0  0  0  0  0  0  0  0  0  0
  180.9616   19.7689   45.7667 H   0  0  0  0  0  0  0  0  0  0  0  0
  177.7950   18.3000   45.7320 H   0  0  0  0  0  0  0  0  0  0  0  0
  1  2  2  0
  2  3  1  0
  3  4  1  0
  3  5  2  0
  5  6  1  0
  6  7  2  0
  7  8  1  0
  8  9  2  0
  9 10  1  0
 10 11  1  0
  9 12  1  0
 12 13  1  0
 13 14  1  0
 13 15  1  0
 13 16  1  0
 12 17  2  0
  5 18  1  0
 18 19  1  0
 19 20  2  0
 20 21  1  0
 21 22  2  0
 22 23  1  0
 23 24  1  0
 23 25  2  0
 25  2  1  0
 17  6  1  0
 25 19  1  0
  4 26  1  0
  7 27  1  0
  8 28  1  0
 10 29  1  0
 10 30  1  0
 17 31  1  0
 20 32  1  0
 21 33  1  0
 22 34  1  0
 24 35  1  0
M  END
>  <meeko>  (8) 
{"is_sidechain": [false], "free_energy": -7.217, "intermolecular_energy": -8.72, "internal_energy": -0.377}

$$$$
cand_010_out
     RDKit          3D

 35 37  0  0  0  0  0  0  0  0999 V2000
  176.3220   23.3060   53.8100 O   0  0  0  0  0  0  0  0  0  0  0  0
  176.2150   23.4510   52.5930 C   0  0  0  0  0  0  0  0  0  0  0  0
  177.0140   22.6180   51.6650 C   0  0  0  0  0  0  0  0  0  0  0  0
  177.8590   21.6790   52.2280 O   0  0  0  0  0  0  0  0  0  0  0  0
  176.8640   22.8060   50.3410 C   0  0  0  0  0  0  0  0  0  0  0  0
  177.6010   22.0260   49.3240 C   0  0  0  0  0  0  0  0  0  0  0  0
  178.9970   22.0300   49.2630 C   0  0  0  0  0  0  0  0  0  0  0  0
  179.6730   21.3060   48.2770 C   0  0  0  0  0  0  0  0  0  0  0  0
  178.9690   20.5640   47.3170 C   0  0  0  0  0  0  0  0  0  0  0  0
  179.7370   19.7880   46.2720 C   0  0  0  0  0  0  0  0  0  0  0  0
  179.7720   20.4090   45.0570 F   0  0  0  0  0  0  0  0  0  0  0  0
  177.5570   20.5500   47.3620 C   0  0  0  0  0  0  0  0  0  0  0  0
  176.7470   19.7700   46.3510 C   0  0  0  0  0  0  0  0  0  0  0  0
  175.4170   19.7080   46.6390 F   0  0  0  0  0  0  0  0  0  0  0  0
  176.8330   20.3010   45.1000 F   0  0  0  0  0  0  0  0  0  0  0  0
  177.1640   18.4790   46.2360 F   0  0  0  0  0  0  0  0  0  0  0  0
  176.8930   21.2890   48.3630 C   0  0  0  0  0  0  0  0  0  0  0  0
  175.9890   23.7320   49.7830 O   0  0  0  0  0  0  0  0  0  0  0  0
  175.2430   24.5240   50.6170 C   0  0  0  0  0  0  0  0  0  0  0  0
  174.3890   25.4490   50.0160 C   0  0  0  0  0  0  0  0  0  0  0  0
  173.5990   26.2850   50.8080 C   0  0  0  0  0  0  0  0  0  0  0  0
  173.6630   26.1960   52.2000 C   0  0  0  0  0  0  0  0  0  0  0  0
  174.5150   25.2720   52.7980 C   0  0  0  0  0  0  0  0  0  0  0  0
  174.5270   25.2370   54.1660 O   0  0  0  0  0  0  0  0  0  0  0  0
  175.3060   24.4360   52.0050 C   0  0  0  0  0  0  0  0  0  0  0  0
  177.5080   20.8800   52.5720 H   0  0  0  0  0  0  0  0  0  0  0  0
  179.5711   22.6103   50.0003 H   0  0  0  0  0  0  0  0  0  0  0  0
  180.7727   21.3182   48.2534 H   0  0  0  0  0  0  0  0  0  0  0  0
  180.7699   19.6538   46.6256 H   0  0  0  0  0  0  0  0  0  0  0  0
  179.2190   18.8276   46.1327 H   0  0  0  0  0  0  0  0  0  0  0  0
  175.7934   21.2875   48.3909 H   0  0  0  0  0  0  0  0  0  0  0  0
  174.3380   25.5198   48.9195 H   0  0  0  0  0  0  0  0  0  0  0  0
  172.9254   27.0145   50.3346 H   0  0  0  0  0  0  0  0  0  0  0  0
  173.0409   26.8553   52.8232 H   0  0  0  0  0  0  0  0  0  0  0  0
  175.3360   25.3370   54.6290 H   0  0  0  0  0  0  0  0  0  0  0  0
  1  2  2  0
  2  3  1  0
  3  4  1  0
  3  5  2  0
  5  6  1  0
  6  7  2  0
  7  8  1  0
  8  9  2  0
  9 10  1  0
 10 11  1  0
  9 12  1  0
 12 13  1  0
 13 14  1  0
 13 15  1  0
 13 16  1  0
 12 17  2  0
  5 18  1  0
 18 19  1  0
 19 20  2  0
 20 21  1  0
 21 22  2  0
 22 23  1  0
 23 24  1  0
 23 25  2  0
 25  2  1  0
 17  6  1  0
 25 19  1  0
  4 26  1  0
  7 27  1  0
  8 28  1  0
 10 29  1  0
 10 30  1  0
 17 31  1  0
 20 32  1  0
 21 33  1  0
 22 34  1  0
 24 35  1  0
M  END
>  <meeko>  (9) 
{"is_sidechain": [false], "free_energy": -7.213, "intermolecular_energy": -8.734, "internal_energy": -0.359}

$$$$
