cand_022_out
     RDKit          3D

 41 43  0  0  0  0  0  0  0  0999 V2000
  180.1950   18.8780   45.8080 C   0  0  0  0  0  0  0  0  0  0  0  0
  179.6480   19.9400   46.7490 C   0  0  0  0  0  0  0  0  0  0  0  0
  178.3490   20.5440   46.2140 C   0  0  0  0  0  0  0  0  0  0  0  0
  177.2240   20.4310   47.2200 C   0  0  0  0  0  0  0  0  0  0  0  0
  177.1280   21.4140   48.2260 C   0  0  0  0  0  0  0  0  0  0  0  0
  176.1290   21.3710   49.2090 C   0  0  0  0  0  0  0  0  0  0  0  0
  176.0120   22.4150   50.2470 C   0  0  0  0  0  0  0  0  0  0  0  0
  175.4520   23.5940   49.7680 O   0  0  0  0  0  0  0  0  0  0  0  0
  175.2850   24.6470   50.6310 C   0  0  0  0  0  0  0  0  0  0  0  0
  174.7330   25.8160   50.1040 C   0  0  0  0  0  0  0  0  0  0  0  0
  174.5350   26.9260   50.9280 C   0  0  0  0  0  0  0  0  0  0  0  0
  174.8870   26.8670   52.2790 C   0  0  0  0  0  0  0  0  0  0  0  0
  175.4370   25.7000   52.8020 C   0  0  0  0  0  0  0  0  0  0  0  0
  175.7590   25.7100   54.1310 O   0  0  0  0  0  0  0  0  0  0  0  0
  175.6360   24.5890   51.9760 C   0  0  0  0  0  0  0  0  0  0  0  0
  176.2120   23.3430   52.4860 C   0  0  0  0  0  0  0  0  0  0  0  0
  176.5400   23.2130   53.6630 O   0  0  0  0  0  0  0  0  0  0  0  0
  176.3890   22.2290   51.5270 C   0  0  0  0  0  0  0  0  0  0  0  0
  176.9210   21.0530   52.0220 O   0  0  0  0  0  0  0  0  0  0  0  0
  175.2000   20.3260   49.1620 C   0  0  0  0  0  0  0  0  0  0  0  0
  175.2830   19.3400   48.1750 C   0  0  0  0  0  0  0  0  0  0  0  0
  176.2940   19.3740   47.2030 C   0  0  0  0  0  0  0  0  0  0  0  0
  176.3360   18.2920   46.1590 C   0  0  0  0  0  0  0  0  0  0  0  0
  180.6208   18.0514   46.3958 H   0  0  0  0  0  0  0  0  0  0  0  0
  179.3815   18.4959   45.1738 H   0  0  0  0  0  0  0  0  0  0  0  0
  180.9784   19.3185   45.1738 H   0  0  0  0  0  0  0  0  0  0  0  0
  179.4525   19.4825   47.7301 H   0  0  0  0  0  0  0  0  0  0  0  0
  180.3939   20.7439   46.8348 H   0  0  0  0  0  0  0  0  0  0  0  0
  178.5175   21.6067   45.9853 H   0  0  0  0  0  0  0  0  0  0  0  0
  178.0586   19.9879   45.3104 H   0  0  0  0  0  0  0  0  0  0  0  0
  177.8571   22.2376   48.2402 H   0  0  0  0  0  0  0  0  0  0  0  0
  174.4543   25.8627   49.0409 H   0  0  0  0  0  0  0  0  0  0  0  0
  174.1014   27.8479   50.5130 H   0  0  0  0  0  0  0  0  0  0  0  0
  174.7298   27.7411   52.9281 H   0  0  0  0  0  0  0  0  0  0  0  0
  175.1140   25.4790   54.7700 H   0  0  0  0  0  0  0  0  0  0  0  0
  177.7290   20.7240   51.6800 H   0  0  0  0  0  0  0  0  0  0  0  0
  174.3951   20.2799   49.9104 H   0  0  0  0  0  0  0  0  0  0  0  0
  174.5444   18.5250   48.1601 H   0  0  0  0  0  0  0  0  0  0  0  0
  176.3742   17.3090   46.6511 H   0  0  0  0  0  0  0  0  0  0  0  0
  175.4348   18.3531   45.5312 H   0  0  0  0  0  0  0  0  0  0  0  0
  177.2297   18.4227   45.5312 H   0  0  0  0  0  0  0  0  0  0  0  0
  1  2  1  0
  2  3  1  0
  3  4  1  0
  4  5  2  0
  5  6  1  0
  6  7  1  0
  7  8  1  0
  8  9  1  0
  9 10  2  0
 10 11  1  0
 11 12  2  0
 12 13  1  0
 13 14  1  0
 13 15  2  0
 15 16  1  0
 16 17  2  0
 16 18  1  0
 18 19  1  0
  6 20  2  0
 20 21  1  0
 21 22  2  0
 22 23  1  0
 22  4  1  0
 18  7  2  0
 15  9  1  0
  1 24  1  0
  1 25  1  0
  1 26  1  0
  2 27  1  0
  2 28  1  0
  3 29  1  0
  3 30  1  0
  5 31  1  0
 10 32  1  0
 11 33  1  0
 12 34  1  0
 14 35  1  0
 19 36  1  0
 20 37  1  0
 21 38  1  0
 23 39  1  0
 23 40  1  0
 23 41  1  0
M  END
>  <meeko>  (1) 
{"is_sidechain": [false], "free_energy": -7.354, "intermolecular_energy": -9.074, "internal_energy": -0.635}

$$$$
cand_022_out
     RDKit          3D

 41 43  0  0  0  0  0  0  0  0999 V2000
  175.5560   18.1230   46.7830 C   0  0  0  0  0  0  0  0  0  0  0  0
  176.2900   19.3170   46.1950 C   0  0  0  0  0  0  0  0  0  0  0  0
  177.7870   19.2600   46.5040 C   0  0  0  0  0  0  0  0  0  0  0  0
  178.2570   20.5010   47.2310 C   0  0  0  0  0  0  0  0  0  0  0  0
  177.4370   21.0280   48.2500 C   0  0  0  0  0  0  0  0  0  0  0  0
  177.7890   22.1860   48.9560 C   0  0  0  0  0  0  0  0  0  0  0  0
  176.9440   22.7240   50.0420 C   0  0  0  0  0  0  0  0  0  0  0  0
  175.8290   23.4080   49.5710 O   0  0  0  0  0  0  0  0  0  0  0  0
  174.9580   23.9590   50.4750 C   0  0  0  0  0  0  0  0  0  0  0  0
  173.8610   24.6500   49.9580 C   0  0  0  0  0  0  0  0  0  0  0  0
  172.9340   25.2340   50.8240 C   0  0  0  0  0  0  0  0  0  0  0  0
  173.1040   25.1280   52.2060 C   0  0  0  0  0  0  0  0  0  0  0  0
  174.1990   24.4380   52.7200 C   0  0  0  0  0  0  0  0  0  0  0  0
  174.3050   24.3720   54.0820 O   0  0  0  0  0  0  0  0  0  0  0  0
  175.1270   23.8540   51.8520 C   0  0  0  0  0  0  0  0  0  0  0  0
  176.2920   23.1210   52.3500 C   0  0  0  0  0  0  0  0  0  0  0  0
  176.5060   22.9790   53.5530 O   0  0  0  0  0  0  0  0  0  0  0  0
  177.2190   22.5470   51.3480 C   0  0  0  0  0  0  0  0  0  0  0  0
  178.3090   21.8450   51.8300 O   0  0  0  0  0  0  0  0  0  0  0  0
  179.0000   22.8120   48.6390 C   0  0  0  0  0  0  0  0  0  0  0  0
  179.8220   22.3060   47.6290 C   0  0  0  0  0  0  0  0  0  0  0  0
  179.4610   21.1570   46.9100 C   0  0  0  0  0  0  0  0  0  0  0  0
  180.3840   20.6500   45.8360 C   0  0  0  0  0  0  0  0  0  0  0  0
  175.5890   18.1768   47.8812 H   0  0  0  0  0  0  0  0  0  0  0  0
  174.5087   18.1344   46.4467 H   0  0  0  0  0  0  0  0  0  0  0  0
  176.0390   17.1937   46.4467 H   0  0  0  0  0  0  0  0  0  0  0  0
  176.1498   19.3214   45.1040 H   0  0  0  0  0  0  0  0  0  0  0  0
  175.8784   20.2323   46.6454 H   0  0  0  0  0  0  0  0  0  0  0  0
  177.9876   18.3807   47.1337 H   0  0  0  0  0  0  0  0  0  0  0  0
  178.3313   19.1949   45.5503 H   0  0  0  0  0  0  0  0  0  0  0  0
  176.4953   20.5161   48.4974 H   0  0  0  0  0  0  0  0  0  0  0  0
  173.7267   24.7345   48.8695 H   0  0  0  0  0  0  0  0  0  0  0  0
  172.0690   25.7781   50.4170 H   0  0  0  0  0  0  0  0  0  0  0  0
  172.3740   25.5889   52.8877 H   0  0  0  0  0  0  0  0  0  0  0  0
  173.5860   24.0530   54.5920 H   0  0  0  0  0  0  0  0  0  0  0  0
  178.3980   20.9320   51.6420 H   0  0  0  0  0  0  0  0  0  0  0  0
  179.3079   23.7122   49.1911 H   0  0  0  0  0  0  0  0  0  0  0  0
  180.7674   22.8168   47.3939 H   0  0  0  0  0  0  0  0  0  0  0  0
  181.2580   20.1699   46.3003 H   0  0  0  0  0  0  0  0  0  0  0  0
  179.8521   19.9175   45.2111 H   0  0  0  0  0  0  0  0  0  0  0  0
  180.7169   21.4919   45.2111 H   0  0  0  0  0  0  0  0  0  0  0  0
  1  2  1  0
  2  3  1  0
  3  4  1  0
  4  5  2  0
  5  6  1  0
  6  7  1  0
  7  8  1  0
  8  9  1  0
  9 10  2  0
 10 11  1  0
 11 12  2  0
 12 13  1  0
 13 14  1  0
 13 15  2  0
 15 16  1  0
 16 17  2  0
 16 18  1  0
 18 19  1  0
  6 20  2  0
 20 21  1  0
 21 22  2  0
 22 23  1  0
 22  4  1  0
 18  7  2  0
 15  9  1  0
  1 24  1  0
  1 25  1  0
  1 26  1  0
  2 27  1  0
  2 28  1  0
  3 29  1  0
  3 30  1  0
  5 31  1  0
 10 32  1  0
 11 33  1  0
 12 34  1  0
 14 35  1  0
 19 36  1  0
 20 37  1  0
 21 38  1  0
 23 39  1  0
 23 40  1  0
 23 41  1  0
M  END
>  <meeko>  (2) 
{"is_sidechain": [false], "free_energy": -7.065, "intermolecular_energy": -8.761, "internal_energy": -0.591}

$$$$
cand_022_out
     RDKit          3D

 41 43  0  0  0  0  0  0  0  0999 V2000
  178.9090   12.2230   45.5170 C   0  0  0  0  0  0  0  0  0  0  0  0
  179.0470   13.6770   45.0970 C   0  0  0  0  0  0  0  0  0  0  0  0
  180.5170   14.0840   44.9730 C   0  0  0  0  0  0  0  0  0  0  0  0
  180.6640   15.5480   44.6200 C   0  0  0  0  0  0  0  0  0  0  0  0
  180.0460   16.5010   45.4550 C   0  0  0  0  0  0  0  0  0  0  0  0
  180.1170   17.8750   45.1860 C   0  0  0  0  0  0  0  0  0  0  0  0
  179.4920   18.8760   46.0750 C   0  0  0  0  0  0  0  0  0  0  0  0
  178.1080   18.7660   46.1250 O   0  0  0  0  0  0  0  0  0  0  0  0
  177.4010   19.6370   46.9150 C   0  0  0  0  0  0  0  0  0  0  0  0
  176.0120   19.4990   46.9230 C   0  0  0  0  0  0  0  0  0  0  0  0
  175.2320   20.3520   47.7070 C   0  0  0  0  0  0  0  0  0  0  0  0
  175.8400   21.3420   48.4830 C   0  0  0  0  0  0  0  0  0  0  0  0
  177.2260   21.4770   48.4730 C   0  0  0  0  0  0  0  0  0  0  0  0
  177.7570   22.4650   49.2550 O   0  0  0  0  0  0  0  0  0  0  0  0
  178.0060   20.6230   47.6870 C   0  0  0  0  0  0  0  0  0  0  0  0
  179.4660   20.7310   47.6470 C   0  0  0  0  0  0  0  0  0  0  0  0
  180.0740   21.5710   48.3070 O   0  0  0  0  0  0  0  0  0  0  0  0
  180.1980   19.7830   46.7770 C   0  0  0  0  0  0  0  0  0  0  0  0
  181.5770   19.8860   46.7570 O   0  0  0  0  0  0  0  0  0  0  0  0
  180.8390   18.2940   44.0630 C   0  0  0  0  0  0  0  0  0  0  0  0
  181.4540   17.3620   43.2220 C   0  0  0  0  0  0  0  0  0  0  0  0
  181.3680   15.9870   43.4810 C   0  0  0  0  0  0  0  0  0  0  0  0
  182.0520   15.0260   42.5470 C   0  0  0  0  0  0  0  0  0  0  0  0
  178.9028   12.1575   46.6150 H   0  0  0  0  0  0  0  0  0  0  0  0
  177.9680   11.8144   45.1200 H   0  0  0  0  0  0  0  0  0  0  0  0
  179.7563   11.6447   45.1200 H   0  0  0  0  0  0  0  0  0  0  0  0
  178.5533   13.8171   44.1240 H   0  0  0  0  0  0  0  0  0  0  0  0
  178.5767   14.3064   45.8669 H   0  0  0  0  0  0  0  0  0  0  0  0
  181.0211   13.8962   45.9325 H   0  0  0  0  0  0  0  0  0  0  0  0
  180.9708   13.4893   44.1665 H   0  0  0  0  0  0  0  0  0  0  0  0
  179.4931   16.1572   46.3416 H   0  0  0  0  0  0  0  0  0  0  0  0
  175.5324   18.7196   46.3127 H   0  0  0  0  0  0  0  0  0  0  0  0
  174.1373   20.2442   47.7135 H   0  0  0  0  0  0  0  0  0  0  0  0
  175.2252   22.0134   49.1005 H   0  0  0  0  0  0  0  0  0  0  0  0
  178.3690   23.0740   48.8890 H   0  0  0  0  0  0  0  0  0  0  0  0
  182.1000   19.2530   47.2090 H   0  0  0  0  0  0  0  0  0  0  0  0
  180.9235   19.3678   43.8397 H   0  0  0  0  0  0  0  0  0  0  0  0
  182.0143   17.7132   42.3430 H   0  0  0  0  0  0  0  0  0  0  0  0
  182.5920   14.2673   43.1325 H   0  0  0  0  0  0  0  0  0  0  0  0
  181.3003   14.5332   41.9128 H   0  0  0  0  0  0  0  0  0  0  0  0
  182.7638   15.5749   41.9128 H   0  0  0  0  0  0  0  0  0  0  0  0
  1  2  1  0
  2  3  1  0
  3  4  1  0
  4  5  2  0
  5  6  1  0
  6  7  1  0
  7  8  1  0
  8  9  1  0
  9 10  2  0
 10 11  1  0
 11 12  2  0
 12 13  1  0
 13 14  1  0
 13 15  2  0
 15 16  1  0
 16 17  2  0
 16 18  1  0
 18 19  1  0
  6 20  2  0
 20 21  1  0
 21 22  2  0
 22 23  1  0
 22  4  1  0
 18  7  2  0
 15  9  1  0
  1 24  1  0
  1 25  1  0
  1 26  1  0
  2 27  1  0
  2 28  1  0
  3 29  1  0
  3 30  1  0
  5 31  1  0
 10 32  1  0
 11 33  1  0
 12 34  1  0
 14 35  1  0
 19 36  1  0
 20 37  1  0
 21 38  1  0
 23 39  1  0
 23 40  1  0
 23 41  1  0
M  END
>  <meeko>  (3) 
{"is_sidechain": [false], "free_energy": -7.029, "intermolecular_energy": -8.857, "internal_energy": -0.45}

$$$$
cand_022_out
     RDKit          3D

 41 43  0  0  0  0  0  0  0  0999 V2000
  180.4090   18.1180   45.3670 C   0  0  0  0  0  0  0  0  0  0  0  0
  179.2780   18.9120   46.0000 C   0  0  0  0  0  0  0  0  0  0  0  0
  179.4120   20.4070   45.7040 C   0  0  0  0  0  0  0  0  0  0  0  0
  179.7640   21.1950   46.9470 C   0  0  0  0  0  0  0  0  0  0  0  0
  178.7220   21.5510   47.8280 C   0  0  0  0  0  0  0  0  0  0  0  0
  178.9610   22.2980   48.9900 C   0  0  0  0  0  0  0  0  0  0  0  0
  177.8750   22.6490   49.9280 C   0  0  0  0  0  0  0  0  0  0  0  0
  176.8650   23.3950   49.3310 O   0  0  0  0  0  0  0  0  0  0  0  0
  175.7930   23.7880   50.0920 C   0  0  0  0  0  0  0  0  0  0  0  0
  174.8100   24.5480   49.4560 C   0  0  0  0  0  0  0  0  0  0  0  0
  173.6920   24.9790   50.1720 C   0  0  0  0  0  0  0  0  0  0  0  0
  173.5550   24.6500   51.5230 C   0  0  0  0  0  0  0  0  0  0  0  0
  174.5370   23.8910   52.1540 C   0  0  0  0  0  0  0  0  0  0  0  0
  174.3410   23.6050   53.4780 O   0  0  0  0  0  0  0  0  0  0  0  0
  175.6570   23.4610   51.4370 C   0  0  0  0  0  0  0  0  0  0  0  0
  176.7130   22.6620   52.0630 C   0  0  0  0  0  0  0  0  0  0  0  0
  176.6600   22.3270   53.2450 O   0  0  0  0  0  0  0  0  0  0  0  0
  177.8610   22.2630   51.2180 C   0  0  0  0  0  0  0  0  0  0  0  0
  178.8450   21.4980   51.8160 O   0  0  0  0  0  0  0  0  0  0  0  0
  180.2770   22.6780   49.2730 C   0  0  0  0  0  0  0  0  0  0  0  0
  181.3210   22.3390   48.4080 C   0  0  0  0  0  0  0  0  0  0  0  0
  181.0790   21.6060   47.2360 C   0  0  0  0  0  0  0  0  0  0  0  0
  182.2380   21.2620   46.3420 C   0  0  0  0  0  0  0  0  0  0  0  0
  181.0353   17.6783   46.1572 H   0  0  0  0  0  0  0  0  0  0  0  0
  179.9890   17.3155   44.7429 H   0  0  0  0  0  0  0  0  0  0  0  0
  181.0211   18.7856   44.7429 H   0  0  0  0  0  0  0  0  0  0  0  0
  178.3194   18.5521   45.5981 H   0  0  0  0  0  0  0  0  0  0  0  0
  179.3225   18.7694   47.0898 H   0  0  0  0  0  0  0  0  0  0  0  0
  180.2034   20.5522   44.9540 H   0  0  0  0  0  0  0  0  0  0  0  0
  178.4432   20.7705   45.3308 H   0  0  0  0  0  0  0  0  0  0  0  0
  177.6942   21.2341   47.5973 H   0  0  0  0  0  0  0  0  0  0  0  0
  174.9162   24.8069   48.3922 H   0  0  0  0  0  0  0  0  0  0  0  0
  172.9174   25.5788   49.6717 H   0  0  0  0  0  0  0  0  0  0  0  0
  172.6736   24.9897   52.0866 H   0  0  0  0  0  0  0  0  0  0  0  0
  173.5700   23.1460   53.7480 H   0  0  0  0  0  0  0  0  0  0  0  0
  179.5810   21.2060   51.3140 H   0  0  0  0  0  0  0  0  0  0  0  0
  180.4928   23.2504   50.1872 H   0  0  0  0  0  0  0  0  0  0  0  0
  182.3477   22.6514   48.6494 H   0  0  0  0  0  0  0  0  0  0  0  0
  183.1118   21.0027   46.9579 H   0  0  0  0  0  0  0  0  0  0  0  0
  181.9695   20.4048   45.7071 H   0  0  0  0  0  0  0  0  0  0  0  0
  182.4806   22.1269   45.7071 H   0  0  0  0  0  0  0  0  0  0  0  0
  1  2  1  0
  2  3  1  0
  3  4  1  0
  4  5  2  0
  5  6  1  0
  6  7  1  0
  7  8  1  0
  8  9  1  0
  9 10  2  0
 10 11  1  0
 11 12  2  0
 12 13  1  0
 13 14  1  0
 13 15  2  0
 15 16  1  0
 16 17  2  0
 16 18  1  0
 18 19  1  0
  6 20  2  0
 20 21  1  0
 21 22  2  0
 22 23  1  0
 22  4  1  0
 18  7  2  0
 15  9  1  0
  1 24  1  0
  1 25  1  0
  1 26  1  0
  2 27  1  0
  2 28  1  0
  3 29  1  0
  3 30  1  0
  5 31  1  0
 10 32  1  0
 11 33  1  0
 12 34  1  0
 14 35  1  0
 19 36  1  0
 20 37  1  0
 21 38  1  0
 23 39  1  0
 23 40  1  0
 23 41  1  0
M  END
>  <meeko>  (4) 
{"is_sidechain": [false], "free_energy": -6.999, "intermolecular_energy": -8.764, "internal_energy": -0.507}

$$$$
cand_022_out
     RDKit          3D

 41 43  0  0  0  0  0  0  0  0999 V2000
  173.5280   26.0030   52.6730 C   0  0  0  0  0  0  0  0  0  0  0  0
  174.4530   26.7100   51.6960 C   0  0  0  0  0  0  0  0  0  0  0  0
  174.0900   26.3810   50.2470 C   0  0  0  0  0  0  0  0  0  0  0  0
  174.3600   24.9290   49.9180 C   0  0  0  0  0  0  0  0  0  0  0  0
  175.6890   24.4660   49.9840 C   0  0  0  0  0  0  0  0  0  0  0  0
  176.0260   23.1410   49.6740 C   0  0  0  0  0  0  0  0  0  0  0  0
  177.4150   22.6470   49.7690 C   0  0  0  0  0  0  0  0  0  0  0  0
  177.8400   22.0030   48.6140 O   0  0  0  0  0  0  0  0  0  0  0  0
  179.1140   21.4950   48.5670 C   0  0  0  0  0  0  0  0  0  0  0  0
  179.4930   20.8420   47.3930 C   0  0  0  0  0  0  0  0  0  0  0  0
  180.7760   20.3040   47.2790 C   0  0  0  0  0  0  0  0  0  0  0  0
  181.6800   20.4170   48.3380 C   0  0  0  0  0  0  0  0  0  0  0  0
  181.2990   21.0690   49.5080 C   0  0  0  0  0  0  0  0  0  0  0  0
  182.2330   21.1450   50.5050 O   0  0  0  0  0  0  0  0  0  0  0  0
  180.0140   21.6070   49.6220 C   0  0  0  0  0  0  0  0  0  0  0  0
  179.5730   22.3000   50.8340 C   0  0  0  0  0  0  0  0  0  0  0  0
  180.3140   22.4460   51.8050 O   0  0  0  0  0  0  0  0  0  0  0  0
  178.1900   22.8270   50.8560 C   0  0  0  0  0  0  0  0  0  0  0  0
  177.7890   23.4900   52.0010 O   0  0  0  0  0  0  0  0  0  0  0  0
  174.9990   22.2650   49.3080 C   0  0  0  0  0  0  0  0  0  0  0  0
  173.6760   22.7090   49.2320 C   0  0  0  0  0  0  0  0  0  0  0  0
  173.3410   24.0390   49.5250 C   0  0  0  0  0  0  0  0  0  0  0  0
  171.9020   24.4650   49.4330 C   0  0  0  0  0  0  0  0  0  0  0  0
  173.8345   26.2373   53.7031 H   0  0  0  0  0  0  0  0  0  0  0  0
  172.4946   26.3436   52.5115 H   0  0  0  0  0  0  0  0  0  0  0  0
  173.5854   24.9164   52.5115 H   0  0  0  0  0  0  0  0  0  0  0  0
  174.3712   27.7964   51.8477 H   0  0  0  0  0  0  0  0  0  0  0  0
  175.4813   26.3666   51.8821 H   0  0  0  0  0  0  0  0  0  0  0  0
  173.0211   26.5889   50.0913 H   0  0  0  0  0  0  0  0  0  0  0  0
  174.7129   27.0034   49.5878 H   0  0  0  0  0  0  0  0  0  0  0  0
  176.4840   25.1633   50.2871 H   0  0  0  0  0  0  0  0  0  0  0  0
  178.7817   20.7515   46.5589 H   0  0  0  0  0  0  0  0  0  0  0  0
  181.0757   19.7902   46.3537 H   0  0  0  0  0  0  0  0  0  0  0  0
  182.6905   19.9919   48.2479 H   0  0  0  0  0  0  0  0  0  0  0  0
  182.8170   20.4280   50.6540 H   0  0  0  0  0  0  0  0  0  0  0  0
  177.7550   24.4270   52.0130 H   0  0  0  0  0  0  0  0  0  0  0  0
  175.2350   21.2156   49.0776 H   0  0  0  0  0  0  0  0  0  0  0  0
  172.8847   22.0039   48.9376 H   0  0  0  0  0  0  0  0  0  0  0  0
  171.4902   24.5869   50.4457 H   0  0  0  0  0  0  0  0  0  0  0  0
  171.8364   25.4211   48.8930 H   0  0  0  0  0  0  0  0  0  0  0  0
  171.3265   23.6987   48.8930 H   0  0  0  0  0  0  0  0  0  0  0  0
  1  2  1  0
  2  3  1  0
  3  4  1  0
  4  5  2  0
  5  6  1  0
  6  7  1  0
  7  8  1  0
  8  9  1  0
  9 10  2  0
 10 11  1  0
 11 12  2  0
 12 13  1  0
 13 14  1  0
 13 15  2  0
 15 16  1  0
 16 17  2  0
 16 18  1  0
 18 19  1  0
  6 20  2  0
 20 21  1  0
 21 22  2  0
 22 23  1  0
 22  4  1  0
 18  7  2  0
 15  9  1  0
  1 24  1  0
  1 25  1  0
  1 26  1  0
  2 27  1  0
  2 28  1  0
  3 29  1  0
  3 30  1  0
  5 31  1  0
 10 32  1  0
 11 33  1  0
 12 34  1  0
 14 35  1  0
 19 36  1  0
 20 37  1  0
 21 38  1  0
 23 39  1  0
 23 40  1  0
 23 41  1  0
M  END
>  <meeko>  (5) 
{"is_sidechain": [false], "free_energy": -6.952, "intermolecular_energy": -8.706, "internal_energy": -0.506}

$$$$
cand_022_out
     RDKit          3D

 41 43  0  0  0  0  0  0  0  0999 V2000
  183.3900   22.2430   48.5090 C   0  0  0  0  0  0  0  0  0  0  0  0
  182.3020   21.2220   48.2180 C   0  0  0  0  0  0  0  0  0  0  0  0
  181.4180   21.6670   47.0510 C   0  0  0  0  0  0  0  0  0  0  0  0
  180.0100   21.1260   47.1780 C   0  0  0  0  0  0  0  0  0  0  0  0
  179.1770   21.6630   48.1800 C   0  0  0  0  0  0  0  0  0  0  0  0
  177.8670   21.2020   48.3770 C   0  0  0  0  0  0  0  0  0  0  0  0
  176.9840   21.7820   49.4090 C   0  0  0  0  0  0  0  0  0  0  0  0
  175.7590   22.1980   48.9010 O   0  0  0  0  0  0  0  0  0  0  0  0
  174.8420   22.7570   49.7540 C   0  0  0  0  0  0  0  0  0  0  0  0
  173.6310   23.1730   49.1980 C   0  0  0  0  0  0  0  0  0  0  0  0
  172.6530   23.7490   50.0120 C   0  0  0  0  0  0  0  0  0  0  0  0
  172.8830   23.9070   51.3800 C   0  0  0  0  0  0  0  0  0  0  0  0
  174.0920   23.4900   51.9320 C   0  0  0  0  0  0  0  0  0  0  0  0
  174.2520   23.6740   53.2780 O   0  0  0  0  0  0  0  0  0  0  0  0
  175.0710   22.9150   51.1170 C   0  0  0  0  0  0  0  0  0  0  0  0
  176.3550   22.4640   51.6570 C   0  0  0  0  0  0  0  0  0  0  0  0
  176.6290   22.5620   52.8520 O   0  0  0  0  0  0  0  0  0  0  0  0
  177.3270   21.8750   50.7080 C   0  0  0  0  0  0  0  0  0  0  0  0
  178.5310   21.4400   51.2310 O   0  0  0  0  0  0  0  0  0  0  0  0
  177.3880   20.1930   47.5360 C   0  0  0  0  0  0  0  0  0  0  0  0
  178.2020   19.6460   46.5400 C   0  0  0  0  0  0  0  0  0  0  0  0
  179.5180   20.0950   46.3550 C   0  0  0  0  0  0  0  0  0  0  0  0
  180.3510   19.4770   45.2660 C   0  0  0  0  0  0  0  0  0  0  0  0
  183.5077   22.3534   49.5971 H   0  0  0  0  0  0  0  0  0  0  0  0
  184.3394   21.9023   48.0702 H   0  0  0  0  0  0  0  0  0  0  0  0
  183.1102   23.2121   48.0702 H   0  0  0  0  0  0  0  0  0  0  0  0
  182.7720   20.2602   47.9648 H   0  0  0  0  0  0  0  0  0  0  0  0
  181.6706   21.1236   49.1133 H   0  0  0  0  0  0  0  0  0  0  0  0
  181.3775   22.7661   47.0333 H   0  0  0  0  0  0  0  0  0  0  0  0
  181.8541   21.2739   46.1208 H   0  0  0  0  0  0  0  0  0  0  0  0
  179.5647   22.4653   48.8250 H   0  0  0  0  0  0  0  0  0  0  0  0
  173.4473   23.0474   48.1207 H   0  0  0  0  0  0  0  0  0  0  0  0
  171.6993   24.0789   49.5742 H   0  0  0  0  0  0  0  0  0  0  0  0
  172.1115   24.3596   52.0202 H   0  0  0  0  0  0  0  0  0  0  0  0
  173.5130   23.6110   53.8500 H   0  0  0  0  0  0  0  0  0  0  0  0
  179.0100   20.7590   50.8010 H   0  0  0  0  0  0  0  0  0  0  0  0
  176.3586   19.8254   47.6596 H   0  0  0  0  0  0  0  0  0  0  0  0
  177.8046   18.8514   45.8914 H   0  0  0  0  0  0  0  0  0  0  0  0
  181.1572   18.8789   45.7158 H   0  0  0  0  0  0  0  0  0  0  0  0
  179.7174   18.8287   44.6429 H   0  0  0  0  0  0  0  0  0  0  0  0
  180.7877   20.2714   44.6429 H   0  0  0  0  0  0  0  0  0  0  0  0
  1  2  1  0
  2  3  1  0
  3  4  1  0
  4  5  2  0
  5  6  1  0
  6  7  1  0
  7  8  1  0
  8  9  1  0
  9 10  2  0
 10 11  1  0
 11 12  2  0
 12 13  1  0
 13 14  1  0
 13 15  2  0
 15 16  1  0
 16 17  2  0
 16 18  1  0
 18 19  1  0
  6 20  2  0
 20 21  1  0
 21 22  2  0
 22 23  1  0
 22  4  1  0
 18  7  2  0
 15  9  1  0
  1 24  1  0
  1 25  1  0
  1 26  1  0
  2 27  1  0
  2 28  1  0
  3 29  1  0
  3 30  1  0
  5 31  1  0
 10 32  1  0
 11 33  1  0
 12 34  1  0
 14 35  1  0
 19 36  1  0
 20 37  1  0
 21 38  1  0
 23 39  1  0
 23 40  1  0
 23 41  1  0
M  END
>  <meeko>  (6) 
{"is_sidechain": [false], "free_energy": -6.862, "intermolecular_energy": -8.706, "internal_energy": -0.396}

$$$$
cand_022_out
     RDKit          3D

 41 43  0  0  0  0  0  0  0  0999 V2000
  183.3010   26.5000   49.7450 C   0  0  0  0  0  0  0  0  0  0  0  0
  182.3770   26.4380   48.5390 C   0  0  0  0  0  0  0  0  0  0  0  0
  182.8290   25.3670   47.5450 C   0  0  0  0  0  0  0  0  0  0  0  0
  182.5860   23.9710   48.0780 C   0  0  0  0  0  0  0  0  0  0  0  0
  181.2590   23.5840   48.3550 C   0  0  0  0  0  0  0  0  0  0  0  0
  180.9520   22.3170   48.8710 C   0  0  0  0  0  0  0  0  0  0  0  0
  179.5600   21.9010   49.1360 C   0  0  0  0  0  0  0  0  0  0  0  0
  178.8600   21.5830   47.9780 O   0  0  0  0  0  0  0  0  0  0  0  0
  177.5530   21.1800   48.0820 C   0  0  0  0  0  0  0  0  0  0  0  0
  176.8850   20.8840   46.8930 C   0  0  0  0  0  0  0  0  0  0  0  0
  175.5530   20.4670   46.9280 C   0  0  0  0  0  0  0  0  0  0  0  0
  174.8890   20.3430   48.1500 C   0  0  0  0  0  0  0  0  0  0  0  0
  175.5590   20.6370   49.3350 C   0  0  0  0  0  0  0  0  0  0  0  0
  174.8510   20.4940   50.4970 O   0  0  0  0  0  0  0  0  0  0  0  0
  176.8920   21.0560   49.3000 C   0  0  0  0  0  0  0  0  0  0  0  0
  177.6320   21.3760   50.5220 C   0  0  0  0  0  0  0  0  0  0  0  0
  177.1190   21.2850   51.6360 O   0  0  0  0  0  0  0  0  0  0  0  0
  179.0370   21.8190   50.3750 C   0  0  0  0  0  0  0  0  0  0  0  0
  179.7310   22.1050   51.5360 O   0  0  0  0  0  0  0  0  0  0  0  0
  182.0030   21.4210   49.0940 C   0  0  0  0  0  0  0  0  0  0  0  0
  183.3250   21.7900   48.8300 C   0  0  0  0  0  0  0  0  0  0  0  0
  183.6340   23.0640   48.3300 C   0  0  0  0  0  0  0  0  0  0  0  0
  185.0710   23.4090   48.0570 C   0  0  0  0  0  0  0  0  0  0  0  0
  182.7031   26.4599   50.6674 H   0  0  0  0  0  0  0  0  0  0  0  0
  183.9943   25.6464   49.7200 H   0  0  0  0  0  0  0  0  0  0  0  0
  183.8740   27.4386   49.7200 H   0  0  0  0  0  0  0  0  0  0  0  0
  181.3582   26.2025   48.8803 H   0  0  0  0  0  0  0  0  0  0  0  0
  182.4027   27.4140   48.0323 H   0  0  0  0  0  0  0  0  0  0  0  0
  182.2694   25.4927   46.6064 H   0  0  0  0  0  0  0  0  0  0  0  0
  183.9096   25.4875   47.3785 H   0  0  0  0  0  0  0  0  0  0  0  0
  180.4425   24.2952   48.1611 H   0  0  0  0  0  0  0  0  0  0  0  0
  177.4072   20.9791   45.9295 H   0  0  0  0  0  0  0  0  0  0  0  0
  175.0255   20.2357   45.9908 H   0  0  0  0  0  0  0  0  0  0  0  0
  173.8397   20.0140   48.1767 H   0  0  0  0  0  0  0  0  0  0  0  0
  173.9540   20.2240   50.4680 H   0  0  0  0  0  0  0  0  0  0  0  0
  180.4410   21.5570   51.8060 H   0  0  0  0  0  0  0  0  0  0  0  0
  181.7865   20.4146   49.4816 H   0  0  0  0  0  0  0  0  0  0  0  0
  184.1357   21.0705   49.0171 H   0  0  0  0  0  0  0  0  0  0  0  0
  185.6048   23.5372   49.0102 H   0  0  0  0  0  0  0  0  0  0  0  0
  185.5397   22.5979   47.4805 H   0  0  0  0  0  0  0  0  0  0  0  0
  185.1203   24.3445   47.4805 H   0  0  0  0  0  0  0  0  0  0  0  0
  1  2  1  0
  2  3  1  0
  3  4  1  0
  4  5  2  0
  5  6  1  0
  6  7  1  0
  7  8  1  0
  8  9  1  0
  9 10  2  0
 10 11  1  0
 11 12  2  0
 12 13  1  0
 13 14  1  0
 13 15  2  0
 15 16  1  0
 16 17  2  0
 16 18  1  0
 18 19  1  0
  6 20  2  0
 20 21  1  0
 21 22  2  0
 22 23  1  0
 22  4  1  0
 18  7  2  0
 15  9  1  0
  1 24  1  0
  1 25  1  0
  1 26  1  0
  2 27  1  0
  2 28  1  0
  3 29  1  0
  3 30  1  0
  5 31  1  0
 10 32  1  0
 11 33  1  0
 12 34  1  0
 14 35  1  0
 19 36  1  0
 20 37  1  0
 21 38  1  0
 23 39  1  0
 23 40  1  0
 23 41  1  0
M  END
>  <meeko>  (7) 
{"is_sidechain": [false], "free_energy": -6.829, "intermolecular_energy": -8.332, "internal_energy": -0.73}

$$$$
cand_022_out
     RDKit          3D

 41 43  0  0  0  0  0  0  0  0999 V2000
  175.5480   19.9630   49.6480 C   0  0  0  0  0  0  0  0  0  0  0  0
  176.4980   21.1490   49.6950 C   0  0  0  0  0  0  0  0  0  0  0  0
  176.8020   21.6760   48.2910 C   0  0  0  0  0  0  0  0  0  0  0  0
  178.1270   21.1590   47.7740 C   0  0  0  0  0  0  0  0  0  0  0  0
  179.3100   21.7580   48.2540 C   0  0  0  0  0  0  0  0  0  0  0  0
  180.5760   21.3520   47.8090 C   0  0  0  0  0  0  0  0  0  0  0  0
  181.8170   21.9610   48.3310 C   0  0  0  0  0  0  0  0  0  0  0  0
  182.3570   22.9100   47.4710 O   0  0  0  0  0  0  0  0  0  0  0  0
  183.5130   23.5530   47.8340 C   0  0  0  0  0  0  0  0  0  0  0  0
  184.0270   24.4880   46.9340 C   0  0  0  0  0  0  0  0  0  0  0  0
  185.2000   25.1790   47.2430 C   0  0  0  0  0  0  0  0  0  0  0  0
  185.8580   24.9390   48.4510 C   0  0  0  0  0  0  0  0  0  0  0  0
  185.3420   24.0070   49.3480 C   0  0  0  0  0  0  0  0  0  0  0  0
  186.0350   23.8200   50.5120 O   0  0  0  0  0  0  0  0  0  0  0  0
  184.1680   23.3130   49.0370 C   0  0  0  0  0  0  0  0  0  0  0  0
  183.5930   22.3250   49.9520 C   0  0  0  0  0  0  0  0  0  0  0  0
  184.1090   22.0640   51.0360 O   0  0  0  0  0  0  0  0  0  0  0  0
  182.3510   21.6410   49.5250 C   0  0  0  0  0  0  0  0  0  0  0  0
  181.8090   20.7190   50.4020 O   0  0  0  0  0  0  0  0  0  0  0  0
  180.6480   20.3120   46.8760 C   0  0  0  0  0  0  0  0  0  0  0  0
  179.4850   19.7110   46.3860 C   0  0  0  0  0  0  0  0  0  0  0  0
  178.2180   20.1290   46.8180 C   0  0  0  0  0  0  0  0  0  0  0  0
  176.9980   19.4450   46.2640 C   0  0  0  0  0  0  0  0  0  0  0  0
  175.2988   19.6519   50.6733 H   0  0  0  0  0  0  0  0  0  0  0  0
  174.6279   20.2510   49.1184 H   0  0  0  0  0  0  0  0  0  0  0  0
  176.0299   19.1280   49.1184 H   0  0  0  0  0  0  0  0  0  0  0  0
  176.0374   21.9534   50.2874 H   0  0  0  0  0  0  0  0  0  0  0  0
  177.4420   20.8188   50.1530 H   0  0  0  0  0  0  0  0  0  0  0  0
  176.0024   21.3531   47.6081 H   0  0  0  0  0  0  0  0  0  0  0  0
  176.8581   22.7734   48.3413 H   0  0  0  0  0  0  0  0  0  0  0  0
  179.2375   22.5654   48.9975 H   0  0  0  0  0  0  0  0  0  0  0  0
  183.5087   24.6800   45.9830 H   0  0  0  0  0  0  0  0  0  0  0  0
  185.6069   25.9143   46.5332 H   0  0  0  0  0  0  0  0  0  0  0  0
  186.7817   25.4848   48.6935 H   0  0  0  0  0  0  0  0  0  0  0  0
  186.4920   24.5370   50.9050 H   0  0  0  0  0  0  0  0  0  0  0  0
  181.5220   20.9920   51.2510 H   0  0  0  0  0  0  0  0  0  0  0  0
  181.6303   19.9635   46.5243 H   0  0  0  0  0  0  0  0  0  0  0  0
  179.5649   18.8974   45.6500 H   0  0  0  0  0  0  0  0  0  0  0  0
  176.3675   19.0915   47.0932 H   0  0  0  0  0  0  0  0  0  0  0  0
  176.4280   20.1551   45.6469 H   0  0  0  0  0  0  0  0  0  0  0  0
  177.3064   18.5883   45.6469 H   0  0  0  0  0  0  0  0  0  0  0  0
  1  2  1  0
  2  3  1  0
  3  4  1  0
  4  5  2  0
  5  6  1  0
  6  7  1  0
  7  8  1  0
  8  9  1  0
  9 10  2  0
 10 11  1  0
 11 12  2  0
 12 13  1  0
 13 14  1  0
 13 15  2  0
 15 16  1  0
 16 17  2  0
 16 18  1  0
 18 19  1  0
  6 20  2  0
 20 21  1  0
 21 22  2  0
 22 23  1  0
 22  4  1  0
 18  7  2  0
 15  9  1  0
  1 24  1  0
  1 25  1  0
  1 26  1  0
  2 27  1  0
  2 28  1  0
  3 29  1  0
  3 30  1  0
  5 31  1  0
 10 32  1  0
 11 33  1  0
 12 34  1  0
 14 35  1  0
 19 36  1  0
 20 37  1  0
 21 38  1  0
 23 39  1  0
 23 40  1  0
 23 41  1  0
M  END
>  <meeko>  (8) 
{"is_sidechain": [false], "free_energy": -6.812, "intermolecular_energy": -8.351, "internal_energy": -0.689}

$$$$
cand_022_out
     RDKit          3D

 41 43  0  0  0  0  0  0  0  0999 V2000
  171.8800   24.1480   48.9810 C   0  0  0  0  0  0  0  0  0  0  0  0
  173.1790   23.4270   49.3030 C   0  0  0  0  0  0  0  0  0  0  0  0
  174.3010   24.4160   49.6250 C   0  0  0  0  0  0  0  0  0  0  0  0
  175.5060   23.7210   50.2210 C   0  0  0  0  0  0  0  0  0  0  0  0
  176.5470   23.3310   49.3540 C   0  0  0  0  0  0  0  0  0  0  0  0
  177.6870   22.6640   49.8240 C   0  0  0  0  0  0  0  0  0  0  0  0
  178.7910   22.2780   48.9210 C   0  0  0  0  0  0  0  0  0  0  0  0
  178.5130   21.1320   48.1850 O   0  0  0  0  0  0  0  0  0  0  0  0
  179.4550   20.6630   47.3060 C   0  0  0  0  0  0  0  0  0  0  0  0
  179.1390   19.5020   46.5990 C   0  0  0  0  0  0  0  0  0  0  0  0
  180.0540   18.9710   45.6860 C   0  0  0  0  0  0  0  0  0  0  0  0
  181.2830   19.6020   45.4800 C   0  0  0  0  0  0  0  0  0  0  0  0
  181.5950   20.7610   46.1860 C   0  0  0  0  0  0  0  0  0  0  0  0
  182.8140   21.3270   45.9350 O   0  0  0  0  0  0  0  0  0  0  0  0
  180.6790   21.2910   47.1000 C   0  0  0  0  0  0  0  0  0  0  0  0
  180.9690   22.5060   47.8630 C   0  0  0  0  0  0  0  0  0  0  0  0
  182.0250   23.1210   47.7310 O   0  0  0  0  0  0  0  0  0  0  0  0
  179.9350   22.9800   48.8110 C   0  0  0  0  0  0  0  0  0  0  0  0
  180.2130   24.1370   49.5170 O   0  0  0  0  0  0  0  0  0  0  0  0
  177.7840   22.4030   51.1940 C   0  0  0  0  0  0  0  0  0  0  0  0
  176.7590   22.7780   52.0670 C   0  0  0  0  0  0  0  0  0  0  0  0
  175.6100   23.4290   51.5950 C   0  0  0  0  0  0  0  0  0  0  0  0
  174.5380   23.8170   52.5760 C   0  0  0  0  0  0  0  0  0  0  0  0
  171.3746   24.4285   49.9169 H   0  0  0  0  0  0  0  0  0  0  0  0
  172.0986   25.0539   48.3966 H   0  0  0  0  0  0  0  0  0  0  0  0
  171.2268   23.4833   48.3966 H   0  0  0  0  0  0  0  0  0  0  0  0
  173.0189   22.7720   50.1721 H   0  0  0  0  0  0  0  0  0  0  0  0
  173.4770   22.8401   48.4217 H   0  0  0  0  0  0  0  0  0  0  0  0
  174.6050   24.9243   48.6981 H   0  0  0  0  0  0  0  0  0  0  0  0
  173.9209   25.1370   50.3637 H   0  0  0  0  0  0  0  0  0  0  0  0
  176.4626   23.5559   48.2806 H   0  0  0  0  0  0  0  0  0  0  0  0
  178.1708   19.0055   46.7602 H   0  0  0  0  0  0  0  0  0  0  0  0
  179.8062   18.0553   45.1291 H   0  0  0  0  0  0  0  0  0  0  0  0
  182.0032   19.1841   44.7612 H   0  0  0  0  0  0  0  0  0  0  0  0
  183.3390   21.6420   46.6460 H   0  0  0  0  0  0  0  0  0  0  0  0
  180.9320   24.6810   49.2600 H   0  0  0  0  0  0  0  0  0  0  0  0
  178.6770   21.8968   51.5893 H   0  0  0  0  0  0  0  0  0  0  0  0
  176.8550   22.5592   53.1407 H   0  0  0  0  0  0  0  0  0  0  0  0
  174.9127   23.6814   53.6013 H   0  0  0  0  0  0  0  0  0  0  0  0
  174.2643   24.8712   52.4221 H   0  0  0  0  0  0  0  0  0  0  0  0
  173.6530   23.1822   52.4221 H   0  0  0  0  0  0  0  0  0  0  0  0
  1  2  1  0
  2  3  1  0
  3  4  1  0
  4  5  2  0
  5  6  1  0
  6  7  1  0
  7  8  1  0
  8  9  1  0
  9 10  2  0
 10 11  1  0
 11 12  2  0
 12 13  1  0
 13 14  1  0
 13 15  2  0
 15 16  1  0
 16 17  2  0
 16 18  1  0
 18 19  1  0
  6 20  2  0
 20 21  1  0
 21 22  2  0
 22 23  1  0
 22  4  1  0
 18  7  2  0
 15  9  1  0
  1 24  1  0
  1 25  1  0
  1 26  1  0
  2 27  1  0
  2 28  1  0
  3 29  1  0
  3 30  1  0
  5 31  1  0
 10 32  1  0
 11 33  1  0
 12 34  1  0
 14 35  1  0
 19 36  1  0
 20 37  1  0
 21 38  1  0
 23 39  1  0
 23 40  1  0
 23 41  1  0
M  END
>  <meeko>  (9) 
{"is_sidechain": [false], "free_energy": -6.778, "intermolecular_energy": -8.478, "internal_energy": -0.519}

$$$$
