kaempferol_maoa_out
     RDKit          3D

 31 33  0  0  0  0  0  0  0  0999 V2000
   38.7040   28.8050  -13.0640 O   0  0  0  0  0  0  0  0  0  0  0  0
   39.3830   28.1130  -13.8200 C   0  0  0  0  0  0  0  0  0  0  0  0
   40.7140   27.6210  -13.3990 C   0  0  0  0  0  0  0  0  0  0  0  0
   41.1390   27.9650  -12.1280 O   0  0  0  0  0  0  0  0  0  0  0  0
   41.4210   26.8640  -14.2580 C   0  0  0  0  0  0  0  0  0  0  0  0
   42.7540   26.3060  -13.9420 C   0  0  0  0  0  0  0  0  0  0  0  0
   43.6420   26.9600  -13.0740 C   0  0  0  0  0  0  0  0  0  0  0  0
   44.9070   26.4270  -12.8070 C   0  0  0  0  0  0  0  0  0  0  0  0
   45.2920   25.2390  -13.4160 C   0  0  0  0  0  0  0  0  0  0  0  0
   46.5150   24.6840  -13.1840 O   0  0  0  0  0  0  0  0  0  0  0  0
   44.4360   24.5790  -14.2870 C   0  0  0  0  0  0  0  0  0  0  0  0
   43.1710   25.1120  -14.5520 C   0  0  0  0  0  0  0  0  0  0  0  0
   40.9710   26.5030  -15.5230 O   0  0  0  0  0  0  0  0  0  0  0  0
   39.7440   26.9490  -15.9450 C   0  0  0  0  0  0  0  0  0  0  0  0
   39.3370   26.5740  -17.2240 C   0  0  0  0  0  0  0  0  0  0  0  0
   38.1000   26.9970  -17.7020 C   0  0  0  0  0  0  0  0  0  0  0  0
   37.7390   26.6080  -18.9570 O   0  0  0  0  0  0  0  0  0  0  0  0
   37.2620   27.7920  -16.9220 C   0  0  0  0  0  0  0  0  0  0  0  0
   37.6740   28.1640  -15.6460 C   0  0  0  0  0  0  0  0  0  0  0  0
   36.8120   28.9440  -14.9230 O   0  0  0  0  0  0  0  0  0  0  0  0
   38.9160   27.7430  -15.1560 C   0  0  0  0  0  0  0  0  0  0  0  0
   40.8680   27.4550  -11.3900 H   0  0  0  0  0  0  0  0  0  0  0  0
   43.3390   27.9040  -12.5975 H   0  0  0  0  0  0  0  0  0  0  0  0
   45.5924   26.9446  -12.1197 H   0  0  0  0  0  0  0  0  0  0  0  0
   47.1690   24.6930  -13.8560 H   0  0  0  0  0  0  0  0  0  0  0  0
   44.7516   23.6407  -14.7666 H   0  0  0  0  0  0  0  0  0  0  0  0
   42.4952   24.5905  -15.2457 H   0  0  0  0  0  0  0  0  0  0  0  0
   39.9887   25.9481  -17.8514 H   0  0  0  0  0  0  0  0  0  0  0  0
   37.0150   27.0200  -19.3850 H   0  0  0  0  0  0  0  0  0  0  0  0
   36.2869   28.1213  -17.3103 H   0  0  0  0  0  0  0  0  0  0  0  0
   37.1030   29.3570  -14.1340 H   0  0  0  0  0  0  0  0  0  0  0  0
  1  2  2  0
  2  3  1  0
  3  4  1  0
  3  5  2  0
  5  6  1  0
  6  7  2  0
  7  8  1  0
  8  9  2  0
  9 10  1  0
  9 11  1  0
 11 12  2  0
  5 13  1  0
 13 14  1  0
 14 15  2  0
 15 16  1  0
 16 17  1  0
 16 18  2  0
 18 19  1  0
 19 20  1  0
 19 21  2  0
 21  2  1  0
 12  6  1  0
 21 14  1  0
  4 22  1  0
  7 23  1  0
  8 24  1  0
 10 25  1  0
 11 26  1  0
 12 27  1  0
 15 28  1  0
 17 29  1  0
 18 30  1  0
 20 31  1  0
M  END
>  <meeko>  (1) 
{"is_sidechain": [false], "free_energy": -8.965, "intermolecular_energy": -10.538, "internal_energy": 0.169}

$$$$
kaempferol_maoa_out
     RDKit          3D

 31 33  0  0  0  0  0  0  0  0999 V2000
   39.1940   26.4890  -18.1860 O   0  0  0  0  0  0  0  0  0  0  0  0
   39.5110   26.7900  -17.0370 C   0  0  0  0  0  0  0  0  0  0  0  0
   40.7690   26.2810  -16.4450 C   0  0  0  0  0  0  0  0  0  0  0  0
   41.5580   25.4740  -17.2440 O   0  0  0  0  0  0  0  0  0  0  0  0
   41.0780   26.6390  -15.1850 C   0  0  0  0  0  0  0  0  0  0  0  0
   42.3120   26.2040  -14.4960 C   0  0  0  0  0  0  0  0  0  0  0  0
   42.7700   26.8370  -13.3290 C   0  0  0  0  0  0  0  0  0  0  0  0
   43.9520   26.4250  -12.7060 C   0  0  0  0  0  0  0  0  0  0  0  0
   44.6860   25.3800  -13.2550 C   0  0  0  0  0  0  0  0  0  0  0  0
   45.8430   24.9450  -12.6800 O   0  0  0  0  0  0  0  0  0  0  0  0
   44.2600   24.7450  -14.4120 C   0  0  0  0  0  0  0  0  0  0  0  0
   43.0780   25.1570  -15.0340 C   0  0  0  0  0  0  0  0  0  0  0  0
   40.2880   27.4730  -14.4010 O   0  0  0  0  0  0  0  0  0  0  0  0
   39.1130   27.9560  -14.9190 C   0  0  0  0  0  0  0  0  0  0  0  0
   38.3460   28.7800  -14.0960 C   0  0  0  0  0  0  0  0  0  0  0  0
   37.1460   29.2980  -14.5720 C   0  0  0  0  0  0  0  0  0  0  0  0
   36.4270   30.0990  -13.7360 O   0  0  0  0  0  0  0  0  0  0  0  0
   36.6960   29.0080  -15.8590 C   0  0  0  0  0  0  0  0  0  0  0  0
   37.4660   28.1840  -16.6760 C   0  0  0  0  0  0  0  0  0  0  0  0
   36.9780   27.9320  -17.9300 O   0  0  0  0  0  0  0  0  0  0  0  0
   38.6750   27.6590  -16.2070 C   0  0  0  0  0  0  0  0  0  0  0  0
   42.3280   25.8240  -17.6480 H   0  0  0  0  0  0  0  0  0  0  0  0
   42.1912   27.6679  -12.8994 H   0  0  0  0  0  0  0  0  0  0  0  0
   44.2983   26.9238  -11.7888 H   0  0  0  0  0  0  0  0  0  0  0  0
   45.9060   24.8760  -11.7470 H   0  0  0  0  0  0  0  0  0  0  0  0
   44.8500   23.9204  -14.8385 H   0  0  0  0  0  0  0  0  0  0  0  0
   42.7442   24.6559  -15.9546 H   0  0  0  0  0  0  0  0  0  0  0  0
   38.6874   29.0186  -13.0779 H   0  0  0  0  0  0  0  0  0  0  0  0
   35.5460   30.3320  -13.9540 H   0  0  0  0  0  0  0  0  0  0  0  0
   35.7456   29.4243  -16.2243 H   0  0  0  0  0  0  0  0  0  0  0  0
   37.4890   27.4390  -18.5410 H   0  0  0  0  0  0  0  0  0  0  0  0
  1  2  2  0
  2  3  1  0
  3  4  1  0
  3  5  2  0
  5  6  1  0
  6  7  2  0
  7  8  1  0
  8  9  2  0
  9 10  1  0
  9 11  1  0
 11 12  2  0
  5 13  1  0
 13 14  1  0
 14 15  2  0
 15 16  1  0
 16 17  1  0
 16 18  2  0
 18 19  1  0
 19 20  1  0
 19 21  2  0
 21  2  1  0
 12  6  1  0
 21 14  1  0
  4 22  1  0
  7 23  1  0
  8 24  1  0
 10 25  1  0
 11 26  1  0
 12 27  1  0
 15 28  1  0
 17 29  1  0
 18 30  1  0
 20 31  1  0
M  END
>  <meeko>  (2) 
{"is_sidechain": [false], "free_energy": -8.114, "intermolecular_energy": -9.746, "internal_energy": 0.378}

$$$$
kaempferol_maoa_out
     RDKit          3D

 31 33  0  0  0  0  0  0  0  0999 V2000
   40.9610   27.3430  -11.3230 O   0  0  0  0  0  0  0  0  0  0  0  0
   41.0770   27.0870  -12.5200 C   0  0  0  0  0  0  0  0  0  0  0  0
   39.9630   27.3560  -13.4580 C   0  0  0  0  0  0  0  0  0  0  0  0
   38.8140   27.9120  -12.9270 O   0  0  0  0  0  0  0  0  0  0  0  0
   40.1350   27.0630  -14.7610 C   0  0  0  0  0  0  0  0  0  0  0  0
   39.1000   27.3000  -15.7900 C   0  0  0  0  0  0  0  0  0  0  0  0
   39.0060   26.5030  -16.9420 C   0  0  0  0  0  0  0  0  0  0  0  0
   38.0350   26.7590  -17.9140 C   0  0  0  0  0  0  0  0  0  0  0  0
   37.1570   27.8230  -17.7420 C   0  0  0  0  0  0  0  0  0  0  0  0
   36.1950   28.1080  -18.6640 O   0  0  0  0  0  0  0  0  0  0  0  0
   37.2360   28.6320  -16.6170 C   0  0  0  0  0  0  0  0  0  0  0  0
   38.2070   28.3740  -15.6450 C   0  0  0  0  0  0  0  0  0  0  0  0
   41.3060   26.5270  -15.2860 O   0  0  0  0  0  0  0  0  0  0  0  0
   42.3530   26.2610  -14.4410 C   0  0  0  0  0  0  0  0  0  0  0  0
   43.5040   25.7140  -15.0070 C   0  0  0  0  0  0  0  0  0  0  0  0
   44.5970   25.4250  -14.1960 C   0  0  0  0  0  0  0  0  0  0  0  0
   45.7020   24.8930  -14.7890 O   0  0  0  0  0  0  0  0  0  0  0  0
   44.5600   25.6730  -12.8250 C   0  0  0  0  0  0  0  0  0  0  0  0
   43.4080   26.2180  -12.2650 C   0  0  0  0  0  0  0  0  0  0  0  0
   43.4260   26.4410  -10.9140 O   0  0  0  0  0  0  0  0  0  0  0  0
   42.3040   26.5130  -13.0730 C   0  0  0  0  0  0  0  0  0  0  0  0
   38.1110   28.1630  -13.4940 H   0  0  0  0  0  0  0  0  0  0  0  0
   39.7059   25.6659  -17.0814 H   0  0  0  0  0  0  0  0  0  0  0  0
   37.9660   26.1230  -18.8089 H   0  0  0  0  0  0  0  0  0  0  0  0
   35.7110   28.9090  -18.6050 H   0  0  0  0  0  0  0  0  0  0  0  0
   36.5376   29.4725  -16.4908 H   0  0  0  0  0  0  0  0  0  0  0  0
   38.2723   29.0195  -14.7567 H   0  0  0  0  0  0  0  0  0  0  0  0
   43.5476   25.5123  -16.0875 H   0  0  0  0  0  0  0  0  0  0  0  0
   45.7150   24.7540  -15.7160 H   0  0  0  0  0  0  0  0  0  0  0  0
   45.4302   25.4410  -12.1934 H   0  0  0  0  0  0  0  0  0  0  0  0
   42.6500   26.7290  -10.4760 H   0  0  0  0  0  0  0  0  0  0  0  0
  1  2  2  0
  2  3  1  0
  3  4  1  0
  3  5  2  0
  5  6  1  0
  6  7  2  0
  7  8  1  0
  8  9  2  0
  9 10  1  0
  9 11  1  0
 11 12  2  0
  5 13  1  0
 13 14  1  0
 14 15  2  0
 15 16  1  0
 16 17  1  0
 16 18  2  0
 18 19  1  0
 19 20  1  0
 19 21  2  0
 21  2  1  0
 12  6  1  0
 21 14  1  0
  4 22  1  0
  7 23  1  0
  8 24  1  0
 10 25  1  0
 11 26  1  0
 12 27  1  0
 15 28  1  0
 17 29  1  0
 18 30  1  0
 20 31  1  0
M  END
>  <meeko>  (3) 
{"is_sidechain": [false], "free_energy": -7.195, "intermolecular_energy": -8.51, "internal_energy": 0.222}

$$$$
kaempferol_maoa_out
     RDKit          3D

 31 33  0  0  0  0  0  0  0  0999 V2000
   41.6730   25.6400  -17.1670 O   0  0  0  0  0  0  0  0  0  0  0  0
   40.7760   26.2470  -16.5840 C   0  0  0  0  0  0  0  0  0  0  0  0
   39.6330   26.8080  -17.3370 C   0  0  0  0  0  0  0  0  0  0  0  0
   39.6210   26.6060  -18.7050 O   0  0  0  0  0  0  0  0  0  0  0  0
   38.6730   27.4620  -16.6570 C   0  0  0  0  0  0  0  0  0  0  0  0
   37.4790   28.0520  -17.3000 C   0  0  0  0  0  0  0  0  0  0  0  0
   36.8160   27.4090  -18.3580 C   0  0  0  0  0  0  0  0  0  0  0  0
   35.7020   27.9950  -18.9680 C   0  0  0  0  0  0  0  0  0  0  0  0
   35.2520   29.2340  -18.5260 C   0  0  0  0  0  0  0  0  0  0  0  0
   34.1710   29.8410  -19.0920 O   0  0  0  0  0  0  0  0  0  0  0  0
   35.8970   29.8940  -17.4890 C   0  0  0  0  0  0  0  0  0  0  0  0
   37.0090   29.3060  -16.8800 C   0  0  0  0  0  0  0  0  0  0  0  0
   38.6830   27.6360  -15.2770 O   0  0  0  0  0  0  0  0  0  0  0  0
   39.7330   27.1330  -14.5520 C   0  0  0  0  0  0  0  0  0  0  0  0
   39.7100   27.3390  -13.1730 C   0  0  0  0  0  0  0  0  0  0  0  0
   40.7500   26.8480  -12.3890 C   0  0  0  0  0  0  0  0  0  0  0  0
   40.6880   27.0710  -11.0450 O   0  0  0  0  0  0  0  0  0  0  0  0
   41.8150   26.1540  -12.9580 C   0  0  0  0  0  0  0  0  0  0  0  0
   41.8330   25.9520  -14.3360 C   0  0  0  0  0  0  0  0  0  0  0  0
   42.9030   25.2640  -14.8430 O   0  0  0  0  0  0  0  0  0  0  0  0
   40.7920   26.4410  -15.1330 C   0  0  0  0  0  0  0  0  0  0  0  0
   39.3830   27.3070  -19.2800 H   0  0  0  0  0  0  0  0  0  0  0  0
   37.1774   26.4320  -18.7115 H   0  0  0  0  0  0  0  0  0  0  0  0
   35.1858   27.4794  -19.7913 H   0  0  0  0  0  0  0  0  0  0  0  0
   33.3110   29.6740  -18.7580 H   0  0  0  0  0  0  0  0  0  0  0  0
   35.5346   30.8751  -17.1482 H   0  0  0  0  0  0  0  0  0  0  0  0
   37.5221   29.8324  -16.0616 H   0  0  0  0  0  0  0  0  0  0  0  0
   38.8761   27.8855  -12.7083 H   0  0  0  0  0  0  0  0  0  0  0  0
   39.9820   27.5720  -10.6860 H   0  0  0  0  0  0  0  0  0  0  0  0
   42.6309   25.7706  -12.3277 H   0  0  0  0  0  0  0  0  0  0  0  0
   42.8150   24.3580  -15.0650 H   0  0  0  0  0  0  0  0  0  0  0  0
  1  2  2  0
  2  3  1  0
  3  4  1  0
  3  5  2  0
  5  6  1  0
  6  7  2  0
  7  8  1  0
  8  9  2  0
  9 10  1  0
  9 11  1  0
 11 12  2  0
  5 13  1  0
 13 14  1  0
 14 15  2  0
 15 16  1  0
 16 17  1  0
 16 18  2  0
 18 19  1  0
 19 20  1  0
 19 21  2  0
 21  2  1  0
 12  6  1  0
 21 14  1  0
  4 22  1  0
  7 23  1  0
  8 24  1  0
 10 25  1  0
 11 26  1  0
 12 27  1  0
 15 28  1  0
 17 29  1  0
 18 30  1  0
 20 31  1  0
M  END
>  <meeko>  (4) 
{"is_sidechain": [false], "free_energy": -6.793, "intermolecular_energy": -7.897, "internal_energy": 0.081}

$$$$
kaempferol_maoa_out
     RDKit          3D

 31 33  0  0  0  0  0  0  0  0999 V2000
   37.0030   29.8300  -14.3560 O   0  0  0  0  0  0  0  0  0  0  0  0
   37.8120   28.9800  -14.7220 C   0  0  0  0  0  0  0  0  0  0  0  0
   38.9550   28.6060  -13.8590 C   0  0  0  0  0  0  0  0  0  0  0  0
   39.0530   29.2430  -12.6350 O   0  0  0  0  0  0  0  0  0  0  0  0
   39.8140   27.6690  -14.2990 C   0  0  0  0  0  0  0  0  0  0  0  0
   40.9820   27.2060  -13.5180 C   0  0  0  0  0  0  0  0  0  0  0  0
   40.9530   27.1340  -12.1170 C   0  0  0  0  0  0  0  0  0  0  0  0
   42.0760   26.7160  -11.3960 C   0  0  0  0  0  0  0  0  0  0  0  0
   43.2380   26.3750  -12.0780 C   0  0  0  0  0  0  0  0  0  0  0  0
   44.3560   25.9620  -11.4160 O   0  0  0  0  0  0  0  0  0  0  0  0
   43.2960   26.4480  -13.4620 C   0  0  0  0  0  0  0  0  0  0  0  0
   42.1720   26.8650  -14.1810 C   0  0  0  0  0  0  0  0  0  0  0  0
   39.6890   27.0170  -15.5210 O   0  0  0  0  0  0  0  0  0  0  0  0
   38.6440   27.3460  -16.3460 C   0  0  0  0  0  0  0  0  0  0  0  0
   38.5630   26.6770  -17.5670 C   0  0  0  0  0  0  0  0  0  0  0  0
   37.5220   26.9710  -18.4420 C   0  0  0  0  0  0  0  0  0  0  0  0
   37.4790   26.2930  -19.6240 O   0  0  0  0  0  0  0  0  0  0  0  0
   36.5590   27.9250  -18.1200 C   0  0  0  0  0  0  0  0  0  0  0  0
   36.6460   28.5910  -16.9000 C   0  0  0  0  0  0  0  0  0  0  0  0
   35.6740   29.5170  -16.6350 O   0  0  0  0  0  0  0  0  0  0  0  0
   37.6880   28.3010  -16.0130 C   0  0  0  0  0  0  0  0  0  0  0  0
   39.1090   30.1780  -12.5970 H   0  0  0  0  0  0  0  0  0  0  0  0
   40.0344   27.4101  -11.5785 H   0  0  0  0  0  0  0  0  0  0  0  0
   42.0399   26.6576  -10.2981 H   0  0  0  0  0  0  0  0  0  0  0  0
   44.7760   26.5340  -10.8020 H   0  0  0  0  0  0  0  0  0  0  0  0
   44.2221   26.1790  -13.9912 H   0  0  0  0  0  0  0  0  0  0  0  0
   42.2202   26.9267  -15.2782 H   0  0  0  0  0  0  0  0  0  0  0  0
   39.3167   25.9224  -17.8363 H   0  0  0  0  0  0  0  0  0  0  0  0
   37.0740   25.4490  -19.6650 H   0  0  0  0  0  0  0  0  0  0  0  0
   35.7408   28.1492  -18.8202 H   0  0  0  0  0  0  0  0  0  0  0  0
   34.8390   29.4540  -17.0540 H   0  0  0  0  0  0  0  0  0  0  0  0
  1  2  2  0
  2  3  1  0
  3  4  1  0
  3  5  2  0
  5  6  1  0
  6  7  2  0
  7  8  1  0
  8  9  2  0
  9 10  1  0
  9 11  1  0
 11 12  2  0
  5 13  1  0
 13 14  1  0
 14 15  2  0
 15 16  1  0
 16 17  1  0
 16 18  2  0
 18 19  1  0
 19 20  1  0
 19 21  2  0
 21  2  1  0
 12  6  1  0
 21 14  1  0
  4 22  1  0
  7 23  1  0
  8 24  1  0
 10 25  1  0
 11 26  1  0
 12 27  1  0
 15 28  1  0
 17 29  1  0
 18 30  1  0
 20 31  1  0
M  END
>  <meeko>  (5) 
{"is_sidechain": [false], "free_energy": -6.654, "intermolecular_energy": -7.792, "internal_energy": 0.14}

$$$$
kaempferol_maoa_out
     RDKit          3D

 31 33  0  0  0  0  0  0  0  0999 V2000
   39.7730   28.4170  -12.1570 O   0  0  0  0  0  0  0  0  0  0  0  0
   39.8780   27.9270  -13.2790 C   0  0  0  0  0  0  0  0  0  0  0  0
   38.8240   28.1410  -14.2960 C   0  0  0  0  0  0  0  0  0  0  0  0
   37.7410   28.9180  -13.9260 O   0  0  0  0  0  0  0  0  0  0  0  0
   38.9820   27.5880  -15.5130 C   0  0  0  0  0  0  0  0  0  0  0  0
   38.0030   27.7450  -16.6100 C   0  0  0  0  0  0  0  0  0  0  0  0
   37.0860   28.8070  -16.6370 C   0  0  0  0  0  0  0  0  0  0  0  0
   36.1530   28.9250  -17.6720 C   0  0  0  0  0  0  0  0  0  0  0  0
   36.1300   27.9710  -18.6830 C   0  0  0  0  0  0  0  0  0  0  0  0
   35.2380   28.0470  -19.7110 O   0  0  0  0  0  0  0  0  0  0  0  0
   37.0190   26.9060  -18.6740 C   0  0  0  0  0  0  0  0  0  0  0  0
   37.9520   26.7900  -17.6390 C   0  0  0  0  0  0  0  0  0  0  0  0
   40.0880   26.8300  -15.8810 O   0  0  0  0  0  0  0  0  0  0  0  0
   41.0790   26.6080  -14.9580 C   0  0  0  0  0  0  0  0  0  0  0  0
   42.1650   25.8340  -15.3650 C   0  0  0  0  0  0  0  0  0  0  0  0
   43.1990   25.5780  -14.4690 C   0  0  0  0  0  0  0  0  0  0  0  0
   44.2420   24.8170  -14.9070 O   0  0  0  0  0  0  0  0  0  0  0  0
   43.1670   26.0840  -13.1710 C   0  0  0  0  0  0  0  0  0  0  0  0
   42.0800   26.8560  -12.7710 C   0  0  0  0  0  0  0  0  0  0  0  0
   42.1010   27.3280  -11.4860 O   0  0  0  0  0  0  0  0  0  0  0  0
   41.0360   27.1190  -13.6640 C   0  0  0  0  0  0  0  0  0  0  0  0
   37.1000   29.1610  -14.5640 H   0  0  0  0  0  0  0  0  0  0  0  0
   37.1013   29.5572  -15.8327 H   0  0  0  0  0  0  0  0  0  0  0  0
   35.4434   29.7654  -17.6861 H   0  0  0  0  0  0  0  0  0  0  0  0
   35.4350   28.5670  -20.4650 H   0  0  0  0  0  0  0  0  0  0  0  0
   36.9900   26.1558  -19.4779 H   0  0  0  0  0  0  0  0  0  0  0  0
   38.6531   25.9424  -17.6304 H   0  0  0  0  0  0  0  0  0  0  0  0
   42.2044   25.4286  -16.3868 H   0  0  0  0  0  0  0  0  0  0  0  0
   44.1340   24.2620  -15.6540 H   0  0  0  0  0  0  0  0  0  0  0  0
   43.9901   25.8760  -12.4715 H   0  0  0  0  0  0  0  0  0  0  0  0
   42.9180   27.4580  -11.0470 H   0  0  0  0  0  0  0  0  0  0  0  0
  1  2  2  0
  2  3  1  0
  3  4  1  0
  3  5  2  0
  5  6  1  0
  6  7  2  0
  7  8  1  0
  8  9  2  0
  9 10  1  0
  9 11  1  0
 11 12  2  0
  5 13  1  0
 13 14  1  0
 14 15  2  0
 15 16  1  0
 16 17  1  0
 16 18  2  0
 18 19  1  0
 19 20  1  0
 19 21  2  0
 21  2  1  0
 12  6  1  0
 21 14  1  0
  4 22  1  0
  7 23  1  0
  8 24  1  0
 10 25  1  0
 11 26  1  0
 12 27  1  0
 15 28  1  0
 17 29  1  0
 18 30  1  0
 20 31  1  0
M  END
>  <meeko>  (6) 
{"is_sidechain": [false], "free_energy": -6.258, "intermolecular_energy": -7.439, "internal_energy": 0.252}

$$$$
