cand_002_out
     RDKit          3D

 45 48  0  0  0  0  0  0  0  0999 V2000
   51.4130  153.1840   29.4970 C   0  0  0  0  0  0  0  0  0  0  0  0
   51.7500  154.5130   28.8780 C   0  0  0  0  0  0  0  0  0  0  0  0
   51.4070  155.6860   29.5780 C   0  0  0  0  0  0  0  0  0  0  0  0
   51.6740  156.9620   29.0590 C   0  0  0  0  0  0  0  0  0  0  0  0
   51.2750  158.1650   29.8200 C   0  0  0  0  0  0  0  0  0  0  0  0
   49.9570  158.1150   30.2570 O   0  0  0  0  0  0  0  0  0  0  0  0
   49.4550  159.1690   30.9780 C   0  0  0  0  0  0  0  0  0  0  0  0
   48.1230  159.0830   31.3830 C   0  0  0  0  0  0  0  0  0  0  0  0
   47.5510  160.1210   32.1210 C   0  0  0  0  0  0  0  0  0  0  0  0
   48.3110  161.2440   32.4540 C   0  0  0  0  0  0  0  0  0  0  0  0
   49.6400  161.3280   32.0480 C   0  0  0  0  0  0  0  0  0  0  0  0
   50.3260  162.4560   32.4080 O   0  0  0  0  0  0  0  0  0  0  0  0
   50.2110  160.2890   31.3080 C   0  0  0  0  0  0  0  0  0  0  0  0
   51.6040  160.3370   30.8620 C   0  0  0  0  0  0  0  0  0  0  0  0
   52.3380  161.2890   31.1200 O   0  0  0  0  0  0  0  0  0  0  0  0
   52.1120  159.1880   30.0770 C   0  0  0  0  0  0  0  0  0  0  0  0
   53.4330  159.2370   29.6720 O   0  0  0  0  0  0  0  0  0  0  0  0
   52.2780  157.0530   27.8030 C   0  0  0  0  0  0  0  0  0  0  0  0
   52.6140  155.9010   27.0890 C   0  0  0  0  0  0  0  0  0  0  0  0
   52.3540  154.6210   27.6100 C   0  0  0  0  0  0  0  0  0  0  0  0
   52.7350  153.4090   26.7770 C   0  0  0  0  0  0  0  0  0  0  0  0
   53.5390  153.7090   25.5300 C   0  0  0  0  0  0  0  0  0  0  0  0
   53.6340  152.7530   24.5080 C   0  0  0  0  0  0  0  0  0  0  0  0
   54.3930  153.0060   23.3640 C   0  0  0  0  0  0  0  0  0  0  0  0
   55.0730  154.2150   23.2310 C   0  0  0  0  0  0  0  0  0  0  0  0
   54.9990  155.1680   24.2450 C   0  0  0  0  0  0  0  0  0  0  0  0
   54.2410  154.9160   25.3890 C   0  0  0  0  0  0  0  0  0  0  0  0
   51.4357  153.2737   30.5931 H   0  0  0  0  0  0  0  0  0  0  0  0
   50.4078  152.8740   29.1753 H   0  0  0  0  0  0  0  0  0  0  0  0
   52.1490  152.4325   29.1753 H   0  0  0  0  0  0  0  0  0  0  0  0
   50.9163  155.5994   30.5586 H   0  0  0  0  0  0  0  0  0  0  0  0
   47.5239  158.1984   31.1212 H   0  0  0  0  0  0  0  0  0  0  0  0
   46.5005  160.0540   32.4404 H   0  0  0  0  0  0  0  0  0  0  0  0
   47.8603  162.0612   33.0363 H   0  0  0  0  0  0  0  0  0  0  0  0
   51.1580  162.3830   32.8310 H   0  0  0  0  0  0  0  0  0  0  0  0
   54.0730  158.6990   30.0950 H   0  0  0  0  0  0  0  0  0  0  0  0
   52.4912  158.0423   27.3718 H   0  0  0  0  0  0  0  0  0  0  0  0
   53.0902  155.9964   26.1020 H   0  0  0  0  0  0  0  0  0  0  0  0
   53.3293  152.7342   27.4106 H   0  0  0  0  0  0  0  0  0  0  0  0
   51.7887  152.9679   26.4305 H   0  0  0  0  0  0  0  0  0  0  0  0
   53.1049  151.7939   24.6090 H   0  0  0  0  0  0  0  0  0  0  0  0
   54.4543  152.2504   22.5669 H   0  0  0  0  0  0  0  0  0  0  0  0
   55.6670  154.4167   22.3274 H   0  0  0  0  0  0  0  0  0  0  0  0
   55.5392  156.1208   24.1433 H   0  0  0  0  0  0  0  0  0  0  0  0
   54.1932  155.6706   26.1880 H   0  0  0  0  0  0  0  0  0  0  0  0
  1  2  1  0
  2  3  2  0
  3  4  1  0
  4  5  1  0
  5  6  1  0
  6  7  1  0
  7  8  2  0
  8  9  1  0
  9 10  2  0
 10 11  1  0
 11 12  1  0
 11 13  2  0
 13 14  1  0
 14 15  2  0
 14 16  1  0
 16 17  1  0
  4 18  2  0
 18 19  1  0
 19 20  2  0
 20 21  1  0
 21 22  1  0
 22 23  2  0
 23 24  1  0
 24 25  2  0
 25 26  1  0
 26 27  2  0
 20  2  1  0
 27 22  1  0
 16  5  2  0
 13  7  1  0
  1 28  1  0
  1 29  1  0
  1 30  1  0
  3 31  1  0
  8 32  1  0
  9 33  1  0
 10 34  1  0
 12 35  1  0
 17 36  1  0
 18 37  1  0
 19 38  1  0
 21 39  1  0
 21 40  1  0
 23 41  1  0
 24 42  1  0
 25 43  1  0
 26 44  1  0
 27 45  1  0
M  END
>  <meeko>  (1) 
{"is_sidechain": [false], "free_energy": -10.517, "intermolecular_energy": -12.977, "internal_energy": 0.526}

$$$$
cand_002_out
     RDKit          3D

 45 48  0  0  0  0  0  0  0  0999 V2000
   53.9790  156.6170   24.8160 C   0  0  0  0  0  0  0  0  0  0  0  0
   53.3980  156.0070   26.0620 C   0  0  0  0  0  0  0  0  0  0  0  0
   52.7090  156.8430   26.9620 C   0  0  0  0  0  0  0  0  0  0  0  0
   52.1530  156.3510   28.1520 C   0  0  0  0  0  0  0  0  0  0  0  0
   51.4570  157.2710   29.0760 C   0  0  0  0  0  0  0  0  0  0  0  0
   52.1870  158.4230   29.3430 O   0  0  0  0  0  0  0  0  0  0  0  0
   51.6570  159.3660   30.1870 C   0  0  0  0  0  0  0  0  0  0  0  0
   52.4310  160.4990   30.4370 C   0  0  0  0  0  0  0  0  0  0  0  0
   51.9500  161.4980   31.2860 C   0  0  0  0  0  0  0  0  0  0  0  0
   50.6950  161.3630   31.8840 C   0  0  0  0  0  0  0  0  0  0  0  0
   49.9250  160.2310   31.6320 C   0  0  0  0  0  0  0  0  0  0  0  0
   48.7060  160.1630   32.2500 O   0  0  0  0  0  0  0  0  0  0  0  0
   50.4080  159.2310   30.7840 C   0  0  0  0  0  0  0  0  0  0  0  0
   49.6310  158.0260   30.4930 C   0  0  0  0  0  0  0  0  0  0  0  0
   48.5160  157.8380   30.9750 O   0  0  0  0  0  0  0  0  0  0  0  0
   50.2350  157.0230   29.5860 C   0  0  0  0  0  0  0  0  0  0  0  0
   49.4870  155.8940   29.3070 O   0  0  0  0  0  0  0  0  0  0  0  0
   52.3160  154.9950   28.4480 C   0  0  0  0  0  0  0  0  0  0  0  0
   53.0070  154.1530   27.5740 C   0  0  0  0  0  0  0  0  0  0  0  0
   53.5590  154.6430   26.3770 C   0  0  0  0  0  0  0  0  0  0  0  0
   54.3080  153.6760   25.4770 C   0  0  0  0  0  0  0  0  0  0  0  0
   53.8280  152.2410   25.5280 C   0  0  0  0  0  0  0  0  0  0  0  0
   54.4950  151.2500   24.7920 C   0  0  0  0  0  0  0  0  0  0  0  0
   54.0480  149.9280   24.8110 C   0  0  0  0  0  0  0  0  0  0  0  0
   52.9240  149.5810   25.5570 C   0  0  0  0  0  0  0  0  0  0  0  0
   52.2440  150.5580   26.2820 C   0  0  0  0  0  0  0  0  0  0  0  0
   52.6900  151.8810   26.2650 C   0  0  0  0  0  0  0  0  0  0  0  0
   54.7132  157.3878   25.0931 H   0  0  0  0  0  0  0  0  0  0  0  0
   54.4747  155.8352   24.2218 H   0  0  0  0  0  0  0  0  0  0  0  0
   53.1740  157.0741   24.2218 H   0  0  0  0  0  0  0  0  0  0  0  0
   52.6040  157.9120   26.7250 H   0  0  0  0  0  0  0  0  0  0  0  0
   53.4193  160.6056   29.9659 H   0  0  0  0  0  0  0  0  0  0  0  0
   52.5599  162.3918   31.4839 H   0  0  0  0  0  0  0  0  0  0  0  0
   50.3158  162.1497   32.5528 H   0  0  0  0  0  0  0  0  0  0  0  0
   48.1150  159.4650   32.0460 H   0  0  0  0  0  0  0  0  0  0  0  0
   48.5750  155.8720   29.5230 H   0  0  0  0  0  0  0  0  0  0  0  0
   51.8957  154.5867   29.3789 H   0  0  0  0  0  0  0  0  0  0  0  0
   53.1214  153.0884   27.8262 H   0  0  0  0  0  0  0  0  0  0  0  0
   54.2095  154.0307   24.4404 H   0  0  0  0  0  0  0  0  0  0  0  0
   55.3458  153.6628   25.8414 H   0  0  0  0  0  0  0  0  0  0  0  0
   55.3788  151.5176   24.1942 H   0  0  0  0  0  0  0  0  0  0  0  0
   54.5842  149.1588   24.2359 H   0  0  0  0  0  0  0  0  0  0  0  0
   52.5739  148.5383   25.5739 H   0  0  0  0  0  0  0  0  0  0  0  0
   51.3541  150.2862   26.8688 H   0  0  0  0  0  0  0  0  0  0  0  0
   52.1442  152.6477   26.8345 H   0  0  0  0  0  0  0  0  0  0  0  0
  1  2  1  0
  2  3  2  0
  3  4  1  0
  4  5  1  0
  5  6  1  0
  6  7  1  0
  7  8  2  0
  8  9  1  0
  9 10  2  0
 10 11  1  0
 11 12  1  0
 11 13  2  0
 13 14  1  0
 14 15  2  0
 14 16  1  0
 16 17  1  0
  4 18  2  0
 18 19  1  0
 19 20  2  0
 20 21  1  0
 21 22  1  0
 22 23  2  0
 23 24  1  0
 24 25  2  0
 25 26  1  0
 26 27  2  0
 20  2  1  0
 27 22  1  0
 16  5  2  0
 13  7  1  0
  1 28  1  0
  1 29  1  0
  1 30  1  0
  3 31  1  0
  8 32  1  0
  9 33  1  0
 10 34  1  0
 12 35  1  0
 17 36  1  0
 18 37  1  0
 19 38  1  0
 21 39  1  0
 21 40  1  0
 23 41  1  0
 24 42  1  0
 25 43  1  0
 26 44  1  0
 27 45  1  0
M  END
>  <meeko>  (2) 
{"is_sidechain": [false], "free_energy": -10.377, "intermolecular_energy": -12.624, "internal_energy": 0.347}

$$$$
cand_002_out
     RDKit          3D

 45 48  0  0  0  0  0  0  0  0999 V2000
   49.5540  157.6810   30.6080 C   0  0  0  0  0  0  0  0  0  0  0  0
   50.8220  157.5780   29.8070 C   0  0  0  0  0  0  0  0  0  0  0  0
   51.0770  156.3870   29.1010 C   0  0  0  0  0  0  0  0  0  0  0  0
   52.2450  156.2100   28.3440 C   0  0  0  0  0  0  0  0  0  0  0  0
   52.4790  154.9320   27.6370 C   0  0  0  0  0  0  0  0  0  0  0  0
   53.1940  155.0910   26.4570 O   0  0  0  0  0  0  0  0  0  0  0  0
   53.4820  153.9840   25.6990 C   0  0  0  0  0  0  0  0  0  0  0  0
   54.1900  154.1920   24.5150 C   0  0  0  0  0  0  0  0  0  0  0  0
   54.5160  153.1080   23.6990 C   0  0  0  0  0  0  0  0  0  0  0  0
   54.1340  151.8160   24.0660 C   0  0  0  0  0  0  0  0  0  0  0  0
   53.4280  151.6110   25.2490 C   0  0  0  0  0  0  0  0  0  0  0  0
   53.0860  150.3200   25.5480 O   0  0  0  0  0  0  0  0  0  0  0  0
   53.1010  152.6970   26.0650 C   0  0  0  0  0  0  0  0  0  0  0  0
   52.3600  152.5260   27.3150 C   0  0  0  0  0  0  0  0  0  0  0  0
   51.9950  151.4190   27.7090 O   0  0  0  0  0  0  0  0  0  0  0  0
   52.0570  153.7420   28.1040 C   0  0  0  0  0  0  0  0  0  0  0  0
   51.3680  153.5670   29.2900 O   0  0  0  0  0  0  0  0  0  0  0  0
   53.1820  157.2460   28.3190 C   0  0  0  0  0  0  0  0  0  0  0  0
   52.9520  158.4300   29.0230 C   0  0  0  0  0  0  0  0  0  0  0  0
   51.7790  158.6130   29.7760 C   0  0  0  0  0  0  0  0  0  0  0  0
   51.5970  159.9200   30.5270 C   0  0  0  0  0  0  0  0  0  0  0  0
   50.1840  160.2120   30.9830 C   0  0  0  0  0  0  0  0  0  0  0  0
   49.2280  160.6690   30.0620 C   0  0  0  0  0  0  0  0  0  0  0  0
   47.9280  160.9660   30.4740 C   0  0  0  0  0  0  0  0  0  0  0  0
   47.5680  160.8190   31.8120 C   0  0  0  0  0  0  0  0  0  0  0  0
   48.5100  160.3790   32.7400 C   0  0  0  0  0  0  0  0  0  0  0  0
   49.8110  160.0810   32.3290 C   0  0  0  0  0  0  0  0  0  0  0  0
   49.7955  157.6614   31.6810 H   0  0  0  0  0  0  0  0  0  0  0  0
   49.0421  158.6237   30.3646 H   0  0  0  0  0  0  0  0  0  0  0  0
   48.8966  156.8333   30.3646 H   0  0  0  0  0  0  0  0  0  0  0  0
   50.3395  155.5720   29.1441 H   0  0  0  0  0  0  0  0  0  0  0  0
   54.4909  155.2095   24.2250 H   0  0  0  0  0  0  0  0  0  0  0  0
   55.0746  153.2715   22.7656 H   0  0  0  0  0  0  0  0  0  0  0  0
   54.3902  150.9618   23.4220 H   0  0  0  0  0  0  0  0  0  0  0  0
   52.3270  149.9340   25.1580 H   0  0  0  0  0  0  0  0  0  0  0  0
   50.4380  153.6810   29.3130 H   0  0  0  0  0  0  0  0  0  0  0  0
   54.1095  157.1280   27.7395 H   0  0  0  0  0  0  0  0  0  0  0  0
   53.7021  159.2338   28.9877 H   0  0  0  0  0  0  0  0  0  0  0  0
   52.2428  159.8933   31.4171 H   0  0  0  0  0  0  0  0  0  0  0  0
   51.8586  160.7181   29.8167 H   0  0  0  0  0  0  0  0  0  0  0  0
   49.5063  160.7942   29.0052 H   0  0  0  0  0  0  0  0  0  0  0  0
   47.1864  161.3167   29.7412 H   0  0  0  0  0  0  0  0  0  0  0  0
   46.5422  161.0498   32.1352 H   0  0  0  0  0  0  0  0  0  0  0  0
   48.2285  160.2663   33.7974 H   0  0  0  0  0  0  0  0  0  0  0  0
   50.5508  159.7401   33.0682 H   0  0  0  0  0  0  0  0  0  0  0  0
  1  2  1  0
  2  3  2  0
  3  4  1  0
  4  5  1  0
  5  6  1  0
  6  7  1  0
  7  8  2  0
  8  9  1  0
  9 10  2  0
 10 11  1  0
 11 12  1  0
 11 13  2  0
 13 14  1  0
 14 15  2  0
 14 16  1  0
 16 17  1  0
  4 18  2  0
 18 19  1  0
 19 20  2  0
 20 21  1  0
 21 22  1  0
 22 23  2  0
 23 24  1  0
 24 25  2  0
 25 26  1  0
 26 27  2  0
 20  2  1  0
 27 22  1  0
 16  5  2  0
 13  7  1  0
  1 28  1  0
  1 29  1  0
  1 30  1  0
  3 31  1  0
  8 32  1  0
  9 33  1  0
 10 34  1  0
 12 35  1  0
 17 36  1  0
 18 37  1  0
 19 38  1  0
 21 39  1  0
 21 40  1  0
 23 41  1  0
 24 42  1  0
 25 43  1  0
 26 44  1  0
 27 45  1  0
M  END
>  <meeko>  (3) 
{"is_sidechain": [false], "free_energy": -10.308, "intermolecular_energy": -13.844, "internal_energy": 1.652}

$$$$
cand_002_out
     RDKit          3D

 45 48  0  0  0  0  0  0  0  0999 V2000
   54.3450  156.1010   24.4230 C   0  0  0  0  0  0  0  0  0  0  0  0
   53.7290  155.6270   25.7100 C   0  0  0  0  0  0  0  0  0  0  0  0
   53.1860  156.5850   26.5890 C   0  0  0  0  0  0  0  0  0  0  0  0
   52.6090  156.2210   27.8150 C   0  0  0  0  0  0  0  0  0  0  0  0
   52.0720  157.2650   28.7140 C   0  0  0  0  0  0  0  0  0  0  0  0
   50.7310  157.0720   29.0250 O   0  0  0  0  0  0  0  0  0  0  0  0
   50.1050  157.9690   29.8520 C   0  0  0  0  0  0  0  0  0  0  0  0
   48.7550  157.7440   30.1260 C   0  0  0  0  0  0  0  0  0  0  0  0
   48.0590  158.6190   30.9620 C   0  0  0  0  0  0  0  0  0  0  0  0
   48.7120  159.7170   31.5250 C   0  0  0  0  0  0  0  0  0  0  0  0
   50.0590  159.9390   31.2510 C   0  0  0  0  0  0  0  0  0  0  0  0
   50.6360  161.0340   31.8350 O   0  0  0  0  0  0  0  0  0  0  0  0
   50.7550  159.0640   30.4130 C   0  0  0  0  0  0  0  0  0  0  0  0
   52.1700  159.2610   30.0990 C   0  0  0  0  0  0  0  0  0  0  0  0
   52.8150  160.2000   30.5610 O   0  0  0  0  0  0  0  0  0  0  0  0
   52.8140  158.2810   29.1940 C   0  0  0  0  0  0  0  0  0  0  0  0
   54.1560  158.4680   28.9150 O   0  0  0  0  0  0  0  0  0  0  0  0
   52.6000  154.8700   28.1680 C   0  0  0  0  0  0  0  0  0  0  0  0
   53.1450  153.9070   27.3150 C   0  0  0  0  0  0  0  0  0  0  0  0
   53.7170  154.2680   26.0830 C   0  0  0  0  0  0  0  0  0  0  0  0
   54.3010  153.1730   25.2080 C   0  0  0  0  0  0  0  0  0  0  0  0
   53.7170  151.7930   25.4230 C   0  0  0  0  0  0  0  0  0  0  0  0
   54.2620  150.6870   24.7540 C   0  0  0  0  0  0  0  0  0  0  0  0
   53.7170  149.4130   24.9240 C   0  0  0  0  0  0  0  0  0  0  0  0
   52.6160  149.2300   25.7570 C   0  0  0  0  0  0  0  0  0  0  0  0
   52.0560  150.3220   26.4170 C   0  0  0  0  0  0  0  0  0  0  0  0
   52.6000  151.5970   26.2480 C   0  0  0  0  0  0  0  0  0  0  0  0
   55.1988  156.7580   24.6453 H   0  0  0  0  0  0  0  0  0  0  0  0
   54.6912  155.2341   23.8411 H   0  0  0  0  0  0  0  0  0  0  0  0
   53.5957  156.6577   23.8411 H   0  0  0  0  0  0  0  0  0  0  0  0
   53.2153  157.6476   26.3062 H   0  0  0  0  0  0  0  0  0  0  0  0
   48.2401  156.8783   29.6838 H   0  0  0  0  0  0  0  0  0  0  0  0
   46.9947  158.4431   31.1774 H   0  0  0  0  0  0  0  0  0  0  0  0
   48.1632  160.4058   32.1841 H   0  0  0  0  0  0  0  0  0  0  0  0
   50.7790  161.8120   31.3340 H   0  0  0  0  0  0  0  0  0  0  0  0
   54.5500  159.3080   29.0520 H   0  0  0  0  0  0  0  0  0  0  0  0
   52.1594  154.5608   29.1273 H   0  0  0  0  0  0  0  0  0  0  0  0
   53.1261  152.8482   27.6127 H   0  0  0  0  0  0  0  0  0  0  0  0
   54.1346  153.4526   24.1572 H   0  0  0  0  0  0  0  0  0  0  0  0
   55.3640  153.0996   25.4813 H   0  0  0  0  0  0  0  0  0  0  0  0
   55.1273  150.8249   24.0889 H   0  0  0  0  0  0  0  0  0  0  0  0
   54.1578  148.5525   24.3993 H   0  0  0  0  0  0  0  0  0  0  0  0
   52.1893  148.2254   25.8937 H   0  0  0  0  0  0  0  0  0  0  0  0
   51.1840  150.1795   27.0722 H   0  0  0  0  0  0  0  0  0  0  0  0
   52.1483  152.4554   26.7667 H   0  0  0  0  0  0  0  0  0  0  0  0
  1  2  1  0
  2  3  2  0
  3  4  1  0
  4  5  1  0
  5  6  1  0
  6  7  1  0
  7  8  2  0
  8  9  1  0
  9 10  2  0
 10 11  1  0
 11 12  1  0
 11 13  2  0
 13 14  1  0
 14 15  2  0
 14 16  1  0
 16 17  1  0
  4 18  2  0
 18 19  1  0
 19 20  2  0
 20 21  1  0
 21 22  1  0
 22 23  2  0
 23 24  1  0
 24 25  2  0
 25 26  1  0
 26 27  2  0
 20  2  1  0
 27 22  1  0
 16  5  2  0
 13  7  1  0
  1 28  1  0
  1 29  1  0
  1 30  1  0
  3 31  1  0
  8 32  1  0
  9 33  1  0
 10 34  1  0
 12 35  1  0
 17 36  1  0
 18 37  1  0
 19 38  1  0
 21 39  1  0
 21 40  1  0
 23 41  1  0
 24 42  1  0
 25 43  1  0
 26 44  1  0
 27 45  1  0
M  END
>  <meeko>  (4) 
{"is_sidechain": [false], "free_energy": -9.85, "intermolecular_energy": -12.02, "internal_energy": 0.393}

$$$$
cand_002_out
     RDKit          3D

 45 48  0  0  0  0  0  0  0  0999 V2000
   51.7870  158.9620   30.1970 C   0  0  0  0  0  0  0  0  0  0  0  0
   51.3150  157.6150   29.7230 C   0  0  0  0  0  0  0  0  0  0  0  0
   52.0470  156.9650   28.7100 C   0  0  0  0  0  0  0  0  0  0  0  0
   51.6600  155.7140   28.2050 C   0  0  0  0  0  0  0  0  0  0  0  0
   52.4480  155.0800   27.1260 C   0  0  0  0  0  0  0  0  0  0  0  0
   52.3020  153.6980   27.0920 O   0  0  0  0  0  0  0  0  0  0  0  0
   52.9790  152.9830   26.1370 C   0  0  0  0  0  0  0  0  0  0  0  0
   52.8140  151.5970   26.1490 C   0  0  0  0  0  0  0  0  0  0  0  0
   53.4740  150.8090   25.2030 C   0  0  0  0  0  0  0  0  0  0  0  0
   54.2980  151.4070   24.2470 C   0  0  0  0  0  0  0  0  0  0  0  0
   54.4600  152.7900   24.2380 C   0  0  0  0  0  0  0  0  0  0  0  0
   55.2810  153.3090   23.2730 O   0  0  0  0  0  0  0  0  0  0  0  0
   53.8010  153.5770   25.1850 C   0  0  0  0  0  0  0  0  0  0  0  0
   53.9440  155.0330   25.2100 C   0  0  0  0  0  0  0  0  0  0  0  0
   54.6450  155.6330   24.3980 O   0  0  0  0  0  0  0  0  0  0  0  0
   53.2080  155.7760   26.2590 C   0  0  0  0  0  0  0  0  0  0  0  0
   53.3390  157.1530   26.2660 O   0  0  0  0  0  0  0  0  0  0  0  0
   50.5030  155.1220   28.7170 C   0  0  0  0  0  0  0  0  0  0  0  0
   49.7580  155.7570   29.7120 C   0  0  0  0  0  0  0  0  0  0  0  0
   50.1470  157.0070   30.2260 C   0  0  0  0  0  0  0  0  0  0  0  0
   49.2860  157.6490   31.3000 C   0  0  0  0  0  0  0  0  0  0  0  0
   49.1300  159.1500   31.1910 C   0  0  0  0  0  0  0  0  0  0  0  0
   49.3300  159.9610   32.3190 C   0  0  0  0  0  0  0  0  0  0  0  0
   49.1650  161.3450   32.2390 C   0  0  0  0  0  0  0  0  0  0  0  0
   48.7900  161.9350   31.0340 C   0  0  0  0  0  0  0  0  0  0  0  0
   48.5750  161.1410   29.9090 C   0  0  0  0  0  0  0  0  0  0  0  0
   48.7400  159.7560   29.9880 C   0  0  0  0  0  0  0  0  0  0  0  0
   51.7940  158.9819   31.2968 H   0  0  0  0  0  0  0  0  0  0  0  0
   52.8037  159.1476   29.8204 H   0  0  0  0  0  0  0  0  0  0  0  0
   51.1085  159.7417   29.8204 H   0  0  0  0  0  0  0  0  0  0  0  0
   52.9463  157.4511   28.3038 H   0  0  0  0  0  0  0  0  0  0  0  0
   52.1653  151.1260   26.9022 H   0  0  0  0  0  0  0  0  0  0  0  0
   53.3446  149.7167   25.2111 H   0  0  0  0  0  0  0  0  0  0  0  0
   54.8182  150.7865   23.5024 H   0  0  0  0  0  0  0  0  0  0  0  0
   55.5770  154.1950   23.3380 H   0  0  0  0  0  0  0  0  0  0  0  0
   52.8040  157.6720   26.8340 H   0  0  0  0  0  0  0  0  0  0  0  0
   50.1755  154.1450   28.3320 H   0  0  0  0  0  0  0  0  0  0  0  0
   48.8509  155.2713   30.1009 H   0  0  0  0  0  0  0  0  0  0  0  0
   48.2840  157.1983   31.2469 H   0  0  0  0  0  0  0  0  0  0  0  0
   49.8016  157.4649   32.2541 H   0  0  0  0  0  0  0  0  0  0  0  0
   49.6196  159.5015   33.2756 H   0  0  0  0  0  0  0  0  0  0  0  0
   49.3313  161.9704   33.1285 H   0  0  0  0  0  0  0  0  0  0  0  0
   48.6638  163.0259   30.9706 H   0  0  0  0  0  0  0  0  0  0  0  0
   48.2751  161.6053   28.9579 H   0  0  0  0  0  0  0  0  0  0  0  0
   48.5623  159.1347   29.0978 H   0  0  0  0  0  0  0  0  0  0  0  0
  1  2  1  0
  2  3  2  0
  3  4  1  0
  4  5  1  0
  5  6  1  0
  6  7  1  0
  7  8  2  0
  8  9  1  0
  9 10  2  0
 10 11  1  0
 11 12  1  0
 11 13  2  0
 13 14  1  0
 14 15  2  0
 14 16  1  0
 16 17  1  0
  4 18  2  0
 18 19  1  0
 19 20  2  0
 20 21  1  0
 21 22  1  0
 22 23  2  0
 23 24  1  0
 24 25  2  0
 25 26  1  0
 26 27  2  0
 20  2  1  0
 27 22  1  0
 16  5  2  0
 13  7  1  0
  1 28  1  0
  1 29  1  0
  1 30  1  0
  3 31  1  0
  8 32  1  0
  9 33  1  0
 10 34  1  0
 12 35  1  0
 17 36  1  0
 18 37  1  0
 19 38  1  0
 21 39  1  0
 21 40  1  0
 23 41  1  0
 24 42  1  0
 25 43  1  0
 26 44  1  0
 27 45  1  0
M  END
>  <meeko>  (5) 
{"is_sidechain": [false], "free_energy": -9.656, "intermolecular_energy": -12.213, "internal_energy": 0.825}

$$$$
cand_002_out
     RDKit          3D

 45 48  0  0  0  0  0  0  0  0999 V2000
   50.8970  159.9530   30.4070 C   0  0  0  0  0  0  0  0  0  0  0  0
   50.4810  158.5490   30.0660 C   0  0  0  0  0  0  0  0  0  0  0  0
   51.3520  157.7580   29.2930 C   0  0  0  0  0  0  0  0  0  0  0  0
   51.0260  156.4450   28.9210 C   0  0  0  0  0  0  0  0  0  0  0  0
   51.9640  155.6610   28.0890 C   0  0  0  0  0  0  0  0  0  0  0  0
   52.4940  156.3950   27.0350 O   0  0  0  0  0  0  0  0  0  0  0  0
   53.3800  155.7880   26.1820 C   0  0  0  0  0  0  0  0  0  0  0  0
   53.8760  156.5580   25.1290 C   0  0  0  0  0  0  0  0  0  0  0  0
   54.7830  156.0010   24.2260 C   0  0  0  0  0  0  0  0  0  0  0  0
   55.1950  154.6750   24.3760 C   0  0  0  0  0  0  0  0  0  0  0  0
   54.6990  153.9090   25.4270 C   0  0  0  0  0  0  0  0  0  0  0  0
   55.1450  152.6180   25.5150 O   0  0  0  0  0  0  0  0  0  0  0  0
   53.7900  154.4660   26.3300 C   0  0  0  0  0  0  0  0  0  0  0  0
   53.2450  153.6960   27.4490 C   0  0  0  0  0  0  0  0  0  0  0  0
   53.5640  152.5260   27.6500 O   0  0  0  0  0  0  0  0  0  0  0  0
   52.2820  154.3770   28.3450 C   0  0  0  0  0  0  0  0  0  0  0  0
   51.7840  153.6450   29.4060 O   0  0  0  0  0  0  0  0  0  0  0  0
   49.7900  155.9310   29.3200 C   0  0  0  0  0  0  0  0  0  0  0  0
   48.9080  156.7050   30.0770 C   0  0  0  0  0  0  0  0  0  0  0  0
   49.2350  158.0180   30.4570 C   0  0  0  0  0  0  0  0  0  0  0  0
   48.2250  158.8090   31.2710 C   0  0  0  0  0  0  0  0  0  0  0  0
   48.7570  160.0760   31.9050 C   0  0  0  0  0  0  0  0  0  0  0  0
   49.4710  160.0120   33.1110 C   0  0  0  0  0  0  0  0  0  0  0  0
   49.9460  161.1750   33.7200 C   0  0  0  0  0  0  0  0  0  0  0  0
   49.7050  162.4170   33.1360 C   0  0  0  0  0  0  0  0  0  0  0  0
   48.9860  162.4970   31.9450 C   0  0  0  0  0  0  0  0  0  0  0  0
   48.5110  161.3340   31.3350 C   0  0  0  0  0  0  0  0  0  0  0  0
   50.9316  160.0699   31.5002 H   0  0  0  0  0  0  0  0  0  0  0  0
   51.8930  160.1530   29.9851 H   0  0  0  0  0  0  0  0  0  0  0  0
   50.1707  160.6633   29.9851 H   0  0  0  0  0  0  0  0  0  0  0  0
   52.3151  158.1812   28.9716 H   0  0  0  0  0  0  0  0  0  0  0  0
   53.5525  157.6027   25.0108 H   0  0  0  0  0  0  0  0  0  0  0  0
   55.1737  156.6071   23.3953 H   0  0  0  0  0  0  0  0  0  0  0  0
   55.9104  154.2366   23.6646 H   0  0  0  0  0  0  0  0  0  0  0  0
   54.6560  151.9860   26.0040 H   0  0  0  0  0  0  0  0  0  0  0  0
   52.0520  153.8460   30.2820 H   0  0  0  0  0  0  0  0  0  0  0  0
   49.5086  154.9065   29.0351 H   0  0  0  0  0  0  0  0  0  0  0  0
   47.9403  156.2796   30.3812 H   0  0  0  0  0  0  0  0  0  0  0  0
   47.3934  159.0848   30.6059 H   0  0  0  0  0  0  0  0  0  0  0  0
   47.9248  158.1549   32.1029 H   0  0  0  0  0  0  0  0  0  0  0  0
   49.6585  159.0355   33.5815 H   0  0  0  0  0  0  0  0  0  0  0  0
   50.5110  161.1108   34.6616 H   0  0  0  0  0  0  0  0  0  0  0  0
   50.0818  163.3330   33.6145 H   0  0  0  0  0  0  0  0  0  0  0  0
   48.7924  163.4772   31.4849 H   0  0  0  0  0  0  0  0  0  0  0  0
   47.9384  161.4051   30.3985 H   0  0  0  0  0  0  0  0  0  0  0  0
  1  2  1  0
  2  3  2  0
  3  4  1  0
  4  5  1  0
  5  6  1  0
  6  7  1  0
  7  8  2  0
  8  9  1  0
  9 10  2  0
 10 11  1  0
 11 12  1  0
 11 13  2  0
 13 14  1  0
 14 15  2  0
 14 16  1  0
 16 17  1  0
  4 18  2  0
 18 19  1  0
 19 20  2  0
 20 21  1  0
 21 22  1  0
 22 23  2  0
 23 24  1  0
 24 25  2  0
 25 26  1  0
 26 27  2  0
 20  2  1  0
 27 22  1  0
 16  5  2  0
 13  7  1  0
  1 28  1  0
  1 29  1  0
  1 30  1  0
  3 31  1  0
  8 32  1  0
  9 33  1  0
 10 34  1  0
 12 35  1  0
 17 36  1  0
 18 37  1  0
 19 38  1  0
 21 39  1  0
 21 40  1  0
 23 41  1  0
 24 42  1  0
 25 43  1  0
 26 44  1  0
 27 45  1  0
M  END
>  <meeko>  (6) 
{"is_sidechain": [false], "free_energy": -9.427, "intermolecular_energy": -12.702, "internal_energy": 1.597}

$$$$
cand_002_out
     RDKit          3D

 45 48  0  0  0  0  0  0  0  0999 V2000
   49.5010  156.7360   30.4390 C   0  0  0  0  0  0  0  0  0  0  0  0
   50.7590  157.0050   29.6600 C   0  0  0  0  0  0  0  0  0  0  0  0
   51.1960  156.0380   28.7340 C   0  0  0  0  0  0  0  0  0  0  0  0
   52.3680  156.2100   27.9830 C   0  0  0  0  0  0  0  0  0  0  0  0
   52.7990  155.1570   27.0380 C   0  0  0  0  0  0  0  0  0  0  0  0
   52.3570  153.8910   27.4040 O   0  0  0  0  0  0  0  0  0  0  0  0
   52.6860  152.8190   26.6140 C   0  0  0  0  0  0  0  0  0  0  0  0
   52.2330  151.5650   27.0260 C   0  0  0  0  0  0  0  0  0  0  0  0
   52.5320  150.4320   26.2660 C   0  0  0  0  0  0  0  0  0  0  0  0
   53.2820  150.5530   25.0950 C   0  0  0  0  0  0  0  0  0  0  0  0
   53.7320  151.8050   24.6860 C   0  0  0  0  0  0  0  0  0  0  0  0
   54.4620  151.8520   23.5290 O   0  0  0  0  0  0  0  0  0  0  0  0
   53.4340  152.9390   25.4470 C   0  0  0  0  0  0  0  0  0  0  0  0
   53.8880  154.2730   25.0530 C   0  0  0  0  0  0  0  0  0  0  0  0
   54.5470  154.4610   24.0320 O   0  0  0  0  0  0  0  0  0  0  0  0
   53.5250  155.4080   25.9320 C   0  0  0  0  0  0  0  0  0  0  0  0
   53.9480  156.6660   25.5430 O   0  0  0  0  0  0  0  0  0  0  0  0
   53.1220  157.3690   28.1860 C   0  0  0  0  0  0  0  0  0  0  0  0
   52.7100  158.3330   29.1090 C   0  0  0  0  0  0  0  0  0  0  0  0
   51.5320  158.1670   29.8580 C   0  0  0  0  0  0  0  0  0  0  0  0
   51.1480  159.2480   30.8530 C   0  0  0  0  0  0  0  0  0  0  0  0
   49.6820  159.6240   30.8640 C   0  0  0  0  0  0  0  0  0  0  0  0
   49.1440  160.3860   29.8160 C   0  0  0  0  0  0  0  0  0  0  0  0
   47.8000  160.7610   29.8260 C   0  0  0  0  0  0  0  0  0  0  0  0
   46.9780  160.3870   30.8870 C   0  0  0  0  0  0  0  0  0  0  0  0
   47.5020  159.6420   31.9410 C   0  0  0  0  0  0  0  0  0  0  0  0
   48.8470  159.2660   31.9320 C   0  0  0  0  0  0  0  0  0  0  0  0
   49.7196  156.7827   31.5160 H   0  0  0  0  0  0  0  0  0  0  0  0
   48.7438  157.4925   30.1854 H   0  0  0  0  0  0  0  0  0  0  0  0
   49.1194  155.7359   30.1854 H   0  0  0  0  0  0  0  0  0  0  0  0
   50.6018  155.1226   28.5960 H   0  0  0  0  0  0  0  0  0  0  0  0
   51.6411  151.4690   27.9482 H   0  0  0  0  0  0  0  0  0  0  0  0
   52.1760  149.4431   26.5906 H   0  0  0  0  0  0  0  0  0  0  0  0
   53.5170  149.6605   24.4965 H   0  0  0  0  0  0  0  0  0  0  0  0
   55.2670  151.3770   23.4630 H   0  0  0  0  0  0  0  0  0  0  0  0
   53.7070  157.4180   26.0490 H   0  0  0  0  0  0  0  0  0  0  0  0
   54.0485  157.5235   27.6136 H   0  0  0  0  0  0  0  0  0  0  0  0
   53.3182  159.2383   29.2524 H   0  0  0  0  0  0  0  0  0  0  0  0
   51.4160  158.8944   31.8596 H   0  0  0  0  0  0  0  0  0  0  0  0
   51.6924  160.1529   30.5450 H   0  0  0  0  0  0  0  0  0  0  0  0
   49.7881  160.6909   28.9781 H   0  0  0  0  0  0  0  0  0  0  0  0
   47.3888  161.3528   28.9949 H   0  0  0  0  0  0  0  0  0  0  0  0
   45.9176  160.6794   30.8923 H   0  0  0  0  0  0  0  0  0  0  0  0
   46.8555  159.3495   32.7815 H   0  0  0  0  0  0  0  0  0  0  0  0
   49.2553  158.6833   32.7709 H   0  0  0  0  0  0  0  0  0  0  0  0
  1  2  1  0
  2  3  2  0
  3  4  1  0
  4  5  1  0
  5  6  1  0
  6  7  1  0
  7  8  2  0
  8  9  1  0
  9 10  2  0
 10 11  1  0
 11 12  1  0
 11 13  2  0
 13 14  1  0
 14 15  2  0
 14 16  1  0
 16 17  1  0
  4 18  2  0
 18 19  1  0
 19 20  2  0
 20 21  1  0
 21 22  1  0
 22 23  2  0
 23 24  1  0
 24 25  2  0
 25 26  1  0
 26 27  2  0
 20  2  1  0
 27 22  1  0
 16  5  2  0
 13  7  1  0
  1 28  1  0
  1 29  1  0
  1 30  1  0
  3 31  1  0
  8 32  1  0
  9 33  1  0
 10 34  1  0
 12 35  1  0
 17 36  1  0
 18 37  1  0
 19 38  1  0
 21 39  1  0
 21 40  1  0
 23 41  1  0
 24 42  1  0
 25 43  1  0
 26 44  1  0
 27 45  1  0
M  END
>  <meeko>  (7) 
{"is_sidechain": [false], "free_energy": -9.23, "intermolecular_energy": -11.372, "internal_energy": 0.51}

$$$$
cand_002_out
     RDKit          3D

 45 48  0  0  0  0  0  0  0  0999 V2000
   51.5440  152.6730   29.2230 C   0  0  0  0  0  0  0  0  0  0  0  0
   51.8950  154.0610   28.7640 C   0  0  0  0  0  0  0  0  0  0  0  0
   51.2960  155.1570   29.4140 C   0  0  0  0  0  0  0  0  0  0  0  0
   51.5620  156.4800   29.0320 C   0  0  0  0  0  0  0  0  0  0  0  0
   50.8910  157.5980   29.7310 C   0  0  0  0  0  0  0  0  0  0  0  0
   51.7620  158.6280   30.0620 O   0  0  0  0  0  0  0  0  0  0  0  0
   51.2700  159.7300   30.7150 C   0  0  0  0  0  0  0  0  0  0  0  0
   52.1830  160.7340   31.0400 C   0  0  0  0  0  0  0  0  0  0  0  0
   51.7480  161.8830   31.7040 C   0  0  0  0  0  0  0  0  0  0  0  0
   50.4010  162.0270   32.0430 C   0  0  0  0  0  0  0  0  0  0  0  0
   49.4920  161.0240   31.7170 C   0  0  0  0  0  0  0  0  0  0  0  0
   48.1880  161.2300   32.0780 O   0  0  0  0  0  0  0  0  0  0  0  0
   49.9290  159.8740   31.0540 C   0  0  0  0  0  0  0  0  0  0  0  0
   49.0070  158.7960   30.6930 C   0  0  0  0  0  0  0  0  0  0  0  0
   47.8060  158.8530   30.9510 O   0  0  0  0  0  0  0  0  0  0  0  0
   49.5710  157.6160   29.9980 C   0  0  0  0  0  0  0  0  0  0  0  0
   48.6890  156.6100   29.6500 O   0  0  0  0  0  0  0  0  0  0  0  0
   52.4320  156.6990   27.9610 C   0  0  0  0  0  0  0  0  0  0  0  0
   53.0260  155.6250   27.2960 C   0  0  0  0  0  0  0  0  0  0  0  0
   52.7670  154.2970   27.6810 C   0  0  0  0  0  0  0  0  0  0  0  0
   53.4380  153.1750   26.9090 C   0  0  0  0  0  0  0  0  0  0  0  0
   53.9240  153.5450   25.5240 C   0  0  0  0  0  0  0  0  0  0  0  0
   53.7840  152.6370   24.4640 C   0  0  0  0  0  0  0  0  0  0  0  0
   54.2510  152.9560   23.1880 C   0  0  0  0  0  0  0  0  0  0  0  0
   54.8720  154.1820   22.9560 C   0  0  0  0  0  0  0  0  0  0  0  0
   55.0300  155.0880   24.0030 C   0  0  0  0  0  0  0  0  0  0  0  0
   54.5630  154.7710   25.2800 C   0  0  0  0  0  0  0  0  0  0  0  0
   51.5360  152.6415   30.3225 H   0  0  0  0  0  0  0  0  0  0  0  0
   50.5488  152.4012   28.8412 H   0  0  0  0  0  0  0  0  0  0  0  0
   52.2903  151.9608   28.8412 H   0  0  0  0  0  0  0  0  0  0  0  0
   50.5997  154.9703   30.2449 H   0  0  0  0  0  0  0  0  0  0  0  0
   53.2442  160.6205   30.7735 H   0  0  0  0  0  0  0  0  0  0  0  0
   52.4669  162.6752   31.9602 H   0  0  0  0  0  0  0  0  0  0  0  0
   50.0586  162.9316   32.5669 H   0  0  0  0  0  0  0  0  0  0  0  0
   47.7430  160.5990   32.6080 H   0  0  0  0  0  0  0  0  0  0  0  0
   47.8050  156.8200   29.4190 H   0  0  0  0  0  0  0  0  0  0  0  0
   52.6510  157.7277   27.6387 H   0  0  0  0  0  0  0  0  0  0  0  0
   53.7087  155.8206   26.4560 H   0  0  0  0  0  0  0  0  0  0  0  0
   54.3045  152.8313   27.4929 H   0  0  0  0  0  0  0  0  0  0  0  0
   52.6692  152.4015   26.7656 H   0  0  0  0  0  0  0  0  0  0  0  0
   53.3016  151.6642   24.6401 H   0  0  0  0  0  0  0  0  0  0  0  0
   54.1287  152.2381   22.3635 H   0  0  0  0  0  0  0  0  0  0  0  0
   55.2364  154.4338   21.9491 H   0  0  0  0  0  0  0  0  0  0  0  0
   55.5235  156.0545   23.8230 H   0  0  0  0  0  0  0  0  0  0  0  0
   54.6970  155.4887   26.1028 H   0  0  0  0  0  0  0  0  0  0  0  0
  1  2  1  0
  2  3  2  0
  3  4  1  0
  4  5  1  0
  5  6  1  0
  6  7  1  0
  7  8  2  0
  8  9  1  0
  9 10  2  0
 10 11  1  0
 11 12  1  0
 11 13  2  0
 13 14  1  0
 14 15  2  0
 14 16  1  0
 16 17  1  0
  4 18  2  0
 18 19  1  0
 19 20  2  0
 20 21  1  0
 21 22  1  0
 22 23  2  0
 23 24  1  0
 24 25  2  0
 25 26  1  0
 26 27  2  0
 20  2  1  0
 27 22  1  0
 16  5  2  0
 13  7  1  0
  1 28  1  0
  1 29  1  0
  1 30  1  0
  3 31  1  0
  8 32  1  0
  9 33  1  0
 10 34  1  0
 12 35  1  0
 17 36  1  0
 18 37  1  0
 19 38  1  0
 21 39  1  0
 21 40  1  0
 23 41  1  0
 24 42  1  0
 25 43  1  0
 26 44  1  0
 27 45  1  0
M  END
>  <meeko>  (8) 
{"is_sidechain": [false], "free_energy": -9.202, "intermolecular_energy": -11.256, "internal_energy": 0.428}

$$$$
cand_002_out
     RDKit          3D

 45 48  0  0  0  0  0  0  0  0999 V2000
   49.0120  158.2620   30.6730 C   0  0  0  0  0  0  0  0  0  0  0  0
   50.3740  158.1040   30.0560 C   0  0  0  0  0  0  0  0  0  0  0  0
   50.6650  156.9110   29.3660 C   0  0  0  0  0  0  0  0  0  0  0  0
   51.9190  156.6840   28.7780 C   0  0  0  0  0  0  0  0  0  0  0  0
   52.1850  155.4070   28.0830 C   0  0  0  0  0  0  0  0  0  0  0  0
   52.7890  155.5820   26.8430 O   0  0  0  0  0  0  0  0  0  0  0  0
   53.0930  154.4770   26.0900 C   0  0  0  0  0  0  0  0  0  0  0  0
   53.6850  154.7010   24.8460 C   0  0  0  0  0  0  0  0  0  0  0  0
   54.0210  153.6190   24.0300 C   0  0  0  0  0  0  0  0  0  0  0  0
   53.7650  152.3150   24.4570 C   0  0  0  0  0  0  0  0  0  0  0  0
   53.1740  152.0940   25.6980 C   0  0  0  0  0  0  0  0  0  0  0  0
   52.9510  150.7910   26.0530 O   0  0  0  0  0  0  0  0  0  0  0  0
   52.8370  153.1770   26.5140 C   0  0  0  0  0  0  0  0  0  0  0  0
   52.2140  152.9900   27.8250 C   0  0  0  0  0  0  0  0  0  0  0  0
   51.9640  151.8720   28.2730 O   0  0  0  0  0  0  0  0  0  0  0  0
   51.8900  154.2030   28.6090 C   0  0  0  0  0  0  0  0  0  0  0  0
   51.3140  154.0140   29.8520 O   0  0  0  0  0  0  0  0  0  0  0  0
   52.9000  157.6700   28.9080 C   0  0  0  0  0  0  0  0  0  0  0  0
   52.6330  158.8540   29.5980 C   0  0  0  0  0  0  0  0  0  0  0  0
   51.3760  159.0870   30.1830 C   0  0  0  0  0  0  0  0  0  0  0  0
   51.1560  160.3910   30.9300 C   0  0  0  0  0  0  0  0  0  0  0  0
   52.3710  161.2860   31.0390 C   0  0  0  0  0  0  0  0  0  0  0  0
   52.6200  162.2560   30.0570 C   0  0  0  0  0  0  0  0  0  0  0  0
   53.7510  163.0710   30.1320 C   0  0  0  0  0  0  0  0  0  0  0  0
   54.6510  162.9220   31.1850 C   0  0  0  0  0  0  0  0  0  0  0  0
   54.4230  161.9540   32.1600 C   0  0  0  0  0  0  0  0  0  0  0  0
   53.2920  161.1380   32.0870 C   0  0  0  0  0  0  0  0  0  0  0  0
   49.1026  158.2515   31.7692 H   0  0  0  0  0  0  0  0  0  0  0  0
   48.5720  159.2172   30.3506 H   0  0  0  0  0  0  0  0  0  0  0  0
   48.3650  157.4329   30.3506 H   0  0  0  0  0  0  0  0  0  0  0  0
   49.8883  156.1362   29.2858 H   0  0  0  0  0  0  0  0  0  0  0  0
   53.8866  155.7285   24.5090 H   0  0  0  0  0  0  0  0  0  0  0  0
   54.4879  153.7944   23.0496 H   0  0  0  0  0  0  0  0  0  0  0  0
   54.0299  151.4630   23.8137 H   0  0  0  0  0  0  0  0  0  0  0  0
   52.0790  150.4930   26.2170 H   0  0  0  0  0  0  0  0  0  0  0  0
   51.4750  153.2220   30.3280 H   0  0  0  0  0  0  0  0  0  0  0  0
   53.8931  157.5119   28.4621 H   0  0  0  0  0  0  0  0  0  0  0  0
   53.4198  159.6178   29.6854 H   0  0  0  0  0  0  0  0  0  0  0  0
   50.3661  160.9521   30.4091 H   0  0  0  0  0  0  0  0  0  0  0  0
   50.8910  160.1107   31.9601 H   0  0  0  0  0  0  0  0  0  0  0  0
   51.9171  162.3758   29.2194 H   0  0  0  0  0  0  0  0  0  0  0  0
   53.9318  163.8320   29.3585 H   0  0  0  0  0  0  0  0  0  0  0  0
   55.5396  163.5674   31.2462 H   0  0  0  0  0  0  0  0  0  0  0  0
   55.1353  161.8319   32.9893 H   0  0  0  0  0  0  0  0  0  0  0  0
   53.1217  160.3723   32.8582 H   0  0  0  0  0  0  0  0  0  0  0  0
  1  2  1  0
  2  3  2  0
  3  4  1  0
  4  5  1  0
  5  6  1  0
  6  7  1  0
  7  8  2  0
  8  9  1  0
  9 10  2  0
 10 11  1  0
 11 12  1  0
 11 13  2  0
 13 14  1  0
 14 15  2  0
 14 16  1  0
 16 17  1  0
  4 18  2  0
 18 19  1  0
 19 20  2  0
 20 21  1  0
 21 22  1  0
 22 23  2  0
 23 24  1  0
 24 25  2  0
 25 26  1  0
 26 27  2  0
 20  2  1  0
 27 22  1  0
 16  5  2  0
 13  7  1  0
  1 28  1  0
  1 29  1  0
  1 30  1  0
  3 31  1  0
  8 32  1  0
  9 33  1  0
 10 34  1  0
 12 35  1  0
 17 36  1  0
 18 37  1  0
 19 38  1  0
 21 39  1  0
 21 40  1  0
 23 41  1  0
 24 42  1  0
 25 43  1  0
 26 44  1  0
 27 45  1  0
M  END
>  <meeko>  (9) 
{"is_sidechain": [false], "free_energy": -9.186, "intermolecular_energy": -10.407, "internal_energy": -0.401}

$$$$
