cand_030_out
     RDKit          3D

 38 40  0  0  0  0  0  0  0  0999 V2000
   50.1720  161.1290   33.0140 C   0  0  0  0  0  0  0  0  0  0  0  0
   49.9870  161.2260   31.5070 C   0  0  0  0  0  0  0  0  0  0  0  0
   50.4250  159.9630   30.7980 C   0  0  0  0  0  0  0  0  0  0  0  0
   51.7510  159.8860   30.3390 C   0  0  0  0  0  0  0  0  0  0  0  0
   52.2180  158.7510   29.6710 C   0  0  0  0  0  0  0  0  0  0  0  0
   51.3740  157.6580   29.4470 C   0  0  0  0  0  0  0  0  0  0  0  0
   51.8800  156.4740   28.7230 C   0  0  0  0  0  0  0  0  0  0  0  0
   52.4660  156.7940   27.5040 O   0  0  0  0  0  0  0  0  0  0  0  0
   52.9740  155.7820   26.7280 C   0  0  0  0  0  0  0  0  0  0  0  0
   53.5370  156.1450   25.5050 C   0  0  0  0  0  0  0  0  0  0  0  0
   54.0750  155.1640   24.6680 C   0  0  0  0  0  0  0  0  0  0  0  0
   54.0500  153.8220   25.0550 C   0  0  0  0  0  0  0  0  0  0  0  0
   53.4870  153.4630   26.2770 C   0  0  0  0  0  0  0  0  0  0  0  0
   53.4960  152.1330   26.5940 O   0  0  0  0  0  0  0  0  0  0  0  0
   52.9480  154.4450   27.1130 C   0  0  0  0  0  0  0  0  0  0  0  0
   52.3470  154.1100   28.4050 C   0  0  0  0  0  0  0  0  0  0  0  0
   52.2930  152.9550   28.8190 O   0  0  0  0  0  0  0  0  0  0  0  0
   51.7970  155.2230   29.2130 C   0  0  0  0  0  0  0  0  0  0  0  0
   51.2420  154.9010   30.4380 O   0  0  0  0  0  0  0  0  0  0  0  0
   50.0460  157.7400   29.8890 C   0  0  0  0  0  0  0  0  0  0  0  0
   49.5550  158.8790   30.5590 C   0  0  0  0  0  0  0  0  0  0  0  0
   48.1180  158.8770   31.0340 C   0  0  0  0  0  0  0  0  0  0  0  0
   48.0010  158.8600   32.3900 F   0  0  0  0  0  0  0  0  0  0  0  0
   47.4080  159.9690   30.6260 F   0  0  0  0  0  0  0  0  0  0  0  0
   49.3068  161.5826   33.5196 H   0  0  0  0  0  0  0  0  0  0  0  0
   50.2544  160.0717   33.3060 H   0  0  0  0  0  0  0  0  0  0  0  0
   51.0886  161.6625   33.3060 H   0  0  0  0  0  0  0  0  0  0  0  0
   48.9232  161.4035   31.2908 H   0  0  0  0  0  0  0  0  0  0  0  0
   50.6118  162.0542   31.1413 H   0  0  0  0  0  0  0  0  0  0  0  0
   52.4323  160.7329   30.5083 H   0  0  0  0  0  0  0  0  0  0  0  0
   53.2592  158.7166   29.3179 H   0  0  0  0  0  0  0  0  0  0  0  0
   53.5575  157.2016   25.1998 H   0  0  0  0  0  0  0  0  0  0  0  0
   54.5190  155.4489   23.7027 H   0  0  0  0  0  0  0  0  0  0  0  0
   54.4742  153.0504   24.3958 H   0  0  0  0  0  0  0  0  0  0  0  0
   52.8380  151.5640   26.2460 H   0  0  0  0  0  0  0  0  0  0  0  0
   50.8020  155.5590   30.9400 H   0  0  0  0  0  0  0  0  0  0  0  0
   49.3687  156.8924   29.7080 H   0  0  0  0  0  0  0  0  0  0  0  0
   47.7170  157.9557   30.5862 H   0  0  0  0  0  0  0  0  0  0  0  0
  1  2  1  0
  2  3  1  0
  3  4  2  0
  4  5  1  0
  5  6  2  0
  6  7  1  0
  7  8  1  0
  8  9  1  0
  9 10  2  0
 10 11  1  0
 11 12  2  0
 12 13  1  0
 13 14  1  0
 13 15  2  0
 15 16  1  0
 16 17  2  0
 16 18  1  0
 18 19  1  0
  6 20  1  0
 20 21  2  0
 21 22  1  0
 22 23  1  0
 22 24  1  0
 21  3  1  0
 18  7  2  0
 15  9  1  0
  1 25  1  0
  1 26  1  0
  1 27  1  0
  2 28  1  0
  2 29  1  0
  4 30  1  0
  5 31  1  0
 10 32  1  0
 11 33  1  0
 12 34  1  0
 14 35  1  0
 19 36  1  0
 20 37  1  0
 22 38  1  0
M  END
>  <meeko>  (1) 
{"is_sidechain": [false], "free_energy": -10.76, "intermolecular_energy": -13.276, "internal_energy": -0.378}

$$$$
cand_030_out
     RDKit          3D

 38 40  0  0  0  0  0  0  0  0999 V2000
   49.2220  160.5520   33.2860 C   0  0  0  0  0  0  0  0  0  0  0  0
   49.1080  160.7530   31.7820 C   0  0  0  0  0  0  0  0  0  0  0  0
   49.8270  159.6690   31.0080 C   0  0  0  0  0  0  0  0  0  0  0  0
   49.1320  158.4780   30.7340 C   0  0  0  0  0  0  0  0  0  0  0  0
   49.7380  157.4360   30.0300 C   0  0  0  0  0  0  0  0  0  0  0  0
   51.0550  157.5550   29.5740 C   0  0  0  0  0  0  0  0  0  0  0  0
   51.6860  156.4350   28.8460 C   0  0  0  0  0  0  0  0  0  0  0  0
   52.2710  156.8290   27.6480 O   0  0  0  0  0  0  0  0  0  0  0  0
   52.8900  155.8820   26.8710 C   0  0  0  0  0  0  0  0  0  0  0  0
   53.4490  156.3180   25.6690 C   0  0  0  0  0  0  0  0  0  0  0  0
   54.0960  155.4060   24.8320 C   0  0  0  0  0  0  0  0  0  0  0  0
   54.1850  154.0600   25.1970 C   0  0  0  0  0  0  0  0  0  0  0  0
   53.6260  153.6290   26.3980 C   0  0  0  0  0  0  0  0  0  0  0  0
   53.7490  152.2990   26.6940 O   0  0  0  0  0  0  0  0  0  0  0  0
   52.9770  154.5420   27.2340 C   0  0  0  0  0  0  0  0  0  0  0  0
   52.3770  154.1300   28.5040 C   0  0  0  0  0  0  0  0  0  0  0  0
   52.4200  152.9670   28.8980 O   0  0  0  0  0  0  0  0  0  0  0  0
   51.7060  155.1730   29.3140 C   0  0  0  0  0  0  0  0  0  0  0  0
   51.1520  154.7790   30.5170 O   0  0  0  0  0  0  0  0  0  0  0  0
   51.7550  158.7350   29.8600 C   0  0  0  0  0  0  0  0  0  0  0  0
   51.1630  159.7960   30.5750 C   0  0  0  0  0  0  0  0  0  0  0  0
   51.9750  161.0500   30.8170 C   0  0  0  0  0  0  0  0  0  0  0  0
   52.2890  161.2420   32.1280 F   0  0  0  0  0  0  0  0  0  0  0  0
   53.1690  161.0610   30.1570 F   0  0  0  0  0  0  0  0  0  0  0  0
   48.7438  161.3952   33.8059 H   0  0  0  0  0  0  0  0  0  0  0  0
   48.7211  159.6147   33.5697 H   0  0  0  0  0  0  0  0  0  0  0  0
   50.2836  160.5008   33.5697 H   0  0  0  0  0  0  0  0  0  0  0  0
   48.0442  160.7429   31.5022 H   0  0  0  0  0  0  0  0  0  0  0  0
   49.5766  161.7163   31.5319 H   0  0  0  0  0  0  0  0  0  0  0  0
   48.0939  158.3654   31.0800 H   0  0  0  0  0  0  0  0  0  0  0  0
   49.1744  156.5124   29.8319 H   0  0  0  0  0  0  0  0  0  0  0  0
   53.3803  157.3775   25.3813 H   0  0  0  0  0  0  0  0  0  0  0  0
   54.5363  155.7479   23.8837 H   0  0  0  0  0  0  0  0  0  0  0  0
   54.6952  153.3425   24.5375 H   0  0  0  0  0  0  0  0  0  0  0  0
   53.8500  152.0250   27.5840 H   0  0  0  0  0  0  0  0  0  0  0  0
   51.6750  154.3190   31.1450 H   0  0  0  0  0  0  0  0  0  0  0  0
   52.7953  158.8361   29.5170 H   0  0  0  0  0  0  0  0  0  0  0  0
   51.3104  161.8434   30.4444 H   0  0  0  0  0  0  0  0  0  0  0  0
  1  2  1  0
  2  3  1  0
  3  4  2  0
  4  5  1  0
  5  6  2  0
  6  7  1  0
  7  8  1  0
  8  9  1  0
  9 10  2  0
 10 11  1  0
 11 12  2  0
 12 13  1  0
 13 14  1  0
 13 15  2  0
 15 16  1  0
 16 17  2  0
 16 18  1  0
 18 19  1  0
  6 20  1  0
 20 21  2  0
 21 22  1  0
 22 23  1  0
 22 24  1  0
 21  3  1  0
 18  7  2  0
 15  9  1  0
  1 25  1  0
  1 26  1  0
  1 27  1  0
  2 28  1  0
  2 29  1  0
  4 30  1  0
  5 31  1  0
 10 32  1  0
 11 33  1  0
 12 34  1  0
 14 35  1  0
 19 36  1  0
 20 37  1  0
 22 38  1  0
M  END
>  <meeko>  (2) 
{"is_sidechain": [false], "free_energy": -10.755, "intermolecular_energy": -13.2, "internal_energy": -0.448}

$$$$
cand_030_out
     RDKit          3D

 38 40  0  0  0  0  0  0  0  0999 V2000
   52.0220  151.5910   26.7140 C   0  0  0  0  0  0  0  0  0  0  0  0
   53.1360  152.6250   26.6470 C   0  0  0  0  0  0  0  0  0  0  0  0
   52.7460  153.9260   27.3140 C   0  0  0  0  0  0  0  0  0  0  0  0
   52.1030  153.8640   28.5620 C   0  0  0  0  0  0  0  0  0  0  0  0
   51.7100  155.0270   29.2290 C   0  0  0  0  0  0  0  0  0  0  0  0
   51.9520  156.2860   28.6700 C   0  0  0  0  0  0  0  0  0  0  0  0
   51.5140  157.5040   29.3810 C   0  0  0  0  0  0  0  0  0  0  0  0
   50.1830  157.4500   29.7790 O   0  0  0  0  0  0  0  0  0  0  0  0
   49.6480  158.5220   30.4490 C   0  0  0  0  0  0  0  0  0  0  0  0
   48.3050  158.4320   30.8140 C   0  0  0  0  0  0  0  0  0  0  0  0
   47.6990  159.4870   31.5000 C   0  0  0  0  0  0  0  0  0  0  0  0
   48.4360  160.6300   31.8210 C   0  0  0  0  0  0  0  0  0  0  0  0
   49.7770  160.7160   31.4540 C   0  0  0  0  0  0  0  0  0  0  0  0
   50.4390  161.8620   31.7990 O   0  0  0  0  0  0  0  0  0  0  0  0
   50.3820  159.6600   30.7670 C   0  0  0  0  0  0  0  0  0  0  0  0
   51.7880  159.7110   30.3630 C   0  0  0  0  0  0  0  0  0  0  0  0
   52.5040  160.6770   30.6140 O   0  0  0  0  0  0  0  0  0  0  0  0
   52.3320  158.5430   29.6320 C   0  0  0  0  0  0  0  0  0  0  0  0
   53.6640  158.5920   29.2650 O   0  0  0  0  0  0  0  0  0  0  0  0
   52.5780  156.3490   27.4170 C   0  0  0  0  0  0  0  0  0  0  0  0
   52.9770  155.1870   26.7250 C   0  0  0  0  0  0  0  0  0  0  0  0
   53.6760  155.3410   25.3930 C   0  0  0  0  0  0  0  0  0  0  0  0
   52.9730  154.8080   24.3540 F   0  0  0  0  0  0  0  0  0  0  0  0
   53.9030  156.6400   25.0430 F   0  0  0  0  0  0  0  0  0  0  0  0
   51.7870  151.3729   27.7662 H   0  0  0  0  0  0  0  0  0  0  0  0
   51.1258  151.9845   26.2121 H   0  0  0  0  0  0  0  0  0  0  0  0
   52.3478  150.6680   26.2121 H   0  0  0  0  0  0  0  0  0  0  0  0
   54.0260  152.2207   27.1514 H   0  0  0  0  0  0  0  0  0  0  0  0
   53.3393  152.8356   25.5867 H   0  0  0  0  0  0  0  0  0  0  0  0
   51.9059  152.8840   29.0211 H   0  0  0  0  0  0  0  0  0  0  0  0
   51.2052  154.9517   30.2035 H   0  0  0  0  0  0  0  0  0  0  0  0
   47.7244  157.5323   30.5622 H   0  0  0  0  0  0  0  0  0  0  0  0
   46.6396  159.4180   31.7881 H   0  0  0  0  0  0  0  0  0  0  0  0
   47.9583  161.4600   32.3623 H   0  0  0  0  0  0  0  0  0  0  0  0
   51.3740  161.8940   31.7540 H   0  0  0  0  0  0  0  0  0  0  0  0
   54.0750  157.8360   28.8930 H   0  0  0  0  0  0  0  0  0  0  0  0
   52.7631  157.3327   26.9609 H   0  0  0  0  0  0  0  0  0  0  0  0
   54.6231  154.8052   25.5540 H   0  0  0  0  0  0  0  0  0  0  0  0
  1  2  1  0
  2  3  1  0
  3  4  2  0
  4  5  1  0
  5  6  2  0
  6  7  1  0
  7  8  1  0
  8  9  1  0
  9 10  2  0
 10 11  1  0
 11 12  2  0
 12 13  1  0
 13 14  1  0
 13 15  2  0
 15 16  1  0
 16 17  2  0
 16 18  1  0
 18 19  1  0
  6 20  1  0
 20 21  2  0
 21 22  1  0
 22 23  1  0
 22 24  1  0
 21  3  1  0
 18  7  2  0
 15  9  1  0
  1 25  1  0
  1 26  1  0
  1 27  1  0
  2 28  1  0
  2 29  1  0
  4 30  1  0
  5 31  1  0
 10 32  1  0
 11 33  1  0
 12 34  1  0
 14 35  1  0
 19 36  1  0
 20 37  1  0
 22 38  1  0
M  END
>  <meeko>  (3) 
{"is_sidechain": [false], "free_energy": -10.186, "intermolecular_energy": -12.527, "internal_energy": -0.419}

$$$$
cand_030_out
     RDKit          3D

 38 40  0  0  0  0  0  0  0  0999 V2000
   52.2980  152.0180   26.3490 C   0  0  0  0  0  0  0  0  0  0  0  0
   53.3650  152.9240   26.9460 C   0  0  0  0  0  0  0  0  0  0  0  0
   52.7660  154.1450   27.6100 C   0  0  0  0  0  0  0  0  0  0  0  0
   52.0800  153.9700   28.8250 C   0  0  0  0  0  0  0  0  0  0  0  0
   51.4990  155.0540   29.4870 C   0  0  0  0  0  0  0  0  0  0  0  0
   51.5890  156.3450   28.9570 C   0  0  0  0  0  0  0  0  0  0  0  0
   50.9530  157.4760   29.6610 C   0  0  0  0  0  0  0  0  0  0  0  0
   51.8400  158.5090   29.9400 O   0  0  0  0  0  0  0  0  0  0  0  0
   51.3760  159.6220   30.5970 C   0  0  0  0  0  0  0  0  0  0  0  0
   52.3040  160.6270   30.8720 C   0  0  0  0  0  0  0  0  0  0  0  0
   51.8970  161.7860   31.5350 C   0  0  0  0  0  0  0  0  0  0  0  0
   50.5640  161.9410   31.9230 C   0  0  0  0  0  0  0  0  0  0  0  0
   49.6400  160.9360   31.6470 C   0  0  0  0  0  0  0  0  0  0  0  0
   48.3520  161.1530   32.0530 O   0  0  0  0  0  0  0  0  0  0  0  0
   50.0490  159.7750   30.9840 C   0  0  0  0  0  0  0  0  0  0  0  0
   49.1100  158.6950   30.6740 C   0  0  0  0  0  0  0  0  0  0  0  0
   47.9200  158.7590   30.9750 O   0  0  0  0  0  0  0  0  0  0  0  0
   49.6440  157.5040   29.9760 C   0  0  0  0  0  0  0  0  0  0  0  0
   48.7490  156.4930   29.6760 O   0  0  0  0  0  0  0  0  0  0  0  0
   52.2570  156.5190   27.7370 C   0  0  0  0  0  0  0  0  0  0  0  0
   52.8460  155.4370   27.0500 C   0  0  0  0  0  0  0  0  0  0  0  0
   53.5780  155.7130   25.7550 C   0  0  0  0  0  0  0  0  0  0  0  0
   52.7760  155.6260   24.6570 F   0  0  0  0  0  0  0  0  0  0  0  0
   54.1330  156.9580   25.6970 F   0  0  0  0  0  0  0  0  0  0  0  0
   51.7308  151.5364   27.1591 H   0  0  0  0  0  0  0  0  0  0  0  0
   51.6147  152.6160   25.7282 H   0  0  0  0  0  0  0  0  0  0  0  0
   52.7773  151.2467   25.7282 H   0  0  0  0  0  0  0  0  0  0  0  0
   53.9345  152.3555   27.6960 H   0  0  0  0  0  0  0  0  0  0  0  0
   54.0156  153.2671   26.1281 H   0  0  0  0  0  0  0  0  0  0  0  0
   51.9997  152.9633   29.2610 H   0  0  0  0  0  0  0  0  0  0  0  0
   50.9652  154.8906   30.4348 H   0  0  0  0  0  0  0  0  0  0  0  0
   53.3540  160.5063   30.5670 H   0  0  0  0  0  0  0  0  0  0  0  0
   52.6276  162.5791   31.7524 H   0  0  0  0  0  0  0  0  0  0  0  0
   50.2448  162.8549   32.4454 H   0  0  0  0  0  0  0  0  0  0  0  0
   47.7320  160.4510   32.0380 H   0  0  0  0  0  0  0  0  0  0  0  0
   47.8720  156.7050   29.4240 H   0  0  0  0  0  0  0  0  0  0  0  0
   52.3237  157.5276   27.3032 H   0  0  0  0  0  0  0  0  0  0  0  0
   54.3554  154.9349   25.7462 H   0  0  0  0  0  0  0  0  0  0  0  0
  1  2  1  0
  2  3  1  0
  3  4  2  0
  4  5  1  0
  5  6  2  0
  6  7  1  0
  7  8  1  0
  8  9  1  0
  9 10  2  0
 10 11  1  0
 11 12  2  0
 12 13  1  0
 13 14  1  0
 13 15  2  0
 15 16  1  0
 16 17  2  0
 16 18  1  0
 18 19  1  0
  6 20  1  0
 20 21  2  0
 21 22  1  0
 22 23  1  0
 22 24  1  0
 21  3  1  0
 18  7  2  0
 15  9  1  0
  1 25  1  0
  1 26  1  0
  1 27  1  0
  2 28  1  0
  2 29  1  0
  4 30  1  0
  5 31  1  0
 10 32  1  0
 11 33  1  0
 12 34  1  0
 14 35  1  0
 19 36  1  0
 20 37  1  0
 22 38  1  0
M  END
>  <meeko>  (4) 
{"is_sidechain": [false], "free_energy": -9.299, "intermolecular_energy": -11.346, "internal_energy": -0.505}

$$$$
cand_030_out
     RDKit          3D

 38 40  0  0  0  0  0  0  0  0999 V2000
   53.0760  154.4000   24.7930 C   0  0  0  0  0  0  0  0  0  0  0  0
   53.4770  154.1420   26.2380 C   0  0  0  0  0  0  0  0  0  0  0  0
   52.9200  155.1910   27.1770 C   0  0  0  0  0  0  0  0  0  0  0  0
   53.0330  156.5410   26.8050 C   0  0  0  0  0  0  0  0  0  0  0  0
   52.5460  157.5590   27.6290 C   0  0  0  0  0  0  0  0  0  0  0  0
   51.9280  157.2560   28.8460 C   0  0  0  0  0  0  0  0  0  0  0  0
   51.4360  158.3460   29.7130 C   0  0  0  0  0  0  0  0  0  0  0  0
   50.0980  158.1980   30.0620 O   0  0  0  0  0  0  0  0  0  0  0  0
   49.5140  159.1470   30.8640 C   0  0  0  0  0  0  0  0  0  0  0  0
   48.1660  158.9680   31.1750 C   0  0  0  0  0  0  0  0  0  0  0  0
   47.5120  159.8960   31.9890 C   0  0  0  0  0  0  0  0  0  0  0  0
   48.2050  161.0000   32.4910 C   0  0  0  0  0  0  0  0  0  0  0  0
   49.5510  161.1750   32.1780 C   0  0  0  0  0  0  0  0  0  0  0  0
   50.1680  162.2770   32.7030 O   0  0  0  0  0  0  0  0  0  0  0  0
   50.2040  160.2470   31.3630 C   0  0  0  0  0  0  0  0  0  0  0  0
   51.6180  160.3940   31.0100 C   0  0  0  0  0  0  0  0  0  0  0  0
   52.2970  161.3320   31.4180 O   0  0  0  0  0  0  0  0  0  0  0  0
   52.2150  159.3590   30.1340 C   0  0  0  0  0  0  0  0  0  0  0  0
   53.5530  159.4980   29.8150 O   0  0  0  0  0  0  0  0  0  0  0  0
   51.8310  155.9110   29.2280 C   0  0  0  0  0  0  0  0  0  0  0  0
   52.3210  154.8690   28.4130 C   0  0  0  0  0  0  0  0  0  0  0  0
   52.1490  153.4410   28.8800 C   0  0  0  0  0  0  0  0  0  0  0  0
   51.5250  153.3420   30.0870 F   0  0  0  0  0  0  0  0  0  0  0  0
   51.4060  152.6750   28.0290 F   0  0  0  0  0  0  0  0  0  0  0  0
   52.1511  154.9950   24.7698 H   0  0  0  0  0  0  0  0  0  0  0  0
   53.8795  154.9510   24.2823 H   0  0  0  0  0  0  0  0  0  0  0  0
   52.9075  153.4404   24.2823 H   0  0  0  0  0  0  0  0  0  0  0  0
   53.0964  153.1556   26.5415 H   0  0  0  0  0  0  0  0  0  0  0  0
   54.5747  154.1806   26.2981 H   0  0  0  0  0  0  0  0  0  0  0  0
   53.5126  156.8008   25.8497 H   0  0  0  0  0  0  0  0  0  0  0  0
   52.6498  158.6088   27.3172 H   0  0  0  0  0  0  0  0  0  0  0  0
   47.6196  158.0987   30.7804 H   0  0  0  0  0  0  0  0  0  0  0  0
   46.4489  159.7570   32.2352 H   0  0  0  0  0  0  0  0  0  0  0  0
   47.6889  161.7297   33.1322 H   0  0  0  0  0  0  0  0  0  0  0  0
   50.9320  162.6270   32.2890 H   0  0  0  0  0  0  0  0  0  0  0  0
   54.1970  159.5160   30.4960 H   0  0  0  0  0  0  0  0  0  0  0  0
   51.3597  155.6610   30.1900 H   0  0  0  0  0  0  0  0  0  0  0  0
   53.1862  153.0787   28.9341 H   0  0  0  0  0  0  0  0  0  0  0  0
  1  2  1  0
  2  3  1  0
  3  4  2  0
  4  5  1  0
  5  6  2  0
  6  7  1  0
  7  8  1  0
  8  9  1  0
  9 10  2  0
 10 11  1  0
 11 12  2  0
 12 13  1  0
 13 14  1  0
 13 15  2  0
 15 16  1  0
 16 17  2  0
 16 18  1  0
 18 19  1  0
  6 20  1  0
 20 21  2  0
 21 22  1  0
 22 23  1  0
 22 24  1  0
 21  3  1  0
 18  7  2  0
 15  9  1  0
  1 25  1  0
  1 26  1  0
  1 27  1  0
  2 28  1  0
  2 29  1  0
  4 30  1  0
  5 31  1  0
 10 32  1  0
 11 33  1  0
 12 34  1  0
 14 35  1  0
 19 36  1  0
 20 37  1  0
 22 38  1  0
M  END
>  <meeko>  (5) 
{"is_sidechain": [false], "free_energy": -9.016, "intermolecular_energy": -11.111, "internal_energy": -0.391}

$$$$
cand_030_out
     RDKit          3D

 38 40  0  0  0  0  0  0  0  0999 V2000
   48.0820  159.1390   30.5410 C   0  0  0  0  0  0  0  0  0  0  0  0
   49.2030  158.3600   31.2130 C   0  0  0  0  0  0  0  0  0  0  0  0
   50.0340  157.5830   30.2130 C   0  0  0  0  0  0  0  0  0  0  0  0
   49.6020  156.2960   29.8510 C   0  0  0  0  0  0  0  0  0  0  0  0
   50.3250  155.5240   28.9390 C   0  0  0  0  0  0  0  0  0  0  0  0
   51.4980  156.0170   28.3590 C   0  0  0  0  0  0  0  0  0  0  0  0
   52.2590  155.1790   27.4110 C   0  0  0  0  0  0  0  0  0  0  0  0
   51.9290  153.8310   27.4920 O   0  0  0  0  0  0  0  0  0  0  0  0
   52.5680  152.9420   26.6650 C   0  0  0  0  0  0  0  0  0  0  0  0
   52.2190  151.5970   26.7920 C   0  0  0  0  0  0  0  0  0  0  0  0
   52.8290  150.6400   25.9790 C   0  0  0  0  0  0  0  0  0  0  0  0
   53.7880  151.0270   25.0390 C   0  0  0  0  0  0  0  0  0  0  0  0
   54.1340  152.3710   24.9150 C   0  0  0  0  0  0  0  0  0  0  0  0
   55.0780  152.6800   23.9750 O   0  0  0  0  0  0  0  0  0  0  0  0
   53.5230  153.3280   25.7300 C   0  0  0  0  0  0  0  0  0  0  0  0
   53.8580  154.7490   25.6310 C   0  0  0  0  0  0  0  0  0  0  0  0
   54.6850  155.1700   24.8250 O   0  0  0  0  0  0  0  0  0  0  0  0
   53.1600  155.6820   26.5450 C   0  0  0  0  0  0  0  0  0  0  0  0
   53.4720  157.0240   26.4380 O   0  0  0  0  0  0  0  0  0  0  0  0
   51.9390  157.2940   28.7320 C   0  0  0  0  0  0  0  0  0  0  0  0
   51.2270  158.0870   29.6550 C   0  0  0  0  0  0  0  0  0  0  0  0
   51.7510  159.4680   29.9820 C   0  0  0  0  0  0  0  0  0  0  0  0
   50.9680  160.4690   29.4930 F   0  0  0  0  0  0  0  0  0  0  0  0
   51.8500  159.7110   31.3210 F   0  0  0  0  0  0  0  0  0  0  0  0
   47.4357  159.5881   31.3095 H   0  0  0  0  0  0  0  0  0  0  0  0
   48.5125  159.9336   29.9138 H   0  0  0  0  0  0  0  0  0  0  0  0
   47.4874  158.4585   29.9138 H   0  0  0  0  0  0  0  0  0  0  0  0
   49.8569  159.0667   31.7450 H   0  0  0  0  0  0  0  0  0  0  0  0
   48.7465  157.6394   31.9075 H   0  0  0  0  0  0  0  0  0  0  0  0
   48.6800  155.8901   30.2928 H   0  0  0  0  0  0  0  0  0  0  0  0
   49.9681  154.5178   28.6742 H   0  0  0  0  0  0  0  0  0  0  0  0
   51.4644  151.2912   27.5316 H   0  0  0  0  0  0  0  0  0  0  0  0
   52.5543  149.5795   26.0785 H   0  0  0  0  0  0  0  0  0  0  0  0
   54.2684  150.2725   24.3987 H   0  0  0  0  0  0  0  0  0  0  0  0
   55.7820  153.2600   24.1910 H   0  0  0  0  0  0  0  0  0  0  0  0
   52.9290  157.5920   25.9270 H   0  0  0  0  0  0  0  0  0  0  0  0
   52.8668  157.6887   28.2922 H   0  0  0  0  0  0  0  0  0  0  0  0
   52.7433  159.4676   29.5073 H   0  0  0  0  0  0  0  0  0  0  0  0
  1  2  1  0
  2  3  1  0
  3  4  2  0
  4  5  1  0
  5  6  2  0
  6  7  1  0
  7  8  1  0
  8  9  1  0
  9 10  2  0
 10 11  1  0
 11 12  2  0
 12 13  1  0
 13 14  1  0
 13 15  2  0
 15 16  1  0
 16 17  2  0
 16 18  1  0
 18 19  1  0
  6 20  1  0
 20 21  2  0
 21 22  1  0
 22 23  1  0
 22 24  1  0
 21  3  1  0
 18  7  2  0
 15  9  1  0
  1 25  1  0
  1 26  1  0
  1 27  1  0
  2 28  1  0
  2 29  1  0
  4 30  1  0
  5 31  1  0
 10 32  1  0
 11 33  1  0
 12 34  1  0
 14 35  1  0
 19 36  1  0
 20 37  1  0
 22 38  1  0
M  END
>  <meeko>  (6) 
{"is_sidechain": [false], "free_energy": -8.712, "intermolecular_energy": -11.089, "internal_energy": -0.037}

$$$$
cand_030_out
     RDKit          3D

 38 40  0  0  0  0  0  0  0  0999 V2000
   54.8710  154.7490   24.4890 C   0  0  0  0  0  0  0  0  0  0  0  0
   53.9640  153.9410   25.4040 C   0  0  0  0  0  0  0  0  0  0  0  0
   53.2520  154.8160   26.4140 C   0  0  0  0  0  0  0  0  0  0  0  0
   53.3930  156.2100   26.3000 C   0  0  0  0  0  0  0  0  0  0  0  0
   52.7680  157.0730   27.2020 C   0  0  0  0  0  0  0  0  0  0  0  0
   51.9800  156.5700   28.2430 C   0  0  0  0  0  0  0  0  0  0  0  0
   51.3420  157.4970   29.1980 C   0  0  0  0  0  0  0  0  0  0  0  0
   52.1140  158.6230   29.4590 O   0  0  0  0  0  0  0  0  0  0  0  0
   51.6370  159.5650   30.3350 C   0  0  0  0  0  0  0  0  0  0  0  0
   52.4520  160.6700   30.5820 C   0  0  0  0  0  0  0  0  0  0  0  0
   52.0250  161.6680   31.4610 C   0  0  0  0  0  0  0  0  0  0  0  0
   50.7830  161.5600   32.0930 C   0  0  0  0  0  0  0  0  0  0  0  0
   49.9720  160.4560   31.8440 C   0  0  0  0  0  0  0  0  0  0  0  0
   48.7690  160.4140   32.4950 O   0  0  0  0  0  0  0  0  0  0  0  0
   50.4010  159.4580   30.9650 C   0  0  0  0  0  0  0  0  0  0  0  0
   49.5790  158.2810   30.6770 C   0  0  0  0  0  0  0  0  0  0  0  0
   48.4730  158.1180   31.1860 O   0  0  0  0  0  0  0  0  0  0  0  0
   50.1280  157.2770   29.7360 C   0  0  0  0  0  0  0  0  0  0  0  0
   49.3410  156.1750   29.4590 O   0  0  0  0  0  0  0  0  0  0  0  0
   51.8530  155.1790   28.3690 C   0  0  0  0  0  0  0  0  0  0  0  0
   52.4800  154.2900   27.4710 C   0  0  0  0  0  0  0  0  0  0  0  0
   52.2680  152.8040   27.6560 C   0  0  0  0  0  0  0  0  0  0  0  0
   51.5930  152.4960   28.7980 F   0  0  0  0  0  0  0  0  0  0  0  0
   51.5500  152.2270   26.6490 F   0  0  0  0  0  0  0  0  0  0  0  0
   55.5556  155.3589   25.0968 H   0  0  0  0  0  0  0  0  0  0  0  0
   55.4542  154.0656   23.8542 H   0  0  0  0  0  0  0  0  0  0  0  0
   54.2593  155.4069   23.8542 H   0  0  0  0  0  0  0  0  0  0  0  0
   53.2122  153.4224   24.7910 H   0  0  0  0  0  0  0  0  0  0  0  0
   54.5899  153.2248   25.9565 H   0  0  0  0  0  0  0  0  0  0  0  0
   54.0055  156.6274   25.4872 H   0  0  0  0  0  0  0  0  0  0  0  0
   52.8964  158.1600   27.0931 H   0  0  0  0  0  0  0  0  0  0  0  0
   53.4297  160.7552   30.0851 H   0  0  0  0  0  0  0  0  0  0  0  0
   52.6668  162.5398   31.6561 H   0  0  0  0  0  0  0  0  0  0  0  0
   50.4470  162.3456   32.7857 H   0  0  0  0  0  0  0  0  0  0  0  0
   48.7440  160.3130   33.4260 H   0  0  0  0  0  0  0  0  0  0  0  0
   49.6250  155.3200   29.7180 H   0  0  0  0  0  0  0  0  0  0  0  0
   51.2475  154.7698   29.1911 H   0  0  0  0  0  0  0  0  0  0  0  0
   53.2965  152.4148   27.6812 H   0  0  0  0  0  0  0  0  0  0  0  0
  1  2  1  0
  2  3  1  0
  3  4  2  0
  4  5  1  0
  5  6  2  0
  6  7  1  0
  7  8  1  0
  8  9  1  0
  9 10  2  0
 10 11  1  0
 11 12  2  0
 12 13  1  0
 13 14  1  0
 13 15  2  0
 15 16  1  0
 16 17  2  0
 16 18  1  0
 18 19  1  0
  6 20  1  0
 20 21  2  0
 21 22  1  0
 22 23  1  0
 22 24  1  0
 21  3  1  0
 18  7  2  0
 15  9  1  0
  1 25  1  0
  1 26  1  0
  1 27  1  0
  2 28  1  0
  2 29  1  0
  4 30  1  0
  5 31  1  0
 10 32  1  0
 11 33  1  0
 12 34  1  0
 14 35  1  0
 19 36  1  0
 20 37  1  0
 22 38  1  0
M  END
>  <meeko>  (7) 
{"is_sidechain": [false], "free_energy": -8.709, "intermolecular_energy": -10.899, "internal_energy": -0.223}

$$$$
cand_030_out
     RDKit          3D

 38 40  0  0  0  0  0  0  0  0999 V2000
   51.7340  160.7290   30.6700 C   0  0  0  0  0  0  0  0  0  0  0  0
   50.9130  159.4620   30.8580 C   0  0  0  0  0  0  0  0  0  0  0  0
   51.3440  158.3600   29.9140 C   0  0  0  0  0  0  0  0  0  0  0  0
   52.6250  158.4420   29.3410 C   0  0  0  0  0  0  0  0  0  0  0  0
   53.0820  157.4620   28.4570 C   0  0  0  0  0  0  0  0  0  0  0  0
   52.2760  156.3690   28.1230 C   0  0  0  0  0  0  0  0  0  0  0  0
   52.7690  155.3520   27.1730 C   0  0  0  0  0  0  0  0  0  0  0  0
   52.3300  154.0690   27.4760 O   0  0  0  0  0  0  0  0  0  0  0  0
   52.7200  153.0280   26.6720 C   0  0  0  0  0  0  0  0  0  0  0  0
   52.2710  151.7540   27.0230 C   0  0  0  0  0  0  0  0  0  0  0  0
   52.6300  150.6510   26.2440 C   0  0  0  0  0  0  0  0  0  0  0  0
   53.4370  150.8220   25.1170 C   0  0  0  0  0  0  0  0  0  0  0  0
   53.8840  152.0940   24.7700 C   0  0  0  0  0  0  0  0  0  0  0  0
   54.6690  152.1900   23.6540 O   0  0  0  0  0  0  0  0  0  0  0  0
   53.5250  153.1970   25.5500 C   0  0  0  0  0  0  0  0  0  0  0  0
   53.9730  154.5510   25.2190 C   0  0  0  0  0  0  0  0  0  0  0  0
   54.6780  154.7840   24.2410 O   0  0  0  0  0  0  0  0  0  0  0  0
   53.5440  155.6510   26.1140 C   0  0  0  0  0  0  0  0  0  0  0  0
   53.9610  156.9290   25.7890 O   0  0  0  0  0  0  0  0  0  0  0  0
   50.9910  156.2950   28.6800 C   0  0  0  0  0  0  0  0  0  0  0  0
   50.5090  157.2770   29.5700 C   0  0  0  0  0  0  0  0  0  0  0  0
   49.1230  157.1080   30.1540 C   0  0  0  0  0  0  0  0  0  0  0  0
   48.3400  158.2120   30.0050 F   0  0  0  0  0  0  0  0  0  0  0  0
   48.4150  156.0870   29.5900 F   0  0  0  0  0  0  0  0  0  0  0  0
   52.0016  161.1419   31.6538 H   0  0  0  0  0  0  0  0  0  0  0  0
   52.6508  160.4922   30.1101 H   0  0  0  0  0  0  0  0  0  0  0  0
   51.1433  161.4690   30.1101 H   0  0  0  0  0  0  0  0  0  0  0  0
   51.0350  159.1104   31.8931 H   0  0  0  0  0  0  0  0  0  0  0  0
   49.8621  159.7034   30.6402 H   0  0  0  0  0  0  0  0  0  0  0  0
   53.2775  159.2910   29.5927 H   0  0  0  0  0  0  0  0  0  0  0  0
   54.0870  157.5509   28.0187 H   0  0  0  0  0  0  0  0  0  0  0  0
   51.6359  151.6185   27.9109 H   0  0  0  0  0  0  0  0  0  0  0  0
   52.2764  149.6463   26.5188 H   0  0  0  0  0  0  0  0  0  0  0  0
   53.7190  149.9529   24.5045 H   0  0  0  0  0  0  0  0  0  0  0  0
   55.5350  152.5420   23.7200 H   0  0  0  0  0  0  0  0  0  0  0  0
   54.8310  157.2050   26.0020 H   0  0  0  0  0  0  0  0  0  0  0  0
   50.3413  155.4477   28.4154 H   0  0  0  0  0  0  0  0  0  0  0  0
   49.3310  156.9047   31.2148 H   0  0  0  0  0  0  0  0  0  0  0  0
  1  2  1  0
  2  3  1  0
  3  4  2  0
  4  5  1  0
  5  6  2  0
  6  7  1  0
  7  8  1  0
  8  9  1  0
  9 10  2  0
 10 11  1  0
 11 12  2  0
 12 13  1  0
 13 14  1  0
 13 15  2  0
 15 16  1  0
 16 17  2  0
 16 18  1  0
 18 19  1  0
  6 20  1  0
 20 21  2  0
 21 22  1  0
 22 23  1  0
 22 24  1  0
 21  3  1  0
 18  7  2  0
 15  9  1  0
  1 25  1  0
  1 26  1  0
  1 27  1  0
  2 28  1  0
  2 29  1  0
  4 30  1  0
  5 31  1  0
 10 32  1  0
 11 33  1  0
 12 34  1  0
 14 35  1  0
 19 36  1  0
 20 37  1  0
 22 38  1  0
M  END
>  <meeko>  (8) 
{"is_sidechain": [false], "free_energy": -8.144, "intermolecular_energy": -10.37, "internal_energy": -0.055}

$$$$
