cand_054_out
     RDKit          3D

 46 48  0  0  0  0  0  0  0  0999 V2000
   54.4560  153.2310   23.8330 C   0  0  0  0  0  0  0  0  0  0  0  0
   54.3350  153.8800   25.2050 C   0  0  0  0  0  0  0  0  0  0  0  0
   53.0710  154.6330   25.3380 N   0  0  0  0  0  0  0  0  0  0  0  0
   53.1030  155.9970   24.7730 C   0  0  0  0  0  0  0  0  0  0  0  0
   54.5220  156.5470   24.8100 C   0  0  0  0  0  0  0  0  0  0  0  0
   52.5710  154.6680   26.6670 C   0  0  0  0  0  0  0  0  0  0  0  0
   52.2690  155.8790   27.3190 C   0  0  0  0  0  0  0  0  0  0  0  0
   51.7570  155.9050   28.6240 C   0  0  0  0  0  0  0  0  0  0  0  0
   51.4630  157.1780   29.3170 C   0  0  0  0  0  0  0  0  0  0  0  0
   50.1540  157.2510   29.7810 O   0  0  0  0  0  0  0  0  0  0  0  0
   49.7470  158.3790   30.4440 C   0  0  0  0  0  0  0  0  0  0  0  0
   48.4300  158.4030   30.9040 C   0  0  0  0  0  0  0  0  0  0  0  0
   47.9510  159.5240   31.5870 C   0  0  0  0  0  0  0  0  0  0  0  0
   48.7880  160.6200   31.8060 C   0  0  0  0  0  0  0  0  0  0  0  0
   50.1010  160.5930   31.3450 C   0  0  0  0  0  0  0  0  0  0  0  0
   50.8660  161.7000   31.5950 O   0  0  0  0  0  0  0  0  0  0  0  0
   50.5810  159.4710   30.6640 C   0  0  0  0  0  0  0  0  0  0  0  0
   51.9540  159.4030   30.1630 C   0  0  0  0  0  0  0  0  0  0  0  0
   52.7490  160.3290   30.3110 O   0  0  0  0  0  0  0  0  0  0  0  0
   52.3660  158.1660   29.4610 C   0  0  0  0  0  0  0  0  0  0  0  0
   53.6620  158.1180   28.9800 O   0  0  0  0  0  0  0  0  0  0  0  0
   51.5580  154.6900   29.2890 C   0  0  0  0  0  0  0  0  0  0  0  0
   51.8420  153.4770   28.6550 C   0  0  0  0  0  0  0  0  0  0  0  0
   52.3410  153.4540   27.3470 C   0  0  0  0  0  0  0  0  0  0  0  0
   52.6310  152.1330   26.6860 C   0  0  0  0  0  0  0  0  0  0  0  0
   54.6564  152.1560   23.9523 H   0  0  0  0  0  0  0  0  0  0  0  0
   53.5166  153.3694   23.2778 H   0  0  0  0  0  0  0  0  0  0  0  0
   55.2824  153.6987   23.2778 H   0  0  0  0  0  0  0  0  0  0  0  0
   54.3666  153.0956   25.9755 H   0  0  0  0  0  0  0  0  0  0  0  0
   55.1710  154.5842   25.3287 H   0  0  0  0  0  0  0  0  0  0  0  0
   52.7517  155.9672   23.7310 H   0  0  0  0  0  0  0  0  0  0  0  0
   52.4491  156.6490   25.3707 H   0  0  0  0  0  0  0  0  0  0  0  0
   54.8403  156.6704   25.8557 H   0  0  0  0  0  0  0  0  0  0  0  0
   55.2001  155.8466   24.3005 H   0  0  0  0  0  0  0  0  0  0  0  0
   54.5509  157.5215   24.3005 H   0  0  0  0  0  0  0  0  0  0  0  0
   52.4391  156.8289   26.7910 H   0  0  0  0  0  0  0  0  0  0  0  0
   47.7697  157.5407   30.7293 H   0  0  0  0  0  0  0  0  0  0  0  0
   46.9137  159.5431   31.9525 H   0  0  0  0  0  0  0  0  0  0  0  0
   48.4103  161.5032   32.3420 H   0  0  0  0  0  0  0  0  0  0  0  0
   51.7880  161.6810   31.4250 H   0  0  0  0  0  0  0  0  0  0  0  0
   54.0080  158.8380   28.4920 H   0  0  0  0  0  0  0  0  0  0  0  0
   51.1746  154.6894   30.3200 H   0  0  0  0  0  0  0  0  0  0  0  0
   51.6717  152.5307   29.1893 H   0  0  0  0  0  0  0  0  0  0  0  0
   52.7993  151.3664   27.4568 H   0  0  0  0  0  0  0  0  0  0  0  0
   51.7756  151.8410   26.0591 H   0  0  0  0  0  0  0  0  0  0  0  0
   53.5301  152.2262   26.0591 H   0  0  0  0  0  0  0  0  0  0  0  0
  1  2  1  0
  2  3  1  0
  3  4  1  0
  4  5  1  0
  3  6  1  0
  6  7  2  0
  7  8  1  0
  8  9  1  0
  9 10  1  0
 10 11  1  0
 11 12  2  0
 12 13  1  0
 13 14  2  0
 14 15  1  0
 15 16  1  0
 15 17  2  0
 17 18  1  0
 18 19  2  0
 18 20  1  0
 20 21  1  0
  8 22  2  0
 22 23  1  0
 23 24  2  0
 24 25  1  0
 24  6  1  0
 20  9  2  0
 17 11  1  0
  1 26  1  0
  1 27  1  0
  1 28  1  0
  2 29  1  0
  2 30  1  0
  4 31  1  0
  4 32  1  0
  5 33  1  0
  5 34  1  0
  5 35  1  0
  7 36  1  0
 12 37  1  0
 13 38  1  0
 14 39  1  0
 16 40  1  0
 21 41  1  0
 22 42  1  0
 23 43  1  0
 25 44  1  0
 25 45  1  0
 25 46  1  0
M  END
>  <meeko>  (1) 
{"is_sidechain": [false], "free_energy": -9.864, "intermolecular_energy": -12.748, "internal_energy": 0.4}

$$$$
cand_054_out
     RDKit          3D

 46 48  0  0  0  0  0  0  0  0999 V2000
   55.1160  156.7490   24.4420 C   0  0  0  0  0  0  0  0  0  0  0  0
   53.8230  156.5800   25.2270 C   0  0  0  0  0  0  0  0  0  0  0  0
   53.6230  155.1780   25.6460 N   0  0  0  0  0  0  0  0  0  0  0  0
   52.9580  154.3220   24.6430 C   0  0  0  0  0  0  0  0  0  0  0  0
   53.9970  153.6230   23.7780 C   0  0  0  0  0  0  0  0  0  0  0  0
   52.9720  155.0520   26.9020 C   0  0  0  0  0  0  0  0  0  0  0  0
   52.3610  156.1490   27.5390 C   0  0  0  0  0  0  0  0  0  0  0  0
   51.7020  156.0130   28.7700 C   0  0  0  0  0  0  0  0  0  0  0  0
   51.0830  157.1710   29.4500 C   0  0  0  0  0  0  0  0  0  0  0  0
   51.9910  158.1910   29.7140 O   0  0  0  0  0  0  0  0  0  0  0  0
   51.5490  159.3260   30.3430 C   0  0  0  0  0  0  0  0  0  0  0  0
   52.4900  160.3290   30.5740 C   0  0  0  0  0  0  0  0  0  0  0  0
   52.1060  161.5110   31.2110 C   0  0  0  0  0  0  0  0  0  0  0  0
   50.7820  161.6880   31.6190 C   0  0  0  0  0  0  0  0  0  0  0  0
   49.8450  160.6850   31.3870 C   0  0  0  0  0  0  0  0  0  0  0  0
   48.5660  160.9240   31.8110 O   0  0  0  0  0  0  0  0  0  0  0  0
   50.2300  159.5030   30.7470 C   0  0  0  0  0  0  0  0  0  0  0  0
   49.2760  158.4250   30.4840 C   0  0  0  0  0  0  0  0  0  0  0  0
   48.0950  158.5030   30.8180 O   0  0  0  0  0  0  0  0  0  0  0  0
   49.7830  157.2160   29.7940 C   0  0  0  0  0  0  0  0  0  0  0  0
   48.8750  156.1980   29.5620 O   0  0  0  0  0  0  0  0  0  0  0  0
   51.6700  154.7520   29.3750 C   0  0  0  0  0  0  0  0  0  0  0  0
   52.2620  153.6490   28.7550 C   0  0  0  0  0  0  0  0  0  0  0  0
   52.9070  153.7850   27.5190 C   0  0  0  0  0  0  0  0  0  0  0  0
   53.5300  152.5790   26.8690 C   0  0  0  0  0  0  0  0  0  0  0  0
   55.9579  156.8590   25.1414 H   0  0  0  0  0  0  0  0  0  0  0  0
   55.2787  155.8645   23.8086 H   0  0  0  0  0  0  0  0  0  0  0  0
   55.0459  157.6456   23.8086 H   0  0  0  0  0  0  0  0  0  0  0  0
   53.8623  157.2183   26.1220 H   0  0  0  0  0  0  0  0  0  0  0  0
   52.9843  156.8686   24.5764 H   0  0  0  0  0  0  0  0  0  0  0  0
   52.3462  153.5667   25.1580 H   0  0  0  0  0  0  0  0  0  0  0  0
   52.3199  154.9485   24.0024 H   0  0  0  0  0  0  0  0  0  0  0  0
   54.7364  153.1256   24.4229 H   0  0  0  0  0  0  0  0  0  0  0  0
   53.5014  152.8739   23.1430 H   0  0  0  0  0  0  0  0  0  0  0  0
   54.5041  154.3643   23.1430 H   0  0  0  0  0  0  0  0  0  0  0  0
   52.4014  157.1380   27.0591 H   0  0  0  0  0  0  0  0  0  0  0  0
   53.5334  160.1893   30.2549 H   0  0  0  0  0  0  0  0  0  0  0  0
   52.8471  162.3035   31.3916 H   0  0  0  0  0  0  0  0  0  0  0  0
   50.4803  162.6182   32.1227 H   0  0  0  0  0  0  0  0  0  0  0  0
   48.1090  160.2760   32.3120 H   0  0  0  0  0  0  0  0  0  0  0  0
   49.1100  155.4780   29.0110 H   0  0  0  0  0  0  0  0  0  0  0  0
   51.1737  154.6278   30.3488 H   0  0  0  0  0  0  0  0  0  0  0  0
   52.2212  152.6637   29.2423 H   0  0  0  0  0  0  0  0  0  0  0  0
   53.8873  151.8872   27.6460 H   0  0  0  0  0  0  0  0  0  0  0  0
   52.7810  152.0719   26.2429 H   0  0  0  0  0  0  0  0  0  0  0  0
   54.3770  152.8964   26.2429 H   0  0  0  0  0  0  0  0  0  0  0  0
  1  2  1  0
  2  3  1  0
  3  4  1  0
  4  5  1  0
  3  6  1  0
  6  7  2  0
  7  8  1  0
  8  9  1  0
  9 10  1  0
 10 11  1  0
 11 12  2  0
 12 13  1  0
 13 14  2  0
 14 15  1  0
 15 16  1  0
 15 17  2  0
 17 18  1  0
 18 19  2  0
 18 20  1  0
 20 21  1  0
  8 22  2  0
 22 23  1  0
 23 24  2  0
 24 25  1  0
 24  6  1  0
 20  9  2  0
 17 11  1  0
  1 26  1  0
  1 27  1  0
  1 28  1  0
  2 29  1  0
  2 30  1  0
  4 31  1  0
  4 32  1  0
  5 33  1  0
  5 34  1  0
  5 35  1  0
  7 36  1  0
 12 37  1  0
 13 38  1  0
 14 39  1  0
 16 40  1  0
 21 41  1  0
 22 42  1  0
 23 43  1  0
 25 44  1  0
 25 45  1  0
 25 46  1  0
M  END
>  <meeko>  (2) 
{"is_sidechain": [false], "free_energy": -8.896, "intermolecular_energy": -11.557, "internal_energy": 0.461}

$$$$
cand_054_out
     RDKit          3D

 46 48  0  0  0  0  0  0  0  0999 V2000
   49.2090  160.5150   33.5800 C   0  0  0  0  0  0  0  0  0  0  0  0
   49.1690  159.2790   32.6910 C   0  0  0  0  0  0  0  0  0  0  0  0
   49.2360  159.6390   31.2600 N   0  0  0  0  0  0  0  0  0  0  0  0
   48.1050  159.1500   30.4460 C   0  0  0  0  0  0  0  0  0  0  0  0
   46.8280  159.8840   30.8300 C   0  0  0  0  0  0  0  0  0  0  0  0
   50.4670  159.2840   30.6470 C   0  0  0  0  0  0  0  0  0  0  0  0
   50.6370  158.0620   29.9670 C   0  0  0  0  0  0  0  0  0  0  0  0
   51.8490  157.7270   29.3460 C   0  0  0  0  0  0  0  0  0  0  0  0
   52.0350  156.4330   28.6550 C   0  0  0  0  0  0  0  0  0  0  0  0
   52.5400  156.5770   27.3680 O   0  0  0  0  0  0  0  0  0  0  0  0
   52.7610  155.4540   26.6130 C   0  0  0  0  0  0  0  0  0  0  0  0
   53.2820  155.6440   25.3330 C   0  0  0  0  0  0  0  0  0  0  0  0
   53.5310  154.5420   24.5110 C   0  0  0  0  0  0  0  0  0  0  0  0
   53.2550  153.2510   24.9690 C   0  0  0  0  0  0  0  0  0  0  0  0
   52.7350  153.0660   26.2470 C   0  0  0  0  0  0  0  0  0  0  0  0
   52.4890  151.7760   26.6310 O   0  0  0  0  0  0  0  0  0  0  0  0
   52.4880  154.1680   27.0690 C   0  0  0  0  0  0  0  0  0  0  0  0
   51.9420  154.0170   28.4180 C   0  0  0  0  0  0  0  0  0  0  0  0
   51.6680  152.9140   28.8900 O   0  0  0  0  0  0  0  0  0  0  0  0
   51.7250  155.2470   29.2120 C   0  0  0  0  0  0  0  0  0  0  0  0
   51.1960  155.0920   30.4800 O   0  0  0  0  0  0  0  0  0  0  0  0
   52.9120  158.6340   29.4220 C   0  0  0  0  0  0  0  0  0  0  0  0
   52.7600  159.8560   30.0820 C   0  0  0  0  0  0  0  0  0  0  0  0
   51.5440  160.1940   30.6900 C   0  0  0  0  0  0  0  0  0  0  0  0
   51.4060  161.5190   31.3880 C   0  0  0  0  0  0  0  0  0  0  0  0
   49.1990  160.2075   34.6361 H   0  0  0  0  0  0  0  0  0  0  0  0
   50.1261  161.0860   33.3730 H   0  0  0  0  0  0  0  0  0  0  0  0
   48.3307  161.1441   33.3730 H   0  0  0  0  0  0  0  0  0  0  0  0
   50.0249  158.6335   32.9376 H   0  0  0  0  0  0  0  0  0  0  0  0
   48.2187  158.7551   32.8709 H   0  0  0  0  0  0  0  0  0  0  0  0
   48.3198  159.3262   29.3817 H   0  0  0  0  0  0  0  0  0  0  0  0
   47.9699  158.0735   30.6275 H   0  0  0  0  0  0  0  0  0  0  0  0
   46.7472  159.9304   31.9260 H   0  0  0  0  0  0  0  0  0  0  0  0
   46.8545  160.9047   30.4207 H   0  0  0  0  0  0  0  0  0  0  0  0
   45.9594  159.3473   30.4207 H   0  0  0  0  0  0  0  0  0  0  0  0
   49.7977  157.3524   29.9220 H   0  0  0  0  0  0  0  0  0  0  0  0
   53.4966  156.6604   24.9712 H   0  0  0  0  0  0  0  0  0  0  0  0
   53.9446  154.6908   23.5026 H   0  0  0  0  0  0  0  0  0  0  0  0
   53.4481  152.3831   24.3213 H   0  0  0  0  0  0  0  0  0  0  0  0
   52.9430  151.4110   27.3660 H   0  0  0  0  0  0  0  0  0  0  0  0
   51.4760  154.3810   31.0210 H   0  0  0  0  0  0  0  0  0  0  0  0
   53.8768  158.3823   28.9575 H   0  0  0  0  0  0  0  0  0  0  0  0
   53.6040  160.5601   30.1247 H   0  0  0  0  0  0  0  0  0  0  0  0
   51.4222  161.3633   32.4768 H   0  0  0  0  0  0  0  0  0  0  0  0
   52.2407  162.1744   31.0989 H   0  0  0  0  0  0  0  0  0  0  0  0
   50.4541  161.9884   31.0989 H   0  0  0  0  0  0  0  0  0  0  0  0
  1  2  1  0
  2  3  1  0
  3  4  1  0
  4  5  1  0
  3  6  1  0
  6  7  2  0
  7  8  1  0
  8  9  1  0
  9 10  1  0
 10 11  1  0
 11 12  2  0
 12 13  1  0
 13 14  2  0
 14 15  1  0
 15 16  1  0
 15 17  2  0
 17 18  1  0
 18 19  2  0
 18 20  1  0
 20 21  1  0
  8 22  2  0
 22 23  1  0
 23 24  2  0
 24 25  1  0
 24  6  1  0
 20  9  2  0
 17 11  1  0
  1 26  1  0
  1 27  1  0
  1 28  1  0
  2 29  1  0
  2 30  1  0
  4 31  1  0
  4 32  1  0
  5 33  1  0
  5 34  1  0
  5 35  1  0
  7 36  1  0
 12 37  1  0
 13 38  1  0
 14 39  1  0
 16 40  1  0
 21 41  1  0
 22 42  1  0
 23 43  1  0
 25 44  1  0
 25 45  1  0
 25 46  1  0
M  END
>  <meeko>  (3) 
{"is_sidechain": [false], "free_energy": -8.886, "intermolecular_energy": -10.883, "internal_energy": -0.2}

$$$$
cand_054_out
     RDKit          3D

 46 48  0  0  0  0  0  0  0  0999 V2000
   53.1030  162.1850   30.8200 C   0  0  0  0  0  0  0  0  0  0  0  0
   52.6100  160.7920   30.4530 C   0  0  0  0  0  0  0  0  0  0  0  0
   51.2150  160.5790   30.8880 N   0  0  0  0  0  0  0  0  0  0  0  0
   50.9800  160.7830   32.3320 C   0  0  0  0  0  0  0  0  0  0  0  0
   50.2980  162.1230   32.5690 C   0  0  0  0  0  0  0  0  0  0  0  0
   50.6800  159.3290   30.4800 C   0  0  0  0  0  0  0  0  0  0  0  0
   51.4530  158.3790   29.7840 C   0  0  0  0  0  0  0  0  0  0  0  0
   50.9250  157.1380   29.4010 C   0  0  0  0  0  0  0  0  0  0  0  0
   51.7290  156.1520   28.6470 C   0  0  0  0  0  0  0  0  0  0  0  0
   52.2270  156.6620   27.4530 O   0  0  0  0  0  0  0  0  0  0  0  0
   52.9920  155.8520   26.6530 C   0  0  0  0  0  0  0  0  0  0  0  0
   53.4830  156.4090   25.4720 C   0  0  0  0  0  0  0  0  0  0  0  0
   54.2680  155.6380   24.6120 C   0  0  0  0  0  0  0  0  0  0  0  0
   54.5600  154.3100   24.9330 C   0  0  0  0  0  0  0  0  0  0  0  0
   54.0680  153.7570   26.1120 C   0  0  0  0  0  0  0  0  0  0  0  0
   54.3920  152.4520   26.3640 O   0  0  0  0  0  0  0  0  0  0  0  0
   53.2840  154.5300   26.9730 C   0  0  0  0  0  0  0  0  0  0  0  0
   52.7480  153.9870   28.2220 C   0  0  0  0  0  0  0  0  0  0  0  0
   52.9550  152.8260   28.5700 O   0  0  0  0  0  0  0  0  0  0  0  0
   51.9350  154.8900   29.0680 C   0  0  0  0  0  0  0  0  0  0  0  0
   51.4230  154.3620   30.2390 O   0  0  0  0  0  0  0  0  0  0  0  0
   49.5910  156.8530   29.7140 C   0  0  0  0  0  0  0  0  0  0  0  0
   48.8110  157.7780   30.4130 C   0  0  0  0  0  0  0  0  0  0  0  0
   49.3450  159.0120   30.8060 C   0  0  0  0  0  0  0  0  0  0  0  0
   48.4850  159.9860   31.5650 C   0  0  0  0  0  0  0  0  0  0  0  0
   53.1383  162.2848   31.9149 H   0  0  0  0  0  0  0  0  0  0  0  0
   54.1101  162.3386   30.4051 H   0  0  0  0  0  0  0  0  0  0  0  0
   52.4167  162.9379   30.4051 H   0  0  0  0  0  0  0  0  0  0  0  0
   52.6666  160.6690   29.3614 H   0  0  0  0  0  0  0  0  0  0  0  0
   53.2470  160.0550   30.9640 H   0  0  0  0  0  0  0  0  0  0  0  0
   50.3374  159.9757   32.7132 H   0  0  0  0  0  0  0  0  0  0  0  0
   51.9461  160.7738   32.8579 H   0  0  0  0  0  0  0  0  0  0  0  0
   50.2070  162.3019   33.6505 H   0  0  0  0  0  0  0  0  0  0  0  0
   50.8975  162.9251   32.1139 H   0  0  0  0  0  0  0  0  0  0  0  0
   49.2967  162.1104   32.1139 H   0  0  0  0  0  0  0  0  0  0  0  0
   52.4976  158.6170   29.5346 H   0  0  0  0  0  0  0  0  0  0  0  0
   53.2521  157.4542   25.2185 H   0  0  0  0  0  0  0  0  0  0  0  0
   54.6567  156.0766   23.6811 H   0  0  0  0  0  0  0  0  0  0  0  0
   55.1776  153.7024   24.2553 H   0  0  0  0  0  0  0  0  0  0  0  0
   53.9440  151.7620   25.9140 H   0  0  0  0  0  0  0  0  0  0  0  0
   51.6530  153.4940   30.5020 H   0  0  0  0  0  0  0  0  0  0  0  0
   49.1525  155.8920   29.4069 H   0  0  0  0  0  0  0  0  0  0  0  0
   47.7665  157.5346   30.6573 H   0  0  0  0  0  0  0  0  0  0  0  0
   48.6217  159.8312   32.6454 H   0  0  0  0  0  0  0  0  0  0  0  0
   48.7756  161.0138   31.3022 H   0  0  0  0  0  0  0  0  0  0  0  0
   47.4291  159.8249   31.3022 H   0  0  0  0  0  0  0  0  0  0  0  0
  1  2  1  0
  2  3  1  0
  3  4  1  0
  4  5  1  0
  3  6  1  0
  6  7  2  0
  7  8  1  0
  8  9  1  0
  9 10  1  0
 10 11  1  0
 11 12  2  0
 12 13  1  0
 13 14  2  0
 14 15  1  0
 15 16  1  0
 15 17  2  0
 17 18  1  0
 18 19  2  0
 18 20  1  0
 20 21  1  0
  8 22  2  0
 22 23  1  0
 23 24  2  0
 24 25  1  0
 24  6  1  0
 20  9  2  0
 17 11  1  0
  1 26  1  0
  1 27  1  0
  1 28  1  0
  2 29  1  0
  2 30  1  0
  4 31  1  0
  4 32  1  0
  5 33  1  0
  5 34  1  0
  5 35  1  0
  7 36  1  0
 12 37  1  0
 13 38  1  0
 14 39  1  0
 16 40  1  0
 21 41  1  0
 22 42  1  0
 23 43  1  0
 25 44  1  0
 25 45  1  0
 25 46  1  0
M  END
>  <meeko>  (4) 
{"is_sidechain": [false], "free_energy": -8.445, "intermolecular_energy": -11.694, "internal_energy": 1.18}

$$$$
