cand_039_out
     RDKit          3D

 41 43  0  0  0  0  0  0  0  0999 V2000
   49.9740  161.0180   33.2510 C   0  0  0  0  0  0  0  0  0  0  0  0
   50.0150  161.2600   31.7490 C   0  0  0  0  0  0  0  0  0  0  0  0
   50.4340  160.0240   30.9890 C   0  0  0  0  0  0  0  0  0  0  0  0
   51.7170  160.0040   30.4150 C   0  0  0  0  0  0  0  0  0  0  0  0
   52.1740  158.8910   29.7060 C   0  0  0  0  0  0  0  0  0  0  0  0
   51.3620  157.7650   29.5430 C   0  0  0  0  0  0  0  0  0  0  0  0
   51.8710  156.5880   28.8070 C   0  0  0  0  0  0  0  0  0  0  0  0
   52.4340  156.9210   27.5810 O   0  0  0  0  0  0  0  0  0  0  0  0
   52.9470  155.9220   26.7930 C   0  0  0  0  0  0  0  0  0  0  0  0
   53.5160  156.3020   25.5780 C   0  0  0  0  0  0  0  0  0  0  0  0
   54.0540  155.3330   24.7270 C   0  0  0  0  0  0  0  0  0  0  0  0
   54.0220  153.9860   25.0910 C   0  0  0  0  0  0  0  0  0  0  0  0
   53.4530  153.6090   26.3040 C   0  0  0  0  0  0  0  0  0  0  0  0
   53.4540  152.2740   26.5990 O   0  0  0  0  0  0  0  0  0  0  0  0
   52.9150  154.5790   27.1560 C   0  0  0  0  0  0  0  0  0  0  0  0
   52.3080  154.2260   28.4400 C   0  0  0  0  0  0  0  0  0  0  0  0
   52.2360  153.0610   28.8270 O   0  0  0  0  0  0  0  0  0  0  0  0
   51.7740  155.3290   29.2720 C   0  0  0  0  0  0  0  0  0  0  0  0
   51.1910  154.9820   30.4760 O   0  0  0  0  0  0  0  0  0  0  0  0
   50.0890  157.7760   30.1300 C   0  0  0  0  0  0  0  0  0  0  0  0
   49.6120  158.8870   30.8550 C   0  0  0  0  0  0  0  0  0  0  0  0
   48.2140  158.8100   31.4280 C   0  0  0  0  0  0  0  0  0  0  0  0
   47.2920  159.8570   30.8180 C   0  0  0  0  0  0  0  0  0  0  0  0
   50.1351  161.9688   33.7801 H   0  0  0  0  0  0  0  0  0  0  0  0
   48.9931  160.6052   33.5292 H   0  0  0  0  0  0  0  0  0  0  0  0
   50.7642  160.3051   33.5292 H   0  0  0  0  0  0  0  0  0  0  0  0
   49.0131  161.5627   31.4104 H   0  0  0  0  0  0  0  0  0  0  0  0
   50.7563  162.0484   31.5516 H   0  0  0  0  0  0  0  0  0  0  0  0
   52.3725  160.8803   30.5262 H   0  0  0  0  0  0  0  0  0  0  0  0
   53.1843  158.9006   29.2710 H   0  0  0  0  0  0  0  0  0  0  0  0
   53.5413  157.3633   25.2898 H   0  0  0  0  0  0  0  0  0  0  0  0
   54.5035  155.6323   23.7687 H   0  0  0  0  0  0  0  0  0  0  0  0
   54.4457  153.2238   24.4205 H   0  0  0  0  0  0  0  0  0  0  0  0
   53.5330  151.6420   25.9120 H   0  0  0  0  0  0  0  0  0  0  0  0
   50.3580  155.3390   30.7130 H   0  0  0  0  0  0  0  0  0  0  0  0
   49.4435  156.8919   30.0217 H   0  0  0  0  0  0  0  0  0  0  0  0
   47.8010  157.8109   31.2251 H   0  0  0  0  0  0  0  0  0  0  0  0
   48.2778  159.0005   32.5095 H   0  0  0  0  0  0  0  0  0  0  0  0
   46.7954  160.4209   31.6213 H   0  0  0  0  0  0  0  0  0  0  0  0
   47.8813  160.5468   30.1960 H   0  0  0  0  0  0  0  0  0  0  0  0
   46.5332  159.3596   30.1960 H   0  0  0  0  0  0  0  0  0  0  0  0
  1  2  1  0
  2  3  1  0
  3  4  2  0
  4  5  1  0
  5  6  2  0
  6  7  1  0
  7  8  1  0
  8  9  1  0
  9 10  2  0
 10 11  1  0
 11 12  2  0
 12 13  1  0
 13 14  1  0
 13 15  2  0
 15 16  1  0
 16 17  2  0
 16 18  1  0
 18 19  1  0
  6 20  1  0
 20 21  2  0
 21 22  1  0
 22 23  1  0
 21  3  1  0
 18  7  2  0
 15  9  1  0
  1 24  1  0
  1 25  1  0
  1 26  1  0
  2 27  1  0
  2 28  1  0
  4 29  1  0
  5 30  1  0
 10 31  1  0
 11 32  1  0
 12 33  1  0
 14 34  1  0
 19 35  1  0
 20 36  1  0
 22 37  1  0
 22 38  1  0
 23 39  1  0
 23 40  1  0
 23 41  1  0
M  END
>  <meeko>  (1) 
{"is_sidechain": [false], "free_energy": -10.657, "intermolecular_energy": -13.149, "internal_energy": 0.085}

$$$$
cand_039_out
     RDKit          3D

 41 43  0  0  0  0  0  0  0  0999 V2000
   49.2890  160.6910   33.1750 C   0  0  0  0  0  0  0  0  0  0  0  0
   49.1380  160.8160   31.6650 C   0  0  0  0  0  0  0  0  0  0  0  0
   49.8620  159.7110   30.9320 C   0  0  0  0  0  0  0  0  0  0  0  0
   49.2190  158.4680   30.8080 C   0  0  0  0  0  0  0  0  0  0  0  0
   49.8250  157.4040   30.1370 C   0  0  0  0  0  0  0  0  0  0  0  0
   51.0950  157.5480   29.5720 C   0  0  0  0  0  0  0  0  0  0  0  0
   51.7130  156.4170   28.8460 C   0  0  0  0  0  0  0  0  0  0  0  0
   52.2560  156.7930   27.6230 O   0  0  0  0  0  0  0  0  0  0  0  0
   52.8620  155.8400   26.8450 C   0  0  0  0  0  0  0  0  0  0  0  0
   53.4070  156.2640   25.6330 C   0  0  0  0  0  0  0  0  0  0  0  0
   54.0360  155.3430   24.7920 C   0  0  0  0  0  0  0  0  0  0  0  0
   54.1190  154.0000   25.1620 C   0  0  0  0  0  0  0  0  0  0  0  0
   53.5740  153.5790   26.3720 C   0  0  0  0  0  0  0  0  0  0  0  0
   53.6900  152.2500   26.6730 O   0  0  0  0  0  0  0  0  0  0  0  0
   52.9450  154.5010   27.2140 C   0  0  0  0  0  0  0  0  0  0  0  0
   52.3590  154.1010   28.4940 C   0  0  0  0  0  0  0  0  0  0  0  0
   52.3860  152.9360   28.8860 O   0  0  0  0  0  0  0  0  0  0  0  0
   51.7230  155.1560   29.3160 C   0  0  0  0  0  0  0  0  0  0  0  0
   51.1610  154.7640   30.5160 O   0  0  0  0  0  0  0  0  0  0  0  0
   51.7310  158.7930   29.6790 C   0  0  0  0  0  0  0  0  0  0  0  0
   51.1330  159.8800   30.3470 C   0  0  0  0  0  0  0  0  0  0  0  0
   51.9110  161.1750   30.4300 C   0  0  0  0  0  0  0  0  0  0  0  0
   52.7470  161.2540   31.6990 C   0  0  0  0  0  0  0  0  0  0  0  0
   48.5331  161.3167   33.6721 H   0  0  0  0  0  0  0  0  0  0  0  0
   49.1488  159.6411   33.4719 H   0  0  0  0  0  0  0  0  0  0  0  0
   50.2942  161.0248   33.4719 H   0  0  0  0  0  0  0  0  0  0  0  0
   48.0690  160.7708   31.4098 H   0  0  0  0  0  0  0  0  0  0  0  0
   49.5796  161.7752   31.3569 H   0  0  0  0  0  0  0  0  0  0  0  0
   48.2200  158.3305   31.2475 H   0  0  0  0  0  0  0  0  0  0  0  0
   49.2973  156.4426   30.0522 H   0  0  0  0  0  0  0  0  0  0  0  0
   53.3415  157.3222   25.3399 H   0  0  0  0  0  0  0  0  0  0  0  0
   54.4666  155.6769   23.8365 H   0  0  0  0  0  0  0  0  0  0  0  0
   54.6141  153.2754   24.4989 H   0  0  0  0  0  0  0  0  0  0  0  0
   53.1070  151.6280   26.2840 H   0  0  0  0  0  0  0  0  0  0  0  0
   51.6800  154.3120   31.1520 H   0  0  0  0  0  0  0  0  0  0  0  0
   52.7257  158.9250   29.2283 H   0  0  0  0  0  0  0  0  0  0  0  0
   52.5791  161.2450   29.5590 H   0  0  0  0  0  0  0  0  0  0  0  0
   51.1900  162.0057   30.4443 H   0  0  0  0  0  0  0  0  0  0  0  0
   52.0874  161.1917   32.5771 H   0  0  0  0  0  0  0  0  0  0  0  0
   53.4635  160.4196   31.7186 H   0  0  0  0  0  0  0  0  0  0  0  0
   53.2945  162.2079   31.7186 H   0  0  0  0  0  0  0  0  0  0  0  0
  1  2  1  0
  2  3  1  0
  3  4  2  0
  4  5  1  0
  5  6  2  0
  6  7  1  0
  7  8  1  0
  8  9  1  0
  9 10  2  0
 10 11  1  0
 11 12  2  0
 12 13  1  0
 13 14  1  0
 13 15  2  0
 15 16  1  0
 16 17  2  0
 16 18  1  0
 18 19  1  0
  6 20  1  0
 20 21  2  0
 21 22  1  0
 22 23  1  0
 21  3  1  0
 18  7  2  0
 15  9  1  0
  1 24  1  0
  1 25  1  0
  1 26  1  0
  2 27  1  0
  2 28  1  0
  4 29  1  0
  5 30  1  0
 10 31  1  0
 11 32  1  0
 12 33  1  0
 14 34  1  0
 19 35  1  0
 20 36  1  0
 22 37  1  0
 22 38  1  0
 23 39  1  0
 23 40  1  0
 23 41  1  0
M  END
>  <meeko>  (2) 
{"is_sidechain": [false], "free_energy": -10.638, "intermolecular_energy": -12.68, "internal_energy": -0.361}

$$$$
cand_039_out
     RDKit          3D

 41 43  0  0  0  0  0  0  0  0999 V2000
   51.9530  151.5170   26.7660 C   0  0  0  0  0  0  0  0  0  0  0  0
   53.0820  152.5380   26.7280 C   0  0  0  0  0  0  0  0  0  0  0  0
   52.6770  153.8500   27.3590 C   0  0  0  0  0  0  0  0  0  0  0  0
   52.1490  153.8210   28.6610 C   0  0  0  0  0  0  0  0  0  0  0  0
   51.7620  154.9960   29.3100 C   0  0  0  0  0  0  0  0  0  0  0  0
   51.8870  156.2350   28.6760 C   0  0  0  0  0  0  0  0  0  0  0  0
   51.4920  157.4710   29.3870 C   0  0  0  0  0  0  0  0  0  0  0  0
   50.1540  157.4710   29.7650 O   0  0  0  0  0  0  0  0  0  0  0  0
   49.6540  158.5600   30.4340 C   0  0  0  0  0  0  0  0  0  0  0  0
   48.3120  158.5110   30.8080 C   0  0  0  0  0  0  0  0  0  0  0  0
   47.7390  159.5880   31.4900 C   0  0  0  0  0  0  0  0  0  0  0  0
   48.5090  160.7110   31.7970 C   0  0  0  0  0  0  0  0  0  0  0  0
   49.8490  160.7570   31.4210 C   0  0  0  0  0  0  0  0  0  0  0  0
   50.5450  161.8870   31.7530 O   0  0  0  0  0  0  0  0  0  0  0  0
   50.4220  159.6790   30.7400 C   0  0  0  0  0  0  0  0  0  0  0  0
   51.8260  159.6870   30.3280 C   0  0  0  0  0  0  0  0  0  0  0  0
   52.5660  160.6420   30.5550 O   0  0  0  0  0  0  0  0  0  0  0  0
   52.3380  158.4920   29.6180 C   0  0  0  0  0  0  0  0  0  0  0  0
   53.6620  158.5150   29.2210 O   0  0  0  0  0  0  0  0  0  0  0  0
   52.4310  156.2680   27.3840 C   0  0  0  0  0  0  0  0  0  0  0  0
   52.8330  155.0930   26.7150 C   0  0  0  0  0  0  0  0  0  0  0  0
   53.3850  155.2320   25.3140 C   0  0  0  0  0  0  0  0  0  0  0  0
   54.0880  156.5660   25.1100 C   0  0  0  0  0  0  0  0  0  0  0  0
   51.7003  151.2885   27.8119 H   0  0  0  0  0  0  0  0  0  0  0  0
   51.0691  151.9286   26.2568 H   0  0  0  0  0  0  0  0  0  0  0  0
   52.2740  150.5963   26.2568 H   0  0  0  0  0  0  0  0  0  0  0  0
   53.9465  152.1326   27.2742 H   0  0  0  0  0  0  0  0  0  0  0  0
   53.3328  152.7297   25.6743 H   0  0  0  0  0  0  0  0  0  0  0  0
   52.0385  152.8564   29.1781 H   0  0  0  0  0  0  0  0  0  0  0  0
   51.3547  154.9454   30.3306 H   0  0  0  0  0  0  0  0  0  0  0  0
   47.7049  157.6260   30.5667 H   0  0  0  0  0  0  0  0  0  0  0  0
   46.6800  159.5506   31.7852 H   0  0  0  0  0  0  0  0  0  0  0  0
   48.0582  161.5580   32.3349 H   0  0  0  0  0  0  0  0  0  0  0  0
   50.2830  162.7170   31.4070 H   0  0  0  0  0  0  0  0  0  0  0  0
   54.2450  157.8330   29.4920 H   0  0  0  0  0  0  0  0  0  0  0  0
   52.5476  157.2376   26.8778 H   0  0  0  0  0  0  0  0  0  0  0  0
   54.1044  154.4197   25.1332 H   0  0  0  0  0  0  0  0  0  0  0  0
   52.5421  155.1800   24.6091 H   0  0  0  0  0  0  0  0  0  0  0  0
   54.3222  157.0104   26.0886 H   0  0  0  0  0  0  0  0  0  0  0  0
   55.0196  156.4072   24.5470 H   0  0  0  0  0  0  0  0  0  0  0  0
   53.4304  157.2447   24.5470 H   0  0  0  0  0  0  0  0  0  0  0  0
  1  2  1  0
  2  3  1  0
  3  4  2  0
  4  5  1  0
  5  6  2  0
  6  7  1  0
  7  8  1  0
  8  9  1  0
  9 10  2  0
 10 11  1  0
 11 12  2  0
 12 13  1  0
 13 14  1  0
 13 15  2  0
 15 16  1  0
 16 17  2  0
 16 18  1  0
 18 19  1  0
  6 20  1  0
 20 21  2  0
 21 22  1  0
 22 23  1  0
 21  3  1  0
 18  7  2  0
 15  9  1  0
  1 24  1  0
  1 25  1  0
  1 26  1  0
  2 27  1  0
  2 28  1  0
  4 29  1  0
  5 30  1  0
 10 31  1  0
 11 32  1  0
 12 33  1  0
 14 34  1  0
 19 35  1  0
 20 36  1  0
 22 37  1  0
 22 38  1  0
 23 39  1  0
 23 40  1  0
 23 41  1  0
M  END
>  <meeko>  (3) 
{"is_sidechain": [false], "free_energy": -10.173, "intermolecular_energy": -12.024, "internal_energy": -0.442}

$$$$
cand_039_out
     RDKit          3D

 41 43  0  0  0  0  0  0  0  0999 V2000
   47.3850  159.6520   31.2190 C   0  0  0  0  0  0  0  0  0  0  0  0
   48.8400  159.6750   31.6640 C   0  0  0  0  0  0  0  0  0  0  0  0
   49.6970  158.7410   30.8420 C   0  0  0  0  0  0  0  0  0  0  0  0
   49.1220  157.5410   30.3910 C   0  0  0  0  0  0  0  0  0  0  0  0
   49.8520  156.6350   29.6190 C   0  0  0  0  0  0  0  0  0  0  0  0
   51.1820  156.8970   29.2780 C   0  0  0  0  0  0  0  0  0  0  0  0
   51.9330  155.9360   28.4420 C   0  0  0  0  0  0  0  0  0  0  0  0
   52.4680  156.5180   27.2990 O   0  0  0  0  0  0  0  0  0  0  0  0
   53.1900  155.7370   26.4330 C   0  0  0  0  0  0  0  0  0  0  0  0
   53.7220  156.3650   25.3070 C   0  0  0  0  0  0  0  0  0  0  0  0
   54.4670  155.6270   24.3830 C   0  0  0  0  0  0  0  0  0  0  0  0
   54.6780  154.2610   24.5870 C   0  0  0  0  0  0  0  0  0  0  0  0
   54.1460  153.6370   25.7110 C   0  0  0  0  0  0  0  0  0  0  0  0
   54.3910  152.2990   25.8490 O   0  0  0  0  0  0  0  0  0  0  0  0
   53.4020  154.3760   26.6360 C   0  0  0  0  0  0  0  0  0  0  0  0
   52.8250  153.7590   27.8310 C   0  0  0  0  0  0  0  0  0  0  0  0
   52.9620  152.5620   28.0750 O   0  0  0  0  0  0  0  0  0  0  0  0
   52.0600  154.6320   28.7510 C   0  0  0  0  0  0  0  0  0  0  0  0
   51.5090  154.0350   29.8700 O   0  0  0  0  0  0  0  0  0  0  0  0
   51.7520  158.1020   29.7120 C   0  0  0  0  0  0  0  0  0  0  0  0
   51.0290  159.0330   30.4860 C   0  0  0  0  0  0  0  0  0  0  0  0
   51.7420  160.2920   30.9260 C   0  0  0  0  0  0  0  0  0  0  0  0
   51.2920  161.5070   30.1270 C   0  0  0  0  0  0  0  0  0  0  0  0
   46.7312  159.6417   32.1035 H   0  0  0  0  0  0  0  0  0  0  0  0
   47.1718  160.5469   30.6159 H   0  0  0  0  0  0  0  0  0  0  0  0
   47.2002  158.7508   30.6159 H   0  0  0  0  0  0  0  0  0  0  0  0
   49.2278  160.6989   31.5580 H   0  0  0  0  0  0  0  0  0  0  0  0
   48.8808  159.3411   32.7113 H   0  0  0  0  0  0  0  0  0  0  0  0
   48.0781  157.3111   30.6507 H   0  0  0  0  0  0  0  0  0  0  0  0
   49.3753  155.7051   29.2755 H   0  0  0  0  0  0  0  0  0  0  0  0
   53.5554  157.4404   25.1463 H   0  0  0  0  0  0  0  0  0  0  0  0
   54.8873  156.1217   23.4950 H   0  0  0  0  0  0  0  0  0  0  0  0
   55.2640  153.6796   23.8599 H   0  0  0  0  0  0  0  0  0  0  0  0
   55.2520  152.0000   26.0670 H   0  0  0  0  0  0  0  0  0  0  0  0
   51.0880  153.2020   29.7970 H   0  0  0  0  0  0  0  0  0  0  0  0
   52.7938  158.3279   29.4408 H   0  0  0  0  0  0  0  0  0  0  0  0
   51.5292  160.4677   31.9908 H   0  0  0  0  0  0  0  0  0  0  0  0
   52.8195  160.1513   30.7553 H   0  0  0  0  0  0  0  0  0  0  0  0
   50.9945  162.3101   30.8173 H   0  0  0  0  0  0  0  0  0  0  0  0
   52.1204  161.8564   29.4932 H   0  0  0  0  0  0  0  0  0  0  0  0
   50.4359  161.2325   29.4932 H   0  0  0  0  0  0  0  0  0  0  0  0
  1  2  1  0
  2  3  1  0
  3  4  2  0
  4  5  1  0
  5  6  2  0
  6  7  1  0
  7  8  1  0
  8  9  1  0
  9 10  2  0
 10 11  1  0
 11 12  2  0
 12 13  1  0
 13 14  1  0
 13 15  2  0
 15 16  1  0
 16 17  2  0
 16 18  1  0
 18 19  1  0
  6 20  1  0
 20 21  2  0
 21 22  1  0
 22 23  1  0
 21  3  1  0
 18  7  2  0
 15  9  1  0
  1 24  1  0
  1 25  1  0
  1 26  1  0
  2 27  1  0
  2 28  1  0
  4 29  1  0
  5 30  1  0
 10 31  1  0
 11 32  1  0
 12 33  1  0
 14 34  1  0
 19 35  1  0
 20 36  1  0
 22 37  1  0
 22 38  1  0
 23 39  1  0
 23 40  1  0
 23 41  1  0
M  END
>  <meeko>  (4) 
{"is_sidechain": [false], "free_energy": -9.501, "intermolecular_energy": -11.338, "internal_energy": -0.299}

$$$$
cand_039_out
     RDKit          3D

 41 43  0  0  0  0  0  0  0  0999 V2000
   52.6790  151.6550   26.0460 C   0  0  0  0  0  0  0  0  0  0  0  0
   53.6970  152.5980   26.6710 C   0  0  0  0  0  0  0  0  0  0  0  0
   53.0370  153.7990   27.3090 C   0  0  0  0  0  0  0  0  0  0  0  0
   52.5370  153.6610   28.6160 C   0  0  0  0  0  0  0  0  0  0  0  0
   51.9230  154.7310   29.2700 C   0  0  0  0  0  0  0  0  0  0  0  0
   51.7840  155.9690   28.6380 C   0  0  0  0  0  0  0  0  0  0  0  0
   51.1490  157.0960   29.3550 C   0  0  0  0  0  0  0  0  0  0  0  0
   52.0350  158.1340   29.6200 O   0  0  0  0  0  0  0  0  0  0  0  0
   51.5760  159.2450   30.2810 C   0  0  0  0  0  0  0  0  0  0  0  0
   52.4950  160.2690   30.5120 C   0  0  0  0  0  0  0  0  0  0  0  0
   52.0940  161.4270   31.1830 C   0  0  0  0  0  0  0  0  0  0  0  0
   50.7750  161.5600   31.6220 C   0  0  0  0  0  0  0  0  0  0  0  0
   49.8600  160.5370   31.3910 C   0  0  0  0  0  0  0  0  0  0  0  0
   48.5860  160.7320   31.8470 O   0  0  0  0  0  0  0  0  0  0  0  0
   50.2620  159.3780   30.7180 C   0  0  0  0  0  0  0  0  0  0  0  0
   49.3330  158.2790   30.4550 C   0  0  0  0  0  0  0  0  0  0  0  0
   48.1580  158.3190   30.8170 O   0  0  0  0  0  0  0  0  0  0  0  0
   49.8560  157.0990   29.7290 C   0  0  0  0  0  0  0  0  0  0  0  0
   48.9730  156.0610   29.4970 O   0  0  0  0  0  0  0  0  0  0  0  0
   52.2970  156.1140   27.3420 C   0  0  0  0  0  0  0  0  0  0  0  0
   52.9270  155.0480   26.6660 C   0  0  0  0  0  0  0  0  0  0  0  0
   53.4250  155.2980   25.2610 C   0  0  0  0  0  0  0  0  0  0  0  0
   54.1880  156.6100   25.1540 C   0  0  0  0  0  0  0  0  0  0  0  0
   52.1213  151.1384   26.8410 H   0  0  0  0  0  0  0  0  0  0  0  0
   51.9796  152.2314   25.4226 H   0  0  0  0  0  0  0  0  0  0  0  0
   53.2003  150.9136   25.4226 H   0  0  0  0  0  0  0  0  0  0  0  0
   54.2616  152.0518   27.4410 H   0  0  0  0  0  0  0  0  0  0  0  0
   54.3618  152.9590   25.8725 H   0  0  0  0  0  0  0  0  0  0  0  0
   52.6311  152.6940   29.1318 H   0  0  0  0  0  0  0  0  0  0  0  0
   51.5446  154.5976   30.2942 H   0  0  0  0  0  0  0  0  0  0  0  0
   53.5340  160.1648   30.1662 H   0  0  0  0  0  0  0  0  0  0  0  0
   52.8180  162.2348   31.3657 H   0  0  0  0  0  0  0  0  0  0  0  0
   50.4596  162.4722   32.1497 H   0  0  0  0  0  0  0  0  0  0  0  0
   48.4430  161.1630   32.6670 H   0  0  0  0  0  0  0  0  0  0  0  0
   48.5690  155.6200   30.2180 H   0  0  0  0  0  0  0  0  0  0  0  0
   52.2058  157.0871   26.8372 H   0  0  0  0  0  0  0  0  0  0  0  0
   54.0922  154.4738   24.9684 H   0  0  0  0  0  0  0  0  0  0  0  0
   52.5513  155.3567   24.5953 H   0  0  0  0  0  0  0  0  0  0  0  0
   54.4085  156.9892   26.1627 H   0  0  0  0  0  0  0  0  0  0  0  0
   55.1299  156.4431   24.6110 H   0  0  0  0  0  0  0  0  0  0  0  0
   53.5771  157.3462   24.6110 H   0  0  0  0  0  0  0  0  0  0  0  0
  1  2  1  0
  2  3  1  0
  3  4  2  0
  4  5  1  0
  5  6  2  0
  6  7  1  0
  7  8  1  0
  8  9  1  0
  9 10  2  0
 10 11  1  0
 11 12  2  0
 12 13  1  0
 13 14  1  0
 13 15  2  0
 15 16  1  0
 16 17  2  0
 16 18  1  0
 18 19  1  0
  6 20  1  0
 20 21  2  0
 21 22  1  0
 22 23  1  0
 21  3  1  0
 18  7  2  0
 15  9  1  0
  1 24  1  0
  1 25  1  0
  1 26  1  0
  2 27  1  0
  2 28  1  0
  4 29  1  0
  5 30  1  0
 10 31  1  0
 11 32  1  0
 12 33  1  0
 14 34  1  0
 19 35  1  0
 20 36  1  0
 22 37  1  0
 22 38  1  0
 23 39  1  0
 23 40  1  0
 23 41  1  0
M  END
>  <meeko>  (5) 
{"is_sidechain": [false], "free_energy": -9.087, "intermolecular_energy": -10.597, "internal_energy": -0.529}

$$$$
cand_039_out
     RDKit          3D

 41 43  0  0  0  0  0  0  0  0999 V2000
   53.1150  154.3380   24.8040 C   0  0  0  0  0  0  0  0  0  0  0  0
   53.4120  154.0020   26.2590 C   0  0  0  0  0  0  0  0  0  0  0  0
   52.8770  155.0550   27.2010 C   0  0  0  0  0  0  0  0  0  0  0  0
   53.0310  156.4050   26.8410 C   0  0  0  0  0  0  0  0  0  0  0  0
   52.5530  157.4300   27.6600 C   0  0  0  0  0  0  0  0  0  0  0  0
   51.9120  157.1400   28.8670 C   0  0  0  0  0  0  0  0  0  0  0  0
   51.3940  158.2380   29.7110 C   0  0  0  0  0  0  0  0  0  0  0  0
   50.0500  158.0860   30.0300 O   0  0  0  0  0  0  0  0  0  0  0  0
   49.4410  159.0360   30.8090 C   0  0  0  0  0  0  0  0  0  0  0  0
   48.0960  158.8350   31.1180 C   0  0  0  0  0  0  0  0  0  0  0  0
   47.4150  159.7670   31.9060 C   0  0  0  0  0  0  0  0  0  0  0  0
   48.0800  160.8980   32.3850 C   0  0  0  0  0  0  0  0  0  0  0  0
   49.4230  161.0960   32.0750 C   0  0  0  0  0  0  0  0  0  0  0  0
   50.0130  162.2230   32.5750 O   0  0  0  0  0  0  0  0  0  0  0  0
   50.1040  160.1630   31.2870 C   0  0  0  0  0  0  0  0  0  0  0  0
   51.5150  160.3330   30.9380 C   0  0  0  0  0  0  0  0  0  0  0  0
   52.1660  161.3050   31.3150 O   0  0  0  0  0  0  0  0  0  0  0  0
   52.1450  159.2830   30.1040 C   0  0  0  0  0  0  0  0  0  0  0  0
   53.4750  159.4610   29.7690 O   0  0  0  0  0  0  0  0  0  0  0  0
   51.7410  155.7940   29.2190 C   0  0  0  0  0  0  0  0  0  0  0  0
   52.2100  154.7440   28.4030 C   0  0  0  0  0  0  0  0  0  0  0  0
   51.9990  153.3260   28.8840 C   0  0  0  0  0  0  0  0  0  0  0  0
   51.6150  152.3910   27.7460 C   0  0  0  0  0  0  0  0  0  0  0  0
   52.3871  155.1615   24.7591 H   0  0  0  0  0  0  0  0  0  0  0  0
   54.0446  154.6425   24.3009 H   0  0  0  0  0  0  0  0  0  0  0  0
   52.6987  153.4528   24.3009 H   0  0  0  0  0  0  0  0  0  0  0  0
   52.9455  153.0362   26.5033 H   0  0  0  0  0  0  0  0  0  0  0  0
   54.5041  153.9574   26.3824 H   0  0  0  0  0  0  0  0  0  0  0  0
   53.5369  156.6584   25.8977 H   0  0  0  0  0  0  0  0  0  0  0  0
   52.6826  158.4778   27.3513 H   0  0  0  0  0  0  0  0  0  0  0  0
   47.5718  157.9441   30.7420 H   0  0  0  0  0  0  0  0  0  0  0  0
   46.3539  159.6096   32.1493 H   0  0  0  0  0  0  0  0  0  0  0  0
   47.5439  161.6308   33.0059 H   0  0  0  0  0  0  0  0  0  0  0  0
   49.6000  163.0570   32.4640 H   0  0  0  0  0  0  0  0  0  0  0  0
   53.7350  159.4610   28.8690 H   0  0  0  0  0  0  0  0  0  0  0  0
   51.2257  155.5496   30.1596 H   0  0  0  0  0  0  0  0  0  0  0  0
   52.9310  152.9638   29.3426 H   0  0  0  0  0  0  0  0  0  0  0  0
   51.1746  153.3325   29.6123 H   0  0  0  0  0  0  0  0  0  0  0  0
   51.2279  151.4485   28.1606 H   0  0  0  0  0  0  0  0  0  0  0  0
   50.8390  152.8656   27.1275 H   0  0  0  0  0  0  0  0  0  0  0  0
   52.5006  152.1832   27.1275 H   0  0  0  0  0  0  0  0  0  0  0  0
  1  2  1  0
  2  3  1  0
  3  4  2  0
  4  5  1  0
  5  6  2  0
  6  7  1  0
  7  8  1  0
  8  9  1  0
  9 10  2  0
 10 11  1  0
 11 12  2  0
 12 13  1  0
 13 14  1  0
 13 15  2  0
 15 16  1  0
 16 17  2  0
 16 18  1  0
 18 19  1  0
  6 20  1  0
 20 21  2  0
 21 22  1  0
 22 23  1  0
 21  3  1  0
 18  7  2  0
 15  9  1  0
  1 24  1  0
  1 25  1  0
  1 26  1  0
  2 27  1  0
  2 28  1  0
  4 29  1  0
  5 30  1  0
 10 31  1  0
 11 32  1  0
 12 33  1  0
 14 34  1  0
 19 35  1  0
 20 36  1  0
 22 37  1  0
 22 38  1  0
 23 39  1  0
 23 40  1  0
 23 41  1  0
M  END
>  <meeko>  (6) 
{"is_sidechain": [false], "free_energy": -8.904, "intermolecular_energy": -11.268, "internal_energy": 0.367}

$$$$
cand_039_out
     RDKit          3D

 41 43  0  0  0  0  0  0  0  0999 V2000
   48.0250  158.9710   30.5540 C   0  0  0  0  0  0  0  0  0  0  0  0
   49.2270  158.3200   31.2240 C   0  0  0  0  0  0  0  0  0  0  0  0
   50.0710  157.5450   30.2400 C   0  0  0  0  0  0  0  0  0  0  0  0
   49.5830  156.3080   29.7820 C   0  0  0  0  0  0  0  0  0  0  0  0
   50.3070  155.5420   28.8650 C   0  0  0  0  0  0  0  0  0  0  0  0
   51.5410  155.9840   28.3820 C   0  0  0  0  0  0  0  0  0  0  0  0
   52.2820  155.1680   27.3950 C   0  0  0  0  0  0  0  0  0  0  0  0
   51.9830  153.8140   27.4820 O   0  0  0  0  0  0  0  0  0  0  0  0
   52.6020  152.9410   26.6230 C   0  0  0  0  0  0  0  0  0  0  0  0
   52.2600  151.5940   26.7330 C   0  0  0  0  0  0  0  0  0  0  0  0
   52.8560  150.6520   25.8900 C   0  0  0  0  0  0  0  0  0  0  0  0
   53.7920  151.0590   24.9380 C   0  0  0  0  0  0  0  0  0  0  0  0
   54.1310  152.4050   24.8300 C   0  0  0  0  0  0  0  0  0  0  0  0
   55.0550  152.7350   23.8760 O   0  0  0  0  0  0  0  0  0  0  0  0
   53.5340  153.3470   25.6730 C   0  0  0  0  0  0  0  0  0  0  0  0
   53.8630  154.7710   25.5920 C   0  0  0  0  0  0  0  0  0  0  0  0
   54.6820  155.2050   24.7850 O   0  0  0  0  0  0  0  0  0  0  0  0
   53.1690  155.6880   26.5260 C   0  0  0  0  0  0  0  0  0  0  0  0
   53.4960  157.0280   26.4500 O   0  0  0  0  0  0  0  0  0  0  0  0
   52.0200  157.2250   28.8240 C   0  0  0  0  0  0  0  0  0  0  0  0
   51.3020  158.0170   29.7440 C   0  0  0  0  0  0  0  0  0  0  0  0
   51.9160  159.3290   30.1770 C   0  0  0  0  0  0  0  0  0  0  0  0
   51.0190  160.5130   29.8450 C   0  0  0  0  0  0  0  0  0  0  0  0
   47.3341  159.3452   31.3239 H   0  0  0  0  0  0  0  0  0  0  0  0
   48.3639  159.8089   29.9270 H   0  0  0  0  0  0  0  0  0  0  0  0
   47.5084  158.2293   29.9270 H   0  0  0  0  0  0  0  0  0  0  0  0
   49.8465  159.1048   31.6826 H   0  0  0  0  0  0  0  0  0  0  0  0
   48.8539  157.6150   31.9815 H   0  0  0  0  0  0  0  0  0  0  0  0
   48.6155  155.9376   30.1518 H   0  0  0  0  0  0  0  0  0  0  0  0
   49.9007  154.5800   28.5194 H   0  0  0  0  0  0  0  0  0  0  0  0
   51.5218  151.2729   27.4826 H   0  0  0  0  0  0  0  0  0  0  0  0
   52.5872  149.5889   25.9769 H   0  0  0  0  0  0  0  0  0  0  0  0
   54.2610  150.3177   24.2743 H   0  0  0  0  0  0  0  0  0  0  0  0
   55.8440  153.1770   24.1210 H   0  0  0  0  0  0  0  0  0  0  0  0
   53.4390  157.4790   25.6310 H   0  0  0  0  0  0  0  0  0  0  0  0
   52.9841  157.5919   28.4421 H   0  0  0  0  0  0  0  0  0  0  0  0
   52.0817  159.3023   31.2641 H   0  0  0  0  0  0  0  0  0  0  0  0
   52.8641  159.4571   29.6341 H   0  0  0  0  0  0  0  0  0  0  0  0
   50.6663  160.9785   30.7771 H   0  0  0  0  0  0  0  0  0  0  0  0
   51.5871  161.2504   29.2590 H   0  0  0  0  0  0  0  0  0  0  0  0
   50.1553  160.1657   29.2590 H   0  0  0  0  0  0  0  0  0  0  0  0
  1  2  1  0
  2  3  1  0
  3  4  2  0
  4  5  1  0
  5  6  2  0
  6  7  1  0
  7  8  1  0
  8  9  1  0
  9 10  2  0
 10 11  1  0
 11 12  2  0
 12 13  1  0
 13 14  1  0
 13 15  2  0
 15 16  1  0
 16 17  2  0
 16 18  1  0
 18 19  1  0
  6 20  1  0
 20 21  2  0
 21 22  1  0
 22 23  1  0
 21  3  1  0
 18  7  2  0
 15  9  1  0
  1 24  1  0
  1 25  1  0
  1 26  1  0
  2 27  1  0
  2 28  1  0
  4 29  1  0
  5 30  1  0
 10 31  1  0
 11 32  1  0
 12 33  1  0
 14 34  1  0
 19 35  1  0
 20 36  1  0
 22 37  1  0
 22 38  1  0
 23 39  1  0
 23 40  1  0
 23 41  1  0
M  END
>  <meeko>  (7) 
{"is_sidechain": [false], "free_energy": -8.739, "intermolecular_energy": -11.028, "internal_energy": 0.331}

$$$$
cand_039_out
     RDKit          3D

 41 43  0  0  0  0  0  0  0  0999 V2000
   53.4210  154.2680   24.5340 C   0  0  0  0  0  0  0  0  0  0  0  0
   53.7450  153.9400   25.9840 C   0  0  0  0  0  0  0  0  0  0  0  0
   53.0510  154.8780   26.9450 C   0  0  0  0  0  0  0  0  0  0  0  0
   53.1460  156.2590   26.7030 C   0  0  0  0  0  0  0  0  0  0  0  0
   52.5230  157.1840   27.5450 C   0  0  0  0  0  0  0  0  0  0  0  0
   51.7900  156.7570   28.6550 C   0  0  0  0  0  0  0  0  0  0  0  0
   51.1190  157.7500   29.5230 C   0  0  0  0  0  0  0  0  0  0  0  0
   51.9360  158.8300   29.8370 O   0  0  0  0  0  0  0  0  0  0  0  0
   51.4380  159.8270   30.6370 C   0  0  0  0  0  0  0  0  0  0  0  0
   52.2860  160.8990   30.9140 C   0  0  0  0  0  0  0  0  0  0  0  0
   51.8420  161.9470   31.7250 C   0  0  0  0  0  0  0  0  0  0  0  0
   50.5510  161.9220   32.2570 C   0  0  0  0  0  0  0  0  0  0  0  0
   49.7070  160.8500   31.9780 C   0  0  0  0  0  0  0  0  0  0  0  0
   48.4570  160.8890   32.5310 O   0  0  0  0  0  0  0  0  0  0  0  0
   50.1510  159.8020   31.1660 C   0  0  0  0  0  0  0  0  0  0  0  0
   49.2970  158.6580   30.8490 C   0  0  0  0  0  0  0  0  0  0  0  0
   48.1520  158.5600   31.2860 O   0  0  0  0  0  0  0  0  0  0  0  0
   49.8600  157.6040   29.9740 C   0  0  0  0  0  0  0  0  0  0  0  0
   49.0490  156.5210   29.6920 O   0  0  0  0  0  0  0  0  0  0  0  0
   51.6790  155.3790   28.8870 C   0  0  0  0  0  0  0  0  0  0  0  0
   52.2950  154.4290   28.0460 C   0  0  0  0  0  0  0  0  0  0  0  0
   52.1370  152.9670   28.3960 C   0  0  0  0  0  0  0  0  0  0  0  0
   51.7480  152.1320   27.1840 C   0  0  0  0  0  0  0  0  0  0  0  0
   52.6484  155.0502   24.4988 H   0  0  0  0  0  0  0  0  0  0  0  0
   54.3292  154.6267   24.0274 H   0  0  0  0  0  0  0  0  0  0  0  0
   53.0512  153.3643   24.0274 H   0  0  0  0  0  0  0  0  0  0  0  0
   53.4210  152.9104   26.1962 H   0  0  0  0  0  0  0  0  0  0  0  0
   54.8303  154.0521   26.1236 H   0  0  0  0  0  0  0  0  0  0  0  0
   53.7204  156.6179   25.8362 H   0  0  0  0  0  0  0  0  0  0  0  0
   52.6106  158.2595   27.3316 H   0  0  0  0  0  0  0  0  0  0  0  0
   53.3028  160.9196   30.4948 H   0  0  0  0  0  0  0  0  0  0  0  0
   52.5103  162.7927   31.9446 H   0  0  0  0  0  0  0  0  0  0  0  0
   50.2016  162.7472   32.8950 H   0  0  0  0  0  0  0  0  0  0  0  0
   48.2840  160.4340   33.3320 H   0  0  0  0  0  0  0  0  0  0  0  0
   48.8020  155.9290   30.3760 H   0  0  0  0  0  0  0  0  0  0  0  0
   51.0943  155.0283   29.7502 H   0  0  0  0  0  0  0  0  0  0  0  0
   53.0909  152.5917   28.7950 H   0  0  0  0  0  0  0  0  0  0  0  0
   51.3334  152.8800   29.1421 H   0  0  0  0  0  0  0  0  0  0  0  0
   51.3056  151.1824   27.5196 H   0  0  0  0  0  0  0  0  0  0  0  0
   51.0145  152.6844   26.5783 H   0  0  0  0  0  0  0  0  0  0  0  0
   52.6428  151.9258   26.5783 H   0  0  0  0  0  0  0  0  0  0  0  0
  1  2  1  0
  2  3  1  0
  3  4  2  0
  4  5  1  0
  5  6  2  0
  6  7  1  0
  7  8  1  0
  8  9  1  0
  9 10  2  0
 10 11  1  0
 11 12  2  0
 12 13  1  0
 13 14  1  0
 13 15  2  0
 15 16  1  0
 16 17  2  0
 16 18  1  0
 18 19  1  0
  6 20  1  0
 20 21  2  0
 21 22  1  0
 22 23  1  0
 21  3  1  0
 18  7  2  0
 15  9  1  0
  1 24  1  0
  1 25  1  0
  1 26  1  0
  2 27  1  0
  2 28  1  0
  4 29  1  0
  5 30  1  0
 10 31  1  0
 11 32  1  0
 12 33  1  0
 14 34  1  0
 19 35  1  0
 20 36  1  0
 22 37  1  0
 22 38  1  0
 23 39  1  0
 23 40  1  0
 23 41  1  0
M  END
>  <meeko>  (8) 
{"is_sidechain": [false], "free_energy": -8.2, "intermolecular_energy": -10.312, "internal_energy": 0.279}

$$$$
cand_039_out
     RDKit          3D

 41 43  0  0  0  0  0  0  0  0999 V2000
   50.4280  160.7280   30.1290 C   0  0  0  0  0  0  0  0  0  0  0  0
   50.9930  159.5340   30.8860 C   0  0  0  0  0  0  0  0  0  0  0  0
   51.3420  158.3920   29.9600 C   0  0  0  0  0  0  0  0  0  0  0  0
   52.5880  158.4240   29.3120 C   0  0  0  0  0  0  0  0  0  0  0  0
   52.9800  157.3980   28.4490 C   0  0  0  0  0  0  0  0  0  0  0  0
   52.1370  156.3110   28.2040 C   0  0  0  0  0  0  0  0  0  0  0  0
   52.5770  155.2230   27.3040 C   0  0  0  0  0  0  0  0  0  0  0  0
   52.1010  153.9760   27.6910 O   0  0  0  0  0  0  0  0  0  0  0  0
   52.4350  152.8760   26.9420 C   0  0  0  0  0  0  0  0  0  0  0  0
   51.9220  151.6470   27.3580 C   0  0  0  0  0  0  0  0  0  0  0  0
   52.2260  150.4870   26.6410 C   0  0  0  0  0  0  0  0  0  0  0  0
   53.0410  150.5570   25.5090 C   0  0  0  0  0  0  0  0  0  0  0  0
   53.5520  151.7850   25.0970 C   0  0  0  0  0  0  0  0  0  0  0  0
   54.3430  151.7820   23.9810 O   0  0  0  0  0  0  0  0  0  0  0  0
   53.2470  152.9460   25.8140 C   0  0  0  0  0  0  0  0  0  0  0  0
   53.7620  154.2560   25.4150 C   0  0  0  0  0  0  0  0  0  0  0  0
   54.4920  154.3970   24.4350 O   0  0  0  0  0  0  0  0  0  0  0  0
   53.3740  155.4250   26.2380 C   0  0  0  0  0  0  0  0  0  0  0  0
   53.8780  156.6550   25.8590 O   0  0  0  0  0  0  0  0  0  0  0  0
   50.9000  156.2680   28.8630 C   0  0  0  0  0  0  0  0  0  0  0  0
   50.4890  157.2910   29.7430 C   0  0  0  0  0  0  0  0  0  0  0  0
   49.1270  157.1650   30.3860 C   0  0  0  0  0  0  0  0  0  0  0  0
   48.0970  158.0650   29.7170 C   0  0  0  0  0  0  0  0  0  0  0  0
   50.0714  161.4817   30.8465 H   0  0  0  0  0  0  0  0  0  0  0  0
   51.2140  161.1667   29.4968 H   0  0  0  0  0  0  0  0  0  0  0  0
   49.5904  160.3983   29.4968 H   0  0  0  0  0  0  0  0  0  0  0  0
   51.9017  159.8492   31.4197 H   0  0  0  0  0  0  0  0  0  0  0  0
   50.2230  159.1803   31.5874 H   0  0  0  0  0  0  0  0  0  0  0  0
   53.2667  159.2717   29.4872 H   0  0  0  0  0  0  0  0  0  0  0  0
   53.9627  157.4463   27.9571 H   0  0  0  0  0  0  0  0  0  0  0  0
   51.2793  151.5914   28.2490 H   0  0  0  0  0  0  0  0  0  0  0  0
   51.8229  149.5173   26.9685 H   0  0  0  0  0  0  0  0  0  0  0  0
   53.2788  149.6437   24.9439 H   0  0  0  0  0  0  0  0  0  0  0  0
   55.1750  152.2130   23.9960 H   0  0  0  0  0  0  0  0  0  0  0  0
   53.6870  157.4170   26.3700 H   0  0  0  0  0  0  0  0  0  0  0  0
   50.2312  155.4123   28.6888 H   0  0  0  0  0  0  0  0  0  0  0  0
   48.7915  156.1204   30.3063 H   0  0  0  0  0  0  0  0  0  0  0  0
   49.2171  157.4738   31.4379 H   0  0  0  0  0  0  0  0  0  0  0  0
   47.5058  158.5816   30.4875 H   0  0  0  0  0  0  0  0  0  0  0  0
   48.6115  158.8081   29.0901 H   0  0  0  0  0  0  0  0  0  0  0  0
   47.4296  157.4555   29.0901 H   0  0  0  0  0  0  0  0  0  0  0  0
  1  2  1  0
  2  3  1  0
  3  4  2  0
  4  5  1  0
  5  6  2  0
  6  7  1  0
  7  8  1  0
  8  9  1  0
  9 10  2  0
 10 11  1  0
 11 12  2  0
 12 13  1  0
 13 14  1  0
 13 15  2  0
 15 16  1  0
 16 17  2  0
 16 18  1  0
 18 19  1  0
  6 20  1  0
 20 21  2  0
 21 22  1  0
 22 23  1  0
 21  3  1  0
 18  7  2  0
 15  9  1  0
  1 24  1  0
  1 25  1  0
  1 26  1  0
  2 27  1  0
  2 28  1  0
  4 29  1  0
  5 30  1  0
 10 31  1  0
 11 32  1  0
 12 33  1  0
 14 34  1  0
 19 35  1  0
 20 36  1  0
 22 37  1  0
 22 38  1  0
 23 39  1  0
 23 40  1  0
 23 41  1  0
M  END
>  <meeko>  (9) 
{"is_sidechain": [false], "free_energy": -7.95, "intermolecular_energy": -9.664, "internal_energy": -0.06}

$$$$
