cand_032_out
     RDKit          3D

 43 45  0  0  0  0  0  0  0  0999 V2000
   54.8230  156.8860   24.2980 C   0  0  0  0  0  0  0  0  0  0  0  0
   53.4420  156.2940   24.5410 C   0  0  0  0  0  0  0  0  0  0  0  0
   53.5580  154.9570   25.1540 N   0  0  0  0  0  0  0  0  0  0  0  0
   54.9230  154.4170   25.2090 C   0  0  0  0  0  0  0  0  0  0  0  0
   52.9290  154.8800   26.4180 C   0  0  0  0  0  0  0  0  0  0  0  0
   52.5900  156.0400   27.1430 C   0  0  0  0  0  0  0  0  0  0  0  0
   51.9610  155.9720   28.3950 C   0  0  0  0  0  0  0  0  0  0  0  0
   51.6240  157.1890   29.1620 C   0  0  0  0  0  0  0  0  0  0  0  0
   50.3090  157.1980   29.6120 O   0  0  0  0  0  0  0  0  0  0  0  0
   49.8630  158.2740   30.3390 C   0  0  0  0  0  0  0  0  0  0  0  0
   48.5410  158.2340   30.7830 C   0  0  0  0  0  0  0  0  0  0  0  0
   48.0240  159.2970   31.5250 C   0  0  0  0  0  0  0  0  0  0  0  0
   48.8280  160.4000   31.8250 C   0  0  0  0  0  0  0  0  0  0  0  0
   50.1470  160.4350   31.3810 C   0  0  0  0  0  0  0  0  0  0  0  0
   50.8790  161.5440   31.7080 O   0  0  0  0  0  0  0  0  0  0  0  0
   50.6640  159.3720   30.6370 C   0  0  0  0  0  0  0  0  0  0  0  0
   52.0450  159.3690   30.1520 C   0  0  0  0  0  0  0  0  0  0  0  0
   52.8130  160.3050   30.3680 O   0  0  0  0  0  0  0  0  0  0  0  0
   52.4980  158.1900   29.3790 C   0  0  0  0  0  0  0  0  0  0  0  0
   53.8000  158.2050   28.9140 O   0  0  0  0  0  0  0  0  0  0  0  0
   51.6880  154.7110   28.9340 C   0  0  0  0  0  0  0  0  0  0  0  0
   52.0200  153.5510   28.2320 C   0  0  0  0  0  0  0  0  0  0  0  0
   52.6400  153.6200   26.9710 C   0  0  0  0  0  0  0  0  0  0  0  0
   52.9810  152.3500   26.2290 C   0  0  0  0  0  0  0  0  0  0  0  0
   54.2530  151.9090   26.4520 F   0  0  0  0  0  0  0  0  0  0  0  0
   52.1820  151.2990   26.5940 F   0  0  0  0  0  0  0  0  0  0  0  0
   52.8320  152.4440   24.8770 F   0  0  0  0  0  0  0  0  0  0  0  0
   55.3079  157.0938   25.2633 H   0  0  0  0  0  0  0  0  0  0  0  0
   55.4335  156.1705   23.7276 H   0  0  0  0  0  0  0  0  0  0  0  0
   54.7257  157.8215   23.7276 H   0  0  0  0  0  0  0  0  0  0  0  0
   52.8777  156.9547   25.2156 H   0  0  0  0  0  0  0  0  0  0  0  0
   52.9181  156.2017   23.5782 H   0  0  0  0  0  0  0  0  0  0  0  0
   55.2276  154.2965   26.2591 H   0  0  0  0  0  0  0  0  0  0  0  0
   54.9514  153.4399   24.7045 H   0  0  0  0  0  0  0  0  0  0  0  0
   55.6122  155.1102   24.7045 H   0  0  0  0  0  0  0  0  0  0  0  0
   52.8251  157.0258   26.7154 H   0  0  0  0  0  0  0  0  0  0  0  0
   47.9072  157.3660   30.5486 H   0  0  0  0  0  0  0  0  0  0  0  0
   46.9814  159.2666   31.8744 H   0  0  0  0  0  0  0  0  0  0  0  0
   48.4201  161.2376   32.4099 H   0  0  0  0  0  0  0  0  0  0  0  0
   51.5420  161.4900   32.3680 H   0  0  0  0  0  0  0  0  0  0  0  0
   54.2040  159.0160   28.6800 H   0  0  0  0  0  0  0  0  0  0  0  0
   51.2072  154.6324   29.9202 H   0  0  0  0  0  0  0  0  0  0  0  0
   51.7935  152.5683   28.6713 H   0  0  0  0  0  0  0  0  0  0  0  0
  1  2  1  0
  2  3  1  0
  3  4  1  0
  3  5  1  0
  5  6  2  0
  6  7  1  0
  7  8  1  0
  8  9  1  0
  9 10  1  0
 10 11  2  0
 11 12  1  0
 12 13  2  0
 13 14  1  0
 14 15  1  0
 14 16  2  0
 16 17  1  0
 17 18  2  0
 17 19  1  0
 19 20  1  0
  7 21  2  0
 21 22  1  0
 22 23  2  0
 23 24  1  0
 24 25  1  0
 24 26  1  0
 24 27  1  0
 23  5  1  0
 19  8  2  0
 16 10  1  0
  1 28  1  0
  1 29  1  0
  1 30  1  0
  2 31  1  0
  2 32  1  0
  4 33  1  0
  4 34  1  0
  4 35  1  0
  6 36  1  0
 11 37  1  0
 12 38  1  0
 13 39  1  0
 15 40  1  0
 20 41  1  0
 21 42  1  0
 22 43  1  0
M  END
>  <meeko>  (1) 
{"is_sidechain": [false], "free_energy": -9.76, "intermolecular_energy": -12.613, "internal_energy": 0.758}

$$$$
cand_032_out
     RDKit          3D

 43 45  0  0  0  0  0  0  0  0999 V2000
   53.1230  161.9650   30.8310 C   0  0  0  0  0  0  0  0  0  0  0  0
   52.6510  160.5180   30.8580 C   0  0  0  0  0  0  0  0  0  0  0  0
   51.1780  160.4590   30.7780 N   0  0  0  0  0  0  0  0  0  0  0  0
   50.5610  161.4940   29.9390 C   0  0  0  0  0  0  0  0  0  0  0  0
   50.7020  159.1720   30.4330 C   0  0  0  0  0  0  0  0  0  0  0  0
   51.4880  158.2750   29.6830 C   0  0  0  0  0  0  0  0  0  0  0  0
   51.0260  156.9950   29.3410 C   0  0  0  0  0  0  0  0  0  0  0  0
   51.8430  156.0630   28.5370 C   0  0  0  0  0  0  0  0  0  0  0  0
   52.3110  156.6320   27.3590 O   0  0  0  0  0  0  0  0  0  0  0  0
   53.0840  155.8740   26.5160 C   0  0  0  0  0  0  0  0  0  0  0  0
   53.5440  156.4910   25.3520 C   0  0  0  0  0  0  0  0  0  0  0  0
   54.3340  155.7740   24.4500 C   0  0  0  0  0  0  0  0  0  0  0  0
   54.6640  154.4430   24.7120 C   0  0  0  0  0  0  0  0  0  0  0  0
   54.2040  153.8310   25.8750 C   0  0  0  0  0  0  0  0  0  0  0  0
   54.5640  152.5250   26.0700 O   0  0  0  0  0  0  0  0  0  0  0  0
   53.4130  154.5480   26.7770 C   0  0  0  0  0  0  0  0  0  0  0  0
   52.9090  153.9430   28.0110 C   0  0  0  0  0  0  0  0  0  0  0  0
   53.1500  152.7740   28.3090 O   0  0  0  0  0  0  0  0  0  0  0  0
   52.0860  154.7900   28.9040 C   0  0  0  0  0  0  0  0  0  0  0  0
   51.6040  154.2040   30.0600 O   0  0  0  0  0  0  0  0  0  0  0  0
   49.7400  156.6230   29.7460 C   0  0  0  0  0  0  0  0  0  0  0  0
   48.9460  157.5010   30.4870 C   0  0  0  0  0  0  0  0  0  0  0  0
   49.4150  158.7790   30.8390 C   0  0  0  0  0  0  0  0  0  0  0  0
   48.5400  159.7060   31.6490 C   0  0  0  0  0  0  0  0  0  0  0  0
   48.0620  160.7680   30.9380 F   0  0  0  0  0  0  0  0  0  0  0  0
   47.4200  159.0810   32.1310 F   0  0  0  0  0  0  0  0  0  0  0  0
   49.1520  160.2190   32.7540 F   0  0  0  0  0  0  0  0  0  0  0  0
   53.2424  162.3310   31.8614 H   0  0  0  0  0  0  0  0  0  0  0  0
   54.0877  162.0263   30.3060 H   0  0  0  0  0  0  0  0  0  0  0  0
   52.3800  162.5833   30.3060 H   0  0  0  0  0  0  0  0  0  0  0  0
   53.0830  159.9792   30.0018 H   0  0  0  0  0  0  0  0  0  0  0  0
   52.9776  160.0522   31.7994 H   0  0  0  0  0  0  0  0  0  0  0  0
   50.1035  162.2615   30.5806 H   0  0  0  0  0  0  0  0  0  0  0  0
   51.3301  161.9579   29.3039 H   0  0  0  0  0  0  0  0  0  0  0  0
   49.7872  161.0381   29.3039 H   0  0  0  0  0  0  0  0  0  0  0  0
   52.4912  158.5866   29.3566 H   0  0  0  0  0  0  0  0  0  0  0  0
   53.2851  157.5399   25.1450 H   0  0  0  0  0  0  0  0  0  0  0  0
   54.6967  156.2590   23.5317 H   0  0  0  0  0  0  0  0  0  0  0  0
   55.2860  153.8791   24.0013 H   0  0  0  0  0  0  0  0  0  0  0  0
   53.9130  151.8510   26.0490 H   0  0  0  0  0  0  0  0  0  0  0  0
   51.9570  154.4480   30.8910 H   0  0  0  0  0  0  0  0  0  0  0  0
   49.3504  155.6297   29.4784 H   0  0  0  0  0  0  0  0  0  0  0  0
   47.9389  157.1882   30.7999 H   0  0  0  0  0  0  0  0  0  0  0  0
  1  2  1  0
  2  3  1  0
  3  4  1  0
  3  5  1  0
  5  6  2  0
  6  7  1  0
  7  8  1  0
  8  9  1  0
  9 10  1  0
 10 11  2  0
 11 12  1  0
 12 13  2  0
 13 14  1  0
 14 15  1  0
 14 16  2  0
 16 17  1  0
 17 18  2  0
 17 19  1  0
 19 20  1  0
  7 21  2  0
 21 22  1  0
 22 23  2  0
 23 24  1  0
 24 25  1  0
 24 26  1  0
 24 27  1  0
 23  5  1  0
 19  8  2  0
 16 10  1  0
  1 28  1  0
  1 29  1  0
  1 30  1  0
  2 31  1  0
  2 32  1  0
  4 33  1  0
  4 34  1  0
  4 35  1  0
  6 36  1  0
 11 37  1  0
 12 38  1  0
 13 39  1  0
 15 40  1  0
 20 41  1  0
 21 42  1  0
 22 43  1  0
M  END
>  <meeko>  (2) 
{"is_sidechain": [false], "free_energy": -9.461, "intermolecular_energy": -11.686, "internal_energy": 0.218}

$$$$
cand_032_out
     RDKit          3D

 43 45  0  0  0  0  0  0  0  0999 V2000
   46.4570  160.0350   30.8500 C   0  0  0  0  0  0  0  0  0  0  0  0
   47.6850  159.2770   30.3640 C   0  0  0  0  0  0  0  0  0  0  0  0
   48.7710  159.3690   31.3580 N   0  0  0  0  0  0  0  0  0  0  0  0
   48.6010  158.5180   32.5430 C   0  0  0  0  0  0  0  0  0  0  0  0
   50.0520  159.1930   30.7850 C   0  0  0  0  0  0  0  0  0  0  0  0
   50.3790  158.0300   30.0580 C   0  0  0  0  0  0  0  0  0  0  0  0
   51.6440  157.8500   29.4810 C   0  0  0  0  0  0  0  0  0  0  0  0
   51.9910  156.6210   28.7370 C   0  0  0  0  0  0  0  0  0  0  0  0
   52.5800  156.8830   27.5050 O   0  0  0  0  0  0  0  0  0  0  0  0
   52.9510  155.8290   26.7090 C   0  0  0  0  0  0  0  0  0  0  0  0
   53.5520  156.1380   25.4890 C   0  0  0  0  0  0  0  0  0  0  0  0
   53.9510  155.1120   24.6290 C   0  0  0  0  0  0  0  0  0  0  0  0
   53.7510  153.7770   24.9910 C   0  0  0  0  0  0  0  0  0  0  0  0
   53.1510  153.4730   26.2110 C   0  0  0  0  0  0  0  0  0  0  0  0
   52.9850  152.1470   26.5020 O   0  0  0  0  0  0  0  0  0  0  0  0
   52.7520  154.5000   27.0690 C   0  0  0  0  0  0  0  0  0  0  0  0
   52.1180  154.2230   28.3590 C   0  0  0  0  0  0  0  0  0  0  0  0
   51.9010  153.0760   28.7460 O   0  0  0  0  0  0  0  0  0  0  0  0
   51.7390  155.3820   29.1990 C   0  0  0  0  0  0  0  0  0  0  0  0
   51.1290  155.1090   30.4100 O   0  0  0  0  0  0  0  0  0  0  0  0
   52.6040  158.8510   29.6590 C   0  0  0  0  0  0  0  0  0  0  0  0
   52.3000  160.0080   30.3780 C   0  0  0  0  0  0  0  0  0  0  0  0
   51.0260  160.1930   30.9460 C   0  0  0  0  0  0  0  0  0  0  0  0
   50.7200  161.4580   31.7130 C   0  0  0  0  0  0  0  0  0  0  0  0
   49.5810  162.0860   31.3020 F   0  0  0  0  0  0  0  0  0  0  0  0
   50.5240  161.2260   33.0490 F   0  0  0  0  0  0  0  0  0  0  0  0
   51.7170  162.3870   31.6650 F   0  0  0  0  0  0  0  0  0  0  0  0
   46.4430  160.0437   31.9499 H   0  0  0  0  0  0  0  0  0  0  0  0
   46.4922  161.0687   30.4756 H   0  0  0  0  0  0  0  0  0  0  0  0
   45.5487  159.5402   30.4756 H   0  0  0  0  0  0  0  0  0  0  0  0
   47.4218  158.2199   30.2111 H   0  0  0  0  0  0  0  0  0  0  0  0
   48.0279  159.7210   29.4178 H   0  0  0  0  0  0  0  0  0  0  0  0
   48.7225  159.1261   33.4516 H   0  0  0  0  0  0  0  0  0  0  0  0
   47.5959  158.0712   32.5324 H   0  0  0  0  0  0  0  0  0  0  0  0
   49.3574  157.7194   32.5324 H   0  0  0  0  0  0  0  0  0  0  0  0
   49.6205  157.2420   29.9403 H   0  0  0  0  0  0  0  0  0  0  0  0
   53.7117  157.1884   25.2043 H   0  0  0  0  0  0  0  0  0  0  0  0
   54.4232  155.3551   23.6657 H   0  0  0  0  0  0  0  0  0  0  0  0
   54.0664  152.9688   24.3147 H   0  0  0  0  0  0  0  0  0  0  0  0
   52.1610  151.7300   26.3390 H   0  0  0  0  0  0  0  0  0  0  0  0
   51.6480  154.8820   31.1550 H   0  0  0  0  0  0  0  0  0  0  0  0
   53.6083  158.7254   29.2283 H   0  0  0  0  0  0  0  0  0  0  0  0
   53.0673  160.7863   30.5024 H   0  0  0  0  0  0  0  0  0  0  0  0
  1  2  1  0
  2  3  1  0
  3  4  1  0
  3  5  1  0
  5  6  2  0
  6  7  1  0
  7  8  1  0
  8  9  1  0
  9 10  1  0
 10 11  2  0
 11 12  1  0
 12 13  2  0
 13 14  1  0
 14 15  1  0
 14 16  2  0
 16 17  1  0
 17 18  2  0
 17 19  1  0
 19 20  1  0
  7 21  2  0
 21 22  1  0
 22 23  2  0
 23 24  1  0
 24 25  1  0
 24 26  1  0
 24 27  1  0
 23  5  1  0
 19  8  2  0
 16 10  1  0
  1 28  1  0
  1 29  1  0
  1 30  1  0
  2 31  1  0
  2 32  1  0
  4 33  1  0
  4 34  1  0
  4 35  1  0
  6 36  1  0
 11 37  1  0
 12 38  1  0
 13 39  1  0
 15 40  1  0
 20 41  1  0
 21 42  1  0
 22 43  1  0
M  END
>  <meeko>  (3) 
{"is_sidechain": [false], "free_energy": -9.279, "intermolecular_energy": -10.781, "internal_energy": -0.453}

$$$$
cand_032_out
     RDKit          3D

 43 45  0  0  0  0  0  0  0  0999 V2000
   47.9650  160.8160   30.7740 C   0  0  0  0  0  0  0  0  0  0  0  0
   48.8850  160.0160   29.8620 C   0  0  0  0  0  0  0  0  0  0  0  0
   49.5480  158.9380   30.6230 N   0  0  0  0  0  0  0  0  0  0  0  0
   48.7100  157.7620   30.8910 C   0  0  0  0  0  0  0  0  0  0  0  0
   50.7910  158.5610   30.0630 C   0  0  0  0  0  0  0  0  0  0  0  0
   50.9580  157.3230   29.4110 C   0  0  0  0  0  0  0  0  0  0  0  0
   52.1860  156.9430   28.8470 C   0  0  0  0  0  0  0  0  0  0  0  0
   52.3640  155.6370   28.1810 C   0  0  0  0  0  0  0  0  0  0  0  0
   52.9160  155.7480   26.9100 O   0  0  0  0  0  0  0  0  0  0  0  0
   53.1340  154.6080   26.1790 C   0  0  0  0  0  0  0  0  0  0  0  0
   53.7040  154.7660   24.9150 C   0  0  0  0  0  0  0  0  0  0  0  0
   53.9510  153.6460   24.1180 C   0  0  0  0  0  0  0  0  0  0  0  0
   53.6290  152.3690   24.5840 C   0  0  0  0  0  0  0  0  0  0  0  0
   53.0610  152.2160   25.8470 C   0  0  0  0  0  0  0  0  0  0  0  0
   52.7700  150.9390   26.2410 O   0  0  0  0  0  0  0  0  0  0  0  0
   52.8140  153.3360   26.6440 C   0  0  0  0  0  0  0  0  0  0  0  0
   52.2190  153.2190   27.9760 C   0  0  0  0  0  0  0  0  0  0  0  0
   51.9020  152.1310   28.4540 O   0  0  0  0  0  0  0  0  0  0  0  0
   52.0060  154.4670   28.7430 C   0  0  0  0  0  0  0  0  0  0  0  0
   51.4300  154.3450   29.9950 O   0  0  0  0  0  0  0  0  0  0  0  0
   53.2690  157.8200   28.9640 C   0  0  0  0  0  0  0  0  0  0  0  0
   53.1230  159.0490   29.6090 C   0  0  0  0  0  0  0  0  0  0  0  0
   51.8880  159.4340   30.1630 C   0  0  0  0  0  0  0  0  0  0  0  0
   51.7550  160.7720   30.8490 C   0  0  0  0  0  0  0  0  0  0  0  0
   51.1860  160.7000   32.0870 F   0  0  0  0  0  0  0  0  0  0  0  0
   52.9670  161.3760   31.0610 F   0  0  0  0  0  0  0  0  0  0  0  0
   51.0330  161.6860   30.1400 F   0  0  0  0  0  0  0  0  0  0  0  0
   48.2122  160.6010   31.8241 H   0  0  0  0  0  0  0  0  0  0  0  0
   48.0984  161.8902   30.5784 H   0  0  0  0  0  0  0  0  0  0  0  0
   46.9197  160.5347   30.5784 H   0  0  0  0  0  0  0  0  0  0  0  0
   48.2934  159.5741   29.0467 H   0  0  0  0  0  0  0  0  0  0  0  0
   49.6523  160.6873   29.4489 H   0  0  0  0  0  0  0  0  0  0  0  0
   48.6106  157.6225   31.9776 H   0  0  0  0  0  0  0  0  0  0  0  0
   47.7144  157.9125   30.4481 H   0  0  0  0  0  0  0  0  0  0  0  0
   49.1773  156.8701   30.4481 H   0  0  0  0  0  0  0  0  0  0  0  0
   50.1023  156.6352   29.3421 H   0  0  0  0  0  0  0  0  0  0  0  0
   53.9583  155.7710   24.5470 H   0  0  0  0  0  0  0  0  0  0  0  0
   54.4000  153.7696   23.1214 H   0  0  0  0  0  0  0  0  0  0  0  0
   53.8233  151.4871   23.9558 H   0  0  0  0  0  0  0  0  0  0  0  0
   53.4510  150.3810   26.5650 H   0  0  0  0  0  0  0  0  0  0  0  0
   50.6770  153.8020   30.1130 H   0  0  0  0  0  0  0  0  0  0  0  0
   54.2456  157.5384   28.5435 H   0  0  0  0  0  0  0  0  0  0  0  0
   53.9860  159.7267   29.6855 H   0  0  0  0  0  0  0  0  0  0  0  0
  1  2  1  0
  2  3  1  0
  3  4  1  0
  3  5  1  0
  5  6  2  0
  6  7  1  0
  7  8  1  0
  8  9  1  0
  9 10  1  0
 10 11  2  0
 11 12  1  0
 12 13  2  0
 13 14  1  0
 14 15  1  0
 14 16  2  0
 16 17  1  0
 17 18  2  0
 17 19  1  0
 19 20  1  0
  7 21  2  0
 21 22  1  0
 22 23  2  0
 23 24  1  0
 24 25  1  0
 24 26  1  0
 24 27  1  0
 23  5  1  0
 19  8  2  0
 16 10  1  0
  1 28  1  0
  1 29  1  0
  1 30  1  0
  2 31  1  0
  2 32  1  0
  4 33  1  0
  4 34  1  0
  4 35  1  0
  6 36  1  0
 11 37  1  0
 12 38  1  0
 13 39  1  0
 15 40  1  0
 20 41  1  0
 21 42  1  0
 22 43  1  0
M  END
>  <meeko>  (4) 
{"is_sidechain": [false], "free_energy": -9.155, "intermolecular_energy": -11.321, "internal_energy": 0.247}

$$$$
cand_032_out
     RDKit          3D

 43 45  0  0  0  0  0  0  0  0999 V2000
   54.0700  154.0680   23.6770 C   0  0  0  0  0  0  0  0  0  0  0  0
   53.0120  154.6920   24.5770 C   0  0  0  0  0  0  0  0  0  0  0  0
   53.6350  155.2290   25.8030 N   0  0  0  0  0  0  0  0  0  0  0  0
   54.1440  156.6020   25.6890 C   0  0  0  0  0  0  0  0  0  0  0  0
   52.8100  155.0850   26.9420 C   0  0  0  0  0  0  0  0  0  0  0  0
   52.2880  156.2050   27.6190 C   0  0  0  0  0  0  0  0  0  0  0  0
   51.4640  156.0710   28.7470 C   0  0  0  0  0  0  0  0  0  0  0  0
   50.9350  157.2480   29.4670 C   0  0  0  0  0  0  0  0  0  0  0  0
   51.9010  158.2210   29.6960 O   0  0  0  0  0  0  0  0  0  0  0  0
   51.5430  159.3680   30.3580 C   0  0  0  0  0  0  0  0  0  0  0  0
   52.5410  160.3240   30.5530 C   0  0  0  0  0  0  0  0  0  0  0  0
   52.2440  161.5140   31.2210 C   0  0  0  0  0  0  0  0  0  0  0  0
   50.9510  161.7480   31.6940 C   0  0  0  0  0  0  0  0  0  0  0  0
   49.9570  160.7920   31.4960 C   0  0  0  0  0  0  0  0  0  0  0  0
   48.7130  161.0850   31.9850 O   0  0  0  0  0  0  0  0  0  0  0  0
   50.2550  159.6020   30.8280 C   0  0  0  0  0  0  0  0  0  0  0  0
   49.2400  158.5720   30.6000 C   0  0  0  0  0  0  0  0  0  0  0  0
   48.0810  158.7010   30.9910 O   0  0  0  0  0  0  0  0  0  0  0  0
   49.6560  157.3500   29.8740 C   0  0  0  0  0  0  0  0  0  0  0  0
   48.6920  156.3770   29.6760 O   0  0  0  0  0  0  0  0  0  0  0  0
   51.1790  154.7830   29.2110 C   0  0  0  0  0  0  0  0  0  0  0  0
   51.6900  153.6620   28.5550 C   0  0  0  0  0  0  0  0  0  0  0  0
   52.5070  153.7970   27.4180 C   0  0  0  0  0  0  0  0  0  0  0  0
   53.0390  152.5670   26.7220 C   0  0  0  0  0  0  0  0  0  0  0  0
   54.4020  152.5180   26.6630 F   0  0  0  0  0  0  0  0  0  0  0  0
   52.6780  151.4080   27.3580 F   0  0  0  0  0  0  0  0  0  0  0  0
   52.5870  152.4160   25.4450 F   0  0  0  0  0  0  0  0  0  0  0  0
   54.8527  153.6063   24.2969 H   0  0  0  0  0  0  0  0  0  0  0  0
   53.6045  153.2998   23.0420 H   0  0  0  0  0  0  0  0  0  0  0  0
   54.5171  154.8470   23.0420 H   0  0  0  0  0  0  0  0  0  0  0  0
   52.5115  155.5089   24.0364 H   0  0  0  0  0  0  0  0  0  0  0  0
   52.2791  153.9206   24.8561 H   0  0  0  0  0  0  0  0  0  0  0  0
   54.2991  157.0202   26.6945 H   0  0  0  0  0  0  0  0  0  0  0  0
   55.0992  156.5948   25.1436 H   0  0  0  0  0  0  0  0  0  0  0  0
   53.4149  157.2192   25.1436 H   0  0  0  0  0  0  0  0  0  0  0  0
   52.5333  157.2129   27.2530 H   0  0  0  0  0  0  0  0  0  0  0  0
   53.5598  160.1405   30.1812 H   0  0  0  0  0  0  0  0  0  0  0  0
   53.0298  162.2682   31.3748 H   0  0  0  0  0  0  0  0  0  0  0  0
   50.7179  162.6847   32.2215 H   0  0  0  0  0  0  0  0  0  0  0  0
   48.2280  161.8040   31.6310 H   0  0  0  0  0  0  0  0  0  0  0  0
   47.7850  156.6060   29.6960 H   0  0  0  0  0  0  0  0  0  0  0  0
   50.5462  154.6521   30.1012 H   0  0  0  0  0  0  0  0  0  0  0  0
   51.4501  152.6573   28.9331 H   0  0  0  0  0  0  0  0  0  0  0  0
  1  2  1  0
  2  3  1  0
  3  4  1  0
  3  5  1  0
  5  6  2  0
  6  7  1  0
  7  8  1  0
  8  9  1  0
  9 10  1  0
 10 11  2  0
 11 12  1  0
 12 13  2  0
 13 14  1  0
 14 15  1  0
 14 16  2  0
 16 17  1  0
 17 18  2  0
 17 19  1  0
 19 20  1  0
  7 21  2  0
 21 22  1  0
 22 23  2  0
 23 24  1  0
 24 25  1  0
 24 26  1  0
 24 27  1  0
 23  5  1  0
 19  8  2  0
 16 10  1  0
  1 28  1  0
  1 29  1  0
  1 30  1  0
  2 31  1  0
  2 32  1  0
  4 33  1  0
  4 34  1  0
  4 35  1  0
  6 36  1  0
 11 37  1  0
 12 38  1  0
 13 39  1  0
 15 40  1  0
 20 41  1  0
 21 42  1  0
 22 43  1  0
M  END
>  <meeko>  (5) 
{"is_sidechain": [false], "free_energy": -7.859, "intermolecular_energy": -10.488, "internal_energy": 1.089}

$$$$
cand_032_out
     RDKit          3D

 43 45  0  0  0  0  0  0  0  0999 V2000
   54.2900  150.8450   25.1580 C   0  0  0  0  0  0  0  0  0  0  0  0
   54.2890  152.1150   25.9980 C   0  0  0  0  0  0  0  0  0  0  0  0
   53.0160  152.8420   25.8250 N   0  0  0  0  0  0  0  0  0  0  0  0
   51.8780  152.2850   26.5680 C   0  0  0  0  0  0  0  0  0  0  0  0
   53.1460  154.2310   26.0580 C   0  0  0  0  0  0  0  0  0  0  0  0
   52.4170  154.8770   27.0780 C   0  0  0  0  0  0  0  0  0  0  0  0
   52.5440  156.2530   27.3200 C   0  0  0  0  0  0  0  0  0  0  0  0
   51.7640  156.9310   28.3760 C   0  0  0  0  0  0  0  0  0  0  0  0
   52.3180  158.1470   28.7600 O   0  0  0  0  0  0  0  0  0  0  0  0
   51.6940  158.8820   29.7360 C   0  0  0  0  0  0  0  0  0  0  0  0
   52.2750  160.1020   30.0800 C   0  0  0  0  0  0  0  0  0  0  0  0
   51.6920  160.8980   31.0680 C   0  0  0  0  0  0  0  0  0  0  0  0
   50.5260  160.4750   31.7100 C   0  0  0  0  0  0  0  0  0  0  0  0
   49.9470  159.2570   31.3640 C   0  0  0  0  0  0  0  0  0  0  0  0
   48.8080  158.9030   32.0320 O   0  0  0  0  0  0  0  0  0  0  0  0
   50.5320  158.4600   30.3760 C   0  0  0  0  0  0  0  0  0  0  0  0
   49.9570  157.1730   29.9820 C   0  0  0  0  0  0  0  0  0  0  0  0
   48.9360  156.7290   30.5050 O   0  0  0  0  0  0  0  0  0  0  0  0
   50.6490  156.4090   28.9190 C   0  0  0  0  0  0  0  0  0  0  0  0
   50.1040  155.1890   28.5650 O   0  0  0  0  0  0  0  0  0  0  0  0
   53.4050  156.9930   26.5040 C   0  0  0  0  0  0  0  0  0  0  0  0
   54.1320  156.3720   25.4880 C   0  0  0  0  0  0  0  0  0  0  0  0
   54.0140  154.9900   25.2540 C   0  0  0  0  0  0  0  0  0  0  0  0
   54.8170  154.3400   24.1530 C   0  0  0  0  0  0  0  0  0  0  0  0
   54.0890  153.4940   23.3680 F   0  0  0  0  0  0  0  0  0  0  0  0
   55.3440  155.2550   23.2790 F   0  0  0  0  0  0  0  0  0  0  0  0
   55.8930  153.6310   24.6000 F   0  0  0  0  0  0  0  0  0  0  0  0
   54.2907  149.9671   25.8207 H   0  0  0  0  0  0  0  0  0  0  0  0
   53.3919  150.8245   24.5232 H   0  0  0  0  0  0  0  0  0  0  0  0
   55.1882  150.8259   24.5232 H   0  0  0  0  0  0  0  0  0  0  0  0
   54.4140  151.8492   27.0580 H   0  0  0  0  0  0  0  0  0  0  0  0
   55.1174  152.7609   25.6715 H   0  0  0  0  0  0  0  0  0  0  0  0
   52.0651  152.3766   27.6481 H   0  0  0  0  0  0  0  0  0  0  0  0
   50.9635  152.8373   26.3062 H   0  0  0  0  0  0  0  0  0  0  0  0
   51.7531  151.2239   26.3062 H   0  0  0  0  0  0  0  0  0  0  0  0
   51.7299  154.2856   27.7010 H   0  0  0  0  0  0  0  0  0  0  0  0
   53.1921  160.4371   29.5733 H   0  0  0  0  0  0  0  0  0  0  0  0
   52.1516  161.8594   31.3410 H   0  0  0  0  0  0  0  0  0  0  0  0
   50.0661  161.1028   32.4874 H   0  0  0  0  0  0  0  0  0  0  0  0
   48.3910  159.5150   32.6070 H   0  0  0  0  0  0  0  0  0  0  0  0
   50.6150  154.4080   28.6400 H   0  0  0  0  0  0  0  0  0  0  0  0
   53.5103  158.0761   26.6647 H   0  0  0  0  0  0  0  0  0  0  0  0
   54.8075  156.9720   24.8606 H   0  0  0  0  0  0  0  0  0  0  0  0
  1  2  1  0
  2  3  1  0
  3  4  1  0
  3  5  1  0
  5  6  2  0
  6  7  1  0
  7  8  1  0
  8  9  1  0
  9 10  1  0
 10 11  2  0
 11 12  1  0
 12 13  2  0
 13 14  1  0
 14 15  1  0
 14 16  2  0
 16 17  1  0
 17 18  2  0
 17 19  1  0
 19 20  1  0
  7 21  2  0
 21 22  1  0
 22 23  2  0
 23 24  1  0
 24 25  1  0
 24 26  1  0
 24 27  1  0
 23  5  1  0
 19  8  2  0
 16 10  1  0
  1 28  1  0
  1 29  1  0
  1 30  1  0
  2 31  1  0
  2 32  1  0
  4 33  1  0
  4 34  1  0
  4 35  1  0
  6 36  1  0
 11 37  1  0
 12 38  1  0
 13 39  1  0
 15 40  1  0
 20 41  1  0
 21 42  1  0
 22 43  1  0
M  END
>  <meeko>  (6) 
{"is_sidechain": [false], "free_energy": -7.568, "intermolecular_energy": -10.221, "internal_energy": 1.199}

$$$$
cand_032_out
     RDKit          3D

 43 45  0  0  0  0  0  0  0  0999 V2000
   52.9770  161.7880   30.8760 C   0  0  0  0  0  0  0  0  0  0  0  0
   52.5840  160.3400   30.6160 C   0  0  0  0  0  0  0  0  0  0  0  0
   51.1150  160.2010   30.6090 N   0  0  0  0  0  0  0  0  0  0  0  0
   50.4010  161.2050   29.8090 C   0  0  0  0  0  0  0  0  0  0  0  0
   50.6920  158.8930   30.2790 C   0  0  0  0  0  0  0  0  0  0  0  0
   51.4300  158.0830   29.3930 C   0  0  0  0  0  0  0  0  0  0  0  0
   51.0210  156.7820   29.0640 C   0  0  0  0  0  0  0  0  0  0  0  0
   51.7850  155.9420   28.1190 C   0  0  0  0  0  0  0  0  0  0  0  0
   51.4330  154.5990   28.1820 O   0  0  0  0  0  0  0  0  0  0  0  0
   52.0680  153.7060   27.3560 C   0  0  0  0  0  0  0  0  0  0  0  0
   51.6730  152.3720   27.4420 C   0  0  0  0  0  0  0  0  0  0  0  0
   52.2810  151.4110   26.6310 C   0  0  0  0  0  0  0  0  0  0  0  0
   53.2840  151.7860   25.7340 C   0  0  0  0  0  0  0  0  0  0  0  0
   53.6750  153.1190   25.6490 C   0  0  0  0  0  0  0  0  0  0  0  0
   54.6620  153.4170   24.7500 O   0  0  0  0  0  0  0  0  0  0  0  0
   53.0670  154.0800   26.4610 C   0  0  0  0  0  0  0  0  0  0  0  0
   53.4480  155.4910   26.4050 C   0  0  0  0  0  0  0  0  0  0  0  0
   54.3260  155.8990   25.6460 O   0  0  0  0  0  0  0  0  0  0  0  0
   52.7370  156.4310   27.3020 C   0  0  0  0  0  0  0  0  0  0  0  0
   53.1160  157.7600   27.2490 O   0  0  0  0  0  0  0  0  0  0  0  0
   49.8340  156.2980   29.6250 C   0  0  0  0  0  0  0  0  0  0  0  0
   49.0890  157.0870   30.5020 C   0  0  0  0  0  0  0  0  0  0  0  0
   49.5060  158.3870   30.8400 C   0  0  0  0  0  0  0  0  0  0  0  0
   48.6860  159.2170   31.7980 C   0  0  0  0  0  0  0  0  0  0  0  0
   48.0320  160.2560   31.2030 F   0  0  0  0  0  0  0  0  0  0  0  0
   47.6970  158.4890   32.4070 F   0  0  0  0  0  0  0  0  0  0  0  0
   49.4070  159.7470   32.8270 F   0  0  0  0  0  0  0  0  0  0  0  0
   53.0252  161.9658   31.9605 H   0  0  0  0  0  0  0  0  0  0  0  0
   53.9616  161.9869   30.4277 H   0  0  0  0  0  0  0  0  0  0  0  0
   52.2280  162.4574   30.4277 H   0  0  0  0  0  0  0  0  0  0  0  0
   52.9828  160.0254   29.6403 H   0  0  0  0  0  0  0  0  0  0  0  0
   52.9993  159.7078   31.4147 H   0  0  0  0  0  0  0  0  0  0  0  0
   49.8954  161.9159   30.4791 H   0  0  0  0  0  0  0  0  0  0  0  0
   51.1184  161.7460   29.1744 H   0  0  0  0  0  0  0  0  0  0  0  0
   49.6545  160.7050   29.1744 H   0  0  0  0  0  0  0  0  0  0  0  0
   52.3528  158.4821   28.9468 H   0  0  0  0  0  0  0  0  0  0  0  0
   50.8830  152.0763   28.1481 H   0  0  0  0  0  0  0  0  0  0  0  0
   51.9698  150.3581   26.6987 H   0  0  0  0  0  0  0  0  0  0  0  0
   53.7639  151.0292   25.0960 H   0  0  0  0  0  0  0  0  0  0  0  0
   54.6110  153.0930   23.8720 H   0  0  0  0  0  0  0  0  0  0  0  0
   52.5300  158.4000   26.8970 H   0  0  0  0  0  0  0  0  0  0  0  0
   49.4849  155.2860   29.3722 H   0  0  0  0  0  0  0  0  0  0  0  0
   48.1611  156.6861   30.9358 H   0  0  0  0  0  0  0  0  0  0  0  0
  1  2  1  0
  2  3  1  0
  3  4  1  0
  3  5  1  0
  5  6  2  0
  6  7  1  0
  7  8  1  0
  8  9  1  0
  9 10  1  0
 10 11  2  0
 11 12  1  0
 12 13  2  0
 13 14  1  0
 14 15  1  0
 14 16  2  0
 16 17  1  0
 17 18  2  0
 17 19  1  0
 19 20  1  0
  7 21  2  0
 21 22  1  0
 22 23  2  0
 23 24  1  0
 24 25  1  0
 24 26  1  0
 24 27  1  0
 23  5  1  0
 19  8  2  0
 16 10  1  0
  1 28  1  0
  1 29  1  0
  1 30  1  0
  2 31  1  0
  2 32  1  0
  4 33  1  0
  4 34  1  0
  4 35  1  0
  6 36  1  0
 11 37  1  0
 12 38  1  0
 13 39  1  0
 15 40  1  0
 20 41  1  0
 21 42  1  0
 22 43  1  0
M  END
>  <meeko>  (7) 
{"is_sidechain": [false], "free_energy": -7.447, "intermolecular_energy": -9.222, "internal_energy": 0.356}

$$$$
