cand_014_out
     RDKit          3D

 35 37  0  0  0  0  0  0  0  0999 V2000
   50.0810  161.2370   31.5930 C   0  0  0  0  0  0  0  0  0  0  0  0
   50.5170  159.9850   30.8810 C   0  0  0  0  0  0  0  0  0  0  0  0
   51.8080  159.9270   30.3360 C   0  0  0  0  0  0  0  0  0  0  0  0
   52.2490  158.7880   29.6580 C   0  0  0  0  0  0  0  0  0  0  0  0
   51.4130  157.6760   29.5080 C   0  0  0  0  0  0  0  0  0  0  0  0
   51.8930  156.4880   28.7720 C   0  0  0  0  0  0  0  0  0  0  0  0
   52.5010  156.8080   27.5640 O   0  0  0  0  0  0  0  0  0  0  0  0
   52.9880  155.7940   26.7790 C   0  0  0  0  0  0  0  0  0  0  0  0
   53.5750  156.1560   25.5670 C   0  0  0  0  0  0  0  0  0  0  0  0
   54.0940  155.1730   24.7220 C   0  0  0  0  0  0  0  0  0  0  0  0
   54.0260  153.8270   25.0890 C   0  0  0  0  0  0  0  0  0  0  0  0
   53.4400  153.4680   26.3000 C   0  0  0  0  0  0  0  0  0  0  0  0
   53.4080  152.1330   26.5980 O   0  0  0  0  0  0  0  0  0  0  0  0
   52.9200  154.4520   27.1450 C   0  0  0  0  0  0  0  0  0  0  0  0
   52.2960  154.1170   28.4250 C   0  0  0  0  0  0  0  0  0  0  0  0
   52.2060  152.9570   28.8230 O   0  0  0  0  0  0  0  0  0  0  0  0
   51.7680  155.2340   29.2430 C   0  0  0  0  0  0  0  0  0  0  0  0
   51.1920  154.9090   30.4570 O   0  0  0  0  0  0  0  0  0  0  0  0
   50.1150  157.7430   30.0330 C   0  0  0  0  0  0  0  0  0  0  0  0
   49.6500  158.8850   30.7140 C   0  0  0  0  0  0  0  0  0  0  0  0
   48.2470  158.8810   31.2790 C   0  0  0  0  0  0  0  0  0  0  0  0
   47.4460  159.8510   30.7520 F   0  0  0  0  0  0  0  0  0  0  0  0
   48.2110  159.0770   32.6270 F   0  0  0  0  0  0  0  0  0  0  0  0
   50.1361  161.0787   32.6801 H   0  0  0  0  0  0  0  0  0  0  0  0
   50.7423  162.0691   31.3097 H   0  0  0  0  0  0  0  0  0  0  0  0
   49.0459  161.4784   31.3097 H   0  0  0  0  0  0  0  0  0  0  0  0
   52.4820  160.7896   30.4438 H   0  0  0  0  0  0  0  0  0  0  0  0
   53.2651  158.7650   29.2372 H   0  0  0  0  0  0  0  0  0  0  0  0
   53.6292  157.2156   25.2767 H   0  0  0  0  0  0  0  0  0  0  0  0
   54.5570  155.4590   23.7661 H   0  0  0  0  0  0  0  0  0  0  0  0
   54.4344  153.0526   24.4230 H   0  0  0  0  0  0  0  0  0  0  0  0
   53.1880  151.5100   25.9330 H   0  0  0  0  0  0  0  0  0  0  0  0
   50.9200  155.5870   31.0440 H   0  0  0  0  0  0  0  0  0  0  0  0
   49.4422  156.8815   29.9100 H   0  0  0  0  0  0  0  0  0  0  0  0
   47.8803  157.8791   31.0111 H   0  0  0  0  0  0  0  0  0  0  0  0
  1  2  1  0
  2  3  2  0
  3  4  1  0
  4  5  2  0
  5  6  1  0
  6  7  1  0
  7  8  1  0
  8  9  2  0
  9 10  1  0
 10 11  2  0
 11 12  1  0
 12 13  1  0
 12 14  2  0
 14 15  1  0
 15 16  2  0
 15 17  1  0
 17 18  1  0
  5 19  1  0
 19 20  2  0
 20 21  1  0
 21 22  1  0
 21 23  1  0
 20  2  1  0
 17  6  2  0
 14  8  1  0
  1 24  1  0
  1 25  1  0
  1 26  1  0
  3 27  1  0
  4 28  1  0
  9 29  1  0
 10 30  1  0
 11 31  1  0
 13 32  1  0
 18 33  1  0
 19 34  1  0
 21 35  1  0
M  END
>  <meeko>  (1) 
{"is_sidechain": [false], "free_energy": -10.875, "intermolecular_energy": -12.782, "internal_energy": -0.106}

$$$$
cand_014_out
     RDKit          3D

 35 37  0  0  0  0  0  0  0  0999 V2000
   49.0710  160.7090   31.8010 C   0  0  0  0  0  0  0  0  0  0  0  0
   49.7730  159.6310   31.0210 C   0  0  0  0  0  0  0  0  0  0  0  0
   49.0910  158.4380   30.7430 C   0  0  0  0  0  0  0  0  0  0  0  0
   49.7090  157.4070   30.0320 C   0  0  0  0  0  0  0  0  0  0  0  0
   51.0250  157.5410   29.5770 C   0  0  0  0  0  0  0  0  0  0  0  0
   51.6670  156.4310   28.8430 C   0  0  0  0  0  0  0  0  0  0  0  0
   52.2540  156.8390   27.6510 O   0  0  0  0  0  0  0  0  0  0  0  0
   52.8830  155.9030   26.8690 C   0  0  0  0  0  0  0  0  0  0  0  0
   53.4440  156.3500   25.6730 C   0  0  0  0  0  0  0  0  0  0  0  0
   54.1010  155.4490   24.8320 C   0  0  0  0  0  0  0  0  0  0  0  0
   54.1980  154.1020   25.1870 C   0  0  0  0  0  0  0  0  0  0  0  0
   53.6370  153.6590   26.3810 C   0  0  0  0  0  0  0  0  0  0  0  0
   53.7690  152.3280   26.6690 O   0  0  0  0  0  0  0  0  0  0  0  0
   52.9790  154.5590   27.2230 C   0  0  0  0  0  0  0  0  0  0  0  0
   52.3760  154.1340   28.4860 C   0  0  0  0  0  0  0  0  0  0  0  0
   52.4260  152.9680   28.8730 O   0  0  0  0  0  0  0  0  0  0  0  0
   51.6940  155.1660   29.3020 C   0  0  0  0  0  0  0  0  0  0  0  0
   51.1390  154.7580   30.5000 O   0  0  0  0  0  0  0  0  0  0  0  0
   51.7150  158.7240   29.8750 C   0  0  0  0  0  0  0  0  0  0  0  0
   51.1110  159.7720   30.5970 C   0  0  0  0  0  0  0  0  0  0  0  0
   51.9040  161.0330   30.8600 C   0  0  0  0  0  0  0  0  0  0  0  0
   53.0770  161.0920   30.1660 F   0  0  0  0  0  0  0  0  0  0  0  0
   52.2530  161.1850   32.1680 F   0  0  0  0  0  0  0  0  0  0  0  0
   49.1933  160.5211   32.8779 H   0  0  0  0  0  0  0  0  0  0  0  0
   49.5058  161.6871   31.5477 H   0  0  0  0  0  0  0  0  0  0  0  0
   48.0006  160.7069   31.5477 H   0  0  0  0  0  0  0  0  0  0  0  0
   48.0547  158.3123   31.0897 H   0  0  0  0  0  0  0  0  0  0  0  0
   49.1547  156.4791   29.8275 H   0  0  0  0  0  0  0  0  0  0  0  0
   53.3691  157.4110   25.3923 H   0  0  0  0  0  0  0  0  0  0  0  0
   54.5429  155.8012   23.8882 H   0  0  0  0  0  0  0  0  0  0  0  0
   54.7164  153.3930   24.5247 H   0  0  0  0  0  0  0  0  0  0  0  0
   53.6070  152.0180   27.5390 H   0  0  0  0  0  0  0  0  0  0  0  0
   50.2140  154.8230   30.6350 H   0  0  0  0  0  0  0  0  0  0  0  0
   52.7554  158.8371   29.5362 H   0  0  0  0  0  0  0  0  0  0  0  0
   51.2132  161.8254   30.5360 H   0  0  0  0  0  0  0  0  0  0  0  0
  1  2  1  0
  2  3  2  0
  3  4  1  0
  4  5  2  0
  5  6  1  0
  6  7  1  0
  7  8  1  0
  8  9  2  0
  9 10  1  0
 10 11  2  0
 11 12  1  0
 12 13  1  0
 12 14  2  0
 14 15  1  0
 15 16  2  0
 15 17  1  0
 17 18  1  0
  5 19  1  0
 19 20  2  0
 20 21  1  0
 21 22  1  0
 21 23  1  0
 20  2  1  0
 17  6  2  0
 14  8  1  0
  1 24  1  0
  1 25  1  0
  1 26  1  0
  3 27  1  0
  4 28  1  0
  9 29  1  0
 10 30  1  0
 11 31  1  0
 13 32  1  0
 18 33  1  0
 19 34  1  0
 21 35  1  0
M  END
>  <meeko>  (2) 
{"is_sidechain": [false], "free_energy": -10.612, "intermolecular_energy": -12.326, "internal_energy": -0.253}

$$$$
cand_014_out
     RDKit          3D

 35 37  0  0  0  0  0  0  0  0999 V2000
   52.9120  152.5310   26.7150 C   0  0  0  0  0  0  0  0  0  0  0  0
   52.5690  153.8350   27.3830 C   0  0  0  0  0  0  0  0  0  0  0  0
   51.9000  153.8140   28.6150 C   0  0  0  0  0  0  0  0  0  0  0  0
   51.5530  155.0020   29.2630 C   0  0  0  0  0  0  0  0  0  0  0  0
   51.8670  156.2420   28.6990 C   0  0  0  0  0  0  0  0  0  0  0  0
   51.4750  157.4870   29.3920 C   0  0  0  0  0  0  0  0  0  0  0  0
   50.1500  157.4800   29.8120 O   0  0  0  0  0  0  0  0  0  0  0  0
   49.6580  158.5800   30.4670 C   0  0  0  0  0  0  0  0  0  0  0  0
   48.3180  158.5390   30.8550 C   0  0  0  0  0  0  0  0  0  0  0  0
   47.7550  159.6240   31.5290 C   0  0  0  0  0  0  0  0  0  0  0  0
   48.5300  160.7500   31.8150 C   0  0  0  0  0  0  0  0  0  0  0  0
   49.8660  160.7880   31.4270 C   0  0  0  0  0  0  0  0  0  0  0  0
   50.5680  161.9200   31.7390 O   0  0  0  0  0  0  0  0  0  0  0  0
   50.4300  159.7030   30.7520 C   0  0  0  0  0  0  0  0  0  0  0  0
   51.8300  159.7030   30.3260 C   0  0  0  0  0  0  0  0  0  0  0  0
   52.5790  160.6510   30.5480 O   0  0  0  0  0  0  0  0  0  0  0  0
   52.3280  158.5050   29.6090 C   0  0  0  0  0  0  0  0  0  0  0  0
   53.6550  158.5080   29.2230 O   0  0  0  0  0  0  0  0  0  0  0  0
   52.5160  156.2640   27.4560 C   0  0  0  0  0  0  0  0  0  0  0  0
   52.8670  155.0770   26.7840 C   0  0  0  0  0  0  0  0  0  0  0  0
   53.5900  155.1720   25.4590 C   0  0  0  0  0  0  0  0  0  0  0  0
   53.9910  156.4380   25.1490 F   0  0  0  0  0  0  0  0  0  0  0  0
   52.8300  154.7670   24.4030 F   0  0  0  0  0  0  0  0  0  0  0  0
   53.1127  151.7680   27.4815 H   0  0  0  0  0  0  0  0  0  0  0  0
   52.0684  152.2074   26.0876 H   0  0  0  0  0  0  0  0  0  0  0  0
   53.8056  152.6644   26.0876 H   0  0  0  0  0  0  0  0  0  0  0  0
   51.6449  152.8491   29.0776 H   0  0  0  0  0  0  0  0  0  0  0  0
   51.0267  154.9612   30.2281 H   0  0  0  0  0  0  0  0  0  0  0  0
   47.7063  157.6529   30.6300 H   0  0  0  0  0  0  0  0  0  0  0  0
   46.6990  159.5920   31.8354 H   0  0  0  0  0  0  0  0  0  0  0  0
   48.0855  161.6049   32.3457 H   0  0  0  0  0  0  0  0  0  0  0  0
   51.1430  161.9250   32.4790 H   0  0  0  0  0  0  0  0  0  0  0  0
   54.1180  157.6990   29.1260 H   0  0  0  0  0  0  0  0  0  0  0  0
   52.7570  157.2328   26.9942 H   0  0  0  0  0  0  0  0  0  0  0  0
   54.4553  154.5090   25.6062 H   0  0  0  0  0  0  0  0  0  0  0  0
  1  2  1  0
  2  3  2  0
  3  4  1  0
  4  5  2  0
  5  6  1  0
  6  7  1  0
  7  8  1  0
  8  9  2  0
  9 10  1  0
 10 11  2  0
 11 12  1  0
 12 13  1  0
 12 14  2  0
 14 15  1  0
 15 16  2  0
 15 17  1  0
 17 18  1  0
  5 19  1  0
 19 20  2  0
 20 21  1  0
 21 22  1  0
 21 23  1  0
 20  2  1  0
 17  6  2  0
 14  8  1  0
  1 24  1  0
  1 25  1  0
  1 26  1  0
  3 27  1  0
  4 28  1  0
  9 29  1  0
 10 30  1  0
 11 31  1  0
 13 32  1  0
 18 33  1  0
 19 34  1  0
 21 35  1  0
M  END
>  <meeko>  (3) 
{"is_sidechain": [false], "free_energy": -10.58, "intermolecular_energy": -12.272, "internal_energy": -0.269}

$$$$
cand_014_out
     RDKit          3D

 35 37  0  0  0  0  0  0  0  0999 V2000
   53.3970  152.7220   26.7110 C   0  0  0  0  0  0  0  0  0  0  0  0
   52.8230  153.9260   27.4080 C   0  0  0  0  0  0  0  0  0  0  0  0
   52.0950  153.7430   28.5930 C   0  0  0  0  0  0  0  0  0  0  0  0
   51.5350  154.8320   29.2660 C   0  0  0  0  0  0  0  0  0  0  0  0
   51.6880  156.1320   28.7740 C   0  0  0  0  0  0  0  0  0  0  0  0
   51.0730  157.2680   29.4910 C   0  0  0  0  0  0  0  0  0  0  0  0
   51.9630  158.3090   29.7230 O   0  0  0  0  0  0  0  0  0  0  0  0
   51.5190  159.4250   30.3850 C   0  0  0  0  0  0  0  0  0  0  0  0
   52.4490  160.4390   30.6150 C   0  0  0  0  0  0  0  0  0  0  0  0
   52.0610  161.6030   31.2800 C   0  0  0  0  0  0  0  0  0  0  0  0
   50.7430  161.7550   31.7160 C   0  0  0  0  0  0  0  0  0  0  0  0
   49.8160  160.7420   31.4860 C   0  0  0  0  0  0  0  0  0  0  0  0
   48.5430  160.9550   31.9380 O   0  0  0  0  0  0  0  0  0  0  0  0
   50.2050  159.5760   30.8210 C   0  0  0  0  0  0  0  0  0  0  0  0
   49.2620  158.4880   30.5590 C   0  0  0  0  0  0  0  0  0  0  0  0
   48.0840  158.5480   30.9030 O   0  0  0  0  0  0  0  0  0  0  0  0
   49.7770  157.2900   29.8540 C   0  0  0  0  0  0  0  0  0  0  0  0
   48.8760  156.2730   29.5990 O   0  0  0  0  0  0  0  0  0  0  0  0
   52.3960  156.3130   27.5770 C   0  0  0  0  0  0  0  0  0  0  0  0
   52.9610  155.2270   26.8800 C   0  0  0  0  0  0  0  0  0  0  0  0
   53.7350  155.4950   25.6090 C   0  0  0  0  0  0  0  0  0  0  0  0
   54.1120  156.7970   25.4670 F   0  0  0  0  0  0  0  0  0  0  0  0
   53.0330  155.1990   24.4800 F   0  0  0  0  0  0  0  0  0  0  0  0
   53.7435  151.9951   27.4603 H   0  0  0  0  0  0  0  0  0  0  0  0
   52.6228  152.2589   26.0816 H   0  0  0  0  0  0  0  0  0  0  0  0
   54.2442  153.0319   26.0816 H   0  0  0  0  0  0  0  0  0  0  0  0
   51.9632  152.7287   28.9978 H   0  0  0  0  0  0  0  0  0  0  0  0
   50.9674  154.6648   30.1933 H   0  0  0  0  0  0  0  0  0  0  0  0
   53.4876  160.3212   30.2724 H   0  0  0  0  0  0  0  0  0  0  0  0
   52.7947  162.4023   31.4611 H   0  0  0  0  0  0  0  0  0  0  0  0
   50.4380  162.6729   32.2399 H   0  0  0  0  0  0  0  0  0  0  0  0
   47.8810  160.3070   31.7960 H   0  0  0  0  0  0  0  0  0  0  0  0
   48.9090  155.4810   30.0990 H   0  0  0  0  0  0  0  0  0  0  0  0
   52.5131  157.3290   27.1720 H   0  0  0  0  0  0  0  0  0  0  0  0
   54.6120  154.8399   25.7171 H   0  0  0  0  0  0  0  0  0  0  0  0
  1  2  1  0
  2  3  2  0
  3  4  1  0
  4  5  2  0
  5  6  1  0
  6  7  1  0
  7  8  1  0
  8  9  2  0
  9 10  1  0
 10 11  2  0
 11 12  1  0
 12 13  1  0
 12 14  2  0
 14 15  1  0
 15 16  2  0
 15 17  1  0
 17 18  1  0
  5 19  1  0
 19 20  2  0
 20 21  1  0
 21 22  1  0
 21 23  1  0
 20  2  1  0
 17  6  2  0
 14  8  1  0
  1 24  1  0
  1 25  1  0
  1 26  1  0
  3 27  1  0
  4 28  1  0
  9 29  1  0
 10 30  1  0
 11 31  1  0
 13 32  1  0
 18 33  1  0
 19 34  1  0
 21 35  1  0
M  END
>  <meeko>  (4) 
{"is_sidechain": [false], "free_energy": -9.481, "intermolecular_energy": -10.972, "internal_energy": -0.277}

$$$$
cand_014_out
     RDKit          3D

 35 37  0  0  0  0  0  0  0  0999 V2000
   53.3960  154.1830   26.1980 C   0  0  0  0  0  0  0  0  0  0  0  0
   52.8550  155.2290   27.1340 C   0  0  0  0  0  0  0  0  0  0  0  0
   52.9590  156.5820   26.7760 C   0  0  0  0  0  0  0  0  0  0  0  0
   52.4800  157.5860   27.6210 C   0  0  0  0  0  0  0  0  0  0  0  0
   51.8820  157.2670   28.8440 C   0  0  0  0  0  0  0  0  0  0  0  0
   51.3980  158.3450   29.7310 C   0  0  0  0  0  0  0  0  0  0  0  0
   50.0680  158.1870   30.1000 O   0  0  0  0  0  0  0  0  0  0  0  0
   49.4930  159.1240   30.9210 C   0  0  0  0  0  0  0  0  0  0  0  0
   48.1510  158.9380   31.2530 C   0  0  0  0  0  0  0  0  0  0  0  0
   47.5060  159.8520   32.0880 C   0  0  0  0  0  0  0  0  0  0  0  0
   48.2030  160.9530   32.5900 C   0  0  0  0  0  0  0  0  0  0  0  0
   49.5420  161.1370   32.2580 C   0  0  0  0  0  0  0  0  0  0  0  0
   50.1640  162.2350   32.7860 O   0  0  0  0  0  0  0  0  0  0  0  0
   50.1870  160.2210   31.4230 C   0  0  0  0  0  0  0  0  0  0  0  0
   51.5930  160.3780   31.0490 C   0  0  0  0  0  0  0  0  0  0  0  0
   52.2770  161.3140   31.4570 O   0  0  0  0  0  0  0  0  0  0  0  0
   52.1810  159.3560   30.1500 C   0  0  0  0  0  0  0  0  0  0  0  0
   53.5130  159.5040   29.8130 O   0  0  0  0  0  0  0  0  0  0  0  0
   51.7980  155.9160   29.2120 C   0  0  0  0  0  0  0  0  0  0  0  0
   52.2820  154.8900   28.3780 C   0  0  0  0  0  0  0  0  0  0  0  0
   52.1350  153.4530   28.8240 C   0  0  0  0  0  0  0  0  0  0  0  0
   51.3490  152.7050   27.9970 F   0  0  0  0  0  0  0  0  0  0  0  0
   51.5760  153.3280   30.0600 F   0  0  0  0  0  0  0  0  0  0  0  0
   53.8243  153.3549   26.7817 H   0  0  0  0  0  0  0  0  0  0  0  0
   52.5819  153.8020   25.5639 H   0  0  0  0  0  0  0  0  0  0  0  0
   54.1774  154.6272   25.5639 H   0  0  0  0  0  0  0  0  0  0  0  0
   53.4239  156.8555   25.8173 H   0  0  0  0  0  0  0  0  0  0  0  0
   52.5744  158.6400   27.3207 H   0  0  0  0  0  0  0  0  0  0  0  0
   47.6012  158.0715   30.8570 H   0  0  0  0  0  0  0  0  0  0  0  0
   46.4480  159.7049   32.3507 H   0  0  0  0  0  0  0  0  0  0  0  0
   47.6944  161.6739   33.2470 H   0  0  0  0  0  0  0  0  0  0  0  0
   50.0460  162.4510   33.6900 H   0  0  0  0  0  0  0  0  0  0  0  0
   53.8760  159.0100   29.1050 H   0  0  0  0  0  0  0  0  0  0  0  0
   51.3421  155.6512   30.1774 H   0  0  0  0  0  0  0  0  0  0  0  0
   53.1735  153.0904   28.8169 H   0  0  0  0  0  0  0  0  0  0  0  0
  1  2  1  0
  2  3  2  0
  3  4  1  0
  4  5  2  0
  5  6  1  0
  6  7  1  0
  7  8  1  0
  8  9  2  0
  9 10  1  0
 10 11  2  0
 11 12  1  0
 12 13  1  0
 12 14  2  0
 14 15  1  0
 15 16  2  0
 15 17  1  0
 17 18  1  0
  5 19  1  0
 19 20  2  0
 20 21  1  0
 21 22  1  0
 21 23  1  0
 20  2  1  0
 17  6  2  0
 14  8  1  0
  1 24  1  0
  1 25  1  0
  1 26  1  0
  3 27  1  0
  4 28  1  0
  9 29  1  0
 10 30  1  0
 11 31  1  0
 13 32  1  0
 18 33  1  0
 19 34  1  0
 21 35  1  0
M  END
>  <meeko>  (5) 
{"is_sidechain": [false], "free_energy": -8.966, "intermolecular_energy": -10.411, "internal_energy": -0.234}

$$$$
cand_014_out
     RDKit          3D

 35 37  0  0  0  0  0  0  0  0999 V2000
   49.2260  158.3980   31.1960 C   0  0  0  0  0  0  0  0  0  0  0  0
   50.0360  157.6160   30.1980 C   0  0  0  0  0  0  0  0  0  0  0  0
   49.6350  156.3130   29.8670 C   0  0  0  0  0  0  0  0  0  0  0  0
   50.3650  155.5480   28.9540 C   0  0  0  0  0  0  0  0  0  0  0  0
   51.5130  156.0640   28.3450 C   0  0  0  0  0  0  0  0  0  0  0  0
   52.2810  155.2320   27.3950 C   0  0  0  0  0  0  0  0  0  0  0  0
   51.9520  153.8840   27.4680 O   0  0  0  0  0  0  0  0  0  0  0  0
   52.5970  153.0000   26.6400 C   0  0  0  0  0  0  0  0  0  0  0  0
   52.2510  151.6540   26.7570 C   0  0  0  0  0  0  0  0  0  0  0  0
   52.8660  150.7030   25.9410 C   0  0  0  0  0  0  0  0  0  0  0  0
   53.8280  151.0970   25.0090 C   0  0  0  0  0  0  0  0  0  0  0  0
   54.1720  152.4410   24.8940 C   0  0  0  0  0  0  0  0  0  0  0  0
   55.1190  152.7580   23.9590 O   0  0  0  0  0  0  0  0  0  0  0  0
   53.5560  153.3930   25.7100 C   0  0  0  0  0  0  0  0  0  0  0  0
   53.8880  154.8150   25.6210 C   0  0  0  0  0  0  0  0  0  0  0  0
   54.7170  155.2430   24.8200 O   0  0  0  0  0  0  0  0  0  0  0  0
   53.1840  155.7420   26.5380 C   0  0  0  0  0  0  0  0  0  0  0  0
   53.4940  157.0850   26.4380 O   0  0  0  0  0  0  0  0  0  0  0  0
   51.9270  157.3580   28.6920 C   0  0  0  0  0  0  0  0  0  0  0  0
   51.2090  158.1420   29.6160 C   0  0  0  0  0  0  0  0  0  0  0  0
   51.6950  159.5400   29.9250 C   0  0  0  0  0  0  0  0  0  0  0  0
   51.8730  159.7710   31.2580 F   0  0  0  0  0  0  0  0  0  0  0  0
   50.8390  160.5120   29.5030 F   0  0  0  0  0  0  0  0  0  0  0  0
   49.5235  158.1108   32.2153 H   0  0  0  0  0  0  0  0  0  0  0  0
   49.4050  159.4736   31.0512 H   0  0  0  0  0  0  0  0  0  0  0  0
   48.1573  158.1813   31.0512 H   0  0  0  0  0  0  0  0  0  0  0  0
   48.7336  155.8880   30.3326 H   0  0  0  0  0  0  0  0  0  0  0  0
   50.0328  154.5278   28.7114 H   0  0  0  0  0  0  0  0  0  0  0  0
   51.4941  151.3421   27.4917 H   0  0  0  0  0  0  0  0  0  0  0  0
   52.5923  149.6415   26.0324 H   0  0  0  0  0  0  0  0  0  0  0  0
   54.3131  150.3470   24.3670 H   0  0  0  0  0  0  0  0  0  0  0  0
   55.0440  153.5530   23.4670 H   0  0  0  0  0  0  0  0  0  0  0  0
   53.9230  157.4120   25.6710 H   0  0  0  0  0  0  0  0  0  0  0  0
   52.8360  157.7715   28.2307 H   0  0  0  0  0  0  0  0  0  0  0  0
   52.6519  159.5888   29.3846 H   0  0  0  0  0  0  0  0  0  0  0  0
  1  2  1  0
  2  3  2  0
  3  4  1  0
  4  5  2  0
  5  6  1  0
  6  7  1  0
  7  8  1  0
  8  9  2  0
  9 10  1  0
 10 11  2  0
 11 12  1  0
 12 13  1  0
 12 14  2  0
 14 15  1  0
 15 16  2  0
 15 17  1  0
 17 18  1  0
  5 19  1  0
 19 20  2  0
 20 21  1  0
 21 22  1  0
 21 23  1  0
 20  2  1  0
 17  6  2  0
 14  8  1  0
  1 24  1  0
  1 25  1  0
  1 26  1  0
  3 27  1  0
  4 28  1  0
  9 29  1  0
 10 30  1  0
 11 31  1  0
 13 32  1  0
 18 33  1  0
 19 34  1  0
 21 35  1  0
M  END
>  <meeko>  (6) 
{"is_sidechain": [false], "free_energy": -8.535, "intermolecular_energy": -10.378, "internal_energy": 0.241}

$$$$
cand_014_out
     RDKit          3D

 35 37  0  0  0  0  0  0  0  0999 V2000
   53.8950  153.9860   25.5530 C   0  0  0  0  0  0  0  0  0  0  0  0
   53.1860  154.8790   26.5340 C   0  0  0  0  0  0  0  0  0  0  0  0
   53.2980  156.2700   26.3920 C   0  0  0  0  0  0  0  0  0  0  0  0
   52.6660  157.1350   27.2880 C   0  0  0  0  0  0  0  0  0  0  0  0
   51.9040  156.6350   28.3480 C   0  0  0  0  0  0  0  0  0  0  0  0
   51.2580  157.5680   29.2950 C   0  0  0  0  0  0  0  0  0  0  0  0
   52.0250  158.6970   29.5520 O   0  0  0  0  0  0  0  0  0  0  0  0
   51.5410  159.6430   30.4190 C   0  0  0  0  0  0  0  0  0  0  0  0
   52.3500  160.7540   30.6630 C   0  0  0  0  0  0  0  0  0  0  0  0
   51.9150  161.7550   31.5330 C   0  0  0  0  0  0  0  0  0  0  0  0
   50.6710  161.6480   32.1590 C   0  0  0  0  0  0  0  0  0  0  0  0
   49.8660  160.5390   31.9140 C   0  0  0  0  0  0  0  0  0  0  0  0
   48.6600  160.4980   32.5580 O   0  0  0  0  0  0  0  0  0  0  0  0
   50.3010  159.5370   31.0440 C   0  0  0  0  0  0  0  0  0  0  0  0
   49.4850  158.3560   30.7590 C   0  0  0  0  0  0  0  0  0  0  0  0
   48.3760  158.1920   31.2630 O   0  0  0  0  0  0  0  0  0  0  0  0
   50.0420  157.3460   29.8280 C   0  0  0  0  0  0  0  0  0  0  0  0
   49.2590  156.2400   29.5550 O   0  0  0  0  0  0  0  0  0  0  0  0
   51.8100  155.2450   28.5040 C   0  0  0  0  0  0  0  0  0  0  0  0
   52.4470  154.3560   27.6160 C   0  0  0  0  0  0  0  0  0  0  0  0
   52.2830  152.8680   27.8260 C   0  0  0  0  0  0  0  0  0  0  0  0
   51.5850  152.2520   26.8300 F   0  0  0  0  0  0  0  0  0  0  0  0
   51.6200  152.5570   28.9740 F   0  0  0  0  0  0  0  0  0  0  0  0
   54.4884  153.2386   26.1000 H   0  0  0  0  0  0  0  0  0  0  0  0
   53.1541  153.4747   24.9208 H   0  0  0  0  0  0  0  0  0  0  0  0
   54.5610  154.5916   24.9208 H   0  0  0  0  0  0  0  0  0  0  0  0
   53.8914  156.6850   25.5640 H   0  0  0  0  0  0  0  0  0  0  0  0
   52.7690  158.2224   27.1581 H   0  0  0  0  0  0  0  0  0  0  0  0
   53.3295  160.8406   30.1701 H   0  0  0  0  0  0  0  0  0  0  0  0
   52.5532  162.6299   31.7260 H   0  0  0  0  0  0  0  0  0  0  0  0
   50.3283  162.4378   32.8437 H   0  0  0  0  0  0  0  0  0  0  0  0
   48.2290  159.6760   32.6930 H   0  0  0  0  0  0  0  0  0  0  0  0
   48.3250  156.3150   29.5580 H   0  0  0  0  0  0  0  0  0  0  0  0
   51.2239  154.8381   29.3412 H   0  0  0  0  0  0  0  0  0  0  0  0
   53.3235  152.5126   27.8569 H   0  0  0  0  0  0  0  0  0  0  0  0
  1  2  1  0
  2  3  2  0
  3  4  1  0
  4  5  2  0
  5  6  1  0
  6  7  1  0
  7  8  1  0
  8  9  2  0
  9 10  1  0
 10 11  2  0
 11 12  1  0
 12 13  1  0
 12 14  2  0
 14 15  1  0
 15 16  2  0
 15 17  1  0
 17 18  1  0
  5 19  1  0
 19 20  2  0
 20 21  1  0
 21 22  1  0
 21 23  1  0
 20  2  1  0
 17  6  2  0
 14  8  1  0
  1 24  1  0
  1 25  1  0
  1 26  1  0
  3 27  1  0
  4 28  1  0
  9 29  1  0
 10 30  1  0
 11 31  1  0
 13 32  1  0
 18 33  1  0
 19 34  1  0
 21 35  1  0
M  END
>  <meeko>  (7) 
{"is_sidechain": [false], "free_energy": -8.49, "intermolecular_energy": -9.98, "internal_energy": -0.104}

$$$$
cand_014_out
     RDKit          3D

 35 37  0  0  0  0  0  0  0  0999 V2000
   50.9540  159.4000   30.7690 C   0  0  0  0  0  0  0  0  0  0  0  0
   51.3910  158.2970   29.8440 C   0  0  0  0  0  0  0  0  0  0  0  0
   52.6550  158.3770   29.2400 C   0  0  0  0  0  0  0  0  0  0  0  0
   53.0950  157.3800   28.3660 C   0  0  0  0  0  0  0  0  0  0  0  0
   52.2860  156.2770   28.0720 C   0  0  0  0  0  0  0  0  0  0  0  0
   52.7640  155.2440   27.1310 C   0  0  0  0  0  0  0  0  0  0  0  0
   52.3220  153.9680   27.4570 O   0  0  0  0  0  0  0  0  0  0  0  0
   52.6970  152.9140   26.6630 C   0  0  0  0  0  0  0  0  0  0  0  0
   52.2460  151.6470   27.0360 C   0  0  0  0  0  0  0  0  0  0  0  0
   52.5900  150.5320   26.2690 C   0  0  0  0  0  0  0  0  0  0  0  0
   53.3840  150.6820   25.1310 C   0  0  0  0  0  0  0  0  0  0  0  0
   53.8330  151.9470   24.7610 C   0  0  0  0  0  0  0  0  0  0  0  0
   54.6060  152.0240   23.6350 O   0  0  0  0  0  0  0  0  0  0  0  0
   53.4890  153.0630   25.5280 C   0  0  0  0  0  0  0  0  0  0  0  0
   53.9400  154.4100   25.1740 C   0  0  0  0  0  0  0  0  0  0  0  0
   54.6340  154.6260   24.1830 O   0  0  0  0  0  0  0  0  0  0  0  0
   53.5280  155.5250   26.0590 C   0  0  0  0  0  0  0  0  0  0  0  0
   53.9470  156.7950   25.7100 O   0  0  0  0  0  0  0  0  0  0  0  0
   51.0150  156.2090   28.6580 C   0  0  0  0  0  0  0  0  0  0  0  0
   50.5500  157.2080   29.5360 C   0  0  0  0  0  0  0  0  0  0  0  0
   49.1780  157.0590   30.1540 C   0  0  0  0  0  0  0  0  0  0  0  0
   48.4410  156.0510   29.6060 F   0  0  0  0  0  0  0  0  0  0  0  0
   48.4080  158.1760   30.0280 F   0  0  0  0  0  0  0  0  0  0  0  0
   51.0824  159.0760   31.8123 H   0  0  0  0  0  0  0  0  0  0  0  0
   51.5650  160.2961   30.5855 H   0  0  0  0  0  0  0  0  0  0  0  0
   49.8950  159.6344   30.5855 H   0  0  0  0  0  0  0  0  0  0  0  0
   53.3075  159.2354   29.4574 H   0  0  0  0  0  0  0  0  0  0  0  0
   54.0895  157.4631   27.9033 H   0  0  0  0  0  0  0  0  0  0  0  0
   51.6205  151.5269   27.9328 H   0  0  0  0  0  0  0  0  0  0  0  0
   52.2344  149.5332   26.5623 H   0  0  0  0  0  0  0  0  0  0  0  0
   53.6545  149.8028   24.5278 H   0  0  0  0  0  0  0  0  0  0  0  0
   54.5160  152.7540   23.0540 H   0  0  0  0  0  0  0  0  0  0  0  0
   54.2470  156.9670   24.8390 H   0  0  0  0  0  0  0  0  0  0  0  0
   50.3634  155.3535   28.4265 H   0  0  0  0  0  0  0  0  0  0  0  0
   49.4096  156.8498   31.2088 H   0  0  0  0  0  0  0  0  0  0  0  0
  1  2  1  0
  2  3  2  0
  3  4  1  0
  4  5  2  0
  5  6  1  0
  6  7  1  0
  7  8  1  0
  8  9  2  0
  9 10  1  0
 10 11  2  0
 11 12  1  0
 12 13  1  0
 12 14  2  0
 14 15  1  0
 15 16  2  0
 15 17  1  0
 17 18  1  0
  5 19  1  0
 19 20  2  0
 20 21  1  0
 21 22  1  0
 21 23  1  0
 20  2  1  0
 17  6  2  0
 14  8  1  0
  1 24  1  0
  1 25  1  0
  1 26  1  0
  3 27  1  0
  4 28  1  0
  9 29  1  0
 10 30  1  0
 11 31  1  0
 13 32  1  0
 18 33  1  0
 19 34  1  0
 21 35  1  0
M  END
>  <meeko>  (8) 
{"is_sidechain": [false], "free_energy": -7.95, "intermolecular_energy": -9.596, "internal_energy": 0.146}

$$$$
