cand_008_out
     RDKit          3D

 35 37  0  0  0  0  0  0  0  0999 V2000
   52.2800  152.6210   28.5750 O   0  0  0  0  0  0  0  0  0  0  0  0
   52.3780  153.7800   28.1790 C   0  0  0  0  0  0  0  0  0  0  0  0
   51.8950  154.9040   29.0140 C   0  0  0  0  0  0  0  0  0  0  0  0
   51.3250  154.5830   30.2340 O   0  0  0  0  0  0  0  0  0  0  0  0
   52.0200  156.1580   28.5410 C   0  0  0  0  0  0  0  0  0  0  0  0
   51.5620  157.3520   29.2820 C   0  0  0  0  0  0  0  0  0  0  0  0
   52.3750  158.4800   29.4350 C   0  0  0  0  0  0  0  0  0  0  0  0
   51.9140  159.6070   30.1210 C   0  0  0  0  0  0  0  0  0  0  0  0
   50.6220  159.6390   30.6690 C   0  0  0  0  0  0  0  0  0  0  0  0
   50.1500  160.8760   31.4010 C   0  0  0  0  0  0  0  0  0  0  0  0
   49.2960  161.6420   30.6640 F   0  0  0  0  0  0  0  0  0  0  0  0
   51.1820  161.7020   31.7320 F   0  0  0  0  0  0  0  0  0  0  0  0
   49.7790  158.5170   30.5020 C   0  0  0  0  0  0  0  0  0  0  0  0
   48.3770  158.4980   31.0690 C   0  0  0  0  0  0  0  0  0  0  0  0
   48.3500  158.8570   32.3840 F   0  0  0  0  0  0  0  0  0  0  0  0
   47.5340  159.3680   30.4420 F   0  0  0  0  0  0  0  0  0  0  0  0
   50.2650  157.3870   29.8160 C   0  0  0  0  0  0  0  0  0  0  0  0
   52.5680  156.4680   27.3020 O   0  0  0  0  0  0  0  0  0  0  0  0
   53.0310  155.4490   26.5090 C   0  0  0  0  0  0  0  0  0  0  0  0
   53.5840  155.8070   25.2780 C   0  0  0  0  0  0  0  0  0  0  0  0
   54.0730  154.8190   24.4220 C   0  0  0  0  0  0  0  0  0  0  0  0
   54.0100  153.4740   24.7950 C   0  0  0  0  0  0  0  0  0  0  0  0
   53.4570  153.1200   26.0230 C   0  0  0  0  0  0  0  0  0  0  0  0
   53.4250  151.7870   26.3250 O   0  0  0  0  0  0  0  0  0  0  0  0
   52.9680  154.1100   26.8810 C   0  0  0  0  0  0  0  0  0  0  0  0
   51.8490  154.2000   30.9080 H   0  0  0  0  0  0  0  0  0  0  0  0
   53.3896  158.4800   29.0102 H   0  0  0  0  0  0  0  0  0  0  0  0
   52.5726  160.4809   30.2331 H   0  0  0  0  0  0  0  0  0  0  0  0
   49.6446  160.4764   32.2925 H   0  0  0  0  0  0  0  0  0  0  0  0
   48.0481  157.4588   30.9212 H   0  0  0  0  0  0  0  0  0  0  0  0
   49.6116  156.5103   29.6959 H   0  0  0  0  0  0  0  0  0  0  0  0
   53.6342  156.8656   24.9834 H   0  0  0  0  0  0  0  0  0  0  0  0
   54.5088  155.0998   23.4518 H   0  0  0  0  0  0  0  0  0  0  0  0
   54.3965  152.6962   24.1199 H   0  0  0  0  0  0  0  0  0  0  0  0
   52.6320  151.3970   26.6350 H   0  0  0  0  0  0  0  0  0  0  0  0
  1  2  2  0
  2  3  1  0
  3  4  1  0
  3  5  2  0
  5  6  1  0
  6  7  2  0
  7  8  1  0
  8  9  2  0
  9 10  1  0
 10 11  1  0
 10 12  1  0
  9 13  1  0
 13 14  1  0
 14 15  1  0
 14 16  1  0
 13 17  2  0
  5 18  1  0
 18 19  1  0
 19 20  2  0
 20 21  1  0
 21 22  2  0
 22 23  1  0
 23 24  1  0
 23 25  2  0
 25  2  1  0
 17  6  1  0
 25 19  1  0
  4 26  1  0
  7 27  1  0
  8 28  1  0
 10 29  1  0
 14 30  1  0
 17 31  1  0
 20 32  1  0
 21 33  1  0
 22 34  1  0
 24 35  1  0
M  END
>  <meeko>  (1) 
{"is_sidechain": [false], "free_energy": -11.038, "intermolecular_energy": -13.62, "internal_energy": -0.186}

$$$$
cand_008_out
     RDKit          3D

 35 37  0  0  0  0  0  0  0  0999 V2000
   52.4640  153.0480   28.8260 O   0  0  0  0  0  0  0  0  0  0  0  0
   52.4160  154.2210   28.4630 C   0  0  0  0  0  0  0  0  0  0  0  0
   51.7260  155.2370   29.2920 C   0  0  0  0  0  0  0  0  0  0  0  0
   51.1380  154.7980   30.4660 O   0  0  0  0  0  0  0  0  0  0  0  0
   51.6950  156.5100   28.8570 C   0  0  0  0  0  0  0  0  0  0  0  0
   51.0260  157.6020   29.5960 C   0  0  0  0  0  0  0  0  0  0  0  0
   49.7160  157.4760   30.0690 C   0  0  0  0  0  0  0  0  0  0  0  0
   49.1090  158.5120   30.7840 C   0  0  0  0  0  0  0  0  0  0  0  0
   49.8010  159.7040   31.0500 C   0  0  0  0  0  0  0  0  0  0  0  0
   49.1190  160.8060   31.8310 C   0  0  0  0  0  0  0  0  0  0  0  0
   48.0910  160.3560   32.6070 F   0  0  0  0  0  0  0  0  0  0  0  0
   48.5700  161.7490   31.0150 F   0  0  0  0  0  0  0  0  0  0  0  0
   51.1340  159.8380   30.6010 C   0  0  0  0  0  0  0  0  0  0  0  0
   51.9270  161.0990   30.8630 C   0  0  0  0  0  0  0  0  0  0  0  0
   52.2920  161.2120   32.1720 F   0  0  0  0  0  0  0  0  0  0  0  0
   53.0940  161.1540   30.1600 F   0  0  0  0  0  0  0  0  0  0  0  0
   51.7250  158.7860   29.8740 C   0  0  0  0  0  0  0  0  0  0  0  0
   52.2640  156.9350   27.6630 O   0  0  0  0  0  0  0  0  0  0  0  0
   52.9160  156.0190   26.8760 C   0  0  0  0  0  0  0  0  0  0  0  0
   53.4830  156.4920   25.6920 C   0  0  0  0  0  0  0  0  0  0  0  0
   54.1600  155.6120   24.8450 C   0  0  0  0  0  0  0  0  0  0  0  0
   54.2710  154.2610   25.1820 C   0  0  0  0  0  0  0  0  0  0  0  0
   53.7040  153.7920   26.3640 C   0  0  0  0  0  0  0  0  0  0  0  0
   53.8480  152.4590   26.6330 O   0  0  0  0  0  0  0  0  0  0  0  0
   53.0270  154.6730   27.2130 C   0  0  0  0  0  0  0  0  0  0  0  0
   51.6030  154.2160   31.0330 H   0  0  0  0  0  0  0  0  0  0  0  0
   49.1560  156.5492   29.8757 H   0  0  0  0  0  0  0  0  0  0  0  0
   48.0761  158.3919   31.1428 H   0  0  0  0  0  0  0  0  0  0  0  0
   49.9238  161.2234   32.4540 H   0  0  0  0  0  0  0  0  0  0  0  0
   51.2462  161.9062   30.5550 H   0  0  0  0  0  0  0  0  0  0  0  0
   52.7592  158.8956   29.5158 H   0  0  0  0  0  0  0  0  0  0  0  0
   53.3969  157.5560   25.4263 H   0  0  0  0  0  0  0  0  0  0  0  0
   54.6066  155.9834   23.9109 H   0  0  0  0  0  0  0  0  0  0  0  0
   54.8054  153.5688   24.5147 H   0  0  0  0  0  0  0  0  0  0  0  0
   54.6090  152.0010   26.3330 H   0  0  0  0  0  0  0  0  0  0  0  0
  1  2  2  0
  2  3  1  0
  3  4  1  0
  3  5  2  0
  5  6  1  0
  6  7  2  0
  7  8  1  0
  8  9  2  0
  9 10  1  0
 10 11  1  0
 10 12  1  0
  9 13  1  0
 13 14  1  0
 14 15  1  0
 14 16  1  0
 13 17  2  0
  5 18  1  0
 18 19  1  0
 19 20  2  0
 20 21  1  0
 21 22  2  0
 22 23  1  0
 23 24  1  0
 23 25  2  0
 25  2  1  0
 17  6  1  0
 25 19  1  0
  4 26  1  0
  7 27  1  0
  8 28  1  0
 10 29  1  0
 14 30  1  0
 17 31  1  0
 20 32  1  0
 21 33  1  0
 22 34  1  0
 24 35  1  0
M  END
>  <meeko>  (2) 
{"is_sidechain": [false], "free_energy": -10.969, "intermolecular_energy": -13.32, "internal_energy": -0.4}

$$$$
cand_008_out
     RDKit          3D

 35 37  0  0  0  0  0  0  0  0999 V2000
   52.5610  160.6400   30.6320 O   0  0  0  0  0  0  0  0  0  0  0  0
   51.8110  159.6940   30.3950 C   0  0  0  0  0  0  0  0  0  0  0  0
   52.3060  158.5100   29.6560 C   0  0  0  0  0  0  0  0  0  0  0  0
   53.6270  158.5310   29.2430 O   0  0  0  0  0  0  0  0  0  0  0  0
   51.4530  157.4980   29.4170 C   0  0  0  0  0  0  0  0  0  0  0  0
   51.8330  156.2740   28.6800 C   0  0  0  0  0  0  0  0  0  0  0  0
   51.6040  154.9980   29.2030 C   0  0  0  0  0  0  0  0  0  0  0  0
   51.9510  153.8530   28.4810 C   0  0  0  0  0  0  0  0  0  0  0  0
   52.5350  153.9550   27.2080 C   0  0  0  0  0  0  0  0  0  0  0  0
   52.8960  152.6980   26.4480 C   0  0  0  0  0  0  0  0  0  0  0  0
   52.1680  151.6110   26.8330 F   0  0  0  0  0  0  0  0  0  0  0  0
   54.1990  152.3430   26.6310 F   0  0  0  0  0  0  0  0  0  0  0  0
   52.7520  155.2370   26.6540 C   0  0  0  0  0  0  0  0  0  0  0  0
   53.3740  155.4050   25.2860 C   0  0  0  0  0  0  0  0  0  0  0  0
   53.2410  156.6780   24.8160 F   0  0  0  0  0  0  0  0  0  0  0  0
   54.7140  155.1560   25.2720 F   0  0  0  0  0  0  0  0  0  0  0  0
   52.4030  156.3780   27.4010 C   0  0  0  0  0  0  0  0  0  0  0  0
   50.1200  157.4980   29.8120 O   0  0  0  0  0  0  0  0  0  0  0  0
   49.6340  158.5780   30.5040 C   0  0  0  0  0  0  0  0  0  0  0  0
   48.2940  158.5310   30.8910 C   0  0  0  0  0  0  0  0  0  0  0  0
   47.7360  159.5980   31.5970 C   0  0  0  0  0  0  0  0  0  0  0  0
   48.5170  160.7120   31.9170 C   0  0  0  0  0  0  0  0  0  0  0  0
   49.8530  160.7560   31.5290 C   0  0  0  0  0  0  0  0  0  0  0  0
   50.5590  161.8750   31.8730 O   0  0  0  0  0  0  0  0  0  0  0  0
   50.4120  159.6870   30.8220 C   0  0  0  0  0  0  0  0  0  0  0  0
   54.2070  159.1910   29.5660 H   0  0  0  0  0  0  0  0  0  0  0  0
   51.1442  154.8938   30.1968 H   0  0  0  0  0  0  0  0  0  0  0  0
   51.7644  152.8597   28.9151 H   0  0  0  0  0  0  0  0  0  0  0  0
   52.6865  152.9564   25.3995 H   0  0  0  0  0  0  0  0  0  0  0  0
   52.8349  154.6777   24.6611 H   0  0  0  0  0  0  0  0  0  0  0  0
   52.5812  157.3753   26.9723 H   0  0  0  0  0  0  0  0  0  0  0  0
   47.6785  157.6545   30.6401 H   0  0  0  0  0  0  0  0  0  0  0  0
   46.6798  159.5620   31.9020 H   0  0  0  0  0  0  0  0  0  0  0  0
   48.0769  161.5521   32.4742 H   0  0  0  0  0  0  0  0  0  0  0  0
   51.2500  161.8170   32.5030 H   0  0  0  0  0  0  0  0  0  0  0  0
  1  2  2  0
  2  3  1  0
  3  4  1  0
  3  5  2  0
  5  6  1  0
  6  7  2  0
  7  8  1  0
  8  9  2  0
  9 10  1  0
 10 11  1  0
 10 12  1  0
  9 13  1  0
 13 14  1  0
 14 15  1  0
 14 16  1  0
 13 17  2  0
  5 18  1  0
 18 19  1  0
 19 20  2  0
 20 21  1  0
 21 22  2  0
 22 23  1  0
 23 24  1  0
 23 25  2  0
 25  2  1  0
 17  6  1  0
 25 19  1  0
  4 26  1  0
  7 27  1  0
  8 28  1  0
 10 29  1  0
 14 30  1  0
 17 31  1  0
 20 32  1  0
 21 33  1  0
 22 34  1  0
 24 35  1  0
M  END
>  <meeko>  (3) 
{"is_sidechain": [false], "free_energy": -10.851, "intermolecular_energy": -13.109, "internal_energy": -0.466}

$$$$
cand_008_out
     RDKit          3D

 35 37  0  0  0  0  0  0  0  0999 V2000
   48.1440  158.5200   31.0470 O   0  0  0  0  0  0  0  0  0  0  0  0
   49.3030  158.4660   30.6420 C   0  0  0  0  0  0  0  0  0  0  0  0
   49.7850  157.2800   29.8970 C   0  0  0  0  0  0  0  0  0  0  0  0
   48.8810  156.2510   29.6990 O   0  0  0  0  0  0  0  0  0  0  0  0
   51.0620  157.2600   29.4730 C   0  0  0  0  0  0  0  0  0  0  0  0
   51.6520  156.1260   28.7320 C   0  0  0  0  0  0  0  0  0  0  0  0
   51.4960  154.8040   29.1630 C   0  0  0  0  0  0  0  0  0  0  0  0
   52.0440  153.7440   28.4360 C   0  0  0  0  0  0  0  0  0  0  0  0
   52.7600  153.9770   27.2510 C   0  0  0  0  0  0  0  0  0  0  0  0
   53.3370  152.8090   26.4840 C   0  0  0  0  0  0  0  0  0  0  0  0
   52.5700  151.6840   26.5620 F   0  0  0  0  0  0  0  0  0  0  0  0
   54.5630  152.4420   26.9510 F   0  0  0  0  0  0  0  0  0  0  0  0
   52.9060  155.3040   26.7890 C   0  0  0  0  0  0  0  0  0  0  0  0
   53.6640  155.6130   25.5170 C   0  0  0  0  0  0  0  0  0  0  0  0
   52.8930  155.4390   24.4060 F   0  0  0  0  0  0  0  0  0  0  0  0
   54.0990  156.9040   25.4530 F   0  0  0  0  0  0  0  0  0  0  0  0
   52.3540  156.3600   27.5400 C   0  0  0  0  0  0  0  0  0  0  0  0
   51.9700  158.2870   29.7020 O   0  0  0  0  0  0  0  0  0  0  0  0
   51.5520  159.4020   30.3840 C   0  0  0  0  0  0  0  0  0  0  0  0
   52.4940  160.4140   30.5810 C   0  0  0  0  0  0  0  0  0  0  0  0
   52.1340  161.5750   31.2670 C   0  0  0  0  0  0  0  0  0  0  0  0
   50.8340  161.7250   31.7560 C   0  0  0  0  0  0  0  0  0  0  0  0
   49.8970  160.7150   31.5580 C   0  0  0  0  0  0  0  0  0  0  0  0
   48.6440  160.9260   32.0630 O   0  0  0  0  0  0  0  0  0  0  0  0
   50.2570  159.5520   30.8700 C   0  0  0  0  0  0  0  0  0  0  0  0
   48.5610  155.7620   30.4300 H   0  0  0  0  0  0  0  0  0  0  0  0
   50.9347  154.5965   30.0860 H   0  0  0  0  0  0  0  0  0  0  0  0
   51.9127  152.7132   28.7969 H   0  0  0  0  0  0  0  0  0  0  0  0
   53.3874  153.1762   25.4483 H   0  0  0  0  0  0  0  0  0  0  0  0
   54.5135  154.9146   25.5407 H   0  0  0  0  0  0  0  0  0  0  0  0
   52.4763  157.3933   27.1833 H   0  0  0  0  0  0  0  0  0  0  0  0
   53.5178  160.2963   30.1962 H   0  0  0  0  0  0  0  0  0  0  0  0
   52.8749  162.3730   31.4228 H   0  0  0  0  0  0  0  0  0  0  0  0
   50.5513  162.6402   32.2968 H   0  0  0  0  0  0  0  0  0  0  0  0
   47.8950  160.5820   31.6170 H   0  0  0  0  0  0  0  0  0  0  0  0
  1  2  2  0
  2  3  1  0
  3  4  1  0
  3  5  2  0
  5  6  1  0
  6  7  2  0
  7  8  1  0
  8  9  2  0
  9 10  1  0
 10 11  1  0
 10 12  1  0
  9 13  1  0
 13 14  1  0
 14 15  1  0
 14 16  1  0
 13 17  2  0
  5 18  1  0
 18 19  1  0
 19 20  2  0
 20 21  1  0
 21 22  2  0
 22 23  1  0
 23 24  1  0
 23 25  2  0
 25  2  1  0
 17  6  1  0
 25 19  1  0
  4 26  1  0
  7 27  1  0
  8 28  1  0
 10 29  1  0
 14 30  1  0
 17 31  1  0
 20 32  1  0
 21 33  1  0
 22 34  1  0
 24 35  1  0
M  END
>  <meeko>  (4) 
{"is_sidechain": [false], "free_energy": -9.552, "intermolecular_energy": -11.573, "internal_energy": -0.398}

$$$$
cand_008_out
     RDKit          3D

 35 37  0  0  0  0  0  0  0  0999 V2000
   52.2980  161.2550   31.3420 O   0  0  0  0  0  0  0  0  0  0  0  0
   51.6200  160.3110   30.9400 C   0  0  0  0  0  0  0  0  0  0  0  0
   52.2150  159.2810   30.0570 C   0  0  0  0  0  0  0  0  0  0  0  0
   53.5440  159.4440   29.7050 O   0  0  0  0  0  0  0  0  0  0  0  0
   51.4380  158.2660   29.6380 C   0  0  0  0  0  0  0  0  0  0  0  0
   51.9220  157.1900   28.7460 C   0  0  0  0  0  0  0  0  0  0  0  0
   52.5210  157.4690   27.5140 C   0  0  0  0  0  0  0  0  0  0  0  0
   52.9910  156.4390   26.6960 C   0  0  0  0  0  0  0  0  0  0  0  0
   52.8790  155.0960   27.0920 C   0  0  0  0  0  0  0  0  0  0  0  0
   53.4020  154.0030   26.1880 C   0  0  0  0  0  0  0  0  0  0  0  0
   54.4150  154.4190   25.3750 F   0  0  0  0  0  0  0  0  0  0  0  0
   52.4390  153.5260   25.3490 F   0  0  0  0  0  0  0  0  0  0  0  0
   52.2990  154.7980   28.3460 C   0  0  0  0  0  0  0  0  0  0  0  0
   52.1570  153.3710   28.8250 C   0  0  0  0  0  0  0  0  0  0  0  0
   51.5020  153.2940   30.0190 F   0  0  0  0  0  0  0  0  0  0  0  0
   51.4390  152.5870   27.9710 F   0  0  0  0  0  0  0  0  0  0  0  0
   51.8230  155.8500   29.1520 C   0  0  0  0  0  0  0  0  0  0  0  0
   50.0970  158.1270   29.9740 O   0  0  0  0  0  0  0  0  0  0  0  0
   49.5190  159.0610   30.7960 C   0  0  0  0  0  0  0  0  0  0  0  0
   48.1730  158.8750   31.1170 C   0  0  0  0  0  0  0  0  0  0  0  0
   47.5240  159.7900   31.9490 C   0  0  0  0  0  0  0  0  0  0  0  0
   48.2200  160.8890   32.4590 C   0  0  0  0  0  0  0  0  0  0  0  0
   49.5620  161.0720   32.1360 C   0  0  0  0  0  0  0  0  0  0  0  0
   50.1810  162.1680   32.6680 O   0  0  0  0  0  0  0  0  0  0  0  0
   50.2120  160.1550   31.3040 C   0  0  0  0  0  0  0  0  0  0  0  0
   53.7910  160.1280   29.1150 H   0  0  0  0  0  0  0  0  0  0  0  0
   52.6235  158.5135   27.1845 H   0  0  0  0  0  0  0  0  0  0  0  0
   53.4550  156.6828   25.7289 H   0  0  0  0  0  0  0  0  0  0  0  0
   53.7547  153.2303   26.8870 H   0  0  0  0  0  0  0  0  0  0  0  0
   53.1952  153.0156   28.9020 H   0  0  0  0  0  0  0  0  0  0  0  0
   51.3625  155.6160   30.1232 H   0  0  0  0  0  0  0  0  0  0  0  0
   47.6250  158.0098   30.7156 H   0  0  0  0  0  0  0  0  0  0  0  0
   46.4636  159.6453   32.2031 H   0  0  0  0  0  0  0  0  0  0  0  0
   47.7084  161.6088   33.1149 H   0  0  0  0  0  0  0  0  0  0  0  0
   51.0090  162.0760   33.0980 H   0  0  0  0  0  0  0  0  0  0  0  0
  1  2  2  0
  2  3  1  0
  3  4  1  0
  3  5  2  0
  5  6  1  0
  6  7  2  0
  7  8  1  0
  8  9  2  0
  9 10  1  0
 10 11  1  0
 10 12  1  0
  9 13  1  0
 13 14  1  0
 14 15  1  0
 14 16  1  0
 13 17  2  0
  5 18  1  0
 18 19  1  0
 19 20  2  0
 20 21  1  0
 21 22  2  0
 22 23  1  0
 23 24  1  0
 23 25  2  0
 25  2  1  0
 17  6  1  0
 25 19  1  0
  4 26  1  0
  7 27  1  0
  8 28  1  0
 10 29  1  0
 14 30  1  0
 17 31  1  0
 20 32  1  0
 21 33  1  0
 22 34  1  0
 24 35  1  0
M  END
>  <meeko>  (5) 
{"is_sidechain": [false], "free_energy": -9.341, "intermolecular_energy": -11.324, "internal_energy": -0.388}

$$$$
cand_008_out
     RDKit          3D

 35 37  0  0  0  0  0  0  0  0999 V2000
   48.5110  158.1190   31.1630 O   0  0  0  0  0  0  0  0  0  0  0  0
   49.6090  158.3020   30.6420 C   0  0  0  0  0  0  0  0  0  0  0  0
   50.1640  157.3100   29.6920 C   0  0  0  0  0  0  0  0  0  0  0  0
   49.4020  156.1830   29.4410 O   0  0  0  0  0  0  0  0  0  0  0  0
   51.3710  157.5480   29.1450 C   0  0  0  0  0  0  0  0  0  0  0  0
   52.0260  156.6230   28.1970 C   0  0  0  0  0  0  0  0  0  0  0  0
   52.8340  157.0890   27.1540 C   0  0  0  0  0  0  0  0  0  0  0  0
   53.4620  156.1970   26.2810 C   0  0  0  0  0  0  0  0  0  0  0  0
   53.3040  154.8100   26.4310 C   0  0  0  0  0  0  0  0  0  0  0  0
   54.0010  153.8690   25.4740 C   0  0  0  0  0  0  0  0  0  0  0  0
   55.0620  154.4430   24.8360 F   0  0  0  0  0  0  0  0  0  0  0  0
   53.1730  153.4390   24.4810 F   0  0  0  0  0  0  0  0  0  0  0  0
   52.5120  154.3220   27.4950 C   0  0  0  0  0  0  0  0  0  0  0  0
   52.3100  152.8380   27.7070 C   0  0  0  0  0  0  0  0  0  0  0  0
   51.6390  152.5720   28.8630 F   0  0  0  0  0  0  0  0  0  0  0  0
   51.5730  152.2510   26.7210 F   0  0  0  0  0  0  0  0  0  0  0  0
   51.8790  155.2370   28.3580 C   0  0  0  0  0  0  0  0  0  0  0  0
   52.1410  158.6700   29.4260 O   0  0  0  0  0  0  0  0  0  0  0  0
   51.6500  159.6100   30.2970 C   0  0  0  0  0  0  0  0  0  0  0  0
   52.4520  160.7270   30.5400 C   0  0  0  0  0  0  0  0  0  0  0  0
   52.0120  161.7200   31.4170 C   0  0  0  0  0  0  0  0  0  0  0  0
   50.7720  161.5990   32.0490 C   0  0  0  0  0  0  0  0  0  0  0  0
   49.9750  160.4850   31.8040 C   0  0  0  0  0  0  0  0  0  0  0  0
   48.7740  160.4280   32.4550 O   0  0  0  0  0  0  0  0  0  0  0  0
   50.4150  159.4890   30.9260 C   0  0  0  0  0  0  0  0  0  0  0  0
   49.0430  156.0410   28.5880 H   0  0  0  0  0  0  0  0  0  0  0  0
   52.9766  158.1714   27.0196 H   0  0  0  0  0  0  0  0  0  0  0  0
   54.0886  156.5867   25.4652 H   0  0  0  0  0  0  0  0  0  0  0  0
   54.3328  153.0400   26.1164 H   0  0  0  0  0  0  0  0  0  0  0  0
   53.3328  152.4336   27.7240 H   0  0  0  0  0  0  0  0  0  0  0  0
   51.2537  154.8557   29.1788 H   0  0  0  0  0  0  0  0  0  0  0  0
   53.4278  160.8242   30.0417 H   0  0  0  0  0  0  0  0  0  0  0  0
   52.6431  162.5998   31.6109 H   0  0  0  0  0  0  0  0  0  0  0  0
   50.4263  162.3829   32.7390 H   0  0  0  0  0  0  0  0  0  0  0  0
   48.6210  160.9740   33.2010 H   0  0  0  0  0  0  0  0  0  0  0  0
  1  2  2  0
  2  3  1  0
  3  4  1  0
  3  5  2  0
  5  6  1  0
  6  7  2  0
  7  8  1  0
  8  9  2  0
  9 10  1  0
 10 11  1  0
 10 12  1  0
  9 13  1  0
 13 14  1  0
 14 15  1  0
 14 16  1  0
 13 17  2  0
  5 18  1  0
 18 19  1  0
 19 20  2  0
 20 21  1  0
 21 22  2  0
 22 23  1  0
 23 24  1  0
 23 25  2  0
 25  2  1  0
 17  6  1  0
 25 19  1  0
  4 26  1  0
  7 27  1  0
  8 28  1  0
 10 29  1  0
 14 30  1  0
 17 31  1  0
 20 32  1  0
 21 33  1  0
 22 34  1  0
 24 35  1  0
M  END
>  <meeko>  (6) 
{"is_sidechain": [false], "free_energy": -8.946, "intermolecular_energy": -11.015, "internal_energy": -0.209}

$$$$
cand_008_out
     RDKit          3D

 35 37  0  0  0  0  0  0  0  0999 V2000
   54.5970  155.2820   25.1760 O   0  0  0  0  0  0  0  0  0  0  0  0
   53.7190  154.9020   25.9470 C   0  0  0  0  0  0  0  0  0  0  0  0
   53.0140  155.8710   26.8190 C   0  0  0  0  0  0  0  0  0  0  0  0
   53.4030  157.1970   26.7300 O   0  0  0  0  0  0  0  0  0  0  0  0
   52.0600  155.4140   27.6500 C   0  0  0  0  0  0  0  0  0  0  0  0
   51.3030  156.2870   28.5720 C   0  0  0  0  0  0  0  0  0  0  0  0
   50.1110  155.8670   29.1710 C   0  0  0  0  0  0  0  0  0  0  0  0
   49.4220  156.6990   30.0570 C   0  0  0  0  0  0  0  0  0  0  0  0
   49.9100  157.9780   30.3720 C   0  0  0  0  0  0  0  0  0  0  0  0
   49.1440  158.8540   31.3380 C   0  0  0  0  0  0  0  0  0  0  0  0
   48.4860  158.1450   32.2990 F   0  0  0  0  0  0  0  0  0  0  0  0
   48.1840  159.5910   30.7120 F   0  0  0  0  0  0  0  0  0  0  0  0
   51.1260  158.4080   29.7940 C   0  0  0  0  0  0  0  0  0  0  0  0
   51.7000  159.7730   30.1010 C   0  0  0  0  0  0  0  0  0  0  0  0
   50.8750  160.7800   29.6960 F   0  0  0  0  0  0  0  0  0  0  0  0
   51.8970  159.9850   31.4330 F   0  0  0  0  0  0  0  0  0  0  0  0
   51.8010  157.5580   28.8970 C   0  0  0  0  0  0  0  0  0  0  0  0
   51.6970  154.0760   27.7520 O   0  0  0  0  0  0  0  0  0  0  0  0
   52.3260  153.1560   26.9520 C   0  0  0  0  0  0  0  0  0  0  0  0
   51.9220  151.8260   27.0790 C   0  0  0  0  0  0  0  0  0  0  0  0
   52.5230  150.8390   26.2960 C   0  0  0  0  0  0  0  0  0  0  0  0
   53.5260  151.1810   25.3860 C   0  0  0  0  0  0  0  0  0  0  0  0
   53.9270  152.5080   25.2610 C   0  0  0  0  0  0  0  0  0  0  0  0
   54.9140  152.7730   24.3530 O   0  0  0  0  0  0  0  0  0  0  0  0
   53.3250  153.4970   26.0460 C   0  0  0  0  0  0  0  0  0  0  0  0
   54.1230  157.4370   26.1830 H   0  0  0  0  0  0  0  0  0  0  0  0
   49.7107  154.8685   28.9415 H   0  0  0  0  0  0  0  0  0  0  0  0
   48.4850  156.3479   30.5139 H   0  0  0  0  0  0  0  0  0  0  0  0
   49.9205  159.4910   31.7867 H   0  0  0  0  0  0  0  0  0  0  0  0
   52.6565  159.7826   29.5578 H   0  0  0  0  0  0  0  0  0  0  0  0
   52.7417  157.8987   28.4398 H   0  0  0  0  0  0  0  0  0  0  0  0
   51.1315  151.5562   27.7948 H   0  0  0  0  0  0  0  0  0  0  0  0
   52.2063  149.7903   26.3957 H   0  0  0  0  0  0  0  0  0  0  0  0
   53.9984  150.4025   24.7689 H   0  0  0  0  0  0  0  0  0  0  0  0
   54.7080  152.8270   23.4410 H   0  0  0  0  0  0  0  0  0  0  0  0
  1  2  2  0
  2  3  1  0
  3  4  1  0
  3  5  2  0
  5  6  1  0
  6  7  2  0
  7  8  1  0
  8  9  2  0
  9 10  1  0
 10 11  1  0
 10 12  1  0
  9 13  1  0
 13 14  1  0
 14 15  1  0
 14 16  1  0
 13 17  2  0
  5 18  1  0
 18 19  1  0
 19 20  2  0
 20 21  1  0
 21 22  2  0
 22 23  1  0
 23 24  1  0
 23 25  2  0
 25  2  1  0
 17  6  1  0
 25 19  1  0
  4 26  1  0
  7 27  1  0
  8 28  1  0
 10 29  1  0
 14 30  1  0
 17 31  1  0
 20 32  1  0
 21 33  1  0
 22 34  1  0
 24 35  1  0
M  END
>  <meeko>  (7) 
{"is_sidechain": [false], "free_energy": -8.225, "intermolecular_energy": -10.484, "internal_energy": 0.15}

$$$$
cand_008_out
     RDKit          3D

 35 37  0  0  0  0  0  0  0  0999 V2000
   54.0170  154.6560   24.9120 O   0  0  0  0  0  0  0  0  0  0  0  0
   53.3390  154.5730   25.9340 C   0  0  0  0  0  0  0  0  0  0  0  0
   53.0070  155.7880   26.7150 C   0  0  0  0  0  0  0  0  0  0  0  0
   53.5050  156.9920   26.2490 O   0  0  0  0  0  0  0  0  0  0  0  0
   52.2640  155.6530   27.8290 C   0  0  0  0  0  0  0  0  0  0  0  0
   51.8840  156.7920   28.6910 C   0  0  0  0  0  0  0  0  0  0  0  0
   52.7660  157.8450   28.9520 C   0  0  0  0  0  0  0  0  0  0  0  0
   52.3790  158.9230   29.7520 C   0  0  0  0  0  0  0  0  0  0  0  0
   51.0920  158.9800   30.3110 C   0  0  0  0  0  0  0  0  0  0  0  0
   50.7010  160.1620   31.1690 C   0  0  0  0  0  0  0  0  0  0  0  0
   49.9710  161.0970   30.4930 F   0  0  0  0  0  0  0  0  0  0  0  0
   51.7870  160.8300   31.6490 F   0  0  0  0  0  0  0  0  0  0  0  0
   50.1800  157.9360   30.0370 C   0  0  0  0  0  0  0  0  0  0  0  0
   48.7800  157.9470   30.6090 C   0  0  0  0  0  0  0  0  0  0  0  0
   48.7490  158.4450   31.8780 F   0  0  0  0  0  0  0  0  0  0  0  0
   47.9160  158.7260   29.8970 F   0  0  0  0  0  0  0  0  0  0  0  0
   50.5920  156.8540   29.2360 C   0  0  0  0  0  0  0  0  0  0  0  0
   51.7940  154.4350   28.3040 O   0  0  0  0  0  0  0  0  0  0  0  0
   52.0790  153.2930   27.5980 C   0  0  0  0  0  0  0  0  0  0  0  0
   51.5760  152.0940   28.1060 C   0  0  0  0  0  0  0  0  0  0  0  0
   51.8300  150.8950   27.4370 C   0  0  0  0  0  0  0  0  0  0  0  0
   52.5860  150.8950   26.2610 C   0  0  0  0  0  0  0  0  0  0  0  0
   53.0860  152.0930   25.7580 C   0  0  0  0  0  0  0  0  0  0  0  0
   53.8180  152.0210   24.6060 O   0  0  0  0  0  0  0  0  0  0  0  0
   52.8310  153.2930   26.4280 C   0  0  0  0  0  0  0  0  0  0  0  0
   54.0620  157.5100   26.7940 H   0  0  0  0  0  0  0  0  0  0  0  0
   53.7781  157.8244   28.5217 H   0  0  0  0  0  0  0  0  0  0  0  0
   53.0918  159.7379   29.9466 H   0  0  0  0  0  0  0  0  0  0  0  0
   50.1069  159.7134   31.9788 H   0  0  0  0  0  0  0  0  0  0  0  0
   48.4737  156.8911   30.5744 H   0  0  0  0  0  0  0  0  0  0  0  0
   49.8840  156.0372   29.0323 H   0  0  0  0  0  0  0  0  0  0  0  0
   50.9809  152.0937   29.0312 H   0  0  0  0  0  0  0  0  0  0  0  0
   51.4347  149.9491   27.8358 H   0  0  0  0  0  0  0  0  0  0  0  0
   52.7854  149.9502   25.7341 H   0  0  0  0  0  0  0  0  0  0  0  0
   54.3040  151.2450   24.4080 H   0  0  0  0  0  0  0  0  0  0  0  0
  1  2  2  0
  2  3  1  0
  3  4  1  0
  3  5  2  0
  5  6  1  0
  6  7  2  0
  7  8  1  0
  8  9  2  0
  9 10  1  0
 10 11  1  0
 10 12  1  0
  9 13  1  0
 13 14  1  0
 14 15  1  0
 14 16  1  0
 13 17  2  0
  5 18  1  0
 18 19  1  0
 19 20  2  0
 20 21  1  0
 21 22  2  0
 22 23  1  0
 23 24  1  0
 23 25  2  0
 25  2  1  0
 17  6  1  0
 25 19  1  0
  4 26  1  0
  7 27  1  0
  8 28  1  0
 10 29  1  0
 14 30  1  0
 17 31  1  0
 20 32  1  0
 21 33  1  0
 22 34  1  0
 24 35  1  0
M  END
>  <meeko>  (8) 
{"is_sidechain": [false], "free_energy": -8.184, "intermolecular_energy": -10.29, "internal_energy": 0.007}

$$$$
