cand_031_out
     RDKit          3D

 36 38  0  0  0  0  0  0  0  0999 V2000
   47.3390  159.5960   30.9750 C   0  0  0  0  0  0  0  0  0  0  0  0
   48.3650  158.8520   31.4070 C   0  0  0  0  0  0  0  0  0  0  0  0
   49.7080  158.8990   30.8090 C   0  0  0  0  0  0  0  0  0  0  0  0
   50.1950  157.7790   30.1100 C   0  0  0  0  0  0  0  0  0  0  0  0
   51.4820  157.7630   29.5530 C   0  0  0  0  0  0  0  0  0  0  0  0
   51.9420  156.5750   28.8010 C   0  0  0  0  0  0  0  0  0  0  0  0
   52.5060  156.9000   27.5730 O   0  0  0  0  0  0  0  0  0  0  0  0
   52.9740  155.8920   26.7690 C   0  0  0  0  0  0  0  0  0  0  0  0
   53.5440  156.2630   25.5510 C   0  0  0  0  0  0  0  0  0  0  0  0
   54.0390  155.2850   24.6860 C   0  0  0  0  0  0  0  0  0  0  0  0
   53.9620  153.9360   25.0380 C   0  0  0  0  0  0  0  0  0  0  0  0
   53.3920  153.5680   26.2540 C   0  0  0  0  0  0  0  0  0  0  0  0
   53.3490  152.2290   26.5340 O   0  0  0  0  0  0  0  0  0  0  0  0
   52.8980  154.5470   27.1190 C   0  0  0  0  0  0  0  0  0  0  0  0
   52.2920  154.2020   28.4060 C   0  0  0  0  0  0  0  0  0  0  0  0
   52.1820  153.0370   28.7830 O   0  0  0  0  0  0  0  0  0  0  0  0
   51.8050  155.3150   29.2530 C   0  0  0  0  0  0  0  0  0  0  0  0
   51.2210  154.9780   30.4600 O   0  0  0  0  0  0  0  0  0  0  0  0
   52.2850  158.8980   29.6990 C   0  0  0  0  0  0  0  0  0  0  0  0
   51.8200  160.0140   30.3980 C   0  0  0  0  0  0  0  0  0  0  0  0
   50.5340  160.0300   30.9590 C   0  0  0  0  0  0  0  0  0  0  0  0
   50.0780  161.2540   31.7070 C   0  0  0  0  0  0  0  0  0  0  0  0
   46.3571  159.5159   31.4643 H   0  0  0  0  0  0  0  0  0  0  0  0
   47.4780  160.2873   30.1308 H   0  0  0  0  0  0  0  0  0  0  0  0
   48.1947  158.1701   32.2532 H   0  0  0  0  0  0  0  0  0  0  0  0
   49.5506  156.8946   29.9977 H   0  0  0  0  0  0  0  0  0  0  0  0
   53.6035  157.3254   25.2722 H   0  0  0  0  0  0  0  0  0  0  0  0
   54.4901  155.5776   23.7263 H   0  0  0  0  0  0  0  0  0  0  0  0
   54.3509  153.1655   24.3560 H   0  0  0  0  0  0  0  0  0  0  0  0
   53.3150  151.6040   25.8370 H   0  0  0  0  0  0  0  0  0  0  0  0
   51.7120  154.5020   31.1010 H   0  0  0  0  0  0  0  0  0  0  0  0
   53.2931  158.9122   29.2590 H   0  0  0  0  0  0  0  0  0  0  0  0
   52.4714  160.8933   30.5104 H   0  0  0  0  0  0  0  0  0  0  0  0
   50.1468  161.0692   32.7892 H   0  0  0  0  0  0  0  0  0  0  0  0
   50.7186  162.1072   31.4392 H   0  0  0  0  0  0  0  0  0  0  0  0
   49.0353  161.4801   31.4392 H   0  0  0  0  0  0  0  0  0  0  0  0
  1  2  2  0
  2  3  1  0
  3  4  2  0
  4  5  1  0
  5  6  1  0
  6  7  1  0
  7  8  1  0
  8  9  2  0
  9 10  1  0
 10 11  2  0
 11 12  1  0
 12 13  1  0
 12 14  2  0
 14 15  1  0
 15 16  2  0
 15 17  1  0
 17 18  1  0
  5 19  2  0
 19 20  1  0
 20 21  2  0
 21 22  1  0
 21  3  1  0
 17  6  2  0
 14  8  1  0
  1 23  1  0
  1 24  1  0
  2 25  1  0
  4 26  1  0
  9 27  1  0
 10 28  1  0
 11 29  1  0
 13 30  1  0
 18 31  1  0
 19 32  1  0
 20 33  1  0
 22 34  1  0
 22 35  1  0
 22 36  1  0
M  END
>  <meeko>  (1) 
{"is_sidechain": [false], "free_energy": -10.767, "intermolecular_energy": -12.656, "internal_energy": 0.084}

$$$$
cand_031_out
     RDKit          3D

 36 38  0  0  0  0  0  0  0  0999 V2000
   54.0670  156.4010   25.0530 C   0  0  0  0  0  0  0  0  0  0  0  0
   53.4690  155.2750   25.4600 C   0  0  0  0  0  0  0  0  0  0  0  0
   52.7840  155.1440   26.7550 C   0  0  0  0  0  0  0  0  0  0  0  0
   52.4300  156.3030   27.4710 C   0  0  0  0  0  0  0  0  0  0  0  0
   51.8070  156.2300   28.7260 C   0  0  0  0  0  0  0  0  0  0  0  0
   51.4260  157.4740   29.4300 C   0  0  0  0  0  0  0  0  0  0  0  0
   50.0930  157.4820   29.8270 O   0  0  0  0  0  0  0  0  0  0  0  0
   49.6050  158.5780   30.4910 C   0  0  0  0  0  0  0  0  0  0  0  0
   48.2660  158.5380   30.8830 C   0  0  0  0  0  0  0  0  0  0  0  0
   47.7060  159.6230   31.5610 C   0  0  0  0  0  0  0  0  0  0  0  0
   48.4840  160.7460   31.8470 C   0  0  0  0  0  0  0  0  0  0  0  0
   49.8190  160.7840   31.4550 C   0  0  0  0  0  0  0  0  0  0  0  0
   50.5220  161.9160   31.7670 O   0  0  0  0  0  0  0  0  0  0  0  0
   50.3790  159.6980   30.7760 C   0  0  0  0  0  0  0  0  0  0  0  0
   51.7790  159.6970   30.3470 C   0  0  0  0  0  0  0  0  0  0  0  0
   52.5250  160.6520   30.5550 O   0  0  0  0  0  0  0  0  0  0  0  0
   52.2770  158.4950   29.6410 C   0  0  0  0  0  0  0  0  0  0  0  0
   53.5960  158.5100   29.2260 O   0  0  0  0  0  0  0  0  0  0  0  0
   51.5320  154.9680   29.2600 C   0  0  0  0  0  0  0  0  0  0  0  0
   51.8860  153.8090   28.5670 C   0  0  0  0  0  0  0  0  0  0  0  0
   52.5130  153.8800   27.3140 C   0  0  0  0  0  0  0  0  0  0  0  0
   52.8780  152.6030   26.6050 C   0  0  0  0  0  0  0  0  0  0  0  0
   54.5634  156.4365   24.0720 H   0  0  0  0  0  0  0  0  0  0  0  0
   54.0621  157.2910   25.6995 H   0  0  0  0  0  0  0  0  0  0  0  0
   53.4909  154.4020   24.7912 H   0  0  0  0  0  0  0  0  0  0  0  0
   52.6470  157.2898   27.0361 H   0  0  0  0  0  0  0  0  0  0  0  0
   47.6526  157.6530   30.6582 H   0  0  0  0  0  0  0  0  0  0  0  0
   46.6507  159.5925   31.8699 H   0  0  0  0  0  0  0  0  0  0  0  0
   48.0426  161.6000   32.3816 H   0  0  0  0  0  0  0  0  0  0  0  0
   50.4230  162.6880   31.2460 H   0  0  0  0  0  0  0  0  0  0  0  0
   53.8890  159.1620   28.6210 H   0  0  0  0  0  0  0  0  0  0  0  0
   51.0316  154.8872   30.2362 H   0  0  0  0  0  0  0  0  0  0  0  0
   51.6701  152.8255   29.0099 H   0  0  0  0  0  0  0  0  0  0  0  0
   53.1011  151.8224   27.3472 H   0  0  0  0  0  0  0  0  0  0  0  0
   52.0362  152.2800   25.9749 H   0  0  0  0  0  0  0  0  0  0  0  0
   53.7633  152.7736   25.9749 H   0  0  0  0  0  0  0  0  0  0  0  0
  1  2  2  0
  2  3  1  0
  3  4  2  0
  4  5  1  0
  5  6  1  0
  6  7  1  0
  7  8  1  0
  8  9  2  0
  9 10  1  0
 10 11  2  0
 11 12  1  0
 12 13  1  0
 12 14  2  0
 14 15  1  0
 15 16  2  0
 15 17  1  0
 17 18  1  0
  5 19  2  0
 19 20  1  0
 20 21  2  0
 21 22  1  0
 21  3  1  0
 17  6  2  0
 14  8  1  0
  1 23  1  0
  1 24  1  0
  2 25  1  0
  4 26  1  0
  9 27  1  0
 10 28  1  0
 11 29  1  0
 13 30  1  0
 18 31  1  0
 19 32  1  0
 20 33  1  0
 22 34  1  0
 22 35  1  0
 22 36  1  0
M  END
>  <meeko>  (2) 
{"is_sidechain": [false], "free_energy": -10.494, "intermolecular_energy": -12.047, "internal_energy": -0.202}

$$$$
cand_031_out
     RDKit          3D

 36 38  0  0  0  0  0  0  0  0999 V2000
   52.7650  161.4110   31.5330 C   0  0  0  0  0  0  0  0  0  0  0  0
   51.9940  161.0980   30.4840 C   0  0  0  0  0  0  0  0  0  0  0  0
   51.2350  159.8430   30.3820 C   0  0  0  0  0  0  0  0  0  0  0  0
   51.7880  158.7550   29.6810 C   0  0  0  0  0  0  0  0  0  0  0  0
   51.0880  157.5480   29.5260 C   0  0  0  0  0  0  0  0  0  0  0  0
   51.7190  156.4200   28.8070 C   0  0  0  0  0  0  0  0  0  0  0  0
   52.2640  156.7970   27.5850 O   0  0  0  0  0  0  0  0  0  0  0  0
   52.8800  155.8470   26.8110 C   0  0  0  0  0  0  0  0  0  0  0  0
   53.4250  156.2720   25.5990 C   0  0  0  0  0  0  0  0  0  0  0  0
   54.0650  155.3540   24.7630 C   0  0  0  0  0  0  0  0  0  0  0  0
   54.1610  154.0130   25.1400 C   0  0  0  0  0  0  0  0  0  0  0  0
   53.6160  153.5920   26.3500 C   0  0  0  0  0  0  0  0  0  0  0  0
   53.7450  152.2650   26.6550 O   0  0  0  0  0  0  0  0  0  0  0  0
   52.9760  154.5110   27.1860 C   0  0  0  0  0  0  0  0  0  0  0  0
   52.3910  154.1090   28.4660 C   0  0  0  0  0  0  0  0  0  0  0  0
   52.4280  152.9460   28.8630 O   0  0  0  0  0  0  0  0  0  0  0  0
   51.7410  155.1610   29.2810 C   0  0  0  0  0  0  0  0  0  0  0  0
   51.1780  154.7690   30.4820 O   0  0  0  0  0  0  0  0  0  0  0  0
   49.8150  157.4390   30.0940 C   0  0  0  0  0  0  0  0  0  0  0  0
   49.2490  158.5140   30.7840 C   0  0  0  0  0  0  0  0  0  0  0  0
   49.9460  159.7210   30.9360 C   0  0  0  0  0  0  0  0  0  0  0  0
   49.2940  160.8520   31.6850 C   0  0  0  0  0  0  0  0  0  0  0  0
   53.3088  162.3670   31.5501 H   0  0  0  0  0  0  0  0  0  0  0  0
   52.8546  160.7121   32.3777 H   0  0  0  0  0  0  0  0  0  0  0  0
   51.9248  161.8177   29.6550 H   0  0  0  0  0  0  0  0  0  0  0  0
   52.7928  158.8528   29.2441 H   0  0  0  0  0  0  0  0  0  0  0  0
   53.3508  157.3286   25.3022 H   0  0  0  0  0  0  0  0  0  0  0  0
   54.4938  155.6879   23.8066 H   0  0  0  0  0  0  0  0  0  0  0  0
   54.6663  153.2905   24.4822 H   0  0  0  0  0  0  0  0  0  0  0  0
   53.2230  151.6270   26.2090 H   0  0  0  0  0  0  0  0  0  0  0  0
   50.3340  155.0900   30.7300 H   0  0  0  0  0  0  0  0  0  0  0  0
   49.2538  156.4979   29.9967 H   0  0  0  0  0  0  0  0  0  0  0  0
   48.2418  158.4119   31.2143 H   0  0  0  0  0  0  0  0  0  0  0  0
   49.3929  160.6804   32.7670 H   0  0  0  0  0  0  0  0  0  0  0  0
   49.7844  161.7997   31.4177 H   0  0  0  0  0  0  0  0  0  0  0  0
   48.2282  160.9025   31.4177 H   0  0  0  0  0  0  0  0  0  0  0  0
  1  2  2  0
  2  3  1  0
  3  4  2  0
  4  5  1  0
  5  6  1  0
  6  7  1  0
  7  8  1  0
  8  9  2  0
  9 10  1  0
 10 11  2  0
 11 12  1  0
 12 13  1  0
 12 14  2  0
 14 15  1  0
 15 16  2  0
 15 17  1  0
 17 18  1  0
  5 19  2  0
 19 20  1  0
 20 21  2  0
 21 22  1  0
 21  3  1  0
 17  6  2  0
 14  8  1  0
  1 23  1  0
  1 24  1  0
  2 25  1  0
  4 26  1  0
  9 27  1  0
 10 28  1  0
 11 29  1  0
 13 30  1  0
 18 31  1  0
 19 32  1  0
 20 33  1  0
 22 34  1  0
 22 35  1  0
 22 36  1  0
M  END
>  <meeko>  (3) 
{"is_sidechain": [false], "free_energy": -10.454, "intermolecular_energy": -12.087, "internal_energy": -0.116}

$$$$
cand_031_out
     RDKit          3D

 36 38  0  0  0  0  0  0  0  0999 V2000
   54.1120  156.6010   25.1750 C   0  0  0  0  0  0  0  0  0  0  0  0
   53.4740  155.4630   25.4750 C   0  0  0  0  0  0  0  0  0  0  0  0
   52.8440  155.2060   26.7790 C   0  0  0  0  0  0  0  0  0  0  0  0
   52.2700  156.2750   27.4920 C   0  0  0  0  0  0  0  0  0  0  0  0
   51.6890  156.0880   28.7560 C   0  0  0  0  0  0  0  0  0  0  0  0
   51.0700  157.2340   29.4570 C   0  0  0  0  0  0  0  0  0  0  0  0
   51.9720  158.2610   29.7100 O   0  0  0  0  0  0  0  0  0  0  0  0
   51.5310  159.3860   30.3580 C   0  0  0  0  0  0  0  0  0  0  0  0
   52.4660  160.3980   30.5800 C   0  0  0  0  0  0  0  0  0  0  0  0
   52.0830  161.5700   31.2350 C   0  0  0  0  0  0  0  0  0  0  0  0
   50.7650  161.7300   31.6690 C   0  0  0  0  0  0  0  0  0  0  0  0
   49.8340  160.7190   31.4470 C   0  0  0  0  0  0  0  0  0  0  0  0
   48.5620  160.9420   31.8980 O   0  0  0  0  0  0  0  0  0  0  0  0
   50.2180  159.5470   30.7900 C   0  0  0  0  0  0  0  0  0  0  0  0
   49.2710  158.4600   30.5360 C   0  0  0  0  0  0  0  0  0  0  0  0
   48.0960  158.5230   30.8940 O   0  0  0  0  0  0  0  0  0  0  0  0
   49.7770  157.2630   29.8270 C   0  0  0  0  0  0  0  0  0  0  0  0
   48.8770  156.2360   29.6050 O   0  0  0  0  0  0  0  0  0  0  0  0
   51.6820  154.8000   29.3000 C   0  0  0  0  0  0  0  0  0  0  0  0
   52.2570  153.7310   28.6090 C   0  0  0  0  0  0  0  0  0  0  0  0
   52.8420  153.9180   27.3480 C   0  0  0  0  0  0  0  0  0  0  0  0
   53.4520  152.7370   26.6420 C   0  0  0  0  0  0  0  0  0  0  0  0
   54.5632  156.7329   24.1805 H   0  0  0  0  0  0  0  0  0  0  0  0
   54.1851  157.4042   25.9230 H   0  0  0  0  0  0  0  0  0  0  0  0
   53.4180  154.6787   24.7057 H   0  0  0  0  0  0  0  0  0  0  0  0
   52.2768  157.2814   27.0480 H   0  0  0  0  0  0  0  0  0  0  0  0
   53.5043  160.2723   30.2391 H   0  0  0  0  0  0  0  0  0  0  0  0
   52.8197  162.3680   31.4094 H   0  0  0  0  0  0  0  0  0  0  0  0
   50.4632  162.6532   32.1853 H   0  0  0  0  0  0  0  0  0  0  0  0
   48.2620  161.8170   32.0420 H   0  0  0  0  0  0  0  0  0  0  0  0
   49.1710  155.3460   29.6160 H   0  0  0  0  0  0  0  0  0  0  0  0
   51.2188  154.6268   30.2825 H   0  0  0  0  0  0  0  0  0  0  0  0
   52.2510  152.7279   29.0603 H   0  0  0  0  0  0  0  0  0  0  0  0
   53.8239  152.0171   27.3859 H   0  0  0  0  0  0  0  0  0  0  0  0
   52.6910  152.2532   26.0120 H   0  0  0  0  0  0  0  0  0  0  0  0
   54.2870  153.0776   26.0120 H   0  0  0  0  0  0  0  0  0  0  0  0
  1  2  2  0
  2  3  1  0
  3  4  2  0
  4  5  1  0
  5  6  1  0
  6  7  1  0
  7  8  1  0
  8  9  2  0
  9 10  1  0
 10 11  2  0
 11 12  1  0
 12 13  1  0
 12 14  2  0
 14 15  1  0
 15 16  2  0
 15 17  1  0
 17 18  1  0
  5 19  2  0
 19 20  1  0
 20 21  2  0
 21 22  1  0
 21  3  1  0
 17  6  2  0
 14  8  1  0
  1 23  1  0
  1 24  1  0
  2 25  1  0
  4 26  1  0
  9 27  1  0
 10 28  1  0
 11 29  1  0
 13 30  1  0
 18 31  1  0
 19 32  1  0
 20 33  1  0
 22 34  1  0
 22 35  1  0
 22 36  1  0
M  END
>  <meeko>  (4) 
{"is_sidechain": [false], "free_energy": -9.255, "intermolecular_energy": -10.482, "internal_energy": -0.311}

$$$$
cand_031_out
     RDKit          3D

 36 38  0  0  0  0  0  0  0  0999 V2000
   51.5970  152.3750   28.0220 C   0  0  0  0  0  0  0  0  0  0  0  0
   51.9860  153.3550   28.8470 C   0  0  0  0  0  0  0  0  0  0  0  0
   52.2160  154.7400   28.4090 C   0  0  0  0  0  0  0  0  0  0  0  0
   51.7370  155.8030   29.1960 C   0  0  0  0  0  0  0  0  0  0  0  0
   51.9000  157.1410   28.8030 C   0  0  0  0  0  0  0  0  0  0  0  0
   51.4070  158.2280   29.6760 C   0  0  0  0  0  0  0  0  0  0  0  0
   50.0630  158.0870   30.0050 O   0  0  0  0  0  0  0  0  0  0  0  0
   49.4750  159.0290   30.8100 C   0  0  0  0  0  0  0  0  0  0  0  0
   48.1290  158.8430   31.1260 C   0  0  0  0  0  0  0  0  0  0  0  0
   47.4700  159.7660   31.9400 C   0  0  0  0  0  0  0  0  0  0  0  0
   48.1550  160.8750   32.4370 C   0  0  0  0  0  0  0  0  0  0  0  0
   49.4990  161.0600   32.1200 C   0  0  0  0  0  0  0  0  0  0  0  0
   50.1090  162.1680   32.6410 O   0  0  0  0  0  0  0  0  0  0  0  0
   50.1580  160.1350   31.3060 C   0  0  0  0  0  0  0  0  0  0  0  0
   51.5690  160.2920   30.9500 C   0  0  0  0  0  0  0  0  0  0  0  0
   52.2380  161.2450   31.3420 O   0  0  0  0  0  0  0  0  0  0  0  0
   52.1760  159.2530   30.0870 C   0  0  0  0  0  0  0  0  0  0  0  0
   53.5050  159.4180   29.7440 O   0  0  0  0  0  0  0  0  0  0  0  0
   52.5630  157.4040   27.6010 C   0  0  0  0  0  0  0  0  0  0  0  0
   53.0350  156.3600   26.8040 C   0  0  0  0  0  0  0  0  0  0  0  0
   52.8690  155.0230   27.1930 C   0  0  0  0  0  0  0  0  0  0  0  0
   53.3930  153.9300   26.3000 C   0  0  0  0  0  0  0  0  0  0  0  0
   51.4415  151.3579   28.4110 H   0  0  0  0  0  0  0  0  0  0  0  0
   51.4329  152.5869   26.9552 H   0  0  0  0  0  0  0  0  0  0  0  0
   52.1418  153.1115   29.9083 H   0  0  0  0  0  0  0  0  0  0  0  0
   51.2222  155.5805   30.1423 H   0  0  0  0  0  0  0  0  0  0  0  0
   47.5873  157.9696   30.7340 H   0  0  0  0  0  0  0  0  0  0  0  0
   46.4090  159.6186   32.1899 H   0  0  0  0  0  0  0  0  0  0  0  0
   47.6349  161.6021   33.0780 H   0  0  0  0  0  0  0  0  0  0  0  0
   49.8610  163.0220   32.3460 H   0  0  0  0  0  0  0  0  0  0  0  0
   53.7400  159.6020   28.8550 H   0  0  0  0  0  0  0  0  0  0  0  0
   52.7144  158.4451   27.2797 H   0  0  0  0  0  0  0  0  0  0  0  0
   53.5448  156.5894   25.8566 H   0  0  0  0  0  0  0  0  0  0  0  0
   53.7865  153.1091   26.9175 H   0  0  0  0  0  0  0  0  0  0  0  0
   52.5778  153.5529   25.6650 H   0  0  0  0  0  0  0  0  0  0  0  0
   54.1975  154.3294   25.6650 H   0  0  0  0  0  0  0  0  0  0  0  0
  1  2  2  0
  2  3  1  0
  3  4  2  0
  4  5  1  0
  5  6  1  0
  6  7  1  0
  7  8  1  0
  8  9  2  0
  9 10  1  0
 10 11  2  0
 11 12  1  0
 12 13  1  0
 12 14  2  0
 14 15  1  0
 15 16  2  0
 15 17  1  0
 17 18  1  0
  5 19  2  0
 19 20  1  0
 20 21  2  0
 21 22  1  0
 21  3  1  0
 17  6  2  0
 14  8  1  0
  1 23  1  0
  1 24  1  0
  2 25  1  0
  4 26  1  0
  9 27  1  0
 10 28  1  0
 11 29  1  0
 13 30  1  0
 18 31  1  0
 19 32  1  0
 20 33  1  0
 22 34  1  0
 22 35  1  0
 22 36  1  0
M  END
>  <meeko>  (5) 
{"is_sidechain": [false], "free_energy": -8.57, "intermolecular_energy": -10.404, "internal_energy": 0.415}

$$$$
cand_031_out
     RDKit          3D

 36 38  0  0  0  0  0  0  0  0999 V2000
   51.1160  160.3840   30.0890 C   0  0  0  0  0  0  0  0  0  0  0  0
   51.8370  159.2550   30.0820 C   0  0  0  0  0  0  0  0  0  0  0  0
   51.2900  157.9480   29.6860 C   0  0  0  0  0  0  0  0  0  0  0  0
   51.9820  157.1660   28.7420 C   0  0  0  0  0  0  0  0  0  0  0  0
   51.4840  155.9280   28.3060 C   0  0  0  0  0  0  0  0  0  0  0  0
   52.2590  155.1260   27.3350 C   0  0  0  0  0  0  0  0  0  0  0  0
   51.9780  153.7670   27.4140 O   0  0  0  0  0  0  0  0  0  0  0  0
   52.6300  152.9050   26.5700 C   0  0  0  0  0  0  0  0  0  0  0  0
   52.3090  151.5510   26.6740 C   0  0  0  0  0  0  0  0  0  0  0  0
   52.9370  150.6200   25.8430 C   0  0  0  0  0  0  0  0  0  0  0  0
   53.8850  151.0420   24.9100 C   0  0  0  0  0  0  0  0  0  0  0  0
   54.2040  152.3940   24.8080 C   0  0  0  0  0  0  0  0  0  0  0  0
   55.1420  152.7380   23.8730 O   0  0  0  0  0  0  0  0  0  0  0  0
   53.5750  153.3250   25.6390 C   0  0  0  0  0  0  0  0  0  0  0  0
   53.8810  154.7540   25.5630 C   0  0  0  0  0  0  0  0  0  0  0  0
   54.7090  155.2030   24.7730 O   0  0  0  0  0  0  0  0  0  0  0  0
   53.1540  155.6590   26.4830 C   0  0  0  0  0  0  0  0  0  0  0  0
   53.4610  157.0060   26.4140 O   0  0  0  0  0  0  0  0  0  0  0  0
   50.2740  155.4740   28.8390 C   0  0  0  0  0  0  0  0  0  0  0  0
   49.5710  156.2430   29.7680 C   0  0  0  0  0  0  0  0  0  0  0  0
   50.0660  157.4820   30.2020 C   0  0  0  0  0  0  0  0  0  0  0  0
   49.2710  158.2760   31.2040 C   0  0  0  0  0  0  0  0  0  0  0  0
   51.5818  161.3322   30.3956 H   0  0  0  0  0  0  0  0  0  0  0  0
   50.0582  160.3629   29.7881 H   0  0  0  0  0  0  0  0  0  0  0  0
   52.8922  159.3079   30.3881 H   0  0  0  0  0  0  0  0  0  0  0  0
   52.9359  157.5338   28.3362 H   0  0  0  0  0  0  0  0  0  0  0  0
   51.5623  151.2171   27.4095 H   0  0  0  0  0  0  0  0  0  0  0  0
   52.6838  149.5526   25.9243 H   0  0  0  0  0  0  0  0  0  0  0  0
   54.3794  150.3083   24.2563 H   0  0  0  0  0  0  0  0  0  0  0  0
   54.9190  153.3270   23.1800 H   0  0  0  0  0  0  0  0  0  0  0  0
   53.1840  157.5120   25.6760 H   0  0  0  0  0  0  0  0  0  0  0  0
   49.8715  154.5003   28.5229 H   0  0  0  0  0  0  0  0  0  0  0  0
   48.6148  155.8721   30.1657 H   0  0  0  0  0  0  0  0  0  0  0  0
   49.5658  157.9816   32.2221 H   0  0  0  0  0  0  0  0  0  0  0  0
   49.4679  159.3488   31.0610 H   0  0  0  0  0  0  0  0  0  0  0  0
   48.1985  158.0778   31.0610 H   0  0  0  0  0  0  0  0  0  0  0  0
  1  2  2  0
  2  3  1  0
  3  4  2  0
  4  5  1  0
  5  6  1  0
  6  7  1  0
  7  8  1  0
  8  9  2  0
  9 10  1  0
 10 11  2  0
 11 12  1  0
 12 13  1  0
 12 14  2  0
 14 15  1  0
 15 16  2  0
 15 17  1  0
 17 18  1  0
  5 19  2  0
 19 20  1  0
 20 21  2  0
 21 22  1  0
 21  3  1  0
 17  6  2  0
 14  8  1  0
  1 23  1  0
  1 24  1  0
  2 25  1  0
  4 26  1  0
  9 27  1  0
 10 28  1  0
 11 29  1  0
 13 30  1  0
 18 31  1  0
 19 32  1  0
 20 33  1  0
 22 34  1  0
 22 35  1  0
 22 36  1  0
M  END
>  <meeko>  (6) 
{"is_sidechain": [false], "free_energy": -8.342, "intermolecular_energy": -10.385, "internal_energy": 0.665}

$$$$
