cand_004_out
     RDKit          3D

 38 40  0  0  0  0  0  0  0  0999 V2000
   47.2990  159.5690   30.7270 C   0  0  0  0  0  0  0  0  0  0  0  0
   48.3400  158.8210   31.5480 C   0  0  0  0  0  0  0  0  0  0  0  0
   49.7100  158.8760   30.9080 C   0  0  0  0  0  0  0  0  0  0  0  0
   50.1560  157.7430   30.1970 C   0  0  0  0  0  0  0  0  0  0  0  0
   51.4200  157.6990   29.5920 C   0  0  0  0  0  0  0  0  0  0  0  0
   51.8770  156.5190   28.8280 C   0  0  0  0  0  0  0  0  0  0  0  0
   52.4680  156.8560   27.6160 O   0  0  0  0  0  0  0  0  0  0  0  0
   52.9370  155.8530   26.8060 C   0  0  0  0  0  0  0  0  0  0  0  0
   53.5090  156.2350   25.5910 C   0  0  0  0  0  0  0  0  0  0  0  0
   54.0090  155.2640   24.7210 C   0  0  0  0  0  0  0  0  0  0  0  0
   53.9360  153.9120   25.0650 C   0  0  0  0  0  0  0  0  0  0  0  0
   53.3650  153.5340   26.2770 C   0  0  0  0  0  0  0  0  0  0  0  0
   53.3270  152.1940   26.5500 O   0  0  0  0  0  0  0  0  0  0  0  0
   52.8650  154.5060   27.1470 C   0  0  0  0  0  0  0  0  0  0  0  0
   52.2570  154.1520   28.4300 C   0  0  0  0  0  0  0  0  0  0  0  0
   52.1630  152.9850   28.8070 O   0  0  0  0  0  0  0  0  0  0  0  0
   51.7510  155.2560   29.2770 C   0  0  0  0  0  0  0  0  0  0  0  0
   51.1910  154.9130   30.4930 O   0  0  0  0  0  0  0  0  0  0  0  0
   52.2430  158.8250   29.6930 C   0  0  0  0  0  0  0  0  0  0  0  0
   51.8200  159.9570   30.3960 C   0  0  0  0  0  0  0  0  0  0  0  0
   50.5580  159.9990   31.0170 C   0  0  0  0  0  0  0  0  0  0  0  0
   50.1480  161.2540   31.7620 C   0  0  0  0  0  0  0  0  0  0  0  0
   49.1430  161.9360   31.1470 F   0  0  0  0  0  0  0  0  0  0  0  0
   51.1760  162.1380   31.9000 F   0  0  0  0  0  0  0  0  0  0  0  0
   49.7020  161.0120   33.0280 F   0  0  0  0  0  0  0  0  0  0  0  0
   46.5940  160.0756   31.4026 H   0  0  0  0  0  0  0  0  0  0  0  0
   47.7995  160.3154   30.0926 H   0  0  0  0  0  0  0  0  0  0  0  0
   46.7513  158.8566   30.0926 H   0  0  0  0  0  0  0  0  0  0  0  0
   48.3966  159.2744   32.5486 H   0  0  0  0  0  0  0  0  0  0  0  0
   48.0337  157.7662   31.6071 H   0  0  0  0  0  0  0  0  0  0  0  0
   49.4934  156.8688   30.1147 H   0  0  0  0  0  0  0  0  0  0  0  0
   53.5657  157.2995   25.3195 H   0  0  0  0  0  0  0  0  0  0  0  0
   54.4608  155.5639   23.7639 H   0  0  0  0  0  0  0  0  0  0  0  0
   54.3292  153.1472   24.3791 H   0  0  0  0  0  0  0  0  0  0  0  0
   53.0910  151.5860   25.8780 H   0  0  0  0  0  0  0  0  0  0  0  0
   50.3580  154.4820   30.5210 H   0  0  0  0  0  0  0  0  0  0  0  0
   53.2334  158.8200   29.2144 H   0  0  0  0  0  0  0  0  0  0  0  0
   52.4854  160.8302   30.4649 H   0  0  0  0  0  0  0  0  0  0  0  0
  1  2  1  0
  2  3  1  0
  3  4  2  0
  4  5  1  0
  5  6  1  0
  6  7  1  0
  7  8  1  0
  8  9  2  0
  9 10  1  0
 10 11  2  0
 11 12  1  0
 12 13  1  0
 12 14  2  0
 14 15  1  0
 15 16  2  0
 15 17  1  0
 17 18  1  0
  5 19  2  0
 19 20  1  0
 20 21  2  0
 21 22  1  0
 22 23  1  0
 22 24  1  0
 22 25  1  0
 21  3  1  0
 17  6  2  0
 14  8  1  0
  1 26  1  0
  1 27  1  0
  1 28  1  0
  2 29  1  0
  2 30  1  0
  4 31  1  0
  9 32  1  0
 10 33  1  0
 11 34  1  0
 13 35  1  0
 18 36  1  0
 19 37  1  0
 20 38  1  0
M  END
>  <meeko>  (1) 
{"is_sidechain": [false], "free_energy": -11.112, "intermolecular_energy": -13.711, "internal_energy": -0.199}

$$$$
cand_004_out
     RDKit          3D

 38 40  0  0  0  0  0  0  0  0999 V2000
   52.7890  161.1750   31.5640 C   0  0  0  0  0  0  0  0  0  0  0  0
   51.7540  161.1490   30.4490 C   0  0  0  0  0  0  0  0  0  0  0  0
   51.0330  159.8200   30.3780 C   0  0  0  0  0  0  0  0  0  0  0  0
   51.6460  158.7710   29.6620 C   0  0  0  0  0  0  0  0  0  0  0  0
   51.0380  157.5140   29.5260 C   0  0  0  0  0  0  0  0  0  0  0  0
   51.6910  156.4090   28.7940 C   0  0  0  0  0  0  0  0  0  0  0  0
   52.2570  156.8180   27.5920 O   0  0  0  0  0  0  0  0  0  0  0  0
   52.8970  155.8900   26.8110 C   0  0  0  0  0  0  0  0  0  0  0  0
   53.4370  156.3410   25.6050 C   0  0  0  0  0  0  0  0  0  0  0  0
   54.1040  155.4470   24.7630 C   0  0  0  0  0  0  0  0  0  0  0  0
   54.2290  154.1040   25.1270 C   0  0  0  0  0  0  0  0  0  0  0  0
   53.6890  153.6580   26.3300 C   0  0  0  0  0  0  0  0  0  0  0  0
   53.8500  152.3310   26.6230 O   0  0  0  0  0  0  0  0  0  0  0  0
   53.0230  154.5510   27.1710 C   0  0  0  0  0  0  0  0  0  0  0  0
   52.4400  154.1230   28.4440 C   0  0  0  0  0  0  0  0  0  0  0  0
   52.5150  152.9600   28.8360 O   0  0  0  0  0  0  0  0  0  0  0  0
   51.7470  155.1470   29.2590 C   0  0  0  0  0  0  0  0  0  0  0  0
   51.2130  154.7360   30.4660 O   0  0  0  0  0  0  0  0  0  0  0  0
   49.7980  157.3080   30.1390 C   0  0  0  0  0  0  0  0  0  0  0  0
   49.1750  158.3360   30.8520 C   0  0  0  0  0  0  0  0  0  0  0  0
   49.7740  159.6030   30.9770 C   0  0  0  0  0  0  0  0  0  0  0  0
   49.0560  160.6790   31.7650 C   0  0  0  0  0  0  0  0  0  0  0  0
   49.7470  161.0880   32.8650 F   0  0  0  0  0  0  0  0  0  0  0  0
   47.8370  160.2710   32.2160 F   0  0  0  0  0  0  0  0  0  0  0  0
   48.8180  161.8130   31.0440 F   0  0  0  0  0  0  0  0  0  0  0  0
   52.2787  161.1622   32.5384 H   0  0  0  0  0  0  0  0  0  0  0  0
   53.4408  160.2930   31.4799 H   0  0  0  0  0  0  0  0  0  0  0  0
   53.3957  162.0887   31.4799 H   0  0  0  0  0  0  0  0  0  0  0  0
   51.0162  161.9445   30.6302 H   0  0  0  0  0  0  0  0  0  0  0  0
   52.2780  161.3036   29.4943 H   0  0  0  0  0  0  0  0  0  0  0  0
   52.6280  158.9431   29.1973 H   0  0  0  0  0  0  0  0  0  0  0  0
   53.3376  157.3983   25.3181 H   0  0  0  0  0  0  0  0  0  0  0  0
   54.5309  155.8010   23.8130 H   0  0  0  0  0  0  0  0  0  0  0  0
   54.7533  153.4001   24.4640 H   0  0  0  0  0  0  0  0  0  0  0  0
   53.7440  151.6870   25.9520 H   0  0  0  0  0  0  0  0  0  0  0  0
   50.2840  154.7340   30.5910 H   0  0  0  0  0  0  0  0  0  0  0  0
   49.3078  156.3265   30.0591 H   0  0  0  0  0  0  0  0  0  0  0  0
   48.1987  158.1512   31.3240 H   0  0  0  0  0  0  0  0  0  0  0  0
  1  2  1  0
  2  3  1  0
  3  4  2  0
  4  5  1  0
  5  6  1  0
  6  7  1  0
  7  8  1  0
  8  9  2  0
  9 10  1  0
 10 11  2  0
 11 12  1  0
 12 13  1  0
 12 14  2  0
 14 15  1  0
 15 16  2  0
 15 17  1  0
 17 18  1  0
  5 19  2  0
 19 20  1  0
 20 21  2  0
 21 22  1  0
 22 23  1  0
 22 24  1  0
 22 25  1  0
 21  3  1  0
 17  6  2  0
 14  8  1  0
  1 26  1  0
  1 27  1  0
  1 28  1  0
  2 29  1  0
  2 30  1  0
  4 31  1  0
  9 32  1  0
 10 33  1  0
 11 34  1  0
 13 35  1  0
 18 36  1  0
 19 37  1  0
 20 38  1  0
M  END
>  <meeko>  (2) 
{"is_sidechain": [false], "free_energy": -10.823, "intermolecular_energy": -13.195, "internal_energy": -0.357}

$$$$
cand_004_out
     RDKit          3D

 38 40  0  0  0  0  0  0  0  0999 V2000
   54.0830  156.7150   25.1330 C   0  0  0  0  0  0  0  0  0  0  0  0
   53.7000  155.2670   25.4040 C   0  0  0  0  0  0  0  0  0  0  0  0
   52.9230  155.1210   26.6950 C   0  0  0  0  0  0  0  0  0  0  0  0
   52.5860  156.2930   27.4030 C   0  0  0  0  0  0  0  0  0  0  0  0
   51.8870  156.2480   28.6180 C   0  0  0  0  0  0  0  0  0  0  0  0
   51.5160  157.4780   29.3470 C   0  0  0  0  0  0  0  0  0  0  0  0
   50.1930  157.4750   29.7740 O   0  0  0  0  0  0  0  0  0  0  0  0
   49.7170  158.5600   30.4660 C   0  0  0  0  0  0  0  0  0  0  0  0
   48.3790  158.5210   30.8620 C   0  0  0  0  0  0  0  0  0  0  0  0
   47.8310  159.5930   31.5710 C   0  0  0  0  0  0  0  0  0  0  0  0
   48.6210  160.7010   31.8840 C   0  0  0  0  0  0  0  0  0  0  0  0
   49.9550  160.7370   31.4880 C   0  0  0  0  0  0  0  0  0  0  0  0
   50.6700  161.8530   31.8280 O   0  0  0  0  0  0  0  0  0  0  0  0
   50.5030  159.6660   30.7780 C   0  0  0  0  0  0  0  0  0  0  0  0
   51.9000  159.6630   30.3420 C   0  0  0  0  0  0  0  0  0  0  0  0
   52.6600  160.5990   30.5860 O   0  0  0  0  0  0  0  0  0  0  0  0
   52.3800  158.4820   29.5890 C   0  0  0  0  0  0  0  0  0  0  0  0
   53.7050  158.4830   29.1940 O   0  0  0  0  0  0  0  0  0  0  0  0
   51.5080  154.9990   29.1190 C   0  0  0  0  0  0  0  0  0  0  0  0
   51.8340  153.8260   28.4320 C   0  0  0  0  0  0  0  0  0  0  0  0
   52.5480  153.8660   27.2210 C   0  0  0  0  0  0  0  0  0  0  0  0
   52.8720  152.5640   26.5160 C   0  0  0  0  0  0  0  0  0  0  0  0
   52.1630  151.5060   26.9980 F   0  0  0  0  0  0  0  0  0  0  0  0
   54.1850  152.2210   26.6300 F   0  0  0  0  0  0  0  0  0  0  0  0
   52.6160  152.5930   25.1770 F   0  0  0  0  0  0  0  0  0  0  0  0
   54.2225  157.2423   26.0882 H   0  0  0  0  0  0  0  0  0  0  0  0
   55.0199  156.7449   24.5575 H   0  0  0  0  0  0  0  0  0  0  0  0
   53.2834  157.2042   24.5575 H   0  0  0  0  0  0  0  0  0  0  0  0
   53.0798  154.9015   24.5723 H   0  0  0  0  0  0  0  0  0  0  0  0
   54.6262  154.6806   25.4953 H   0  0  0  0  0  0  0  0  0  0  0  0
   52.8795  157.2697   26.9909 H   0  0  0  0  0  0  0  0  0  0  0  0
   47.7570  157.6476   30.6162 H   0  0  0  0  0  0  0  0  0  0  0  0
   46.7765  159.5641   31.8828 H   0  0  0  0  0  0  0  0  0  0  0  0
   48.1896  161.5445   32.4429 H   0  0  0  0  0  0  0  0  0  0  0  0
   51.5620  161.9400   31.5540 H   0  0  0  0  0  0  0  0  0  0  0  0
   54.1550  159.2950   29.0620 H   0  0  0  0  0  0  0  0  0  0  0  0
   50.9475  154.9387   30.0636 H   0  0  0  0  0  0  0  0  0  0  0  0
   51.5266  152.8544   28.8460 H   0  0  0  0  0  0  0  0  0  0  0  0
  1  2  1  0
  2  3  1  0
  3  4  2  0
  4  5  1  0
  5  6  1  0
  6  7  1  0
  7  8  1  0
  8  9  2  0
  9 10  1  0
 10 11  2  0
 11 12  1  0
 12 13  1  0
 12 14  2  0
 14 15  1  0
 15 16  2  0
 15 17  1  0
 17 18  1  0
  5 19  2  0
 19 20  1  0
 20 21  2  0
 21 22  1  0
 22 23  1  0
 22 24  1  0
 22 25  1  0
 21  3  1  0
 17  6  2  0
 14  8  1  0
  1 26  1  0
  1 27  1  0
  1 28  1  0
  2 29  1  0
  2 30  1  0
  4 31  1  0
  9 32  1  0
 10 33  1  0
 11 34  1  0
 13 35  1  0
 18 36  1  0
 19 37  1  0
 20 38  1  0
M  END
>  <meeko>  (3) 
{"is_sidechain": [false], "free_energy": -10.698, "intermolecular_energy": -13.11, "internal_energy": -0.288}

$$$$
cand_004_out
     RDKit          3D

 38 40  0  0  0  0  0  0  0  0999 V2000
   54.1810  156.7600   25.2190 C   0  0  0  0  0  0  0  0  0  0  0  0
   53.4110  155.4470   25.1890 C   0  0  0  0  0  0  0  0  0  0  0  0
   52.7880  155.1280   26.5310 C   0  0  0  0  0  0  0  0  0  0  0  0
   52.2590  156.1940   27.2870 C   0  0  0  0  0  0  0  0  0  0  0  0
   51.6830  155.9920   28.5500 C   0  0  0  0  0  0  0  0  0  0  0  0
   51.1090  157.1070   29.3310 C   0  0  0  0  0  0  0  0  0  0  0  0
   52.0150  158.1400   29.5430 O   0  0  0  0  0  0  0  0  0  0  0  0
   51.6110  159.2400   30.2560 C   0  0  0  0  0  0  0  0  0  0  0  0
   52.5570  160.2460   30.4600 C   0  0  0  0  0  0  0  0  0  0  0  0
   52.2100  161.3940   31.1750 C   0  0  0  0  0  0  0  0  0  0  0  0
   50.9180  161.5350   31.6880 C   0  0  0  0  0  0  0  0  0  0  0  0
   49.9770  160.5310   31.4830 C   0  0  0  0  0  0  0  0  0  0  0  0
   48.7320  160.7350   32.0110 O   0  0  0  0  0  0  0  0  0  0  0  0
   50.3240  159.3820   30.7670 C   0  0  0  0  0  0  0  0  0  0  0  0
   49.3660  158.3020   30.5300 C   0  0  0  0  0  0  0  0  0  0  0  0
   48.2080  158.3560   30.9430 O   0  0  0  0  0  0  0  0  0  0  0  0
   49.8360  157.1240   29.7670 C   0  0  0  0  0  0  0  0  0  0  0  0
   48.9190  156.1160   29.5360 O   0  0  0  0  0  0  0  0  0  0  0  0
   51.6270  154.6880   29.0510 C   0  0  0  0  0  0  0  0  0  0  0  0
   52.1480  153.6180   28.3170 C   0  0  0  0  0  0  0  0  0  0  0  0
   52.7390  153.8190   27.0560 C   0  0  0  0  0  0  0  0  0  0  0  0
   53.2840  152.6230   26.3020 C   0  0  0  0  0  0  0  0  0  0  0  0
   54.6160  152.4260   26.5050 F   0  0  0  0  0  0  0  0  0  0  0  0
   53.1200  152.7370   24.9550 F   0  0  0  0  0  0  0  0  0  0  0  0
   52.6860  151.4460   26.6450 F   0  0  0  0  0  0  0  0  0  0  0  0
   54.3561  157.0586   26.2631 H   0  0  0  0  0  0  0  0  0  0  0  0
   55.1464  156.6307   24.7078 H   0  0  0  0  0  0  0  0  0  0  0  0
   53.5969  157.5394   24.7078 H   0  0  0  0  0  0  0  0  0  0  0  0
   52.6135  155.5194   24.4348 H   0  0  0  0  0  0  0  0  0  0  0  0
   54.1186  154.6421   24.9414 H   0  0  0  0  0  0  0  0  0  0  0  0
   52.2991  157.2130   26.8747 H   0  0  0  0  0  0  0  0  0  0  0  0
   53.5748  160.1344   30.0579 H   0  0  0  0  0  0  0  0  0  0  0  0
   52.9543  162.1880   31.3346 H   0  0  0  0  0  0  0  0  0  0  0  0
   50.6453  162.4385   32.2531 H   0  0  0  0  0  0  0  0  0  0  0  0
   48.5510  160.4880   32.8960 H   0  0  0  0  0  0  0  0  0  0  0  0
   48.0110  156.2540   29.7260 H   0  0  0  0  0  0  0  0  0  0  0  0
   51.1681  154.5018   30.0332 H   0  0  0  0  0  0  0  0  0  0  0  0
   52.0949  152.6010   28.7328 H   0  0  0  0  0  0  0  0  0  0  0  0
  1  2  1  0
  2  3  1  0
  3  4  2  0
  4  5  1  0
  5  6  1  0
  6  7  1  0
  7  8  1  0
  8  9  2  0
  9 10  1  0
 10 11  2  0
 11 12  1  0
 12 13  1  0
 12 14  2  0
 14 15  1  0
 15 16  2  0
 15 17  1  0
 17 18  1  0
  5 19  2  0
 19 20  1  0
 20 21  2  0
 21 22  1  0
 22 23  1  0
 22 24  1  0
 22 25  1  0
 21  3  1  0
 17  6  2  0
 14  8  1  0
  1 26  1  0
  1 27  1  0
  1 28  1  0
  2 29  1  0
  2 30  1  0
  4 31  1  0
  9 32  1  0
 10 33  1  0
 11 34  1  0
 13 35  1  0
 18 36  1  0
 19 37  1  0
 20 38  1  0
M  END
>  <meeko>  (4) 
{"is_sidechain": [false], "free_energy": -9.349, "intermolecular_energy": -11.532, "internal_energy": -0.202}

$$$$
cand_004_out
     RDKit          3D

 38 40  0  0  0  0  0  0  0  0999 V2000
   51.4070  152.4130   27.9380 C   0  0  0  0  0  0  0  0  0  0  0  0
   52.3710  153.2550   28.7600 C   0  0  0  0  0  0  0  0  0  0  0  0
   52.4590  154.6760   28.2470 C   0  0  0  0  0  0  0  0  0  0  0  0
   51.9490  155.7080   29.0620 C   0  0  0  0  0  0  0  0  0  0  0  0
   51.9690  157.0500   28.6560 C   0  0  0  0  0  0  0  0  0  0  0  0
   51.4540  158.1320   29.5210 C   0  0  0  0  0  0  0  0  0  0  0  0
   50.1110  157.9740   29.8430 O   0  0  0  0  0  0  0  0  0  0  0  0
   49.5070  158.9100   30.6420 C   0  0  0  0  0  0  0  0  0  0  0  0
   48.1530  158.7210   30.9280 C   0  0  0  0  0  0  0  0  0  0  0  0
   47.4770  159.6370   31.7370 C   0  0  0  0  0  0  0  0  0  0  0  0
   48.1540  160.7410   32.2600 C   0  0  0  0  0  0  0  0  0  0  0  0
   49.5030  160.9280   31.9740 C   0  0  0  0  0  0  0  0  0  0  0  0
   50.1040  162.0300   32.5190 O   0  0  0  0  0  0  0  0  0  0  0  0
   50.1790  160.0120   31.1640 C   0  0  0  0  0  0  0  0  0  0  0  0
   51.5970  160.1710   30.8370 C   0  0  0  0  0  0  0  0  0  0  0  0
   52.2630  161.1120   31.2650 O   0  0  0  0  0  0  0  0  0  0  0  0
   52.2180  159.1490   29.9640 C   0  0  0  0  0  0  0  0  0  0  0  0
   53.5610  159.3000   29.6730 O   0  0  0  0  0  0  0  0  0  0  0  0
   52.5280  157.3580   27.4120 C   0  0  0  0  0  0  0  0  0  0  0  0
   53.0360  156.3490   26.5890 C   0  0  0  0  0  0  0  0  0  0  0  0
   53.0050  155.0000   26.9860 C   0  0  0  0  0  0  0  0  0  0  0  0
   53.5740  153.9470   26.0570 C   0  0  0  0  0  0  0  0  0  0  0  0
   54.5110  154.4400   25.2020 F   0  0  0  0  0  0  0  0  0  0  0  0
   52.6180  153.3690   25.2760 F   0  0  0  0  0  0  0  0  0  0  0  0
   54.1840  152.9180   26.7110 F   0  0  0  0  0  0  0  0  0  0  0  0
   50.7526  151.8414   28.6125 H   0  0  0  0  0  0  0  0  0  0  0  0
   50.7948  153.0708   27.3035 H   0  0  0  0  0  0  0  0  0  0  0  0
   51.9765  151.7179   27.3035 H   0  0  0  0  0  0  0  0  0  0  0  0
   52.0246  153.2747   29.8038 H   0  0  0  0  0  0  0  0  0  0  0  0
   53.3704  152.8022   28.6819 H   0  0  0  0  0  0  0  0  0  0  0  0
   51.5236  155.4529   30.0438 H   0  0  0  0  0  0  0  0  0  0  0  0
   47.6196  157.8515   30.5164 H   0  0  0  0  0  0  0  0  0  0  0  0
   46.4106  159.4888   31.9624 H   0  0  0  0  0  0  0  0  0  0  0  0
   47.6213  161.4621   32.8974 H   0  0  0  0  0  0  0  0  0  0  0  0
   49.8140  162.8880   32.2800 H   0  0  0  0  0  0  0  0  0  0  0  0
   53.8800  159.1000   28.8150 H   0  0  0  0  0  0  0  0  0  0  0  0
   52.5684  158.4052   27.0776 H   0  0  0  0  0  0  0  0  0  0  0  0
   53.4680  156.6148   25.6129 H   0  0  0  0  0  0  0  0  0  0  0  0
  1  2  1  0
  2  3  1  0
  3  4  2  0
  4  5  1  0
  5  6  1  0
  6  7  1  0
  7  8  1  0
  8  9  2  0
  9 10  1  0
 10 11  2  0
 11 12  1  0
 12 13  1  0
 12 14  2  0
 14 15  1  0
 15 16  2  0
 15 17  1  0
 17 18  1  0
  5 19  2  0
 19 20  1  0
 20 21  2  0
 21 22  1  0
 22 23  1  0
 22 24  1  0
 22 25  1  0
 21  3  1  0
 17  6  2  0
 14  8  1  0
  1 26  1  0
  1 27  1  0
  1 28  1  0
  2 29  1  0
  2 30  1  0
  4 31  1  0
  9 32  1  0
 10 33  1  0
 11 34  1  0
 13 35  1  0
 18 36  1  0
 19 37  1  0
 20 38  1  0
M  END
>  <meeko>  (5) 
{"is_sidechain": [false], "free_energy": -8.726, "intermolecular_energy": -11.062, "internal_energy": 0.097}

$$$$
cand_004_out
     RDKit          3D

 38 40  0  0  0  0  0  0  0  0999 V2000
   51.8850  152.0960   26.8550 C   0  0  0  0  0  0  0  0  0  0  0  0
   52.9960  152.8380   27.5860 C   0  0  0  0  0  0  0  0  0  0  0  0
   52.9570  154.3260   27.3110 C   0  0  0  0  0  0  0  0  0  0  0  0
   52.2890  155.1530   28.2380 C   0  0  0  0  0  0  0  0  0  0  0  0
   52.1850  156.5390   28.0510 C   0  0  0  0  0  0  0  0  0  0  0  0
   51.5040  157.4080   29.0330 C   0  0  0  0  0  0  0  0  0  0  0  0
   52.2120  158.5720   29.3070 O   0  0  0  0  0  0  0  0  0  0  0  0
   51.6900  159.4700   30.2040 C   0  0  0  0  0  0  0  0  0  0  0  0
   52.4410  160.6180   30.4610 C   0  0  0  0  0  0  0  0  0  0  0  0
   51.9670  161.5730   31.3630 C   0  0  0  0  0  0  0  0  0  0  0  0
   50.7430  161.3790   32.0080 C   0  0  0  0  0  0  0  0  0  0  0  0
   49.9960  160.2330   31.7500 C   0  0  0  0  0  0  0  0  0  0  0  0
   48.8070  160.1090   32.4150 O   0  0  0  0  0  0  0  0  0  0  0  0
   50.4710  159.2780   30.8480 C   0  0  0  0  0  0  0  0  0  0  0  0
   49.7180  158.0590   30.5480 C   0  0  0  0  0  0  0  0  0  0  0  0
   48.6300  157.8210   31.0700 O   0  0  0  0  0  0  0  0  0  0  0  0
   50.3130  157.1060   29.5840 C   0  0  0  0  0  0  0  0  0  0  0  0
   49.5880  155.9650   29.2970 O   0  0  0  0  0  0  0  0  0  0  0  0
   52.7800  157.1020   26.9170 C   0  0  0  0  0  0  0  0  0  0  0  0
   53.4450  156.2970   25.9870 C   0  0  0  0  0  0  0  0  0  0  0  0
   53.5380  154.9050   26.1630 C   0  0  0  0  0  0  0  0  0  0  0  0
   54.2740  154.0820   25.1250 C   0  0  0  0  0  0  0  0  0  0  0  0
   55.0560  153.1090   25.6710 F   0  0  0  0  0  0  0  0  0  0  0  0
   55.1000  154.8380   24.3490 F   0  0  0  0  0  0  0  0  0  0  0  0
   53.4450  153.4360   24.2570 F   0  0  0  0  0  0  0  0  0  0  0  0
   51.2035  151.6409   27.5888 H   0  0  0  0  0  0  0  0  0  0  0  0
   51.3257  152.8025   26.2241 H   0  0  0  0  0  0  0  0  0  0  0  0
   52.3233  151.3087   26.2241 H   0  0  0  0  0  0  0  0  0  0  0  0
   52.8819  152.6731   28.6676 H   0  0  0  0  0  0  0  0  0  0  0  0
   53.9599  152.4498   27.2252 H   0  0  0  0  0  0  0  0  0  0  0  0
   51.8373  154.6984   29.1320 H   0  0  0  0  0  0  0  0  0  0  0  0
   53.4051  160.7704   29.9537 H   0  0  0  0  0  0  0  0  0  0  0  0
   52.5577  162.4785   31.5658 H   0  0  0  0  0  0  0  0  0  0  0  0
   50.3700  162.1310   32.7189 H   0  0  0  0  0  0  0  0  0  0  0  0
   48.2330  160.8450   32.4910 H   0  0  0  0  0  0  0  0  0  0  0  0
   48.7820  156.0280   28.8210 H   0  0  0  0  0  0  0  0  0  0  0  0
   52.7242  158.1886   26.7553 H   0  0  0  0  0  0  0  0  0  0  0  0
   53.9038  156.7611   25.1015 H   0  0  0  0  0  0  0  0  0  0  0  0
  1  2  1  0
  2  3  1  0
  3  4  2  0
  4  5  1  0
  5  6  1  0
  6  7  1  0
  7  8  1  0
  8  9  2  0
  9 10  1  0
 10 11  2  0
 11 12  1  0
 12 13  1  0
 12 14  2  0
 14 15  1  0
 15 16  2  0
 15 17  1  0
 17 18  1  0
  5 19  2  0
 19 20  1  0
 20 21  2  0
 21 22  1  0
 22 23  1  0
 22 24  1  0
 22 25  1  0
 21  3  1  0
 17  6  2  0
 14  8  1  0
  1 26  1  0
  1 27  1  0
  1 28  1  0
  2 29  1  0
  2 30  1  0
  4 31  1  0
  9 32  1  0
 10 33  1  0
 11 34  1  0
 13 35  1  0
 18 36  1  0
 19 37  1  0
 20 38  1  0
M  END
>  <meeko>  (6) 
{"is_sidechain": [false], "free_energy": -8.468, "intermolecular_energy": -10.399, "internal_energy": -0.248}

$$$$
cand_004_out
     RDKit          3D

 38 40  0  0  0  0  0  0  0  0999 V2000
   47.9300  158.8770   30.0340 C   0  0  0  0  0  0  0  0  0  0  0  0
   48.9010  157.9600   30.7620 C   0  0  0  0  0  0  0  0  0  0  0  0
   50.2750  157.9750   30.1280 C   0  0  0  0  0  0  0  0  0  0  0  0
   50.6480  156.8750   29.3270 C   0  0  0  0  0  0  0  0  0  0  0  0
   51.9100  156.7960   28.7200 C   0  0  0  0  0  0  0  0  0  0  0  0
   52.2900  155.6540   27.8630 C   0  0  0  0  0  0  0  0  0  0  0  0
   51.7910  154.4420   28.3250 O   0  0  0  0  0  0  0  0  0  0  0  0
   52.0700  153.2980   27.6220 C   0  0  0  0  0  0  0  0  0  0  0  0
   51.5620  152.1010   28.1300 C   0  0  0  0  0  0  0  0  0  0  0  0
   51.8080  150.9000   27.4610 C   0  0  0  0  0  0  0  0  0  0  0  0
   52.5620  150.8960   26.2850 C   0  0  0  0  0  0  0  0  0  0  0  0
   53.0670  152.0910   25.7800 C   0  0  0  0  0  0  0  0  0  0  0  0
   53.7960  152.0140   24.6250 O   0  0  0  0  0  0  0  0  0  0  0  0
   52.8220  153.2920   26.4500 C   0  0  0  0  0  0  0  0  0  0  0  0
   53.3340  154.5700   25.9540 C   0  0  0  0  0  0  0  0  0  0  0  0
   54.0000  154.6490   24.9230 O   0  0  0  0  0  0  0  0  0  0  0  0
   53.0240  155.7850   26.7420 C   0  0  0  0  0  0  0  0  0  0  0  0
   53.5020  156.9890   26.2580 O   0  0  0  0  0  0  0  0  0  0  0  0
   52.8050  157.8530   28.9120 C   0  0  0  0  0  0  0  0  0  0  0  0
   52.4540  158.9500   29.7040 C   0  0  0  0  0  0  0  0  0  0  0  0
   51.1950  159.0260   30.3270 C   0  0  0  0  0  0  0  0  0  0  0  0
   50.8660  160.2410   31.1710 C   0  0  0  0  0  0  0  0  0  0  0  0
   50.1070  161.1590   30.5120 F   0  0  0  0  0  0  0  0  0  0  0  0
   51.9810  160.9030   31.5890 F   0  0  0  0  0  0  0  0  0  0  0  0
   50.1710  159.9410   32.3050 F   0  0  0  0  0  0  0  0  0  0  0  0
   47.3351  159.4388   30.7691 H   0  0  0  0  0  0  0  0  0  0  0  0
   48.4930  159.5806   29.4032 H   0  0  0  0  0  0  0  0  0  0  0  0
   47.2597  158.2747   29.4032 H   0  0  0  0  0  0  0  0  0  0  0  0
   48.9880  158.2920   31.8071 H   0  0  0  0  0  0  0  0  0  0  0  0
   48.5097  156.9336   30.7031 H   0  0  0  0  0  0  0  0  0  0  0  0
   49.9291  156.0566   29.1743 H   0  0  0  0  0  0  0  0  0  0  0  0
   50.9686  152.1038   29.0562 H   0  0  0  0  0  0  0  0  0  0  0  0
   51.4077  149.9565   27.8604 H   0  0  0  0  0  0  0  0  0  0  0  0
   52.7564  149.9498   25.7587 H   0  0  0  0  0  0  0  0  0  0  0  0
   54.4920  151.3920   24.5500 H   0  0  0  0  0  0  0  0  0  0  0  0
   52.9500  157.7460   26.2600 H   0  0  0  0  0  0  0  0  0  0  0  0
   53.7956  157.8209   28.4348 H   0  0  0  0  0  0  0  0  0  0  0  0
   53.1754  159.7688   29.8426 H   0  0  0  0  0  0  0  0  0  0  0  0
  1  2  1  0
  2  3  1  0
  3  4  2  0
  4  5  1  0
  5  6  1  0
  6  7  1  0
  7  8  1  0
  8  9  2  0
  9 10  1  0
 10 11  2  0
 11 12  1  0
 12 13  1  0
 12 14  2  0
 14 15  1  0
 15 16  2  0
 15 17  1  0
 17 18  1  0
  5 19  2  0
 19 20  1  0
 20 21  2  0
 21 22  1  0
 22 23  1  0
 22 24  1  0
 22 25  1  0
 21  3  1  0
 17  6  2  0
 14  8  1  0
  1 26  1  0
  1 27  1  0
  1 28  1  0
  2 29  1  0
  2 30  1  0
  4 31  1  0
  9 32  1  0
 10 33  1  0
 11 34  1  0
 13 35  1  0
 18 36  1  0
 19 37  1  0
 20 38  1  0
M  END
>  <meeko>  (7) 
{"is_sidechain": [false], "free_energy": -8.17, "intermolecular_energy": -10.292, "internal_energy": 0.013}

$$$$
