cand_050_out
     RDKit          3D

 38 40  0  0  0  0  0  0  0  0999 V2000
   50.0210  161.2150   33.0720 C   0  0  0  0  0  0  0  0  0  0  0  0
   50.1480  161.4280   31.5700 C   0  0  0  0  0  0  0  0  0  0  0  0
   50.5500  160.1600   30.8500 C   0  0  0  0  0  0  0  0  0  0  0  0
   51.8960  160.0080   30.4740 C   0  0  0  0  0  0  0  0  0  0  0  0
   52.3300  158.8660   29.7980 C   0  0  0  0  0  0  0  0  0  0  0  0
   51.4350  157.8400   29.4810 C   0  0  0  0  0  0  0  0  0  0  0  0
   51.9120  156.6470   28.7490 C   0  0  0  0  0  0  0  0  0  0  0  0
   52.5280  156.9620   27.5430 O   0  0  0  0  0  0  0  0  0  0  0  0
   53.0160  155.9440   26.7640 C   0  0  0  0  0  0  0  0  0  0  0  0
   53.6130  156.3040   25.5540 C   0  0  0  0  0  0  0  0  0  0  0  0
   54.1340  155.3170   24.7140 C   0  0  0  0  0  0  0  0  0  0  0  0
   54.0580  153.9730   25.0830 C   0  0  0  0  0  0  0  0  0  0  0  0
   53.4620  153.6170   26.2900 C   0  0  0  0  0  0  0  0  0  0  0  0
   53.4210  152.2820   26.5890 O   0  0  0  0  0  0  0  0  0  0  0  0
   52.9400  154.6040   27.1310 C   0  0  0  0  0  0  0  0  0  0  0  0
   52.3060  154.2730   28.4070 C   0  0  0  0  0  0  0  0  0  0  0  0
   52.2070  153.1140   28.8050 O   0  0  0  0  0  0  0  0  0  0  0  0
   51.7790  155.3930   29.2200 C   0  0  0  0  0  0  0  0  0  0  0  0
   51.1930  155.0730   30.4300 O   0  0  0  0  0  0  0  0  0  0  0  0
   50.0890  157.9960   29.8400 C   0  0  0  0  0  0  0  0  0  0  0  0
   49.6270  159.1430   30.5220 C   0  0  0  0  0  0  0  0  0  0  0  0
   48.1620  159.2320   30.8920 C   0  0  0  0  0  0  0  0  0  0  0  0
   47.6520  160.4950   30.8110 F   0  0  0  0  0  0  0  0  0  0  0  0
   47.9120  158.8240   32.1680 F   0  0  0  0  0  0  0  0  0  0  0  0
   47.3720  158.4650   30.0900 F   0  0  0  0  0  0  0  0  0  0  0  0
   50.5144  162.0426   33.6027 H   0  0  0  0  0  0  0  0  0  0  0  0
   48.9570  161.1842   33.3493 H   0  0  0  0  0  0  0  0  0  0  0  0
   50.4998  160.2643   33.3493 H   0  0  0  0  0  0  0  0  0  0  0  0
   49.1788  161.7679   31.1763 H   0  0  0  0  0  0  0  0  0  0  0  0
   50.9327  162.1795   31.3985 H   0  0  0  0  0  0  0  0  0  0  0  0
   52.6186  160.8012   30.7162 H   0  0  0  0  0  0  0  0  0  0  0  0
   53.3880  158.7726   29.5117 H   0  0  0  0  0  0  0  0  0  0  0  0
   53.6729  157.3631   25.2628 H   0  0  0  0  0  0  0  0  0  0  0  0
   54.6047  155.5992   23.7607 H   0  0  0  0  0  0  0  0  0  0  0  0
   54.4684  153.1961   24.4212 H   0  0  0  0  0  0  0  0  0  0  0  0
   53.6050  151.9910   27.4600 H   0  0  0  0  0  0  0  0  0  0  0  0
   50.4740  155.5810   30.7510 H   0  0  0  0  0  0  0  0  0  0  0  0
   49.3721  157.2022   29.5831 H   0  0  0  0  0  0  0  0  0  0  0  0
  1  2  1  0
  2  3  1  0
  3  4  2  0
  4  5  1  0
  5  6  2  0
  6  7  1  0
  7  8  1  0
  8  9  1  0
  9 10  2  0
 10 11  1  0
 11 12  2  0
 12 13  1  0
 13 14  1  0
 13 15  2  0
 15 16  1  0
 16 17  2  0
 16 18  1  0
 18 19  1  0
  6 20  1  0
 20 21  2  0
 21 22  1  0
 22 23  1  0
 22 24  1  0
 22 25  1  0
 21  3  1  0
 18  7  2  0
 15  9  1  0
  1 26  1  0
  1 27  1  0
  1 28  1  0
  2 29  1  0
  2 30  1  0
  4 31  1  0
  5 32  1  0
 10 33  1  0
 11 34  1  0
 12 35  1  0
 14 36  1  0
 19 37  1  0
 20 38  1  0
M  END
>  <meeko>  (1) 
{"is_sidechain": [false], "free_energy": -10.803, "intermolecular_energy": -13.33, "internal_energy": -0.315}

$$$$
cand_050_out
     RDKit          3D

 38 40  0  0  0  0  0  0  0  0999 V2000
   47.4820  159.9030   31.7030 C   0  0  0  0  0  0  0  0  0  0  0  0
   48.9630  160.2510   31.6460 C   0  0  0  0  0  0  0  0  0  0  0  0
   49.7520  159.2390   30.8440 C   0  0  0  0  0  0  0  0  0  0  0  0
   49.1320  158.0210   30.5180 C   0  0  0  0  0  0  0  0  0  0  0  0
   49.8080  157.0410   29.7880 C   0  0  0  0  0  0  0  0  0  0  0  0
   51.1220  157.2500   29.3570 C   0  0  0  0  0  0  0  0  0  0  0  0
   51.8260  156.1930   28.6010 C   0  0  0  0  0  0  0  0  0  0  0  0
   52.3590  156.6490   27.4010 O   0  0  0  0  0  0  0  0  0  0  0  0
   53.0390  155.7670   26.6000 C   0  0  0  0  0  0  0  0  0  0  0  0
   53.5440  156.2630   25.3980 C   0  0  0  0  0  0  0  0  0  0  0  0
   54.2490  155.4180   24.5370 C   0  0  0  0  0  0  0  0  0  0  0  0
   54.4490  154.0790   24.8800 C   0  0  0  0  0  0  0  0  0  0  0  0
   53.9430  153.5870   26.0800 C   0  0  0  0  0  0  0  0  0  0  0  0
   54.1750  152.2660   26.3520 O   0  0  0  0  0  0  0  0  0  0  0  0
   53.2370  154.4320   26.9410 C   0  0  0  0  0  0  0  0  0  0  0  0
   52.6900  153.9550   28.2110 C   0  0  0  0  0  0  0  0  0  0  0  0
   52.8300  152.7930   28.5860 O   0  0  0  0  0  0  0  0  0  0  0  0
   51.9520  154.9290   29.0470 C   0  0  0  0  0  0  0  0  0  0  0  0
   51.4490  154.4740   30.2520 O   0  0  0  0  0  0  0  0  0  0  0  0
   51.7480  158.4590   29.6950 C   0  0  0  0  0  0  0  0  0  0  0  0
   51.0850  159.4620   30.4340 C   0  0  0  0  0  0  0  0  0  0  0  0
   51.8210  160.7470   30.7450 C   0  0  0  0  0  0  0  0  0  0  0  0
   53.1250  160.7420   30.3420 F   0  0  0  0  0  0  0  0  0  0  0  0
   51.8570  161.0310   32.0770 F   0  0  0  0  0  0  0  0  0  0  0  0
   51.2570  161.8320   30.1440 F   0  0  0  0  0  0  0  0  0  0  0  0
   47.1631  159.8281   32.7531 H   0  0  0  0  0  0  0  0  0  0  0  0
   46.9010  160.6891   31.1985 H   0  0  0  0  0  0  0  0  0  0  0  0
   47.3119  158.9404   31.1985 H   0  0  0  0  0  0  0  0  0  0  0  0
   49.0777  161.2408   31.1801 H   0  0  0  0  0  0  0  0  0  0  0  0
   49.3528  160.2482   32.6746 H   0  0  0  0  0  0  0  0  0  0  0  0
   48.0975  157.8364   30.8430 H   0  0  0  0  0  0  0  0  0  0  0  0
   49.3014  156.0942   29.5493 H   0  0  0  0  0  0  0  0  0  0  0  0
   53.3874  157.3179   25.1283 H   0  0  0  0  0  0  0  0  0  0  0  0
   54.6468  155.8077   23.5884 H   0  0  0  0  0  0  0  0  0  0  0  0
   55.0055  153.4141   24.2030 H   0  0  0  0  0  0  0  0  0  0  0  0
   54.9280  151.8390   25.9950 H   0  0  0  0  0  0  0  0  0  0  0  0
   50.9960  153.6550   30.2900 H   0  0  0  0  0  0  0  0  0  0  0  0
   52.7863  158.6303   29.3746 H   0  0  0  0  0  0  0  0  0  0  0  0
  1  2  1  0
  2  3  1  0
  3  4  2  0
  4  5  1  0
  5  6  2  0
  6  7  1  0
  7  8  1  0
  8  9  1  0
  9 10  2  0
 10 11  1  0
 11 12  2  0
 12 13  1  0
 13 14  1  0
 13 15  2  0
 15 16  1  0
 16 17  2  0
 16 18  1  0
 18 19  1  0
  6 20  1  0
 20 21  2  0
 21 22  1  0
 22 23  1  0
 22 24  1  0
 22 25  1  0
 21  3  1  0
 18  7  2  0
 15  9  1  0
  1 26  1  0
  1 27  1  0
  1 28  1  0
  2 29  1  0
  2 30  1  0
  4 31  1  0
  5 32  1  0
 10 33  1  0
 11 34  1  0
 12 35  1  0
 14 36  1  0
 19 37  1  0
 20 38  1  0
M  END
>  <meeko>  (2) 
{"is_sidechain": [false], "free_energy": -10.766, "intermolecular_energy": -13.201, "internal_energy": -0.397}

$$$$
cand_050_out
     RDKit          3D

 38 40  0  0  0  0  0  0  0  0999 V2000
   52.1160  151.5720   26.6470 C   0  0  0  0  0  0  0  0  0  0  0  0
   53.2030  152.6300   26.5220 C   0  0  0  0  0  0  0  0  0  0  0  0
   52.8160  153.9240   27.2040 C   0  0  0  0  0  0  0  0  0  0  0  0
   52.2320  153.8520   28.4810 C   0  0  0  0  0  0  0  0  0  0  0  0
   51.8430  155.0090   29.1600 C   0  0  0  0  0  0  0  0  0  0  0  0
   52.0300  156.2710   28.5880 C   0  0  0  0  0  0  0  0  0  0  0  0
   51.5940  157.4810   29.3170 C   0  0  0  0  0  0  0  0  0  0  0  0
   50.2600  157.4290   29.7050 O   0  0  0  0  0  0  0  0  0  0  0  0
   49.7290  158.4920   30.3910 C   0  0  0  0  0  0  0  0  0  0  0  0
   48.3820  158.4050   30.7480 C   0  0  0  0  0  0  0  0  0  0  0  0
   47.7790  159.4510   31.4490 C   0  0  0  0  0  0  0  0  0  0  0  0
   48.5210  160.5820   31.7940 C   0  0  0  0  0  0  0  0  0  0  0  0
   49.8640  160.6660   31.4370 C   0  0  0  0  0  0  0  0  0  0  0  0
   50.5320  161.8030   31.8060 O   0  0  0  0  0  0  0  0  0  0  0  0
   50.4680  159.6200   30.7340 C   0  0  0  0  0  0  0  0  0  0  0  0
   51.8760  159.6680   30.3390 C   0  0  0  0  0  0  0  0  0  0  0  0
   52.5970  160.6260   30.6120 O   0  0  0  0  0  0  0  0  0  0  0  0
   52.4170  158.5110   29.5910 C   0  0  0  0  0  0  0  0  0  0  0  0
   53.7510  158.5580   29.2320 O   0  0  0  0  0  0  0  0  0  0  0  0
   52.5970  156.3440   27.3080 C   0  0  0  0  0  0  0  0  0  0  0  0
   52.9950  155.1880   26.6020 C   0  0  0  0  0  0  0  0  0  0  0  0
   53.6180  155.3490   25.2310 C   0  0  0  0  0  0  0  0  0  0  0  0
   54.9010  154.8910   25.1560 F   0  0  0  0  0  0  0  0  0  0  0  0
   53.6750  156.6480   24.8230 F   0  0  0  0  0  0  0  0  0  0  0  0
   52.9330  154.6790   24.2630 F   0  0  0  0  0  0  0  0  0  0  0  0
   51.9152  151.3765   27.7107 H   0  0  0  0  0  0  0  0  0  0  0  0
   51.1972  151.9310   26.1603 H   0  0  0  0  0  0  0  0  0  0  0  0
   52.4501  150.6438   26.1603 H   0  0  0  0  0  0  0  0  0  0  0  0
   54.1255  152.2476   26.9833 H   0  0  0  0  0  0  0  0  0  0  0  0
   53.3505  152.8407   25.4525 H   0  0  0  0  0  0  0  0  0  0  0  0
   52.0792  152.8699   28.9523 H   0  0  0  0  0  0  0  0  0  0  0  0
   51.3842  154.9263   30.1563 H   0  0  0  0  0  0  0  0  0  0  0  0
   47.7968  157.5137   30.4774 H   0  0  0  0  0  0  0  0  0  0  0  0
   46.7176  159.3838   31.7299 H   0  0  0  0  0  0  0  0  0  0  0  0
   48.0454  161.4054   32.3470 H   0  0  0  0  0  0  0  0  0  0  0  0
   50.3880  162.1760   32.6520 H   0  0  0  0  0  0  0  0  0  0  0  0
   54.2350  159.3550   29.3310 H   0  0  0  0  0  0  0  0  0  0  0  0
   52.7357  157.3300   26.8404 H   0  0  0  0  0  0  0  0  0  0  0  0
  1  2  1  0
  2  3  1  0
  3  4  2  0
  4  5  1  0
  5  6  2  0
  6  7  1  0
  7  8  1  0
  8  9  1  0
  9 10  2  0
 10 11  1  0
 11 12  2  0
 12 13  1  0
 13 14  1  0
 13 15  2  0
 15 16  1  0
 16 17  2  0
 16 18  1  0
 18 19  1  0
  6 20  1  0
 20 21  2  0
 21 22  1  0
 22 23  1  0
 22 24  1  0
 22 25  1  0
 21  3  1  0
 18  7  2  0
 15  9  1  0
  1 26  1  0
  1 27  1  0
  1 28  1  0
  2 29  1  0
  2 30  1  0
  4 31  1  0
  5 32  1  0
 10 33  1  0
 11 34  1  0
 12 35  1  0
 14 36  1  0
 19 37  1  0
 20 38  1  0
M  END
>  <meeko>  (3) 
{"is_sidechain": [false], "free_energy": -10.733, "intermolecular_energy": -13.066, "internal_energy": -0.492}

$$$$
cand_050_out
     RDKit          3D

 38 40  0  0  0  0  0  0  0  0999 V2000
   52.5710  151.6350   26.1050 C   0  0  0  0  0  0  0  0  0  0  0  0
   53.6290  152.6370   26.5460 C   0  0  0  0  0  0  0  0  0  0  0  0
   53.0190  153.8390   27.2340 C   0  0  0  0  0  0  0  0  0  0  0  0
   52.4620  153.6600   28.5120 C   0  0  0  0  0  0  0  0  0  0  0  0
   51.8750  154.7260   29.1970 C   0  0  0  0  0  0  0  0  0  0  0  0
   51.8310  156.0030   28.6290 C   0  0  0  0  0  0  0  0  0  0  0  0
   51.1890  157.1140   29.3640 C   0  0  0  0  0  0  0  0  0  0  0  0
   52.0560  158.1730   29.6100 O   0  0  0  0  0  0  0  0  0  0  0  0
   51.5860  159.2700   30.2860 C   0  0  0  0  0  0  0  0  0  0  0  0
   52.4930  160.3030   30.5250 C   0  0  0  0  0  0  0  0  0  0  0  0
   52.0790  161.4500   31.2060 C   0  0  0  0  0  0  0  0  0  0  0  0
   50.7590  161.5640   31.6460 C   0  0  0  0  0  0  0  0  0  0  0  0
   49.8560  160.5320   31.4070 C   0  0  0  0  0  0  0  0  0  0  0  0
   48.5790  160.7090   31.8660 O   0  0  0  0  0  0  0  0  0  0  0  0
   50.2710  159.3830   30.7260 C   0  0  0  0  0  0  0  0  0  0  0  0
   49.3540  158.2760   30.4540 C   0  0  0  0  0  0  0  0  0  0  0  0
   48.1750  158.3040   30.8030 O   0  0  0  0  0  0  0  0  0  0  0  0
   49.8950  157.1010   29.7330 C   0  0  0  0  0  0  0  0  0  0  0  0
   49.0190  156.0650   29.4680 O   0  0  0  0  0  0  0  0  0  0  0  0
   52.3720  156.1800   27.3470 C   0  0  0  0  0  0  0  0  0  0  0  0
   52.9670  155.1170   26.6360 C   0  0  0  0  0  0  0  0  0  0  0  0
   53.5460  155.3900   25.2640 C   0  0  0  0  0  0  0  0  0  0  0  0
   54.8820  155.1270   25.1710 F   0  0  0  0  0  0  0  0  0  0  0  0
   53.4080  156.6900   24.8790 F   0  0  0  0  0  0  0  0  0  0  0  0
   52.9570  154.6440   24.2880 F   0  0  0  0  0  0  0  0  0  0  0  0
   52.0981  151.1871   26.9914 H   0  0  0  0  0  0  0  0  0  0  0  0
   51.8077  152.1491   25.5025 H   0  0  0  0  0  0  0  0  0  0  0  0
   53.0428  150.8448   25.5025 H   0  0  0  0  0  0  0  0  0  0  0  0
   54.3193  152.1406   27.2439 H   0  0  0  0  0  0  0  0  0  0  0  0
   54.1572  152.9908   25.6484 H   0  0  0  0  0  0  0  0  0  0  0  0
   52.4889  152.6648   28.9798 H   0  0  0  0  0  0  0  0  0  0  0  0
   51.4424  154.5593   30.1945 H   0  0  0  0  0  0  0  0  0  0  0  0
   53.5329  160.2141   30.1775 H   0  0  0  0  0  0  0  0  0  0  0  0
   52.7937  162.2643   31.3958 H   0  0  0  0  0  0  0  0  0  0  0  0
   50.4329  162.4682   32.1809 H   0  0  0  0  0  0  0  0  0  0  0  0
   48.3800  161.4280   32.4320 H   0  0  0  0  0  0  0  0  0  0  0  0
   48.8120  155.4440   30.1380 H   0  0  0  0  0  0  0  0  0  0  0  0
   52.3311  157.1764   26.8828 H   0  0  0  0  0  0  0  0  0  0  0  0
  1  2  1  0
  2  3  1  0
  3  4  2  0
  4  5  1  0
  5  6  2  0
  6  7  1  0
  7  8  1  0
  8  9  1  0
  9 10  2  0
 10 11  1  0
 11 12  2  0
 12 13  1  0
 13 14  1  0
 13 15  2  0
 15 16  1  0
 16 17  2  0
 16 18  1  0
 18 19  1  0
  6 20  1  0
 20 21  2  0
 21 22  1  0
 22 23  1  0
 22 24  1  0
 22 25  1  0
 21  3  1  0
 18  7  2  0
 15  9  1  0
  1 26  1  0
  1 27  1  0
  1 28  1  0
  2 29  1  0
  2 30  1  0
  4 31  1  0
  5 32  1  0
 10 33  1  0
 11 34  1  0
 12 35  1  0
 14 36  1  0
 19 37  1  0
 20 38  1  0
M  END
>  <meeko>  (4) 
{"is_sidechain": [false], "free_energy": -9.85, "intermolecular_energy": -11.913, "internal_energy": -0.556}

$$$$
cand_050_out
     RDKit          3D

 38 40  0  0  0  0  0  0  0  0999 V2000
   52.9420  154.4740   24.7350 C   0  0  0  0  0  0  0  0  0  0  0  0
   53.4400  154.2560   26.1560 C   0  0  0  0  0  0  0  0  0  0  0  0
   52.8830  155.2840   27.1160 C   0  0  0  0  0  0  0  0  0  0  0  0
   52.9700  156.6410   26.7590 C   0  0  0  0  0  0  0  0  0  0  0  0
   52.4840  157.6400   27.6050 C   0  0  0  0  0  0  0  0  0  0  0  0
   51.8920  157.3150   28.8290 C   0  0  0  0  0  0  0  0  0  0  0  0
   51.4000  158.3890   29.7170 C   0  0  0  0  0  0  0  0  0  0  0  0
   50.0650  158.2300   30.0720 O   0  0  0  0  0  0  0  0  0  0  0  0
   49.4830  159.1610   30.8950 C   0  0  0  0  0  0  0  0  0  0  0  0
   48.1370  158.9700   31.2130 C   0  0  0  0  0  0  0  0  0  0  0  0
   47.4840  159.8800   32.0480 C   0  0  0  0  0  0  0  0  0  0  0  0
   48.1760  160.9770   32.5650 C   0  0  0  0  0  0  0  0  0  0  0  0
   49.5180  161.1640   32.2450 C   0  0  0  0  0  0  0  0  0  0  0  0
   50.1340  162.2610   32.7850 O   0  0  0  0  0  0  0  0  0  0  0  0
   50.1710  160.2550   31.4090 C   0  0  0  0  0  0  0  0  0  0  0  0
   51.5800  160.4150   31.0490 C   0  0  0  0  0  0  0  0  0  0  0  0
   52.2590  161.3510   31.4680 O   0  0  0  0  0  0  0  0  0  0  0  0
   52.1760  159.4000   30.1500 C   0  0  0  0  0  0  0  0  0  0  0  0
   53.5120  159.5510   29.8240 O   0  0  0  0  0  0  0  0  0  0  0  0
   51.8180  155.9630   29.1940 C   0  0  0  0  0  0  0  0  0  0  0  0
   52.3060  154.9370   28.3570 C   0  0  0  0  0  0  0  0  0  0  0  0
   52.1740  153.4990   28.8120 C   0  0  0  0  0  0  0  0  0  0  0  0
   51.4600  152.7160   27.9520 F   0  0  0  0  0  0  0  0  0  0  0  0
   51.5450  153.3780   30.0150 F   0  0  0  0  0  0  0  0  0  0  0  0
   53.3800  152.8820   28.9540 F   0  0  0  0  0  0  0  0  0  0  0  0
   51.9347  154.9150   24.7631 H   0  0  0  0  0  0  0  0  0  0  0  0
   53.6258  155.1551   24.2073 H   0  0  0  0  0  0  0  0  0  0  0  0
   52.9055  153.5096   24.2073 H   0  0  0  0  0  0  0  0  0  0  0  0
   53.1321  153.2543   26.4904 H   0  0  0  0  0  0  0  0  0  0  0  0
   54.5356  154.3546   26.1508 H   0  0  0  0  0  0  0  0  0  0  0  0
   53.4279  156.9201   25.7986 H   0  0  0  0  0  0  0  0  0  0  0  0
   52.5680  158.6949   27.3048 H   0  0  0  0  0  0  0  0  0  0  0  0
   47.5920  158.1050   30.8070 H   0  0  0  0  0  0  0  0  0  0  0  0
   46.4232  159.7321   32.2985 H   0  0  0  0  0  0  0  0  0  0  0  0
   47.6618  161.6922   33.2239 H   0  0  0  0  0  0  0  0  0  0  0  0
   51.0680  162.3290   32.7680 H   0  0  0  0  0  0  0  0  0  0  0  0
   54.1730  159.3540   30.4580 H   0  0  0  0  0  0  0  0  0  0  0  0
   51.3666  155.6945   30.1605 H   0  0  0  0  0  0  0  0  0  0  0  0
  1  2  1  0
  2  3  1  0
  3  4  2  0
  4  5  1  0
  5  6  2  0
  6  7  1  0
  7  8  1  0
  8  9  1  0
  9 10  2  0
 10 11  1  0
 11 12  2  0
 12 13  1  0
 13 14  1  0
 13 15  2  0
 15 16  1  0
 16 17  2  0
 16 18  1  0
 18 19  1  0
  6 20  1  0
 20 21  2  0
 21 22  1  0
 22 23  1  0
 22 24  1  0
 22 25  1  0
 21  3  1  0
 18  7  2  0
 15  9  1  0
  1 26  1  0
  1 27  1  0
  1 28  1  0
  2 29  1  0
  2 30  1  0
  4 31  1  0
  5 32  1  0
 10 33  1  0
 11 34  1  0
 12 35  1  0
 14 36  1  0
 19 37  1  0
 20 38  1  0
M  END
>  <meeko>  (5) 
{"is_sidechain": [false], "free_energy": -9.215, "intermolecular_energy": -11.219, "internal_energy": -0.466}

$$$$
cand_050_out
     RDKit          3D

 38 40  0  0  0  0  0  0  0  0999 V2000
   47.8200  159.4550   30.8040 C   0  0  0  0  0  0  0  0  0  0  0  0
   48.9590  158.7080   31.4840 C   0  0  0  0  0  0  0  0  0  0  0  0
   49.7970  157.9300   30.4930 C   0  0  0  0  0  0  0  0  0  0  0  0
   49.3550  156.6530   30.1080 C   0  0  0  0  0  0  0  0  0  0  0  0
   50.0870  155.8800   29.2040 C   0  0  0  0  0  0  0  0  0  0  0  0
   51.2800  156.3590   28.6560 C   0  0  0  0  0  0  0  0  0  0  0  0
   52.0490  155.5170   27.7150 C   0  0  0  0  0  0  0  0  0  0  0  0
   51.7050  154.1720   27.7860 O   0  0  0  0  0  0  0  0  0  0  0  0
   52.3460  153.2800   26.9650 C   0  0  0  0  0  0  0  0  0  0  0  0
   51.9810  151.9390   27.0800 C   0  0  0  0  0  0  0  0  0  0  0  0
   52.5930  150.9780   26.2700 C   0  0  0  0  0  0  0  0  0  0  0  0
   53.5680  151.3600   25.3480 C   0  0  0  0  0  0  0  0  0  0  0  0
   53.9310  152.6990   25.2350 C   0  0  0  0  0  0  0  0  0  0  0  0
   54.8930  153.0030   24.3110 O   0  0  0  0  0  0  0  0  0  0  0  0
   53.3190  153.6600   26.0450 C   0  0  0  0  0  0  0  0  0  0  0  0
   53.6710  155.0780   25.9590 C   0  0  0  0  0  0  0  0  0  0  0  0
   54.5150  155.4930   25.1670 O   0  0  0  0  0  0  0  0  0  0  0  0
   52.9700  156.0130   26.8670 C   0  0  0  0  0  0  0  0  0  0  0  0
   53.2980  157.3530   26.7710 O   0  0  0  0  0  0  0  0  0  0  0  0
   51.7320  157.6270   29.0510 C   0  0  0  0  0  0  0  0  0  0  0  0
   51.0100  158.4250   29.9650 C   0  0  0  0  0  0  0  0  0  0  0  0
   51.5520  159.7900   30.3290 C   0  0  0  0  0  0  0  0  0  0  0  0
   51.5230  160.0510   31.6690 F   0  0  0  0  0  0  0  0  0  0  0  0
   50.8590  160.8090   29.7490 F   0  0  0  0  0  0  0  0  0  0  0  0
   52.8500  159.9550   29.9530 F   0  0  0  0  0  0  0  0  0  0  0  0
   47.1583  159.8890   31.5681 H   0  0  0  0  0  0  0  0  0  0  0  0
   48.2319  160.2589   30.1763 H   0  0  0  0  0  0  0  0  0  0  0  0
   47.2468  158.7569   30.1763 H   0  0  0  0  0  0  0  0  0  0  0  0
   49.6029  159.4354   31.9999 H   0  0  0  0  0  0  0  0  0  0  0  0
   48.5199  157.9919   32.1942 H   0  0  0  0  0  0  0  0  0  0  0  0
   48.4178  156.2559   30.5251 H   0  0  0  0  0  0  0  0  0  0  0  0
   49.7202  154.8826   28.9200 H   0  0  0  0  0  0  0  0  0  0  0  0
   51.2125  151.6378   27.8071 H   0  0  0  0  0  0  0  0  0  0  0  0
   52.3057  149.9200   26.3596 H   0  0  0  0  0  0  0  0  0  0  0  0
   54.0495  150.6035   24.7109 H   0  0  0  0  0  0  0  0  0  0  0  0
   55.1230  153.8960   24.1500 H   0  0  0  0  0  0  0  0  0  0  0  0
   54.1730  157.6350   26.9510 H   0  0  0  0  0  0  0  0  0  0  0  0
   52.6761  158.0105   28.6367 H   0  0  0  0  0  0  0  0  0  0  0  0
  1  2  1  0
  2  3  1  0
  3  4  2  0
  4  5  1  0
  5  6  2  0
  6  7  1  0
  7  8  1  0
  8  9  1  0
  9 10  2  0
 10 11  1  0
 11 12  2  0
 12 13  1  0
 13 14  1  0
 13 15  2  0
 15 16  1  0
 16 17  2  0
 16 18  1  0
 18 19  1  0
  6 20  1  0
 20 21  2  0
 21 22  1  0
 22 23  1  0
 22 24  1  0
 22 25  1  0
 21  3  1  0
 18  7  2  0
 15  9  1  0
  1 26  1  0
  1 27  1  0
  1 28  1  0
  2 29  1  0
  2 30  1  0
  4 31  1  0
  5 32  1  0
 10 33  1  0
 11 34  1  0
 12 35  1  0
 14 36  1  0
 19 37  1  0
 20 38  1  0
M  END
>  <meeko>  (6) 
{"is_sidechain": [false], "free_energy": -8.649, "intermolecular_energy": -10.867, "internal_energy": -0.12}

$$$$
cand_050_out
     RDKit          3D

 38 40  0  0  0  0  0  0  0  0999 V2000
   54.8980  155.0370   24.4930 C   0  0  0  0  0  0  0  0  0  0  0  0
   53.9780  154.2090   25.3780 C   0  0  0  0  0  0  0  0  0  0  0  0
   53.2640  155.0590   26.4060 C   0  0  0  0  0  0  0  0  0  0  0  0
   53.4160  156.4550   26.3340 C   0  0  0  0  0  0  0  0  0  0  0  0
   52.7910  157.2950   27.2580 C   0  0  0  0  0  0  0  0  0  0  0  0
   51.9940  156.7690   28.2780 C   0  0  0  0  0  0  0  0  0  0  0  0
   51.3560  157.6750   29.2570 C   0  0  0  0  0  0  0  0  0  0  0  0
   52.1120  158.8140   29.5130 O   0  0  0  0  0  0  0  0  0  0  0  0
   51.6330  159.7390   30.4050 C   0  0  0  0  0  0  0  0  0  0  0  0
   52.4310  160.8590   30.6430 C   0  0  0  0  0  0  0  0  0  0  0  0
   52.0010  161.8420   31.5390 C   0  0  0  0  0  0  0  0  0  0  0  0
   50.7760  161.7040   32.1930 C   0  0  0  0  0  0  0  0  0  0  0  0
   49.9830  160.5860   31.9540 C   0  0  0  0  0  0  0  0  0  0  0  0
   48.7950  160.5140   32.6290 O   0  0  0  0  0  0  0  0  0  0  0  0
   50.4130  159.6020   31.0580 C   0  0  0  0  0  0  0  0  0  0  0  0
   49.6100  158.4120   30.7780 C   0  0  0  0  0  0  0  0  0  0  0  0
   48.5170  158.2220   31.3090 O   0  0  0  0  0  0  0  0  0  0  0  0
   50.1590  157.4260   29.8190 C   0  0  0  0  0  0  0  0  0  0  0  0
   49.3890  156.3100   29.5490 O   0  0  0  0  0  0  0  0  0  0  0  0
   51.8540  155.3760   28.3620 C   0  0  0  0  0  0  0  0  0  0  0  0
   52.4780  154.5070   27.4410 C   0  0  0  0  0  0  0  0  0  0  0  0
   52.2660  153.0150   27.5850 C   0  0  0  0  0  0  0  0  0  0  0  0
   51.4420  152.4850   26.6340 F   0  0  0  0  0  0  0  0  0  0  0  0
   51.7050  152.6720   28.7790 F   0  0  0  0  0  0  0  0  0  0  0  0
   53.4270  152.3100   27.4980 F   0  0  0  0  0  0  0  0  0  0  0  0
   55.5681  155.6401   25.1234 H   0  0  0  0  0  0  0  0  0  0  0  0
   55.4963  154.3672   23.8579 H   0  0  0  0  0  0  0  0  0  0  0  0
   54.2947  155.7024   23.8579 H   0  0  0  0  0  0  0  0  0  0  0  0
   53.2279  153.7129   24.7446 H   0  0  0  0  0  0  0  0  0  0  0  0
   54.5949  153.4733   25.9149 H   0  0  0  0  0  0  0  0  0  0  0  0
   54.0366  156.8920   25.5378 H   0  0  0  0  0  0  0  0  0  0  0  0
   52.9278  158.3838   27.1819 H   0  0  0  0  0  0  0  0  0  0  0  0
   53.3962  160.9679   30.1267 H   0  0  0  0  0  0  0  0  0  0  0  0
   52.6288  162.7251   31.7287 H   0  0  0  0  0  0  0  0  0  0  0  0
   50.4376  162.4785   32.8970 H   0  0  0  0  0  0  0  0  0  0  0  0
   48.3120  159.7130   32.6440 H   0  0  0  0  0  0  0  0  0  0  0  0
   48.4610  156.3940   29.4520 H   0  0  0  0  0  0  0  0  0  0  0  0
   51.2404  154.9484   29.1686 H   0  0  0  0  0  0  0  0  0  0  0  0
  1  2  1  0
  2  3  1  0
  3  4  2  0
  4  5  1  0
  5  6  2  0
  6  7  1  0
  7  8  1  0
  8  9  1  0
  9 10  2  0
 10 11  1  0
 11 12  2  0
 12 13  1  0
 13 14  1  0
 13 15  2  0
 15 16  1  0
 16 17  2  0
 16 18  1  0
 18 19  1  0
  6 20  1  0
 20 21  2  0
 21 22  1  0
 22 23  1  0
 22 24  1  0
 22 25  1  0
 21  3  1  0
 18  7  2  0
 15  9  1  0
  1 26  1  0
  1 27  1  0
  1 28  1  0
  2 29  1  0
  2 30  1  0
  4 31  1  0
  5 32  1  0
 10 33  1  0
 11 34  1  0
 12 35  1  0
 14 36  1  0
 19 37  1  0
 20 38  1  0
M  END
>  <meeko>  (7) 
{"is_sidechain": [false], "free_energy": -8.529, "intermolecular_energy": -10.693, "internal_energy": -0.146}

$$$$
cand_050_out
     RDKit          3D

 38 40  0  0  0  0  0  0  0  0999 V2000
   52.0690  161.2400   30.9960 C   0  0  0  0  0  0  0  0  0  0  0  0
   50.9590  160.1990   31.0250 C   0  0  0  0  0  0  0  0  0  0  0  0
   51.2880  158.9960   30.1680 C   0  0  0  0  0  0  0  0  0  0  0  0
   52.6030  158.8610   29.6910 C   0  0  0  0  0  0  0  0  0  0  0  0
   52.9700  157.7780   28.8880 C   0  0  0  0  0  0  0  0  0  0  0  0
   52.0360  156.7970   28.5410 C   0  0  0  0  0  0  0  0  0  0  0  0
   52.4410  155.6690   27.6750 C   0  0  0  0  0  0  0  0  0  0  0  0
   51.9110  154.4520   28.0890 O   0  0  0  0  0  0  0  0  0  0  0  0
   52.2100  153.3220   27.3710 C   0  0  0  0  0  0  0  0  0  0  0  0
   51.6700  152.1200   27.8290 C   0  0  0  0  0  0  0  0  0  0  0  0
   51.9330  150.9320   27.1430 C   0  0  0  0  0  0  0  0  0  0  0  0
   52.7340  150.9470   25.9990 C   0  0  0  0  0  0  0  0  0  0  0  0
   53.2710  152.1480   25.5440 C   0  0  0  0  0  0  0  0  0  0  0  0
   54.0470  152.0900   24.4180 O   0  0  0  0  0  0  0  0  0  0  0  0
   53.0090  153.3370   26.2310 C   0  0  0  0  0  0  0  0  0  0  0  0
   53.5540  154.6200   25.7870 C   0  0  0  0  0  0  0  0  0  0  0  0
   54.2620  154.7160   24.7860 O   0  0  0  0  0  0  0  0  0  0  0  0
   53.2230  155.8190   26.5900 C   0  0  0  0  0  0  0  0  0  0  0  0
   53.7310  157.0300   26.1570 O   0  0  0  0  0  0  0  0  0  0  0  0
   50.7200  156.9380   29.0030 C   0  0  0  0  0  0  0  0  0  0  0  0
   50.3260  158.0250   29.8140 C   0  0  0  0  0  0  0  0  0  0  0  0
   48.8910  158.0990   30.2890 C   0  0  0  0  0  0  0  0  0  0  0  0
   48.2340  159.2210   29.8750 F   0  0  0  0  0  0  0  0  0  0  0  0
   48.7800  158.0980   31.6470 F   0  0  0  0  0  0  0  0  0  0  0  0
   48.1390  157.0520   29.8490 F   0  0  0  0  0  0  0  0  0  0  0  0
   52.3508  161.5043   32.0259 H   0  0  0  0  0  0  0  0  0  0  0  0
   52.9436  160.8289   30.4706 H   0  0  0  0  0  0  0  0  0  0  0  0
   51.7148  162.1391   30.4706 H   0  0  0  0  0  0  0  0  0  0  0  0
   50.8114  159.8660   32.0629 H   0  0  0  0  0  0  0  0  0  0  0  0
   50.0467  160.6636   30.6228 H   0  0  0  0  0  0  0  0  0  0  0  0
   53.3550  159.6196   29.9539 H   0  0  0  0  0  0  0  0  0  0  0  0
   54.0051  157.6963   28.5248 H   0  0  0  0  0  0  0  0  0  0  0  0
   51.0379  152.1078   28.7292 H   0  0  0  0  0  0  0  0  0  0  0  0
   51.5088  149.9836   27.5042 H   0  0  0  0  0  0  0  0  0  0  0  0
   52.9402  150.0114   25.4585 H   0  0  0  0  0  0  0  0  0  0  0  0
   54.3890  152.8780   24.0440 H   0  0  0  0  0  0  0  0  0  0  0  0
   53.1600  157.7650   26.0490 H   0  0  0  0  0  0  0  0  0  0  0  0
   49.9726  156.1800   28.7258 H   0  0  0  0  0  0  0  0  0  0  0  0
  1  2  1  0
  2  3  1  0
  3  4  2  0
  4  5  1  0
  5  6  2  0
  6  7  1  0
  7  8  1  0
  8  9  1  0
  9 10  2  0
 10 11  1  0
 11 12  2  0
 12 13  1  0
 13 14  1  0
 13 15  2  0
 15 16  1  0
 16 17  2  0
 16 18  1  0
 18 19  1  0
  6 20  1  0
 20 21  2  0
 21 22  1  0
 22 23  1  0
 22 24  1  0
 22 25  1  0
 21  3  1  0
 18  7  2  0
 15  9  1  0
  1 26  1  0
  1 27  1  0
  1 28  1  0
  2 29  1  0
  2 30  1  0
  4 31  1  0
  5 32  1  0
 10 33  1  0
 11 34  1  0
 12 35  1  0
 14 36  1  0
 19 37  1  0
 20 38  1  0
M  END
>  <meeko>  (8) 
{"is_sidechain": [false], "free_energy": -7.849, "intermolecular_energy": -9.73, "internal_energy": -0.269}

$$$$
