cand_013_out
     RDKit          3D

 50 53  0  0  0  0  0  0  0  0999 V2000
   54.2340  149.2570   24.5980 C   0  0  0  0  0  0  0  0  0  0  0  0
   53.9660  150.2990   25.5870 N   0  0  0  0  0  0  0  0  0  0  0  0
   54.6300  151.5660   25.2020 C   0  0  0  0  0  0  0  0  0  0  0  0
   54.3290  152.7170   26.1900 C   0  0  0  0  0  0  0  0  0  0  0  0
   52.8650  152.9150   26.3020 N   0  0  0  0  0  0  0  0  0  0  0  0
   52.5140  154.0330   27.0780 C   0  0  0  0  0  0  0  0  0  0  0  0
   51.9890  153.9050   28.3720 C   0  0  0  0  0  0  0  0  0  0  0  0
   51.6510  155.0280   29.1330 C   0  0  0  0  0  0  0  0  0  0  0  0
   51.8350  156.3170   28.6230 C   0  0  0  0  0  0  0  0  0  0  0  0
   51.4620  157.5210   29.3940 C   0  0  0  0  0  0  0  0  0  0  0  0
   50.1250  157.5220   29.7790 O   0  0  0  0  0  0  0  0  0  0  0  0
   49.6440  158.5860   30.4990 C   0  0  0  0  0  0  0  0  0  0  0  0
   48.3010  158.5400   30.8740 C   0  0  0  0  0  0  0  0  0  0  0  0
   47.7470  159.5920   31.6090 C   0  0  0  0  0  0  0  0  0  0  0  0
   48.5350  160.6870   31.9670 C   0  0  0  0  0  0  0  0  0  0  0  0
   49.8750  160.7290   31.5920 C   0  0  0  0  0  0  0  0  0  0  0  0
   50.5900  161.8320   31.9750 O   0  0  0  0  0  0  0  0  0  0  0  0
   50.4290  159.6770   30.8570 C   0  0  0  0  0  0  0  0  0  0  0  0
   51.8320  159.6840   30.4410 C   0  0  0  0  0  0  0  0  0  0  0  0
   52.5880  160.6140   30.7120 O   0  0  0  0  0  0  0  0  0  0  0  0
   52.3230  158.5170   29.6710 C   0  0  0  0  0  0  0  0  0  0  0  0
   53.6460  158.5400   29.2700 O   0  0  0  0  0  0  0  0  0  0  0  0
   52.3520  156.4480   27.3270 C   0  0  0  0  0  0  0  0  0  0  0  0
   52.6980  155.3220   26.5490 C   0  0  0  0  0  0  0  0  0  0  0  0
   53.2560  155.5140   25.1600 C   0  0  0  0  0  0  0  0  0  0  0  0
   53.0290  156.7730   24.6710 F   0  0  0  0  0  0  0  0  0  0  0  0
   52.7110  154.6770   24.2290 F   0  0  0  0  0  0  0  0  0  0  0  0
   54.6080  155.3500   25.0840 F   0  0  0  0  0  0  0  0  0  0  0  0
   52.1770  151.6670   26.7110 C   0  0  0  0  0  0  0  0  0  0  0  0
   52.5080  150.5330   25.7130 C   0  0  0  0  0  0  0  0  0  0  0  0
   54.4761  148.3158   25.1134 H   0  0  0  0  0  0  0  0  0  0  0  0
   53.3440  149.1117   23.9681 H   0  0  0  0  0  0  0  0  0  0  0  0
   55.0837  149.5592   23.9681 H   0  0  0  0  0  0  0  0  0  0  0  0
   54.3350  149.9830   26.4840 H   0  0  0  0  0  0  0  0  0  0  0  0
   55.7171  151.4002   25.1743 H   0  0  0  0  0  0  0  0  0  0  0  0
   54.2404  151.8612   24.2166 H   0  0  0  0  0  0  0  0  0  0  0  0
   54.7398  152.4657   27.1790 H   0  0  0  0  0  0  0  0  0  0  0  0
   54.7926  153.6431   25.8194 H   0  0  0  0  0  0  0  0  0  0  0  0
   51.8402  152.9012   28.7966 H   0  0  0  0  0  0  0  0  0  0  0  0
   51.2361  154.8963   30.1432 H   0  0  0  0  0  0  0  0  0  0  0  0
   47.6793  157.6775   30.5918 H   0  0  0  0  0  0  0  0  0  0  0  0
   46.6884  159.5568   31.9057 H   0  0  0  0  0  0  0  0  0  0  0  0
   48.0981  161.5151   32.5443 H   0  0  0  0  0  0  0  0  0  0  0  0
   51.0820  162.3140   31.3390 H   0  0  0  0  0  0  0  0  0  0  0  0
   53.8610  158.4610   28.3610 H   0  0  0  0  0  0  0  0  0  0  0  0
   52.4918  157.4542   26.9051 H   0  0  0  0  0  0  0  0  0  0  0  0
   52.5142  151.3774   27.7172 H   0  0  0  0  0  0  0  0  0  0  0  0
   51.0904  151.8378   26.7181 H   0  0  0  0  0  0  0  0  0  0  0  0
   52.0301  149.6054   26.0611 H   0  0  0  0  0  0  0  0  0  0  0  0
   52.1302  150.8349   24.7250 H   0  0  0  0  0  0  0  0  0  0  0  0
  1  2  1  0
  2  3  1  0
  3  4  1  0
  4  5  1  0
  5  6  1  0
  6  7  2  0
  7  8  1  0
  8  9  2  0
  9 10  1  0
 10 11  1  0
 11 12  1  0
 12 13  2  0
 13 14  1  0
 14 15  2  0
 15 16  1  0
 16 17  1  0
 16 18  2  0
 18 19  1  0
 19 20  2  0
 19 21  1  0
 21 22  1  0
  9 23  1  0
 23 24  2  0
 24 25  1  0
 25 26  1  0
 25 27  1  0
 25 28  1  0
  5 29  1  0
 29 30  1  0
 30  2  1  0
 24  6  1  0
 21 10  2  0
 18 12  1  0
  1 31  1  0
  1 32  1  0
  1 33  1  0
  2 34  1  0
  3 35  1  0
  3 36  1  0
  4 37  1  0
  4 38  1  0
  7 39  1  0
  8 40  1  0
 13 41  1  0
 14 42  1  0
 15 43  1  0
 17 44  1  0
 22 45  1  0
 23 46  1  0
 29 47  1  0
 29 48  1  0
 30 49  1  0
 30 50  1  0
M  CHG  1   2   1
M  END
>  <meeko>  (1) 
{"is_sidechain": [false], "free_energy": -11.255, "intermolecular_energy": -13.886, "internal_energy": 0.141}

$$$$
cand_013_out
     RDKit          3D

 50 53  0  0  0  0  0  0  0  0999 V2000
   54.4370  149.4520   24.6340 C   0  0  0  0  0  0  0  0  0  0  0  0
   54.0770  150.4510   25.6380 N   0  0  0  0  0  0  0  0  0  0  0  0
   54.7680  151.7330   25.3660 C   0  0  0  0  0  0  0  0  0  0  0  0
   54.3750  152.8420   26.3710 C   0  0  0  0  0  0  0  0  0  0  0  0
   52.9050  153.0340   26.3600 N   0  0  0  0  0  0  0  0  0  0  0  0
   52.4830  154.1180   27.1470 C   0  0  0  0  0  0  0  0  0  0  0  0
   51.9310  153.9400   28.4250 C   0  0  0  0  0  0  0  0  0  0  0  0
   51.5200  155.0300   29.1970 C   0  0  0  0  0  0  0  0  0  0  0  0
   51.6560  156.3360   28.7170 C   0  0  0  0  0  0  0  0  0  0  0  0
   51.2060  157.5050   29.5000 C   0  0  0  0  0  0  0  0  0  0  0  0
   52.1870  158.4830   29.6230 O   0  0  0  0  0  0  0  0  0  0  0  0
   51.9020  159.6230   30.3300 C   0  0  0  0  0  0  0  0  0  0  0  0
   52.9120  160.5830   30.4170 C   0  0  0  0  0  0  0  0  0  0  0  0
   52.6870  161.7680   31.1240 C   0  0  0  0  0  0  0  0  0  0  0  0
   51.4560  161.9910   31.7420 C   0  0  0  0  0  0  0  0  0  0  0  0
   50.4500  161.0320   31.6520 C   0  0  0  0  0  0  0  0  0  0  0  0
   49.2680  161.3150   32.2810 O   0  0  0  0  0  0  0  0  0  0  0  0
   50.6750  159.8480   30.9460 C   0  0  0  0  0  0  0  0  0  0  0  0
   49.6450  158.8140   30.8290 C   0  0  0  0  0  0  0  0  0  0  0  0
   48.5390  158.9330   31.3500 O   0  0  0  0  0  0  0  0  0  0  0  0
   49.9820  157.5980   30.0520 C   0  0  0  0  0  0  0  0  0  0  0  0
   49.0090  156.6200   29.9620 O   0  0  0  0  0  0  0  0  0  0  0  0
   52.1990  156.5170   27.4370 C   0  0  0  0  0  0  0  0  0  0  0  0
   52.6180  155.4250   26.6480 C   0  0  0  0  0  0  0  0  0  0  0  0
   53.2010  155.6710   25.2780 C   0  0  0  0  0  0  0  0  0  0  0  0
   52.9290  156.9280   24.8080 F   0  0  0  0  0  0  0  0  0  0  0  0
   52.7190  154.8300   24.3170 F   0  0  0  0  0  0  0  0  0  0  0  0
   54.5610  155.5710   25.2350 F   0  0  0  0  0  0  0  0  0  0  0  0
   52.1900  151.7700   26.6540 C   0  0  0  0  0  0  0  0  0  0  0  0
   52.6130  150.6780   25.6430 C   0  0  0  0  0  0  0  0  0  0  0  0
   54.7689  148.5310   25.1357 H   0  0  0  0  0  0  0  0  0  0  0  0
   53.5616  149.2320   24.0053 H   0  0  0  0  0  0  0  0  0  0  0  0
   55.2515  149.8410   24.0053 H   0  0  0  0  0  0  0  0  0  0  0  0
   54.3680  150.0980   26.5500 H   0  0  0  0  0  0  0  0  0  0  0  0
   55.8539  151.5688   25.4285 H   0  0  0  0  0  0  0  0  0  0  0  0
   54.4672  152.0689   24.3626 H   0  0  0  0  0  0  0  0  0  0  0  0
   54.6973  152.5497   27.3813 H   0  0  0  0  0  0  0  0  0  0  0  0
   54.8657  153.7832   26.0824 H   0  0  0  0  0  0  0  0  0  0  0  0
   51.8196  152.9222   28.8271 H   0  0  0  0  0  0  0  0  0  0  0  0
   51.0850  154.8586   30.1927 H   0  0  0  0  0  0  0  0  0  0  0  0
   53.8827  160.4074   29.9303 H   0  0  0  0  0  0  0  0  0  0  0  0
   53.4815  162.5256   31.1932 H   0  0  0  0  0  0  0  0  0  0  0  0
   51.2803  162.9229   32.2995 H   0  0  0  0  0  0  0  0  0  0  0  0
   48.6190  160.6460   32.3810 H   0  0  0  0  0  0  0  0  0  0  0  0
   48.1220  156.8580   29.7720 H   0  0  0  0  0  0  0  0  0  0  0  0
   52.3010  157.5368   27.0376 H   0  0  0  0  0  0  0  0  0  0  0  0
   52.4383  151.4392   27.6733 H   0  0  0  0  0  0  0  0  0  0  0  0
   51.1063  151.9395   26.5715 H   0  0  0  0  0  0  0  0  0  0  0  0
   52.1102  149.7364   25.9088 H   0  0  0  0  0  0  0  0  0  0  0  0
   52.3227  151.0197   24.6385 H   0  0  0  0  0  0  0  0  0  0  0  0
  1  2  1  0
  2  3  1  0
  3  4  1  0
  4  5  1  0
  5  6  1  0
  6  7  2  0
  7  8  1  0
  8  9  2  0
  9 10  1  0
 10 11  1  0
 11 12  1  0
 12 13  2  0
 13 14  1  0
 14 15  2  0
 15 16  1  0
 16 17  1  0
 16 18  2  0
 18 19  1  0
 19 20  2  0
 19 21  1  0
 21 22  1  0
  9 23  1  0
 23 24  2  0
 24 25  1  0
 25 26  1  0
 25 27  1  0
 25 28  1  0
  5 29  1  0
 29 30  1  0
 30  2  1  0
 24  6  1  0
 21 10  2  0
 18 12  1  0
  1 31  1  0
  1 32  1  0
  1 33  1  0
  2 34  1  0
  3 35  1  0
  3 36  1  0
  4 37  1  0
  4 38  1  0
  7 39  1  0
  8 40  1  0
 13 41  1  0
 14 42  1  0
 15 43  1  0
 17 44  1  0
 22 45  1  0
 23 46  1  0
 29 47  1  0
 29 48  1  0
 30 49  1  0
 30 50  1  0
M  CHG  1   2   1
M  END
>  <meeko>  (2) 
{"is_sidechain": [false], "free_energy": -9.248, "intermolecular_energy": -11.273, "internal_energy": 0.003}

$$$$
cand_013_out
     RDKit          3D

 50 53  0  0  0  0  0  0  0  0999 V2000
   54.2090  151.3650   23.7860 C   0  0  0  0  0  0  0  0  0  0  0  0
   53.6080  152.5470   24.4020 N   0  0  0  0  0  0  0  0  0  0  0  0
   52.7870  152.1610   25.5730 C   0  0  0  0  0  0  0  0  0  0  0  0
   52.1740  153.3840   26.2960 C   0  0  0  0  0  0  0  0  0  0  0  0
   53.2490  154.3190   26.7040 N   0  0  0  0  0  0  0  0  0  0  0  0
   52.7850  155.3900   27.4850 C   0  0  0  0  0  0  0  0  0  0  0  0
   52.8990  156.7230   27.0650 C   0  0  0  0  0  0  0  0  0  0  0  0
   52.4270  157.7760   27.8530 C   0  0  0  0  0  0  0  0  0  0  0  0
   51.8170  157.5280   29.0850 C   0  0  0  0  0  0  0  0  0  0  0  0
   51.3320  158.6230   29.9510 C   0  0  0  0  0  0  0  0  0  0  0  0
   49.9970  158.4780   30.3090 O   0  0  0  0  0  0  0  0  0  0  0  0
   49.4170  159.4280   31.1100 C   0  0  0  0  0  0  0  0  0  0  0  0
   48.0790  159.2360   31.4530 C   0  0  0  0  0  0  0  0  0  0  0  0
   47.4280  160.1680   32.2670 C   0  0  0  0  0  0  0  0  0  0  0  0
   48.1160  161.2900   32.7350 C   0  0  0  0  0  0  0  0  0  0  0  0
   49.4520  161.4780   32.3910 C   0  0  0  0  0  0  0  0  0  0  0  0
   50.0650  162.5980   32.8830 O   0  0  0  0  0  0  0  0  0  0  0  0
   50.1020  160.5460   31.5770 C   0  0  0  0  0  0  0  0  0  0  0  0
   51.5050  160.7070   31.1910 C   0  0  0  0  0  0  0  0  0  0  0  0
   52.1750  161.6690   31.5570 O   0  0  0  0  0  0  0  0  0  0  0  0
   52.1020  159.6590   30.3310 C   0  0  0  0  0  0  0  0  0  0  0  0
   53.4230  159.8290   29.9590 O   0  0  0  0  0  0  0  0  0  0  0  0
   51.7080  156.1970   29.5130 C   0  0  0  0  0  0  0  0  0  0  0  0
   52.1810  155.1240   28.7260 C   0  0  0  0  0  0  0  0  0  0  0  0
   52.0370  153.7080   29.2270 C   0  0  0  0  0  0  0  0  0  0  0  0
   51.5370  153.6480   30.5000 F   0  0  0  0  0  0  0  0  0  0  0  0
   53.2170  153.0240   29.2860 F   0  0  0  0  0  0  0  0  0  0  0  0
   51.1840  152.9460   28.4820 F   0  0  0  0  0  0  0  0  0  0  0  0
   54.0720  154.7410   25.5440 C   0  0  0  0  0  0  0  0  0  0  0  0
   54.6580  153.4980   24.8360 C   0  0  0  0  0  0  0  0  0  0  0  0
   54.5578  150.6791   24.5721 H   0  0  0  0  0  0  0  0  0  0  0  0
   53.4601  150.8563   23.1612 H   0  0  0  0  0  0  0  0  0  0  0  0
   55.0613  151.6704   23.1612 H   0  0  0  0  0  0  0  0  0  0  0  0
   53.0130  152.9960   23.7060 H   0  0  0  0  0  0  0  0  0  0  0  0
   51.9707  151.5075   25.2315 H   0  0  0  0  0  0  0  0  0  0  0  0
   53.4456  151.6458   26.2877 H   0  0  0  0  0  0  0  0  0  0  0  0
   51.4804  153.9000   25.6159 H   0  0  0  0  0  0  0  0  0  0  0  0
   51.6322  153.0423   27.1902 H   0  0  0  0  0  0  0  0  0  0  0  0
   53.3695  156.9442   26.0956 H   0  0  0  0  0  0  0  0  0  0  0  0
   52.5370  158.8117   27.4993 H   0  0  0  0  0  0  0  0  0  0  0  0
   47.5368  158.3530   31.0839 H   0  0  0  0  0  0  0  0  0  0  0  0
   46.3729  160.0175   32.5391 H   0  0  0  0  0  0  0  0  0  0  0  0
   47.6032  162.0237   33.3742 H   0  0  0  0  0  0  0  0  0  0  0  0
   49.5480  163.3160   33.1930 H   0  0  0  0  0  0  0  0  0  0  0  0
   54.0060  159.0950   29.9520 H   0  0  0  0  0  0  0  0  0  0  0  0
   51.2423  155.9833   30.4864 H   0  0  0  0  0  0  0  0  0  0  0  0
   53.4443  155.3021   24.8361 H   0  0  0  0  0  0  0  0  0  0  0  0
   54.8955  155.3793   25.8967 H   0  0  0  0  0  0  0  0  0  0  0  0
   55.2224  153.8286   23.9516 H   0  0  0  0  0  0  0  0  0  0  0  0
   55.3057  152.9764   25.5561 H   0  0  0  0  0  0  0  0  0  0  0  0
  1  2  1  0
  2  3  1  0
  3  4  1  0
  4  5  1  0
  5  6  1  0
  6  7  2  0
  7  8  1  0
  8  9  2  0
  9 10  1  0
 10 11  1  0
 11 12  1  0
 12 13  2  0
 13 14  1  0
 14 15  2  0
 15 16  1  0
 16 17  1  0
 16 18  2  0
 18 19  1  0
 19 20  2  0
 19 21  1  0
 21 22  1  0
  9 23  1  0
 23 24  2  0
 24 25  1  0
 25 26  1  0
 25 27  1  0
 25 28  1  0
  5 29  1  0
 29 30  1  0
 30  2  1  0
 24  6  1  0
 21 10  2  0
 18 12  1  0
  1 31  1  0
  1 32  1  0
  1 33  1  0
  2 34  1  0
  3 35  1  0
  3 36  1  0
  4 37  1  0
  4 38  1  0
  7 39  1  0
  8 40  1  0
 13 41  1  0
 14 42  1  0
 15 43  1  0
 17 44  1  0
 22 45  1  0
 23 46  1  0
 29 47  1  0
 29 48  1  0
 30 49  1  0
 30 50  1  0
M  CHG  1   2   1
M  END
>  <meeko>  (3) 
{"is_sidechain": [false], "free_energy": -8.849, "intermolecular_energy": -11.655, "internal_energy": 0.878}

$$$$
cand_013_out
     RDKit          3D

 50 53  0  0  0  0  0  0  0  0999 V2000
   47.6580  162.9050   34.2520 C   0  0  0  0  0  0  0  0  0  0  0  0
   48.0140  161.7450   33.4370 N   0  0  0  0  0  0  0  0  0  0  0  0
   48.2560  162.1510   32.0330 C   0  0  0  0  0  0  0  0  0  0  0  0
   48.6920  160.9650   31.1400 C   0  0  0  0  0  0  0  0  0  0  0  0
   49.9010  160.3240   31.7080 N   0  0  0  0  0  0  0  0  0  0  0  0
   50.4380  159.3230   30.8820 C   0  0  0  0  0  0  0  0  0  0  0  0
   49.7370  158.1430   30.5910 C   0  0  0  0  0  0  0  0  0  0  0  0
   50.2830  157.1590   29.7630 C   0  0  0  0  0  0  0  0  0  0  0  0
   51.5470  157.3290   29.1910 C   0  0  0  0  0  0  0  0  0  0  0  0
   52.1610  156.2940   28.3330 C   0  0  0  0  0  0  0  0  0  0  0  0
   52.7260  156.8180   27.1760 O   0  0  0  0  0  0  0  0  0  0  0  0
   53.3280  155.9640   26.2860 C   0  0  0  0  0  0  0  0  0  0  0  0
   53.8920  156.5350   25.1450 C   0  0  0  0  0  0  0  0  0  0  0  0
   54.5210  155.7210   24.1980 C   0  0  0  0  0  0  0  0  0  0  0  0
   54.5840  154.3400   24.3940 C   0  0  0  0  0  0  0  0  0  0  0  0
   54.0210  153.7750   25.5340 C   0  0  0  0  0  0  0  0  0  0  0  0
   54.1180  152.4160   25.6630 O   0  0  0  0  0  0  0  0  0  0  0  0
   53.3920  154.5880   26.4810 C   0  0  0  0  0  0  0  0  0  0  0  0
   52.7870  154.0330   27.6920 C   0  0  0  0  0  0  0  0  0  0  0  0
   52.7960  152.8290   27.9330 O   0  0  0  0  0  0  0  0  0  0  0  0
   52.1510  154.9820   28.6360 C   0  0  0  0  0  0  0  0  0  0  0  0
   51.5680  154.4470   29.7690 O   0  0  0  0  0  0  0  0  0  0  0  0
   52.2540  158.5030   29.4860 C   0  0  0  0  0  0  0  0  0  0  0  0
   51.7130  159.5040   30.3210 C   0  0  0  0  0  0  0  0  0  0  0  0
   52.5100  160.7540   30.6040 C   0  0  0  0  0  0  0  0  0  0  0  0
   51.9400  161.8760   30.0630 F   0  0  0  0  0  0  0  0  0  0  0  0
   53.7750  160.7260   30.0920 F   0  0  0  0  0  0  0  0  0  0  0  0
   52.6360  161.0360   31.9340 F   0  0  0  0  0  0  0  0  0  0  0  0
   49.6770  159.8860   33.1070 C   0  0  0  0  0  0  0  0  0  0  0  0
   49.2300  161.0880   33.9700 C   0  0  0  0  0  0  0  0  0  0  0  0
   47.7384  162.6432   35.3174 H   0  0  0  0  0  0  0  0  0  0  0  0
   48.3425  163.7359   34.0260 H   0  0  0  0  0  0  0  0  0  0  0  0
   46.6253  163.2089   34.0260 H   0  0  0  0  0  0  0  0  0  0  0  0
   47.2340  161.0880   33.4690 H   0  0  0  0  0  0  0  0  0  0  0  0
   47.3282  162.5779   31.6243 H   0  0  0  0  0  0  0  0  0  0  0  0
   49.0736  162.8869   32.0341 H   0  0  0  0  0  0  0  0  0  0  0  0
   47.8775  160.2274   31.0899 H   0  0  0  0  0  0  0  0  0  0  0  0
   48.9197  161.3366   30.1300 H   0  0  0  0  0  0  0  0  0  0  0  0
   48.7373  157.9895   31.0235 H   0  0  0  0  0  0  0  0  0  0  0  0
   49.7123  156.2410   29.5591 H   0  0  0  0  0  0  0  0  0  0  0  0
   53.8420  157.6230   24.9907 H   0  0  0  0  0  0  0  0  0  0  0  0
   54.9667  156.1690   23.2976 H   0  0  0  0  0  0  0  0  0  0  0  0
   55.0780  153.6997   23.6483 H   0  0  0  0  0  0  0  0  0  0  0  0
   54.7070  151.9340   25.1140 H   0  0  0  0  0  0  0  0  0  0  0  0
   52.0480  154.4150   30.5730 H   0  0  0  0  0  0  0  0  0  0  0  0
   53.2560  158.6477   29.0557 H   0  0  0  0  0  0  0  0  0  0  0  0
   48.8951  159.1125   33.1262 H   0  0  0  0  0  0  0  0  0  0  0  0
   50.6143  159.4777   33.5129 H   0  0  0  0  0  0  0  0  0  0  0  0
   49.0212  160.7324   34.9898 H   0  0  0  0  0  0  0  0  0  0  0  0
   50.0431  161.8288   33.9599 H   0  0  0  0  0  0  0  0  0  0  0  0
  1  2  1  0
  2  3  1  0
  3  4  1  0
  4  5  1  0
  5  6  1  0
  6  7  2  0
  7  8  1  0
  8  9  2  0
  9 10  1  0
 10 11  1  0
 11 12  1  0
 12 13  2  0
 13 14  1  0
 14 15  2  0
 15 16  1  0
 16 17  1  0
 16 18  2  0
 18 19  1  0
 19 20  2  0
 19 21  1  0
 21 22  1  0
  9 23  1  0
 23 24  2  0
 24 25  1  0
 25 26  1  0
 25 27  1  0
 25 28  1  0
  5 29  1  0
 29 30  1  0
 30  2  1  0
 24  6  1  0
 21 10  2  0
 18 12  1  0
  1 31  1  0
  1 32  1  0
  1 33  1  0
  2 34  1  0
  3 35  1  0
  3 36  1  0
  4 37  1  0
  4 38  1  0
  7 39  1  0
  8 40  1  0
 13 41  1  0
 14 42  1  0
 15 43  1  0
 17 44  1  0
 22 45  1  0
 23 46  1  0
 29 47  1  0
 29 48  1  0
 30 49  1  0
 30 50  1  0
M  CHG  1   2   1
M  END
>  <meeko>  (4) 
{"is_sidechain": [false], "free_energy": -8.382, "intermolecular_energy": -9.789, "internal_energy": -0.412}

$$$$
