cand_042_out
     RDKit          3D

 38 40  0  0  0  0  0  0  0  0999 V2000
   49.2710  160.5120   33.2170 C   0  0  0  0  0  0  0  0  0  0  0  0
   49.4320  160.8650   31.7460 C   0  0  0  0  0  0  0  0  0  0  0  0
   50.0750  159.7430   30.9620 C   0  0  0  0  0  0  0  0  0  0  0  0
   49.3400  158.5640   30.7580 C   0  0  0  0  0  0  0  0  0  0  0  0
   49.8830  157.4890   30.0510 C   0  0  0  0  0  0  0  0  0  0  0  0
   51.1750  157.5630   29.5220 C   0  0  0  0  0  0  0  0  0  0  0  0
   51.7840  156.4320   28.7900 C   0  0  0  0  0  0  0  0  0  0  0  0
   52.3430  156.8120   27.5760 O   0  0  0  0  0  0  0  0  0  0  0  0
   52.9430  155.8590   26.7940 C   0  0  0  0  0  0  0  0  0  0  0  0
   53.5040  156.2880   25.5910 C   0  0  0  0  0  0  0  0  0  0  0  0
   54.1290  155.3680   24.7460 C   0  0  0  0  0  0  0  0  0  0  0  0
   54.1940  154.0190   25.1050 C   0  0  0  0  0  0  0  0  0  0  0  0
   53.6330  153.5950   26.3070 C   0  0  0  0  0  0  0  0  0  0  0  0
   53.7310  152.2610   26.5960 O   0  0  0  0  0  0  0  0  0  0  0  0
   53.0080  154.5160   27.1530 C   0  0  0  0  0  0  0  0  0  0  0  0
   52.4070  154.1120   28.4230 C   0  0  0  0  0  0  0  0  0  0  0  0
   52.4170  152.9430   28.8050 O   0  0  0  0  0  0  0  0  0  0  0  0
   51.7760  155.1670   29.2490 C   0  0  0  0  0  0  0  0  0  0  0  0
   51.2000  154.7700   30.4420 O   0  0  0  0  0  0  0  0  0  0  0  0
   51.9160  158.7360   29.7400 C   0  0  0  0  0  0  0  0  0  0  0  0
   51.3870  159.8250   30.4570 C   0  0  0  0  0  0  0  0  0  0  0  0
   52.2330  161.0560   30.6340 C   0  0  0  0  0  0  0  0  0  0  0  0
   49.6483  161.3393   33.8360 H   0  0  0  0  0  0  0  0  0  0  0  0
   48.2070  160.3434   33.4393 H   0  0  0  0  0  0  0  0  0  0  0  0
   49.8413  159.5980   33.4393 H   0  0  0  0  0  0  0  0  0  0  0  0
   48.4394  161.0728   31.3198 H   0  0  0  0  0  0  0  0  0  0  0  0
   50.0865  161.7464   31.6774 H   0  0  0  0  0  0  0  0  0  0  0  0
   48.3198  158.4859   31.1617 H   0  0  0  0  0  0  0  0  0  0  0  0
   49.2881  156.5747   29.9089 H   0  0  0  0  0  0  0  0  0  0  0  0
   53.4542  157.3498   25.3081 H   0  0  0  0  0  0  0  0  0  0  0  0
   54.5706  155.7057   23.7968 H   0  0  0  0  0  0  0  0  0  0  0  0
   54.6868  153.2943   24.4402 H   0  0  0  0  0  0  0  0  0  0  0  0
   53.8370  151.6390   25.9050 H   0  0  0  0  0  0  0  0  0  0  0  0
   51.3420  153.9030   30.7660 H   0  0  0  0  0  0  0  0  0  0  0  0
   52.9380  158.8053   29.3392 H   0  0  0  0  0  0  0  0  0  0  0  0
   52.3701  161.2555   31.7070 H   0  0  0  0  0  0  0  0  0  0  0  0
   53.2140  160.8977   30.1622 H   0  0  0  0  0  0  0  0  0  0  0  0
   51.7336  161.9151   30.1622 H   0  0  0  0  0  0  0  0  0  0  0  0
  1  2  1  0
  2  3  1  0
  3  4  2  0
  4  5  1  0
  5  6  2  0
  6  7  1  0
  7  8  1  0
  8  9  1  0
  9 10  2  0
 10 11  1  0
 11 12  2  0
 12 13  1  0
 13 14  1  0
 13 15  2  0
 15 16  1  0
 16 17  2  0
 16 18  1  0
 18 19  1  0
  6 20  1  0
 20 21  2  0
 21 22  1  0
 21  3  1  0
 18  7  2  0
 15  9  1  0
  1 23  1  0
  1 24  1  0
  1 25  1  0
  2 26  1  0
  2 27  1  0
  4 28  1  0
  5 29  1  0
 10 30  1  0
 11 31  1  0
 12 32  1  0
 14 33  1  0
 19 34  1  0
 20 35  1  0
 22 36  1  0
 22 37  1  0
 22 38  1  0
M  END
>  <meeko>  (1) 
{"is_sidechain": [false], "free_energy": -10.833, "intermolecular_energy": -12.733, "internal_energy": -0.206}

$$$$
cand_042_out
     RDKit          3D

 38 40  0  0  0  0  0  0  0  0999 V2000
   49.9720  161.1250   33.1470 C   0  0  0  0  0  0  0  0  0  0  0  0
   49.8820  161.2640   31.6350 C   0  0  0  0  0  0  0  0  0  0  0  0
   50.3630  160.0190   30.9220 C   0  0  0  0  0  0  0  0  0  0  0  0
   51.6810  159.9940   30.4390 C   0  0  0  0  0  0  0  0  0  0  0  0
   52.1800  158.8780   29.7630 C   0  0  0  0  0  0  0  0  0  0  0  0
   51.3780  157.7530   29.5560 C   0  0  0  0  0  0  0  0  0  0  0  0
   51.8720  156.5670   28.8240 C   0  0  0  0  0  0  0  0  0  0  0  0
   52.4420  156.8880   27.5980 O   0  0  0  0  0  0  0  0  0  0  0  0
   52.9410  155.8800   26.8140 C   0  0  0  0  0  0  0  0  0  0  0  0
   53.5170  156.2490   25.5980 C   0  0  0  0  0  0  0  0  0  0  0  0
   54.0440  155.2710   24.7510 C   0  0  0  0  0  0  0  0  0  0  0  0
   53.9940  153.9250   25.1190 C   0  0  0  0  0  0  0  0  0  0  0  0
   53.4190  153.5600   26.3340 C   0  0  0  0  0  0  0  0  0  0  0  0
   53.4020  152.2250   26.6320 O   0  0  0  0  0  0  0  0  0  0  0  0
   52.8930  154.5390   27.1820 C   0  0  0  0  0  0  0  0  0  0  0  0
   52.2790  154.1980   28.4650 C   0  0  0  0  0  0  0  0  0  0  0  0
   52.1920  153.0350   28.8560 O   0  0  0  0  0  0  0  0  0  0  0  0
   51.7590  155.3100   29.2930 C   0  0  0  0  0  0  0  0  0  0  0  0
   51.1700  154.9750   30.4980 O   0  0  0  0  0  0  0  0  0  0  0  0
   50.0550  157.7840   30.0250 C   0  0  0  0  0  0  0  0  0  0  0  0
   49.5330  158.9030   30.7010 C   0  0  0  0  0  0  0  0  0  0  0  0
   48.1120  158.8570   31.1910 C   0  0  0  0  0  0  0  0  0  0  0  0
   49.4334  161.9569   33.6244 H   0  0  0  0  0  0  0  0  0  0  0  0
   49.5199  160.1707   33.4550 H   0  0  0  0  0  0  0  0  0  0  0  0
   51.0278  161.1469   33.4550 H   0  0  0  0  0  0  0  0  0  0  0  0
   48.8340  161.4500   31.3572 H   0  0  0  0  0  0  0  0  0  0  0  0
   50.5284  162.1007   31.3315 H   0  0  0  0  0  0  0  0  0  0  0  0
   52.3313  160.8673   30.5954 H   0  0  0  0  0  0  0  0  0  0  0  0
   53.2148  158.8851   29.3899 H   0  0  0  0  0  0  0  0  0  0  0  0
   53.5561  157.3089   25.3065 H   0  0  0  0  0  0  0  0  0  0  0  0
   54.4991  155.5617   23.7927 H   0  0  0  0  0  0  0  0  0  0  0  0
   54.4076  153.1550   24.4512 H   0  0  0  0  0  0  0  0  0  0  0  0
   52.7450  151.8810   27.2040 H   0  0  0  0  0  0  0  0  0  0  0  0
   51.1920  154.0890   30.8000 H   0  0  0  0  0  0  0  0  0  0  0  0
   49.4084  156.9096   29.8596 H   0  0  0  0  0  0  0  0  0  0  0  0
   48.1033  158.8567   32.2910 H   0  0  0  0  0  0  0  0  0  0  0  0
   47.5676  159.7380   30.8202 H   0  0  0  0  0  0  0  0  0  0  0  0
   47.6257  157.9426   30.8202 H   0  0  0  0  0  0  0  0  0  0  0  0
  1  2  1  0
  2  3  1  0
  3  4  2  0
  4  5  1  0
  5  6  2  0
  6  7  1  0
  7  8  1  0
  8  9  1  0
  9 10  2  0
 10 11  1  0
 11 12  2  0
 12 13  1  0
 13 14  1  0
 13 15  2  0
 15 16  1  0
 16 17  2  0
 16 18  1  0
 18 19  1  0
  6 20  1  0
 20 21  2  0
 21 22  1  0
 21  3  1  0
 18  7  2  0
 15  9  1  0
  1 23  1  0
  1 24  1  0
  1 25  1  0
  2 26  1  0
  2 27  1  0
  4 28  1  0
  5 29  1  0
 10 30  1  0
 11 31  1  0
 12 32  1  0
 14 33  1  0
 19 34  1  0
 20 35  1  0
 22 36  1  0
 22 37  1  0
 22 38  1  0
M  END
>  <meeko>  (2) 
{"is_sidechain": [false], "free_energy": -10.656, "intermolecular_energy": -12.592, "internal_energy": -0.139}

$$$$
cand_042_out
     RDKit          3D

 38 40  0  0  0  0  0  0  0  0999 V2000
   52.1660  151.6900   26.6620 C   0  0  0  0  0  0  0  0  0  0  0  0
   53.0670  152.8660   26.3150 C   0  0  0  0  0  0  0  0  0  0  0  0
   52.6930  154.1120   27.0870 C   0  0  0  0  0  0  0  0  0  0  0  0
   51.9950  153.9640   28.2960 C   0  0  0  0  0  0  0  0  0  0  0  0
   51.6130  155.0770   29.0490 C   0  0  0  0  0  0  0  0  0  0  0  0
   51.9230  156.3700   28.6170 C   0  0  0  0  0  0  0  0  0  0  0  0
   51.5100  157.5670   29.3810 C   0  0  0  0  0  0  0  0  0  0  0  0
   50.1700  157.5390   29.7480 O   0  0  0  0  0  0  0  0  0  0  0  0
   49.6550  158.5890   30.4610 C   0  0  0  0  0  0  0  0  0  0  0  0
   48.3090  158.5130   30.8210 C   0  0  0  0  0  0  0  0  0  0  0  0
   47.7220  159.5510   31.5480 C   0  0  0  0  0  0  0  0  0  0  0  0
   48.4790  160.6650   31.9150 C   0  0  0  0  0  0  0  0  0  0  0  0
   49.8230  160.7380   31.5550 C   0  0  0  0  0  0  0  0  0  0  0  0
   50.5060  161.8580   31.9460 O   0  0  0  0  0  0  0  0  0  0  0  0
   50.4110  159.6990   30.8290 C   0  0  0  0  0  0  0  0  0  0  0  0
   51.8180  159.7370   30.4310 C   0  0  0  0  0  0  0  0  0  0  0  0
   52.5480  160.6870   30.7100 O   0  0  0  0  0  0  0  0  0  0  0  0
   52.3460  158.5820   29.6690 C   0  0  0  0  0  0  0  0  0  0  0  0
   53.6740  158.6350   29.2880 O   0  0  0  0  0  0  0  0  0  0  0  0
   52.6070  156.5190   27.4000 C   0  0  0  0  0  0  0  0  0  0  0  0
   52.9920  155.4080   26.6260 C   0  0  0  0  0  0  0  0  0  0  0  0
   53.7380  155.6440   25.3410 C   0  0  0  0  0  0  0  0  0  0  0  0
   52.0927  151.5944   27.7554 H   0  0  0  0  0  0  0  0  0  0  0  0
   51.1640  151.8590   26.2407 H   0  0  0  0  0  0  0  0  0  0  0  0
   52.5899  150.7665   26.2407 H   0  0  0  0  0  0  0  0  0  0  0  0
   54.1072  152.5991   26.5533 H   0  0  0  0  0  0  0  0  0  0  0  0
   52.9477  153.0813   25.2429 H   0  0  0  0  0  0  0  0  0  0  0  0
   51.7448  152.9553   28.6563 H   0  0  0  0  0  0  0  0  0  0  0  0
   51.0630  154.9346   29.9909 H   0  0  0  0  0  0  0  0  0  0  0  0
   47.7107  157.6362   30.5324 H   0  0  0  0  0  0  0  0  0  0  0  0
   46.6610  159.4906   31.8320 H   0  0  0  0  0  0  0  0  0  0  0  0
   48.0158  161.4827   32.4867 H   0  0  0  0  0  0  0  0  0  0  0  0
   51.4310  161.9140   31.8090 H   0  0  0  0  0  0  0  0  0  0  0  0
   54.1130  157.8570   29.0080 H   0  0  0  0  0  0  0  0  0  0  0  0
   52.8484  157.5306   27.0418 H   0  0  0  0  0  0  0  0  0  0  0  0
   54.7644  155.9687   25.5672 H   0  0  0  0  0  0  0  0  0  0  0  0
   53.7684  154.7116   24.7581 H   0  0  0  0  0  0  0  0  0  0  0  0
   53.2266  156.4242   24.7581 H   0  0  0  0  0  0  0  0  0  0  0  0
  1  2  1  0
  2  3  1  0
  3  4  2  0
  4  5  1  0
  5  6  2  0
  6  7  1  0
  7  8  1  0
  8  9  1  0
  9 10  2  0
 10 11  1  0
 11 12  2  0
 12 13  1  0
 13 14  1  0
 13 15  2  0
 15 16  1  0
 16 17  2  0
 16 18  1  0
 18 19  1  0
  6 20  1  0
 20 21  2  0
 21 22  1  0
 21  3  1  0
 18  7  2  0
 15  9  1  0
  1 23  1  0
  1 24  1  0
  1 25  1  0
  2 26  1  0
  2 27  1  0
  4 28  1  0
  5 29  1  0
 10 30  1  0
 11 31  1  0
 12 32  1  0
 14 33  1  0
 19 34  1  0
 20 35  1  0
 22 36  1  0
 22 37  1  0
 22 38  1  0
M  END
>  <meeko>  (3) 
{"is_sidechain": [false], "free_energy": -9.771, "intermolecular_energy": -11.527, "internal_energy": -0.164}

$$$$
cand_042_out
     RDKit          3D

 38 40  0  0  0  0  0  0  0  0999 V2000
   52.5280  151.8910   26.3220 C   0  0  0  0  0  0  0  0  0  0  0  0
   53.4920  153.0630   26.4310 C   0  0  0  0  0  0  0  0  0  0  0  0
   52.8920  154.2210   27.1950 C   0  0  0  0  0  0  0  0  0  0  0  0
   52.1820  153.9470   28.3750 C   0  0  0  0  0  0  0  0  0  0  0  0
   51.5960  154.9730   29.1190 C   0  0  0  0  0  0  0  0  0  0  0  0
   51.7080  156.3040   28.7090 C   0  0  0  0  0  0  0  0  0  0  0  0
   51.0780  157.4080   29.4640 C   0  0  0  0  0  0  0  0  0  0  0  0
   51.9560  158.4530   29.7280 O   0  0  0  0  0  0  0  0  0  0  0  0
   51.5000  159.5430   30.4230 C   0  0  0  0  0  0  0  0  0  0  0  0
   52.4120  160.5740   30.6530 C   0  0  0  0  0  0  0  0  0  0  0  0
   52.0120  161.7140   31.3560 C   0  0  0  0  0  0  0  0  0  0  0  0
   50.7030  161.8210   31.8290 C   0  0  0  0  0  0  0  0  0  0  0  0
   49.7950  160.7910   31.5970 C   0  0  0  0  0  0  0  0  0  0  0  0
   48.5300  160.9610   32.0890 O   0  0  0  0  0  0  0  0  0  0  0  0
   50.1950  159.6510   30.8930 C   0  0  0  0  0  0  0  0  0  0  0  0
   49.2740  158.5460   30.6290 C   0  0  0  0  0  0  0  0  0  0  0  0
   48.1070  158.5640   31.0190 O   0  0  0  0  0  0  0  0  0  0  0  0
   49.7940  157.3880   29.8680 C   0  0  0  0  0  0  0  0  0  0  0  0
   48.9170  156.3440   29.6350 O   0  0  0  0  0  0  0  0  0  0  0  0
   52.4050  156.5780   27.5210 C   0  0  0  0  0  0  0  0  0  0  0  0
   52.9940  155.5550   26.7550 C   0  0  0  0  0  0  0  0  0  0  0  0
   53.7410  155.9260   25.5030 C   0  0  0  0  0  0  0  0  0  0  0  0
   52.2485  151.5512   27.3302 H   0  0  0  0  0  0  0  0  0  0  0  0
   51.6256  152.2078   25.7785 H   0  0  0  0  0  0  0  0  0  0  0  0
   53.0129  151.0667   25.7785 H   0  0  0  0  0  0  0  0  0  0  0  0
   54.4014  152.7276   26.9511 H   0  0  0  0  0  0  0  0  0  0  0  0
   53.7210  153.4102   25.4127 H   0  0  0  0  0  0  0  0  0  0  0  0
   52.0858  152.9066   28.7191 H   0  0  0  0  0  0  0  0  0  0  0  0
   51.0406  154.7310   30.0371 H   0  0  0  0  0  0  0  0  0  0  0  0
   53.4440  160.4897   30.2816 H   0  0  0  0  0  0  0  0  0  0  0  0
   52.7296  162.5279   31.5367 H   0  0  0  0  0  0  0  0  0  0  0  0
   50.3893  162.7174   32.3840 H   0  0  0  0  0  0  0  0  0  0  0  0
   48.1090  161.7940   32.0200 H   0  0  0  0  0  0  0  0  0  0  0  0
   49.2350  155.5300   29.2980 H   0  0  0  0  0  0  0  0  0  0  0  0
   52.4929  157.6202   27.1801 H   0  0  0  0  0  0  0  0  0  0  0  0
   54.6961  156.4003   25.7728 H   0  0  0  0  0  0  0  0  0  0  0  0
   53.9361  155.0201   24.9104 H   0  0  0  0  0  0  0  0  0  0  0  0
   53.1371  156.6289   24.9104 H   0  0  0  0  0  0  0  0  0  0  0  0
  1  2  1  0
  2  3  1  0
  3  4  2  0
  4  5  1  0
  5  6  2  0
  6  7  1  0
  7  8  1  0
  8  9  1  0
  9 10  2  0
 10 11  1  0
 11 12  2  0
 12 13  1  0
 13 14  1  0
 13 15  2  0
 15 16  1  0
 16 17  2  0
 16 18  1  0
 18 19  1  0
  6 20  1  0
 20 21  2  0
 21 22  1  0
 21  3  1  0
 18  7  2  0
 15  9  1  0
  1 23  1  0
  1 24  1  0
  1 25  1  0
  2 26  1  0
  2 27  1  0
  4 28  1  0
  5 29  1  0
 10 30  1  0
 11 31  1  0
 12 32  1  0
 14 33  1  0
 19 34  1  0
 20 35  1  0
 22 36  1  0
 22 37  1  0
 22 38  1  0
M  END
>  <meeko>  (4) 
{"is_sidechain": [false], "free_energy": -9.0, "intermolecular_energy": -10.579, "internal_energy": -0.205}

$$$$
cand_042_out
     RDKit          3D

 38 40  0  0  0  0  0  0  0  0999 V2000
   48.1490  159.1490   30.5620 C   0  0  0  0  0  0  0  0  0  0  0  0
   49.2970  158.3880   31.2080 C   0  0  0  0  0  0  0  0  0  0  0  0
   50.0830  157.5820   30.1980 C   0  0  0  0  0  0  0  0  0  0  0  0
   49.5800  156.3320   29.8040 C   0  0  0  0  0  0  0  0  0  0  0  0
   50.2650  155.5370   28.8830 C   0  0  0  0  0  0  0  0  0  0  0  0
   51.4700  155.9700   28.3240 C   0  0  0  0  0  0  0  0  0  0  0  0
   52.2290  155.1400   27.3650 C   0  0  0  0  0  0  0  0  0  0  0  0
   51.9320  153.7860   27.4700 O   0  0  0  0  0  0  0  0  0  0  0  0
   52.5670  152.9010   26.6370 C   0  0  0  0  0  0  0  0  0  0  0  0
   52.2280  151.5540   26.7670 C   0  0  0  0  0  0  0  0  0  0  0  0
   52.8380  150.6000   25.9500 C   0  0  0  0  0  0  0  0  0  0  0  0
   53.7880  150.9920   25.0040 C   0  0  0  0  0  0  0  0  0  0  0  0
   54.1240  152.3380   24.8770 C   0  0  0  0  0  0  0  0  0  0  0  0
   55.0620  152.6530   23.9320 O   0  0  0  0  0  0  0  0  0  0  0  0
   53.5120  153.2930   25.6940 C   0  0  0  0  0  0  0  0  0  0  0  0
   53.8370  154.7150   25.5920 C   0  0  0  0  0  0  0  0  0  0  0  0
   54.6670  155.1380   24.7900 O   0  0  0  0  0  0  0  0  0  0  0  0
   53.1260  155.6460   26.4990 C   0  0  0  0  0  0  0  0  0  0  0  0
   53.4510  156.9870   26.4030 O   0  0  0  0  0  0  0  0  0  0  0  0
   51.9820  157.2140   28.7300 C   0  0  0  0  0  0  0  0  0  0  0  0
   51.3090  158.0240   29.6630 C   0  0  0  0  0  0  0  0  0  0  0  0
   51.9080  159.3510   30.0370 C   0  0  0  0  0  0  0  0  0  0  0  0
   47.5052  159.5757   31.3452 H   0  0  0  0  0  0  0  0  0  0  0  0
   48.5521  159.9594   29.9368 H   0  0  0  0  0  0  0  0  0  0  0  0
   47.5596  158.4622   29.9368 H   0  0  0  0  0  0  0  0  0  0  0  0
   49.9734  159.1086   31.6909 H   0  0  0  0  0  0  0  0  0  0  0  0
   48.8702  157.6888   31.9421 H   0  0  0  0  0  0  0  0  0  0  0  0
   48.6306  155.9729   30.2279 H   0  0  0  0  0  0  0  0  0  0  0  0
   49.8515  154.5594   28.5944 H   0  0  0  0  0  0  0  0  0  0  0  0
   51.4809  151.2438   27.5124 H   0  0  0  0  0  0  0  0  0  0  0  0
   52.5700  149.5380   26.0515 H   0  0  0  0  0  0  0  0  0  0  0  0
   54.2693  150.2402   24.3613 H   0  0  0  0  0  0  0  0  0  0  0  0
   54.9070  153.3580   23.3350 H   0  0  0  0  0  0  0  0  0  0  0  0
   54.0230  157.2830   25.7240 H   0  0  0  0  0  0  0  0  0  0  0  0
   52.9351  157.5641   28.3068 H   0  0  0  0  0  0  0  0  0  0  0  0
   51.9480  159.4395   31.1327 H   0  0  0  0  0  0  0  0  0  0  0  0
   52.9258  159.4228   29.6260 H   0  0  0  0  0  0  0  0  0  0  0  0
   51.2886  160.1618   29.6260 H   0  0  0  0  0  0  0  0  0  0  0  0
  1  2  1  0
  2  3  1  0
  3  4  2  0
  4  5  1  0
  5  6  2  0
  6  7  1  0
  7  8  1  0
  8  9  1  0
  9 10  2  0
 10 11  1  0
 11 12  2  0
 12 13  1  0
 13 14  1  0
 13 15  2  0
 15 16  1  0
 16 17  2  0
 16 18  1  0
 18 19  1  0
  6 20  1  0
 20 21  2  0
 21 22  1  0
 21  3  1  0
 18  7  2  0
 15  9  1  0
  1 23  1  0
  1 24  1  0
  1 25  1  0
  2 26  1  0
  2 27  1  0
  4 28  1  0
  5 29  1  0
 10 30  1  0
 11 31  1  0
 12 32  1  0
 14 33  1  0
 19 34  1  0
 20 35  1  0
 22 36  1  0
 22 37  1  0
 22 38  1  0
M  END
>  <meeko>  (5) 
{"is_sidechain": [false], "free_energy": -8.71, "intermolecular_energy": -10.564, "internal_energy": 0.12}

$$$$
cand_042_out
     RDKit          3D

 38 40  0  0  0  0  0  0  0  0999 V2000
   53.4800  153.9110   24.5770 C   0  0  0  0  0  0  0  0  0  0  0  0
   53.6660  153.5890   26.0520 C   0  0  0  0  0  0  0  0  0  0  0  0
   52.9840  154.6020   26.9430 C   0  0  0  0  0  0  0  0  0  0  0  0
   53.1950  155.9670   26.6870 C   0  0  0  0  0  0  0  0  0  0  0  0
   52.6000  156.9500   27.4810 C   0  0  0  0  0  0  0  0  0  0  0  0
   51.7730  156.5980   28.5510 C   0  0  0  0  0  0  0  0  0  0  0  0
   51.1500  157.6170   29.4230 C   0  0  0  0  0  0  0  0  0  0  0  0
   51.9950  158.6870   29.6920 O   0  0  0  0  0  0  0  0  0  0  0  0
   51.5420  159.7050   30.4900 C   0  0  0  0  0  0  0  0  0  0  0  0
   52.4170  160.7660   30.7220 C   0  0  0  0  0  0  0  0  0  0  0  0
   52.0190  161.8360   31.5280 C   0  0  0  0  0  0  0  0  0  0  0  0
   50.7460  161.8430   32.1020 C   0  0  0  0  0  0  0  0  0  0  0  0
   49.8740  160.7830   31.8680 C   0  0  0  0  0  0  0  0  0  0  0  0
   48.6430  160.8540   32.4620 O   0  0  0  0  0  0  0  0  0  0  0  0
   50.2720  159.7130   31.0610 C   0  0  0  0  0  0  0  0  0  0  0  0
   49.3880  158.5800   30.7910 C   0  0  0  0  0  0  0  0  0  0  0  0
   48.2550  158.5110   31.2660 O   0  0  0  0  0  0  0  0  0  0  0  0
   49.9030  157.5020   29.9170 C   0  0  0  0  0  0  0  0  0  0  0  0
   49.0620  156.4300   29.6790 O   0  0  0  0  0  0  0  0  0  0  0  0
   51.5740  155.2340   28.8170 C   0  0  0  0  0  0  0  0  0  0  0  0
   52.1720  154.2300   28.0320 C   0  0  0  0  0  0  0  0  0  0  0  0
   51.8980  152.7890   28.3650 C   0  0  0  0  0  0  0  0  0  0  0  0
   52.9322  154.8594   24.4750 H   0  0  0  0  0  0  0  0  0  0  0  0
   54.4644  154.0025   24.0947 H   0  0  0  0  0  0  0  0  0  0  0  0
   52.9090  153.1040   24.0947 H   0  0  0  0  0  0  0  0  0  0  0  0
   53.2413  152.5947   26.2548 H   0  0  0  0  0  0  0  0  0  0  0  0
   54.7435  153.6138   26.2720 H   0  0  0  0  0  0  0  0  0  0  0  0
   53.8394  156.2666   25.8474 H   0  0  0  0  0  0  0  0  0  0  0  0
   52.7843  158.0121   27.2618 H   0  0  0  0  0  0  0  0  0  0  0  0
   53.4201  160.7606   30.2707 H   0  0  0  0  0  0  0  0  0  0  0  0
   52.7089  162.6732   31.7104 H   0  0  0  0  0  0  0  0  0  0  0  0
   50.4328  162.6843   32.7377 H   0  0  0  0  0  0  0  0  0  0  0  0
   48.1540  161.6520   32.4330 H   0  0  0  0  0  0  0  0  0  0  0  0
   48.4120  156.4850   29.0080 H   0  0  0  0  0  0  0  0  0  0  0  0
   50.9332  154.9417   29.6620 H   0  0  0  0  0  0  0  0  0  0  0  0
   51.8741  152.6633   29.4575 H   0  0  0  0  0  0  0  0  0  0  0  0
   50.9274  152.4927   27.9405 H   0  0  0  0  0  0  0  0  0  0  0  0
   52.6921  152.1572   27.9405 H   0  0  0  0  0  0  0  0  0  0  0  0
  1  2  1  0
  2  3  1  0
  3  4  2  0
  4  5  1  0
  5  6  2  0
  6  7  1  0
  7  8  1  0
  8  9  1  0
  9 10  2  0
 10 11  1  0
 11 12  2  0
 12 13  1  0
 13 14  1  0
 13 15  2  0
 15 16  1  0
 16 17  2  0
 16 18  1  0
 18 19  1  0
  6 20  1  0
 20 21  2  0
 21 22  1  0
 21  3  1  0
 18  7  2  0
 15  9  1  0
  1 23  1  0
  1 24  1  0
  1 25  1  0
  2 26  1  0
  2 27  1  0
  4 28  1  0
  5 29  1  0
 10 30  1  0
 11 31  1  0
 12 32  1  0
 14 33  1  0
 19 34  1  0
 20 35  1  0
 22 36  1  0
 22 37  1  0
 22 38  1  0
M  END
>  <meeko>  (6) 
{"is_sidechain": [false], "free_energy": -8.39, "intermolecular_energy": -10.01, "internal_energy": -0.057}

$$$$
cand_042_out
     RDKit          3D

 38 40  0  0  0  0  0  0  0  0999 V2000
   50.0120  160.5930   30.0000 C   0  0  0  0  0  0  0  0  0  0  0  0
   50.6620  159.4740   30.7990 C   0  0  0  0  0  0  0  0  0  0  0  0
   51.1170  158.3360   29.9130 C   0  0  0  0  0  0  0  0  0  0  0  0
   52.3740  158.4320   29.2950 C   0  0  0  0  0  0  0  0  0  0  0  0
   52.8450  157.4180   28.4570 C   0  0  0  0  0  0  0  0  0  0  0  0
   52.0760  156.2760   28.2180 C   0  0  0  0  0  0  0  0  0  0  0  0
   52.5380  155.1990   27.3170 C   0  0  0  0  0  0  0  0  0  0  0  0
   52.0630  153.9460   27.6840 O   0  0  0  0  0  0  0  0  0  0  0  0
   52.4170  152.8560   26.9330 C   0  0  0  0  0  0  0  0  0  0  0  0
   51.9060  151.6190   27.3300 C   0  0  0  0  0  0  0  0  0  0  0  0
   52.2280  150.4680   26.6080 C   0  0  0  0  0  0  0  0  0  0  0  0
   53.0620  150.5520   25.4910 C   0  0  0  0  0  0  0  0  0  0  0  0
   53.5700  151.7870   25.0970 C   0  0  0  0  0  0  0  0  0  0  0  0
   54.3810  151.7980   23.9950 O   0  0  0  0  0  0  0  0  0  0  0  0
   53.2460  152.9400   25.8190 C   0  0  0  0  0  0  0  0  0  0  0  0
   53.7590  154.2560   25.4390 C   0  0  0  0  0  0  0  0  0  0  0  0
   54.5040  154.4100   24.4720 O   0  0  0  0  0  0  0  0  0  0  0  0
   53.3510  155.4150   26.2650 C   0  0  0  0  0  0  0  0  0  0  0  0
   53.8520  156.6520   25.9040 O   0  0  0  0  0  0  0  0  0  0  0  0
   50.8120  156.1870   28.8230 C   0  0  0  0  0  0  0  0  0  0  0  0
   50.3190  157.2020   29.6630 C   0  0  0  0  0  0  0  0  0  0  0  0
   48.9630  157.0290   30.2920 C   0  0  0  0  0  0  0  0  0  0  0  0
   49.5816  161.3339   30.6898 H   0  0  0  0  0  0  0  0  0  0  0  0
   50.7688  161.0783   29.3661 H   0  0  0  0  0  0  0  0  0  0  0  0
   49.2155  160.1761   29.3661 H   0  0  0  0  0  0  0  0  0  0  0  0
   51.5343  159.8791   31.3328 H   0  0  0  0  0  0  0  0  0  0  0  0
   49.9136  159.0792   31.5019 H   0  0  0  0  0  0  0  0  0  0  0  0
   52.9982  159.3200   29.4734 H   0  0  0  0  0  0  0  0  0  0  0  0
   53.8312  157.5197   27.9805 H   0  0  0  0  0  0  0  0  0  0  0  0
   51.2504  151.5511   28.2107 H   0  0  0  0  0  0  0  0  0  0  0  0
   51.8241  149.4935   26.9196 H   0  0  0  0  0  0  0  0  0  0  0  0
   53.3170  149.6446   24.9238 H   0  0  0  0  0  0  0  0  0  0  0  0
   55.1550  151.2710   23.9780 H   0  0  0  0  0  0  0  0  0  0  0  0
   53.5380  157.0780   25.1320 H   0  0  0  0  0  0  0  0  0  0  0  0
   50.1903  155.2993   28.6350 H   0  0  0  0  0  0  0  0  0  0  0  0
   49.0626  157.0417   31.3874 H   0  0  0  0  0  0  0  0  0  0  0  0
   48.3039  157.8503   29.9742 H   0  0  0  0  0  0  0  0  0  0  0  0
   48.5312  156.0685   29.9742 H   0  0  0  0  0  0  0  0  0  0  0  0
  1  2  1  0
  2  3  1  0
  3  4  2  0
  4  5  1  0
  5  6  2  0
  6  7  1  0
  7  8  1  0
  8  9  1  0
  9 10  2  0
 10 11  1  0
 11 12  2  0
 12 13  1  0
 13 14  1  0
 13 15  2  0
 15 16  1  0
 16 17  2  0
 16 18  1  0
 18 19  1  0
  6 20  1  0
 20 21  2  0
 21 22  1  0
 21  3  1  0
 18  7  2  0
 15  9  1  0
  1 23  1  0
  1 24  1  0
  1 25  1  0
  2 26  1  0
  2 27  1  0
  4 28  1  0
  5 29  1  0
 10 30  1  0
 11 31  1  0
 12 32  1  0
 14 33  1  0
 19 34  1  0
 20 35  1  0
 22 36  1  0
 22 37  1  0
 22 38  1  0
M  END
>  <meeko>  (7) 
{"is_sidechain": [false], "free_energy": -8.046, "intermolecular_energy": -9.668, "internal_energy": 0.006}

$$$$
