cand_037_out
     RDKit          3D

 35 37  0  0  0  0  0  0  0  0999 V2000
   52.1690  161.0590   30.6240 C   0  0  0  0  0  0  0  0  0  0  0  0
   51.3240  159.8260   30.4520 C   0  0  0  0  0  0  0  0  0  0  0  0
   51.8610  158.7230   29.7630 C   0  0  0  0  0  0  0  0  0  0  0  0
   51.1230  157.5460   29.5680 C   0  0  0  0  0  0  0  0  0  0  0  0
   51.7190  156.4180   28.8210 C   0  0  0  0  0  0  0  0  0  0  0  0
   52.3050  156.8120   27.6230 O   0  0  0  0  0  0  0  0  0  0  0  0
   52.8970  155.8630   26.8300 C   0  0  0  0  0  0  0  0  0  0  0  0
   53.4610  156.3020   25.6300 C   0  0  0  0  0  0  0  0  0  0  0  0
   54.0800  155.3870   24.7770 C   0  0  0  0  0  0  0  0  0  0  0  0
   54.1380  154.0350   25.1220 C   0  0  0  0  0  0  0  0  0  0  0  0
   53.5760  153.6000   26.3200 C   0  0  0  0  0  0  0  0  0  0  0  0
   53.6690  152.2630   26.5960 O   0  0  0  0  0  0  0  0  0  0  0  0
   52.9540  154.5160   27.1730 C   0  0  0  0  0  0  0  0  0  0  0  0
   52.3510  154.1010   28.4410 C   0  0  0  0  0  0  0  0  0  0  0  0
   52.3670  152.9320   28.8180 O   0  0  0  0  0  0  0  0  0  0  0  0
   51.7100  155.1490   29.2700 C   0  0  0  0  0  0  0  0  0  0  0  0
   51.1550  154.7480   30.4710 O   0  0  0  0  0  0  0  0  0  0  0  0
   49.8140  157.4940   30.0570 C   0  0  0  0  0  0  0  0  0  0  0  0
   49.2620  158.5860   30.7340 C   0  0  0  0  0  0  0  0  0  0  0  0
   50.0000  159.7640   30.9290 C   0  0  0  0  0  0  0  0  0  0  0  0
   49.3680  160.9070   31.6810 C   0  0  0  0  0  0  0  0  0  0  0  0
   48.4510  161.5990   30.9460 F   0  0  0  0  0  0  0  0  0  0  0  0
   52.3079  161.2617   31.6962 H   0  0  0  0  0  0  0  0  0  0  0  0
   53.1493  160.9007   30.1508 H   0  0  0  0  0  0  0  0  0  0  0  0
   51.6676  161.9161   30.1508 H   0  0  0  0  0  0  0  0  0  0  0  0
   52.8854  158.7852   29.3672 H   0  0  0  0  0  0  0  0  0  0  0  0
   53.4174  157.3669   25.3577 H   0  0  0  0  0  0  0  0  0  0  0  0
   54.5231  155.7315   23.8310 H   0  0  0  0  0  0  0  0  0  0  0  0
   54.6265  153.3150   24.4490 H   0  0  0  0  0  0  0  0  0  0  0  0
   53.7780  151.9740   27.4810 H   0  0  0  0  0  0  0  0  0  0  0  0
   51.5440  154.0460   30.9550 H   0  0  0  0  0  0  0  0  0  0  0  0
   49.2126  156.5852   29.9077 H   0  0  0  0  0  0  0  0  0  0  0  0
   48.2339  158.5209   31.1196 H   0  0  0  0  0  0  0  0  0  0  0  0
   48.8665  160.5026   32.5726 H   0  0  0  0  0  0  0  0  0  0  0  0
   50.1736  161.6100   31.9394 H   0  0  0  0  0  0  0  0  0  0  0  0
  1  2  1  0
  2  3  2  0
  3  4  1  0
  4  5  1  0
  5  6  1  0
  6  7  1  0
  7  8  2  0
  8  9  1  0
  9 10  2  0
 10 11  1  0
 11 12  1  0
 11 13  2  0
 13 14  1  0
 14 15  2  0
 14 16  1  0
 16 17  1  0
  4 18  2  0
 18 19  1  0
 19 20  2  0
 20 21  1  0
 21 22  1  0
 20  2  1  0
 16  5  2  0
 13  7  1  0
  1 23  1  0
  1 24  1  0
  1 25  1  0
  3 26  1  0
  8 27  1  0
  9 28  1  0
 10 29  1  0
 12 30  1  0
 17 31  1  0
 18 32  1  0
 19 33  1  0
 21 34  1  0
 21 35  1  0
M  END
>  <meeko>  (1) 
{"is_sidechain": [false], "free_energy": -10.577, "intermolecular_energy": -12.432, "internal_energy": -0.194}

$$$$
cand_037_out
     RDKit          3D

 35 37  0  0  0  0  0  0  0  0999 V2000
   48.2330  158.8590   31.2710 C   0  0  0  0  0  0  0  0  0  0  0  0
   49.6380  158.8970   30.7360 C   0  0  0  0  0  0  0  0  0  0  0  0
   50.1230  157.7920   30.0120 C   0  0  0  0  0  0  0  0  0  0  0  0
   51.4250  157.7660   29.4910 C   0  0  0  0  0  0  0  0  0  0  0  0
   51.9000  156.5760   28.7530 C   0  0  0  0  0  0  0  0  0  0  0  0
   52.4970  156.8960   27.5390 O   0  0  0  0  0  0  0  0  0  0  0  0
   52.9840  155.8850   26.7520 C   0  0  0  0  0  0  0  0  0  0  0  0
   53.5630  156.2500   25.5350 C   0  0  0  0  0  0  0  0  0  0  0  0
   54.0790  155.2690   24.6870 C   0  0  0  0  0  0  0  0  0  0  0  0
   54.0190  153.9230   25.0550 C   0  0  0  0  0  0  0  0  0  0  0  0
   53.4430  153.5600   26.2690 C   0  0  0  0  0  0  0  0  0  0  0  0
   53.4170  152.2260   26.5670 O   0  0  0  0  0  0  0  0  0  0  0  0
   52.9240  154.5430   27.1170 C   0  0  0  0  0  0  0  0  0  0  0  0
   52.3090  154.2050   28.4020 C   0  0  0  0  0  0  0  0  0  0  0  0
   52.2250  153.0460   28.7990 O   0  0  0  0  0  0  0  0  0  0  0  0
   51.7830  155.3210   29.2240 C   0  0  0  0  0  0  0  0  0  0  0  0
   51.2170  154.9920   30.4420 O   0  0  0  0  0  0  0  0  0  0  0  0
   52.2560  158.8660   29.7260 C   0  0  0  0  0  0  0  0  0  0  0  0
   51.7940  159.9670   30.4530 C   0  0  0  0  0  0  0  0  0  0  0  0
   50.4920  159.9930   30.9760 C   0  0  0  0  0  0  0  0  0  0  0  0
   50.0320  161.2100   31.7380 C   0  0  0  0  0  0  0  0  0  0  0  0
   50.0450  161.0390   33.0900 F   0  0  0  0  0  0  0  0  0  0  0  0
   48.2593  158.8597   32.3707 H   0  0  0  0  0  0  0  0  0  0  0  0
   47.6818  159.7426   30.9168 H   0  0  0  0  0  0  0  0  0  0  0  0
   47.7303  157.9469   30.9168 H   0  0  0  0  0  0  0  0  0  0  0  0
   49.4639  156.9262   29.8505 H   0  0  0  0  0  0  0  0  0  0  0  0
   53.6124  157.3099   25.2448 H   0  0  0  0  0  0  0  0  0  0  0  0
   54.5336  155.5563   23.7274 H   0  0  0  0  0  0  0  0  0  0  0  0
   54.4265  153.1506   24.3861 H   0  0  0  0  0  0  0  0  0  0  0  0
   53.8800  151.6160   26.0270 H   0  0  0  0  0  0  0  0  0  0  0  0
   50.2910  154.8620   30.5080 H   0  0  0  0  0  0  0  0  0  0  0  0
   53.2840  158.8648   29.3346 H   0  0  0  0  0  0  0  0  0  0  0  0
   52.4611  160.8260   30.6176 H   0  0  0  0  0  0  0  0  0  0  0  0
   50.6957  162.0504   31.4864 H   0  0  0  0  0  0  0  0  0  0  0  0
   48.9892  161.4016   31.4450 H   0  0  0  0  0  0  0  0  0  0  0  0
  1  2  1  0
  2  3  2  0
  3  4  1  0
  4  5  1  0
  5  6  1  0
  6  7  1  0
  7  8  2  0
  8  9  1  0
  9 10  2  0
 10 11  1  0
 11 12  1  0
 11 13  2  0
 13 14  1  0
 14 15  2  0
 14 16  1  0
 16 17  1  0
  4 18  2  0
 18 19  1  0
 19 20  2  0
 20 21  1  0
 21 22  1  0
 20  2  1  0
 16  5  2  0
 13  7  1  0
  1 23  1  0
  1 24  1  0
  1 25  1  0
  3 26  1  0
  8 27  1  0
  9 28  1  0
 10 29  1  0
 12 30  1  0
 17 31  1  0
 18 32  1  0
 19 33  1  0
 21 34  1  0
 21 35  1  0
M  END
>  <meeko>  (2) 
{"is_sidechain": [false], "free_energy": -10.409, "intermolecular_energy": -12.268, "internal_energy": -0.16}

$$$$
cand_037_out
     RDKit          3D

 35 37  0  0  0  0  0  0  0  0999 V2000
   53.6290  155.3280   25.4300 C   0  0  0  0  0  0  0  0  0  0  0  0
   52.9000  155.1770   26.7370 C   0  0  0  0  0  0  0  0  0  0  0  0
   52.5120  156.3340   27.4390 C   0  0  0  0  0  0  0  0  0  0  0  0
   51.8320  156.2590   28.6630 C   0  0  0  0  0  0  0  0  0  0  0  0
   51.4610  157.5000   29.3770 C   0  0  0  0  0  0  0  0  0  0  0  0
   50.1380  157.5010   29.8060 O   0  0  0  0  0  0  0  0  0  0  0  0
   49.6620  158.5940   30.4840 C   0  0  0  0  0  0  0  0  0  0  0  0
   48.3240  158.5590   30.8830 C   0  0  0  0  0  0  0  0  0  0  0  0
   47.7770  159.6380   31.5790 C   0  0  0  0  0  0  0  0  0  0  0  0
   48.5650  160.7520   31.8770 C   0  0  0  0  0  0  0  0  0  0  0  0
   49.8990  160.7840   31.4790 C   0  0  0  0  0  0  0  0  0  0  0  0
   50.6140  161.9040   31.8040 O   0  0  0  0  0  0  0  0  0  0  0  0
   50.4470  159.7040   30.7810 C   0  0  0  0  0  0  0  0  0  0  0  0
   51.8440  159.6980   30.3440 C   0  0  0  0  0  0  0  0  0  0  0  0
   52.6020  160.6360   30.5740 O   0  0  0  0  0  0  0  0  0  0  0  0
   52.3250  158.5070   29.6040 C   0  0  0  0  0  0  0  0  0  0  0  0
   53.6490  158.5050   29.2080 O   0  0  0  0  0  0  0  0  0  0  0  0
   51.5610  154.9950   29.1960 C   0  0  0  0  0  0  0  0  0  0  0  0
   51.9490  153.8370   28.5180 C   0  0  0  0  0  0  0  0  0  0  0  0
   52.6300  153.9110   27.2920 C   0  0  0  0  0  0  0  0  0  0  0  0
   53.0120  152.6330   26.5880 C   0  0  0  0  0  0  0  0  0  0  0  0
   52.0150  151.7030   26.5760 F   0  0  0  0  0  0  0  0  0  0  0  0
   54.6891  155.5476   25.6247 H   0  0  0  0  0  0  0  0  0  0  0  0
   53.5477  154.3939   24.8547 H   0  0  0  0  0  0  0  0  0  0  0  0
   53.1833  156.1529   24.8547 H   0  0  0  0  0  0  0  0  0  0  0  0
   52.7483  157.3218   27.0166 H   0  0  0  0  0  0  0  0  0  0  0  0
   47.7022  157.6823   30.6490 H   0  0  0  0  0  0  0  0  0  0  0  0
   46.7233  159.6110   31.8935 H   0  0  0  0  0  0  0  0  0  0  0  0
   48.1327  161.6022   32.4249 H   0  0  0  0  0  0  0  0  0  0  0  0
   51.4920  161.8240   32.1220 H   0  0  0  0  0  0  0  0  0  0  0  0
   54.2920  158.9510   29.7240 H   0  0  0  0  0  0  0  0  0  0  0  0
   51.0367  154.9117   30.1594 H   0  0  0  0  0  0  0  0  0  0  0  0
   51.7177  152.8525   28.9508 H   0  0  0  0  0  0  0  0  0  0  0  0
   53.2770  152.8736   25.5479 H   0  0  0  0  0  0  0  0  0  0  0  0
   53.8565  152.1969   27.1418 H   0  0  0  0  0  0  0  0  0  0  0  0
  1  2  1  0
  2  3  2  0
  3  4  1  0
  4  5  1  0
  5  6  1  0
  6  7  1  0
  7  8  2  0
  8  9  1  0
  9 10  2  0
 10 11  1  0
 11 12  1  0
 11 13  2  0
 13 14  1  0
 14 15  2  0
 14 16  1  0
 16 17  1  0
  4 18  2  0
 18 19  1  0
 19 20  2  0
 20 21  1  0
 21 22  1  0
 20  2  1  0
 16  5  2  0
 13  7  1  0
  1 23  1  0
  1 24  1  0
  1 25  1  0
  3 26  1  0
  8 27  1  0
  9 28  1  0
 10 29  1  0
 12 30  1  0
 17 31  1  0
 18 32  1  0
 19 33  1  0
 21 34  1  0
 21 35  1  0
M  END
>  <meeko>  (3) 
{"is_sidechain": [false], "free_energy": -9.893, "intermolecular_energy": -11.711, "internal_energy": -0.111}

$$$$
cand_037_out
     RDKit          3D

 35 37  0  0  0  0  0  0  0  0999 V2000
   51.7150  153.2950   28.9640 C   0  0  0  0  0  0  0  0  0  0  0  0
   52.0410  154.6840   28.4880 C   0  0  0  0  0  0  0  0  0  0  0  0
   51.6170  155.7850   29.2550 C   0  0  0  0  0  0  0  0  0  0  0  0
   51.8870  157.1050   28.8630 C   0  0  0  0  0  0  0  0  0  0  0  0
   51.4050  158.2320   29.6890 C   0  0  0  0  0  0  0  0  0  0  0  0
   50.0720  158.1000   30.0590 O   0  0  0  0  0  0  0  0  0  0  0  0
   49.4960  159.0780   30.8290 C   0  0  0  0  0  0  0  0  0  0  0  0
   48.1510  158.9110   31.1650 C   0  0  0  0  0  0  0  0  0  0  0  0
   47.5060  159.8700   31.9480 C   0  0  0  0  0  0  0  0  0  0  0  0
   48.2030  160.9940   32.3960 C   0  0  0  0  0  0  0  0  0  0  0  0
   49.5450  161.1580   32.0610 C   0  0  0  0  0  0  0  0  0  0  0  0
   50.1670  162.2800   32.5330 O   0  0  0  0  0  0  0  0  0  0  0  0
   50.1910  160.1980   31.2750 C   0  0  0  0  0  0  0  0  0  0  0  0
   51.5990  160.3320   30.8990 C   0  0  0  0  0  0  0  0  0  0  0  0
   52.2810  161.2880   31.2600 O   0  0  0  0  0  0  0  0  0  0  0  0
   52.1880  159.2640   30.0580 C   0  0  0  0  0  0  0  0  0  0  0  0
   53.5220  159.3930   29.7200 O   0  0  0  0  0  0  0  0  0  0  0  0
   52.5770  157.3130   27.6650 C   0  0  0  0  0  0  0  0  0  0  0  0
   52.9950  156.2310   26.8850 C   0  0  0  0  0  0  0  0  0  0  0  0
   52.7250  154.9100   27.2770 C   0  0  0  0  0  0  0  0  0  0  0  0
   53.2130  153.7750   26.4120 C   0  0  0  0  0  0  0  0  0  0  0  0
   52.2530  153.2730   25.5850 F   0  0  0  0  0  0  0  0  0  0  0  0
   51.7105  153.2759   30.0638 H   0  0  0  0  0  0  0  0  0  0  0  0
   50.7236  153.0018   28.5882 H   0  0  0  0  0  0  0  0  0  0  0  0
   52.4724  152.5914   28.5882 H   0  0  0  0  0  0  0  0  0  0  0  0
   51.0593  155.6062   30.1862 H   0  0  0  0  0  0  0  0  0  0  0  0
   47.6009  158.0257   30.8135 H   0  0  0  0  0  0  0  0  0  0  0  0
   46.4463  159.7399   32.2127 H   0  0  0  0  0  0  0  0  0  0  0  0
   47.6930  161.7488   33.0126 H   0  0  0  0  0  0  0  0  0  0  0  0
   50.0990  163.0870   32.0620 H   0  0  0  0  0  0  0  0  0  0  0  0
   53.7910  160.0620   29.1220 H   0  0  0  0  0  0  0  0  0  0  0  0
   52.7933  158.3391   27.3327 H   0  0  0  0  0  0  0  0  0  0  0  0
   53.5437  156.4172   25.9500 H   0  0  0  0  0  0  0  0  0  0  0  0
   54.0478  154.1403   25.7958 H   0  0  0  0  0  0  0  0  0  0  0  0
   53.5186  152.9613   27.0861 H   0  0  0  0  0  0  0  0  0  0  0  0
  1  2  1  0
  2  3  2  0
  3  4  1  0
  4  5  1  0
  5  6  1  0
  6  7  1  0
  7  8  2  0
  8  9  1  0
  9 10  2  0
 10 11  1  0
 11 12  1  0
 11 13  2  0
 13 14  1  0
 14 15  2  0
 14 16  1  0
 16 17  1  0
  4 18  2  0
 18 19  1  0
 19 20  2  0
 20 21  1  0
 21 22  1  0
 20  2  1  0
 16  5  2  0
 13  7  1  0
  1 23  1  0
  1 24  1  0
  1 25  1  0
  3 26  1  0
  8 27  1  0
  9 28  1  0
 10 29  1  0
 12 30  1  0
 17 31  1  0
 18 32  1  0
 19 33  1  0
 21 34  1  0
 21 35  1  0
M  END
>  <meeko>  (4) 
{"is_sidechain": [false], "free_energy": -9.186, "intermolecular_energy": -10.792, "internal_energy": -0.198}

$$$$
cand_037_out
     RDKit          3D

 35 37  0  0  0  0  0  0  0  0999 V2000
   53.6910  155.8330   25.5390 C   0  0  0  0  0  0  0  0  0  0  0  0
   52.9600  155.4780   26.8050 C   0  0  0  0  0  0  0  0  0  0  0  0
   52.3530  156.5040   27.5530 C   0  0  0  0  0  0  0  0  0  0  0  0
   51.6610  156.2370   28.7430 C   0  0  0  0  0  0  0  0  0  0  0  0
   51.0550  157.3470   29.5080 C   0  0  0  0  0  0  0  0  0  0  0  0
   51.9460  158.3870   29.7480 O   0  0  0  0  0  0  0  0  0  0  0  0
   51.5130  159.4840   30.4490 C   0  0  0  0  0  0  0  0  0  0  0  0
   52.4450  160.4980   30.6790 C   0  0  0  0  0  0  0  0  0  0  0  0
   52.0680  161.6420   31.3850 C   0  0  0  0  0  0  0  0  0  0  0  0
   50.7610  161.7740   31.8590 C   0  0  0  0  0  0  0  0  0  0  0  0
   49.8330  160.7630   31.6270 C   0  0  0  0  0  0  0  0  0  0  0  0
   48.5710  160.9570   32.1180 O   0  0  0  0  0  0  0  0  0  0  0  0
   50.2100  159.6160   30.9220 C   0  0  0  0  0  0  0  0  0  0  0  0
   49.2670  158.5290   30.6560 C   0  0  0  0  0  0  0  0  0  0  0  0
   48.0990  158.5740   31.0340 O   0  0  0  0  0  0  0  0  0  0  0  0
   49.7690  157.3540   29.9070 C   0  0  0  0  0  0  0  0  0  0  0  0
   48.8650  156.3390   29.6500 O   0  0  0  0  0  0  0  0  0  0  0  0
   51.6010  154.9150   29.1940 C   0  0  0  0  0  0  0  0  0  0  0  0
   52.2090  153.8850   28.4700 C   0  0  0  0  0  0  0  0  0  0  0  0
   52.9030  154.1520   27.2790 C   0  0  0  0  0  0  0  0  0  0  0  0
   53.5250  153.0060   26.5220 C   0  0  0  0  0  0  0  0  0  0  0  0
   52.6110  152.1350   26.0080 F   0  0  0  0  0  0  0  0  0  0  0  0
   54.6543  156.3008   25.7907 H   0  0  0  0  0  0  0  0  0  0  0  0
   53.8690  154.9210   24.9503 H   0  0  0  0  0  0  0  0  0  0  0  0
   53.0843  156.5368   24.9503 H   0  0  0  0  0  0  0  0  0  0  0  0
   52.4232  157.5418   27.1950 H   0  0  0  0  0  0  0  0  0  0  0  0
   53.4743  160.3957   30.3047 H   0  0  0  0  0  0  0  0  0  0  0  0
   52.8018  162.4408   31.5682 H   0  0  0  0  0  0  0  0  0  0  0  0
   50.4653  162.6759   32.4150 H   0  0  0  0  0  0  0  0  0  0  0  0
   48.4050  160.8610   33.0350 H   0  0  0  0  0  0  0  0  0  0  0  0
   49.1730  155.4680   29.4910 H   0  0  0  0  0  0  0  0  0  0  0  0
   51.0696  154.6827   30.1287 H   0  0  0  0  0  0  0  0  0  0  0  0
   52.1427  152.8507   28.8387 H   0  0  0  0  0  0  0  0  0  0  0  0
   54.1185  153.4178   25.6925 H   0  0  0  0  0  0  0  0  0  0  0  0
   54.1427  152.4428   27.2370 H   0  0  0  0  0  0  0  0  0  0  0  0
  1  2  1  0
  2  3  2  0
  3  4  1  0
  4  5  1  0
  5  6  1  0
  6  7  1  0
  7  8  2  0
  8  9  1  0
  9 10  2  0
 10 11  1  0
 11 12  1  0
 11 13  2  0
 13 14  1  0
 14 15  2  0
 14 16  1  0
 16 17  1  0
  4 18  2  0
 18 19  1  0
 19 20  2  0
 20 21  1  0
 21 22  1  0
 20  2  1  0
 16  5  2  0
 13  7  1  0
  1 23  1  0
  1 24  1  0
  1 25  1  0
  3 26  1  0
  8 27  1  0
  9 28  1  0
 10 29  1  0
 12 30  1  0
 17 31  1  0
 18 32  1  0
 19 33  1  0
 21 34  1  0
 21 35  1  0
M  END
>  <meeko>  (5) 
{"is_sidechain": [false], "free_energy": -8.905, "intermolecular_energy": -10.441, "internal_energy": -0.22}

$$$$
cand_037_out
     RDKit          3D

 35 37  0  0  0  0  0  0  0  0999 V2000
   51.8450  159.3660   30.0180 C   0  0  0  0  0  0  0  0  0  0  0  0
   51.2820  158.0200   29.6540 C   0  0  0  0  0  0  0  0  0  0  0  0
   51.9860  157.2100   28.7430 C   0  0  0  0  0  0  0  0  0  0  0  0
   51.5110  155.9460   28.3620 C   0  0  0  0  0  0  0  0  0  0  0  0
   52.2720  155.1370   27.3870 C   0  0  0  0  0  0  0  0  0  0  0  0
   51.9660  153.7820   27.4530 O   0  0  0  0  0  0  0  0  0  0  0  0
   52.6000  152.9160   26.6010 C   0  0  0  0  0  0  0  0  0  0  0  0
   52.2730  151.5630   26.7120 C   0  0  0  0  0  0  0  0  0  0  0  0
   52.8820  150.6280   25.8730 C   0  0  0  0  0  0  0  0  0  0  0  0
   53.8170  151.0440   24.9220 C   0  0  0  0  0  0  0  0  0  0  0  0
   54.1410  152.3940   24.8120 C   0  0  0  0  0  0  0  0  0  0  0  0
   55.0630  152.7320   23.8600 O   0  0  0  0  0  0  0  0  0  0  0  0
   53.5320  153.3290   25.6540 C   0  0  0  0  0  0  0  0  0  0  0  0
   53.8440  154.7570   25.5720 C   0  0  0  0  0  0  0  0  0  0  0  0
   54.6500  155.2020   24.7570 O   0  0  0  0  0  0  0  0  0  0  0  0
   53.1490  155.6660   26.5140 C   0  0  0  0  0  0  0  0  0  0  0  0
   53.4410  157.0140   26.4180 O   0  0  0  0  0  0  0  0  0  0  0  0
   50.2950  155.5060   28.8940 C   0  0  0  0  0  0  0  0  0  0  0  0
   49.5780  156.3020   29.7910 C   0  0  0  0  0  0  0  0  0  0  0  0
   50.0520  157.5670   30.1720 C   0  0  0  0  0  0  0  0  0  0  0  0
   49.2530  158.3830   31.1580 C   0  0  0  0  0  0  0  0  0  0  0  0
   47.9950  158.6780   30.7220 F   0  0  0  0  0  0  0  0  0  0  0  0
   51.8854  159.4626   31.1130 H   0  0  0  0  0  0  0  0  0  0  0  0
   52.8593  159.4634   29.6036 H   0  0  0  0  0  0  0  0  0  0  0  0
   51.2021  160.1566   29.6036 H   0  0  0  0  0  0  0  0  0  0  0  0
   52.9323  157.5773   28.3192 H   0  0  0  0  0  0  0  0  0  0  0  0
   51.5363  151.2342   27.4598 H   0  0  0  0  0  0  0  0  0  0  0  0
   52.6252  149.5620   25.9609 H   0  0  0  0  0  0  0  0  0  0  0  0
   54.2964  150.3067   24.2613 H   0  0  0  0  0  0  0  0  0  0  0  0
   54.8140  153.2780   23.1400 H   0  0  0  0  0  0  0  0  0  0  0  0
   52.8500  157.5900   25.9760 H   0  0  0  0  0  0  0  0  0  0  0  0
   49.8984  154.5221   28.6030 H   0  0  0  0  0  0  0  0  0  0  0  0
   48.6283  155.9319   30.2046 H   0  0  0  0  0  0  0  0  0  0  0  0
   49.1727  157.8151   32.0967 H   0  0  0  0  0  0  0  0  0  0  0  0
   49.7821  159.3377   31.2942 H   0  0  0  0  0  0  0  0  0  0  0  0
  1  2  1  0
  2  3  2  0
  3  4  1  0
  4  5  1  0
  5  6  1  0
  6  7  1  0
  7  8  2  0
  8  9  1  0
  9 10  2  0
 10 11  1  0
 11 12  1  0
 11 13  2  0
 13 14  1  0
 14 15  2  0
 14 16  1  0
 16 17  1  0
  4 18  2  0
 18 19  1  0
 19 20  2  0
 20 21  1  0
 21 22  1  0
 20  2  1  0
 16  5  2  0
 13  7  1  0
  1 23  1  0
  1 24  1  0
  1 25  1  0
  3 26  1  0
  8 27  1  0
  9 28  1  0
 10 29  1  0
 12 30  1  0
 17 31  1  0
 18 32  1  0
 19 33  1  0
 21 34  1  0
 21 35  1  0
M  END
>  <meeko>  (6) 
{"is_sidechain": [false], "free_energy": -8.616, "intermolecular_energy": -10.51, "internal_energy": 0.189}

$$$$
