cand_011_out
     RDKit          3D

 35 37  0  0  0  0  0  0  0  0999 V2000
   53.0010  152.5570   26.5840 C   0  0  0  0  0  0  0  0  0  0  0  0
   52.6210  153.8420   27.2700 C   0  0  0  0  0  0  0  0  0  0  0  0
   52.0000  153.7890   28.5260 C   0  0  0  0  0  0  0  0  0  0  0  0
   51.6360  154.9600   29.1940 C   0  0  0  0  0  0  0  0  0  0  0  0
   51.8810  156.2150   28.6260 C   0  0  0  0  0  0  0  0  0  0  0  0
   51.5050  157.4420   29.3610 C   0  0  0  0  0  0  0  0  0  0  0  0
   50.1750  157.4440   29.7650 O   0  0  0  0  0  0  0  0  0  0  0  0
   49.6950  158.5270   30.4570 C   0  0  0  0  0  0  0  0  0  0  0  0
   48.3580  158.4820   30.8560 C   0  0  0  0  0  0  0  0  0  0  0  0
   47.8060  159.5530   31.5640 C   0  0  0  0  0  0  0  0  0  0  0  0
   48.5900  160.6680   31.8710 C   0  0  0  0  0  0  0  0  0  0  0  0
   49.9230  160.7100   31.4710 C   0  0  0  0  0  0  0  0  0  0  0  0
   50.6320  161.8310   31.8030 O   0  0  0  0  0  0  0  0  0  0  0  0
   50.4760  159.6380   30.7640 C   0  0  0  0  0  0  0  0  0  0  0  0
   51.8720  159.6430   30.3250 C   0  0  0  0  0  0  0  0  0  0  0  0
   52.6230  160.5900   30.5500 O   0  0  0  0  0  0  0  0  0  0  0  0
   52.3620  158.4540   29.5900 C   0  0  0  0  0  0  0  0  0  0  0  0
   53.6780  158.4710   29.1670 O   0  0  0  0  0  0  0  0  0  0  0  0
   52.5180  156.2690   27.3780 C   0  0  0  0  0  0  0  0  0  0  0  0
   52.8930  155.0980   26.6870 C   0  0  0  0  0  0  0  0  0  0  0  0
   53.5700  155.2190   25.3390 C   0  0  0  0  0  0  0  0  0  0  0  0
   53.7450  156.5150   24.9550 F   0  0  0  0  0  0  0  0  0  0  0  0
   54.8090  154.6520   25.2930 F   0  0  0  0  0  0  0  0  0  0  0  0
   52.8610  154.6250   24.3370 F   0  0  0  0  0  0  0  0  0  0  0  0
   53.2276  151.7908   27.3401 H   0  0  0  0  0  0  0  0  0  0  0  0
   52.1653  152.2159   25.9553 H   0  0  0  0  0  0  0  0  0  0  0  0
   53.8878  152.7253   25.9553 H   0  0  0  0  0  0  0  0  0  0  0  0
   51.7970  152.8129   28.9909 H   0  0  0  0  0  0  0  0  0  0  0  0
   51.1506  154.8950   30.1790 H   0  0  0  0  0  0  0  0  0  0  0  0
   47.7400  157.6049   30.6135 H   0  0  0  0  0  0  0  0  0  0  0  0
   46.7529  159.5181   31.8800 H   0  0  0  0  0  0  0  0  0  0  0  0
   48.1549  161.5111   32.4277 H   0  0  0  0  0  0  0  0  0  0  0  0
   50.6520  162.5630   31.2180 H   0  0  0  0  0  0  0  0  0  0  0  0
   54.0050  159.2050   28.6850 H   0  0  0  0  0  0  0  0  0  0  0  0
   52.7306  157.2493   26.9265 H   0  0  0  0  0  0  0  0  0  0  0  0
  1  2  1  0
  2  3  2  0
  3  4  1  0
  4  5  2  0
  5  6  1  0
  6  7  1  0
  7  8  1  0
  8  9  2  0
  9 10  1  0
 10 11  2  0
 11 12  1  0
 12 13  1  0
 12 14  2  0
 14 15  1  0
 15 16  2  0
 15 17  1  0
 17 18  1  0
  5 19  1  0
 19 20  2  0
 20 21  1  0
 21 22  1  0
 21 23  1  0
 21 24  1  0
 20  2  1  0
 17  6  2  0
 14  8  1  0
  1 25  1  0
  1 26  1  0
  1 27  1  0
  3 28  1  0
  4 29  1  0
  9 30  1  0
 10 31  1  0
 11 32  1  0
 13 33  1  0
 18 34  1  0
 19 35  1  0
M  END
>  <meeko>  (1) 
{"is_sidechain": [false], "free_energy": -10.84, "intermolecular_energy": -12.741, "internal_energy": -0.193}

$$$$
cand_011_out
     RDKit          3D

 35 37  0  0  0  0  0  0  0  0999 V2000
   50.2370  161.3570   31.6410 C   0  0  0  0  0  0  0  0  0  0  0  0
   50.6490  160.1210   30.8880 C   0  0  0  0  0  0  0  0  0  0  0  0
   51.9860  159.9760   30.4890 C   0  0  0  0  0  0  0  0  0  0  0  0
   52.4060  158.8410   29.7920 C   0  0  0  0  0  0  0  0  0  0  0  0
   51.5040  157.8210   29.4720 C   0  0  0  0  0  0  0  0  0  0  0  0
   51.9750  156.6200   28.7500 C   0  0  0  0  0  0  0  0  0  0  0  0
   52.5650  156.9200   27.5280 O   0  0  0  0  0  0  0  0  0  0  0  0
   53.0450  155.8940   26.7550 C   0  0  0  0  0  0  0  0  0  0  0  0
   53.6430  156.2400   25.5420 C   0  0  0  0  0  0  0  0  0  0  0  0
   54.1520  155.2440   24.7060 C   0  0  0  0  0  0  0  0  0  0  0  0
   54.0630  153.9010   25.0830 C   0  0  0  0  0  0  0  0  0  0  0  0
   53.4670  153.5590   26.2940 C   0  0  0  0  0  0  0  0  0  0  0  0
   53.4120  152.2270   26.6000 O   0  0  0  0  0  0  0  0  0  0  0  0
   52.9580  154.5570   27.1300 C   0  0  0  0  0  0  0  0  0  0  0  0
   52.3240  154.2390   28.4100 C   0  0  0  0  0  0  0  0  0  0  0  0
   52.2010  153.0820   28.8080 O   0  0  0  0  0  0  0  0  0  0  0  0
   51.8250  155.3700   29.2260 C   0  0  0  0  0  0  0  0  0  0  0  0
   51.2150  155.0610   30.4270 O   0  0  0  0  0  0  0  0  0  0  0  0
   50.1700  157.9570   29.8850 C   0  0  0  0  0  0  0  0  0  0  0  0
   49.7260  159.0950   30.5910 C   0  0  0  0  0  0  0  0  0  0  0  0
   48.2730  159.1900   31.0030 C   0  0  0  0  0  0  0  0  0  0  0  0
   48.0660  158.7830   32.2870 F   0  0  0  0  0  0  0  0  0  0  0  0
   47.7630  160.4520   30.9310 F   0  0  0  0  0  0  0  0  0  0  0  0
   47.4540  158.4220   30.2300 F   0  0  0  0  0  0  0  0  0  0  0  0
   50.3007  161.1658   32.7224 H   0  0  0  0  0  0  0  0  0  0  0  0
   50.9066  162.1883   31.3755 H   0  0  0  0  0  0  0  0  0  0  0  0
   49.2025  161.6203   31.3755 H   0  0  0  0  0  0  0  0  0  0  0  0
   52.7128  160.7663   30.7281 H   0  0  0  0  0  0  0  0  0  0  0  0
   53.4599  158.7480   29.4908 H   0  0  0  0  0  0  0  0  0  0  0  0
   53.7132  157.2968   25.2448 H   0  0  0  0  0  0  0  0  0  0  0  0
   54.6233  155.5165   23.7502 H   0  0  0  0  0  0  0  0  0  0  0  0
   54.4629  153.1160   24.4244 H   0  0  0  0  0  0  0  0  0  0  0  0
   52.8560  151.9280   27.2920 H   0  0  0  0  0  0  0  0  0  0  0  0
   51.4620  154.2860   30.8920 H   0  0  0  0  0  0  0  0  0  0  0  0
   49.4524  157.1564   29.6525 H   0  0  0  0  0  0  0  0  0  0  0  0
  1  2  1  0
  2  3  2  0
  3  4  1  0
  4  5  2  0
  5  6  1  0
  6  7  1  0
  7  8  1  0
  8  9  2  0
  9 10  1  0
 10 11  2  0
 11 12  1  0
 12 13  1  0
 12 14  2  0
 14 15  1  0
 15 16  2  0
 15 17  1  0
 17 18  1  0
  5 19  1  0
 19 20  2  0
 20 21  1  0
 21 22  1  0
 21 23  1  0
 21 24  1  0
 20  2  1  0
 17  6  2  0
 14  8  1  0
  1 25  1  0
  1 26  1  0
  1 27  1  0
  3 28  1  0
  4 29  1  0
  9 30  1  0
 10 31  1  0
 11 32  1  0
 13 33  1  0
 18 34  1  0
 19 35  1  0
M  END
>  <meeko>  (2) 
{"is_sidechain": [false], "free_energy": -10.681, "intermolecular_energy": -12.682, "internal_energy": -0.065}

$$$$
cand_011_out
     RDKit          3D

 35 37  0  0  0  0  0  0  0  0999 V2000
   49.0830  160.3980   31.5940 C   0  0  0  0  0  0  0  0  0  0  0  0
   49.8310  159.3310   30.8400 C   0  0  0  0  0  0  0  0  0  0  0  0
   49.1760  158.1320   30.5230 C   0  0  0  0  0  0  0  0  0  0  0  0
   49.8350  157.1210   29.8210 C   0  0  0  0  0  0  0  0  0  0  0  0
   51.1660  157.2770   29.4190 C   0  0  0  0  0  0  0  0  0  0  0  0
   51.8370  156.2010   28.6600 C   0  0  0  0  0  0  0  0  0  0  0  0
   52.3630  156.6390   27.4500 O   0  0  0  0  0  0  0  0  0  0  0  0
   53.0130  155.7370   26.6460 C   0  0  0  0  0  0  0  0  0  0  0  0
   53.5380  156.2220   25.4470 C   0  0  0  0  0  0  0  0  0  0  0  0
   54.2120  155.3570   24.5810 C   0  0  0  0  0  0  0  0  0  0  0  0
   54.3590  154.0080   24.9140 C   0  0  0  0  0  0  0  0  0  0  0  0
   53.8350  153.5280   26.1110 C   0  0  0  0  0  0  0  0  0  0  0  0
   54.0140  152.1970   26.3730 O   0  0  0  0  0  0  0  0  0  0  0  0
   53.1610  154.3940   26.9770 C   0  0  0  0  0  0  0  0  0  0  0  0
   52.5950  153.9290   28.2440 C   0  0  0  0  0  0  0  0  0  0  0  0
   52.6760  152.7560   28.6040 O   0  0  0  0  0  0  0  0  0  0  0  0
   51.9080  154.9290   29.0940 C   0  0  0  0  0  0  0  0  0  0  0  0
   51.3650  154.4800   30.2830 O   0  0  0  0  0  0  0  0  0  0  0  0
   51.8160  158.4830   29.7210 C   0  0  0  0  0  0  0  0  0  0  0  0
   51.1670  159.5170   30.4280 C   0  0  0  0  0  0  0  0  0  0  0  0
   51.9230  160.7920   30.7320 C   0  0  0  0  0  0  0  0  0  0  0  0
   51.3900  161.8790   30.1060 F   0  0  0  0  0  0  0  0  0  0  0  0
   51.9540  161.1100   32.0580 F   0  0  0  0  0  0  0  0  0  0  0  0
   53.2280  160.7390   30.3420 F   0  0  0  0  0  0  0  0  0  0  0  0
   49.1990  160.2326   32.6753 H   0  0  0  0  0  0  0  0  0  0  0  0
   49.4872  161.3861   31.3288 H   0  0  0  0  0  0  0  0  0  0  0  0
   48.0163  160.3550   31.3288 H   0  0  0  0  0  0  0  0  0  0  0  0
   48.1302  157.9864   30.8313 H   0  0  0  0  0  0  0  0  0  0  0  0
   49.3009  156.1898   29.5809 H   0  0  0  0  0  0  0  0  0  0  0  0
   53.4213  157.2838   25.1842 H   0  0  0  0  0  0  0  0  0  0  0  0
   54.6272  155.7383   23.6364 H   0  0  0  0  0  0  0  0  0  0  0  0
   54.8879  153.3265   24.2315 H   0  0  0  0  0  0  0  0  0  0  0  0
   53.4070  151.7430   26.9240 H   0  0  0  0  0  0  0  0  0  0  0  0
   51.6310  154.8650   31.0950 H   0  0  0  0  0  0  0  0  0  0  0  0
   52.8579  158.6260   29.3984 H   0  0  0  0  0  0  0  0  0  0  0  0
  1  2  1  0
  2  3  2  0
  3  4  1  0
  4  5  2  0
  5  6  1  0
  6  7  1  0
  7  8  1  0
  8  9  2  0
  9 10  1  0
 10 11  2  0
 11 12  1  0
 12 13  1  0
 12 14  2  0
 14 15  1  0
 15 16  2  0
 15 17  1  0
 17 18  1  0
  5 19  1  0
 19 20  2  0
 20 21  1  0
 21 22  1  0
 21 23  1  0
 21 24  1  0
 20  2  1  0
 17  6  2  0
 14  8  1  0
  1 25  1  0
  1 26  1  0
  1 27  1  0
  3 28  1  0
  4 29  1  0
  9 30  1  0
 10 31  1  0
 11 32  1  0
 13 33  1  0
 18 34  1  0
 19 35  1  0
M  END
>  <meeko>  (3) 
{"is_sidechain": [false], "free_energy": -10.571, "intermolecular_energy": -12.408, "internal_energy": -0.211}

$$$$
cand_011_out
     RDKit          3D

 35 37  0  0  0  0  0  0  0  0999 V2000
   53.5910  152.6650   26.5100 C   0  0  0  0  0  0  0  0  0  0  0  0
   52.9540  153.8380   27.2060 C   0  0  0  0  0  0  0  0  0  0  0  0
   52.4010  153.6600   28.4820 C   0  0  0  0  0  0  0  0  0  0  0  0
   51.8060  154.7260   29.1590 C   0  0  0  0  0  0  0  0  0  0  0  0
   51.7450  155.9980   28.5810 C   0  0  0  0  0  0  0  0  0  0  0  0
   51.1270  157.1160   29.3250 C   0  0  0  0  0  0  0  0  0  0  0  0
   52.0180  158.1500   29.5860 O   0  0  0  0  0  0  0  0  0  0  0  0
   51.5720  159.2520   30.2730 C   0  0  0  0  0  0  0  0  0  0  0  0
   52.4960  160.2730   30.5010 C   0  0  0  0  0  0  0  0  0  0  0  0
   52.1070  161.4220   31.1940 C   0  0  0  0  0  0  0  0  0  0  0  0
   50.7960  161.5480   31.6590 C   0  0  0  0  0  0  0  0  0  0  0  0
   49.8770  160.5280   31.4300 C   0  0  0  0  0  0  0  0  0  0  0  0
   48.6120  160.7170   31.9140 O   0  0  0  0  0  0  0  0  0  0  0  0
   50.2660  159.3790   30.7360 C   0  0  0  0  0  0  0  0  0  0  0  0
   49.3310  158.2840   30.4740 C   0  0  0  0  0  0  0  0  0  0  0  0
   48.1630  158.3170   30.8580 O   0  0  0  0  0  0  0  0  0  0  0  0
   49.8400  157.1140   29.7220 C   0  0  0  0  0  0  0  0  0  0  0  0
   48.9550  156.0780   29.4900 O   0  0  0  0  0  0  0  0  0  0  0  0
   52.3130  156.1810   27.3120 C   0  0  0  0  0  0  0  0  0  0  0  0
   52.9190  155.1180   26.6120 C   0  0  0  0  0  0  0  0  0  0  0  0
   53.5080  155.3750   25.2410 C   0  0  0  0  0  0  0  0  0  0  0  0
   53.3510  156.6670   24.8380 F   0  0  0  0  0  0  0  0  0  0  0  0
   54.8460  155.1260   25.1630 F   0  0  0  0  0  0  0  0  0  0  0  0
   52.9390  154.6070   24.2700 F   0  0  0  0  0  0  0  0  0  0  0  0
   53.9750  151.9579   27.2601 H   0  0  0  0  0  0  0  0  0  0  0  0
   52.8425  152.1613   25.8807 H   0  0  0  0  0  0  0  0  0  0  0  0
   54.4210  153.0186   25.8807 H   0  0  0  0  0  0  0  0  0  0  0  0
   52.4364  152.6678   28.9556 H   0  0  0  0  0  0  0  0  0  0  0  0
   51.3797  154.5634   30.1599 H   0  0  0  0  0  0  0  0  0  0  0  0
   53.5287  160.1731   30.1357 H   0  0  0  0  0  0  0  0  0  0  0  0
   52.8337  162.2280   31.3736 H   0  0  0  0  0  0  0  0  0  0  0  0
   50.4901  162.4523   32.2056 H   0  0  0  0  0  0  0  0  0  0  0  0
   48.1650  161.5250   31.7550 H   0  0  0  0  0  0  0  0  0  0  0  0
   48.6140  155.9380   28.6290 H   0  0  0  0  0  0  0  0  0  0  0  0
   52.2850  157.1794   26.8511 H   0  0  0  0  0  0  0  0  0  0  0  0
  1  2  1  0
  2  3  2  0
  3  4  1  0
  4  5  2  0
  5  6  1  0
  6  7  1  0
  7  8  1  0
  8  9  2  0
  9 10  1  0
 10 11  2  0
 11 12  1  0
 12 13  1  0
 12 14  2  0
 14 15  1  0
 15 16  2  0
 15 17  1  0
 17 18  1  0
  5 19  1  0
 19 20  2  0
 20 21  1  0
 21 22  1  0
 21 23  1  0
 21 24  1  0
 20  2  1  0
 17  6  2  0
 14  8  1  0
  1 25  1  0
  1 26  1  0
  1 27  1  0
  3 28  1  0
  4 29  1  0
  9 30  1  0
 10 31  1  0
 11 32  1  0
 13 33  1  0
 18 34  1  0
 19 35  1  0
M  END
>  <meeko>  (4) 
{"is_sidechain": [false], "free_energy": -9.67, "intermolecular_energy": -11.272, "internal_energy": -0.287}

$$$$
cand_011_out
     RDKit          3D

 35 37  0  0  0  0  0  0  0  0999 V2000
   53.4170  154.2470   26.0380 C   0  0  0  0  0  0  0  0  0  0  0  0
   52.9100  155.2770   27.0110 C   0  0  0  0  0  0  0  0  0  0  0  0
   52.9820  156.6350   26.6680 C   0  0  0  0  0  0  0  0  0  0  0  0
   52.5170  157.6190   27.5430 C   0  0  0  0  0  0  0  0  0  0  0  0
   51.9720  157.2760   28.7840 C   0  0  0  0  0  0  0  0  0  0  0  0
   51.4700  158.3340   29.6860 C   0  0  0  0  0  0  0  0  0  0  0  0
   50.1270  158.1780   30.0090 O   0  0  0  0  0  0  0  0  0  0  0  0
   49.5340  159.0940   30.8400 C   0  0  0  0  0  0  0  0  0  0  0  0
   48.1890  158.8910   31.1500 C   0  0  0  0  0  0  0  0  0  0  0  0
   47.5240  159.7880   31.9900 C   0  0  0  0  0  0  0  0  0  0  0  0
   48.2050  160.8870   32.5190 C   0  0  0  0  0  0  0  0  0  0  0  0
   49.5480  161.0870   32.2090 C   0  0  0  0  0  0  0  0  0  0  0  0
   50.1520  162.1830   32.7600 O   0  0  0  0  0  0  0  0  0  0  0  0
   50.2120  160.1890   31.3680 C   0  0  0  0  0  0  0  0  0  0  0  0
   51.6220  160.3630   31.0170 C   0  0  0  0  0  0  0  0  0  0  0  0
   52.2870  161.3080   31.4360 O   0  0  0  0  0  0  0  0  0  0  0  0
   52.2350  159.3510   30.1260 C   0  0  0  0  0  0  0  0  0  0  0  0
   53.5630  159.5290   29.7880 O   0  0  0  0  0  0  0  0  0  0  0  0
   51.8850  155.9170   29.1210 C   0  0  0  0  0  0  0  0  0  0  0  0
   52.3480  154.9080   28.2510 C   0  0  0  0  0  0  0  0  0  0  0  0
   52.2350  153.4590   28.6730 C   0  0  0  0  0  0  0  0  0  0  0  0
   51.6070  153.3100   29.8740 F   0  0  0  0  0  0  0  0  0  0  0  0
   51.5360  152.6840   27.7950 F   0  0  0  0  0  0  0  0  0  0  0  0
   53.4480  152.8520   28.8070 F   0  0  0  0  0  0  0  0  0  0  0  0
   53.8367  153.3944   26.5921 H   0  0  0  0  0  0  0  0  0  0  0  0
   52.5867  153.9002   25.4053 H   0  0  0  0  0  0  0  0  0  0  0  0
   54.1983  154.6935   25.4053 H   0  0  0  0  0  0  0  0  0  0  0  0
   53.4099  156.9285   25.6981 H   0  0  0  0  0  0  0  0  0  0  0  0
   52.5803  158.6779   27.2520 H   0  0  0  0  0  0  0  0  0  0  0  0
   47.6526  158.0257   30.7336 H   0  0  0  0  0  0  0  0  0  0  0  0
   46.4635  159.6286   32.2349 H   0  0  0  0  0  0  0  0  0  0  0  0
   47.6812  161.5936   33.1796 H   0  0  0  0  0  0  0  0  0  0  0  0
   49.6500  162.7880   33.2700 H   0  0  0  0  0  0  0  0  0  0  0  0
   54.2380  159.1910   30.3450 H   0  0  0  0  0  0  0  0  0  0  0  0
   51.4448  155.6312   30.0877 H   0  0  0  0  0  0  0  0  0  0  0  0
  1  2  1  0
  2  3  2  0
  3  4  1  0
  4  5  2  0
  5  6  1  0
  6  7  1  0
  7  8  1  0
  8  9  2  0
  9 10  1  0
 10 11  2  0
 11 12  1  0
 12 13  1  0
 12 14  2  0
 14 15  1  0
 15 16  2  0
 15 17  1  0
 17 18  1  0
  5 19  1  0
 19 20  2  0
 20 21  1  0
 21 22  1  0
 21 23  1  0
 21 24  1  0
 20  2  1  0
 17  6  2  0
 14  8  1  0
  1 25  1  0
  1 26  1  0
  1 27  1  0
  3 28  1  0
  4 29  1  0
  9 30  1  0
 10 31  1  0
 11 32  1  0
 13 33  1  0
 18 34  1  0
 19 35  1  0
M  END
>  <meeko>  (5) 
{"is_sidechain": [false], "free_energy": -9.013, "intermolecular_energy": -10.535, "internal_energy": -0.252}

$$$$
cand_011_out
     RDKit          3D

 35 37  0  0  0  0  0  0  0  0999 V2000
   48.9660  158.2880   31.1850 C   0  0  0  0  0  0  0  0  0  0  0  0
   49.8270  157.5110   30.2260 C   0  0  0  0  0  0  0  0  0  0  0  0
   49.4090  156.2400   29.8070 C   0  0  0  0  0  0  0  0  0  0  0  0
   50.1800  155.4910   28.9150 C   0  0  0  0  0  0  0  0  0  0  0  0
   51.3890  155.9890   28.4190 C   0  0  0  0  0  0  0  0  0  0  0  0
   52.1790  155.1870   27.4610 C   0  0  0  0  0  0  0  0  0  0  0  0
   51.8890  153.8290   27.5240 O   0  0  0  0  0  0  0  0  0  0  0  0
   52.5540  152.9700   26.6870 C   0  0  0  0  0  0  0  0  0  0  0  0
   52.2230  151.6170   26.7730 C   0  0  0  0  0  0  0  0  0  0  0  0
   52.8630  150.6880   25.9490 C   0  0  0  0  0  0  0  0  0  0  0  0
   53.8350  151.1130   25.0400 C   0  0  0  0  0  0  0  0  0  0  0  0
   54.1640  152.4630   24.9560 C   0  0  0  0  0  0  0  0  0  0  0  0
   55.1250  152.8090   24.0460 O   0  0  0  0  0  0  0  0  0  0  0  0
   53.5220  153.3920   25.7800 C   0  0  0  0  0  0  0  0  0  0  0  0
   53.8390  154.8200   25.7240 C   0  0  0  0  0  0  0  0  0  0  0  0
   54.6870  155.2700   24.9560 O   0  0  0  0  0  0  0  0  0  0  0  0
   53.0960  155.7220   26.6330 C   0  0  0  0  0  0  0  0  0  0  0  0
   53.4090  157.0670   26.5830 O   0  0  0  0  0  0  0  0  0  0  0  0
   51.8000  157.2670   28.8250 C   0  0  0  0  0  0  0  0  0  0  0  0
   51.0360  158.0390   29.7250 C   0  0  0  0  0  0  0  0  0  0  0  0
   51.5350  159.4080   30.1340 C   0  0  0  0  0  0  0  0  0  0  0  0
   50.8390  160.4180   29.5390 F   0  0  0  0  0  0  0  0  0  0  0  0
   51.4520  159.6460   31.4740 F   0  0  0  0  0  0  0  0  0  0  0  0
   52.8430  159.6120   29.8090 F   0  0  0  0  0  0  0  0  0  0  0  0
   49.2469  158.0345   32.2179 H   0  0  0  0  0  0  0  0  0  0  0  0
   49.1126  159.3655   31.0190 H   0  0  0  0  0  0  0  0  0  0  0  0
   47.9092  158.0319   31.0190 H   0  0  0  0  0  0  0  0  0  0  0  0
   48.4621  155.8275   30.1854 H   0  0  0  0  0  0  0  0  0  0  0  0
   49.8317  154.4967   28.5986 H   0  0  0  0  0  0  0  0  0  0  0  0
   51.4584  151.2821   27.4894 H   0  0  0  0  0  0  0  0  0  0  0  0
   52.6015  149.6216   26.0159 H   0  0  0  0  0  0  0  0  0  0  0  0
   54.3397  150.3818   24.3915 H   0  0  0  0  0  0  0  0  0  0  0  0
   55.9520  153.1350   24.3400 H   0  0  0  0  0  0  0  0  0  0  0  0
   53.8730  157.4130   25.8470 H   0  0  0  0  0  0  0  0  0  0  0  0
   52.7417  157.6776   28.4317 H   0  0  0  0  0  0  0  0  0  0  0  0
  1  2  1  0
  2  3  2  0
  3  4  1  0
  4  5  2  0
  5  6  1  0
  6  7  1  0
  7  8  1  0
  8  9  2  0
  9 10  1  0
 10 11  2  0
 11 12  1  0
 12 13  1  0
 12 14  2  0
 14 15  1  0
 15 16  2  0
 15 17  1  0
 17 18  1  0
  5 19  1  0
 19 20  2  0
 20 21  1  0
 21 22  1  0
 21 23  1  0
 21 24  1  0
 20  2  1  0
 17  6  2  0
 14  8  1  0
  1 25  1  0
  1 26  1  0
  1 27  1  0
  3 28  1  0
  4 29  1  0
  9 30  1  0
 10 31  1  0
 11 32  1  0
 13 33  1  0
 18 34  1  0
 19 35  1  0
M  END
>  <meeko>  (6) 
{"is_sidechain": [false], "free_energy": -8.522, "intermolecular_energy": -10.41, "internal_energy": 0.201}

$$$$
cand_011_out
     RDKit          3D

 35 37  0  0  0  0  0  0  0  0999 V2000
   53.8640  154.2860   25.5610 C   0  0  0  0  0  0  0  0  0  0  0  0
   53.1760  155.1580   26.5760 C   0  0  0  0  0  0  0  0  0  0  0  0
   53.2950  156.5520   26.4730 C   0  0  0  0  0  0  0  0  0  0  0  0
   52.6680  157.3930   27.3940 C   0  0  0  0  0  0  0  0  0  0  0  0
   51.9070  156.8680   28.4440 C   0  0  0  0  0  0  0  0  0  0  0  0
   51.2360  157.7780   29.3960 C   0  0  0  0  0  0  0  0  0  0  0  0
   51.9970  158.9020   29.6970 O   0  0  0  0  0  0  0  0  0  0  0  0
   51.4900  159.8300   30.5710 C   0  0  0  0  0  0  0  0  0  0  0  0
   52.2800  160.9500   30.8340 C   0  0  0  0  0  0  0  0  0  0  0  0
   51.8230  161.9330   31.7160 C   0  0  0  0  0  0  0  0  0  0  0  0
   50.5780  161.7950   32.3340 C   0  0  0  0  0  0  0  0  0  0  0  0
   49.7920  160.6760   32.0690 C   0  0  0  0  0  0  0  0  0  0  0  0
   48.5850  160.6040   32.7090 O   0  0  0  0  0  0  0  0  0  0  0  0
   50.2490  159.6930   31.1860 C   0  0  0  0  0  0  0  0  0  0  0  0
   49.4540  158.5030   30.8820 C   0  0  0  0  0  0  0  0  0  0  0  0
   48.3530  158.3060   31.3910 O   0  0  0  0  0  0  0  0  0  0  0  0
   50.0250  157.5260   29.9260 C   0  0  0  0  0  0  0  0  0  0  0  0
   49.2750  156.3980   29.6530 O   0  0  0  0  0  0  0  0  0  0  0  0
   51.7740  155.4740   28.5370 C   0  0  0  0  0  0  0  0  0  0  0  0
   52.3990  154.6070   27.6170 C   0  0  0  0  0  0  0  0  0  0  0  0
   52.2260  153.1120   27.7740 C   0  0  0  0  0  0  0  0  0  0  0  0
   53.4160  152.4510   27.8450 F   0  0  0  0  0  0  0  0  0  0  0  0
   51.5400  152.7530   28.8960 F   0  0  0  0  0  0  0  0  0  0  0  0
   51.5450  152.5480   26.7370 F   0  0  0  0  0  0  0  0  0  0  0  0
   54.4650  153.5243   26.0792 H   0  0  0  0  0  0  0  0  0  0  0  0
   53.1099  153.7918   24.9309 H   0  0  0  0  0  0  0  0  0  0  0  0
   54.5201  154.9044   24.9309 H   0  0  0  0  0  0  0  0  0  0  0  0
   53.8896  156.9877   25.6565 H   0  0  0  0  0  0  0  0  0  0  0  0
   52.7737  158.4832   27.2928 H   0  0  0  0  0  0  0  0  0  0  0  0
   53.2607  161.0589   30.3479 H   0  0  0  0  0  0  0  0  0  0  0  0
   52.4445  162.8165   31.9238 H   0  0  0  0  0  0  0  0  0  0  0  0
   50.2189  162.5686   33.0287 H   0  0  0  0  0  0  0  0  0  0  0  0
   47.7910  160.7270   32.2270 H   0  0  0  0  0  0  0  0  0  0  0  0
   48.8920  155.9080   30.3550 H   0  0  0  0  0  0  0  0  0  0  0  0
   51.1666  155.0466   29.3484 H   0  0  0  0  0  0  0  0  0  0  0  0
  1  2  1  0
  2  3  2  0
  3  4  1  0
  4  5  2  0
  5  6  1  0
  6  7  1  0
  7  8  1  0
  8  9  2  0
  9 10  1  0
 10 11  2  0
 11 12  1  0
 12 13  1  0
 12 14  2  0
 14 15  1  0
 15 16  2  0
 15 17  1  0
 17 18  1  0
  5 19  1  0
 19 20  2  0
 20 21  1  0
 21 22  1  0
 21 23  1  0
 21 24  1  0
 20  2  1  0
 17  6  2  0
 14  8  1  0
  1 25  1  0
  1 26  1  0
  1 27  1  0
  3 28  1  0
  4 29  1  0
  9 30  1  0
 10 31  1  0
 11 32  1  0
 13 33  1  0
 18 34  1  0
 19 35  1  0
M  END
>  <meeko>  (7) 
{"is_sidechain": [false], "free_energy": -8.154, "intermolecular_energy": -9.786, "internal_energy": 0.009}

$$$$
