cand_044_out
     RDKit          3D

 41 43  0  0  0  0  0  0  0  0999 V2000
   48.7950  161.4890   33.7230 C   0  0  0  0  0  0  0  0  0  0  0  0
   50.0960  161.1020   33.0370 C   0  0  0  0  0  0  0  0  0  0  0  0
   49.9920  161.2520   31.5180 C   0  0  0  0  0  0  0  0  0  0  0  0
   50.4470  160.0030   30.7950 C   0  0  0  0  0  0  0  0  0  0  0  0
   51.7850  159.9310   30.3710 C   0  0  0  0  0  0  0  0  0  0  0  0
   52.2650  158.8140   29.6840 C   0  0  0  0  0  0  0  0  0  0  0  0
   51.4200  157.7410   29.3890 C   0  0  0  0  0  0  0  0  0  0  0  0
   51.9080  156.5350   28.6840 C   0  0  0  0  0  0  0  0  0  0  0  0
   52.5140  156.8300   27.4670 O   0  0  0  0  0  0  0  0  0  0  0  0
   53.0170  155.8020   26.7110 C   0  0  0  0  0  0  0  0  0  0  0  0
   53.6090  156.1420   25.4940 C   0  0  0  0  0  0  0  0  0  0  0  0
   54.1420  155.1440   24.6760 C   0  0  0  0  0  0  0  0  0  0  0  0
   54.0840  153.8080   25.0740 C   0  0  0  0  0  0  0  0  0  0  0  0
   53.4930  153.4710   26.2900 C   0  0  0  0  0  0  0  0  0  0  0  0
   53.4710  152.1430   26.6190 O   0  0  0  0  0  0  0  0  0  0  0  0
   52.9610  154.4700   27.1080 C   0  0  0  0  0  0  0  0  0  0  0  0
   52.3330  154.1600   28.3930 C   0  0  0  0  0  0  0  0  0  0  0  0
   52.2490  153.0090   28.8160 O   0  0  0  0  0  0  0  0  0  0  0  0
   51.7940  155.2910   29.1830 C   0  0  0  0  0  0  0  0  0  0  0  0
   51.2170  154.9870   30.4030 O   0  0  0  0  0  0  0  0  0  0  0  0
   50.0850  157.8080   29.8150 C   0  0  0  0  0  0  0  0  0  0  0  0
   49.5800  158.9280   30.5090 C   0  0  0  0  0  0  0  0  0  0  0  0
   48.1340  158.9210   30.9480 C   0  0  0  0  0  0  0  0  0  0  0  0
   47.9800  158.7170   32.2870 F   0  0  0  0  0  0  0  0  0  0  0  0
   47.4770  160.0880   30.6830 F   0  0  0  0  0  0  0  0  0  0  0  0
   48.9297  161.4489   34.8140 H   0  0  0  0  0  0  0  0  0  0  0  0
   48.5132  162.5099   33.4256 H   0  0  0  0  0  0  0  0  0  0  0  0
   48.0011  160.7881   33.4256 H   0  0  0  0  0  0  0  0  0  0  0  0
   50.9026  161.7522   33.4065 H   0  0  0  0  0  0  0  0  0  0  0  0
   50.3084  160.0475   33.2671 H   0  0  0  0  0  0  0  0  0  0  0  0
   48.9443  161.4553   31.2517 H   0  0  0  0  0  0  0  0  0  0  0  0
   50.6471  162.0809   31.2117 H   0  0  0  0  0  0  0  0  0  0  0  0
   52.4656  160.7686   30.5839 H   0  0  0  0  0  0  0  0  0  0  0  0
   53.3192  158.7785   29.3719 H   0  0  0  0  0  0  0  0  0  0  0  0
   53.6557  157.1950   25.1795 H   0  0  0  0  0  0  0  0  0  0  0  0
   54.6084  155.4114   23.7163 H   0  0  0  0  0  0  0  0  0  0  0  0
   54.5041  153.0222   24.4290 H   0  0  0  0  0  0  0  0  0  0  0  0
   54.2260  151.6090   26.4630 H   0  0  0  0  0  0  0  0  0  0  0  0
   50.3230  155.2130   30.5680 H   0  0  0  0  0  0  0  0  0  0  0  0
   49.4130  156.9636   29.6020 H   0  0  0  0  0  0  0  0  0  0  0  0
   47.7095  158.0901   30.3654 H   0  0  0  0  0  0  0  0  0  0  0  0
  1  2  1  0
  2  3  1  0
  3  4  1  0
  4  5  2  0
  5  6  1  0
  6  7  2  0
  7  8  1  0
  8  9  1  0
  9 10  1  0
 10 11  2  0
 11 12  1  0
 12 13  2  0
 13 14  1  0
 14 15  1  0
 14 16  2  0
 16 17  1  0
 17 18  2  0
 17 19  1  0
 19 20  1  0
  7 21  1  0
 21 22  2  0
 22 23  1  0
 23 24  1  0
 23 25  1  0
 22  4  1  0
 19  8  2  0
 16 10  1  0
  1 26  1  0
  1 27  1  0
  1 28  1  0
  2 29  1  0
  2 30  1  0
  3 31  1  0
  3 32  1  0
  5 33  1  0
  6 34  1  0
 11 35  1  0
 12 36  1  0
 13 37  1  0
 15 38  1  0
 20 39  1  0
 21 40  1  0
 23 41  1  0
M  END
>  <meeko>  (1) 
{"is_sidechain": [false], "free_energy": -10.87, "intermolecular_energy": -14.047, "internal_energy": -0.543}

$$$$
cand_044_out
     RDKit          3D

 41 43  0  0  0  0  0  0  0  0999 V2000
   48.8870  161.5330   33.8610 C   0  0  0  0  0  0  0  0  0  0  0  0
   49.2670  160.2990   33.0570 C   0  0  0  0  0  0  0  0  0  0  0  0
   49.3390  160.6090   31.5610 C   0  0  0  0  0  0  0  0  0  0  0  0
   50.0340  159.5070   30.7900 C   0  0  0  0  0  0  0  0  0  0  0  0
   49.3010  158.3500   30.4780 C   0  0  0  0  0  0  0  0  0  0  0  0
   49.8880  157.2890   29.7840 C   0  0  0  0  0  0  0  0  0  0  0  0
   51.2270  157.3480   29.3920 C   0  0  0  0  0  0  0  0  0  0  0  0
   51.8670  156.2500   28.6350 C   0  0  0  0  0  0  0  0  0  0  0  0
   52.4060  156.6720   27.4240 O   0  0  0  0  0  0  0  0  0  0  0  0
   53.0350  155.7540   26.6220 C   0  0  0  0  0  0  0  0  0  0  0  0
   53.5520  156.2190   25.4120 C   0  0  0  0  0  0  0  0  0  0  0  0
   54.2060  155.3360   24.5490 C   0  0  0  0  0  0  0  0  0  0  0  0
   54.3430  153.9910   24.8960 C   0  0  0  0  0  0  0  0  0  0  0  0
   53.8260  153.5300   26.1040 C   0  0  0  0  0  0  0  0  0  0  0  0
   53.9960  152.2010   26.3820 O   0  0  0  0  0  0  0  0  0  0  0  0
   53.1720  154.4130   26.9670 C   0  0  0  0  0  0  0  0  0  0  0  0
   52.6160  153.9710   28.2460 C   0  0  0  0  0  0  0  0  0  0  0  0
   52.7020  152.8040   28.6250 O   0  0  0  0  0  0  0  0  0  0  0  0
   51.9370  154.9840   29.0860 C   0  0  0  0  0  0  0  0  0  0  0  0
   51.4300  154.5570   30.3000 O   0  0  0  0  0  0  0  0  0  0  0  0
   51.9600  158.5050   29.6980 C   0  0  0  0  0  0  0  0  0  0  0  0
   51.3870  159.5860   30.3990 C   0  0  0  0  0  0  0  0  0  0  0  0
   52.2360  160.8040   30.6790 C   0  0  0  0  0  0  0  0  0  0  0  0
   51.8020  161.9220   30.0330 F   0  0  0  0  0  0  0  0  0  0  0  0
   52.2820  161.1460   32.0000 F   0  0  0  0  0  0  0  0  0  0  0  0
   48.9567  161.3066   34.9352 H   0  0  0  0  0  0  0  0  0  0  0  0
   49.5731  162.3568   33.6146 H   0  0  0  0  0  0  0  0  0  0  0  0
   47.8564  161.8281   33.6146 H   0  0  0  0  0  0  0  0  0  0  0  0
   50.2498  159.9395   33.3959 H   0  0  0  0  0  0  0  0  0  0  0  0
   48.4953  159.5312   33.2151 H   0  0  0  0  0  0  0  0  0  0  0  0
   48.3166  160.7251   31.1721 H   0  0  0  0  0  0  0  0  0  0  0  0
   49.9194  161.5344   31.4317 H   0  0  0  0  0  0  0  0  0  0  0  0
   48.2472  158.2782   30.7852 H   0  0  0  0  0  0  0  0  0  0  0  0
   49.2893  156.3980   29.5439 H   0  0  0  0  0  0  0  0  0  0  0  0
   53.4448  157.2790   25.1381 H   0  0  0  0  0  0  0  0  0  0  0  0
   54.6135  155.7013   23.5948 H   0  0  0  0  0  0  0  0  0  0  0  0
   54.8585  153.2964   24.2164 H   0  0  0  0  0  0  0  0  0  0  0  0
   53.5690  151.5540   25.8540 H   0  0  0  0  0  0  0  0  0  0  0  0
   51.9750  154.5530   31.0610 H   0  0  0  0  0  0  0  0  0  0  0  0
   53.0116  158.5704   29.3820 H   0  0  0  0  0  0  0  0  0  0  0  0
   53.2277  160.4936   30.3183 H   0  0  0  0  0  0  0  0  0  0  0  0
  1  2  1  0
  2  3  1  0
  3  4  1  0
  4  5  2  0
  5  6  1  0
  6  7  2  0
  7  8  1  0
  8  9  1  0
  9 10  1  0
 10 11  2  0
 11 12  1  0
 12 13  2  0
 13 14  1  0
 14 15  1  0
 14 16  2  0
 16 17  1  0
 17 18  2  0
 17 19  1  0
 19 20  1  0
  7 21  1  0
 21 22  2  0
 22 23  1  0
 23 24  1  0
 23 25  1  0
 22  4  1  0
 19  8  2  0
 16 10  1  0
  1 26  1  0
  1 27  1  0
  1 28  1  0
  2 29  1  0
  2 30  1  0
  3 31  1  0
  3 32  1  0
  5 33  1  0
  6 34  1  0
 11 35  1  0
 12 36  1  0
 13 37  1  0
 15 38  1  0
 20 39  1  0
 21 40  1  0
 23 41  1  0
M  END
>  <meeko>  (2) 
{"is_sidechain": [false], "free_energy": -10.729, "intermolecular_energy": -13.832, "internal_energy": -0.577}

$$$$
cand_044_out
     RDKit          3D

 41 43  0  0  0  0  0  0  0  0999 V2000
   52.6670  162.1560   30.8580 C   0  0  0  0  0  0  0  0  0  0  0  0
   51.8690  161.2950   31.8240 C   0  0  0  0  0  0  0  0  0  0  0  0
   50.6220  160.7130   31.1550 C   0  0  0  0  0  0  0  0  0  0  0  0
   50.9180  159.4050   30.4510 C   0  0  0  0  0  0  0  0  0  0  0  0
   52.1920  159.2280   29.8880 C   0  0  0  0  0  0  0  0  0  0  0  0
   52.5240  158.0530   29.2100 C   0  0  0  0  0  0  0  0  0  0  0  0
   51.5890  157.0250   29.0650 C   0  0  0  0  0  0  0  0  0  0  0  0
   51.9210  155.7600   28.3730 C   0  0  0  0  0  0  0  0  0  0  0  0
   52.4210  155.9620   27.0910 O   0  0  0  0  0  0  0  0  0  0  0  0
   52.7750  154.8710   26.3390 C   0  0  0  0  0  0  0  0  0  0  0  0
   53.2630  155.1190   25.0550 C   0  0  0  0  0  0  0  0  0  0  0  0
   53.6430  154.0530   24.2360 C   0  0  0  0  0  0  0  0  0  0  0  0
   53.5350  152.7410   24.7000 C   0  0  0  0  0  0  0  0  0  0  0  0
   53.0480  152.4960   25.9830 C   0  0  0  0  0  0  0  0  0  0  0  0
   52.9700  151.1880   26.3750 O   0  0  0  0  0  0  0  0  0  0  0  0
   52.6690  153.5630   26.8010 C   0  0  0  0  0  0  0  0  0  0  0  0
   52.1540  153.3510   28.1540 C   0  0  0  0  0  0  0  0  0  0  0  0
   52.0350  152.2260   28.6370 O   0  0  0  0  0  0  0  0  0  0  0  0
   51.7740  154.5480   28.9390 C   0  0  0  0  0  0  0  0  0  0  0  0
   51.3030  154.3360   30.2220 O   0  0  0  0  0  0  0  0  0  0  0  0
   50.3170  157.1980   29.6310 C   0  0  0  0  0  0  0  0  0  0  0  0
   49.9620  158.3780   30.3180 C   0  0  0  0  0  0  0  0  0  0  0  0
   48.5760  158.4840   30.9140 C   0  0  0  0  0  0  0  0  0  0  0  0
   48.5840  158.7870   32.2420 F   0  0  0  0  0  0  0  0  0  0  0  0
   47.8040  159.4460   30.3290 F   0  0  0  0  0  0  0  0  0  0  0  0
   53.3074  162.8470   31.4258 H   0  0  0  0  0  0  0  0  0  0  0  0
   53.2942  161.5115   30.2246 H   0  0  0  0  0  0  0  0  0  0  0  0
   51.9768  162.7325   30.2246 H   0  0  0  0  0  0  0  0  0  0  0  0
   52.5046  160.4691   32.1760 H   0  0  0  0  0  0  0  0  0  0  0  0
   51.5473  161.9264   32.6653 H   0  0  0  0  0  0  0  0  0  0  0  0
   49.8549  160.5376   31.9237 H   0  0  0  0  0  0  0  0  0  0  0  0
   50.2708  161.4339   30.4020 H   0  0  0  0  0  0  0  0  0  0  0  0
   52.9410  160.0280   29.9825 H   0  0  0  0  0  0  0  0  0  0  0  0
   53.5321  157.9357   28.7857 H   0  0  0  0  0  0  0  0  0  0  0  0
   53.3483  156.1526   24.6884 H   0  0  0  0  0  0  0  0  0  0  0  0
   54.0278  154.2478   23.2241 H   0  0  0  0  0  0  0  0  0  0  0  0
   53.8336  151.9019   24.0544 H   0  0  0  0  0  0  0  0  0  0  0  0
   53.7510  150.7130   26.5810 H   0  0  0  0  0  0  0  0  0  0  0  0
   51.4580  154.9740   30.8890 H   0  0  0  0  0  0  0  0  0  0  0  0
   49.5756  156.3909   29.5365 H   0  0  0  0  0  0  0  0  0  0  0  0
   48.1588  157.4819   30.7359 H   0  0  0  0  0  0  0  0  0  0  0  0
  1  2  1  0
  2  3  1  0
  3  4  1  0
  4  5  2  0
  5  6  1  0
  6  7  2  0
  7  8  1  0
  8  9  1  0
  9 10  1  0
 10 11  2  0
 11 12  1  0
 12 13  2  0
 13 14  1  0
 14 15  1  0
 14 16  2  0
 16 17  1  0
 17 18  2  0
 17 19  1  0
 19 20  1  0
  7 21  1  0
 21 22  2  0
 22 23  1  0
 23 24  1  0
 23 25  1  0
 22  4  1  0
 19  8  2  0
 16 10  1  0
  1 26  1  0
  1 27  1  0
  1 28  1  0
  2 29  1  0
  2 30  1  0
  3 31  1  0
  3 32  1  0
  5 33  1  0
  6 34  1  0
 11 35  1  0
 12 36  1  0
 13 37  1  0
 15 38  1  0
 20 39  1  0
 21 40  1  0
 23 41  1  0
M  END
>  <meeko>  (3) 
{"is_sidechain": [false], "free_energy": -10.133, "intermolecular_energy": -13.584, "internal_energy": -0.054}

$$$$
cand_044_out
     RDKit          3D

 41 43  0  0  0  0  0  0  0  0999 V2000
   54.4660  151.7340   24.9910 C   0  0  0  0  0  0  0  0  0  0  0  0
   54.2670  152.5090   26.2840 C   0  0  0  0  0  0  0  0  0  0  0  0
   52.7850  152.6030   26.6560 C   0  0  0  0  0  0  0  0  0  0  0  0
   52.4590  153.9110   27.3450 C   0  0  0  0  0  0  0  0  0  0  0  0
   51.8840  153.8610   28.6260 C   0  0  0  0  0  0  0  0  0  0  0  0
   51.5430  155.0300   29.3090 C   0  0  0  0  0  0  0  0  0  0  0  0
   51.7540  156.2830   28.7280 C   0  0  0  0  0  0  0  0  0  0  0  0
   51.4240  157.5380   29.4390 C   0  0  0  0  0  0  0  0  0  0  0  0
   50.1100  157.5710   29.8960 O   0  0  0  0  0  0  0  0  0  0  0  0
   49.6730  158.6770   30.5780 C   0  0  0  0  0  0  0  0  0  0  0  0
   48.3460  158.6710   31.0080 C   0  0  0  0  0  0  0  0  0  0  0  0
   47.8360  159.7660   31.7100 C   0  0  0  0  0  0  0  0  0  0  0  0
   48.6530  160.8650   31.9800 C   0  0  0  0  0  0  0  0  0  0  0  0
   49.9780  160.8680   31.5490 C   0  0  0  0  0  0  0  0  0  0  0  0
   50.7220  161.9760   31.8490 O   0  0  0  0  0  0  0  0  0  0  0  0
   50.4860  159.7730   30.8480 C   0  0  0  0  0  0  0  0  0  0  0  0
   51.8720  159.7340   30.3790 C   0  0  0  0  0  0  0  0  0  0  0  0
   52.6550  160.6600   30.5830 O   0  0  0  0  0  0  0  0  0  0  0  0
   52.3120  158.5280   29.6400 C   0  0  0  0  0  0  0  0  0  0  0  0
   53.6280  158.4970   29.2150 O   0  0  0  0  0  0  0  0  0  0  0  0
   52.3320  156.3350   27.4510 C   0  0  0  0  0  0  0  0  0  0  0  0
   52.6820  155.1660   26.7440 C   0  0  0  0  0  0  0  0  0  0  0  0
   53.3150  155.3040   25.3780 C   0  0  0  0  0  0  0  0  0  0  0  0
   52.5680  154.7520   24.3810 F   0  0  0  0  0  0  0  0  0  0  0  0
   53.5190  156.6000   24.9990 F   0  0  0  0  0  0  0  0  0  0  0  0
   54.7333  150.6929   25.2249 H   0  0  0  0  0  0  0  0  0  0  0  0
   53.5344  151.7508   24.4063 H   0  0  0  0  0  0  0  0  0  0  0  0
   55.2742  152.1976   24.4063 H   0  0  0  0  0  0  0  0  0  0  0  0
   54.8078  151.9982   27.0943 H   0  0  0  0  0  0  0  0  0  0  0  0
   54.6532  153.5288   26.1395 H   0  0  0  0  0  0  0  0  0  0  0  0
   52.1823  152.5238   25.7392 H   0  0  0  0  0  0  0  0  0  0  0  0
   52.5553  151.7835   27.3529 H   0  0  0  0  0  0  0  0  0  0  0  0
   51.6995  152.8849   29.0985 H   0  0  0  0  0  0  0  0  0  0  0  0
   51.1035  154.9638   30.3152 H   0  0  0  0  0  0  0  0  0  0  0  0
   47.7019  157.8052   30.7946 H   0  0  0  0  0  0  0  0  0  0  0  0
   46.7899  159.7620   32.0501 H   0  0  0  0  0  0  0  0  0  0  0  0
   48.2514  161.7274   32.5322 H   0  0  0  0  0  0  0  0  0  0  0  0
   50.6710  162.7370   31.3020 H   0  0  0  0  0  0  0  0  0  0  0  0
   53.8630  158.8710   28.3890 H   0  0  0  0  0  0  0  0  0  0  0  0
   52.5175  157.3154   26.9879 H   0  0  0  0  0  0  0  0  0  0  0  0
   54.2712  154.7745   25.5016 H   0  0  0  0  0  0  0  0  0  0  0  0
  1  2  1  0
  2  3  1  0
  3  4  1  0
  4  5  2  0
  5  6  1  0
  6  7  2  0
  7  8  1  0
  8  9  1  0
  9 10  1  0
 10 11  2  0
 11 12  1  0
 12 13  2  0
 13 14  1  0
 14 15  1  0
 14 16  2  0
 16 17  1  0
 17 18  2  0
 17 19  1  0
 19 20  1  0
  7 21  1  0
 21 22  2  0
 22 23  1  0
 23 24  1  0
 23 25  1  0
 22  4  1  0
 19  8  2  0
 16 10  1  0
  1 26  1  0
  1 27  1  0
  1 28  1  0
  2 29  1  0
  2 30  1  0
  3 31  1  0
  3 32  1  0
  5 33  1  0
  6 34  1  0
 11 35  1  0
 12 36  1  0
 13 37  1  0
 15 38  1  0
 20 39  1  0
 21 40  1  0
 23 41  1  0
M  END
>  <meeko>  (4) 
{"is_sidechain": [false], "free_energy": -10.061, "intermolecular_energy": -13.371, "internal_energy": -0.175}

$$$$
cand_044_out
     RDKit          3D

 41 43  0  0  0  0  0  0  0  0999 V2000
   53.2320  150.6670   25.5330 C   0  0  0  0  0  0  0  0  0  0  0  0
   52.5860  151.8250   26.2780 C   0  0  0  0  0  0  0  0  0  0  0  0
   53.6160  152.8950   26.6480 C   0  0  0  0  0  0  0  0  0  0  0  0
   52.9780  154.0680   27.3610 C   0  0  0  0  0  0  0  0  0  0  0  0
   52.2980  153.8220   28.5650 C   0  0  0  0  0  0  0  0  0  0  0  0
   51.6730  154.8570   29.2640 C   0  0  0  0  0  0  0  0  0  0  0  0
   51.7000  156.1660   28.7760 C   0  0  0  0  0  0  0  0  0  0  0  0
   51.0680  157.2850   29.5080 C   0  0  0  0  0  0  0  0  0  0  0  0
   51.9490  158.3320   29.7590 O   0  0  0  0  0  0  0  0  0  0  0  0
   51.4920  159.4380   30.4280 C   0  0  0  0  0  0  0  0  0  0  0  0
   52.4120  160.4590   30.6660 C   0  0  0  0  0  0  0  0  0  0  0  0
   52.0110  161.6140   31.3420 C   0  0  0  0  0  0  0  0  0  0  0  0
   50.6920  161.7490   31.7770 C   0  0  0  0  0  0  0  0  0  0  0  0
   49.7750  160.7270   31.5370 C   0  0  0  0  0  0  0  0  0  0  0  0
   48.4990  160.9240   31.9890 O   0  0  0  0  0  0  0  0  0  0  0  0
   50.1770  159.5730   30.8610 C   0  0  0  0  0  0  0  0  0  0  0  0
   49.2450  158.4770   30.5870 C   0  0  0  0  0  0  0  0  0  0  0  0
   48.0660  158.5230   30.9330 O   0  0  0  0  0  0  0  0  0  0  0  0
   49.7720  157.2940   29.8690 C   0  0  0  0  0  0  0  0  0  0  0  0
   48.8790  156.2720   29.6020 O   0  0  0  0  0  0  0  0  0  0  0  0
   52.3840  156.4140   27.5760 C   0  0  0  0  0  0  0  0  0  0  0  0
   53.0190  155.3830   26.8540 C   0  0  0  0  0  0  0  0  0  0  0  0
   53.7480  155.7310   25.5760 C   0  0  0  0  0  0  0  0  0  0  0  0
   52.9720  155.6080   24.4630 F   0  0  0  0  0  0  0  0  0  0  0  0
   54.2180  157.0130   25.5480 F   0  0  0  0  0  0  0  0  0  0  0  0
   53.6352  149.9442   26.2576 H   0  0  0  0  0  0  0  0  0  0  0  0
   52.4796  150.1721   24.9013 H   0  0  0  0  0  0  0  0  0  0  0  0
   54.0483  151.0472   24.9013 H   0  0  0  0  0  0  0  0  0  0  0  0
   51.8147  152.2771   25.6371 H   0  0  0  0  0  0  0  0  0  0  0  0
   52.1429  151.4353   27.2063 H   0  0  0  0  0  0  0  0  0  0  0  0
   54.3735  152.4468   27.3077 H   0  0  0  0  0  0  0  0  0  0  0  0
   54.0711  153.2670   25.7182 H   0  0  0  0  0  0  0  0  0  0  0  0
   52.2570  152.7977   28.9638 H   0  0  0  0  0  0  0  0  0  0  0  0
   51.1538  154.6393   30.2090 H   0  0  0  0  0  0  0  0  0  0  0  0
   53.4516  160.3550   30.3220 H   0  0  0  0  0  0  0  0  0  0  0  0
   52.7366  162.4187   31.5318 H   0  0  0  0  0  0  0  0  0  0  0  0
   50.3768  162.6594   32.3078 H   0  0  0  0  0  0  0  0  0  0  0  0
   48.3420  161.4970   32.7150 H   0  0  0  0  0  0  0  0  0  0  0  0
   49.0570  155.4030   29.9020 H   0  0  0  0  0  0  0  0  0  0  0  0
   52.4259  157.4423   27.1876 H   0  0  0  0  0  0  0  0  0  0  0  0
   54.5764  155.0073   25.5668 H   0  0  0  0  0  0  0  0  0  0  0  0
  1  2  1  0
  2  3  1  0
  3  4  1  0
  4  5  2  0
  5  6  1  0
  6  7  2  0
  7  8  1  0
  8  9  1  0
  9 10  1  0
 10 11  2  0
 11 12  1  0
 12 13  2  0
 13 14  1  0
 14 15  1  0
 14 16  2  0
 16 17  1  0
 17 18  2  0
 17 19  1  0
 19 20  1  0
  7 21  1  0
 21 22  2  0
 22 23  1  0
 23 24  1  0
 23 25  1  0
 22  4  1  0
 19  8  2  0
 16 10  1  0
  1 26  1  0
  1 27  1  0
  1 28  1  0
  2 29  1  0
  2 30  1  0
  3 31  1  0
  3 32  1  0
  5 33  1  0
  6 34  1  0
 11 35  1  0
 12 36  1  0
 13 37  1  0
 15 38  1  0
 20 39  1  0
 21 40  1  0
 23 41  1  0
M  END
>  <meeko>  (5) 
{"is_sidechain": [false], "free_energy": -9.236, "intermolecular_energy": -11.877, "internal_energy": -0.602}

$$$$
cand_044_out
     RDKit          3D

 41 43  0  0  0  0  0  0  0  0999 V2000
   54.1250  153.3710   23.8200 C   0  0  0  0  0  0  0  0  0  0  0  0
   53.3840  154.3590   24.7070 C   0  0  0  0  0  0  0  0  0  0  0  0
   53.4310  153.9340   26.1760 C   0  0  0  0  0  0  0  0  0  0  0  0
   52.9150  155.0220   27.0940 C   0  0  0  0  0  0  0  0  0  0  0  0
   53.0300  156.3570   26.6730 C   0  0  0  0  0  0  0  0  0  0  0  0
   52.5900  157.4080   27.4800 C   0  0  0  0  0  0  0  0  0  0  0  0
   52.0330  157.1580   28.7360 C   0  0  0  0  0  0  0  0  0  0  0  0
   51.5360  158.2510   29.6010 C   0  0  0  0  0  0  0  0  0  0  0  0
   50.2010  158.0910   29.9590 O   0  0  0  0  0  0  0  0  0  0  0  0
   49.6140  159.0320   30.7650 C   0  0  0  0  0  0  0  0  0  0  0  0
   48.2720  158.8370   31.0920 C   0  0  0  0  0  0  0  0  0  0  0  0
   47.6130  159.7580   31.9100 C   0  0  0  0  0  0  0  0  0  0  0  0
   48.2960  160.8720   32.4010 C   0  0  0  0  0  0  0  0  0  0  0  0
   49.6370  161.0630   32.0740 C   0  0  0  0  0  0  0  0  0  0  0  0
   50.2460  162.1740   32.5910 O   0  0  0  0  0  0  0  0  0  0  0  0
   50.2940  160.1420   31.2560 C   0  0  0  0  0  0  0  0  0  0  0  0
   51.7020  160.3050   30.8900 C   0  0  0  0  0  0  0  0  0  0  0  0
   52.3730  161.2550   31.2880 O   0  0  0  0  0  0  0  0  0  0  0  0
   52.3050  159.2750   30.0130 C   0  0  0  0  0  0  0  0  0  0  0  0
   53.6400  159.4310   29.6860 O   0  0  0  0  0  0  0  0  0  0  0  0
   51.9120  155.8250   29.1570 C   0  0  0  0  0  0  0  0  0  0  0  0
   52.3530  154.7490   28.3580 C   0  0  0  0  0  0  0  0  0  0  0  0
   52.1760  153.3390   28.8740 C   0  0  0  0  0  0  0  0  0  0  0  0
   51.5170  153.2810   30.0660 F   0  0  0  0  0  0  0  0  0  0  0  0
   51.4650  152.5350   28.0310 F   0  0  0  0  0  0  0  0  0  0  0  0
   54.6667  152.6488   24.4485 H   0  0  0  0  0  0  0  0  0  0  0  0
   53.4037  152.8359   23.1849 H   0  0  0  0  0  0  0  0  0  0  0  0
   54.8407  153.9136   23.1849 H   0  0  0  0  0  0  0  0  0  0  0  0
   53.8502  155.3502   24.6060 H   0  0  0  0  0  0  0  0  0  0  0  0
   52.3315  154.3886   24.3885 H   0  0  0  0  0  0  0  0  0  0  0  0
   52.8110  153.0348   26.3063 H   0  0  0  0  0  0  0  0  0  0  0  0
   54.4798  153.7334   26.4400 H   0  0  0  0  0  0  0  0  0  0  0  0
   53.4741  156.5782   25.6912 H   0  0  0  0  0  0  0  0  0  0  0  0
   52.6831  158.4442   27.1226 H   0  0  0  0  0  0  0  0  0  0  0  0
   47.7332  157.9590   30.7062 H   0  0  0  0  0  0  0  0  0  0  0  0
   46.5545  159.6051   32.1675 H   0  0  0  0  0  0  0  0  0  0  0  0
   47.7768  161.5974   33.0446 H   0  0  0  0  0  0  0  0  0  0  0  0
   50.8850  162.0850   33.2710 H   0  0  0  0  0  0  0  0  0  0  0  0
   54.0870  158.7620   29.2060 H   0  0  0  0  0  0  0  0  0  0  0  0
   51.4607  155.6129   30.1375 H   0  0  0  0  0  0  0  0  0  0  0  0
   53.2135  152.9871   28.9730 H   0  0  0  0  0  0  0  0  0  0  0  0
  1  2  1  0
  2  3  1  0
  3  4  1  0
  4  5  2  0
  5  6  1  0
  6  7  2  0
  7  8  1  0
  8  9  1  0
  9 10  1  0
 10 11  2  0
 11 12  1  0
 12 13  2  0
 13 14  1  0
 14 15  1  0
 14 16  2  0
 16 17  1  0
 17 18  2  0
 17 19  1  0
 19 20  1  0
  7 21  1  0
 21 22  2  0
 22 23  1  0
 23 24  1  0
 23 25  1  0
 22  4  1  0
 19  8  2  0
 16 10  1  0
  1 26  1  0
  1 27  1  0
  1 28  1  0
  2 29  1  0
  2 30  1  0
  3 31  1  0
  3 32  1  0
  5 33  1  0
  6 34  1  0
 11 35  1  0
 12 36  1  0
 13 37  1  0
 15 38  1  0
 20 39  1  0
 21 40  1  0
 23 41  1  0
M  END
>  <meeko>  (6) 
{"is_sidechain": [false], "free_energy": -9.136, "intermolecular_energy": -11.851, "internal_energy": -0.498}

$$$$
cand_044_out
     RDKit          3D

 41 43  0  0  0  0  0  0  0  0999 V2000
   47.1860  159.8100   31.5430 C   0  0  0  0  0  0  0  0  0  0  0  0
   48.0660  159.1040   30.5230 C   0  0  0  0  0  0  0  0  0  0  0  0
   49.1650  158.2860   31.2040 C   0  0  0  0  0  0  0  0  0  0  0  0
   50.0100  157.5310   30.2010 C   0  0  0  0  0  0  0  0  0  0  0  0
   49.5980  156.2440   29.8190 C   0  0  0  0  0  0  0  0  0  0  0  0
   50.3420  155.4880   28.9120 C   0  0  0  0  0  0  0  0  0  0  0  0
   51.5270  155.9900   28.3670 C   0  0  0  0  0  0  0  0  0  0  0  0
   52.3210  155.2200   27.3840 C   0  0  0  0  0  0  0  0  0  0  0  0
   52.0420  153.8580   27.4130 O   0  0  0  0  0  0  0  0  0  0  0  0
   52.7060  153.0270   26.5480 C   0  0  0  0  0  0  0  0  0  0  0  0
   52.4020  151.6670   26.6180 C   0  0  0  0  0  0  0  0  0  0  0  0
   53.0420  150.7650   25.7640 C   0  0  0  0  0  0  0  0  0  0  0  0
   53.9840  151.2230   24.8420 C   0  0  0  0  0  0  0  0  0  0  0  0
   54.2850  152.5820   24.7740 C   0  0  0  0  0  0  0  0  0  0  0  0
   55.2170  152.9620   23.8470 O   0  0  0  0  0  0  0  0  0  0  0  0
   53.6450  153.4820   25.6280 C   0  0  0  0  0  0  0  0  0  0  0  0
   53.9310  154.9170   25.5890 C   0  0  0  0  0  0  0  0  0  0  0  0
   54.7420  155.3980   24.8000 O   0  0  0  0  0  0  0  0  0  0  0  0
   53.2020  155.7880   26.5400 C   0  0  0  0  0  0  0  0  0  0  0  0
   53.4690  157.1430   26.4830 O   0  0  0  0  0  0  0  0  0  0  0  0
   51.9380  157.2780   28.7430 C   0  0  0  0  0  0  0  0  0  0  0  0
   51.2020  158.0570   29.6590 C   0  0  0  0  0  0  0  0  0  0  0  0
   51.7020  159.4410   30.0040 C   0  0  0  0  0  0  0  0  0  0  0  0
   50.9400  160.4360   29.4700 F   0  0  0  0  0  0  0  0  0  0  0  0
   51.7330  159.6920   31.3460 F   0  0  0  0  0  0  0  0  0  0  0  0
   47.5164  159.5450   32.5582 H   0  0  0  0  0  0  0  0  0  0  0  0
   47.2646  160.8984   31.4043 H   0  0  0  0  0  0  0  0  0  0  0  0
   46.1406  159.4973   31.4043 H   0  0  0  0  0  0  0  0  0  0  0  0
   47.4419  158.4305   29.9173 H   0  0  0  0  0  0  0  0  0  0  0  0
   48.5440  159.8672   29.8913 H   0  0  0  0  0  0  0  0  0  0  0  0
   49.8137  158.9671   31.7743 H   0  0  0  0  0  0  0  0  0  0  0  0
   48.6828  157.5511   31.8654 H   0  0  0  0  0  0  0  0  0  0  0  0
   48.6732  155.8246   30.2418 H   0  0  0  0  0  0  0  0  0  0  0  0
   49.9919  154.4861   28.6229 H   0  0  0  0  0  0  0  0  0  0  0  0
   51.6595  151.3054   27.3445 H   0  0  0  0  0  0  0  0  0  0  0  0
   52.8030  149.6927   25.8186 H   0  0  0  0  0  0  0  0  0  0  0  0
   54.4880  150.5127   24.1701 H   0  0  0  0  0  0  0  0  0  0  0  0
   55.0210  153.6510   23.2420 H   0  0  0  0  0  0  0  0  0  0  0  0
   53.2900  157.6880   27.2230 H   0  0  0  0  0  0  0  0  0  0  0  0
   52.8610  157.6917   28.3106 H   0  0  0  0  0  0  0  0  0  0  0  0
   52.7170  159.4427   29.5799 H   0  0  0  0  0  0  0  0  0  0  0  0
  1  2  1  0
  2  3  1  0
  3  4  1  0
  4  5  2  0
  5  6  1  0
  6  7  2  0
  7  8  1  0
  8  9  1  0
  9 10  1  0
 10 11  2  0
 11 12  1  0
 12 13  2  0
 13 14  1  0
 14 15  1  0
 14 16  2  0
 16 17  1  0
 17 18  2  0
 17 19  1  0
 19 20  1  0
  7 21  1  0
 21 22  2  0
 22 23  1  0
 23 24  1  0
 23 25  1  0
 22  4  1  0
 19  8  2  0
 16 10  1  0
  1 26  1  0
  1 27  1  0
  1 28  1  0
  2 29  1  0
  2 30  1  0
  3 31  1  0
  3 32  1  0
  5 33  1  0
  6 34  1  0
 11 35  1  0
 12 36  1  0
 13 37  1  0
 15 38  1  0
 20 39  1  0
 21 40  1  0
 23 41  1  0
M  END
>  <meeko>  (7) 
{"is_sidechain": [false], "free_energy": -9.102, "intermolecular_energy": -12.253, "internal_energy": -0.053}

$$$$
cand_044_out
     RDKit          3D

 41 43  0  0  0  0  0  0  0  0999 V2000
   54.1820  153.2560   23.4440 C   0  0  0  0  0  0  0  0  0  0  0  0
   53.4020  154.1450   24.4000 C   0  0  0  0  0  0  0  0  0  0  0  0
   53.8540  153.9400   25.8480 C   0  0  0  0  0  0  0  0  0  0  0  0
   53.1430  154.8790   26.7990 C   0  0  0  0  0  0  0  0  0  0  0  0
   53.2690  156.2610   26.5860 C   0  0  0  0  0  0  0  0  0  0  0  0
   52.6530  157.1810   27.4370 C   0  0  0  0  0  0  0  0  0  0  0  0
   51.9020  156.7480   28.5320 C   0  0  0  0  0  0  0  0  0  0  0  0
   51.2190  157.7000   29.4350 C   0  0  0  0  0  0  0  0  0  0  0  0
   51.9860  158.8260   29.7130 O   0  0  0  0  0  0  0  0  0  0  0  0
   51.4690  159.7940   30.5350 C   0  0  0  0  0  0  0  0  0  0  0  0
   52.2770  160.9020   30.7950 C   0  0  0  0  0  0  0  0  0  0  0  0
   51.8110  161.9250   31.6240 C   0  0  0  0  0  0  0  0  0  0  0  0
   50.5390  161.8410   32.1920 C   0  0  0  0  0  0  0  0  0  0  0  0
   49.7340  160.7340   31.9300 C   0  0  0  0  0  0  0  0  0  0  0  0
   48.4990  160.7160   32.5180 O   0  0  0  0  0  0  0  0  0  0  0  0
   50.2010  159.7110   31.1020 C   0  0  0  0  0  0  0  0  0  0  0  0
   49.3880  158.5320   30.8000 C   0  0  0  0  0  0  0  0  0  0  0  0
   48.2560  158.3880   31.2570 O   0  0  0  0  0  0  0  0  0  0  0  0
   49.9770  157.5020   29.9140 C   0  0  0  0  0  0  0  0  0  0  0  0
   49.1930  156.4000   29.6250 O   0  0  0  0  0  0  0  0  0  0  0  0
   51.7700  155.3670   28.7440 C   0  0  0  0  0  0  0  0  0  0  0  0
   52.3860  154.4220   27.8980 C   0  0  0  0  0  0  0  0  0  0  0  0
   52.1860  152.9510   28.1820 C   0  0  0  0  0  0  0  0  0  0  0  0
   51.4840  152.7150   29.3260 F   0  0  0  0  0  0  0  0  0  0  0  0
   51.5050  152.2930   27.1990 F   0  0  0  0  0  0  0  0  0  0  0  0
   54.8000  152.5516   24.0200 H   0  0  0  0  0  0  0  0  0  0  0  0
   53.4800  152.6943   22.8102 H   0  0  0  0  0  0  0  0  0  0  0  0
   54.8302  153.8790   22.8102 H   0  0  0  0  0  0  0  0  0  0  0  0
   53.5613  155.1970   24.1209 H   0  0  0  0  0  0  0  0  0  0  0  0
   52.3370  153.8792   24.3289 H   0  0  0  0  0  0  0  0  0  0  0  0
   53.6384  152.9029   26.1445 H   0  0  0  0  0  0  0  0  0  0  0  0
   54.9321  154.1516   25.9021 H   0  0  0  0  0  0  0  0  0  0  0  0
   53.8628  156.6251   25.7346 H   0  0  0  0  0  0  0  0  0  0  0  0
   52.7604  158.2584   27.2428 H   0  0  0  0  0  0  0  0  0  0  0  0
   53.2796  160.9695   30.3476 H   0  0  0  0  0  0  0  0  0  0  0  0
   52.4476  162.7982   31.8295 H   0  0  0  0  0  0  0  0  0  0  0  0
   50.1726  162.6468   32.8451 H   0  0  0  0  0  0  0  0  0  0  0  0
   48.0280  161.5170   32.6440 H   0  0  0  0  0  0  0  0  0  0  0  0
   49.3920  155.8650   28.8820 H   0  0  0  0  0  0  0  0  0  0  0  0
   51.1691  155.0118   29.5941 H   0  0  0  0  0  0  0  0  0  0  0  0
   53.2180  152.5788   28.2623 H   0  0  0  0  0  0  0  0  0  0  0  0
  1  2  1  0
  2  3  1  0
  3  4  1  0
  4  5  2  0
  5  6  1  0
  6  7  2  0
  7  8  1  0
  8  9  1  0
  9 10  1  0
 10 11  2  0
 11 12  1  0
 12 13  2  0
 13 14  1  0
 14 15  1  0
 14 16  2  0
 16 17  1  0
 17 18  2  0
 17 19  1  0
 19 20  1  0
  7 21  1  0
 21 22  2  0
 22 23  1  0
 23 24  1  0
 23 25  1  0
 22  4  1  0
 19  8  2  0
 16 10  1  0
  1 26  1  0
  1 27  1  0
  1 28  1  0
  2 29  1  0
  2 30  1  0
  3 31  1  0
  3 32  1  0
  5 33  1  0
  6 34  1  0
 11 35  1  0
 12 36  1  0
 13 37  1  0
 15 38  1  0
 20 39  1  0
 21 40  1  0
 23 41  1  0
M  END
>  <meeko>  (8) 
{"is_sidechain": [false], "free_energy": -8.719, "intermolecular_energy": -11.477, "internal_energy": -0.334}

$$$$
cand_044_out
     RDKit          3D

 41 43  0  0  0  0  0  0  0  0999 V2000
   51.2980  161.5430   31.8310 C   0  0  0  0  0  0  0  0  0  0  0  0
   51.6290  160.5710   30.7090 C   0  0  0  0  0  0  0  0  0  0  0  0
   50.8210  159.2780   30.8350 C   0  0  0  0  0  0  0  0  0  0  0  0
   51.2990  158.2180   29.8650 C   0  0  0  0  0  0  0  0  0  0  0  0
   52.5770  158.3620   29.3010 C   0  0  0  0  0  0  0  0  0  0  0  0
   53.0710  157.4300   28.3860 C   0  0  0  0  0  0  0  0  0  0  0  0
   52.2990  156.3320   27.9990 C   0  0  0  0  0  0  0  0  0  0  0  0
   52.8070  155.3160   27.0510 C   0  0  0  0  0  0  0  0  0  0  0  0
   52.3720  154.0300   27.3550 O   0  0  0  0  0  0  0  0  0  0  0  0
   52.7650  152.9900   26.5520 C   0  0  0  0  0  0  0  0  0  0  0  0
   52.3140  151.7160   26.8990 C   0  0  0  0  0  0  0  0  0  0  0  0
   52.6770  150.6130   26.1230 C   0  0  0  0  0  0  0  0  0  0  0  0
   53.4900  150.7840   25.0010 C   0  0  0  0  0  0  0  0  0  0  0  0
   53.9390  152.0570   24.6570 C   0  0  0  0  0  0  0  0  0  0  0  0
   54.7310  152.1530   23.5450 O   0  0  0  0  0  0  0  0  0  0  0  0
   53.5750  153.1590   25.4340 C   0  0  0  0  0  0  0  0  0  0  0  0
   54.0230  154.5140   25.1060 C   0  0  0  0  0  0  0  0  0  0  0  0
   54.7350  154.7460   24.1310 O   0  0  0  0  0  0  0  0  0  0  0  0
   53.5860  155.6140   25.9970 C   0  0  0  0  0  0  0  0  0  0  0  0
   54.0030  156.8910   25.6680 O   0  0  0  0  0  0  0  0  0  0  0  0
   51.0240  156.1830   28.5660 C   0  0  0  0  0  0  0  0  0  0  0  0
   50.5060  157.1150   29.4890 C   0  0  0  0  0  0  0  0  0  0  0  0
   49.1290  156.8780   30.0670 C   0  0  0  0  0  0  0  0  0  0  0  0
   48.3160  157.9680   29.9820 F   0  0  0  0  0  0  0  0  0  0  0  0
   48.4450  155.8700   29.4510 F   0  0  0  0  0  0  0  0  0  0  0  0
   51.4648  161.0531   32.8017 H   0  0  0  0  0  0  0  0  0  0  0  0
   51.9451  162.4290   31.7514 H   0  0  0  0  0  0  0  0  0  0  0  0
   50.2447  161.8499   31.7514 H   0  0  0  0  0  0  0  0  0  0  0  0
   51.3970  161.0456   29.7441 H   0  0  0  0  0  0  0  0  0  0  0  0
   52.6979  160.3192   30.7728 H   0  0  0  0  0  0  0  0  0  0  0  0
   50.9224  158.8935   31.8606 H   0  0  0  0  0  0  0  0  0  0  0  0
   49.7711  159.5072   30.6001 H   0  0  0  0  0  0  0  0  0  0  0  0
   53.1994  159.2235   29.5848 H   0  0  0  0  0  0  0  0  0  0  0  0
   54.0788  157.5618   27.9655 H   0  0  0  0  0  0  0  0  0  0  0  0
   51.6732  151.5805   27.7828 H   0  0  0  0  0  0  0  0  0  0  0  0
   52.3219  149.6084   26.3962 H   0  0  0  0  0  0  0  0  0  0  0  0
   53.7755  149.9151   24.3898 H   0  0  0  0  0  0  0  0  0  0  0  0
   55.4700  151.5840   23.4460 H   0  0  0  0  0  0  0  0  0  0  0  0
   54.3290  157.0720   24.8090 H   0  0  0  0  0  0  0  0  0  0  0  0
   50.4112  155.3146   28.2825 H   0  0  0  0  0  0  0  0  0  0  0  0
   49.3478  156.6228   31.1144 H   0  0  0  0  0  0  0  0  0  0  0  0
  1  2  1  0
  2  3  1  0
  3  4  1  0
  4  5  2  0
  5  6  1  0
  6  7  2  0
  7  8  1  0
  8  9  1  0
  9 10  1  0
 10 11  2  0
 11 12  1  0
 12 13  2  0
 13 14  1  0
 14 15  1  0
 14 16  2  0
 16 17  1  0
 17 18  2  0
 17 19  1  0
 19 20  1  0
  7 21  1  0
 21 22  2  0
 22 23  1  0
 23 24  1  0
 23 25  1  0
 22  4  1  0
 19  8  2  0
 16 10  1  0
  1 26  1  0
  1 27  1  0
  1 28  1  0
  2 29  1  0
  2 30  1  0
  3 31  1  0
  3 32  1  0
  5 33  1  0
  6 34  1  0
 11 35  1  0
 12 36  1  0
 13 37  1  0
 15 38  1  0
 20 39  1  0
 21 40  1  0
 23 41  1  0
M  END
>  <meeko>  (9) 
{"is_sidechain": [false], "free_energy": -8.126, "intermolecular_energy": -10.849, "internal_energy": -0.195}

$$$$
