cand_003_out
     RDKit          3D

 35 37  0  0  0  0  0  0  0  0999 V2000
   52.0470  161.0070   30.6950 C   0  0  0  0  0  0  0  0  0  0  0  0
   51.2430  159.7500   30.4950 C   0  0  0  0  0  0  0  0  0  0  0  0
   51.8140  158.6780   29.7830 C   0  0  0  0  0  0  0  0  0  0  0  0
   51.1160  157.4780   29.5760 C   0  0  0  0  0  0  0  0  0  0  0  0
   51.7430  156.3880   28.8000 C   0  0  0  0  0  0  0  0  0  0  0  0
   52.3040  156.8260   27.6060 O   0  0  0  0  0  0  0  0  0  0  0  0
   52.9200  155.9140   26.7880 C   0  0  0  0  0  0  0  0  0  0  0  0
   53.4570  156.3950   25.5930 C   0  0  0  0  0  0  0  0  0  0  0  0
   54.1000  155.5190   24.7150 C   0  0  0  0  0  0  0  0  0  0  0  0
   54.2060  154.1630   25.0320 C   0  0  0  0  0  0  0  0  0  0  0  0
   53.6700  153.6860   26.2260 C   0  0  0  0  0  0  0  0  0  0  0  0
   53.8100  152.3480   26.4750 O   0  0  0  0  0  0  0  0  0  0  0  0
   53.0260  154.5630   27.1030 C   0  0  0  0  0  0  0  0  0  0  0  0
   52.4490  154.1020   28.3670 C   0  0  0  0  0  0  0  0  0  0  0  0
   52.5080  152.9260   28.7200 O   0  0  0  0  0  0  0  0  0  0  0  0
   51.7810  155.1100   29.2230 C   0  0  0  0  0  0  0  0  0  0  0  0
   51.2510  154.6680   30.4210 O   0  0  0  0  0  0  0  0  0  0  0  0
   49.8180  157.3680   30.0830 C   0  0  0  0  0  0  0  0  0  0  0  0
   49.2380  158.4210   30.7950 C   0  0  0  0  0  0  0  0  0  0  0  0
   49.9370  159.6200   31.0140 C   0  0  0  0  0  0  0  0  0  0  0  0
   49.2760  160.7390   31.7910 C   0  0  0  0  0  0  0  0  0  0  0  0
   48.9610  161.8110   31.0110 F   0  0  0  0  0  0  0  0  0  0  0  0
   50.0500  161.2340   32.7990 F   0  0  0  0  0  0  0  0  0  0  0  0
   48.1110  160.3500   32.3830 F   0  0  0  0  0  0  0  0  0  0  0  0
   52.1686  161.1971   31.7716 H   0  0  0  0  0  0  0  0  0  0  0  0
   53.0366  160.8872   30.2298 H   0  0  0  0  0  0  0  0  0  0  0  0
   51.5233  161.8551   30.2298 H   0  0  0  0  0  0  0  0  0  0  0  0
   52.8317  158.7834   29.3792 H   0  0  0  0  0  0  0  0  0  0  0  0
   53.3740  157.4629   25.3427 H   0  0  0  0  0  0  0  0  0  0  0  0
   54.5233  155.8977   23.7730 H   0  0  0  0  0  0  0  0  0  0  0  0
   54.7117  153.4731   24.3403 H   0  0  0  0  0  0  0  0  0  0  0  0
   53.8220  151.7380   25.7630 H   0  0  0  0  0  0  0  0  0  0  0  0
   51.4840  155.0950   31.2220 H   0  0  0  0  0  0  0  0  0  0  0  0
   49.2469  156.4422   29.9196 H   0  0  0  0  0  0  0  0  0  0  0  0
   48.2176  158.3095   31.1905 H   0  0  0  0  0  0  0  0  0  0  0  0
  1  2  1  0
  2  3  2  0
  3  4  1  0
  4  5  1  0
  5  6  1  0
  6  7  1  0
  7  8  2  0
  8  9  1  0
  9 10  2  0
 10 11  1  0
 11 12  1  0
 11 13  2  0
 13 14  1  0
 14 15  2  0
 14 16  1  0
 16 17  1  0
  4 18  2  0
 18 19  1  0
 19 20  2  0
 20 21  1  0
 21 22  1  0
 21 23  1  0
 21 24  1  0
 20  2  1  0
 16  5  2  0
 13  7  1  0
  1 25  1  0
  1 26  1  0
  1 27  1  0
  3 28  1  0
  8 29  1  0
  9 30  1  0
 10 31  1  0
 12 32  1  0
 17 33  1  0
 18 34  1  0
 19 35  1  0
M  END
>  <meeko>  (1) 
{"is_sidechain": [false], "free_energy": -11.432, "intermolecular_energy": -13.437, "internal_energy": -0.142}

$$$$
cand_003_out
     RDKit          3D

 35 37  0  0  0  0  0  0  0  0999 V2000
   48.1580  158.7890   31.2250 C   0  0  0  0  0  0  0  0  0  0  0  0
   49.5780  158.8280   30.7270 C   0  0  0  0  0  0  0  0  0  0  0  0
   50.0780  157.7300   30.0010 C   0  0  0  0  0  0  0  0  0  0  0  0
   51.3890  157.7160   29.5010 C   0  0  0  0  0  0  0  0  0  0  0  0
   51.8840  156.5320   28.7670 C   0  0  0  0  0  0  0  0  0  0  0  0
   52.4840  156.8580   27.5560 O   0  0  0  0  0  0  0  0  0  0  0  0
   52.9870  155.8500   26.7740 C   0  0  0  0  0  0  0  0  0  0  0  0
   53.5680  156.2200   25.5600 C   0  0  0  0  0  0  0  0  0  0  0  0
   54.1020  155.2440   24.7160 C   0  0  0  0  0  0  0  0  0  0  0  0
   54.0560  153.8980   25.0860 C   0  0  0  0  0  0  0  0  0  0  0  0
   53.4770  153.5310   26.2990 C   0  0  0  0  0  0  0  0  0  0  0  0
   53.4660  152.1970   26.5990 O   0  0  0  0  0  0  0  0  0  0  0  0
   52.9410  154.5090   27.1420 C   0  0  0  0  0  0  0  0  0  0  0  0
   52.3240  154.1660   28.4230 C   0  0  0  0  0  0  0  0  0  0  0  0
   52.2510  153.0060   28.8220 O   0  0  0  0  0  0  0  0  0  0  0  0
   51.7790  155.2760   29.2400 C   0  0  0  0  0  0  0  0  0  0  0  0
   51.2100  154.9430   30.4560 O   0  0  0  0  0  0  0  0  0  0  0  0
   52.2100  158.8210   29.7530 C   0  0  0  0  0  0  0  0  0  0  0  0
   51.7270  159.9190   30.4690 C   0  0  0  0  0  0  0  0  0  0  0  0
   50.4110  159.9430   30.9610 C   0  0  0  0  0  0  0  0  0  0  0  0
   49.9240  161.1510   31.7320 C   0  0  0  0  0  0  0  0  0  0  0  0
   50.9100  162.0610   31.9680 F   0  0  0  0  0  0  0  0  0  0  0  0
   49.4070  160.8450   32.9560 F   0  0  0  0  0  0  0  0  0  0  0  0
   48.9370  161.8280   31.0780 F   0  0  0  0  0  0  0  0  0  0  0  0
   48.1551  158.7889   32.3250 H   0  0  0  0  0  0  0  0  0  0  0  0
   47.6160  159.6726   30.8570 H   0  0  0  0  0  0  0  0  0  0  0  0
   47.6653  157.8770   30.8570 H   0  0  0  0  0  0  0  0  0  0  0  0
   49.4255  156.8628   29.8216 H   0  0  0  0  0  0  0  0  0  0  0  0
   53.6052  157.2799   25.2682 H   0  0  0  0  0  0  0  0  0  0  0  0
   54.5593  155.5355   23.7590 H   0  0  0  0  0  0  0  0  0  0  0  0
   54.4761  153.1291   24.4210 H   0  0  0  0  0  0  0  0  0  0  0  0
   53.9470  151.5930   26.0680 H   0  0  0  0  0  0  0  0  0  0  0  0
   50.3800  154.5100   30.4810 H   0  0  0  0  0  0  0  0  0  0  0  0
   53.2461  158.8250   29.3836 H   0  0  0  0  0  0  0  0  0  0  0  0
   52.3880  160.7793   30.6507 H   0  0  0  0  0  0  0  0  0  0  0  0
  1  2  1  0
  2  3  2  0
  3  4  1  0
  4  5  1  0
  5  6  1  0
  6  7  1  0
  7  8  2  0
  8  9  1  0
  9 10  2  0
 10 11  1  0
 11 12  1  0
 11 13  2  0
 13 14  1  0
 14 15  2  0
 14 16  1  0
 16 17  1  0
  4 18  2  0
 18 19  1  0
 19 20  2  0
 20 21  1  0
 21 22  1  0
 21 23  1  0
 21 24  1  0
 20  2  1  0
 16  5  2  0
 13  7  1  0
  1 25  1  0
  1 26  1  0
  1 27  1  0
  3 28  1  0
  8 29  1  0
  9 30  1  0
 10 31  1  0
 12 32  1  0
 17 33  1  0
 18 34  1  0
 19 35  1  0
M  END
>  <meeko>  (2) 
{"is_sidechain": [false], "free_energy": -11.304, "intermolecular_energy": -13.301, "internal_energy": -0.128}

$$$$
cand_003_out
     RDKit          3D

 35 37  0  0  0  0  0  0  0  0999 V2000
   53.7730  155.5540   25.3500 C   0  0  0  0  0  0  0  0  0  0  0  0
   53.0100  155.3400   26.6300 C   0  0  0  0  0  0  0  0  0  0  0  0
   52.5950  156.4600   27.3750 C   0  0  0  0  0  0  0  0  0  0  0  0
   51.8710  156.3210   28.5690 C   0  0  0  0  0  0  0  0  0  0  0  0
   51.4770  157.5220   29.3350 C   0  0  0  0  0  0  0  0  0  0  0  0
   50.1450  157.5010   29.7290 O   0  0  0  0  0  0  0  0  0  0  0  0
   49.6490  158.5570   30.4490 C   0  0  0  0  0  0  0  0  0  0  0  0
   48.3030  158.5010   30.8120 C   0  0  0  0  0  0  0  0  0  0  0  0
   47.7350  159.5440   31.5480 C   0  0  0  0  0  0  0  0  0  0  0  0
   48.5130  160.6420   31.9210 C   0  0  0  0  0  0  0  0  0  0  0  0
   49.8570  160.6950   31.5580 C   0  0  0  0  0  0  0  0  0  0  0  0
   50.5610  161.7980   31.9570 O   0  0  0  0  0  0  0  0  0  0  0  0
   50.4240  159.6520   30.8200 C   0  0  0  0  0  0  0  0  0  0  0  0
   51.8310  159.6690   30.4190 C   0  0  0  0  0  0  0  0  0  0  0  0
   52.5820  160.5960   30.7150 O   0  0  0  0  0  0  0  0  0  0  0  0
   52.3330  158.5180   29.6330 C   0  0  0  0  0  0  0  0  0  0  0  0
   53.6670  158.5370   29.2700 O   0  0  0  0  0  0  0  0  0  0  0  0
   51.5760  155.0310   29.0230 C   0  0  0  0  0  0  0  0  0  0  0  0
   51.9780  153.9090   28.2930 C   0  0  0  0  0  0  0  0  0  0  0  0
   52.6940  154.0440   27.0910 C   0  0  0  0  0  0  0  0  0  0  0  0
   53.1110  152.8050   26.3280 C   0  0  0  0  0  0  0  0  0  0  0  0
   54.4190  152.4770   26.5250 F   0  0  0  0  0  0  0  0  0  0  0  0
   52.9630  152.9210   24.9770 F   0  0  0  0  0  0  0  0  0  0  0  0
   52.3900  151.7030   26.6800 F   0  0  0  0  0  0  0  0  0  0  0  0
   54.8079  155.8443   25.5842 H   0  0  0  0  0  0  0  0  0  0  0  0
   53.7769  154.6223   24.7653 H   0  0  0  0  0  0  0  0  0  0  0  0
   53.2918  156.3518   24.7653 H   0  0  0  0  0  0  0  0  0  0  0  0
   52.8442  157.4682   27.0125 H   0  0  0  0  0  0  0  0  0  0  0  0
   47.6894  157.6363   30.5190 H   0  0  0  0  0  0  0  0  0  0  0  0
   46.6737  159.5002   31.8340 H   0  0  0  0  0  0  0  0  0  0  0  0
   48.0657  161.4633   32.5002 H   0  0  0  0  0  0  0  0  0  0  0  0
   50.3440  162.2270   32.7610 H   0  0  0  0  0  0  0  0  0  0  0  0
   54.3000  158.0840   29.7910 H   0  0  0  0  0  0  0  0  0  0  0  0
   51.0220  154.8984   29.9640 H   0  0  0  0  0  0  0  0  0  0  0  0
   51.7300  152.9040   28.6652 H   0  0  0  0  0  0  0  0  0  0  0  0
  1  2  1  0
  2  3  2  0
  3  4  1  0
  4  5  1  0
  5  6  1  0
  6  7  1  0
  7  8  2  0
  8  9  1  0
  9 10  2  0
 10 11  1  0
 11 12  1  0
 11 13  2  0
 13 14  1  0
 14 15  2  0
 14 16  1  0
 16 17  1  0
  4 18  2  0
 18 19  1  0
 19 20  2  0
 20 21  1  0
 21 22  1  0
 21 23  1  0
 21 24  1  0
 20  2  1  0
 16  5  2  0
 13  7  1  0
  1 25  1  0
  1 26  1  0
  1 27  1  0
  3 28  1  0
  8 29  1  0
  9 30  1  0
 10 31  1  0
 12 32  1  0
 17 33  1  0
 18 34  1  0
 19 35  1  0
M  END
>  <meeko>  (3) 
{"is_sidechain": [false], "free_energy": -10.596, "intermolecular_energy": -12.611, "internal_energy": 0.014}

$$$$
cand_003_out
     RDKit          3D

 35 37  0  0  0  0  0  0  0  0999 V2000
   53.8160  156.0590   25.4620 C   0  0  0  0  0  0  0  0  0  0  0  0
   52.9950  155.6430   26.6530 C   0  0  0  0  0  0  0  0  0  0  0  0
   52.4120  156.6370   27.4630 C   0  0  0  0  0  0  0  0  0  0  0  0
   51.6270  156.3080   28.5780 C   0  0  0  0  0  0  0  0  0  0  0  0
   51.0540  157.3820   29.4170 C   0  0  0  0  0  0  0  0  0  0  0  0
   51.9510  158.4170   29.6580 O   0  0  0  0  0  0  0  0  0  0  0  0
   51.5460  159.4800   30.4230 C   0  0  0  0  0  0  0  0  0  0  0  0
   52.4820  160.4900   30.6520 C   0  0  0  0  0  0  0  0  0  0  0  0
   52.1350  161.6020   31.4220 C   0  0  0  0  0  0  0  0  0  0  0  0
   50.8520  161.7050   31.9630 C   0  0  0  0  0  0  0  0  0  0  0  0
   49.9190  160.6970   31.7320 C   0  0  0  0  0  0  0  0  0  0  0  0
   48.6810  160.8620   32.2910 O   0  0  0  0  0  0  0  0  0  0  0  0
   50.2680  159.5830   30.9630 C   0  0  0  0  0  0  0  0  0  0  0  0
   49.3180  158.5020   30.6980 C   0  0  0  0  0  0  0  0  0  0  0  0
   48.1680  158.5240   31.1320 O   0  0  0  0  0  0  0  0  0  0  0  0
   49.7890  157.3630   29.8760 C   0  0  0  0  0  0  0  0  0  0  0  0
   48.8800  156.3530   29.6200 O   0  0  0  0  0  0  0  0  0  0  0  0
   51.4430  154.9560   28.8890 C   0  0  0  0  0  0  0  0  0  0  0  0
   52.0130  153.9590   28.0940 C   0  0  0  0  0  0  0  0  0  0  0  0
   52.7900  154.2830   26.9690 C   0  0  0  0  0  0  0  0  0  0  0  0
   53.3900  153.1740   26.1310 C   0  0  0  0  0  0  0  0  0  0  0  0
   52.9980  151.9330   26.5360 F   0  0  0  0  0  0  0  0  0  0  0  0
   54.7540  153.1520   26.1520 F   0  0  0  0  0  0  0  0  0  0  0  0
   53.0470  153.2650   24.8150 F   0  0  0  0  0  0  0  0  0  0  0  0
   54.7480  156.5312   25.8060 H   0  0  0  0  0  0  0  0  0  0  0  0
   54.0559  155.1737   24.8548 H   0  0  0  0  0  0  0  0  0  0  0  0
   53.2440  156.7761   24.8548 H   0  0  0  0  0  0  0  0  0  0  0  0
   52.5761  157.6961   27.2154 H   0  0  0  0  0  0  0  0  0  0  0  0
   53.4929  160.4099   30.2259 H   0  0  0  0  0  0  0  0  0  0  0  0
   52.8730  162.3975   31.6025 H   0  0  0  0  0  0  0  0  0  0  0  0
   50.5786  162.5804   32.5704 H   0  0  0  0  0  0  0  0  0  0  0  0
   48.5900  160.9160   33.2220 H   0  0  0  0  0  0  0  0  0  0  0  0
   48.9720  155.8240   28.8520 H   0  0  0  0  0  0  0  0  0  0  0  0
   50.8438  154.6758   29.7679 H   0  0  0  0  0  0  0  0  0  0  0  0
   51.8509  152.9023   28.3530 H   0  0  0  0  0  0  0  0  0  0  0  0
  1  2  1  0
  2  3  2  0
  3  4  1  0
  4  5  1  0
  5  6  1  0
  6  7  1  0
  7  8  2  0
  8  9  1  0
  9 10  2  0
 10 11  1  0
 11 12  1  0
 11 13  2  0
 13 14  1  0
 14 15  2  0
 14 16  1  0
 16 17  1  0
  4 18  2  0
 18 19  1  0
 19 20  2  0
 20 21  1  0
 21 22  1  0
 21 23  1  0
 21 24  1  0
 20  2  1  0
 16  5  2  0
 13  7  1  0
  1 25  1  0
  1 26  1  0
  1 27  1  0
  3 28  1  0
  8 29  1  0
  9 30  1  0
 10 31  1  0
 12 32  1  0
 17 33  1  0
 18 34  1  0
 19 35  1  0
M  END
>  <meeko>  (4) 
{"is_sidechain": [false], "free_energy": -9.357, "intermolecular_energy": -11.041, "internal_energy": -0.099}

$$$$
cand_003_out
     RDKit          3D

 35 37  0  0  0  0  0  0  0  0999 V2000
   51.8620  152.8250   28.2800 C   0  0  0  0  0  0  0  0  0  0  0  0
   52.1490  154.2740   27.9880 C   0  0  0  0  0  0  0  0  0  0  0  0
   51.5800  155.2630   28.8130 C   0  0  0  0  0  0  0  0  0  0  0  0
   51.8220  156.6280   28.5960 C   0  0  0  0  0  0  0  0  0  0  0  0
   51.1830  157.6360   29.4690 C   0  0  0  0  0  0  0  0  0  0  0  0
   52.0020  158.7310   29.7200 O   0  0  0  0  0  0  0  0  0  0  0  0
   51.5300  159.7420   30.5180 C   0  0  0  0  0  0  0  0  0  0  0  0
   52.3900  160.8150   30.7560 C   0  0  0  0  0  0  0  0  0  0  0  0
   51.9720  161.8790   31.5580 C   0  0  0  0  0  0  0  0  0  0  0  0
   50.6940  161.8700   32.1210 C   0  0  0  0  0  0  0  0  0  0  0  0
   49.8370  160.7990   31.8820 C   0  0  0  0  0  0  0  0  0  0  0  0
   48.6010  160.8550   32.4640 O   0  0  0  0  0  0  0  0  0  0  0  0
   50.2580  159.7340   31.0800 C   0  0  0  0  0  0  0  0  0  0  0  0
   49.3890  158.5890   30.8040 C   0  0  0  0  0  0  0  0  0  0  0  0
   48.2490  158.5110   31.2580 O   0  0  0  0  0  0  0  0  0  0  0  0
   49.9320  157.5080   29.9480 C   0  0  0  0  0  0  0  0  0  0  0  0
   49.0990  156.4370   29.6820 O   0  0  0  0  0  0  0  0  0  0  0  0
   52.6370  156.9980   27.5210 C   0  0  0  0  0  0  0  0  0  0  0  0
   53.2110  156.0280   26.6950 C   0  0  0  0  0  0  0  0  0  0  0  0
   52.9810  154.6590   26.9160 C   0  0  0  0  0  0  0  0  0  0  0  0
   53.6220  153.6380   26.0000 C   0  0  0  0  0  0  0  0  0  0  0  0
   52.7220  153.0160   25.1880 F   0  0  0  0  0  0  0  0  0  0  0  0
   54.2660  152.6360   26.6660 F   0  0  0  0  0  0  0  0  0  0  0  0
   54.5580  154.1860   25.1740 F   0  0  0  0  0  0  0  0  0  0  0  0
   51.8312  152.6694   29.3685 H   0  0  0  0  0  0  0  0  0  0  0  0
   50.8915  152.5480   27.8424 H   0  0  0  0  0  0  0  0  0  0  0  0
   52.6536  152.1990   27.8424 H   0  0  0  0  0  0  0  0  0  0  0  0
   50.9307  154.9585   29.6470 H   0  0  0  0  0  0  0  0  0  0  0  0
   53.3964  160.8226   30.3121 H   0  0  0  0  0  0  0  0  0  0  0  0
   52.6497  162.7247   31.7464 H   0  0  0  0  0  0  0  0  0  0  0  0
   50.3648  162.7082   32.7526 H   0  0  0  0  0  0  0  0  0  0  0  0
   47.8900  160.3620   32.1020 H   0  0  0  0  0  0  0  0  0  0  0  0
   48.2550  156.5830   29.3020 H   0  0  0  0  0  0  0  0  0  0  0  0
   52.8280  158.0632   27.3239 H   0  0  0  0  0  0  0  0  0  0  0  0
   53.8531  156.3407   25.8584 H   0  0  0  0  0  0  0  0  0  0  0  0
  1  2  1  0
  2  3  2  0
  3  4  1  0
  4  5  1  0
  5  6  1  0
  6  7  1  0
  7  8  2  0
  8  9  1  0
  9 10  2  0
 10 11  1  0
 11 12  1  0
 11 13  2  0
 13 14  1  0
 14 15  2  0
 14 16  1  0
 16 17  1  0
  4 18  2  0
 18 19  1  0
 19 20  2  0
 20 21  1  0
 21 22  1  0
 21 23  1  0
 21 24  1  0
 20  2  1  0
 16  5  2  0
 13  7  1  0
  1 25  1  0
  1 26  1  0
  1 27  1  0
  3 28  1  0
  8 29  1  0
  9 30  1  0
 10 31  1  0
 12 32  1  0
 17 33  1  0
 18 34  1  0
 19 35  1  0
M  END
>  <meeko>  (5) 
{"is_sidechain": [false], "free_energy": -9.203, "intermolecular_energy": -11.022, "internal_energy": 0.064}

$$$$
cand_003_out
     RDKit          3D

 35 37  0  0  0  0  0  0  0  0999 V2000
   51.9170  159.9060   30.1820 C   0  0  0  0  0  0  0  0  0  0  0  0
   51.2670  158.5830   29.8750 C   0  0  0  0  0  0  0  0  0  0  0  0
   51.9240  157.6800   29.0170 C   0  0  0  0  0  0  0  0  0  0  0  0
   51.3720  156.4280   28.7060 C   0  0  0  0  0  0  0  0  0  0  0  0
   52.0820  155.5210   27.7790 C   0  0  0  0  0  0  0  0  0  0  0  0
   51.6760  154.1970   27.9010 O   0  0  0  0  0  0  0  0  0  0  0  0
   52.2570  153.2500   27.0970 C   0  0  0  0  0  0  0  0  0  0  0  0
   51.8310  151.9310   27.2620 C   0  0  0  0  0  0  0  0  0  0  0  0
   52.3790  150.9170   26.4740 C   0  0  0  0  0  0  0  0  0  0  0  0
   53.3540  151.2210   25.5210 C   0  0  0  0  0  0  0  0  0  0  0  0
   53.7760  152.5380   25.3570 C   0  0  0  0  0  0  0  0  0  0  0  0
   54.7320  152.7660   24.4050 O   0  0  0  0  0  0  0  0  0  0  0  0
   53.2280  153.5520   26.1470 C   0  0  0  0  0  0  0  0  0  0  0  0
   53.6440  154.9480   26.0070 C   0  0  0  0  0  0  0  0  0  0  0  0
   54.4900  155.2960   25.1860 O   0  0  0  0  0  0  0  0  0  0  0  0
   53.0070  155.9460   26.8980 C   0  0  0  0  0  0  0  0  0  0  0  0
   53.3970  157.2640   26.7480 O   0  0  0  0  0  0  0  0  0  0  0  0
   50.1310  156.0920   29.2570 C   0  0  0  0  0  0  0  0  0  0  0  0
   49.4680  156.9760   30.1130 C   0  0  0  0  0  0  0  0  0  0  0  0
   50.0230  158.2250   30.4370 C   0  0  0  0  0  0  0  0  0  0  0  0
   49.2750  159.1550   31.3690 C   0  0  0  0  0  0  0  0  0  0  0  0
   48.7990  160.2650   30.7380 F   0  0  0  0  0  0  0  0  0  0  0  0
   50.0350  159.6180   32.4020 F   0  0  0  0  0  0  0  0  0  0  0  0
   48.1940  158.5600   31.9490 F   0  0  0  0  0  0  0  0  0  0  0  0
   51.9820  160.0384   31.2721 H   0  0  0  0  0  0  0  0  0  0  0  0
   52.9280  159.9270   29.7491 H   0  0  0  0  0  0  0  0  0  0  0  0
   51.3158  160.7191   29.7491 H   0  0  0  0  0  0  0  0  0  0  0  0
   52.8931  157.9629   28.5802 H   0  0  0  0  0  0  0  0  0  0  0  0
   51.0638  151.6905   28.0127 H   0  0  0  0  0  0  0  0  0  0  0  0
   52.0426  149.8778   26.6038 H   0  0  0  0  0  0  0  0  0  0  0  0
   53.7874  150.4220   24.9015 H   0  0  0  0  0  0  0  0  0  0  0  0
   54.8770  153.6350   24.0860 H   0  0  0  0  0  0  0  0  0  0  0  0
   54.1320  157.4760   26.2080 H   0  0  0  0  0  0  0  0  0  0  0  0
   49.6722  155.1222   29.0142 H   0  0  0  0  0  0  0  0  0  0  0  0
   48.4957  156.6889   30.5399 H   0  0  0  0  0  0  0  0  0  0  0  0
  1  2  1  0
  2  3  2  0
  3  4  1  0
  4  5  1  0
  5  6  1  0
  6  7  1  0
  7  8  2  0
  8  9  1  0
  9 10  2  0
 10 11  1  0
 11 12  1  0
 11 13  2  0
 13 14  1  0
 14 15  2  0
 14 16  1  0
 16 17  1  0
  4 18  2  0
 18 19  1  0
 19 20  2  0
 20 21  1  0
 21 22  1  0
 21 23  1  0
 21 24  1  0
 20  2  1  0
 16  5  2  0
 13  7  1  0
  1 25  1  0
  1 26  1  0
  1 27  1  0
  3 28  1  0
  8 29  1  0
  9 30  1  0
 10 31  1  0
 12 32  1  0
 17 33  1  0
 18 34  1  0
 19 35  1  0
M  END
>  <meeko>  (6) 
{"is_sidechain": [false], "free_energy": -8.843, "intermolecular_energy": -10.772, "internal_energy": 0.236}

$$$$
