cand_034_out
     RDKit          3D

 40 42  0  0  0  0  0  0  0  0999 V2000
   48.1370  161.3120   31.1910 C   0  0  0  0  0  0  0  0  0  0  0  0
   49.3630  160.7410   31.7570 N   0  0  0  0  0  0  0  0  0  0  0  0
   49.2470  160.3890   33.1800 C   0  0  0  0  0  0  0  0  0  0  0  0
   49.9130  159.6710   31.0180 C   0  0  0  0  0  0  0  0  0  0  0  0
   49.1990  158.4880   30.7720 C   0  0  0  0  0  0  0  0  0  0  0  0
   49.7710  157.4290   30.0560 C   0  0  0  0  0  0  0  0  0  0  0  0
   51.0750  157.5210   29.5630 C   0  0  0  0  0  0  0  0  0  0  0  0
   51.7140  156.4050   28.8320 C   0  0  0  0  0  0  0  0  0  0  0  0
   52.2680  156.8010   27.6200 O   0  0  0  0  0  0  0  0  0  0  0  0
   52.8900  155.8620   26.8370 C   0  0  0  0  0  0  0  0  0  0  0  0
   53.4400  156.3060   25.6330 C   0  0  0  0  0  0  0  0  0  0  0  0
   54.0870  155.4030   24.7880 C   0  0  0  0  0  0  0  0  0  0  0  0
   54.1830  154.0560   25.1450 C   0  0  0  0  0  0  0  0  0  0  0  0
   53.6330  153.6150   26.3460 C   0  0  0  0  0  0  0  0  0  0  0  0
   53.7620  152.2840   26.6340 O   0  0  0  0  0  0  0  0  0  0  0  0
   52.9860  154.5210   27.1930 C   0  0  0  0  0  0  0  0  0  0  0  0
   52.3930  154.1010   28.4630 C   0  0  0  0  0  0  0  0  0  0  0  0
   52.4310  152.9330   28.8430 O   0  0  0  0  0  0  0  0  0  0  0  0
   51.7340  155.1390   29.2880 C   0  0  0  0  0  0  0  0  0  0  0  0
   51.1630  154.7270   30.4790 O   0  0  0  0  0  0  0  0  0  0  0  0
   51.7970  158.6940   29.8190 C   0  0  0  0  0  0  0  0  0  0  0  0
   51.2290  159.7710   30.5290 C   0  0  0  0  0  0  0  0  0  0  0  0
   52.0540  161.0070   30.7750 C   0  0  0  0  0  0  0  0  0  0  0  0
   53.2660  160.9670   30.1410 F   0  0  0  0  0  0  0  0  0  0  0  0
   52.3510  161.1820   32.0950 F   0  0  0  0  0  0  0  0  0  0  0  0
   47.4674  161.6238   32.0061 H   0  0  0  0  0  0  0  0  0  0  0  0
   48.3910  162.1845   30.5711 H   0  0  0  0  0  0  0  0  0  0  0  0
   47.6327  160.5561   30.5711 H   0  0  0  0  0  0  0  0  0  0  0  0
   49.5322  161.2544   33.7962 H   0  0  0  0  0  0  0  0  0  0  0  0
   48.2080  160.1058   33.4041 H   0  0  0  0  0  0  0  0  0  0  0  0
   49.9140  159.5435   33.4041 H   0  0  0  0  0  0  0  0  0  0  0  0
   48.1702  158.3907   31.1489 H   0  0  0  0  0  0  0  0  0  0  0  0
   49.1866  156.5139   29.8797 H   0  0  0  0  0  0  0  0  0  0  0  0
   53.3635  157.3664   25.3507 H   0  0  0  0  0  0  0  0  0  0  0  0
   54.5218  155.7525   23.8399 H   0  0  0  0  0  0  0  0  0  0  0  0
   54.6923  153.3445   24.4784 H   0  0  0  0  0  0  0  0  0  0  0  0
   53.6250  151.9790   27.5100 H   0  0  0  0  0  0  0  0  0  0  0  0
   50.7550  155.3540   31.0420 H   0  0  0  0  0  0  0  0  0  0  0  0
   52.8325  158.7765   29.4571 H   0  0  0  0  0  0  0  0  0  0  0  0
   51.4254  161.8232   30.3894 H   0  0  0  0  0  0  0  0  0  0  0  0
  1  2  1  0
  2  3  1  0
  2  4  1  0
  4  5  2  0
  5  6  1  0
  6  7  2  0
  7  8  1  0
  8  9  1  0
  9 10  1  0
 10 11  2  0
 11 12  1  0
 12 13  2  0
 13 14  1  0
 14 15  1  0
 14 16  2  0
 16 17  1  0
 17 18  2  0
 17 19  1  0
 19 20  1  0
  7 21  1  0
 21 22  2  0
 22 23  1  0
 23 24  1  0
 23 25  1  0
 22  4  1  0
 19  8  2  0
 16 10  1  0
  1 26  1  0
  1 27  1  0
  1 28  1  0
  3 29  1  0
  3 30  1  0
  3 31  1  0
  5 32  1  0
  6 33  1  0
 11 34  1  0
 12 35  1  0
 13 36  1  0
 15 37  1  0
 20 38  1  0
 21 39  1  0
 23 40  1  0
M  END
>  <meeko>  (1) 
{"is_sidechain": [false], "free_energy": -10.309, "intermolecular_energy": -12.72, "internal_energy": -0.375}

$$$$
cand_034_out
     RDKit          3D

 40 42  0  0  0  0  0  0  0  0999 V2000
   54.3370  152.4890   26.3700 C   0  0  0  0  0  0  0  0  0  0  0  0
   52.9100  152.8270   26.3880 N   0  0  0  0  0  0  0  0  0  0  0  0
   52.0410  151.6950   26.7390 C   0  0  0  0  0  0  0  0  0  0  0  0
   52.5820  153.9680   27.1540 C   0  0  0  0  0  0  0  0  0  0  0  0
   52.0500  153.8710   28.4490 C   0  0  0  0  0  0  0  0  0  0  0  0
   51.7120  155.0150   29.1820 C   0  0  0  0  0  0  0  0  0  0  0  0
   51.8950  156.2910   28.6440 C   0  0  0  0  0  0  0  0  0  0  0  0
   51.5150  157.5140   29.3830 C   0  0  0  0  0  0  0  0  0  0  0  0
   50.1780  157.5210   29.7650 O   0  0  0  0  0  0  0  0  0  0  0  0
   49.6910  158.6010   30.4550 C   0  0  0  0  0  0  0  0  0  0  0  0
   48.3460  158.5610   30.8250 C   0  0  0  0  0  0  0  0  0  0  0  0
   47.7850  159.6290   31.5300 C   0  0  0  0  0  0  0  0  0  0  0  0
   48.5680  160.7350   31.8620 C   0  0  0  0  0  0  0  0  0  0  0  0
   49.9100  160.7740   31.4910 C   0  0  0  0  0  0  0  0  0  0  0  0
   50.6190  161.8880   31.8480 O   0  0  0  0  0  0  0  0  0  0  0  0
   50.4710  159.7040   30.7860 C   0  0  0  0  0  0  0  0  0  0  0  0
   51.8750  159.7030   30.3750 C   0  0  0  0  0  0  0  0  0  0  0  0
   52.6270  160.6430   30.6250 O   0  0  0  0  0  0  0  0  0  0  0  0
   52.3720  158.5200   29.6370 C   0  0  0  0  0  0  0  0  0  0  0  0
   53.6970  158.5380   29.2400 O   0  0  0  0  0  0  0  0  0  0  0  0
   52.4120  156.3920   27.3450 C   0  0  0  0  0  0  0  0  0  0  0  0
   52.7670  155.2490   26.6010 C   0  0  0  0  0  0  0  0  0  0  0  0
   53.3180  155.4200   25.2090 C   0  0  0  0  0  0  0  0  0  0  0  0
   54.6850  155.3850   25.1750 F   0  0  0  0  0  0  0  0  0  0  0  0
   52.9800  156.6210   24.6580 F   0  0  0  0  0  0  0  0  0  0  0  0
   54.7062  152.4016   27.4025 H   0  0  0  0  0  0  0  0  0  0  0  0
   54.4806  151.5320   25.8470 H   0  0  0  0  0  0  0  0  0  0  0  0
   54.8946  153.2799   25.8470 H   0  0  0  0  0  0  0  0  0  0  0  0
   51.9750  151.6091   27.8337 H   0  0  0  0  0  0  0  0  0  0  0  0
   51.0363  151.8612   26.3230 H   0  0  0  0  0  0  0  0  0  0  0  0
   52.4612  150.7674   26.3230 H   0  0  0  0  0  0  0  0  0  0  0  0
   51.8957  152.8780   28.8964 H   0  0  0  0  0  0  0  0  0  0  0  0
   51.2968  154.9075   30.1950 H   0  0  0  0  0  0  0  0  0  0  0  0
   47.7282  157.6897   30.5619 H   0  0  0  0  0  0  0  0  0  0  0  0
   46.7253  159.5978   31.8234 H   0  0  0  0  0  0  0  0  0  0  0  0
   48.1257  161.5758   32.4165 H   0  0  0  0  0  0  0  0  0  0  0  0
   51.5510  161.8410   31.9390 H   0  0  0  0  0  0  0  0  0  0  0  0
   53.9810  157.9890   28.5350 H   0  0  0  0  0  0  0  0  0  0  0  0
   52.5438  157.3873   26.8956 H   0  0  0  0  0  0  0  0  0  0  0  0
   52.8811  154.5804   24.6485 H   0  0  0  0  0  0  0  0  0  0  0  0
  1  2  1  0
  2  3  1  0
  2  4  1  0
  4  5  2  0
  5  6  1  0
  6  7  2  0
  7  8  1  0
  8  9  1  0
  9 10  1  0
 10 11  2  0
 11 12  1  0
 12 13  2  0
 13 14  1  0
 14 15  1  0
 14 16  2  0
 16 17  1  0
 17 18  2  0
 17 19  1  0
 19 20  1  0
  7 21  1  0
 21 22  2  0
 22 23  1  0
 23 24  1  0
 23 25  1  0
 22  4  1  0
 19  8  2  0
 16 10  1  0
  1 26  1  0
  1 27  1  0
  1 28  1  0
  3 29  1  0
  3 30  1  0
  3 31  1  0
  5 32  1  0
  6 33  1  0
 11 34  1  0
 12 35  1  0
 13 36  1  0
 15 37  1  0
 20 38  1  0
 21 39  1  0
 23 40  1  0
M  END
>  <meeko>  (2) 
{"is_sidechain": [false], "free_energy": -9.809, "intermolecular_energy": -12.271, "internal_energy": -0.207}

$$$$
cand_034_out
     RDKit          3D

 40 42  0  0  0  0  0  0  0  0999 V2000
   51.6360  161.0070   31.6640 C   0  0  0  0  0  0  0  0  0  0  0  0
   50.5640  160.2960   30.9590 N   0  0  0  0  0  0  0  0  0  0  0  0
   49.7840  161.1540   30.0550 C   0  0  0  0  0  0  0  0  0  0  0  0
   50.9720  159.1140   30.3020 C   0  0  0  0  0  0  0  0  0  0  0  0
   52.2340  158.9900   29.7010 C   0  0  0  0  0  0  0  0  0  0  0  0
   52.6080  157.8160   29.0350 C   0  0  0  0  0  0  0  0  0  0  0  0
   51.7340  156.7300   28.9510 C   0  0  0  0  0  0  0  0  0  0  0  0
   52.0930  155.4920   28.2270 C   0  0  0  0  0  0  0  0  0  0  0  0
   52.6250  155.7390   26.9660 O   0  0  0  0  0  0  0  0  0  0  0  0
   52.9960  154.6760   26.1830 C   0  0  0  0  0  0  0  0  0  0  0  0
   53.5350  154.9710   24.9300 C   0  0  0  0  0  0  0  0  0  0  0  0
   53.9330  153.9360   24.0810 C   0  0  0  0  0  0  0  0  0  0  0  0
   53.7920  152.6070   24.4850 C   0  0  0  0  0  0  0  0  0  0  0  0
   53.2530  152.3150   25.7360 C   0  0  0  0  0  0  0  0  0  0  0  0
   53.1430  150.9920   26.0690 O   0  0  0  0  0  0  0  0  0  0  0  0
   52.8560  153.3520   26.5850 C   0  0  0  0  0  0  0  0  0  0  0  0
   52.2850  153.0900   27.9070 C   0  0  0  0  0  0  0  0  0  0  0  0
   52.1220  151.9480   28.3310 O   0  0  0  0  0  0  0  0  0  0  0  0
   51.8990  154.2590   28.7310 C   0  0  0  0  0  0  0  0  0  0  0  0
   51.3460  153.9990   29.9710 O   0  0  0  0  0  0  0  0  0  0  0  0
   50.4670  156.8550   29.5380 C   0  0  0  0  0  0  0  0  0  0  0  0
   50.0810  158.0270   30.2190 C   0  0  0  0  0  0  0  0  0  0  0  0
   48.7060  158.1030   30.8300 C   0  0  0  0  0  0  0  0  0  0  0  0
   47.8310  158.8300   30.0690 F   0  0  0  0  0  0  0  0  0  0  0  0
   48.7100  158.7170   32.0490 F   0  0  0  0  0  0  0  0  0  0  0  0
   51.4886  160.9092   32.7497 H   0  0  0  0  0  0  0  0  0  0  0  0
   52.6081  160.5740   31.3855 H   0  0  0  0  0  0  0  0  0  0  0  0
   51.6152  162.0710   31.3855 H   0  0  0  0  0  0  0  0  0  0  0  0
   49.1606  161.8398   30.6475 H   0  0  0  0  0  0  0  0  0  0  0  0
   50.4685  161.7362   29.4206 H   0  0  0  0  0  0  0  0  0  0  0  0
   49.1394  160.5279   29.4206 H   0  0  0  0  0  0  0  0  0  0  0  0
   52.9423  159.8300   29.7539 H   0  0  0  0  0  0  0  0  0  0  0  0
   53.6035  157.7485   28.5719 H   0  0  0  0  0  0  0  0  0  0  0  0
   53.6463  156.0179   24.6113 H   0  0  0  0  0  0  0  0  0  0  0  0
   54.3579  154.1680   23.0933 H   0  0  0  0  0  0  0  0  0  0  0  0
   54.1060  151.7918   23.8166 H   0  0  0  0  0  0  0  0  0  0  0  0
   53.3290  150.3320   25.4310 H   0  0  0  0  0  0  0  0  0  0  0  0
   50.4810  153.6430   30.0320 H   0  0  0  0  0  0  0  0  0  0  0  0
   49.7569  156.0180   29.4653 H   0  0  0  0  0  0  0  0  0  0  0  0
   48.3937  157.0511   30.9074 H   0  0  0  0  0  0  0  0  0  0  0  0
  1  2  1  0
  2  3  1  0
  2  4  1  0
  4  5  2  0
  5  6  1  0
  6  7  2  0
  7  8  1  0
  8  9  1  0
  9 10  1  0
 10 11  2  0
 11 12  1  0
 12 13  2  0
 13 14  1  0
 14 15  1  0
 14 16  2  0
 16 17  1  0
 17 18  2  0
 17 19  1  0
 19 20  1  0
  7 21  1  0
 21 22  2  0
 22 23  1  0
 23 24  1  0
 23 25  1  0
 22  4  1  0
 19  8  2  0
 16 10  1  0
  1 26  1  0
  1 27  1  0
  1 28  1  0
  3 29  1  0
  3 30  1  0
  3 31  1  0
  5 32  1  0
  6 33  1  0
 11 34  1  0
 12 35  1  0
 13 36  1  0
 15 37  1  0
 20 38  1  0
 21 39  1  0
 23 40  1  0
M  END
>  <meeko>  (3) 
{"is_sidechain": [false], "free_energy": -9.753, "intermolecular_energy": -12.676, "internal_energy": 0.267}

$$$$
cand_034_out
     RDKit          3D

 40 42  0  0  0  0  0  0  0  0999 V2000
   54.7660  152.6440   26.5040 C   0  0  0  0  0  0  0  0  0  0  0  0
   53.3540  152.9490   26.2520 N   0  0  0  0  0  0  0  0  0  0  0  0
   52.4810  151.7660   26.2880 C   0  0  0  0  0  0  0  0  0  0  0  0
   52.8230  153.9890   27.0440 C   0  0  0  0  0  0  0  0  0  0  0  0
   52.2260  153.7500   28.2920 C   0  0  0  0  0  0  0  0  0  0  0  0
   51.6860  154.7940   29.0520 C   0  0  0  0  0  0  0  0  0  0  0  0
   51.7250  156.1110   28.5880 C   0  0  0  0  0  0  0  0  0  0  0  0
   51.1330  157.2280   29.3550 C   0  0  0  0  0  0  0  0  0  0  0  0
   52.0360  158.2570   29.5960 O   0  0  0  0  0  0  0  0  0  0  0  0
   51.6180  159.3550   30.3030 C   0  0  0  0  0  0  0  0  0  0  0  0
   52.5550  160.3680   30.5130 C   0  0  0  0  0  0  0  0  0  0  0  0
   52.1950  161.5130   31.2260 C   0  0  0  0  0  0  0  0  0  0  0  0
   50.9000  161.6460   31.7290 C   0  0  0  0  0  0  0  0  0  0  0  0
   49.9660  160.6340   31.5200 C   0  0  0  0  0  0  0  0  0  0  0  0
   48.7160  160.8280   32.0400 O   0  0  0  0  0  0  0  0  0  0  0  0
   50.3270  159.4880   30.8050 C   0  0  0  0  0  0  0  0  0  0  0  0
   49.3790  158.4000   30.5620 C   0  0  0  0  0  0  0  0  0  0  0  0
   48.2230  158.4400   30.9790 O   0  0  0  0  0  0  0  0  0  0  0  0
   49.8590  157.2310   29.7910 C   0  0  0  0  0  0  0  0  0  0  0  0
   48.9580  156.2020   29.5820 O   0  0  0  0  0  0  0  0  0  0  0  0
   52.3070  156.3540   27.3360 C   0  0  0  0  0  0  0  0  0  0  0  0
   52.8630  155.3130   26.5660 C   0  0  0  0  0  0  0  0  0  0  0  0
   53.4740  155.6340   25.2270 C   0  0  0  0  0  0  0  0  0  0  0  0
   54.8420  155.6440   25.2600 F   0  0  0  0  0  0  0  0  0  0  0  0
   53.1220  156.8730   24.7770 F   0  0  0  0  0  0  0  0  0  0  0  0
   54.9449  152.6054   27.5887 H   0  0  0  0  0  0  0  0  0  0  0  0
   55.0165  151.6710   26.0562 H   0  0  0  0  0  0  0  0  0  0  0  0
   55.3958  153.4268   26.0562 H   0  0  0  0  0  0  0  0  0  0  0  0
   52.2784  151.4915   27.3338 H   0  0  0  0  0  0  0  0  0  0  0  0
   51.5331  151.9942   25.7786 H   0  0  0  0  0  0  0  0  0  0  0  0
   52.9785  150.9275   25.7786 H   0  0  0  0  0  0  0  0  0  0  0  0
   52.1817  152.7218   28.6803 H   0  0  0  0  0  0  0  0  0  0  0  0
   51.2253  154.5747   30.0265 H   0  0  0  0  0  0  0  0  0  0  0  0
   53.5760  160.2643   30.1171 H   0  0  0  0  0  0  0  0  0  0  0  0
   52.9332  162.3116   31.3916 H   0  0  0  0  0  0  0  0  0  0  0  0
   50.6172  162.5490   32.2899 H   0  0  0  0  0  0  0  0  0  0  0  0
   47.9610  160.5470   31.5620 H   0  0  0  0  0  0  0  0  0  0  0  0
   48.0880  156.3940   29.2920 H   0  0  0  0  0  0  0  0  0  0  0  0
   52.3302  157.3820   26.9453 H   0  0  0  0  0  0  0  0  0  0  0  0
   53.0940  154.8398   24.5676 H   0  0  0  0  0  0  0  0  0  0  0  0
  1  2  1  0
  2  3  1  0
  2  4  1  0
  4  5  2  0
  5  6  1  0
  6  7  2  0
  7  8  1  0
  8  9  1  0
  9 10  1  0
 10 11  2  0
 11 12  1  0
 12 13  2  0
 13 14  1  0
 14 15  1  0
 14 16  2  0
 16 17  1  0
 17 18  2  0
 17 19  1  0
 19 20  1  0
  7 21  1  0
 21 22  2  0
 22 23  1  0
 23 24  1  0
 23 25  1  0
 22  4  1  0
 19  8  2  0
 16 10  1  0
  1 26  1  0
  1 27  1  0
  1 28  1  0
  3 29  1  0
  3 30  1  0
  3 31  1  0
  5 32  1  0
  6 33  1  0
 11 34  1  0
 12 35  1  0
 13 36  1  0
 15 37  1  0
 20 38  1  0
 21 39  1  0
 23 40  1  0
M  END
>  <meeko>  (4) 
{"is_sidechain": [false], "free_energy": -8.479, "intermolecular_energy": -10.479, "internal_energy": -0.359}

$$$$
cand_034_out
     RDKit          3D

 40 42  0  0  0  0  0  0  0  0999 V2000
   53.7330  153.4400   23.9750 C   0  0  0  0  0  0  0  0  0  0  0  0
   53.6570  153.1250   25.4050 N   0  0  0  0  0  0  0  0  0  0  0  0
   54.8900  152.5330   25.9450 C   0  0  0  0  0  0  0  0  0  0  0  0
   53.2120  154.1880   26.2220 C   0  0  0  0  0  0  0  0  0  0  0  0
   53.4530  155.5320   25.8970 C   0  0  0  0  0  0  0  0  0  0  0  0
   53.0210  156.5690   26.7320 C   0  0  0  0  0  0  0  0  0  0  0  0
   52.3360  156.2960   27.9180 C   0  0  0  0  0  0  0  0  0  0  0  0
   51.8980  157.3720   28.8340 C   0  0  0  0  0  0  0  0  0  0  0  0
   50.5520  157.2820   29.1680 O   0  0  0  0  0  0  0  0  0  0  0  0
   50.0130  158.2220   30.0090 C   0  0  0  0  0  0  0  0  0  0  0  0
   48.6600  158.0870   30.3250 C   0  0  0  0  0  0  0  0  0  0  0  0
   48.0480  159.0100   31.1750 C   0  0  0  0  0  0  0  0  0  0  0  0
   48.7880  160.0680   31.7090 C   0  0  0  0  0  0  0  0  0  0  0  0
   50.1380  160.2010   31.3910 C   0  0  0  0  0  0  0  0  0  0  0  0
   50.8030  161.2590   31.9470 O   0  0  0  0  0  0  0  0  0  0  0  0
   50.7500  159.2750   30.5410 C   0  0  0  0  0  0  0  0  0  0  0  0
   52.1640  159.3780   30.1800 C   0  0  0  0  0  0  0  0  0  0  0  0
   52.8800  160.2830   30.6030 O   0  0  0  0  0  0  0  0  0  0  0  0
   52.7180  158.3450   29.2750 C   0  0  0  0  0  0  0  0  0  0  0  0
   54.0520  158.4610   28.9290 O   0  0  0  0  0  0  0  0  0  0  0  0
   52.1050  154.9550   28.2540 C   0  0  0  0  0  0  0  0  0  0  0  0
   52.5250  153.9020   27.4170 C   0  0  0  0  0  0  0  0  0  0  0  0
   52.2500  152.4790   27.8300 C   0  0  0  0  0  0  0  0  0  0  0  0
   51.5650  151.7750   26.8780 F   0  0  0  0  0  0  0  0  0  0  0  0
   51.4760  152.4030   28.9520 F   0  0  0  0  0  0  0  0  0  0  0  0
   53.9892  154.5020   23.8466 H   0  0  0  0  0  0  0  0  0  0  0  0
   54.5065  152.8165   23.5028 H   0  0  0  0  0  0  0  0  0  0  0  0
   52.7603  153.2378   23.5028 H   0  0  0  0  0  0  0  0  0  0  0  0
   54.8541  152.5502   27.0443 H   0  0  0  0  0  0  0  0  0  0  0  0
   54.9804  151.4933   25.5973 H   0  0  0  0  0  0  0  0  0  0  0  0
   55.7578  153.1126   25.5973 H   0  0  0  0  0  0  0  0  0  0  0  0
   53.9913  155.7748   24.9690 H   0  0  0  0  0  0  0  0  0  0  0  0
   53.2237  157.6128   26.4503 H   0  0  0  0  0  0  0  0  0  0  0  0
   48.0768  157.2544   29.9048 H   0  0  0  0  0  0  0  0  0  0  0  0
   46.9819  158.9042   31.4246 H   0  0  0  0  0  0  0  0  0  0  0  0
   48.3056  160.7947   32.3793 H   0  0  0  0  0  0  0  0  0  0  0  0
   50.3360  162.0400   32.1710 H   0  0  0  0  0  0  0  0  0  0  0  0
   54.6750  157.8420   29.2550 H   0  0  0  0  0  0  0  0  0  0  0  0
   51.5835  154.7190   29.1933 H   0  0  0  0  0  0  0  0  0  0  0  0
   53.2515  152.0560   27.9976 H   0  0  0  0  0  0  0  0  0  0  0  0
  1  2  1  0
  2  3  1  0
  2  4  1  0
  4  5  2  0
  5  6  1  0
  6  7  2  0
  7  8  1  0
  8  9  1  0
  9 10  1  0
 10 11  2  0
 11 12  1  0
 12 13  2  0
 13 14  1  0
 14 15  1  0
 14 16  2  0
 16 17  1  0
 17 18  2  0
 17 19  1  0
 19 20  1  0
  7 21  1  0
 21 22  2  0
 22 23  1  0
 23 24  1  0
 23 25  1  0
 22  4  1  0
 19  8  2  0
 16 10  1  0
  1 26  1  0
  1 27  1  0
  1 28  1  0
  3 29  1  0
  3 30  1  0
  3 31  1  0
  5 32  1  0
  6 33  1  0
 11 34  1  0
 12 35  1  0
 13 36  1  0
 15 37  1  0
 20 38  1  0
 21 39  1  0
 23 40  1  0
M  END
>  <meeko>  (5) 
{"is_sidechain": [false], "free_energy": -8.125, "intermolecular_energy": -10.402, "internal_energy": 0.002}

$$$$
cand_034_out
     RDKit          3D

 40 42  0  0  0  0  0  0  0  0999 V2000
   54.1500  154.0170   24.2310 C   0  0  0  0  0  0  0  0  0  0  0  0
   53.7840  153.5260   25.5630 N   0  0  0  0  0  0  0  0  0  0  0  0
   54.8810  152.8350   26.2580 C   0  0  0  0  0  0  0  0  0  0  0  0
   53.1850  154.4890   26.4040 C   0  0  0  0  0  0  0  0  0  0  0  0
   53.3730  155.8670   26.2150 C   0  0  0  0  0  0  0  0  0  0  0  0
   52.7870  156.8040   27.0750 C   0  0  0  0  0  0  0  0  0  0  0  0
   51.9950  156.3940   28.1490 C   0  0  0  0  0  0  0  0  0  0  0  0
   51.3920  157.3610   29.0910 C   0  0  0  0  0  0  0  0  0  0  0  0
   52.2080  158.4610   29.3320 O   0  0  0  0  0  0  0  0  0  0  0  0
   51.7710  159.4350   30.1930 C   0  0  0  0  0  0  0  0  0  0  0  0
   52.6190  160.5250   30.3970 C   0  0  0  0  0  0  0  0  0  0  0  0
   52.2360  161.5520   31.2620 C   0  0  0  0  0  0  0  0  0  0  0  0
   51.0080  161.4900   31.9220 C   0  0  0  0  0  0  0  0  0  0  0  0
   50.1640  160.4010   31.7180 C   0  0  0  0  0  0  0  0  0  0  0  0
   48.9760  160.4020   32.3960 O   0  0  0  0  0  0  0  0  0  0  0  0
   50.5480  159.3730   30.8510 C   0  0  0  0  0  0  0  0  0  0  0  0
   49.6930  158.2100   30.6080 C   0  0  0  0  0  0  0  0  0  0  0  0
   48.6010  158.0790   31.1570 O   0  0  0  0  0  0  0  0  0  0  0  0
   50.1900  157.1790   29.6690 C   0  0  0  0  0  0  0  0  0  0  0  0
   49.3800  156.0770   29.4590 O   0  0  0  0  0  0  0  0  0  0  0  0
   51.8160  155.0180   28.3510 C   0  0  0  0  0  0  0  0  0  0  0  0
   52.3910  154.0650   27.4870 C   0  0  0  0  0  0  0  0  0  0  0  0
   52.1650  152.5990   27.7530 C   0  0  0  0  0  0  0  0  0  0  0  0
   51.4690  151.9810   26.7500 F   0  0  0  0  0  0  0  0  0  0  0  0
   51.4290  152.3820   28.8820 F   0  0  0  0  0  0  0  0  0  0  0  0
   54.8047  154.8953   24.3311 H   0  0  0  0  0  0  0  0  0  0  0  0
   54.6801  153.2253   23.6812 H   0  0  0  0  0  0  0  0  0  0  0  0
   53.2399  154.2988   23.6812 H   0  0  0  0  0  0  0  0  0  0  0  0
   54.7398  152.9239   27.3453 H   0  0  0  0  0  0  0  0  0  0  0  0
   54.8830  151.7722   25.9742 H   0  0  0  0  0  0  0  0  0  0  0  0
   55.8404  153.2921   25.9742 H   0  0  0  0  0  0  0  0  0  0  0  0
   53.9920  156.2174   25.3759 H   0  0  0  0  0  0  0  0  0  0  0  0
   52.9530  157.8775   26.9020 H   0  0  0  0  0  0  0  0  0  0  0  0
   53.5872  160.5747   29.8772 H   0  0  0  0  0  0  0  0  0  0  0  0
   52.9034  162.4114   31.4235 H   0  0  0  0  0  0  0  0  0  0  0  0
   50.7070  162.3002   32.6025 H   0  0  0  0  0  0  0  0  0  0  0  0
   48.5580  159.5910   32.6110 H   0  0  0  0  0  0  0  0  0  0  0  0
   49.6650  155.3900   28.8890 H   0  0  0  0  0  0  0  0  0  0  0  0
   51.2125  154.6745   29.2041 H   0  0  0  0  0  0  0  0  0  0  0  0
   53.1814  152.1890   27.8463 H   0  0  0  0  0  0  0  0  0  0  0  0
  1  2  1  0
  2  3  1  0
  2  4  1  0
  4  5  2  0
  5  6  1  0
  6  7  2  0
  7  8  1  0
  8  9  1  0
  9 10  1  0
 10 11  2  0
 11 12  1  0
 12 13  2  0
 13 14  1  0
 14 15  1  0
 14 16  2  0
 16 17  1  0
 17 18  2  0
 17 19  1  0
 19 20  1  0
  7 21  1  0
 21 22  2  0
 22 23  1  0
 23 24  1  0
 23 25  1  0
 22  4  1  0
 19  8  2  0
 16 10  1  0
  1 26  1  0
  1 27  1  0
  1 28  1  0
  3 29  1  0
  3 30  1  0
  3 31  1  0
  5 32  1  0
  6 33  1  0
 11 34  1  0
 12 35  1  0
 13 36  1  0
 15 37  1  0
 20 38  1  0
 21 39  1  0
 23 40  1  0
M  END
>  <meeko>  (6) 
{"is_sidechain": [false], "free_energy": -7.384, "intermolecular_energy": -9.767, "internal_energy": 0.282}

$$$$
