cand_028_out
     RDKit          3D

 38 40  0  0  0  0  0  0  0  0999 V2000
   47.3360  159.7280   30.8250 C   0  0  0  0  0  0  0  0  0  0  0  0
   48.3430  158.8460   31.5480 C   0  0  0  0  0  0  0  0  0  0  0  0
   49.7100  158.9050   30.9040 C   0  0  0  0  0  0  0  0  0  0  0  0
   50.1650  157.7720   30.1990 C   0  0  0  0  0  0  0  0  0  0  0  0
   51.4270  157.7380   29.5910 C   0  0  0  0  0  0  0  0  0  0  0  0
   51.8940  156.5600   28.8300 C   0  0  0  0  0  0  0  0  0  0  0  0
   52.4880  156.9010   27.6200 O   0  0  0  0  0  0  0  0  0  0  0  0
   52.9670  155.9020   26.8110 C   0  0  0  0  0  0  0  0  0  0  0  0
   53.5400  156.2890   25.5990 C   0  0  0  0  0  0  0  0  0  0  0  0
   54.0490  155.3210   24.7290 C   0  0  0  0  0  0  0  0  0  0  0  0
   53.9840  153.9690   25.0710 C   0  0  0  0  0  0  0  0  0  0  0  0
   53.4110  153.5870   26.2810 C   0  0  0  0  0  0  0  0  0  0  0  0
   53.3800  152.2460   26.5540 O   0  0  0  0  0  0  0  0  0  0  0  0
   52.9010  154.5550   27.1500 C   0  0  0  0  0  0  0  0  0  0  0  0
   52.2900  154.1950   28.4320 C   0  0  0  0  0  0  0  0  0  0  0  0
   52.2030  153.0280   28.8060 O   0  0  0  0  0  0  0  0  0  0  0  0
   51.7740  155.2970   29.2760 C   0  0  0  0  0  0  0  0  0  0  0  0
   51.2110  154.9460   30.4900 O   0  0  0  0  0  0  0  0  0  0  0  0
   52.2380  158.8740   29.6840 C   0  0  0  0  0  0  0  0  0  0  0  0
   51.8050  160.0040   30.3840 C   0  0  0  0  0  0  0  0  0  0  0  0
   50.5490  160.0310   31.0070 C   0  0  0  0  0  0  0  0  0  0  0  0
   50.1290  161.2740   31.7420 C   0  0  0  0  0  0  0  0  0  0  0  0
   46.7226  160.2653   31.5633 H   0  0  0  0  0  0  0  0  0  0  0  0
   47.8704  160.4538   30.1945 H   0  0  0  0  0  0  0  0  0  0  0  0
   46.6869  159.1026   30.1945 H   0  0  0  0  0  0  0  0  0  0  0  0
   48.4267  159.1838   32.5915 H   0  0  0  0  0  0  0  0  0  0  0  0
   47.9859  157.8069   31.4946 H   0  0  0  0  0  0  0  0  0  0  0  0
   49.5113  156.8905   30.1242 H   0  0  0  0  0  0  0  0  0  0  0  0
   53.5910  157.3541   25.3288 H   0  0  0  0  0  0  0  0  0  0  0  0
   54.5015  155.6247   23.7735 H   0  0  0  0  0  0  0  0  0  0  0  0
   54.3846  153.2072   24.3860 H   0  0  0  0  0  0  0  0  0  0  0  0
   52.5670  151.8290   26.7610 H   0  0  0  0  0  0  0  0  0  0  0  0
   50.3040  155.1160   30.6530 H   0  0  0  0  0  0  0  0  0  0  0  0
   53.2265  158.8782   29.2014 H   0  0  0  0  0  0  0  0  0  0  0  0
   52.4597  160.8857   30.4471 H   0  0  0  0  0  0  0  0  0  0  0  0
   50.1889  161.0969   32.8260 H   0  0  0  0  0  0  0  0  0  0  0  0
   50.7964  162.1047   31.4688 H   0  0  0  0  0  0  0  0  0  0  0  0
   49.0946  161.5297   31.4688 H   0  0  0  0  0  0  0  0  0  0  0  0
  1  2  1  0
  2  3  1  0
  3  4  2  0
  4  5  1  0
  5  6  1  0
  6  7  1  0
  7  8  1  0
  8  9  2  0
  9 10  1  0
 10 11  2  0
 11 12  1  0
 12 13  1  0
 12 14  2  0
 14 15  1  0
 15 16  2  0
 15 17  1  0
 17 18  1  0
  5 19  2  0
 19 20  1  0
 20 21  2  0
 21 22  1  0
 21  3  1  0
 17  6  2  0
 14  8  1  0
  1 23  1  0
  1 24  1  0
  1 25  1  0
  2 26  1  0
  2 27  1  0
  4 28  1  0
  9 29  1  0
 10 30  1  0
 11 31  1  0
 13 32  1  0
 18 33  1  0
 19 34  1  0
 20 35  1  0
 22 36  1  0
 22 37  1  0
 22 38  1  0
M  END
>  <meeko>  (1) 
{"is_sidechain": [false], "free_energy": -10.69, "intermolecular_energy": -12.565, "internal_energy": 0.015}

$$$$
cand_028_out
     RDKit          3D

 38 40  0  0  0  0  0  0  0  0999 V2000
   53.9210  156.4350   25.1270 C   0  0  0  0  0  0  0  0  0  0  0  0
   53.3820  155.0430   25.4190 C   0  0  0  0  0  0  0  0  0  0  0  0
   52.7510  154.9590   26.7910 C   0  0  0  0  0  0  0  0  0  0  0  0
   52.4190  156.1610   27.4470 C   0  0  0  0  0  0  0  0  0  0  0  0
   51.8490  156.1690   28.7280 C   0  0  0  0  0  0  0  0  0  0  0  0
   51.4760  157.4290   29.4060 C   0  0  0  0  0  0  0  0  0  0  0  0
   50.1600  157.4300   29.8550 O   0  0  0  0  0  0  0  0  0  0  0  0
   49.6810  158.5400   30.5030 C   0  0  0  0  0  0  0  0  0  0  0  0
   48.3500  158.5040   30.9210 C   0  0  0  0  0  0  0  0  0  0  0  0
   47.8010  159.6010   31.5900 C   0  0  0  0  0  0  0  0  0  0  0  0
   48.5810  160.7330   31.8380 C   0  0  0  0  0  0  0  0  0  0  0  0
   49.9080  160.7650   31.4190 C   0  0  0  0  0  0  0  0  0  0  0  0
   50.6160  161.9030   31.6960 O   0  0  0  0  0  0  0  0  0  0  0  0
   50.4570  159.6680   30.7500 C   0  0  0  0  0  0  0  0  0  0  0  0
   51.8490  159.6610   30.2930 C   0  0  0  0  0  0  0  0  0  0  0  0
   52.5990  160.6150   30.4810 O   0  0  0  0  0  0  0  0  0  0  0  0
   52.3300  158.4520   29.5870 C   0  0  0  0  0  0  0  0  0  0  0  0
   53.6500  158.4520   29.1710 O   0  0  0  0  0  0  0  0  0  0  0  0
   51.5980  154.9420   29.3500 C   0  0  0  0  0  0  0  0  0  0  0  0
   51.9260  153.7400   28.7160 C   0  0  0  0  0  0  0  0  0  0  0  0
   52.5120  153.7330   27.4410 C   0  0  0  0  0  0  0  0  0  0  0  0
   52.8410  152.4120   26.8010 C   0  0  0  0  0  0  0  0  0  0  0  0
   54.1228  156.9562   26.0744 H   0  0  0  0  0  0  0  0  0  0  0  0
   54.8525  156.3534   24.5477 H   0  0  0  0  0  0  0  0  0  0  0  0
   53.1774  157.0020   24.5477 H   0  0  0  0  0  0  0  0  0  0  0  0
   52.6244  154.7892   24.6630 H   0  0  0  0  0  0  0  0  0  0  0  0
   54.2253  154.3374   25.3878 H   0  0  0  0  0  0  0  0  0  0  0  0
   52.6121  157.1183   26.9408 H   0  0  0  0  0  0  0  0  0  0  0  0
   47.7344  157.6139   30.7242 H   0  0  0  0  0  0  0  0  0  0  0  0
   46.7527  159.5732   31.9220 H   0  0  0  0  0  0  0  0  0  0  0  0
   48.1476  161.5970   32.3631 H   0  0  0  0  0  0  0  0  0  0  0  0
   50.3840  162.7110   31.2800 H   0  0  0  0  0  0  0  0  0  0  0  0
   54.3390  158.5450   29.7980 H   0  0  0  0  0  0  0  0  0  0  0  0
   51.1376  154.9224   30.3488 H   0  0  0  0  0  0  0  0  0  0  0  0
   51.7218  152.7859   29.2239 H   0  0  0  0  0  0  0  0  0  0  0  0
   53.0278  151.6619   27.5836 H   0  0  0  0  0  0  0  0  0  0  0  0
   51.9964  152.0870   26.1757 H   0  0  0  0  0  0  0  0  0  0  0  0
   53.7394  152.5211   26.1757 H   0  0  0  0  0  0  0  0  0  0  0  0
  1  2  1  0
  2  3  1  0
  3  4  2  0
  4  5  1  0
  5  6  1  0
  6  7  1  0
  7  8  1  0
  8  9  2  0
  9 10  1  0
 10 11  2  0
 11 12  1  0
 12 13  1  0
 12 14  2  0
 14 15  1  0
 15 16  2  0
 15 17  1  0
 17 18  1  0
  5 19  2  0
 19 20  1  0
 20 21  2  0
 21 22  1  0
 21  3  1  0
 17  6  2  0
 14  8  1  0
  1 23  1  0
  1 24  1  0
  1 25  1  0
  2 26  1  0
  2 27  1  0
  4 28  1  0
  9 29  1  0
 10 30  1  0
 11 31  1  0
 13 32  1  0
 18 33  1  0
 19 34  1  0
 20 35  1  0
 22 36  1  0
 22 37  1  0
 22 38  1  0
M  END
>  <meeko>  (2) 
{"is_sidechain": [false], "free_energy": -10.363, "intermolecular_energy": -11.902, "internal_energy": -0.264}

$$$$
cand_028_out
     RDKit          3D

 38 40  0  0  0  0  0  0  0  0999 V2000
   52.7670  161.2290   31.6860 C   0  0  0  0  0  0  0  0  0  0  0  0
   51.8770  161.1620   30.4540 C   0  0  0  0  0  0  0  0  0  0  0  0
   51.1250  159.8520   30.3710 C   0  0  0  0  0  0  0  0  0  0  0  0
   51.7150  158.7890   29.6580 C   0  0  0  0  0  0  0  0  0  0  0  0
   51.0740  157.5500   29.5180 C   0  0  0  0  0  0  0  0  0  0  0  0
   51.7030  156.4250   28.7930 C   0  0  0  0  0  0  0  0  0  0  0  0
   52.2610  156.8110   27.5790 O   0  0  0  0  0  0  0  0  0  0  0  0
   52.8770  155.8630   26.8020 C   0  0  0  0  0  0  0  0  0  0  0  0
   53.4090  156.2910   25.5850 C   0  0  0  0  0  0  0  0  0  0  0  0
   54.0530  155.3780   24.7460 C   0  0  0  0  0  0  0  0  0  0  0  0
   54.1620  154.0370   25.1240 C   0  0  0  0  0  0  0  0  0  0  0  0
   53.6310  153.6140   26.3390 C   0  0  0  0  0  0  0  0  0  0  0  0
   53.7740  152.2890   26.6480 O   0  0  0  0  0  0  0  0  0  0  0  0
   52.9860  154.5280   27.1770 C   0  0  0  0  0  0  0  0  0  0  0  0
   52.4130  154.1240   28.4630 C   0  0  0  0  0  0  0  0  0  0  0  0
   52.4770  152.9660   28.8670 O   0  0  0  0  0  0  0  0  0  0  0  0
   51.7450  155.1690   29.2720 C   0  0  0  0  0  0  0  0  0  0  0  0
   51.2190  154.7780   30.4900 O   0  0  0  0  0  0  0  0  0  0  0  0
   49.8230  157.3780   30.1210 C   0  0  0  0  0  0  0  0  0  0  0  0
   49.2220  158.4240   30.8270 C   0  0  0  0  0  0  0  0  0  0  0  0
   49.8560  159.6680   30.9520 C   0  0  0  0  0  0  0  0  0  0  0  0
   49.1680  160.7590   31.7270 C   0  0  0  0  0  0  0  0  0  0  0  0
   52.1440  161.1821   32.5914 H   0  0  0  0  0  0  0  0  0  0  0  0
   53.4677  160.3811   31.6787 H   0  0  0  0  0  0  0  0  0  0  0  0
   53.3328  162.1723   31.6787 H   0  0  0  0  0  0  0  0  0  0  0  0
   51.1505  161.9870   30.4950 H   0  0  0  0  0  0  0  0  0  0  0  0
   52.5196  161.2428   29.5649 H   0  0  0  0  0  0  0  0  0  0  0  0
   52.7041  158.9353   29.1995 H   0  0  0  0  0  0  0  0  0  0  0  0
   53.3214  157.3461   25.2865 H   0  0  0  0  0  0  0  0  0  0  0  0
   54.4744  155.7149   23.7874 H   0  0  0  0  0  0  0  0  0  0  0  0
   54.6665  153.3172   24.4626 H   0  0  0  0  0  0  0  0  0  0  0  0
   54.2310  152.0360   27.4260 H   0  0  0  0  0  0  0  0  0  0  0  0
   50.2950  154.8210   30.6370 H   0  0  0  0  0  0  0  0  0  0  0  0
   49.3074  156.4098   30.0386 H   0  0  0  0  0  0  0  0  0  0  0  0
   48.2370  158.2687   31.2914 H   0  0  0  0  0  0  0  0  0  0  0  0
   49.2853  160.5730   32.8048 H   0  0  0  0  0  0  0  0  0  0  0  0
   49.6176  161.7298   31.4714 H   0  0  0  0  0  0  0  0  0  0  0  0
   48.0982  160.7717   31.4714 H   0  0  0  0  0  0  0  0  0  0  0  0
  1  2  1  0
  2  3  1  0
  3  4  2  0
  4  5  1  0
  5  6  1  0
  6  7  1  0
  7  8  1  0
  8  9  2  0
  9 10  1  0
 10 11  2  0
 11 12  1  0
 12 13  1  0
 12 14  2  0
 14 15  1  0
 15 16  2  0
 15 17  1  0
 17 18  1  0
  5 19  2  0
 19 20  1  0
 20 21  2  0
 21 22  1  0
 21  3  1  0
 17  6  2  0
 14  8  1  0
  1 23  1  0
  1 24  1  0
  1 25  1  0
  2 26  1  0
  2 27  1  0
  4 28  1  0
  9 29  1  0
 10 30  1  0
 11 31  1  0
 13 32  1  0
 18 33  1  0
 19 34  1  0
 20 35  1  0
 22 36  1  0
 22 37  1  0
 22 38  1  0
M  END
>  <meeko>  (3) 
{"is_sidechain": [false], "free_energy": -10.054, "intermolecular_energy": -11.687, "internal_energy": -0.115}

$$$$
cand_028_out
     RDKit          3D

 38 40  0  0  0  0  0  0  0  0999 V2000
   54.1450  156.6010   25.1150 C   0  0  0  0  0  0  0  0  0  0  0  0
   53.3990  155.2770   25.1930 C   0  0  0  0  0  0  0  0  0  0  0  0
   52.8590  155.0150   26.5810 C   0  0  0  0  0  0  0  0  0  0  0  0
   52.2860  156.0910   27.2880 C   0  0  0  0  0  0  0  0  0  0  0  0
   51.7810  155.9350   28.5860 C   0  0  0  0  0  0  0  0  0  0  0  0
   51.1560  157.0570   29.3180 C   0  0  0  0  0  0  0  0  0  0  0  0
   52.0360  158.1090   29.5480 O   0  0  0  0  0  0  0  0  0  0  0  0
   51.5860  159.2160   30.2210 C   0  0  0  0  0  0  0  0  0  0  0  0
   52.5070  160.2400   30.4430 C   0  0  0  0  0  0  0  0  0  0  0  0
   52.1130  161.3970   31.1190 C   0  0  0  0  0  0  0  0  0  0  0  0
   50.7990  161.5290   31.5740 C   0  0  0  0  0  0  0  0  0  0  0  0
   49.8830  160.5050   31.3510 C   0  0  0  0  0  0  0  0  0  0  0  0
   48.6120  160.7000   31.8220 O   0  0  0  0  0  0  0  0  0  0  0  0
   50.2780  159.3480   30.6750 C   0  0  0  0  0  0  0  0  0  0  0  0
   49.3450  158.2480   30.4190 C   0  0  0  0  0  0  0  0  0  0  0  0
   48.1720  158.2930   30.7810 O   0  0  0  0  0  0  0  0  0  0  0  0
   49.8660  157.0630   29.7010 C   0  0  0  0  0  0  0  0  0  0  0  0
   48.9730  156.0350   29.4540 O   0  0  0  0  0  0  0  0  0  0  0  0
   51.8430  154.6680   29.1740 C   0  0  0  0  0  0  0  0  0  0  0  0
   52.4130  153.5910   28.4890 C   0  0  0  0  0  0  0  0  0  0  0  0
   52.9330  153.7510   27.1970 C   0  0  0  0  0  0  0  0  0  0  0  0
   53.5310  152.5580   26.5020 C   0  0  0  0  0  0  0  0  0  0  0  0
   54.3508  156.9663   26.1319 H   0  0  0  0  0  0  0  0  0  0  0  0
   55.0942  156.4560   24.5783 H   0  0  0  0  0  0  0  0  0  0  0  0
   53.5292  157.3378   24.5783 H   0  0  0  0  0  0  0  0  0  0  0  0
   52.5591  155.2997   24.4831 H   0  0  0  0  0  0  0  0  0  0  0  0
   54.1064  154.4720   24.9448 H   0  0  0  0  0  0  0  0  0  0  0  0
   52.2337  157.0795   26.8084 H   0  0  0  0  0  0  0  0  0  0  0  0
   53.5423  160.1364   30.0861 H   0  0  0  0  0  0  0  0  0  0  0  0
   52.8384  162.2053   31.2933 H   0  0  0  0  0  0  0  0  0  0  0  0
   50.4889  162.4398   32.1072 H   0  0  0  0  0  0  0  0  0  0  0  0
   48.3900  161.5020   32.2510 H   0  0  0  0  0  0  0  0  0  0  0  0
   48.5090  156.0030   28.6410 H   0  0  0  0  0  0  0  0  0  0  0  0
   51.4391  154.5172   30.1860 H   0  0  0  0  0  0  0  0  0  0  0  0
   52.4541  152.6031   28.9710 H   0  0  0  0  0  0  0  0  0  0  0  0
   53.8914  151.8390   27.2525 H   0  0  0  0  0  0  0  0  0  0  0  0
   52.7665  152.0789   25.8727 H   0  0  0  0  0  0  0  0  0  0  0  0
   54.3723  152.8839   25.8727 H   0  0  0  0  0  0  0  0  0  0  0  0
  1  2  1  0
  2  3  1  0
  3  4  2  0
  4  5  1  0
  5  6  1  0
  6  7  1  0
  7  8  1  0
  8  9  2  0
  9 10  1  0
 10 11  2  0
 11 12  1  0
 12 13  1  0
 12 14  2  0
 14 15  1  0
 15 16  2  0
 15 17  1  0
 17 18  1  0
  5 19  2  0
 19 20  1  0
 20 21  2  0
 21 22  1  0
 21  3  1  0
 17  6  2  0
 14  8  1  0
  1 23  1  0
  1 24  1  0
  1 25  1  0
  2 26  1  0
  2 27  1  0
  4 28  1  0
  9 29  1  0
 10 30  1  0
 11 31  1  0
 13 32  1  0
 18 33  1  0
 19 34  1  0
 20 35  1  0
 22 36  1  0
 22 37  1  0
 22 38  1  0
M  END
>  <meeko>  (4) 
{"is_sidechain": [false], "free_energy": -9.001, "intermolecular_energy": -10.233, "internal_energy": -0.332}

$$$$
cand_028_out
     RDKit          3D

 38 40  0  0  0  0  0  0  0  0999 V2000
   51.5460  152.4320   27.7480 C   0  0  0  0  0  0  0  0  0  0  0  0
   52.0610  153.3360   28.8590 C   0  0  0  0  0  0  0  0  0  0  0  0
   52.2530  154.7590   28.3860 C   0  0  0  0  0  0  0  0  0  0  0  0
   51.7610  155.8030   29.1950 C   0  0  0  0  0  0  0  0  0  0  0  0
   51.8820  157.1480   28.8180 C   0  0  0  0  0  0  0  0  0  0  0  0
   51.3900  158.2450   29.6770 C   0  0  0  0  0  0  0  0  0  0  0  0
   50.0530  158.0960   30.0310 O   0  0  0  0  0  0  0  0  0  0  0  0
   49.4680  159.0470   30.8280 C   0  0  0  0  0  0  0  0  0  0  0  0
   48.1220  158.8650   31.1460 C   0  0  0  0  0  0  0  0  0  0  0  0
   47.4650  159.7950   31.9550 C   0  0  0  0  0  0  0  0  0  0  0  0
   48.1540  160.9060   32.4460 C   0  0  0  0  0  0  0  0  0  0  0  0
   49.4980  161.0840   32.1280 C   0  0  0  0  0  0  0  0  0  0  0  0
   50.1130  162.1930   32.6420 O   0  0  0  0  0  0  0  0  0  0  0  0
   50.1540  160.1540   31.3170 C   0  0  0  0  0  0  0  0  0  0  0  0
   51.5660  160.3040   30.9580 C   0  0  0  0  0  0  0  0  0  0  0  0
   52.2410  161.2500   31.3570 O   0  0  0  0  0  0  0  0  0  0  0  0
   52.1640  159.2660   30.0880 C   0  0  0  0  0  0  0  0  0  0  0  0
   53.5020  159.4120   29.7660 O   0  0  0  0  0  0  0  0  0  0  0  0
   52.5230  157.4430   27.6100 C   0  0  0  0  0  0  0  0  0  0  0  0
   53.0120  156.4190   26.7930 C   0  0  0  0  0  0  0  0  0  0  0  0
   52.8750  155.0730   27.1630 C   0  0  0  0  0  0  0  0  0  0  0  0
   53.4240  154.0110   26.2500 C   0  0  0  0  0  0  0  0  0  0  0  0
   51.0472  151.5565   28.1893 H   0  0  0  0  0  0  0  0  0  0  0  0
   50.8289  152.9877   27.1259 H   0  0  0  0  0  0  0  0  0  0  0  0
   52.3897  152.0985   27.1259 H   0  0  0  0  0  0  0  0  0  0  0  0
   51.3358  153.3312   29.6860 H   0  0  0  0  0  0  0  0  0  0  0  0
   53.0383  152.9510   29.1856 H   0  0  0  0  0  0  0  0  0  0  0  0
   51.2691  155.5560   30.1474 H   0  0  0  0  0  0  0  0  0  0  0  0
   47.5786  157.9900   30.7600 H   0  0  0  0  0  0  0  0  0  0  0  0
   46.4035  159.6521   32.2057 H   0  0  0  0  0  0  0  0  0  0  0  0
   47.6363  161.6388   33.0824 H   0  0  0  0  0  0  0  0  0  0  0  0
   50.2450  162.2680   33.5670 H   0  0  0  0  0  0  0  0  0  0  0  0
   54.1160  159.6760   30.4220 H   0  0  0  0  0  0  0  0  0  0  0  0
   52.6436  158.4914   27.2997 H   0  0  0  0  0  0  0  0  0  0  0  0
   53.5114  156.6727   25.8463 H   0  0  0  0  0  0  0  0  0  0  0  0
   53.8469  153.1930   26.8517 H   0  0  0  0  0  0  0  0  0  0  0  0
   52.6154  153.6193   25.6153 H   0  0  0  0  0  0  0  0  0  0  0  0
   54.2111  154.4442   25.6153 H   0  0  0  0  0  0  0  0  0  0  0  0
  1  2  1  0
  2  3  1  0
  3  4  2  0
  4  5  1  0
  5  6  1  0
  6  7  1  0
  7  8  1  0
  8  9  2  0
  9 10  1  0
 10 11  2  0
 11 12  1  0
 12 13  1  0
 12 14  2  0
 14 15  1  0
 15 16  2  0
 15 17  1  0
 17 18  1  0
  5 19  2  0
 19 20  1  0
 20 21  2  0
 21 22  1  0
 21  3  1  0
 17  6  2  0
 14  8  1  0
  1 23  1  0
  1 24  1  0
  1 25  1  0
  2 26  1  0
  2 27  1  0
  4 28  1  0
  9 29  1  0
 10 30  1  0
 11 31  1  0
 13 32  1  0
 18 33  1  0
 19 34  1  0
 20 35  1  0
 22 36  1  0
 22 37  1  0
 22 38  1  0
M  END
>  <meeko>  (5) 
{"is_sidechain": [false], "free_energy": -8.434, "intermolecular_energy": -10.408, "internal_energy": 0.51}

$$$$
cand_028_out
     RDKit          3D

 38 40  0  0  0  0  0  0  0  0999 V2000
   50.7780  160.4540   29.9390 C   0  0  0  0  0  0  0  0  0  0  0  0
   51.8070  159.3460   30.1100 C   0  0  0  0  0  0  0  0  0  0  0  0
   51.2580  157.9970   29.7050 C   0  0  0  0  0  0  0  0  0  0  0  0
   51.9850  157.2350   28.7690 C   0  0  0  0  0  0  0  0  0  0  0  0
   51.5330  155.9840   28.3260 C   0  0  0  0  0  0  0  0  0  0  0  0
   52.3080  155.1710   27.3640 C   0  0  0  0  0  0  0  0  0  0  0  0
   51.9900  153.8190   27.4220 O   0  0  0  0  0  0  0  0  0  0  0  0
   52.6380  152.9490   26.5820 C   0  0  0  0  0  0  0  0  0  0  0  0
   52.2990  151.5990   26.6840 C   0  0  0  0  0  0  0  0  0  0  0  0
   52.9190  150.6600   25.8570 C   0  0  0  0  0  0  0  0  0  0  0  0
   53.8780  151.0710   24.9280 C   0  0  0  0  0  0  0  0  0  0  0  0
   54.2130  152.4180   24.8280 C   0  0  0  0  0  0  0  0  0  0  0  0
   55.1590  152.7520   23.8960 O   0  0  0  0  0  0  0  0  0  0  0  0
   53.5930  153.3570   25.6570 C   0  0  0  0  0  0  0  0  0  0  0  0
   53.9170  154.7840   25.5840 C   0  0  0  0  0  0  0  0  0  0  0  0
   54.7440  155.2230   24.7880 O   0  0  0  0  0  0  0  0  0  0  0  0
   53.2090  155.6940   26.5120 C   0  0  0  0  0  0  0  0  0  0  0  0
   53.5140  157.0400   26.4250 O   0  0  0  0  0  0  0  0  0  0  0  0
   50.3340  155.4890   28.8480 C   0  0  0  0  0  0  0  0  0  0  0  0
   49.5970  156.2350   29.7730 C   0  0  0  0  0  0  0  0  0  0  0  0
   50.0410  157.4940   30.2020 C   0  0  0  0  0  0  0  0  0  0  0  0
   49.2130  158.2530   31.2030 C   0  0  0  0  0  0  0  0  0  0  0  0
   50.4508  160.8064   30.9283 H   0  0  0  0  0  0  0  0  0  0  0  0
   51.2278  161.2895   29.3825 H   0  0  0  0  0  0  0  0  0  0  0  0
   49.9116  160.0671   29.3825 H   0  0  0  0  0  0  0  0  0  0  0  0
   52.6830  159.5752   29.4854 H   0  0  0  0  0  0  0  0  0  0  0  0
   52.0798  159.2965   31.1745 H   0  0  0  0  0  0  0  0  0  0  0  0
   52.9323  157.6322   28.3754 H   0  0  0  0  0  0  0  0  0  0  0  0
   51.5440  151.2749   27.4153 H   0  0  0  0  0  0  0  0  0  0  0  0
   52.6521  149.5959   25.9371 H   0  0  0  0  0  0  0  0  0  0  0  0
   54.3672  150.3315   24.2770 H   0  0  0  0  0  0  0  0  0  0  0  0
   55.1990  153.6270   23.5630 H   0  0  0  0  0  0  0  0  0  0  0  0
   54.4050  157.3240   26.4840 H   0  0  0  0  0  0  0  0  0  0  0  0
   49.9668  154.5028   28.5278 H   0  0  0  0  0  0  0  0  0  0  0  0
   48.6552  155.8283   30.1699 H   0  0  0  0  0  0  0  0  0  0  0  0
   49.5198  157.9717   32.2212 H   0  0  0  0  0  0  0  0  0  0  0  0
   49.3638  159.3332   31.0598 H   0  0  0  0  0  0  0  0  0  0  0  0
   48.1500  158.0090   31.0598 H   0  0  0  0  0  0  0  0  0  0  0  0
  1  2  1  0
  2  3  1  0
  3  4  2  0
  4  5  1  0
  5  6  1  0
  6  7  1  0
  7  8  1  0
  8  9  2  0
  9 10  1  0
 10 11  2  0
 11 12  1  0
 12 13  1  0
 12 14  2  0
 14 15  1  0
 15 16  2  0
 15 17  1  0
 17 18  1  0
  5 19  2  0
 19 20  1  0
 20 21  2  0
 21 22  1  0
 21  3  1  0
 17  6  2  0
 14  8  1  0
  1 23  1  0
  1 24  1  0
  1 25  1  0
  2 26  1  0
  2 27  1  0
  4 28  1  0
  9 29  1  0
 10 30  1  0
 11 31  1  0
 13 32  1  0
 18 33  1  0
 19 34  1  0
 20 35  1  0
 22 36  1  0
 22 37  1  0
 22 38  1  0
M  END
>  <meeko>  (6) 
{"is_sidechain": [false], "free_energy": -8.31, "intermolecular_energy": -10.399, "internal_energy": 0.647}

$$$$
cand_028_out
     RDKit          3D

 38 40  0  0  0  0  0  0  0  0999 V2000
   51.7390  152.1560   27.1010 C   0  0  0  0  0  0  0  0  0  0  0  0
   52.1940  152.9470   28.3190 C   0  0  0  0  0  0  0  0  0  0  0  0
   52.3490  154.4190   28.0100 C   0  0  0  0  0  0  0  0  0  0  0  0
   51.7010  155.3490   28.8480 C   0  0  0  0  0  0  0  0  0  0  0  0
   51.7790  156.7290   28.6180 C   0  0  0  0  0  0  0  0  0  0  0  0
   51.1220  157.7060   29.5120 C   0  0  0  0  0  0  0  0  0  0  0  0
   51.9250  158.8070   29.7920 O   0  0  0  0  0  0  0  0  0  0  0  0
   51.4380  159.7920   30.6120 C   0  0  0  0  0  0  0  0  0  0  0  0
   52.2830  160.8700   30.8780 C   0  0  0  0  0  0  0  0  0  0  0  0
   51.8480  161.9090   31.7040 C   0  0  0  0  0  0  0  0  0  0  0  0
   50.5690  161.8700   32.2640 C   0  0  0  0  0  0  0  0  0  0  0  0
   49.7280  160.7930   31.9960 C   0  0  0  0  0  0  0  0  0  0  0  0
   48.4880  160.8190   32.5750 O   0  0  0  0  0  0  0  0  0  0  0  0
   50.1640  159.7530   31.1700 C   0  0  0  0  0  0  0  0  0  0  0  0
   49.3110  158.6030   30.8640 C   0  0  0  0  0  0  0  0  0  0  0  0
   48.1720  158.5010   31.3120 O   0  0  0  0  0  0  0  0  0  0  0  0
   49.8710  157.5520   29.9840 C   0  0  0  0  0  0  0  0  0  0  0  0
   49.0520  156.4760   29.6910 O   0  0  0  0  0  0  0  0  0  0  0  0
   52.5350  157.1790   27.5310 C   0  0  0  0  0  0  0  0  0  0  0  0
   53.1790  156.2710   26.6860 C   0  0  0  0  0  0  0  0  0  0  0  0
   53.0870  154.8890   26.9060 C   0  0  0  0  0  0  0  0  0  0  0  0
   53.8040  153.9550   25.9700 C   0  0  0  0  0  0  0  0  0  0  0  0
   51.2155  151.2460   27.4294 H   0  0  0  0  0  0  0  0  0  0  0  0
   51.0578  152.7730   26.4966 H   0  0  0  0  0  0  0  0  0  0  0  0
   52.6148  151.8773   26.4966 H   0  0  0  0  0  0  0  0  0  0  0  0
   51.4484  152.8282   29.1190 H   0  0  0  0  0  0  0  0  0  0  0  0
   53.1751  152.5590   28.6303 H   0  0  0  0  0  0  0  0  0  0  0  0
   51.1184  154.9815   29.7056 H   0  0  0  0  0  0  0  0  0  0  0  0
   53.2906  160.9016   30.4377 H   0  0  0  0  0  0  0  0  0  0  0  0
   52.5137  162.7592   31.9138 H   0  0  0  0  0  0  0  0  0  0  0  0
   50.2270  162.6880   32.9151 H   0  0  0  0  0  0  0  0  0  0  0  0
   48.0630  161.6380   32.7360 H   0  0  0  0  0  0  0  0  0  0  0  0
   49.4280  155.6460   29.4730 H   0  0  0  0  0  0  0  0  0  0  0  0
   52.6237  158.2585   27.3391 H   0  0  0  0  0  0  0  0  0  0  0  0
   53.7670  156.6460   25.8354 H   0  0  0  0  0  0  0  0  0  0  0  0
   54.3717  153.2154   26.5537 H   0  0  0  0  0  0  0  0  0  0  0  0
   53.0699  153.4364   25.3359 H   0  0  0  0  0  0  0  0  0  0  0  0
   54.4947  154.5302   25.3359 H   0  0  0  0  0  0  0  0  0  0  0  0
  1  2  1  0
  2  3  1  0
  3  4  2  0
  4  5  1  0
  5  6  1  0
  6  7  1  0
  7  8  1  0
  8  9  2  0
  9 10  1  0
 10 11  2  0
 11 12  1  0
 12 13  1  0
 12 14  2  0
 14 15  1  0
 15 16  2  0
 15 17  1  0
 17 18  1  0
  5 19  2  0
 19 20  1  0
 20 21  2  0
 21 22  1  0
 21  3  1  0
 17  6  2  0
 14  8  1  0
  1 23  1  0
  1 24  1  0
  1 25  1  0
  2 26  1  0
  2 27  1  0
  4 28  1  0
  9 29  1  0
 10 30  1  0
 11 31  1  0
 13 32  1  0
 18 33  1  0
 19 34  1  0
 20 35  1  0
 22 36  1  0
 22 37  1  0
 22 38  1  0
M  END
>  <meeko>  (7) 
{"is_sidechain": [false], "free_energy": -7.74, "intermolecular_energy": -9.537, "internal_energy": 0.454}

$$$$
