cand_045_out
     RDKit          3D

 35 37  0  0  0  0  0  0  0  0999 V2000
   49.3780  160.9310   31.6850 C   0  0  0  0  0  0  0  0  0  0  0  0
   50.0000  159.7750   30.9510 C   0  0  0  0  0  0  0  0  0  0  0  0
   49.2550  158.6030   30.7620 C   0  0  0  0  0  0  0  0  0  0  0  0
   49.7990  157.5070   30.0850 C   0  0  0  0  0  0  0  0  0  0  0  0
   51.1050  157.5520   29.5860 C   0  0  0  0  0  0  0  0  0  0  0  0
   51.6960  156.4170   28.8440 C   0  0  0  0  0  0  0  0  0  0  0  0
   52.2640  156.7990   27.6340 O   0  0  0  0  0  0  0  0  0  0  0  0
   52.8540  155.8450   26.8460 C   0  0  0  0  0  0  0  0  0  0  0  0
   53.4030  156.2730   25.6370 C   0  0  0  0  0  0  0  0  0  0  0  0
   54.0200  155.3520   24.7870 C   0  0  0  0  0  0  0  0  0  0  0  0
   54.0870  154.0040   25.1460 C   0  0  0  0  0  0  0  0  0  0  0  0
   53.5380  153.5800   26.3550 C   0  0  0  0  0  0  0  0  0  0  0  0
   53.6390  152.2470   26.6450 O   0  0  0  0  0  0  0  0  0  0  0  0
   52.9210  154.5020   27.2040 C   0  0  0  0  0  0  0  0  0  0  0  0
   52.3330  154.0990   28.4820 C   0  0  0  0  0  0  0  0  0  0  0  0
   52.3570  152.9330   28.8710 O   0  0  0  0  0  0  0  0  0  0  0  0
   51.6990  155.1530   29.3070 C   0  0  0  0  0  0  0  0  0  0  0  0
   51.1610  154.7630   30.5200 O   0  0  0  0  0  0  0  0  0  0  0  0
   51.8460  158.7300   29.7660 C   0  0  0  0  0  0  0  0  0  0  0  0
   51.3130  159.8430   30.4430 C   0  0  0  0  0  0  0  0  0  0  0  0
   52.1610  161.0790   30.6130 C   0  0  0  0  0  0  0  0  0  0  0  0
   52.6710  161.2240   31.8700 F   0  0  0  0  0  0  0  0  0  0  0  0
   49.4662  160.7671   32.7691 H   0  0  0  0  0  0  0  0  0  0  0  0
   49.8974  161.8613   31.4113 H   0  0  0  0  0  0  0  0  0  0  0  0
   48.3155  161.0101   31.4113 H   0  0  0  0  0  0  0  0  0  0  0  0
   48.2280  158.5445   31.1517 H   0  0  0  0  0  0  0  0  0  0  0  0
   49.1934  156.5997   29.9433 H   0  0  0  0  0  0  0  0  0  0  0  0
   53.3501  157.3345   25.3534 H   0  0  0  0  0  0  0  0  0  0  0  0
   54.4536  155.6889   23.8338 H   0  0  0  0  0  0  0  0  0  0  0  0
   54.5719  153.2786   24.4762 H   0  0  0  0  0  0  0  0  0  0  0  0
   52.9640  151.6570   26.3740 H   0  0  0  0  0  0  0  0  0  0  0  0
   50.7930  155.4040   31.0970 H   0  0  0  0  0  0  0  0  0  0  0  0
   52.8699  158.7850   29.3677 H   0  0  0  0  0  0  0  0  0  0  0  0
   52.9987  161.0262   29.9020 H   0  0  0  0  0  0  0  0  0  0  0  0
   51.5086  161.9451   30.4282 H   0  0  0  0  0  0  0  0  0  0  0  0
  1  2  1  0
  2  3  2  0
  3  4  1  0
  4  5  2  0
  5  6  1  0
  6  7  1  0
  7  8  1  0
  8  9  2  0
  9 10  1  0
 10 11  2  0
 11 12  1  0
 12 13  1  0
 12 14  2  0
 14 15  1  0
 15 16  2  0
 15 17  1  0
 17 18  1  0
  5 19  1  0
 19 20  2  0
 20 21  1  0
 21 22  1  0
 20  2  1  0
 17  6  2  0
 14  8  1  0
  1 23  1  0
  1 24  1  0
  1 25  1  0
  3 26  1  0
  4 27  1  0
  9 28  1  0
 10 29  1  0
 11 30  1  0
 13 31  1  0
 18 32  1  0
 19 33  1  0
 21 34  1  0
 21 35  1  0
M  END
>  <meeko>  (1) 
{"is_sidechain": [false], "free_energy": -10.401, "intermolecular_energy": -12.226, "internal_energy": -0.221}

$$$$
cand_045_out
     RDKit          3D

 35 37  0  0  0  0  0  0  0  0999 V2000
   50.0520  161.2310   31.7390 C   0  0  0  0  0  0  0  0  0  0  0  0
   50.5050  160.0170   30.9730 C   0  0  0  0  0  0  0  0  0  0  0  0
   51.7910  160.0000   30.4150 C   0  0  0  0  0  0  0  0  0  0  0  0
   52.2460  158.8900   29.6960 C   0  0  0  0  0  0  0  0  0  0  0  0
   51.4260  157.7730   29.5110 C   0  0  0  0  0  0  0  0  0  0  0  0
   51.8920  156.5760   28.7770 C   0  0  0  0  0  0  0  0  0  0  0  0
   52.4860  156.8870   27.5590 O   0  0  0  0  0  0  0  0  0  0  0  0
   52.9690  155.8700   26.7770 C   0  0  0  0  0  0  0  0  0  0  0  0
   53.5490  156.2270   25.5600 C   0  0  0  0  0  0  0  0  0  0  0  0
   54.0620  155.2400   24.7150 C   0  0  0  0  0  0  0  0  0  0  0  0
   53.9940  153.8960   25.0880 C   0  0  0  0  0  0  0  0  0  0  0  0
   53.4140  153.5420   26.3050 C   0  0  0  0  0  0  0  0  0  0  0  0
   53.3810  152.2090   26.6080 O   0  0  0  0  0  0  0  0  0  0  0  0
   52.9020  154.5310   27.1490 C   0  0  0  0  0  0  0  0  0  0  0  0
   52.2860  154.2020   28.4350 C   0  0  0  0  0  0  0  0  0  0  0  0
   52.1940  153.0440   28.8360 O   0  0  0  0  0  0  0  0  0  0  0  0
   51.7700  155.3240   29.2540 C   0  0  0  0  0  0  0  0  0  0  0  0
   51.2040  155.0020   30.4740 O   0  0  0  0  0  0  0  0  0  0  0  0
   50.1430  157.7870   30.0790 C   0  0  0  0  0  0  0  0  0  0  0  0
   49.6690  158.8950   30.8080 C   0  0  0  0  0  0  0  0  0  0  0  0
   48.2770  158.8560   31.3880 C   0  0  0  0  0  0  0  0  0  0  0  0
   47.3050  159.2300   30.5070 F   0  0  0  0  0  0  0  0  0  0  0  0
   50.1262  161.0323   32.8184 H   0  0  0  0  0  0  0  0  0  0  0  0
   50.6909  162.0879   31.4792 H   0  0  0  0  0  0  0  0  0  0  0  0
   49.0079  161.4600   31.4792 H   0  0  0  0  0  0  0  0  0  0  0  0
   52.4506  160.8708   30.5443 H   0  0  0  0  0  0  0  0  0  0  0  0
   53.2607  158.8960   29.2712 H   0  0  0  0  0  0  0  0  0  0  0  0
   53.6025  157.2855   25.2656 H   0  0  0  0  0  0  0  0  0  0  0  0
   54.5198  155.5216   23.7553 H   0  0  0  0  0  0  0  0  0  0  0  0
   54.3973  153.1183   24.4228 H   0  0  0  0  0  0  0  0  0  0  0  0
   53.2480  151.5770   25.9290 H   0  0  0  0  0  0  0  0  0  0  0  0
   50.4310  155.4450   30.7630 H   0  0  0  0  0  0  0  0  0  0  0  0
   49.4908  156.9104   29.9517 H   0  0  0  0  0  0  0  0  0  0  0  0
   48.0679  157.8284   31.7201 H   0  0  0  0  0  0  0  0  0  0  0  0
   48.2541  159.5782   32.2174 H   0  0  0  0  0  0  0  0  0  0  0  0
  1  2  1  0
  2  3  2  0
  3  4  1  0
  4  5  2  0
  5  6  1  0
  6  7  1  0
  7  8  1  0
  8  9  2  0
  9 10  1  0
 10 11  2  0
 11 12  1  0
 12 13  1  0
 12 14  2  0
 14 15  1  0
 15 16  2  0
 15 17  1  0
 17 18  1  0
  5 19  1  0
 19 20  2  0
 20 21  1  0
 21 22  1  0
 20  2  1  0
 17  6  2  0
 14  8  1  0
  1 23  1  0
  1 24  1  0
  1 25  1  0
  3 26  1  0
  4 27  1  0
  9 28  1  0
 10 29  1  0
 11 30  1  0
 13 31  1  0
 18 32  1  0
 19 33  1  0
 21 34  1  0
 21 35  1  0
M  END
>  <meeko>  (2) 
{"is_sidechain": [false], "free_energy": -10.295, "intermolecular_energy": -12.187, "internal_energy": -0.135}

$$$$
cand_045_out
     RDKit          3D

 35 37  0  0  0  0  0  0  0  0999 V2000
   53.0320  152.5480   26.7150 C   0  0  0  0  0  0  0  0  0  0  0  0
   52.6360  153.8340   27.3880 C   0  0  0  0  0  0  0  0  0  0  0  0
   51.9600  153.7840   28.6160 C   0  0  0  0  0  0  0  0  0  0  0  0
   51.5760  154.9580   29.2720 C   0  0  0  0  0  0  0  0  0  0  0  0
   51.8490  156.2110   28.7140 C   0  0  0  0  0  0  0  0  0  0  0  0
   51.4760  157.4670   29.3980 C   0  0  0  0  0  0  0  0  0  0  0  0
   50.1550  157.4750   29.8320 O   0  0  0  0  0  0  0  0  0  0  0  0
   49.6780  158.5790   30.4900 C   0  0  0  0  0  0  0  0  0  0  0  0
   48.3450  158.5460   30.8990 C   0  0  0  0  0  0  0  0  0  0  0  0
   47.7960  159.6380   31.5740 C   0  0  0  0  0  0  0  0  0  0  0  0
   48.5790  160.7630   31.8390 C   0  0  0  0  0  0  0  0  0  0  0  0
   49.9100  160.7930   31.4290 C   0  0  0  0  0  0  0  0  0  0  0  0
   50.6210  161.9250   31.7220 O   0  0  0  0  0  0  0  0  0  0  0  0
   50.4590  159.7000   30.7540 C   0  0  0  0  0  0  0  0  0  0  0  0
   51.8520  159.6900   30.3070 C   0  0  0  0  0  0  0  0  0  0  0  0
   52.6070  160.6400   30.5080 O   0  0  0  0  0  0  0  0  0  0  0  0
   52.3360  158.4840   29.5960 C   0  0  0  0  0  0  0  0  0  0  0  0
   53.6590  158.4800   29.1930 O   0  0  0  0  0  0  0  0  0  0  0  0
   52.5350  156.2590   27.4900 C   0  0  0  0  0  0  0  0  0  0  0  0
   52.9320  155.0880   26.8180 C   0  0  0  0  0  0  0  0  0  0  0  0
   53.6590  155.2030   25.5010 C   0  0  0  0  0  0  0  0  0  0  0  0
   53.4070  156.3680   24.8370 F   0  0  0  0  0  0  0  0  0  0  0  0
   53.2650  151.7912   27.4785 H   0  0  0  0  0  0  0  0  0  0  0  0
   52.2019  152.1920   26.0872 H   0  0  0  0  0  0  0  0  0  0  0  0
   53.9186  152.7206   26.0872 H   0  0  0  0  0  0  0  0  0  0  0  0
   51.7288  152.8086   29.0690 H   0  0  0  0  0  0  0  0  0  0  0  0
   51.0533  154.8951   30.2378 H   0  0  0  0  0  0  0  0  0  0  0  0
   47.7268  157.6605   30.6900 H   0  0  0  0  0  0  0  0  0  0  0  0
   46.7450  159.6118   31.8975 H   0  0  0  0  0  0  0  0  0  0  0  0
   48.1461  161.6235   32.3702 H   0  0  0  0  0  0  0  0  0  0  0  0
   50.1710  162.7190   31.9310 H   0  0  0  0  0  0  0  0  0  0  0  0
   54.2120  159.2090   29.3940 H   0  0  0  0  0  0  0  0  0  0  0  0
   52.7682  157.2374   27.0447 H   0  0  0  0  0  0  0  0  0  0  0  0
   54.7401  155.1398   25.6941 H   0  0  0  0  0  0  0  0  0  0  0  0
   53.2991  154.3834   24.8617 H   0  0  0  0  0  0  0  0  0  0  0  0
  1  2  1  0
  2  3  2  0
  3  4  1  0
  4  5  2  0
  5  6  1  0
  6  7  1  0
  7  8  1  0
  8  9  2  0
  9 10  1  0
 10 11  2  0
 11 12  1  0
 12 13  1  0
 12 14  2  0
 14 15  1  0
 15 16  2  0
 15 17  1  0
 17 18  1  0
  5 19  1  0
 19 20  2  0
 20 21  1  0
 21 22  1  0
 20  2  1  0
 17  6  2  0
 14  8  1  0
  1 23  1  0
  1 24  1  0
  1 25  1  0
  3 26  1  0
  4 27  1  0
  9 28  1  0
 10 29  1  0
 11 30  1  0
 13 31  1  0
 18 32  1  0
 19 33  1  0
 21 34  1  0
 21 35  1  0
M  END
>  <meeko>  (3) 
{"is_sidechain": [false], "free_energy": -9.875, "intermolecular_energy": -11.718, "internal_energy": -0.11}

$$$$
cand_045_out
     RDKit          3D

 35 37  0  0  0  0  0  0  0  0999 V2000
   53.5550  152.9220   26.5470 C   0  0  0  0  0  0  0  0  0  0  0  0
   52.9150  154.0650   27.2850 C   0  0  0  0  0  0  0  0  0  0  0  0
   52.2210  153.8090   28.4760 C   0  0  0  0  0  0  0  0  0  0  0  0
   51.6130  154.8460   29.1900 C   0  0  0  0  0  0  0  0  0  0  0  0
   51.6770  156.1650   28.7280 C   0  0  0  0  0  0  0  0  0  0  0  0
   51.0640  157.2840   29.4770 C   0  0  0  0  0  0  0  0  0  0  0  0
   51.9580  158.3180   29.7280 O   0  0  0  0  0  0  0  0  0  0  0  0
   51.5190  159.4240   30.4100 C   0  0  0  0  0  0  0  0  0  0  0  0
   52.4520  160.4340   30.6470 C   0  0  0  0  0  0  0  0  0  0  0  0
   52.0710  161.5870   31.3360 C   0  0  0  0  0  0  0  0  0  0  0  0
   50.7570  161.7300   31.7890 C   0  0  0  0  0  0  0  0  0  0  0  0
   49.8280  160.7200   31.5500 C   0  0  0  0  0  0  0  0  0  0  0  0
   48.5590  160.9250   32.0190 O   0  0  0  0  0  0  0  0  0  0  0  0
   50.2100  159.5670   30.8600 C   0  0  0  0  0  0  0  0  0  0  0  0
   49.2660  158.4830   30.5880 C   0  0  0  0  0  0  0  0  0  0  0  0
   48.0910  158.5370   30.9480 O   0  0  0  0  0  0  0  0  0  0  0  0
   49.7720  157.3010   29.8530 C   0  0  0  0  0  0  0  0  0  0  0  0
   48.8660  156.2900   29.5880 O   0  0  0  0  0  0  0  0  0  0  0  0
   52.3810  156.4220   27.5420 C   0  0  0  0  0  0  0  0  0  0  0  0
   53.0010  155.3900   26.8120 C   0  0  0  0  0  0  0  0  0  0  0  0
   53.7370  155.7260   25.5390 C   0  0  0  0  0  0  0  0  0  0  0  0
   53.1220  156.6830   24.7870 F   0  0  0  0  0  0  0  0  0  0  0  0
   53.9598  152.1991   27.2706 H   0  0  0  0  0  0  0  0  0  0  0  0
   52.8031  152.4265   25.9152 H   0  0  0  0  0  0  0  0  0  0  0  0
   54.3704  153.3041   25.9152 H   0  0  0  0  0  0  0  0  0  0  0  0
   52.1539  152.7781   28.8539 H   0  0  0  0  0  0  0  0  0  0  0  0
   51.0786  154.6224   30.1251 H   0  0  0  0  0  0  0  0  0  0  0  0
   53.4869  160.3220   30.2913 H   0  0  0  0  0  0  0  0  0  0  0  0
   52.8061  162.3838   31.5224 H   0  0  0  0  0  0  0  0  0  0  0  0
   50.4569  162.6378   32.3329 H   0  0  0  0  0  0  0  0  0  0  0  0
   48.3290  160.6460   32.8840 H   0  0  0  0  0  0  0  0  0  0  0  0
   48.0300  156.4960   29.2210 H   0  0  0  0  0  0  0  0  0  0  0  0
   52.4503  157.4560   27.1731 H   0  0  0  0  0  0  0  0  0  0  0  0
   54.7425  156.0851   25.8035 H   0  0  0  0  0  0  0  0  0  0  0  0
   53.7653  154.8090   24.9322 H   0  0  0  0  0  0  0  0  0  0  0  0
  1  2  1  0
  2  3  2  0
  3  4  1  0
  4  5  2  0
  5  6  1  0
  6  7  1  0
  7  8  1  0
  8  9  2  0
  9 10  1  0
 10 11  2  0
 11 12  1  0
 12 13  1  0
 12 14  2  0
 14 15  1  0
 15 16  2  0
 15 17  1  0
 17 18  1  0
  5 19  1  0
 19 20  2  0
 20 21  1  0
 21 22  1  0
 20  2  1  0
 17  6  2  0
 14  8  1  0
  1 23  1  0
  1 24  1  0
  1 25  1  0
  3 26  1  0
  4 27  1  0
  9 28  1  0
 10 29  1  0
 11 30  1  0
 13 31  1  0
 18 32  1  0
 19 33  1  0
 21 34  1  0
 21 35  1  0
M  END
>  <meeko>  (4) 
{"is_sidechain": [false], "free_energy": -8.923, "intermolecular_energy": -10.482, "internal_energy": -0.227}

$$$$
cand_045_out
     RDKit          3D

 35 37  0  0  0  0  0  0  0  0999 V2000
   53.2350  153.7930   26.4700 C   0  0  0  0  0  0  0  0  0  0  0  0
   52.7610  154.9300   27.3330 C   0  0  0  0  0  0  0  0  0  0  0  0
   52.9560  156.2480   26.8990 C   0  0  0  0  0  0  0  0  0  0  0  0
   52.5290  157.3310   27.6740 C   0  0  0  0  0  0  0  0  0  0  0  0
   51.9030  157.1230   28.9080 C   0  0  0  0  0  0  0  0  0  0  0  0
   51.4190  158.2490   29.7350 C   0  0  0  0  0  0  0  0  0  0  0  0
   50.0860  158.1140   30.1040 O   0  0  0  0  0  0  0  0  0  0  0  0
   49.5100  159.0870   30.8800 C   0  0  0  0  0  0  0  0  0  0  0  0
   48.1670  158.9150   31.2180 C   0  0  0  0  0  0  0  0  0  0  0  0
   47.5190  159.8680   32.0070 C   0  0  0  0  0  0  0  0  0  0  0  0
   48.2140  160.9930   32.4560 C   0  0  0  0  0  0  0  0  0  0  0  0
   49.5540  161.1620   32.1160 C   0  0  0  0  0  0  0  0  0  0  0  0
   50.1750  162.2860   32.5900 O   0  0  0  0  0  0  0  0  0  0  0  0
   50.2020  160.2080   31.3280 C   0  0  0  0  0  0  0  0  0  0  0  0
   51.6080  160.3460   30.9490 C   0  0  0  0  0  0  0  0  0  0  0  0
   52.2880  161.3050   31.3110 O   0  0  0  0  0  0  0  0  0  0  0  0
   52.1990  159.2810   30.1070 C   0  0  0  0  0  0  0  0  0  0  0  0
   53.5340  159.4150   29.7690 O   0  0  0  0  0  0  0  0  0  0  0  0
   51.6980  155.8030   29.3360 C   0  0  0  0  0  0  0  0  0  0  0  0
   52.1190  154.7020   28.5670 C   0  0  0  0  0  0  0  0  0  0  0  0
   51.8790  153.3050   29.0840 C   0  0  0  0  0  0  0  0  0  0  0  0
   51.4300  152.4380   28.1310 F   0  0  0  0  0  0  0  0  0  0  0  0
   53.5795  152.9666   27.1090 H   0  0  0  0  0  0  0  0  0  0  0  0
   52.4071  153.4448   25.8349 H   0  0  0  0  0  0  0  0  0  0  0  0
   54.0651  154.1360   25.8349 H   0  0  0  0  0  0  0  0  0  0  0  0
   53.4521  156.4335   25.9349 H   0  0  0  0  0  0  0  0  0  0  0  0
   52.6869  158.3569   27.3097 H   0  0  0  0  0  0  0  0  0  0  0  0
   47.6192  158.0295   30.8633 H   0  0  0  0  0  0  0  0  0  0  0  0
   46.4608  159.7324   32.2749 H   0  0  0  0  0  0  0  0  0  0  0  0
   47.7041  161.7442   33.0770 H   0  0  0  0  0  0  0  0  0  0  0  0
   49.9000  162.6650   33.4020 H   0  0  0  0  0  0  0  0  0  0  0  0
   54.0820  158.6570   29.7200 H   0  0  0  0  0  0  0  0  0  0  0  0
   51.1951  155.6237   30.2977 H   0  0  0  0  0  0  0  0  0  0  0  0
   52.8254  152.9169   29.4886 H   0  0  0  0  0  0  0  0  0  0  0  0
   51.0932  153.3760   29.8504 H   0  0  0  0  0  0  0  0  0  0  0  0
  1  2  1  0
  2  3  2  0
  3  4  1  0
  4  5  2  0
  5  6  1  0
  6  7  1  0
  7  8  1  0
  8  9  2  0
  9 10  1  0
 10 11  2  0
 11 12  1  0
 12 13  1  0
 12 14  2  0
 14 15  1  0
 15 16  2  0
 15 17  1  0
 17 18  1  0
  5 19  1  0
 19 20  2  0
 20 21  1  0
 21 22  1  0
 20  2  1  0
 17  6  2  0
 14  8  1  0
  1 23  1  0
  1 24  1  0
  1 25  1  0
  3 26  1  0
  4 27  1  0
  9 28  1  0
 10 29  1  0
 11 30  1  0
 13 31  1  0
 18 32  1  0
 19 33  1  0
 21 34  1  0
 21 35  1  0
M  END
>  <meeko>  (5) 
{"is_sidechain": [false], "free_energy": -8.708, "intermolecular_energy": -10.536, "internal_energy": 0.08}

$$$$
cand_045_out
     RDKit          3D

 35 37  0  0  0  0  0  0  0  0999 V2000
   49.2430  158.3790   31.1880 C   0  0  0  0  0  0  0  0  0  0  0  0
   50.0400  157.5580   30.2120 C   0  0  0  0  0  0  0  0  0  0  0  0
   49.5520  156.3070   29.8090 C   0  0  0  0  0  0  0  0  0  0  0  0
   50.2650  155.5150   28.9030 C   0  0  0  0  0  0  0  0  0  0  0  0
   51.4880  155.9500   28.3840 C   0  0  0  0  0  0  0  0  0  0  0  0
   52.2510  155.1440   27.4060 C   0  0  0  0  0  0  0  0  0  0  0  0
   51.9460  153.7890   27.4690 O   0  0  0  0  0  0  0  0  0  0  0  0
   52.5780  152.9260   26.6110 C   0  0  0  0  0  0  0  0  0  0  0  0
   52.2480  151.5740   26.7150 C   0  0  0  0  0  0  0  0  0  0  0  0
   52.8540  150.6410   25.8710 C   0  0  0  0  0  0  0  0  0  0  0  0
   53.7910  151.0600   24.9240 C   0  0  0  0  0  0  0  0  0  0  0  0
   54.1180  152.4110   24.8220 C   0  0  0  0  0  0  0  0  0  0  0  0
   55.0410  152.7520   23.8720 O   0  0  0  0  0  0  0  0  0  0  0  0
   53.5100  153.3430   25.6660 C   0  0  0  0  0  0  0  0  0  0  0  0
   53.8250  154.7700   25.5920 C   0  0  0  0  0  0  0  0  0  0  0  0
   54.6330  155.2170   24.7800 O   0  0  0  0  0  0  0  0  0  0  0  0
   53.1290  155.6760   26.5350 C   0  0  0  0  0  0  0  0  0  0  0  0
   53.4220  157.0240   26.4450 O   0  0  0  0  0  0  0  0  0  0  0  0
   51.9710  157.2070   28.7800 C   0  0  0  0  0  0  0  0  0  0  0  0
   51.2650  158.0170   29.6880 C   0  0  0  0  0  0  0  0  0  0  0  0
   51.8380  159.3560   30.0830 C   0  0  0  0  0  0  0  0  0  0  0  0
   51.0620  160.4150   29.7140 F   0  0  0  0  0  0  0  0  0  0  0  0
   49.5175  158.0962   32.2150 H   0  0  0  0  0  0  0  0  0  0  0  0
   49.4587  159.4462   31.0314 H   0  0  0  0  0  0  0  0  0  0  0  0
   48.1699  158.1950   31.0314 H   0  0  0  0  0  0  0  0  0  0  0  0
   48.5949  155.9432   30.2110 H   0  0  0  0  0  0  0  0  0  0  0  0
   49.8592  154.5398   28.5957 H   0  0  0  0  0  0  0  0  0  0  0  0
   51.5108  151.2434   27.4615 H   0  0  0  0  0  0  0  0  0  0  0  0
   52.5932  149.5755   25.9521 H   0  0  0  0  0  0  0  0  0  0  0  0
   54.2699  150.3253   24.2600 H   0  0  0  0  0  0  0  0  0  0  0  0
   55.6930  153.3980   24.0630 H   0  0  0  0  0  0  0  0  0  0  0  0
   52.8230  157.6060   26.0190 H   0  0  0  0  0  0  0  0  0  0  0  0
   52.9258  157.5679   28.3699 H   0  0  0  0  0  0  0  0  0  0  0  0
   51.9541  159.3750   31.1767 H   0  0  0  0  0  0  0  0  0  0  0  0
   52.7982  159.4625   29.5570 H   0  0  0  0  0  0  0  0  0  0  0  0
  1  2  1  0
  2  3  2  0
  3  4  1  0
  4  5  2  0
  5  6  1  0
  6  7  1  0
  7  8  1  0
  8  9  2  0
  9 10  1  0
 10 11  2  0
 11 12  1  0
 12 13  1  0
 12 14  2  0
 14 15  1  0
 15 16  2  0
 15 17  1  0
 17 18  1  0
  5 19  1  0
 19 20  2  0
 20 21  1  0
 21 22  1  0
 20  2  1  0
 17  6  2  0
 14  8  1  0
  1 23  1  0
  1 24  1  0
  1 25  1  0
  3 26  1  0
  4 27  1  0
  9 28  1  0
 10 29  1  0
 11 30  1  0
 13 31  1  0
 18 32  1  0
 19 33  1  0
 21 34  1  0
 21 35  1  0
M  END
>  <meeko>  (6) 
{"is_sidechain": [false], "free_energy": -8.383, "intermolecular_energy": -10.316, "internal_energy": 0.243}

$$$$
cand_045_out
     RDKit          3D

 35 37  0  0  0  0  0  0  0  0999 V2000
   53.6600  153.6930   25.9710 C   0  0  0  0  0  0  0  0  0  0  0  0
   53.0140  154.6940   26.8890 C   0  0  0  0  0  0  0  0  0  0  0  0
   53.2060  156.0630   26.6550 C   0  0  0  0  0  0  0  0  0  0  0  0
   52.6220  157.0230   27.4870 C   0  0  0  0  0  0  0  0  0  0  0  0
   51.8360  156.6400   28.5790 C   0  0  0  0  0  0  0  0  0  0  0  0
   51.1860  157.6340   29.4590 C   0  0  0  0  0  0  0  0  0  0  0  0
   51.9930  158.7360   29.7170 O   0  0  0  0  0  0  0  0  0  0  0  0
   51.5110  159.7400   30.5170 C   0  0  0  0  0  0  0  0  0  0  0  0
   52.3580  160.8230   30.7550 C   0  0  0  0  0  0  0  0  0  0  0  0
   51.9280  161.8800   31.5600 C   0  0  0  0  0  0  0  0  0  0  0  0
   50.6520  161.8540   32.1270 C   0  0  0  0  0  0  0  0  0  0  0  0
   49.8090  160.7720   31.8870 C   0  0  0  0  0  0  0  0  0  0  0  0
   48.5720  160.8110   32.4710 O   0  0  0  0  0  0  0  0  0  0  0  0
   50.2390  159.7150   31.0810 C   0  0  0  0  0  0  0  0  0  0  0  0
   49.3850  158.5600   30.8020 C   0  0  0  0  0  0  0  0  0  0  0  0
   48.2470  158.4670   31.2590 O   0  0  0  0  0  0  0  0  0  0  0  0
   49.9370  157.4910   29.9390 C   0  0  0  0  0  0  0  0  0  0  0  0
   49.1140  156.4120   29.6700 O   0  0  0  0  0  0  0  0  0  0  0  0
   51.6360  155.2690   28.8060 C   0  0  0  0  0  0  0  0  0  0  0  0
   52.2150  154.2900   27.9770 C   0  0  0  0  0  0  0  0  0  0  0  0
   51.9700  152.8310   28.2770 C   0  0  0  0  0  0  0  0  0  0  0  0
   51.5630  152.1100   27.1920 F   0  0  0  0  0  0  0  0  0  0  0  0
   54.1607  152.9171   26.5687 H   0  0  0  0  0  0  0  0  0  0  0  0
   52.8912  153.2279   25.3364 H   0  0  0  0  0  0  0  0  0  0  0  0
   54.4005  154.2019   25.3364 H   0  0  0  0  0  0  0  0  0  0  0  0
   53.8248  156.3863   25.8049 H   0  0  0  0  0  0  0  0  0  0  0  0
   52.7824  158.0915   27.2806 H   0  0  0  0  0  0  0  0  0  0  0  0
   53.3633  160.8442   30.3090 H   0  0  0  0  0  0  0  0  0  0  0  0
   52.5952  162.7342   31.7477 H   0  0  0  0  0  0  0  0  0  0  0  0
   50.3137  162.6863   32.7617 H   0  0  0  0  0  0  0  0  0  0  0  0
   47.8870  160.2550   32.1550 H   0  0  0  0  0  0  0  0  0  0  0  0
   48.9840  155.7490   30.3190 H   0  0  0  0  0  0  0  0  0  0  0  0
   51.0107  154.9518   29.6536 H   0  0  0  0  0  0  0  0  0  0  0  0
   52.9051  152.3921   28.6551 H   0  0  0  0  0  0  0  0  0  0  0  0
   51.1572  152.7863   29.0168 H   0  0  0  0  0  0  0  0  0  0  0  0
  1  2  1  0
  2  3  2  0
  3  4  1  0
  4  5  2  0
  5  6  1  0
  6  7  1  0
  7  8  1  0
  8  9  2  0
  9 10  1  0
 10 11  2  0
 11 12  1  0
 12 13  1  0
 12 14  2  0
 14 15  1  0
 15 16  2  0
 15 17  1  0
 17 18  1  0
  5 19  1  0
 19 20  2  0
 20 21  1  0
 21 22  1  0
 20  2  1  0
 17  6  2  0
 14  8  1  0
  1 23  1  0
  1 24  1  0
  1 25  1  0
  3 26  1  0
  4 27  1  0
  9 28  1  0
 10 29  1  0
 11 30  1  0
 13 31  1  0
 18 32  1  0
 19 33  1  0
 21 34  1  0
 21 35  1  0
M  END
>  <meeko>  (7) 
{"is_sidechain": [false], "free_energy": -8.04, "intermolecular_energy": -9.882, "internal_energy": 0.211}

$$$$
cand_045_out
     RDKit          3D

 35 37  0  0  0  0  0  0  0  0999 V2000
   50.7770  159.4120   30.8620 C   0  0  0  0  0  0  0  0  0  0  0  0
   51.2310  158.3210   29.9310 C   0  0  0  0  0  0  0  0  0  0  0  0
   52.4880  158.4200   29.3190 C   0  0  0  0  0  0  0  0  0  0  0  0
   52.9440  157.4270   28.4480 C   0  0  0  0  0  0  0  0  0  0  0  0
   52.1510  156.3110   28.1590 C   0  0  0  0  0  0  0  0  0  0  0  0
   52.6190  155.2340   27.2600 C   0  0  0  0  0  0  0  0  0  0  0  0
   52.1390  153.9810   27.6240 O   0  0  0  0  0  0  0  0  0  0  0  0
   52.4900  152.8910   26.8710 C   0  0  0  0  0  0  0  0  0  0  0  0
   51.9920  151.6520   27.2780 C   0  0  0  0  0  0  0  0  0  0  0  0
   52.3120  150.5010   26.5550 C   0  0  0  0  0  0  0  0  0  0  0  0
   53.1300  150.5880   25.4270 C   0  0  0  0  0  0  0  0  0  0  0  0
   53.6260  151.8260   25.0230 C   0  0  0  0  0  0  0  0  0  0  0  0
   54.4200  151.8390   23.9090 O   0  0  0  0  0  0  0  0  0  0  0  0
   53.3050  152.9770   25.7460 C   0  0  0  0  0  0  0  0  0  0  0  0
   53.8030  154.2960   25.3560 C   0  0  0  0  0  0  0  0  0  0  0  0
   54.5230  154.4550   24.3720 O   0  0  0  0  0  0  0  0  0  0  0  0
   53.4090  155.4530   26.1930 C   0  0  0  0  0  0  0  0  0  0  0  0
   53.8730  156.6970   25.8050 O   0  0  0  0  0  0  0  0  0  0  0  0
   50.8970  156.2070   28.7800 C   0  0  0  0  0  0  0  0  0  0  0  0
   50.4240  157.1970   29.6620 C   0  0  0  0  0  0  0  0  0  0  0  0
   49.0640  157.0340   30.2930 C   0  0  0  0  0  0  0  0  0  0  0  0
   48.0950  157.8000   29.7130 F   0  0  0  0  0  0  0  0  0  0  0  0
   50.9129  159.0854   31.9035 H   0  0  0  0  0  0  0  0  0  0  0  0
   51.3723  160.3193   30.6816 H   0  0  0  0  0  0  0  0  0  0  0  0
   49.7138  159.6291   30.6816 H   0  0  0  0  0  0  0  0  0  0  0  0
   53.1250  159.2923   29.5274 H   0  0  0  0  0  0  0  0  0  0  0  0
   53.9369  157.5237   27.9846 H   0  0  0  0  0  0  0  0  0  0  0  0
   51.3482  151.5825   28.1672 H   0  0  0  0  0  0  0  0  0  0  0  0
   51.9191  149.5246   26.8746 H   0  0  0  0  0  0  0  0  0  0  0  0
   53.3825  149.6810   24.8582 H   0  0  0  0  0  0  0  0  0  0  0  0
   55.0220  151.1390   23.7550 H   0  0  0  0  0  0  0  0  0  0  0  0
   53.2660  157.3640   25.5510 H   0  0  0  0  0  0  0  0  0  0  0  0
   50.2673  155.3293   28.5723 H   0  0  0  0  0  0  0  0  0  0  0  0
   48.7674  155.9779   30.2109 H   0  0  0  0  0  0  0  0  0  0  0  0
   49.1528  157.3649   31.3383 H   0  0  0  0  0  0  0  0  0  0  0  0
  1  2  1  0
  2  3  2  0
  3  4  1  0
  4  5  2  0
  5  6  1  0
  6  7  1  0
  7  8  1  0
  8  9  2  0
  9 10  1  0
 10 11  2  0
 11 12  1  0
 12 13  1  0
 12 14  2  0
 14 15  1  0
 15 16  2  0
 15 17  1  0
 17 18  1  0
  5 19  1  0
 19 20  2  0
 20 21  1  0
 21 22  1  0
 20  2  1  0
 17  6  2  0
 14  8  1  0
  1 23  1  0
  1 24  1  0
  1 25  1  0
  3 26  1  0
  4 27  1  0
  9 28  1  0
 10 29  1  0
 11 30  1  0
 13 31  1  0
 18 32  1  0
 19 33  1  0
 21 34  1  0
 21 35  1  0
M  END
>  <meeko>  (8) 
{"is_sidechain": [false], "free_energy": -7.596, "intermolecular_energy": -9.12, "internal_energy": -0.03}

$$$$
