cand_041_out
     RDKit          3D

 47 49  0  0  0  0  0  0  0  0999 V2000
   52.5920  152.1510   26.6390 C   0  0  0  0  0  0  0  0  0  0  0  0
   52.3020  153.4780   27.2830 C   0  0  0  0  0  0  0  0  0  0  0  0
   51.8860  153.5080   28.6230 C   0  0  0  0  0  0  0  0  0  0  0  0
   51.6100  154.7180   29.2630 C   0  0  0  0  0  0  0  0  0  0  0  0
   51.7380  155.9330   28.5830 C   0  0  0  0  0  0  0  0  0  0  0  0
   51.4610  157.2050   29.2860 C   0  0  0  0  0  0  0  0  0  0  0  0
   50.1540  157.2910   29.7520 O   0  0  0  0  0  0  0  0  0  0  0  0
   49.7620  158.4210   30.4230 C   0  0  0  0  0  0  0  0  0  0  0  0
   48.4470  158.4590   30.8870 C   0  0  0  0  0  0  0  0  0  0  0  0
   47.9830  159.5810   31.5770 C   0  0  0  0  0  0  0  0  0  0  0  0
   48.8340  160.6660   31.8010 C   0  0  0  0  0  0  0  0  0  0  0  0
   50.1460  160.6260   31.3370 C   0  0  0  0  0  0  0  0  0  0  0  0
   50.9250  161.7210   31.5910 O   0  0  0  0  0  0  0  0  0  0  0  0
   50.6100  159.5020   30.6480 C   0  0  0  0  0  0  0  0  0  0  0  0
   51.9810  159.4190   30.1430 C   0  0  0  0  0  0  0  0  0  0  0  0
   52.7880  160.3340   30.2950 O   0  0  0  0  0  0  0  0  0  0  0  0
   52.3770  158.1810   29.4320 C   0  0  0  0  0  0  0  0  0  0  0  0
   53.6710  158.1200   28.9490 O   0  0  0  0  0  0  0  0  0  0  0  0
   52.1730  155.9060   27.2510 C   0  0  0  0  0  0  0  0  0  0  0  0
   52.4580  154.6950   26.5890 C   0  0  0  0  0  0  0  0  0  0  0  0
   52.8930  154.7550   25.1380 C   0  0  0  0  0  0  0  0  0  0  0  0
   54.4120  154.9670   25.0100 C   0  0  0  0  0  0  0  0  0  0  0  0
   55.0940  153.8830   24.2760 N   0  0  0  0  0  0  0  0  0  0  0  0
   54.1810  153.1700   23.3800 C   0  0  0  0  0  0  0  0  0  0  0  0
   55.6890  152.9370   25.2260 C   0  0  0  0  0  0  0  0  0  0  0  0
   52.7576  151.3933   27.4190 H   0  0  0  0  0  0  0  0  0  0  0  0
   51.7379  151.8526   26.0134 H   0  0  0  0  0  0  0  0  0  0  0  0
   53.4927  152.2361   26.0134 H   0  0  0  0  0  0  0  0  0  0  0  0
   51.7757  152.5643   29.1774 H   0  0  0  0  0  0  0  0  0  0  0  0
   51.2880  154.7153   30.3148 H   0  0  0  0  0  0  0  0  0  0  0  0
   47.7759  157.6057   30.7095 H   0  0  0  0  0  0  0  0  0  0  0  0
   46.9466  159.6104   31.9444 H   0  0  0  0  0  0  0  0  0  0  0  0
   48.4681  161.5504   32.3431 H   0  0  0  0  0  0  0  0  0  0  0  0
   51.8530  161.6730   31.4750 H   0  0  0  0  0  0  0  0  0  0  0  0
   54.2600  157.4650   29.2690 H   0  0  0  0  0  0  0  0  0  0  0  0
   52.2952  156.8549   26.7081 H   0  0  0  0  0  0  0  0  0  0  0  0
   52.6217  153.8100   24.6447 H   0  0  0  0  0  0  0  0  0  0  0  0
   52.3855  155.6068   24.6617 H   0  0  0  0  0  0  0  0  0  0  0  0
   54.5886  155.9135   24.4781 H   0  0  0  0  0  0  0  0  0  0  0  0
   54.8257  154.9802   26.0292 H   0  0  0  0  0  0  0  0  0  0  0  0
   55.8240  154.3080   23.7030 H   0  0  0  0  0  0  0  0  0  0  0  0
   53.4523  152.6010   23.9760 H   0  0  0  0  0  0  0  0  0  0  0  0
   53.6497  153.8946   22.7455 H   0  0  0  0  0  0  0  0  0  0  0  0
   54.7553  152.4789   22.7455 H   0  0  0  0  0  0  0  0  0  0  0  0
   55.4801  153.2691   26.2537 H   0  0  0  0  0  0  0  0  0  0  0  0
   55.2563  151.9380   25.0684 H   0  0  0  0  0  0  0  0  0  0  0  0
   56.7768  152.8944   25.0684 H   0  0  0  0  0  0  0  0  0  0  0  0
  1  2  1  0
  2  3  2  0
  3  4  1  0
  4  5  2  0
  5  6  1  0
  6  7  1  0
  7  8  1  0
  8  9  2  0
  9 10  1  0
 10 11  2  0
 11 12  1  0
 12 13  1  0
 12 14  2  0
 14 15  1  0
 15 16  2  0
 15 17  1  0
 17 18  1  0
  5 19  1  0
 19 20  2  0
 20 21  1  0
 21 22  1  0
 22 23  1  0
 23 24  1  0
 23 25  1  0
 20  2  1  0
 17  6  2  0
 14  8  1  0
  1 26  1  0
  1 27  1  0
  1 28  1  0
  3 29  1  0
  4 30  1  0
  9 31  1  0
 10 32  1  0
 11 33  1  0
 13 34  1  0
 18 35  1  0
 19 36  1  0
 21 37  1  0
 21 38  1  0
 22 39  1  0
 22 40  1  0
 23 41  1  0
 24 42  1  0
 24 43  1  0
 24 44  1  0
 25 45  1  0
 25 46  1  0
 25 47  1  0
M  CHG  1  23   1
M  END
>  <meeko>  (1) 
{"is_sidechain": [false], "free_energy": -9.882, "intermolecular_energy": -12.771, "internal_energy": -0.445}

$$$$
cand_041_out
     RDKit          3D

 47 49  0  0  0  0  0  0  0  0999 V2000
   49.1400  160.7570   31.6440 C   0  0  0  0  0  0  0  0  0  0  0  0
   49.8550  159.6540   30.9120 C   0  0  0  0  0  0  0  0  0  0  0  0
   49.2170  158.4150   30.7590 C   0  0  0  0  0  0  0  0  0  0  0  0
   49.8410  157.3640   30.0830 C   0  0  0  0  0  0  0  0  0  0  0  0
   51.1210  157.5200   29.5420 C   0  0  0  0  0  0  0  0  0  0  0  0
   51.7550  156.4020   28.8120 C   0  0  0  0  0  0  0  0  0  0  0  0
   52.2890  156.7890   27.5880 O   0  0  0  0  0  0  0  0  0  0  0  0
   52.9080  155.8470   26.8060 C   0  0  0  0  0  0  0  0  0  0  0  0
   53.4430  156.2830   25.5930 C   0  0  0  0  0  0  0  0  0  0  0  0
   54.0850  155.3750   24.7480 C   0  0  0  0  0  0  0  0  0  0  0  0
   54.1900  154.0320   25.1160 C   0  0  0  0  0  0  0  0  0  0  0  0
   53.6550  153.5990   26.3260 C   0  0  0  0  0  0  0  0  0  0  0  0
   53.7930  152.2710   26.6240 O   0  0  0  0  0  0  0  0  0  0  0  0
   53.0140  154.5090   27.1720 C   0  0  0  0  0  0  0  0  0  0  0  0
   52.4380  154.0960   28.4520 C   0  0  0  0  0  0  0  0  0  0  0  0
   52.4840  152.9320   28.8430 O   0  0  0  0  0  0  0  0  0  0  0  0
   51.7860  155.1390   29.2790 C   0  0  0  0  0  0  0  0  0  0  0  0
   51.2350  154.7350   30.4810 O   0  0  0  0  0  0  0  0  0  0  0  0
   51.7510  158.7650   29.6780 C   0  0  0  0  0  0  0  0  0  0  0  0
   51.1370  159.8370   30.3540 C   0  0  0  0  0  0  0  0  0  0  0  0
   51.9030  161.1390   30.4810 C   0  0  0  0  0  0  0  0  0  0  0  0
   52.8880  161.1030   31.6630 C   0  0  0  0  0  0  0  0  0  0  0  0
   53.8310  162.2400   31.6740 N   0  0  0  0  0  0  0  0  0  0  0  0
   53.9540  162.8610   30.3540 C   0  0  0  0  0  0  0  0  0  0  0  0
   55.1480  161.7880   32.1300 C   0  0  0  0  0  0  0  0  0  0  0  0
   49.2402  160.6024   32.7285 H   0  0  0  0  0  0  0  0  0  0  0  0
   49.5822  161.7261   31.3694 H   0  0  0  0  0  0  0  0  0  0  0  0
   48.0749  160.7490   31.3694 H   0  0  0  0  0  0  0  0  0  0  0  0
   48.2103  158.2684   31.1774 H   0  0  0  0  0  0  0  0  0  0  0  0
   49.3191  156.4017   29.9749 H   0  0  0  0  0  0  0  0  0  0  0  0
   53.3591  157.3407   25.3027 H   0  0  0  0  0  0  0  0  0  0  0  0
   54.5081  155.7179   23.7923 H   0  0  0  0  0  0  0  0  0  0  0  0
   54.6951  153.3168   24.4502 H   0  0  0  0  0  0  0  0  0  0  0  0
   53.9850  151.6570   25.9440 H   0  0  0  0  0  0  0  0  0  0  0  0
   51.3120  155.2800   31.2380 H   0  0  0  0  0  0  0  0  0  0  0  0
   52.7520  158.9084   29.2450 H   0  0  0  0  0  0  0  0  0  0  0  0
   52.4659  161.3142   29.5523 H   0  0  0  0  0  0  0  0  0  0  0  0
   51.1796  161.9481   30.6601 H   0  0  0  0  0  0  0  0  0  0  0  0
   52.3105  161.1196   32.5991 H   0  0  0  0  0  0  0  0  0  0  0  0
   53.4859  160.1854   31.5603 H   0  0  0  0  0  0  0  0  0  0  0  0
   53.4610  162.9430   32.3160 H   0  0  0  0  0  0  0  0  0  0  0  0
   54.1665  163.9338   30.4719 H   0  0  0  0  0  0  0  0  0  0  0  0
   54.7750  162.3834   29.7992 H   0  0  0  0  0  0  0  0  0  0  0  0
   53.0129  162.7324   29.7992 H   0  0  0  0  0  0  0  0  0  0  0  0
   55.1723  161.7797   33.2297 H   0  0  0  0  0  0  0  0  0  0  0  0
   55.3387  160.7730   31.7513 H   0  0  0  0  0  0  0  0  0  0  0  0
   55.9218  162.4720   31.7513 H   0  0  0  0  0  0  0  0  0  0  0  0
  1  2  1  0
  2  3  2  0
  3  4  1  0
  4  5  2  0
  5  6  1  0
  6  7  1  0
  7  8  1  0
  8  9  2  0
  9 10  1  0
 10 11  2  0
 11 12  1  0
 12 13  1  0
 12 14  2  0
 14 15  1  0
 15 16  2  0
 15 17  1  0
 17 18  1  0
  5 19  1  0
 19 20  2  0
 20 21  1  0
 21 22  1  0
 22 23  1  0
 23 24  1  0
 23 25  1  0
 20  2  1  0
 17  6  2  0
 14  8  1  0
  1 26  1  0
  1 27  1  0
  1 28  1  0
  3 29  1  0
  4 30  1  0
  9 31  1  0
 10 32  1  0
 11 33  1  0
 13 34  1  0
 18 35  1  0
 19 36  1  0
 21 37  1  0
 21 38  1  0
 22 39  1  0
 22 40  1  0
 23 41  1  0
 24 42  1  0
 24 43  1  0
 24 44  1  0
 25 45  1  0
 25 46  1  0
 25 47  1  0
M  CHG  1  23   1
M  END
>  <meeko>  (2) 
{"is_sidechain": [false], "free_energy": -9.704, "intermolecular_energy": -12.759, "internal_energy": -0.227}

$$$$
cand_041_out
     RDKit          3D

 47 49  0  0  0  0  0  0  0  0999 V2000
   52.2060  152.1010   27.3970 C   0  0  0  0  0  0  0  0  0  0  0  0
   51.9520  153.4850   27.9280 C   0  0  0  0  0  0  0  0  0  0  0  0
   51.5600  153.6380   29.2660 C   0  0  0  0  0  0  0  0  0  0  0  0
   51.3180  154.9040   29.8050 C   0  0  0  0  0  0  0  0  0  0  0  0
   51.4570  156.0530   29.0210 C   0  0  0  0  0  0  0  0  0  0  0  0
   51.2160  157.3860   29.6150 C   0  0  0  0  0  0  0  0  0  0  0  0
   49.9170  157.5420   30.0850 O   0  0  0  0  0  0  0  0  0  0  0  0
   49.5580  158.7330   30.6610 C   0  0  0  0  0  0  0  0  0  0  0  0
   48.2490  158.8400   31.1330 C   0  0  0  0  0  0  0  0  0  0  0  0
   47.8190  160.0270   31.7290 C   0  0  0  0  0  0  0  0  0  0  0  0
   48.6960  161.1070   31.8520 C   0  0  0  0  0  0  0  0  0  0  0  0
   50.0010  160.9980   31.3810 C   0  0  0  0  0  0  0  0  0  0  0  0
   50.8070  162.0930   31.5330 O   0  0  0  0  0  0  0  0  0  0  0  0
   50.4320  159.8090   30.7850 C   0  0  0  0  0  0  0  0  0  0  0  0
   51.7950  159.6530   30.2760 C   0  0  0  0  0  0  0  0  0  0  0  0
   52.6230  160.5580   30.3420 O   0  0  0  0  0  0  0  0  0  0  0  0
   52.1550  158.3500   29.6700 C   0  0  0  0  0  0  0  0  0  0  0  0
   53.4420  158.2180   29.1810 O   0  0  0  0  0  0  0  0  0  0  0  0
   51.8680  155.9030   27.6890 C   0  0  0  0  0  0  0  0  0  0  0  0
   52.1200  154.6340   27.1300 C   0  0  0  0  0  0  0  0  0  0  0  0
   52.5300  154.5610   25.6720 C   0  0  0  0  0  0  0  0  0  0  0  0
   53.0940  155.9040   25.1750 C   0  0  0  0  0  0  0  0  0  0  0  0
   54.5480  155.8700   24.9210 N   0  0  0  0  0  0  0  0  0  0  0  0
   54.9810  156.9840   24.0740 C   0  0  0  0  0  0  0  0  0  0  0  0
   54.9120  154.6000   24.2870 C   0  0  0  0  0  0  0  0  0  0  0  0
   52.3340  151.4034   28.2378 H   0  0  0  0  0  0  0  0  0  0  0  0
   51.3515  151.7815   26.7824 H   0  0  0  0  0  0  0  0  0  0  0  0
   53.1183  152.1058   26.7824 H   0  0  0  0  0  0  0  0  0  0  0  0
   51.4413  152.7475   29.9007 H   0  0  0  0  0  0  0  0  0  0  0  0
   51.0147  154.9977   30.8582 H   0  0  0  0  0  0  0  0  0  0  0  0
   47.5571  157.9904   31.0356 H   0  0  0  0  0  0  0  0  0  0  0  0
   46.7878  160.1118   32.1023 H   0  0  0  0  0  0  0  0  0  0  0  0
   48.3557  162.0423   32.3204 H   0  0  0  0  0  0  0  0  0  0  0  0
   51.3820  162.1520   32.2700 H   0  0  0  0  0  0  0  0  0  0  0  0
   54.0920  157.7720   29.6870 H   0  0  0  0  0  0  0  0  0  0  0  0
   51.9971  156.7990   27.0640 H   0  0  0  0  0  0  0  0  0  0  0  0
   53.3011  153.7851   25.5563 H   0  0  0  0  0  0  0  0  0  0  0  0
   51.6380  154.3200   25.0751 H   0  0  0  0  0  0  0  0  0  0  0  0
   52.5825  156.1722   24.2389 H   0  0  0  0  0  0  0  0  0  0  0  0
   52.9199  156.6441   25.9700 H   0  0  0  0  0  0  0  0  0  0  0  0
   55.0220  155.9610   25.8200 H   0  0  0  0  0  0  0  0  0  0  0  0
   55.3066  157.8217   24.7082 H   0  0  0  0  0  0  0  0  0  0  0  0
   55.8179  156.6580   23.4389 H   0  0  0  0  0  0  0  0  0  0  0  0
   54.1436  157.3088   23.4389 H   0  0  0  0  0  0  0  0  0  0  0  0
   55.1267  153.8509   25.0634 H   0  0  0  0  0  0  0  0  0  0  0  0
   54.0779  154.2504   23.6609 H   0  0  0  0  0  0  0  0  0  0  0  0
   55.8046  154.7454   23.6609 H   0  0  0  0  0  0  0  0  0  0  0  0
  1  2  1  0
  2  3  2  0
  3  4  1  0
  4  5  2  0
  5  6  1  0
  6  7  1  0
  7  8  1  0
  8  9  2  0
  9 10  1  0
 10 11  2  0
 11 12  1  0
 12 13  1  0
 12 14  2  0
 14 15  1  0
 15 16  2  0
 15 17  1  0
 17 18  1  0
  5 19  1  0
 19 20  2  0
 20 21  1  0
 21 22  1  0
 22 23  1  0
 23 24  1  0
 23 25  1  0
 20  2  1  0
 17  6  2  0
 14  8  1  0
  1 26  1  0
  1 27  1  0
  1 28  1  0
  3 29  1  0
  4 30  1  0
  9 31  1  0
 10 32  1  0
 11 33  1  0
 13 34  1  0
 18 35  1  0
 19 36  1  0
 21 37  1  0
 21 38  1  0
 22 39  1  0
 22 40  1  0
 23 41  1  0
 24 42  1  0
 24 43  1  0
 24 44  1  0
 25 45  1  0
 25 46  1  0
 25 47  1  0
M  CHG  1  23   1
M  END
>  <meeko>  (3) 
{"is_sidechain": [false], "free_energy": -9.311, "intermolecular_energy": -12.062, "internal_energy": -0.416}

$$$$
cand_041_out
     RDKit          3D

 47 49  0  0  0  0  0  0  0  0999 V2000
   51.1370  160.5740   30.8880 C   0  0  0  0  0  0  0  0  0  0  0  0
   51.3600  159.2670   30.1780 C   0  0  0  0  0  0  0  0  0  0  0  0
   52.6370  158.9740   29.6760 C   0  0  0  0  0  0  0  0  0  0  0  0
   52.8910  157.7710   29.0140 C   0  0  0  0  0  0  0  0  0  0  0  0
   51.8760  156.8270   28.8310 C   0  0  0  0  0  0  0  0  0  0  0  0
   52.1710  155.5500   28.1450 C   0  0  0  0  0  0  0  0  0  0  0  0
   52.7080  155.7300   26.8760 O   0  0  0  0  0  0  0  0  0  0  0  0
   53.0280  154.6250   26.1280 C   0  0  0  0  0  0  0  0  0  0  0  0
   53.5790  154.8520   24.8660 C   0  0  0  0  0  0  0  0  0  0  0  0
   53.9260  153.7710   24.0530 C   0  0  0  0  0  0  0  0  0  0  0  0
   53.7200  152.4640   24.5010 C   0  0  0  0  0  0  0  0  0  0  0  0
   53.1710  152.2410   25.7600 C   0  0  0  0  0  0  0  0  0  0  0  0
   52.9960  150.9370   26.1360 O   0  0  0  0  0  0  0  0  0  0  0  0
   52.8240  153.3230   26.5740 C   0  0  0  0  0  0  0  0  0  0  0  0
   52.2430  153.1320   27.9040 C   0  0  0  0  0  0  0  0  0  0  0  0
   52.0260  152.0140   28.3660 O   0  0  0  0  0  0  0  0  0  0  0  0
   51.9190  154.3450   28.6910 C   0  0  0  0  0  0  0  0  0  0  0  0
   51.3590  154.1520   29.9400 O   0  0  0  0  0  0  0  0  0  0  0  0
   50.6050  157.1100   29.3490 C   0  0  0  0  0  0  0  0  0  0  0  0
   50.3300  158.3170   30.0220 C   0  0  0  0  0  0  0  0  0  0  0  0
   48.9200  158.5550   30.5230 C   0  0  0  0  0  0  0  0  0  0  0  0
   48.9090  158.9920   31.9980 C   0  0  0  0  0  0  0  0  0  0  0  0
   47.7550  159.8460   32.3480 N   0  0  0  0  0  0  0  0  0  0  0  0
   46.8430  160.0220   31.2150 C   0  0  0  0  0  0  0  0  0  0  0  0
   48.2280  161.1550   32.8070 C   0  0  0  0  0  0  0  0  0  0  0  0
   51.1650  160.4100   31.9754 H   0  0  0  0  0  0  0  0  0  0  0  0
   51.9268  161.2850   30.6040 H   0  0  0  0  0  0  0  0  0  0  0  0
   50.1561  160.9829   30.6040 H   0  0  0  0  0  0  0  0  0  0  0  0
   53.4504  159.7030   29.8059 H   0  0  0  0  0  0  0  0  0  0  0  0
   53.9015  157.5636   28.6320 H   0  0  0  0  0  0  0  0  0  0  0  0
   53.7397  155.8811   24.5122 H   0  0  0  0  0  0  0  0  0  0  0  0
   54.3620  153.9488   23.0589 H   0  0  0  0  0  0  0  0  0  0  0  0
   53.9913  151.6125   23.8596 H   0  0  0  0  0  0  0  0  0  0  0  0
   53.0290  150.2560   25.4930 H   0  0  0  0  0  0  0  0  0  0  0  0
   51.0900  153.2960   30.2060 H   0  0  0  0  0  0  0  0  0  0  0  0
   49.8004  156.3700   29.2269 H   0  0  0  0  0  0  0  0  0  0  0  0
   48.4530  159.3429   29.9138 H   0  0  0  0  0  0  0  0  0  0  0  0
   48.3615  157.6110   30.4398 H   0  0  0  0  0  0  0  0  0  0  0  0
   48.8801  158.0911   32.6285 H   0  0  0  0  0  0  0  0  0  0  0  0
   49.8177  159.5884   32.1670 H   0  0  0  0  0  0  0  0  0  0  0  0
   47.2390  159.3790   33.0940 H   0  0  0  0  0  0  0  0  0  0  0  0
   45.8273  160.2180   31.5889 H   0  0  0  0  0  0  0  0  0  0  0  0
   47.1787  160.8719   30.6027 H   0  0  0  0  0  0  0  0  0  0  0  0
   46.8383  159.1082   30.6027 H   0  0  0  0  0  0  0  0  0  0  0  0
   48.2360  161.1770   33.9068 H   0  0  0  0  0  0  0  0  0  0  0  0
   49.2462  161.3300   32.4294 H   0  0  0  0  0  0  0  0  0  0  0  0
   47.5568  161.9405   32.4294 H   0  0  0  0  0  0  0  0  0  0  0  0
  1  2  1  0
  2  3  2  0
  3  4  1  0
  4  5  2  0
  5  6  1  0
  6  7  1  0
  7  8  1  0
  8  9  2  0
  9 10  1  0
 10 11  2  0
 11 12  1  0
 12 13  1  0
 12 14  2  0
 14 15  1  0
 15 16  2  0
 15 17  1  0
 17 18  1  0
  5 19  1  0
 19 20  2  0
 20 21  1  0
 21 22  1  0
 22 23  1  0
 23 24  1  0
 23 25  1  0
 20  2  1  0
 17  6  2  0
 14  8  1  0
  1 26  1  0
  1 27  1  0
  1 28  1  0
  3 29  1  0
  4 30  1  0
  9 31  1  0
 10 32  1  0
 11 33  1  0
 13 34  1  0
 18 35  1  0
 19 36  1  0
 21 37  1  0
 21 38  1  0
 22 39  1  0
 22 40  1  0
 23 41  1  0
 24 42  1  0
 24 43  1  0
 24 44  1  0
 25 45  1  0
 25 46  1  0
 25 47  1  0
M  CHG  1  23   1
M  END
>  <meeko>  (4) 
{"is_sidechain": [false], "free_energy": -8.962, "intermolecular_energy": -12.349, "internal_energy": 0.322}

$$$$
cand_041_out
     RDKit          3D

 47 49  0  0  0  0  0  0  0  0999 V2000
   53.3610  152.8810   27.2190 C   0  0  0  0  0  0  0  0  0  0  0  0
   52.7170  154.1000   27.8210 C   0  0  0  0  0  0  0  0  0  0  0  0
   52.0450  153.9800   29.0460 C   0  0  0  0  0  0  0  0  0  0  0  0
   51.4360  155.0850   29.6440 C   0  0  0  0  0  0  0  0  0  0  0  0
   51.4780  156.3420   29.0340 C   0  0  0  0  0  0  0  0  0  0  0  0
   50.8450  157.5040   29.6930 C   0  0  0  0  0  0  0  0  0  0  0  0
   51.7520  158.5110   30.0040 O   0  0  0  0  0  0  0  0  0  0  0  0
   51.2970  159.6480   30.6210 C   0  0  0  0  0  0  0  0  0  0  0  0
   52.2390  160.6380   30.9000 C   0  0  0  0  0  0  0  0  0  0  0  0
   51.8420  161.8200   31.5290 C   0  0  0  0  0  0  0  0  0  0  0  0
   50.5040  162.0110   31.8790 C   0  0  0  0  0  0  0  0  0  0  0  0
   49.5650  161.0220   31.5990 C   0  0  0  0  0  0  0  0  0  0  0  0
   48.2730  161.2730   31.9690 O   0  0  0  0  0  0  0  0  0  0  0  0
   49.9630  159.8390   30.9700 C   0  0  0  0  0  0  0  0  0  0  0  0
   49.0090  158.7740   30.6580 C   0  0  0  0  0  0  0  0  0  0  0  0
   47.8160  158.8640   30.9400 O   0  0  0  0  0  0  0  0  0  0  0  0
   49.5310  157.5630   29.9810 C   0  0  0  0  0  0  0  0  0  0  0  0
   48.6220  156.5580   29.7040 O   0  0  0  0  0  0  0  0  0  0  0  0
   52.1660  156.4680   27.8190 C   0  0  0  0  0  0  0  0  0  0  0  0
   52.7890  155.3640   27.2020 C   0  0  0  0  0  0  0  0  0  0  0  0
   53.4840  155.5840   25.8730 C   0  0  0  0  0  0  0  0  0  0  0  0
   52.9590  154.6210   24.7940 C   0  0  0  0  0  0  0  0  0  0  0  0
   54.0210  154.0890   23.9160 N   0  0  0  0  0  0  0  0  0  0  0  0
   54.0070  152.6250   23.8670 C   0  0  0  0  0  0  0  0  0  0  0  0
   55.3310  154.5520   24.3850 C   0  0  0  0  0  0  0  0  0  0  0  0
   53.7118  152.2169   28.0227 H   0  0  0  0  0  0  0  0  0  0  0  0
   52.6269  152.3478   26.5971 H   0  0  0  0  0  0  0  0  0  0  0  0
   54.2152  153.1869   26.5971 H   0  0  0  0  0  0  0  0  0  0  0  0
   51.9969  153.0001   29.5435 H   0  0  0  0  0  0  0  0  0  0  0  0
   50.9171  154.9650   30.6064 H   0  0  0  0  0  0  0  0  0  0  0  0
   53.2934  160.4880   30.6249 H   0  0  0  0  0  0  0  0  0  0  0  0
   52.5843  162.6014   31.7489 H   0  0  0  0  0  0  0  0  0  0  0  0
   50.1921  162.9418   32.3754 H   0  0  0  0  0  0  0  0  0  0  0  0
   48.0880  161.6150   32.8220 H   0  0  0  0  0  0  0  0  0  0  0  0
   47.7090  156.6950   29.8610 H   0  0  0  0  0  0  0  0  0  0  0  0
   52.2212  157.4540   27.3344 H   0  0  0  0  0  0  0  0  0  0  0  0
   53.3073  156.6189   25.5446 H   0  0  0  0  0  0  0  0  0  0  0  0
   54.5587  155.3940   26.0107 H   0  0  0  0  0  0  0  0  0  0  0  0
   52.4628  153.7755   25.2928 H   0  0  0  0  0  0  0  0  0  0  0  0
   52.2672  155.1923   24.1576 H   0  0  0  0  0  0  0  0  0  0  0  0
   53.8450  154.4340   22.9720 H   0  0  0  0  0  0  0  0  0  0  0  0
   54.0032  152.2239   24.8912 H   0  0  0  0  0  0  0  0  0  0  0  0
   53.1056  152.2845   23.3365 H   0  0  0  0  0  0  0  0  0  0  0  0
   54.9018  152.2673   23.3365 H   0  0  0  0  0  0  0  0  0  0  0  0
   55.3458  154.5572   25.4849 H   0  0  0  0  0  0  0  0  0  0  0  0
   56.1142  153.8762   24.0110 H   0  0  0  0  0  0  0  0  0  0  0  0
   55.5156  155.5698   24.0110 H   0  0  0  0  0  0  0  0  0  0  0  0
  1  2  1  0
  2  3  2  0
  3  4  1  0
  4  5  2  0
  5  6  1  0
  6  7  1  0
  7  8  1  0
  8  9  2  0
  9 10  1  0
 10 11  2  0
 11 12  1  0
 12 13  1  0
 12 14  2  0
 14 15  1  0
 15 16  2  0
 15 17  1  0
 17 18  1  0
  5 19  1  0
 19 20  2  0
 20 21  1  0
 21 22  1  0
 22 23  1  0
 23 24  1  0
 23 25  1  0
 20  2  1  0
 17  6  2  0
 14  8  1  0
  1 26  1  0
  1 27  1  0
  1 28  1  0
  3 29  1  0
  4 30  1  0
  9 31  1  0
 10 32  1  0
 11 33  1  0
 13 34  1  0
 18 35  1  0
 19 36  1  0
 21 37  1  0
 21 38  1  0
 22 39  1  0
 22 40  1  0
 23 41  1  0
 24 42  1  0
 24 43  1  0
 24 44  1  0
 25 45  1  0
 25 46  1  0
 25 47  1  0
M  CHG  1  23   1
M  END
>  <meeko>  (5) 
{"is_sidechain": [false], "free_energy": -8.353, "intermolecular_energy": -11.457, "internal_energy": 0.218}

$$$$
cand_041_out
     RDKit          3D

 47 49  0  0  0  0  0  0  0  0999 V2000
   48.6810  158.9960   31.4580 C   0  0  0  0  0  0  0  0  0  0  0  0
   49.5990  158.1960   30.5750 C   0  0  0  0  0  0  0  0  0  0  0  0
   49.3280  156.8350   30.3680 C   0  0  0  0  0  0  0  0  0  0  0  0
   50.1510  156.0540   29.5530 C   0  0  0  0  0  0  0  0  0  0  0  0
   51.2690  156.6100   28.9230 C   0  0  0  0  0  0  0  0  0  0  0  0
   52.1150  155.7710   28.0470 C   0  0  0  0  0  0  0  0  0  0  0  0
   52.6490  156.4760   26.9750 O   0  0  0  0  0  0  0  0  0  0  0  0
   53.4540  155.8170   26.0820 C   0  0  0  0  0  0  0  0  0  0  0  0
   53.9820  156.5670   25.0300 C   0  0  0  0  0  0  0  0  0  0  0  0
   54.8080  155.9560   24.0840 C   0  0  0  0  0  0  0  0  0  0  0  0
   55.1050  154.5950   24.1900 C   0  0  0  0  0  0  0  0  0  0  0  0
   54.5790  153.8490   25.2400 C   0  0  0  0  0  0  0  0  0  0  0  0
   54.9100  152.5230   25.2830 O   0  0  0  0  0  0  0  0  0  0  0  0
   53.7520  154.4610   26.1870 C   0  0  0  0  0  0  0  0  0  0  0  0
   53.1770  153.7130   27.3060 C   0  0  0  0  0  0  0  0  0  0  0  0
   53.3870  152.5130   27.4640 O   0  0  0  0  0  0  0  0  0  0  0  0
   52.3210  154.4570   28.2590 C   0  0  0  0  0  0  0  0  0  0  0  0
   51.7730  153.7370   29.3050 O   0  0  0  0  0  0  0  0  0  0  0  0
   51.5280  157.9740   29.1140 C   0  0  0  0  0  0  0  0  0  0  0  0
   50.7090  158.7780   29.9300 C   0  0  0  0  0  0  0  0  0  0  0  0
   51.0810  160.2360   30.1060 C   0  0  0  0  0  0  0  0  0  0  0  0
   52.5180  160.3940   30.6330 C   0  0  0  0  0  0  0  0  0  0  0  0
   52.6430  161.4070   31.7010 N   0  0  0  0  0  0  0  0  0  0  0  0
   51.3350  161.8710   32.1690 C   0  0  0  0  0  0  0  0  0  0  0  0
   53.4240  162.5480   31.2150 C   0  0  0  0  0  0  0  0  0  0  0  0
   48.9162  158.7910   32.5128 H   0  0  0  0  0  0  0  0  0  0  0  0
   48.8178  160.0681   31.2535 H   0  0  0  0  0  0  0  0  0  0  0  0
   47.6376  158.7139   31.2535 H   0  0  0  0  0  0  0  0  0  0  0  0
   48.4547  156.3762   30.8546 H   0  0  0  0  0  0  0  0  0  0  0  0
   49.9170  154.9894   29.4051 H   0  0  0  0  0  0  0  0  0  0  0  0
   53.7477  157.6385   24.9460 H   0  0  0  0  0  0  0  0  0  0  0  0
   55.2249  156.5467   23.2550 H   0  0  0  0  0  0  0  0  0  0  0  0
   55.7542  154.1136   23.4439 H   0  0  0  0  0  0  0  0  0  0  0  0
   55.6320  152.2370   25.8070 H   0  0  0  0  0  0  0  0  0  0  0  0
   51.1310  153.0770   29.1340 H   0  0  0  0  0  0  0  0  0  0  0  0
   52.3949  158.4291   28.6127 H   0  0  0  0  0  0  0  0  0  0  0  0
   50.9990  160.7452   29.1344 H   0  0  0  0  0  0  0  0  0  0  0  0
   50.3940  160.6801   30.8413 H   0  0  0  0  0  0  0  0  0  0  0  0
   52.8520  159.4245   31.0311 H   0  0  0  0  0  0  0  0  0  0  0  0
   53.1378  160.7329   29.7898 H   0  0  0  0  0  0  0  0  0  0  0  0
   53.1180  160.9670   32.4900 H   0  0  0  0  0  0  0  0  0  0  0  0
   51.3199  161.8764   33.2689 H   0  0  0  0  0  0  0  0  0  0  0  0
   51.1517  162.8890   31.7948 H   0  0  0  0  0  0  0  0  0  0  0  0
   50.5511  161.1961   31.7948 H   0  0  0  0  0  0  0  0  0  0  0  0
   53.8136  163.1172   32.0718 H   0  0  0  0  0  0  0  0  0  0  0  0
   54.2634  162.1843   30.6042 H   0  0  0  0  0  0  0  0  0  0  0  0
   52.7811  163.1989   30.6042 H   0  0  0  0  0  0  0  0  0  0  0  0
  1  2  1  0
  2  3  2  0
  3  4  1  0
  4  5  2  0
  5  6  1  0
  6  7  1  0
  7  8  1  0
  8  9  2  0
  9 10  1  0
 10 11  2  0
 11 12  1  0
 12 13  1  0
 12 14  2  0
 14 15  1  0
 15 16  2  0
 15 17  1  0
 17 18  1  0
  5 19  1  0
 19 20  2  0
 20 21  1  0
 21 22  1  0
 22 23  1  0
 23 24  1  0
 23 25  1  0
 20  2  1  0
 17  6  2  0
 14  8  1  0
  1 26  1  0
  1 27  1  0
  1 28  1  0
  3 29  1  0
  4 30  1  0
  9 31  1  0
 10 32  1  0
 11 33  1  0
 13 34  1  0
 18 35  1  0
 19 36  1  0
 21 37  1  0
 21 38  1  0
 22 39  1  0
 22 40  1  0
 23 41  1  0
 24 42  1  0
 24 43  1  0
 24 44  1  0
 25 45  1  0
 25 46  1  0
 25 47  1  0
M  CHG  1  23   1
M  END
>  <meeko>  (6) 
{"is_sidechain": [false], "free_energy": -8.316, "intermolecular_energy": -11.111, "internal_energy": -0.081}

$$$$
cand_041_out
     RDKit          3D

 47 49  0  0  0  0  0  0  0  0999 V2000
   49.3120  158.0220   31.1210 C   0  0  0  0  0  0  0  0  0  0  0  0
   50.1500  157.2950   30.1050 C   0  0  0  0  0  0  0  0  0  0  0  0
   49.7210  156.0430   29.6400 C   0  0  0  0  0  0  0  0  0  0  0  0
   50.4640  155.3340   28.6940 C   0  0  0  0  0  0  0  0  0  0  0  0
   51.6590  155.8540   28.1860 C   0  0  0  0  0  0  0  0  0  0  0  0
   52.4200  155.0970   27.1690 C   0  0  0  0  0  0  0  0  0  0  0  0
   52.1800  153.7290   27.2210 O   0  0  0  0  0  0  0  0  0  0  0  0
   52.8240  152.9080   26.3320 C   0  0  0  0  0  0  0  0  0  0  0  0
   52.5410  151.5440   26.4090 C   0  0  0  0  0  0  0  0  0  0  0  0
   53.1650  150.6520   25.5340 C   0  0  0  0  0  0  0  0  0  0  0  0
   54.0710  151.1250   24.5820 C   0  0  0  0  0  0  0  0  0  0  0  0
   54.3510  152.4850   24.5060 C   0  0  0  0  0  0  0  0  0  0  0  0
   55.2480  152.8800   23.5510 O   0  0  0  0  0  0  0  0  0  0  0  0
   53.7260  153.3780   25.3820 C   0  0  0  0  0  0  0  0  0  0  0  0
   53.9930  154.8160   25.3370 C   0  0  0  0  0  0  0  0  0  0  0  0
   54.7820  155.3080   24.5320 O   0  0  0  0  0  0  0  0  0  0  0  0
   53.2730  155.6780   26.3040 C   0  0  0  0  0  0  0  0  0  0  0  0
   53.5420  157.0330   26.2600 O   0  0  0  0  0  0  0  0  0  0  0  0
   52.0780  157.1140   28.6350 C   0  0  0  0  0  0  0  0  0  0  0  0
   51.3400  157.8450   29.5870 C   0  0  0  0  0  0  0  0  0  0  0  0
   51.8820  159.1860   30.0400 C   0  0  0  0  0  0  0  0  0  0  0  0
   50.7860  160.2670   30.0480 C   0  0  0  0  0  0  0  0  0  0  0  0
   51.1350  161.4500   30.8600 N   0  0  0  0  0  0  0  0  0  0  0  0
   52.5730  161.5220   31.1310 C   0  0  0  0  0  0  0  0  0  0  0  0
   50.3970  161.4170   32.1260 C   0  0  0  0  0  0  0  0  0  0  0  0
   49.6368  157.7402   32.1335 H   0  0  0  0  0  0  0  0  0  0  0  0
   49.4318  159.1071   30.9862 H   0  0  0  0  0  0  0  0  0  0  0  0
   48.2546  157.7503   30.9862 H   0  0  0  0  0  0  0  0  0  0  0  0
   48.7851  155.6133   30.0265 H   0  0  0  0  0  0  0  0  0  0  0  0
   50.1053  154.3548   28.3441 H   0  0  0  0  0  0  0  0  0  0  0  0
   51.8270  151.1714   27.1582 H   0  0  0  0  0  0  0  0  0  0  0  0
   52.9428  149.5764   25.5946 H   0  0  0  0  0  0  0  0  0  0  0  0
   54.5626  150.4224   23.8930 H   0  0  0  0  0  0  0  0  0  0  0  0
   56.0890  153.2050   23.8050 H   0  0  0  0  0  0  0  0  0  0  0  0
   53.6020  157.5250   27.0540 H   0  0  0  0  0  0  0  0  0  0  0  0
   53.0077  157.5435   28.2335 H   0  0  0  0  0  0  0  0  0  0  0  0
   52.2880  159.0818   31.0570 H   0  0  0  0  0  0  0  0  0  0  0  0
   52.6661  159.4964   29.3338 H   0  0  0  0  0  0  0  0  0  0  0  0
   50.6113  160.5941   29.0124 H   0  0  0  0  0  0  0  0  0  0  0  0
   49.8892  159.8169   30.4987 H   0  0  0  0  0  0  0  0  0  0  0  0
   50.8760  162.2800   30.3260 H   0  0  0  0  0  0  0  0  0  0  0  0
   52.7413  161.5304   32.2180 H   0  0  0  0  0  0  0  0  0  0  0  0
   53.0736  160.6478   30.6892 H   0  0  0  0  0  0  0  0  0  0  0  0
   52.9838  162.4418   30.6892 H   0  0  0  0  0  0  0  0  0  0  0  0
   51.1072  161.4488   32.9654 H   0  0  0  0  0  0  0  0  0  0  0  0
   49.7249  162.2860   32.1814 H   0  0  0  0  0  0  0  0  0  0  0  0
   49.8051  160.4915   32.1814 H   0  0  0  0  0  0  0  0  0  0  0  0
  1  2  1  0
  2  3  2  0
  3  4  1  0
  4  5  2  0
  5  6  1  0
  6  7  1  0
  7  8  1  0
  8  9  2  0
  9 10  1  0
 10 11  2  0
 11 12  1  0
 12 13  1  0
 12 14  2  0
 14 15  1  0
 15 16  2  0
 15 17  1  0
 17 18  1  0
  5 19  1  0
 19 20  2  0
 20 21  1  0
 21 22  1  0
 22 23  1  0
 23 24  1  0
 23 25  1  0
 20  2  1  0
 17  6  2  0
 14  8  1  0
  1 26  1  0
  1 27  1  0
  1 28  1  0
  3 29  1  0
  4 30  1  0
  9 31  1  0
 10 32  1  0
 11 33  1  0
 13 34  1  0
 18 35  1  0
 19 36  1  0
 21 37  1  0
 21 38  1  0
 22 39  1  0
 22 40  1  0
 23 41  1  0
 24 42  1  0
 24 43  1  0
 24 44  1  0
 25 45  1  0
 25 46  1  0
 25 47  1  0
M  CHG  1  23   1
M  END
>  <meeko>  (7) 
{"is_sidechain": [false], "free_energy": -8.044, "intermolecular_energy": -11.539, "internal_energy": 0.698}

$$$$
