cand_056_out
     RDKit          3D

 50 53  0  0  0  0  0  0  0  0999 V2000
   55.2150  154.4020   22.7380 C   0  0  0  0  0  0  0  0  0  0  0  0
   54.2050  154.7250   23.7440 N   0  0  0  0  0  0  0  0  0  0  0  0
   53.6860  153.4890   24.3750 C   0  0  0  0  0  0  0  0  0  0  0  0
   52.6520  153.7840   25.4890 C   0  0  0  0  0  0  0  0  0  0  0  0
   53.2550  154.6700   26.5120 N   0  0  0  0  0  0  0  0  0  0  0  0
   52.4280  154.8830   27.6290 C   0  0  0  0  0  0  0  0  0  0  0  0
   52.2190  156.1680   28.1660 C   0  0  0  0  0  0  0  0  0  0  0  0
   51.3860  156.3830   29.2740 C   0  0  0  0  0  0  0  0  0  0  0  0
   51.1860  157.7310   29.8450 C   0  0  0  0  0  0  0  0  0  0  0  0
   49.9100  157.9160   30.3630 O   0  0  0  0  0  0  0  0  0  0  0  0
   49.5910  159.1250   30.9250 C   0  0  0  0  0  0  0  0  0  0  0  0
   48.3030  159.2620   31.4460 C   0  0  0  0  0  0  0  0  0  0  0  0
   47.9140  160.4690   32.0310 C   0  0  0  0  0  0  0  0  0  0  0  0
   48.8110  161.5380   32.0940 C   0  0  0  0  0  0  0  0  0  0  0  0
   50.0940  161.3980   31.5740 C   0  0  0  0  0  0  0  0  0  0  0  0
   50.9210  162.4850   31.6680 O   0  0  0  0  0  0  0  0  0  0  0  0
   50.4840  160.1910   30.9890 C   0  0  0  0  0  0  0  0  0  0  0  0
   51.8230  160.0030   30.4290 C   0  0  0  0  0  0  0  0  0  0  0  0
   52.6660  160.8980   30.4410 O   0  0  0  0  0  0  0  0  0  0  0  0
   52.1400  158.6810   29.8390 C   0  0  0  0  0  0  0  0  0  0  0  0
   53.4020  158.5170   29.3020 O   0  0  0  0  0  0  0  0  0  0  0  0
   50.7670  155.2770   29.8650 C   0  0  0  0  0  0  0  0  0  0  0  0
   50.9650  153.9950   29.3500 C   0  0  0  0  0  0  0  0  0  0  0  0
   51.7920  153.7840   28.2310 C   0  0  0  0  0  0  0  0  0  0  0  0
   51.9860  152.3870   27.6920 C   0  0  0  0  0  0  0  0  0  0  0  0
   51.4810  151.4260   28.5260 F   0  0  0  0  0  0  0  0  0  0  0  0
   53.2960  152.0440   27.5190 F   0  0  0  0  0  0  0  0  0  0  0  0
   51.3680  152.1690   26.4950 F   0  0  0  0  0  0  0  0  0  0  0  0
   53.7610  155.9270   25.9120 C   0  0  0  0  0  0  0  0  0  0  0  0
   54.7780  155.6030   24.7910 C   0  0  0  0  0  0  0  0  0  0  0  0
   56.1482  154.1035   23.2380 H   0  0  0  0  0  0  0  0  0  0  0  0
   54.8548  153.5742   22.1095 H   0  0  0  0  0  0  0  0  0  0  0  0
   55.4020  155.2851   22.1095 H   0  0  0  0  0  0  0  0  0  0  0  0
   53.4410  155.2130   23.2760 H   0  0  0  0  0  0  0  0  0  0  0  0
   53.2053  152.8724   23.6012 H   0  0  0  0  0  0  0  0  0  0  0  0
   54.5363  152.9659   24.8368 H   0  0  0  0  0  0  0  0  0  0  0  0
   51.7732  154.2787   25.0498 H   0  0  0  0  0  0  0  0  0  0  0  0
   52.3477  152.8384   25.9615 H   0  0  0  0  0  0  0  0  0  0  0  0
   52.7239  157.0286   27.7029 H   0  0  0  0  0  0  0  0  0  0  0  0
   47.5959  158.4208   31.3958 H   0  0  0  0  0  0  0  0  0  0  0  0
   46.8998  160.5780   32.4427 H   0  0  0  0  0  0  0  0  0  0  0  0
   48.5036  162.4888   32.5539 H   0  0  0  0  0  0  0  0  0  0  0  0
   51.8350  162.3640   31.8340 H   0  0  0  0  0  0  0  0  0  0  0  0
   54.1510  158.8550   29.7530 H   0  0  0  0  0  0  0  0  0  0  0  0
   50.1190  155.4185   30.7426 H   0  0  0  0  0  0  0  0  0  0  0  0
   50.4674  153.1370   29.8257 H   0  0  0  0  0  0  0  0  0  0  0  0
   52.9189  156.4937   25.4880 H   0  0  0  0  0  0  0  0  0  0  0  0
   54.2576  156.5256   26.6899 H   0  0  0  0  0  0  0  0  0  0  0  0
   55.1008  156.5452   24.3240 H   0  0  0  0  0  0  0  0  0  0  0  0
   55.6236  155.0696   25.2497 H   0  0  0  0  0  0  0  0  0  0  0  0
  1  2  1  0
  2  3  1  0
  3  4  1  0
  4  5  1  0
  5  6  1  0
  6  7  2  0
  7  8  1  0
  8  9  1  0
  9 10  1  0
 10 11  1  0
 11 12  2  0
 12 13  1  0
 13 14  2  0
 14 15  1  0
 15 16  1  0
 15 17  2  0
 17 18  1  0
 18 19  2  0
 18 20  1  0
 20 21  1  0
  8 22  2  0
 22 23  1  0
 23 24  2  0
 24 25  1  0
 25 26  1  0
 25 27  1  0
 25 28  1  0
  5 29  1  0
 29 30  1  0
 30  2  1  0
 24  6  1  0
 20  9  2  0
 17 11  1  0
  1 31  1  0
  1 32  1  0
  1 33  1  0
  2 34  1  0
  3 35  1  0
  3 36  1  0
  4 37  1  0
  4 38  1  0
  7 39  1  0
 12 40  1  0
 13 41  1  0
 14 42  1  0
 16 43  1  0
 21 44  1  0
 22 45  1  0
 23 46  1  0
 29 47  1  0
 29 48  1  0
 30 49  1  0
 30 50  1  0
M  CHG  1   2   1
M  END
>  <meeko>  (1) 
{"is_sidechain": [false], "free_energy": -8.735, "intermolecular_energy": -10.778, "internal_energy": 2.105}

$$$$
cand_056_out
     RDKit          3D

 50 53  0  0  0  0  0  0  0  0999 V2000
   53.2730  163.8860   32.0240 C   0  0  0  0  0  0  0  0  0  0  0  0
   52.9350  162.4790   31.8080 N   0  0  0  0  0  0  0  0  0  0  0  0
   51.5950  162.1760   32.3630 C   0  0  0  0  0  0  0  0  0  0  0  0
   51.1680  160.7100   32.1070 C   0  0  0  0  0  0  0  0  0  0  0  0
   51.2010  160.4230   30.6540 N   0  0  0  0  0  0  0  0  0  0  0  0
   50.7010  159.1510   30.3210 C   0  0  0  0  0  0  0  0  0  0  0  0
   51.4740  158.2100   29.6150 C   0  0  0  0  0  0  0  0  0  0  0  0
   50.9790  156.9380   29.2910 C   0  0  0  0  0  0  0  0  0  0  0  0
   51.7890  155.9610   28.5340 C   0  0  0  0  0  0  0  0  0  0  0  0
   52.2750  156.4720   27.3370 O   0  0  0  0  0  0  0  0  0  0  0  0
   53.0440  155.6680   26.5360 C   0  0  0  0  0  0  0  0  0  0  0  0
   53.5230  156.2280   25.3500 C   0  0  0  0  0  0  0  0  0  0  0  0
   54.3110  155.4620   24.4880 C   0  0  0  0  0  0  0  0  0  0  0  0
   54.6180  154.1380   24.8100 C   0  0  0  0  0  0  0  0  0  0  0  0
   54.1390  153.5830   25.9930 C   0  0  0  0  0  0  0  0  0  0  0  0
   54.4760  152.2810   26.2460 O   0  0  0  0  0  0  0  0  0  0  0  0
   53.3510  154.3490   26.8560 C   0  0  0  0  0  0  0  0  0  0  0  0
   52.8260  153.8030   28.1090 C   0  0  0  0  0  0  0  0  0  0  0  0
   53.0460  152.6460   28.4590 O   0  0  0  0  0  0  0  0  0  0  0  0
   52.0080  154.7010   28.9570 C   0  0  0  0  0  0  0  0  0  0  0  0
   51.5050  154.1740   30.1310 O   0  0  0  0  0  0  0  0  0  0  0  0
   49.6720  156.6160   29.6690 C   0  0  0  0  0  0  0  0  0  0  0  0
   48.8890  157.5380   30.3660 C   0  0  0  0  0  0  0  0  0  0  0  0
   49.3910  158.8090   30.6990 C   0  0  0  0  0  0  0  0  0  0  0  0
   48.5240  159.7860   31.4560 C   0  0  0  0  0  0  0  0  0  0  0  0
   47.2050  159.4200   31.4670 F   0  0  0  0  0  0  0  0  0  0  0  0
   48.5310  161.0460   30.9310 F   0  0  0  0  0  0  0  0  0  0  0  0
   48.8600  159.9140   32.7730 F   0  0  0  0  0  0  0  0  0  0  0  0
   52.5390  160.6940   30.0770 C   0  0  0  0  0  0  0  0  0  0  0  0
   52.9480  162.1600   30.3610 C   0  0  0  0  0  0  0  0  0  0  0  0
   53.3219  164.0897   33.1039 H   0  0  0  0  0  0  0  0  0  0  0  0
   54.2489  164.1033   31.5653 H   0  0  0  0  0  0  0  0  0  0  0  0
   52.5023  164.5228   31.5653 H   0  0  0  0  0  0  0  0  0  0  0  0
   53.6360  161.9110   32.2860 H   0  0  0  0  0  0  0  0  0  0  0  0
   51.6136  162.3542   33.4483 H   0  0  0  0  0  0  0  0  0  0  0  0
   50.8677  162.8300   31.8596 H   0  0  0  0  0  0  0  0  0  0  0  0
   51.8595  160.0320   32.6287 H   0  0  0  0  0  0  0  0  0  0  0  0
   50.1455  160.5590   32.4834 H   0  0  0  0  0  0  0  0  0  0  0  0
   52.4954  158.4798   29.3086 H   0  0  0  0  0  0  0  0  0  0  0  0
   53.2803  157.2702   25.0951 H   0  0  0  0  0  0  0  0  0  0  0  0
   54.6904  155.9021   23.5540 H   0  0  0  0  0  0  0  0  0  0  0  0
   55.2373  153.5350   24.1297 H   0  0  0  0  0  0  0  0  0  0  0  0
   54.5000  151.9670   27.1290 H   0  0  0  0  0  0  0  0  0  0  0  0
   51.0800  154.7320   30.7520 H   0  0  0  0  0  0  0  0  0  0  0  0
   49.2577  155.6291   29.4154 H   0  0  0  0  0  0  0  0  0  0  0  0
   47.8642  157.2664   30.6591 H   0  0  0  0  0  0  0  0  0  0  0  0
   53.2762  160.0152   30.5307 H   0  0  0  0  0  0  0  0  0  0  0  0
   52.5042  160.5318   28.9896 H   0  0  0  0  0  0  0  0  0  0  0  0
   53.9635  162.3254   29.9718 H   0  0  0  0  0  0  0  0  0  0  0  0
   52.2156  162.8148   29.8662 H   0  0  0  0  0  0  0  0  0  0  0  0
  1  2  1  0
  2  3  1  0
  3  4  1  0
  4  5  1  0
  5  6  1  0
  6  7  2  0
  7  8  1  0
  8  9  1  0
  9 10  1  0
 10 11  1  0
 11 12  2  0
 12 13  1  0
 13 14  2  0
 14 15  1  0
 15 16  1  0
 15 17  2  0
 17 18  1  0
 18 19  2  0
 18 20  1  0
 20 21  1  0
  8 22  2  0
 22 23  1  0
 23 24  2  0
 24 25  1  0
 25 26  1  0
 25 27  1  0
 25 28  1  0
  5 29  1  0
 29 30  1  0
 30  2  1  0
 24  6  1  0
 20  9  2  0
 17 11  1  0
  1 31  1  0
  1 32  1  0
  1 33  1  0
  2 34  1  0
  3 35  1  0
  3 36  1  0
  4 37  1  0
  4 38  1  0
  7 39  1  0
 12 40  1  0
 13 41  1  0
 14 42  1  0
 16 43  1  0
 21 44  1  0
 22 45  1  0
 23 46  1  0
 29 47  1  0
 29 48  1  0
 30 49  1  0
 30 50  1  0
M  CHG  1   2   1
M  END
>  <meeko>  (2) 
{"is_sidechain": [false], "free_energy": -8.564, "intermolecular_energy": -9.543, "internal_energy": 1.082}

$$$$
cand_056_out
     RDKit          3D

 50 53  0  0  0  0  0  0  0  0999 V2000
   46.1340  160.2960   31.8610 C   0  0  0  0  0  0  0  0  0  0  0  0
   47.2280  159.6940   31.0980 N   0  0  0  0  0  0  0  0  0  0  0  0
   48.0790  160.7460   30.4940 C   0  0  0  0  0  0  0  0  0  0  0  0
   49.2850  160.1580   29.7220 C   0  0  0  0  0  0  0  0  0  0  0  0
   50.0900  159.3010   30.6240 N   0  0  0  0  0  0  0  0  0  0  0  0
   51.2790  158.8300   30.0400 C   0  0  0  0  0  0  0  0  0  0  0  0
   51.3500  157.5770   29.4040 C   0  0  0  0  0  0  0  0  0  0  0  0
   52.5340  157.1110   28.8120 C   0  0  0  0  0  0  0  0  0  0  0  0
   52.6070  155.7860   28.1630 C   0  0  0  0  0  0  0  0  0  0  0  0
   53.1560  155.8380   26.8870 O   0  0  0  0  0  0  0  0  0  0  0  0
   53.2830  154.6740   26.1720 C   0  0  0  0  0  0  0  0  0  0  0  0
   53.8530  154.7710   24.9010 C   0  0  0  0  0  0  0  0  0  0  0  0
   54.0090  153.6240   24.1200 C   0  0  0  0  0  0  0  0  0  0  0  0
   53.5960  152.3830   24.6080 C   0  0  0  0  0  0  0  0  0  0  0  0
   53.0280  152.2890   25.8750 C   0  0  0  0  0  0  0  0  0  0  0  0
   52.6440  151.0430   26.2910 O   0  0  0  0  0  0  0  0  0  0  0  0
   52.8720  153.4370   26.6580 C   0  0  0  0  0  0  0  0  0  0  0  0
   52.2780  153.3830   27.9940 C   0  0  0  0  0  0  0  0  0  0  0  0
   51.8840  152.3290   28.4900 O   0  0  0  0  0  0  0  0  0  0  0  0
   52.1650  154.6550   28.7450 C   0  0  0  0  0  0  0  0  0  0  0  0
   51.5920  154.5960   30.0010 O   0  0  0  0  0  0  0  0  0  0  0  0
   53.6740  157.9170   28.8810 C   0  0  0  0  0  0  0  0  0  0  0  0
   53.6250  159.1610   29.5110 C   0  0  0  0  0  0  0  0  0  0  0  0
   52.4330  159.6310   30.0940 C   0  0  0  0  0  0  0  0  0  0  0  0
   52.4060  160.9820   30.7660 C   0  0  0  0  0  0  0  0  0  0  0  0
   53.6560  161.5190   30.9200 F   0  0  0  0  0  0  0  0  0  0  0  0
   51.8820  160.9570   32.0270 F   0  0  0  0  0  0  0  0  0  0  0  0
   51.7050  161.9270   30.0750 F   0  0  0  0  0  0  0  0  0  0  0  0
   49.2680  158.2240   31.2240 C   0  0  0  0  0  0  0  0  0  0  0  0
   48.0610  158.8380   31.9740 C   0  0  0  0  0  0  0  0  0  0  0  0
   46.3336  160.1861   32.9371 H   0  0  0  0  0  0  0  0  0  0  0  0
   46.0560  161.3641   31.6097 H   0  0  0  0  0  0  0  0  0  0  0  0
   45.1900  159.7903   31.6097 H   0  0  0  0  0  0  0  0  0  0  0  0
   46.8180  159.1240   30.3590 H   0  0  0  0  0  0  0  0  0  0  0  0
   47.4677  161.3378   29.7968 H   0  0  0  0  0  0  0  0  0  0  0  0
   48.4744  161.3677   31.3108 H   0  0  0  0  0  0  0  0  0  0  0  0
   48.9192  159.5562   28.8770 H   0  0  0  0  0  0  0  0  0  0  0  0
   49.9122  160.9806   29.3477 H   0  0  0  0  0  0  0  0  0  0  0  0
   50.4510  156.9440   29.3698 H   0  0  0  0  0  0  0  0  0  0  0  0
   54.1784  155.7486   24.5159 H   0  0  0  0  0  0  0  0  0  0  0  0
   54.4581  153.6984   23.1186 H   0  0  0  0  0  0  0  0  0  0  0  0
   53.7194  151.4803   23.9917 H   0  0  0  0  0  0  0  0  0  0  0  0
   52.8730  150.7450   27.1490 H   0  0  0  0  0  0  0  0  0  0  0  0
   51.5730  155.3600   30.5440 H   0  0  0  0  0  0  0  0  0  0  0  0
   54.6170  157.5678   28.4352 H   0  0  0  0  0  0  0  0  0  0  0  0
   54.5310  159.7835   29.5527 H   0  0  0  0  0  0  0  0  0  0  0  0
   48.9026  157.5579   30.4285 H   0  0  0  0  0  0  0  0  0  0  0  0
   49.8830  157.6522   31.9345 H   0  0  0  0  0  0  0  0  0  0  0  0
   47.4370  158.0218   32.3671 H   0  0  0  0  0  0  0  0  0  0  0  0
   48.4553  159.4698   32.7836 H   0  0  0  0  0  0  0  0  0  0  0  0
  1  2  1  0
  2  3  1  0
  3  4  1  0
  4  5  1  0
  5  6  1  0
  6  7  2  0
  7  8  1  0
  8  9  1  0
  9 10  1  0
 10 11  1  0
 11 12  2  0
 12 13  1  0
 13 14  2  0
 14 15  1  0
 15 16  1  0
 15 17  2  0
 17 18  1  0
 18 19  2  0
 18 20  1  0
 20 21  1  0
  8 22  2  0
 22 23  1  0
 23 24  2  0
 24 25  1  0
 25 26  1  0
 25 27  1  0
 25 28  1  0
  5 29  1  0
 29 30  1  0
 30  2  1  0
 24  6  1  0
 20  9  2  0
 17 11  1  0
  1 31  1  0
  1 32  1  0
  1 33  1  0
  2 34  1  0
  3 35  1  0
  3 36  1  0
  4 37  1  0
  4 38  1  0
  7 39  1  0
 12 40  1  0
 13 41  1  0
 14 42  1  0
 16 43  1  0
 21 44  1  0
 22 45  1  0
 23 46  1  0
 29 47  1  0
 29 48  1  0
 30 49  1  0
 30 50  1  0
M  CHG  1   2   1
M  END
>  <meeko>  (3) 
{"is_sidechain": [false], "free_energy": -8.533, "intermolecular_energy": -8.199, "internal_energy": -0.224}

$$$$
cand_056_out
     RDKit          3D

 50 53  0  0  0  0  0  0  0  0999 V2000
   53.0010  148.7180   25.3970 C   0  0  0  0  0  0  0  0  0  0  0  0
   53.2360  150.0620   25.9230 N   0  0  0  0  0  0  0  0  0  0  0  0
   54.1240  150.8270   25.0160 C   0  0  0  0  0  0  0  0  0  0  0  0
   54.3570  152.2780   25.5020 C   0  0  0  0  0  0  0  0  0  0  0  0
   53.0570  152.9710   25.6550 N   0  0  0  0  0  0  0  0  0  0  0  0
   53.1810  154.3370   25.9690 C   0  0  0  0  0  0  0  0  0  0  0  0
   52.4230  154.9380   26.9920 C   0  0  0  0  0  0  0  0  0  0  0  0
   52.5540  156.2970   27.3110 C   0  0  0  0  0  0  0  0  0  0  0  0
   51.7420  156.9270   28.3730 C   0  0  0  0  0  0  0  0  0  0  0  0
   52.2510  158.1510   28.7900 O   0  0  0  0  0  0  0  0  0  0  0  0
   51.5900  158.8430   29.7720 C   0  0  0  0  0  0  0  0  0  0  0  0
   52.1280  160.0750   30.1490 C   0  0  0  0  0  0  0  0  0  0  0  0
   51.5050  160.8300   31.1460 C   0  0  0  0  0  0  0  0  0  0  0  0
   50.3470  160.3540   31.7640 C   0  0  0  0  0  0  0  0  0  0  0  0
   49.8130  159.1250   31.3860 C   0  0  0  0  0  0  0  0  0  0  0  0
   48.6790  158.7190   32.0330 O   0  0  0  0  0  0  0  0  0  0  0  0
   50.4360  158.3700   30.3890 C   0  0  0  0  0  0  0  0  0  0  0  0
   49.9080  157.0730   29.9630 C   0  0  0  0  0  0  0  0  0  0  0  0
   48.8980  156.5840   30.4630 O   0  0  0  0  0  0  0  0  0  0  0  0
   50.6390  156.3550   28.8920 C   0  0  0  0  0  0  0  0  0  0  0  0
   50.1400  155.1260   28.5040 O   0  0  0  0  0  0  0  0  0  0  0  0
   53.4530  157.0710   26.5710 C   0  0  0  0  0  0  0  0  0  0  0  0
   54.2110  156.4950   25.5500 C   0  0  0  0  0  0  0  0  0  0  0  0
   54.0860  155.1280   25.2390 C   0  0  0  0  0  0  0  0  0  0  0  0
   54.9190  154.5280   24.1330 C   0  0  0  0  0  0  0  0  0  0  0  0
   55.4760  155.4790   23.3190 F   0  0  0  0  0  0  0  0  0  0  0  0
   54.2120  153.7200   23.2900 F   0  0  0  0  0  0  0  0  0  0  0  0
   55.9770  153.7900   24.5790 F   0  0  0  0  0  0  0  0  0  0  0  0
   52.1570  152.2400   26.5790 C   0  0  0  0  0  0  0  0  0  0  0  0
   51.9550  150.7900   26.0790 C   0  0  0  0  0  0  0  0  0  0  0  0
   52.8778  148.0135   26.2328 H   0  0  0  0  0  0  0  0  0  0  0  0
   52.0895  148.7194   24.7813 H   0  0  0  0  0  0  0  0  0  0  0  0
   53.8589  148.4100   24.7813 H   0  0  0  0  0  0  0  0  0  0  0  0
   53.6840  149.9680   26.8350 H   0  0  0  0  0  0  0  0  0  0  0  0
   55.0953  150.3140   24.9574 H   0  0  0  0  0  0  0  0  0  0  0  0
   53.6344  150.8778   24.0323 H   0  0  0  0  0  0  0  0  0  0  0  0
   54.8771  152.2594   26.4711 H   0  0  0  0  0  0  0  0  0  0  0  0
   54.9697  152.8146   24.7626 H   0  0  0  0  0  0  0  0  0  0  0  0
   51.7071  154.3234   27.5575 H   0  0  0  0  0  0  0  0  0  0  0  0
   53.0402  160.4503   29.6622 H   0  0  0  0  0  0  0  0  0  0  0  0
   51.9274  161.8008   31.4445 H   0  0  0  0  0  0  0  0  0  0  0  0
   49.8571  160.9493   32.5486 H   0  0  0  0  0  0  0  0  0  0  0  0
   48.6610  157.8900   32.4720 H   0  0  0  0  0  0  0  0  0  0  0  0
   49.5690  154.6500   29.0760 H   0  0  0  0  0  0  0  0  0  0  0  0
   53.5639  158.1422   26.7951 H   0  0  0  0  0  0  0  0  0  0  0  0
   54.9160  157.1183   24.9804 H   0  0  0  0  0  0  0  0  0  0  0  0
   52.6037  152.2205   27.5840 H   0  0  0  0  0  0  0  0  0  0  0  0
   51.1830  152.7499   26.6152 H   0  0  0  0  0  0  0  0  0  0  0  0
   51.3283  150.2504   26.8043 H   0  0  0  0  0  0  0  0  0  0  0  0
   51.4756  150.8402   25.0903 H   0  0  0  0  0  0  0  0  0  0  0  0
  1  2  1  0
  2  3  1  0
  3  4  1  0
  4  5  1  0
  5  6  1  0
  6  7  2  0
  7  8  1  0
  8  9  1  0
  9 10  1  0
 10 11  1  0
 11 12  2  0
 12 13  1  0
 13 14  2  0
 14 15  1  0
 15 16  1  0
 15 17  2  0
 17 18  1  0
 18 19  2  0
 18 20  1  0
 20 21  1  0
  8 22  2  0
 22 23  1  0
 23 24  2  0
 24 25  1  0
 25 26  1  0
 25 27  1  0
 25 28  1  0
  5 29  1  0
 29 30  1  0
 30  2  1  0
 24  6  1  0
 20  9  2  0
 17 11  1  0
  1 31  1  0
  1 32  1  0
  1 33  1  0
  2 34  1  0
  3 35  1  0
  3 36  1  0
  4 37  1  0
  4 38  1  0
  7 39  1  0
 12 40  1  0
 13 41  1  0
 14 42  1  0
 16 43  1  0
 21 44  1  0
 22 45  1  0
 23 46  1  0
 29 47  1  0
 29 48  1  0
 30 49  1  0
 30 50  1  0
M  CHG  1   2   1
M  END
>  <meeko>  (4) 
{"is_sidechain": [false], "free_energy": -7.566, "intermolecular_energy": -9.454, "internal_energy": 2.224}

$$$$
cand_056_out
     RDKit          3D

 50 53  0  0  0  0  0  0  0  0999 V2000
   53.3940  163.3810   31.0920 C   0  0  0  0  0  0  0  0  0  0  0  0
   52.8980  162.1940   30.3970 N   0  0  0  0  0  0  0  0  0  0  0  0
   53.6270  160.9850   30.8470 C   0  0  0  0  0  0  0  0  0  0  0  0
   53.0980  159.6930   30.1790 C   0  0  0  0  0  0  0  0  0  0  0  0
   51.6480  159.5470   30.4460 N   0  0  0  0  0  0  0  0  0  0  0  0
   51.1110  158.3310   29.9860 C   0  0  0  0  0  0  0  0  0  0  0  0
   51.8200  157.4900   29.1070 C   0  0  0  0  0  0  0  0  0  0  0  0
   51.2890  156.2730   28.6550 C   0  0  0  0  0  0  0  0  0  0  0  0
   52.0300  155.4040   27.7180 C   0  0  0  0  0  0  0  0  0  0  0  0
   51.6840  154.0630   27.8350 O   0  0  0  0  0  0  0  0  0  0  0  0
   52.2980  153.1470   27.0200 C   0  0  0  0  0  0  0  0  0  0  0  0
   51.9100  151.8130   27.1610 C   0  0  0  0  0  0  0  0  0  0  0  0
   52.4980  150.8290   26.3630 C   0  0  0  0  0  0  0  0  0  0  0  0
   53.4720  151.1770   25.4260 C   0  0  0  0  0  0  0  0  0  0  0  0
   53.8570  152.5080   25.2870 C   0  0  0  0  0  0  0  0  0  0  0  0
   54.8180  152.7790   24.3510 O   0  0  0  0  0  0  0  0  0  0  0  0
   53.2690  153.4930   26.0850 C   0  0  0  0  0  0  0  0  0  0  0  0
   53.6460  154.9020   25.9720 C   0  0  0  0  0  0  0  0  0  0  0  0
   54.5000  155.2870   25.1760 O   0  0  0  0  0  0  0  0  0  0  0  0
   52.9570  155.8690   26.8590 C   0  0  0  0  0  0  0  0  0  0  0  0
   53.3280  157.1960   26.7540 O   0  0  0  0  0  0  0  0  0  0  0  0
   50.0090  155.9060   29.0820 C   0  0  0  0  0  0  0  0  0  0  0  0
   49.2890  156.7280   29.9510 C   0  0  0  0  0  0  0  0  0  0  0  0
   49.8290  157.9430   30.4110 C   0  0  0  0  0  0  0  0  0  0  0  0
   49.0310  158.8130   31.3520 C   0  0  0  0  0  0  0  0  0  0  0  0
   48.0980  158.1040   32.0610 F   0  0  0  0  0  0  0  0  0  0  0  0
   48.3180  159.7920   30.7220 F   0  0  0  0  0  0  0  0  0  0  0  0
   49.7880  159.4360   32.3020 F   0  0  0  0  0  0  0  0  0  0  0  0
   50.8890  160.7330   29.9820 C   0  0  0  0  0  0  0  0  0  0  0  0
   51.4490  162.0110   30.6510 C   0  0  0  0  0  0  0  0  0  0  0  0
   53.3283  163.2238   32.1787 H   0  0  0  0  0  0  0  0  0  0  0  0
   54.4421  163.5598   30.8101 H   0  0  0  0  0  0  0  0  0  0  0  0
   52.7847  164.2524   30.8101 H   0  0  0  0  0  0  0  0  0  0  0  0
   53.0510  162.3290   29.3970 H   0  0  0  0  0  0  0  0  0  0  0  0
   54.6919  161.1013   30.5969 H   0  0  0  0  0  0  0  0  0  0  0  0
   53.4757  160.8871   31.9321 H   0  0  0  0  0  0  0  0  0  0  0  0
   53.2656  159.7484   29.0932 H   0  0  0  0  0  0  0  0  0  0  0  0
   53.6325  158.8253   30.5929 H   0  0  0  0  0  0  0  0  0  0  0  0
   52.8195  157.7964   28.7648 H   0  0  0  0  0  0  0  0  0  0  0  0
   51.1425  151.5376   27.8993 H   0  0  0  0  0  0  0  0  0  0  0  0
   52.1929  149.7779   26.4732 H   0  0  0  0  0  0  0  0  0  0  0  0
   53.9348  150.4012   24.7983 H   0  0  0  0  0  0  0  0  0  0  0  0
   54.6800  153.4600   23.7230 H   0  0  0  0  0  0  0  0  0  0  0  0
   54.1220  157.4270   26.3120 H   0  0  0  0  0  0  0  0  0  0  0  0
   49.5660  154.9625   28.7305 H   0  0  0  0  0  0  0  0  0  0  0  0
   48.2854  156.4214   30.2807 H   0  0  0  0  0  0  0  0  0  0  0  0
   50.9831  160.8219   28.8896 H   0  0  0  0  0  0  0  0  0  0  0  0
   49.8301  160.6152   30.2554 H   0  0  0  0  0  0  0  0  0  0  0  0
   50.9081  162.8830   30.2547 H   0  0  0  0  0  0  0  0  0  0  0  0
   51.3094  161.9092   31.7374 H   0  0  0  0  0  0  0  0  0  0  0  0
  1  2  1  0
  2  3  1  0
  3  4  1  0
  4  5  1  0
  5  6  1  0
  6  7  2  0
  7  8  1  0
  8  9  1  0
  9 10  1  0
 10 11  1  0
 11 12  2  0
 12 13  1  0
 13 14  2  0
 14 15  1  0
 15 16  1  0
 15 17  2  0
 17 18  1  0
 18 19  2  0
 18 20  1  0
 20 21  1  0
  8 22  2  0
 22 23  1  0
 23 24  2  0
 24 25  1  0
 25 26  1  0
 25 27  1  0
 25 28  1  0
  5 29  1  0
 29 30  1  0
 30  2  1  0
 24  6  1  0
 20  9  2  0
 17 11  1  0
  1 31  1  0
  1 32  1  0
  1 33  1  0
  2 34  1  0
  3 35  1  0
  3 36  1  0
  4 37  1  0
  4 38  1  0
  7 39  1  0
 12 40  1  0
 13 41  1  0
 14 42  1  0
 16 43  1  0
 21 44  1  0
 22 45  1  0
 23 46  1  0
 29 47  1  0
 29 48  1  0
 30 49  1  0
 30 50  1  0
M  CHG  1   2   1
M  END
>  <meeko>  (5) 
{"is_sidechain": [false], "free_energy": -6.539, "intermolecular_energy": -6.926, "internal_energy": 0.963}

$$$$
cand_056_out
     RDKit          3D

 50 53  0  0  0  0  0  0  0  0999 V2000
   55.2520  155.3770   23.1180 C   0  0  0  0  0  0  0  0  0  0  0  0
   54.1800  155.5800   24.0910 N   0  0  0  0  0  0  0  0  0  0  0  0
   53.6850  154.2780   24.5970 C   0  0  0  0  0  0  0  0  0  0  0  0
   52.5860  154.4420   25.6750 C   0  0  0  0  0  0  0  0  0  0  0  0
   53.0980  155.2680   26.7930 N   0  0  0  0  0  0  0  0  0  0  0  0
   52.2080  155.3590   27.8780 C   0  0  0  0  0  0  0  0  0  0  0  0
   51.7860  156.6000   28.3930 C   0  0  0  0  0  0  0  0  0  0  0  0
   50.8910  156.6910   29.4690 C   0  0  0  0  0  0  0  0  0  0  0  0
   50.4670  157.9960   30.0160 C   0  0  0  0  0  0  0  0  0  0  0  0
   51.5370  158.8200   30.3440 O   0  0  0  0  0  0  0  0  0  0  0  0
   51.2820  160.0630   30.8620 C   0  0  0  0  0  0  0  0  0  0  0  0
   52.3870  160.8620   31.1640 C   0  0  0  0  0  0  0  0  0  0  0  0
   52.1980  162.1390   31.6970 C   0  0  0  0  0  0  0  0  0  0  0  0
   50.9060  162.6160   31.9290 C   0  0  0  0  0  0  0  0  0  0  0  0
   49.8060  161.8170   31.6280 C   0  0  0  0  0  0  0  0  0  0  0  0
   48.5700  162.3460   31.8810 O   0  0  0  0  0  0  0  0  0  0  0  0
   49.9960  160.5400   31.0940 C   0  0  0  0  0  0  0  0  0  0  0  0
   48.8680  159.6680   30.7650 C   0  0  0  0  0  0  0  0  0  0  0  0
   47.7020  160.0130   30.9460 O   0  0  0  0  0  0  0  0  0  0  0  0
   49.1760  158.3350   30.1960 C   0  0  0  0  0  0  0  0  0  0  0  0
   48.1050  157.5130   29.9000 O   0  0  0  0  0  0  0  0  0  0  0  0
   50.4270  155.5070   30.0510 C   0  0  0  0  0  0  0  0  0  0  0  0
   50.8360  154.2670   29.5580 C   0  0  0  0  0  0  0  0  0  0  0  0
   51.7260  154.1790   28.4710 C   0  0  0  0  0  0  0  0  0  0  0  0
   52.1510  152.8250   27.9550 C   0  0  0  0  0  0  0  0  0  0  0  0
   51.7240  151.7990   28.7550 F   0  0  0  0  0  0  0  0  0  0  0  0
   53.5040  152.6670   27.8790 F   0  0  0  0  0  0  0  0  0  0  0  0
   51.6570  152.5280   26.7170 F   0  0  0  0  0  0  0  0  0  0  0  0
   53.5770  156.5870   26.3190 C   0  0  0  0  0  0  0  0  0  0  0  0
   54.6610  156.3940   25.2320 C   0  0  0  0  0  0  0  0  0  0  0  0
   56.1991  155.1977   23.6480 H   0  0  0  0  0  0  0  0  0  0  0  0
   55.0147  154.5078   22.4869 H   0  0  0  0  0  0  0  0  0  0  0  0
   55.3489  156.2728   22.4869 H   0  0  0  0  0  0  0  0  0  0  0  0
   53.4190  156.0720   23.6220 H   0  0  0  0  0  0  0  0  0  0  0  0
   53.2701  153.7062   23.7539 H   0  0  0  0  0  0  0  0  0  0  0  0
   54.5338  153.7543   25.0609 H   0  0  0  0  0  0  0  0  0  0  0  0
   51.7085  154.9338   25.2298 H   0  0  0  0  0  0  0  0  0  0  0  0
   52.3016  153.4505   26.0570 H   0  0  0  0  0  0  0  0  0  0  0  0
   52.1696  157.5251   27.9380 H   0  0  0  0  0  0  0  0  0  0  0  0
   53.4047  160.4860   30.9823 H   0  0  0  0  0  0  0  0  0  0  0  0
   53.0675  162.7697   31.9343 H   0  0  0  0  0  0  0  0  0  0  0  0
   50.7575  163.6217   32.3490 H   0  0  0  0  0  0  0  0  0  0  0  0
   48.3650  162.6690   32.7360 H   0  0  0  0  0  0  0  0  0  0  0  0
   47.2290  157.8130   30.0460 H   0  0  0  0  0  0  0  0  0  0  0  0
   49.7342  155.5534   30.9041 H   0  0  0  0  0  0  0  0  0  0  0  0
   50.4577  153.3459   30.0253 H   0  0  0  0  0  0  0  0  0  0  0  0
   52.7327  157.1512   25.8960 H   0  0  0  0  0  0  0  0  0  0  0  0
   54.0078  157.1415   27.1657 H   0  0  0  0  0  0  0  0  0  0  0  0
   54.9650  157.3825   24.8571 H   0  0  0  0  0  0  0  0  0  0  0  0
   55.5052  155.8596   25.6922 H   0  0  0  0  0  0  0  0  0  0  0  0
  1  2  1  0
  2  3  1  0
  3  4  1  0
  4  5  1  0
  5  6  1  0
  6  7  2  0
  7  8  1  0
  8  9  1  0
  9 10  1  0
 10 11  1  0
 11 12  2  0
 12 13  1  0
 13 14  2  0
 14 15  1  0
 15 16  1  0
 15 17  2  0
 17 18  1  0
 18 19  2  0
 18 20  1  0
 20 21  1  0
  8 22  2  0
 22 23  1  0
 23 24  2  0
 24 25  1  0
 25 26  1  0
 25 27  1  0
 25 28  1  0
  5 29  1  0
 29 30  1  0
 30  2  1  0
 24  6  1  0
 20  9  2  0
 17 11  1  0
  1 31  1  0
  1 32  1  0
  1 33  1  0
  2 34  1  0
  3 35  1  0
  3 36  1  0
  4 37  1  0
  4 38  1  0
  7 39  1  0
 12 40  1  0
 13 41  1  0
 14 42  1  0
 16 43  1  0
 21 44  1  0
 22 45  1  0
 23 46  1  0
 29 47  1  0
 29 48  1  0
 30 49  1  0
 30 50  1  0
M  CHG  1   2   1
M  END
>  <meeko>  (6) 
{"is_sidechain": [false], "free_energy": -5.895, "intermolecular_energy": -6.478, "internal_energy": 1.31}

$$$$
