cand_023_out
     RDKit          3D

 47 50  0  0  0  0  0  0  0  0999 V2000
  175.2970   20.3830   47.3640 C   0  0  0  0  0  0  0  0  0  0  0  0
  176.8000   20.4200   47.4410 C   0  0  0  0  0  0  0  0  0  0  0  0
  177.5570   19.5500   46.6350 C   0  0  0  0  0  0  0  0  0  0  0  0
  178.9590   19.5530   46.6710 C   0  0  0  0  0  0  0  0  0  0  0  0
  179.7200   18.6050   45.8300 C   0  0  0  0  0  0  0  0  0  0  0  0
  179.1970   17.3170   45.8580 O   0  0  0  0  0  0  0  0  0  0  0  0
  179.8050   16.3360   45.1200 C   0  0  0  0  0  0  0  0  0  0  0  0
  179.2540   15.0560   45.1890 C   0  0  0  0  0  0  0  0  0  0  0  0
  179.8250   14.0120   44.4590 C   0  0  0  0  0  0  0  0  0  0  0  0
  180.9460   14.2460   43.6600 C   0  0  0  0  0  0  0  0  0  0  0  0
  181.4940   15.5240   43.5930 C   0  0  0  0  0  0  0  0  0  0  0  0
  182.5910   15.6850   42.7910 O   0  0  0  0  0  0  0  0  0  0  0  0
  180.9230   16.5700   44.3240 C   0  0  0  0  0  0  0  0  0  0  0  0
  181.4660   17.9280   44.2800 C   0  0  0  0  0  0  0  0  0  0  0  0
  182.4470   18.2150   43.5950 O   0  0  0  0  0  0  0  0  0  0  0  0
  180.7920   18.9620   45.0970 C   0  0  0  0  0  0  0  0  0  0  0  0
  181.3060   20.2450   45.0380 O   0  0  0  0  0  0  0  0  0  0  0  0
  179.5980   20.4390   47.5440 C   0  0  0  0  0  0  0  0  0  0  0  0
  178.8560   21.3100   48.3480 C   0  0  0  0  0  0  0  0  0  0  0  0
  177.4530   21.3130   48.3130 C   0  0  0  0  0  0  0  0  0  0  0  0
  176.6810   22.1920   49.1030 N   0  0  0  0  0  0  0  0  0  0  0  0
  176.9440   22.0670   50.5450 C   0  0  0  0  0  0  0  0  0  0  0  0
  175.9000   22.8790   51.3130 C   0  0  0  0  0  0  0  0  0  0  0  0
  175.8870   24.3350   50.8500 C   0  0  0  0  0  0  0  0  0  0  0  0
  175.7160   24.4260   49.3350 C   0  0  0  0  0  0  0  0  0  0  0  0
  176.7570   23.5750   48.6060 C   0  0  0  0  0  0  0  0  0  0  0  0
  174.8779   20.3727   48.3810 H   0  0  0  0  0  0  0  0  0  0  0  0
  174.9353   21.2725   46.8274 H   0  0  0  0  0  0  0  0  0  0  0  0
  174.9795   19.4768   46.8274 H   0  0  0  0  0  0  0  0  0  0  0  0
  177.0377   18.8521   45.9618 H   0  0  0  0  0  0  0  0  0  0  0  0
  178.3708   14.8697   45.8178 H   0  0  0  0  0  0  0  0  0  0  0  0
  179.3909   13.0028   44.5133 H   0  0  0  0  0  0  0  0  0  0  0  0
  181.3949   13.4227   43.0850 H   0  0  0  0  0  0  0  0  0  0  0  0
  183.2700   15.0390   42.7910 H   0  0  0  0  0  0  0  0  0  0  0  0
  182.1430   20.3960   44.6430 H   0  0  0  0  0  0  0  0  0  0  0  0
  180.6966   20.4510   47.5989 H   0  0  0  0  0  0  0  0  0  0  0  0
  179.3812   22.0050   49.0197 H   0  0  0  0  0  0  0  0  0  0  0  0
  176.8801   21.0096   50.8414 H   0  0  0  0  0  0  0  0  0  0  0  0
  177.9513   22.4453   50.7735 H   0  0  0  0  0  0  0  0  0  0  0  0
  174.9063   22.4390   51.1431 H   0  0  0  0  0  0  0  0  0  0  0  0
  176.1555   22.8545   52.3826 H   0  0  0  0  0  0  0  0  0  0  0  0
  175.0530   24.8603   51.3383 H   0  0  0  0  0  0  0  0  0  0  0  0
  176.8467   24.7981   51.1228 H   0  0  0  0  0  0  0  0  0  0  0  0
  174.7104   24.0704   49.0659 H   0  0  0  0  0  0  0  0  0  0  0  0
  175.8518   25.4749   49.0327 H   0  0  0  0  0  0  0  0  0  0  0  0
  176.5535   23.5898   47.5251 H   0  0  0  0  0  0  0  0  0  0  0  0
  177.7627   23.9806   48.7905 H   0  0  0  0  0  0  0  0  0  0  0  0
  1  2  1  0
  2  3  2  0
  3  4  1  0
  4  5  1  0
  5  6  1  0
  6  7  1  0
  7  8  2  0
  8  9  1  0
  9 10  2  0
 10 11  1  0
 11 12  1  0
 11 13  2  0
 13 14  1  0
 14 15  2  0
 14 16  1  0
 16 17  1  0
  4 18  2  0
 18 19  1  0
 19 20  2  0
 20 21  1  0
 21 22  1  0
 22 23  1  0
 23 24  1  0
 24 25  1  0
 25 26  1  0
 20  2  1  0
 26 21  1  0
 16  5  2  0
 13  7  1  0
  1 27  1  0
  1 28  1  0
  1 29  1  0
  3 30  1  0
  8 31  1  0
  9 32  1  0
 10 33  1  0
 12 34  1  0
 17 35  1  0
 18 36  1  0
 19 37  1  0
 22 38  1  0
 22 39  1  0
 23 40  1  0
 23 41  1  0
 24 42  1  0
 24 43  1  0
 25 44  1  0
 25 45  1  0
 26 46  1  0
 26 47  1  0
M  END
>  <meeko>  (1) 
{"is_sidechain": [false], "free_energy": -8.042, "intermolecular_energy": -9.452, "internal_energy": -0.437}

$$$$
cand_023_out
     RDKit          3D

 47 50  0  0  0  0  0  0  0  0999 V2000
  178.5100   24.0410   47.3800 C   0  0  0  0  0  0  0  0  0  0  0  0
  177.7700   23.0070   48.1860 C   0  0  0  0  0  0  0  0  0  0  0  0
  176.7400   23.4130   49.0540 C   0  0  0  0  0  0  0  0  0  0  0  0
  176.0210   22.4840   49.8210 C   0  0  0  0  0  0  0  0  0  0  0  0
  174.9640   22.9510   50.7430 C   0  0  0  0  0  0  0  0  0  0  0  0
  175.4640   23.3680   51.9710 O   0  0  0  0  0  0  0  0  0  0  0  0
  174.5920   23.8280   52.9220 C   0  0  0  0  0  0  0  0  0  0  0  0
  175.1360   24.2230   54.1450 C   0  0  0  0  0  0  0  0  0  0  0  0
  174.3020   24.7040   55.1560 C   0  0  0  0  0  0  0  0  0  0  0  0
  172.9240   24.7900   54.9460 C   0  0  0  0  0  0  0  0  0  0  0  0
  172.3830   24.3940   53.7260 C   0  0  0  0  0  0  0  0  0  0  0  0
  171.0260   24.5040   53.5860 O   0  0  0  0  0  0  0  0  0  0  0  0
  173.2180   23.9130   52.7130 C   0  0  0  0  0  0  0  0  0  0  0  0
  172.6910   23.4880   51.4160 C   0  0  0  0  0  0  0  0  0  0  0  0
  171.4910   23.5400   51.1530 O   0  0  0  0  0  0  0  0  0  0  0  0
  173.6590   22.9870   50.4140 C   0  0  0  0  0  0  0  0  0  0  0  0
  173.1510   22.6010   49.1870 O   0  0  0  0  0  0  0  0  0  0  0  0
  176.3610   21.1310   49.7140 C   0  0  0  0  0  0  0  0  0  0  0  0
  177.3810   20.7170   48.8520 C   0  0  0  0  0  0  0  0  0  0  0  0
  178.1010   21.6420   48.0810 C   0  0  0  0  0  0  0  0  0  0  0  0
  179.1240   21.2480   47.1930 N   0  0  0  0  0  0  0  0  0  0  0  0
  180.3680   20.8500   47.8710 C   0  0  0  0  0  0  0  0  0  0  0  0
  181.4710   20.6750   46.8260 C   0  0  0  0  0  0  0  0  0  0  0  0
  181.0540   19.6760   45.7490 C   0  0  0  0  0  0  0  0  0  0  0  0
  179.7080   20.0620   45.1360 C   0  0  0  0  0  0  0  0  0  0  0  0
  178.6430   20.2590   46.2150 C   0  0  0  0  0  0  0  0  0  0  0  0
  179.0134   24.7444   48.0596 H   0  0  0  0  0  0  0  0  0  0  0  0
  179.2590   23.5444   46.7457 H   0  0  0  0  0  0  0  0  0  0  0  0
  177.7983   24.5898   46.7457 H   0  0  0  0  0  0  0  0  0  0  0  0
  176.4930   24.4820   49.1330 H   0  0  0  0  0  0  0  0  0  0  0  0
  176.2211   24.1554   54.3122 H   0  0  0  0  0  0  0  0  0  0  0  0
  174.7310   25.0158   56.1197 H   0  0  0  0  0  0  0  0  0  0  0  0
  172.2676   25.1698   55.7428 H   0  0  0  0  0  0  0  0  0  0  0  0
  170.6270   25.3510   53.5470 H   0  0  0  0  0  0  0  0  0  0  0  0
  172.3810   23.0140   48.8480 H   0  0  0  0  0  0  0  0  0  0  0  0
  175.8200   20.3849   50.3146 H   0  0  0  0  0  0  0  0  0  0  0  0
  177.6234   19.6467   48.7769 H   0  0  0  0  0  0  0  0  0  0  0  0
  180.6615   21.6290   48.5901 H   0  0  0  0  0  0  0  0  0  0  0  0
  180.2116   19.9030   48.4083 H   0  0  0  0  0  0  0  0  0  0  0  0
  181.6764   21.6472   46.3541 H   0  0  0  0  0  0  0  0  0  0  0  0
  182.3711   20.2915   47.3287 H   0  0  0  0  0  0  0  0  0  0  0  0
  181.8182   19.6598   44.9580 H   0  0  0  0  0  0  0  0  0  0  0  0
  180.9568   18.6825   46.2110 H   0  0  0  0  0  0  0  0  0  0  0  0
  179.8261   20.9999   44.5735 H   0  0  0  0  0  0  0  0  0  0  0  0
  179.3828   19.2482   44.4713 H   0  0  0  0  0  0  0  0  0  0  0  0
  177.7129   20.6209   45.7525 H   0  0  0  0  0  0  0  0  0  0  0  0
  178.4479   19.3022   46.7215 H   0  0  0  0  0  0  0  0  0  0  0  0
  1  2  1  0
  2  3  2  0
  3  4  1  0
  4  5  1  0
  5  6  1  0
  6  7  1  0
  7  8  2  0
  8  9  1  0
  9 10  2  0
 10 11  1  0
 11 12  1  0
 11 13  2  0
 13 14  1  0
 14 15  2  0
 14 16  1  0
 16 17  1  0
  4 18  2  0
 18 19  1  0
 19 20  2  0
 20 21  1  0
 21 22  1  0
 22 23  1  0
 23 24  1  0
 24 25  1  0
 25 26  1  0
 20  2  1  0
 26 21  1  0
 16  5  2  0
 13  7  1  0
  1 27  1  0
  1 28  1  0
  1 29  1  0
  3 30  1  0
  8 31  1  0
  9 32  1  0
 10 33  1  0
 12 34  1  0
 17 35  1  0
 18 36  1  0
 19 37  1  0
 22 38  1  0
 22 39  1  0
 23 40  1  0
 23 41  1  0
 24 42  1  0
 24 43  1  0
 25 44  1  0
 25 45  1  0
 26 46  1  0
 26 47  1  0
M  END
>  <meeko>  (2) 
{"is_sidechain": [false], "free_energy": -7.846, "intermolecular_energy": -8.941, "internal_energy": -0.718}

$$$$
cand_023_out
     RDKit          3D

 47 50  0  0  0  0  0  0  0  0999 V2000
  182.8070   25.6060   48.1390 C   0  0  0  0  0  0  0  0  0  0  0  0
  182.5290   24.1400   48.3390 C   0  0  0  0  0  0  0  0  0  0  0  0
  181.2130   23.7130   48.5920 C   0  0  0  0  0  0  0  0  0  0  0  0
  180.9070   22.3560   48.7790 C   0  0  0  0  0  0  0  0  0  0  0  0
  179.5170   21.9480   49.0700 C   0  0  0  0  0  0  0  0  0  0  0  0
  178.7790   21.6850   47.9210 O   0  0  0  0  0  0  0  0  0  0  0  0
  177.4720   21.2930   48.0460 C   0  0  0  0  0  0  0  0  0  0  0  0
  176.7660   21.0530   46.8660 C   0  0  0  0  0  0  0  0  0  0  0  0
  175.4310   20.6490   46.9240 C   0  0  0  0  0  0  0  0  0  0  0  0
  174.8000   20.4860   48.1590 C   0  0  0  0  0  0  0  0  0  0  0  0
  175.5060   20.7280   49.3350 C   0  0  0  0  0  0  0  0  0  0  0  0
  174.8290   20.5490   50.5100 O   0  0  0  0  0  0  0  0  0  0  0  0
  176.8430   21.1320   49.2770 C   0  0  0  0  0  0  0  0  0  0  0  0
  177.6220   21.3950   50.4880 C   0  0  0  0  0  0  0  0  0  0  0  0
  177.1400   21.2670   51.6130 O   0  0  0  0  0  0  0  0  0  0  0  0
  179.0290   21.8250   50.3180 C   0  0  0  0  0  0  0  0  0  0  0  0
  179.7580   22.0570   51.4700 O   0  0  0  0  0  0  0  0  0  0  0  0
  181.9520   21.4280   48.7220 C   0  0  0  0  0  0  0  0  0  0  0  0
  183.2630   21.8420   48.4690 C   0  0  0  0  0  0  0  0  0  0  0  0
  183.5730   23.1970   48.2780 C   0  0  0  0  0  0  0  0  0  0  0  0
  184.8850   23.6390   48.0060 N   0  0  0  0  0  0  0  0  0  0  0  0
  185.8870   23.1110   48.9460 C   0  0  0  0  0  0  0  0  0  0  0  0
  187.2160   23.8310   48.7120 C   0  0  0  0  0  0  0  0  0  0  0  0
  187.6630   23.7020   47.2570 C   0  0  0  0  0  0  0  0  0  0  0  0
  186.5600   24.1620   46.3040 C   0  0  0  0  0  0  0  0  0  0  0  0
  185.2420   23.4430   46.5920 C   0  0  0  0  0  0  0  0  0  0  0  0
  182.9004   26.0984   49.1182 H   0  0  0  0  0  0  0  0  0  0  0  0
  183.7443   25.7280   47.5763 H   0  0  0  0  0  0  0  0  0  0  0  0
  181.9795   26.0627   47.5763 H   0  0  0  0  0  0  0  0  0  0  0  0
  180.4061   24.4587   48.6445 H   0  0  0  0  0  0  0  0  0  0  0  0
  177.2608   21.1820   45.8920 H   0  0  0  0  0  0  0  0  0  0  0  0
  174.8746   20.4586   45.9944 H   0  0  0  0  0  0  0  0  0  0  0  0
  173.7481   20.1673   48.2030 H   0  0  0  0  0  0  0  0  0  0  0  0
  174.0740   19.9960   50.5360 H   0  0  0  0  0  0  0  0  0  0  0  0
  180.5890   21.6400   51.5900 H   0  0  0  0  0  0  0  0  0  0  0  0
  181.7397   20.3600   48.8781 H   0  0  0  0  0  0  0  0  0  0  0  0
  184.0661   21.0919   48.4188 H   0  0  0  0  0  0  0  0  0  0  0  0
  185.5508   23.2835   49.9790 H   0  0  0  0  0  0  0  0  0  0  0  0
  186.0157   22.0306   48.7844 H   0  0  0  0  0  0  0  0  0  0  0  0
  187.0954   24.8964   48.9576 H   0  0  0  0  0  0  0  0  0  0  0  0
  187.9807   23.3701   49.3545 H   0  0  0  0  0  0  0  0  0  0  0  0
  188.5574   24.3225   47.0988 H   0  0  0  0  0  0  0  0  0  0  0  0
  187.8869   22.6449   47.0508 H   0  0  0  0  0  0  0  0  0  0  0  0
  186.4111   25.2452   46.4244 H   0  0  0  0  0  0  0  0  0  0  0  0
  186.8681   23.9237   45.2753 H   0  0  0  0  0  0  0  0  0  0  0  0
  184.4493   23.8566   45.9513 H   0  0  0  0  0  0  0  0  0  0  0  0
  185.3529   22.3687   46.3835 H   0  0  0  0  0  0  0  0  0  0  0  0
  1  2  1  0
  2  3  2  0
  3  4  1  0
  4  5  1  0
  5  6  1  0
  6  7  1  0
  7  8  2  0
  8  9  1  0
  9 10  2  0
 10 11  1  0
 11 12  1  0
 11 13  2  0
 13 14  1  0
 14 15  2  0
 14 16  1  0
 16 17  1  0
  4 18  2  0
 18 19  1  0
 19 20  2  0
 20 21  1  0
 21 22  1  0
 22 23  1  0
 23 24  1  0
 24 25  1  0
 25 26  1  0
 20  2  1  0
 26 21  1  0
 16  5  2  0
 13  7  1  0
  1 27  1  0
  1 28  1  0
  1 29  1  0
  3 30  1  0
  8 31  1  0
  9 32  1  0
 10 33  1  0
 12 34  1  0
 17 35  1  0
 18 36  1  0
 19 37  1  0
 22 38  1  0
 22 39  1  0
 23 40  1  0
 23 41  1  0
 24 42  1  0
 24 43  1  0
 25 44  1  0
 25 45  1  0
 26 46  1  0
 26 47  1  0
M  END
>  <meeko>  (3) 
{"is_sidechain": [false], "free_energy": -7.576, "intermolecular_energy": -8.653, "internal_energy": -0.689}

$$$$
cand_023_out
     RDKit          3D

 47 50  0  0  0  0  0  0  0  0999 V2000
  179.7990   21.8730   50.6160 C   0  0  0  0  0  0  0  0  0  0  0  0
  178.7000   22.2340   49.6530 C   0  0  0  0  0  0  0  0  0  0  0  0
  177.5050   22.7890   50.1440 C   0  0  0  0  0  0  0  0  0  0  0  0
  176.4560   23.1460   49.2820 C   0  0  0  0  0  0  0  0  0  0  0  0
  175.2040   23.7010   49.8370 C   0  0  0  0  0  0  0  0  0  0  0  0
  175.1500   25.0880   49.7690 O   0  0  0  0  0  0  0  0  0  0  0  0
  174.0410   25.7360   50.2470 C   0  0  0  0  0  0  0  0  0  0  0  0
  174.0360   27.1290   50.1700 C   0  0  0  0  0  0  0  0  0  0  0  0
  172.9360   27.8490   50.6390 C   0  0  0  0  0  0  0  0  0  0  0  0
  171.8400   27.1770   51.1840 C   0  0  0  0  0  0  0  0  0  0  0  0
  171.8470   25.7870   51.2610 C   0  0  0  0  0  0  0  0  0  0  0  0
  170.7420   25.1920   51.8060 O   0  0  0  0  0  0  0  0  0  0  0  0
  172.9490   25.0660   50.7920 C   0  0  0  0  0  0  0  0  0  0  0  0
  172.9970   23.6040   50.8520 C   0  0  0  0  0  0  0  0  0  0  0  0
  172.0680   22.9420   51.3120 O   0  0  0  0  0  0  0  0  0  0  0  0
  174.2130   22.9370   50.3350 C   0  0  0  0  0  0  0  0  0  0  0  0
  174.2410   21.5550   50.3850 O   0  0  0  0  0  0  0  0  0  0  0  0
  176.6190   22.9230   47.9110 C   0  0  0  0  0  0  0  0  0  0  0  0
  177.8050   22.3740   47.4130 C   0  0  0  0  0  0  0  0  0  0  0  0
  178.8580   22.0190   48.2710 C   0  0  0  0  0  0  0  0  0  0  0  0
  180.0700   21.4770   47.7910 N   0  0  0  0  0  0  0  0  0  0  0  0
  179.8820   20.4300   46.7750 C   0  0  0  0  0  0  0  0  0  0  0  0
  181.2260   19.7540   46.5030 C   0  0  0  0  0  0  0  0  0  0  0  0
  182.2840   20.7770   46.0930 C   0  0  0  0  0  0  0  0  0  0  0  0
  182.3810   21.9050   47.1190 C   0  0  0  0  0  0  0  0  0  0  0  0
  181.0120   22.5320   47.3850 C   0  0  0  0  0  0  0  0  0  0  0  0
  179.4363   21.9921   51.6476 H   0  0  0  0  0  0  0  0  0  0  0  0
  180.1016   20.8282   50.4521 H   0  0  0  0  0  0  0  0  0  0  0  0
  180.6622   22.5348   50.4521 H   0  0  0  0  0  0  0  0  0  0  0  0
  177.3896   22.9468   51.2265 H   0  0  0  0  0  0  0  0  0  0  0  0
  174.8983   27.6595   49.7400 H   0  0  0  0  0  0  0  0  0  0  0  0
  172.9325   28.9474   50.5792 H   0  0  0  0  0  0  0  0  0  0  0  0
  170.9727   27.7449   51.5518 H   0  0  0  0  0  0  0  0  0  0  0  0
  170.8330   24.4120   52.3160 H   0  0  0  0  0  0  0  0  0  0  0  0
  174.8360   21.1200   50.9640 H   0  0  0  0  0  0  0  0  0  0  0  0
  175.8058   23.1821   47.2170 H   0  0  0  0  0  0  0  0  0  0  0  0
  177.9147   22.2176   46.3297 H   0  0  0  0  0  0  0  0  0  0  0  0
  179.1617   19.6843   47.1426 H   0  0  0  0  0  0  0  0  0  0  0  0
  179.4962   20.8773   45.8471 H   0  0  0  0  0  0  0  0  0  0  0  0
  181.5597   19.2382   47.4155 H   0  0  0  0  0  0  0  0  0  0  0  0
  181.0957   19.0371   45.6789 H   0  0  0  0  0  0  0  0  0  0  0  0
  183.2597   20.2748   46.0171 H   0  0  0  0  0  0  0  0  0  0  0  0
  181.9967   21.2090   45.1231 H   0  0  0  0  0  0  0  0  0  0  0  0
  182.7788   21.4996   48.0610 H   0  0  0  0  0  0  0  0  0  0  0  0
  183.0477   22.6829   46.7184 H   0  0  0  0  0  0  0  0  0  0  0  0
  181.0984   23.2780   48.1888 H   0  0  0  0  0  0  0  0  0  0  0  0
  180.6461   23.0242   46.4719 H   0  0  0  0  0  0  0  0  0  0  0  0
  1  2  1  0
  2  3  2  0
  3  4  1  0
  4  5  1  0
  5  6  1  0
  6  7  1  0
  7  8  2  0
  8  9  1  0
  9 10  2  0
 10 11  1  0
 11 12  1  0
 11 13  2  0
 13 14  1  0
 14 15  2  0
 14 16  1  0
 16 17  1  0
  4 18  2  0
 18 19  1  0
 19 20  2  0
 20 21  1  0
 21 22  1  0
 22 23  1  0
 23 24  1  0
 24 25  1  0
 25 26  1  0
 20  2  1  0
 26 21  1  0
 16  5  2  0
 13  7  1  0
  1 27  1  0
  1 28  1  0
  1 29  1  0
  3 30  1  0
  8 31  1  0
  9 32  1  0
 10 33  1  0
 12 34  1  0
 17 35  1  0
 18 36  1  0
 19 37  1  0
 22 38  1  0
 22 39  1  0
 23 40  1  0
 23 41  1  0
 24 42  1  0
 24 43  1  0
 25 44  1  0
 25 45  1  0
 26 46  1  0
 26 47  1  0
M  END
>  <meeko>  (4) 
{"is_sidechain": [false], "free_energy": -7.531, "intermolecular_energy": -8.649, "internal_energy": -0.639}

$$$$
cand_023_out
     RDKit          3D

 47 50  0  0  0  0  0  0  0  0999 V2000
  175.0510   26.2210   50.3470 C   0  0  0  0  0  0  0  0  0  0  0  0
  175.1410   24.7310   50.1490 C   0  0  0  0  0  0  0  0  0  0  0  0
  176.3750   24.1520   49.8010 C   0  0  0  0  0  0  0  0  0  0  0  0
  176.5070   22.7680   49.6130 C   0  0  0  0  0  0  0  0  0  0  0  0
  177.8140   22.2000   49.2210 C   0  0  0  0  0  0  0  0  0  0  0  0
  177.8350   21.7500   47.9060 O   0  0  0  0  0  0  0  0  0  0  0  0
  178.9880   21.2000   47.4090 C   0  0  0  0  0  0  0  0  0  0  0  0
  178.9600   20.7500   46.0890 C   0  0  0  0  0  0  0  0  0  0  0  0
  180.1020   20.1810   45.5220 C   0  0  0  0  0  0  0  0  0  0  0  0
  181.2720   20.0620   46.2750 C   0  0  0  0  0  0  0  0  0  0  0  0
  181.2980   20.5110   47.5930 C   0  0  0  0  0  0  0  0  0  0  0  0
  182.4760   20.3640   48.2730 O   0  0  0  0  0  0  0  0  0  0  0  0
  180.1550   21.0800   48.1600 C   0  0  0  0  0  0  0  0  0  0  0  0
  180.1390   21.5660   49.5400 C   0  0  0  0  0  0  0  0  0  0  0  0
  181.1310   21.5020   50.2640 O   0  0  0  0  0  0  0  0  0  0  0  0
  178.8750   22.1460   50.0480 C   0  0  0  0  0  0  0  0  0  0  0  0
  178.8760   22.6140   51.3500 O   0  0  0  0  0  0  0  0  0  0  0  0
  175.3710   21.9670   49.7650 C   0  0  0  0  0  0  0  0  0  0  0  0
  174.1390   22.5320   50.1130 C   0  0  0  0  0  0  0  0  0  0  0  0
  174.0040   23.9150   50.3070 C   0  0  0  0  0  0  0  0  0  0  0  0
  172.7760   24.5080   50.6720 N   0  0  0  0  0  0  0  0  0  0  0  0
  171.8430   24.6660   49.5460 C   0  0  0  0  0  0  0  0  0  0  0  0
  170.6590   25.5230   49.9970 C   0  0  0  0  0  0  0  0  0  0  0  0
  169.9840   24.9220   51.2290 C   0  0  0  0  0  0  0  0  0  0  0  0
  171.0000   24.6750   52.3440 C   0  0  0  0  0  0  0  0  0  0  0  0
  172.1820   23.8440   51.8440 C   0  0  0  0  0  0  0  0  0  0  0  0
  175.0373   26.4477   51.4233 H   0  0  0  0  0  0  0  0  0  0  0  0
  175.9215   26.7060   49.8812 H   0  0  0  0  0  0  0  0  0  0  0  0
  174.1285   26.5977   49.8812 H   0  0  0  0  0  0  0  0  0  0  0  0
  177.2557   24.7986   49.6735 H   0  0  0  0  0  0  0  0  0  0  0  0
  178.0388   20.8434   45.4951 H   0  0  0  0  0  0  0  0  0  0  0  0
  180.0801   19.8261   44.4811 H   0  0  0  0  0  0  0  0  0  0  0  0
  182.1717   19.6143   45.8278 H   0  0  0  0  0  0  0  0  0  0  0  0
  183.2620   20.7480   47.9370 H   0  0  0  0  0  0  0  0  0  0  0  0
  179.5150   23.2440   51.6200 H   0  0  0  0  0  0  0  0  0  0  0  0
  175.4466   20.8807   49.6093 H   0  0  0  0  0  0  0  0  0  0  0  0
  173.2613   21.8806   50.2366 H   0  0  0  0  0  0  0  0  0  0  0  0
  172.3569   25.1589   48.7076 H   0  0  0  0  0  0  0  0  0  0  0  0
  171.4842   23.6788   49.2193 H   0  0  0  0  0  0  0  0  0  0  0  0
  171.0190   26.5333   50.2413 H   0  0  0  0  0  0  0  0  0  0  0  0
  169.9240   25.5622   49.1795 H   0  0  0  0  0  0  0  0  0  0  0  0
  169.2132   25.6176   51.5922 H   0  0  0  0  0  0  0  0  0  0  0  0
  169.5322   23.9596   50.9468 H   0  0  0  0  0  0  0  0  0  0  0  0
  171.3721   25.6430   52.7107 H   0  0  0  0  0  0  0  0  0  0  0  0
  170.5013   24.1188   53.1514 H   0  0  0  0  0  0  0  0  0  0  0  0
  172.9358   23.7591   52.6406 H   0  0  0  0  0  0  0  0  0  0  0  0
  171.8359   22.8381   51.5642 H   0  0  0  0  0  0  0  0  0  0  0  0
  1  2  1  0
  2  3  2  0
  3  4  1  0
  4  5  1  0
  5  6  1  0
  6  7  1  0
  7  8  2  0
  8  9  1  0
  9 10  2  0
 10 11  1  0
 11 12  1  0
 11 13  2  0
 13 14  1  0
 14 15  2  0
 14 16  1  0
 16 17  1  0
  4 18  2  0
 18 19  1  0
 19 20  2  0
 20 21  1  0
 21 22  1  0
 22 23  1  0
 23 24  1  0
 24 25  1  0
 25 26  1  0
 20  2  1  0
 26 21  1  0
 16  5  2  0
 13  7  1  0
  1 27  1  0
  1 28  1  0
  1 29  1  0
  3 30  1  0
  8 31  1  0
  9 32  1  0
 10 33  1  0
 12 34  1  0
 17 35  1  0
 18 36  1  0
 19 37  1  0
 22 38  1  0
 22 39  1  0
 23 40  1  0
 23 41  1  0
 24 42  1  0
 24 43  1  0
 25 44  1  0
 25 45  1  0
 26 46  1  0
 26 47  1  0
M  END
>  <meeko>  (5) 
{"is_sidechain": [false], "free_energy": -7.423, "intermolecular_energy": -8.54, "internal_energy": -0.623}

$$$$
cand_023_out
     RDKit          3D

 47 50  0  0  0  0  0  0  0  0999 V2000
  176.3000   22.9560   53.0030 C   0  0  0  0  0  0  0  0  0  0  0  0
  176.3010   23.1620   51.5120 C   0  0  0  0  0  0  0  0  0  0  0  0
  177.4210   22.7670   50.7590 C   0  0  0  0  0  0  0  0  0  0  0  0
  177.4630   22.9350   49.3660 C   0  0  0  0  0  0  0  0  0  0  0  0
  178.6690   22.5330   48.6120 C   0  0  0  0  0  0  0  0  0  0  0  0
  178.4960   21.3470   47.9080 O   0  0  0  0  0  0  0  0  0  0  0  0
  179.5370   20.8590   47.1620 C   0  0  0  0  0  0  0  0  0  0  0  0
  179.3230   19.6590   46.4830 C   0  0  0  0  0  0  0  0  0  0  0  0
  180.3420   19.1080   45.7040 C   0  0  0  0  0  0  0  0  0  0  0  0
  181.5750   19.7560   45.6030 C   0  0  0  0  0  0  0  0  0  0  0  0
  181.7870   20.9530   46.2820 C   0  0  0  0  0  0  0  0  0  0  0  0
  183.0170   21.5350   46.1400 O   0  0  0  0  0  0  0  0  0  0  0  0
  180.7660   21.5040   47.0630 C   0  0  0  0  0  0  0  0  0  0  0  0
  180.9460   22.7610   47.7910 C   0  0  0  0  0  0  0  0  0  0  0  0
  182.0000   23.3930   47.7470 O   0  0  0  0  0  0  0  0  0  0  0  0
  179.8050   23.2560   48.5950 C   0  0  0  0  0  0  0  0  0  0  0  0
  179.9820   24.4510   49.2690 O   0  0  0  0  0  0  0  0  0  0  0  0
  176.3620   23.5230   48.7360 C   0  0  0  0  0  0  0  0  0  0  0  0
  175.2420   23.9170   49.4750 C   0  0  0  0  0  0  0  0  0  0  0  0
  175.1940   23.7470   50.8680 C   0  0  0  0  0  0  0  0  0  0  0  0
  174.0700   24.1230   51.6340 N   0  0  0  0  0  0  0  0  0  0  0  0
  173.8240   25.5730   51.6420 C   0  0  0  0  0  0  0  0  0  0  0  0
  172.7450   25.8900   52.6790 C   0  0  0  0  0  0  0  0  0  0  0  0
  171.4730   25.0870   52.4110 C   0  0  0  0  0  0  0  0  0  0  0  0
  171.7800   23.5940   52.3070 C   0  0  0  0  0  0  0  0  0  0  0  0
  172.8840   23.3240   51.2840 C   0  0  0  0  0  0  0  0  0  0  0  0
  176.3047   23.9331   53.5082 H   0  0  0  0  0  0  0  0  0  0  0  0
  175.3992   22.3965   53.2952 H   0  0  0  0  0  0  0  0  0  0  0  0
  177.1954   22.3878   53.2952 H   0  0  0  0  0  0  0  0  0  0  0  0
  178.2830   22.3165   51.2728 H   0  0  0  0  0  0  0  0  0  0  0  0
  178.3523   19.1476   46.5615 H   0  0  0  0  0  0  0  0  0  0  0  0
  180.1735   18.1619   45.1688 H   0  0  0  0  0  0  0  0  0  0  0  0
  182.3771   19.3216   44.9882 H   0  0  0  0  0  0  0  0  0  0  0  0
  183.0990   22.4680   46.1650 H   0  0  0  0  0  0  0  0  0  0  0  0
  180.3650   24.4530   50.1240 H   0  0  0  0  0  0  0  0  0  0  0  0
  176.3769   23.6774   47.6470 H   0  0  0  0  0  0  0  0  0  0  0  0
  174.3835   24.3680   48.9558 H   0  0  0  0  0  0  0  0  0  0  0  0
  174.7522   26.1030   51.9019 H   0  0  0  0  0  0  0  0  0  0  0  0
  173.4889   25.8983   50.6461 H   0  0  0  0  0  0  0  0  0  0  0  0
  173.1242   25.6389   53.6806 H   0  0  0  0  0  0  0  0  0  0  0  0
  172.5025   26.9610   52.6152 H   0  0  0  0  0  0  0  0  0  0  0  0
  170.7632   25.2518   53.2350 H   0  0  0  0  0  0  0  0  0  0  0  0
  171.0407   25.4232   51.4571 H   0  0  0  0  0  0  0  0  0  0  0  0
  172.1054   23.2256   53.2911 H   0  0  0  0  0  0  0  0  0  0  0  0
  170.8679   23.0739   51.9791 H   0  0  0  0  0  0  0  0  0  0  0  0
  173.1434   22.2551   51.2953 H   0  0  0  0  0  0  0  0  0  0  0  0
  172.5338   23.6008   50.2786 H   0  0  0  0  0  0  0  0  0  0  0  0
  1  2  1  0
  2  3  2  0
  3  4  1  0
  4  5  1  0
  5  6  1  0
  6  7  1  0
  7  8  2  0
  8  9  1  0
  9 10  2  0
 10 11  1  0
 11 12  1  0
 11 13  2  0
 13 14  1  0
 14 15  2  0
 14 16  1  0
 16 17  1  0
  4 18  2  0
 18 19  1  0
 19 20  2  0
 20 21  1  0
 21 22  1  0
 22 23  1  0
 23 24  1  0
 24 25  1  0
 25 26  1  0
 20  2  1  0
 26 21  1  0
 16  5  2  0
 13  7  1  0
  1 27  1  0
  1 28  1  0
  1 29  1  0
  3 30  1  0
  8 31  1  0
  9 32  1  0
 10 33  1  0
 12 34  1  0
 17 35  1  0
 18 36  1  0
 19 37  1  0
 22 38  1  0
 22 39  1  0
 23 40  1  0
 23 41  1  0
 24 42  1  0
 24 43  1  0
 25 44  1  0
 25 45  1  0
 26 46  1  0
 26 47  1  0
M  END
>  <meeko>  (6) 
{"is_sidechain": [false], "free_energy": -7.411, "intermolecular_energy": -8.459, "internal_energy": -0.69}

$$$$
cand_023_out
     RDKit          3D

 47 50  0  0  0  0  0  0  0  0999 V2000
  175.6920   25.3580   50.3110 C   0  0  0  0  0  0  0  0  0  0  0  0
  175.4680   24.0320   49.6350 C   0  0  0  0  0  0  0  0  0  0  0  0
  176.5550   23.3650   49.0420 C   0  0  0  0  0  0  0  0  0  0  0  0
  176.3930   22.1250   48.4060 C   0  0  0  0  0  0  0  0  0  0  0  0
  177.5530   21.4670   47.7690 C   0  0  0  0  0  0  0  0  0  0  0  0
  178.7250   22.2060   47.8850 O   0  0  0  0  0  0  0  0  0  0  0  0
  179.8800   21.7110   47.3400 C   0  0  0  0  0  0  0  0  0  0  0  0
  181.0290   22.4930   47.4680 C   0  0  0  0  0  0  0  0  0  0  0  0
  182.2400   22.0450   46.9360 C   0  0  0  0  0  0  0  0  0  0  0  0
  182.3030   20.8160   46.2770 C   0  0  0  0  0  0  0  0  0  0  0  0
  181.1560   20.0370   46.1490 C   0  0  0  0  0  0  0  0  0  0  0  0
  181.2880   18.8450   45.4920 O   0  0  0  0  0  0  0  0  0  0  0  0
  179.9440   20.4860   46.6820 C   0  0  0  0  0  0  0  0  0  0  0  0
  178.7150   19.6990   46.5710 C   0  0  0  0  0  0  0  0  0  0  0  0
  178.6920   18.6040   46.0110 O   0  0  0  0  0  0  0  0  0  0  0  0
  177.4820   20.2670   47.1630 C   0  0  0  0  0  0  0  0  0  0  0  0
  176.3300   19.5080   47.0640 O   0  0  0  0  0  0  0  0  0  0  0  0
  175.1120   21.5650   48.3600 C   0  0  0  0  0  0  0  0  0  0  0  0
  174.0250   22.2190   48.9490 C   0  0  0  0  0  0  0  0  0  0  0  0
  174.1830   23.4570   49.5900 C   0  0  0  0  0  0  0  0  0  0  0  0
  173.1050   24.1300   50.2040 N   0  0  0  0  0  0  0  0  0  0  0  0
  172.1150   24.6490   49.2470 C   0  0  0  0  0  0  0  0  0  0  0  0
  171.1310   25.5530   49.9900 C   0  0  0  0  0  0  0  0  0  0  0  0
  170.4770   24.8140   51.1560 C   0  0  0  0  0  0  0  0  0  0  0  0
  171.5320   24.2000   52.0750 C   0  0  0  0  0  0  0  0  0  0  0  0
  172.5140   23.3300   51.2890 C   0  0  0  0  0  0  0  0  0  0  0  0
  175.6690   25.2217   51.4023 H   0  0  0  0  0  0  0  0  0  0  0  0
  176.6710   25.7611   50.0124 H   0  0  0  0  0  0  0  0  0  0  0  0
  174.8998   26.0603   50.0124 H   0  0  0  0  0  0  0  0  0  0  0  0
  177.5534   23.8253   49.0776 H   0  0  0  0  0  0  0  0  0  0  0  0
  180.9807   23.4614   47.9875 H   0  0  0  0  0  0  0  0  0  0  0  0
  183.1455   22.6614   47.0364 H   0  0  0  0  0  0  0  0  0  0  0  0
  183.2576   20.4634   45.8593 H   0  0  0  0  0  0  0  0  0  0  0  0
  180.5350   18.4280   45.1230 H   0  0  0  0  0  0  0  0  0  0  0  0
  175.5220   19.9130   46.8160 H   0  0  0  0  0  0  0  0  0  0  0  0
  174.9579   20.5999   47.8552 H   0  0  0  0  0  0  0  0  0  0  0  0
  173.0287   21.7546   48.9090 H   0  0  0  0  0  0  0  0  0  0  0  0
  172.6271   25.2267   48.4634 H   0  0  0  0  0  0  0  0  0  0  0  0
  171.5729   23.8122   48.7824 H   0  0  0  0  0  0  0  0  0  0  0  0
  171.6709   26.4294   50.3778 H   0  0  0  0  0  0  0  0  0  0  0  0
  170.3434   25.8634   49.2876 H   0  0  0  0  0  0  0  0  0  0  0  0
  169.8653   25.5227   51.7335 H   0  0  0  0  0  0  0  0  0  0  0  0
  169.8506   24.0052   50.7516 H   0  0  0  0  0  0  0  0  0  0  0  0
  172.0880   25.0082   52.5726 H   0  0  0  0  0  0  0  0  0  0  0  0
  171.0217   23.5662   52.8152 H   0  0  0  0  0  0  0  0  0  0  0  0
  173.3099   22.9746   51.9601 H   0  0  0  0  0  0  0  0  0  0  0  0
  171.9843   22.4643   50.8647 H   0  0  0  0  0  0  0  0  0  0  0  0
  1  2  1  0
  2  3  2  0
  3  4  1  0
  4  5  1  0
  5  6  1  0
  6  7  1  0
  7  8  2  0
  8  9  1  0
  9 10  2  0
 10 11  1  0
 11 12  1  0
 11 13  2  0
 13 14  1  0
 14 15  2  0
 14 16  1  0
 16 17  1  0
  4 18  2  0
 18 19  1  0
 19 20  2  0
 20 21  1  0
 21 22  1  0
 22 23  1  0
 23 24  1  0
 24 25  1  0
 25 26  1  0
 20  2  1  0
 26 21  1  0
 16  5  2  0
 13  7  1  0
  1 27  1  0
  1 28  1  0
  1 29  1  0
  3 30  1  0
  8 31  1  0
  9 32  1  0
 10 33  1  0
 12 34  1  0
 17 35  1  0
 18 36  1  0
 19 37  1  0
 22 38  1  0
 22 39  1  0
 23 40  1  0
 23 41  1  0
 24 42  1  0
 24 43  1  0
 25 44  1  0
 25 45  1  0
 26 46  1  0
 26 47  1  0
M  END
>  <meeko>  (7) 
{"is_sidechain": [false], "free_energy": -7.403, "intermolecular_energy": -9.064, "internal_energy": -0.075}

$$$$
cand_023_out
     RDKit          3D

 47 50  0  0  0  0  0  0  0  0999 V2000
  179.0680   24.0630   47.3960 C   0  0  0  0  0  0  0  0  0  0  0  0
  178.0730   23.0880   47.9650 C   0  0  0  0  0  0  0  0  0  0  0  0
  177.0000   23.5660   48.7390 C   0  0  0  0  0  0  0  0  0  0  0  0
  176.0460   22.6940   49.2860 C   0  0  0  0  0  0  0  0  0  0  0  0
  174.9480   23.2310   50.1170 C   0  0  0  0  0  0  0  0  0  0  0  0
  173.8940   23.7320   49.3620 O   0  0  0  0  0  0  0  0  0  0  0  0
  172.8060   24.2600   50.0070 C   0  0  0  0  0  0  0  0  0  0  0  0
  171.7780   24.7640   49.2090 C   0  0  0  0  0  0  0  0  0  0  0  0
  170.6410   25.3140   49.8040 C   0  0  0  0  0  0  0  0  0  0  0  0
  170.5310   25.3620   51.1950 C   0  0  0  0  0  0  0  0  0  0  0  0
  171.5590   24.8590   51.9890 C   0  0  0  0  0  0  0  0  0  0  0  0
  171.3870   24.9360   53.3440 O   0  0  0  0  0  0  0  0  0  0  0  0
  172.6970   24.3080   51.3940 C   0  0  0  0  0  0  0  0  0  0  0  0
  173.7990   23.7680   52.1910 C   0  0  0  0  0  0  0  0  0  0  0  0
  173.7740   23.7680   53.4210 O   0  0  0  0  0  0  0  0  0  0  0  0
  174.9630   23.2130   51.4630 C   0  0  0  0  0  0  0  0  0  0  0  0
  175.9930   22.6940   52.2270 O   0  0  0  0  0  0  0  0  0  0  0  0
  176.1930   21.3220   49.0550 C   0  0  0  0  0  0  0  0  0  0  0  0
  177.2540   20.8360   48.2850 C   0  0  0  0  0  0  0  0  0  0  0  0
  178.2080   21.7050   47.7330 C   0  0  0  0  0  0  0  0  0  0  0  0
  179.2800   21.2420   46.9410 N   0  0  0  0  0  0  0  0  0  0  0  0
  180.3610   20.6210   47.7220 C   0  0  0  0  0  0  0  0  0  0  0  0
  181.5600   20.3750   46.8050 C   0  0  0  0  0  0  0  0  0  0  0  0
  181.1620   19.5310   45.5950 C   0  0  0  0  0  0  0  0  0  0  0  0
  179.9700   20.1500   44.8650 C   0  0  0  0  0  0  0  0  0  0  0  0
  178.8070   20.4100   45.8220 C   0  0  0  0  0  0  0  0  0  0  0  0
  179.5905   24.5750   48.2174 H   0  0  0  0  0  0  0  0  0  0  0  0
  179.7990   23.5218   46.7773 H   0  0  0  0  0  0  0  0  0  0  0  0
  178.5418   24.8048   46.7773 H   0  0  0  0  0  0  0  0  0  0  0  0
  176.9066   24.6471   48.9195 H   0  0  0  0  0  0  0  0  0  0  0  0
  171.8634   24.7280   48.1129 H   0  0  0  0  0  0  0  0  0  0  0  0
  169.8300   25.7104   49.1754 H   0  0  0  0  0  0  0  0  0  0  0  0
  169.6349   25.7959   51.6627 H   0  0  0  0  0  0  0  0  0  0  0  0
  171.6630   25.7010   53.8080 H   0  0  0  0  0  0  0  0  0  0  0  0
  176.8550   22.6260   51.8660 H   0  0  0  0  0  0  0  0  0  0  0  0
  175.4654   20.6175   49.4842 H   0  0  0  0  0  0  0  0  0  0  0  0
  177.3426   19.7538   48.1088 H   0  0  0  0  0  0  0  0  0  0  0  0
  180.6557   21.2920   48.5423 H   0  0  0  0  0  0  0  0  0  0  0  0
  180.0136   19.6662   48.1436 H   0  0  0  0  0  0  0  0  0  0  0  0
  181.9499   21.3425   46.4558 H   0  0  0  0  0  0  0  0  0  0  0  0
  182.3290   19.8311   47.3731 H   0  0  0  0  0  0  0  0  0  0  0  0
  182.0150   19.4689   44.9032 H   0  0  0  0  0  0  0  0  0  0  0  0
  180.8768   18.5280   45.9452 H   0  0  0  0  0  0  0  0  0  0  0  0
  180.2821   21.1031   44.4130 H   0  0  0  0  0  0  0  0  0  0  0  0
  179.6321   19.4447   44.0914 H   0  0  0  0  0  0  0  0  0  0  0  0
  178.0010   20.9346   45.2881 H   0  0  0  0  0  0  0  0  0  0  0  0
  178.4238   19.4537   46.2076 H   0  0  0  0  0  0  0  0  0  0  0  0
  1  2  1  0
  2  3  2  0
  3  4  1  0
  4  5  1  0
  5  6  1  0
  6  7  1  0
  7  8  2  0
  8  9  1  0
  9 10  2  0
 10 11  1  0
 11 12  1  0
 11 13  2  0
 13 14  1  0
 14 15  2  0
 14 16  1  0
 16 17  1  0
  4 18  2  0
 18 19  1  0
 19 20  2  0
 20 21  1  0
 21 22  1  0
 22 23  1  0
 23 24  1  0
 24 25  1  0
 25 26  1  0
 20  2  1  0
 26 21  1  0
 16  5  2  0
 13  7  1  0
  1 27  1  0
  1 28  1  0
  1 29  1  0
  3 30  1  0
  8 31  1  0
  9 32  1  0
 10 33  1  0
 12 34  1  0
 17 35  1  0
 18 36  1  0
 19 37  1  0
 22 38  1  0
 22 39  1  0
 23 40  1  0
 23 41  1  0
 24 42  1  0
 24 43  1  0
 25 44  1  0
 25 45  1  0
 26 46  1  0
 26 47  1  0
M  END
>  <meeko>  (8) 
{"is_sidechain": [false], "free_energy": -7.359, "intermolecular_energy": -8.394, "internal_energy": -0.693}

$$$$
cand_023_out
     RDKit          3D

 47 50  0  0  0  0  0  0  0  0999 V2000
  171.7770   24.2280   49.0670 C   0  0  0  0  0  0  0  0  0  0  0  0
  173.0590   23.7480   49.6940 C   0  0  0  0  0  0  0  0  0  0  0  0
  173.9530   22.9730   48.9340 C   0  0  0  0  0  0  0  0  0  0  0  0
  175.1610   22.5080   49.4760 C   0  0  0  0  0  0  0  0  0  0  0  0
  176.0630   21.6730   48.6550 C   0  0  0  0  0  0  0  0  0  0  0  0
  177.3470   22.1970   48.5580 O   0  0  0  0  0  0  0  0  0  0  0  0
  178.2880   21.5210   47.8260 C   0  0  0  0  0  0  0  0  0  0  0  0
  179.5590   22.0920   47.7450 C   0  0  0  0  0  0  0  0  0  0  0  0
  180.5640   21.4520   47.0170 C   0  0  0  0  0  0  0  0  0  0  0  0
  180.3000   20.2430   46.3700 C   0  0  0  0  0  0  0  0  0  0  0  0
  179.0300   19.6760   46.4520 C   0  0  0  0  0  0  0  0  0  0  0  0
  178.8390   18.4910   45.7950 O   0  0  0  0  0  0  0  0  0  0  0  0
  178.0240   20.3160   47.1810 C   0  0  0  0  0  0  0  0  0  0  0  0
  176.6770   19.7550   47.2940 C   0  0  0  0  0  0  0  0  0  0  0  0
  176.3690   18.6910   46.7590 O   0  0  0  0  0  0  0  0  0  0  0  0
  175.6820   20.5150   48.0840 C   0  0  0  0  0  0  0  0  0  0  0  0
  174.4160   19.9670   48.1940 O   0  0  0  0  0  0  0  0  0  0  0  0
  175.4560   22.8230   50.8060 C   0  0  0  0  0  0  0  0  0  0  0  0
  174.5740   23.5950   51.5700 C   0  0  0  0  0  0  0  0  0  0  0  0
  173.3670   24.0650   51.0310 C   0  0  0  0  0  0  0  0  0  0  0  0
  172.4680   24.8580   51.7750 N   0  0  0  0  0  0  0  0  0  0  0  0
  171.7900   24.1210   52.8530 C   0  0  0  0  0  0  0  0  0  0  0  0
  170.6790   24.9980   53.4330 C   0  0  0  0  0  0  0  0  0  0  0  0
  171.2300   26.3410   53.9080 C   0  0  0  0  0  0  0  0  0  0  0  0
  172.0160   27.0340   52.7950 C   0  0  0  0  0  0  0  0  0  0  0  0
  173.0940   26.1140   52.2210 C   0  0  0  0  0  0  0  0  0  0  0  0
  171.0604   24.4963   49.8572 H   0  0  0  0  0  0  0  0  0  0  0  0
  171.9819   25.1103   48.4429 H   0  0  0  0  0  0  0  0  0  0  0  0
  171.3521   23.4281   48.4429 H   0  0  0  0  0  0  0  0  0  0  0  0
  173.7000   22.7260   47.8924 H   0  0  0  0  0  0  0  0  0  0  0  0
  179.7686   23.0445   48.2538 H   0  0  0  0  0  0  0  0  0  0  0  0
  181.5660   21.9012   46.9530 H   0  0  0  0  0  0  0  0  0  0  0  0
  181.0927   19.7396   45.7971 H   0  0  0  0  0  0  0  0  0  0  0  0
  178.2220   18.4390   45.0930 H   0  0  0  0  0  0  0  0  0  0  0  0
  174.1830   19.4800   48.9600 H   0  0  0  0  0  0  0  0  0  0  0  0
  176.3915   22.4600   51.2565 H   0  0  0  0  0  0  0  0  0  0  0  0
  174.8315   23.8377   52.6115 H   0  0  0  0  0  0  0  0  0  0  0  0
  171.3558   23.1942   52.4498 H   0  0  0  0  0  0  0  0  0  0  0  0
  172.5133   23.8671   53.6419 H   0  0  0  0  0  0  0  0  0  0  0  0
  169.9195   25.1754   52.6573 H   0  0  0  0  0  0  0  0  0  0  0  0
  170.2369   24.4771   54.2951 H   0  0  0  0  0  0  0  0  0  0  0  0
  170.3927   26.9861   54.2127 H   0  0  0  0  0  0  0  0  0  0  0  0
  171.9067   26.1623   54.7566 H   0  0  0  0  0  0  0  0  0  0  0  0
  171.3223   27.3189   51.9903 H   0  0  0  0  0  0  0  0  0  0  0  0
  172.5071   27.9228   53.2180 H   0  0  0  0  0  0  0  0  0  0  0  0
  173.5816   26.6062   51.3666 H   0  0  0  0  0  0  0  0  0  0  0  0
  173.8472   25.8988   52.9932 H   0  0  0  0  0  0  0  0  0  0  0  0
  1  2  1  0
  2  3  2  0
  3  4  1  0
  4  5  1  0
  5  6  1  0
  6  7  1  0
  7  8  2  0
  8  9  1  0
  9 10  2  0
 10 11  1  0
 11 12  1  0
 11 13  2  0
 13 14  1  0
 14 15  2  0
 14 16  1  0
 16 17  1  0
  4 18  2  0
 18 19  1  0
 19 20  2  0
 20 21  1  0
 21 22  1  0
 22 23  1  0
 23 24  1  0
 24 25  1  0
 25 26  1  0
 20  2  1  0
 26 21  1  0
 16  5  2  0
 13  7  1  0
  1 27  1  0
  1 28  1  0
  1 29  1  0
  3 30  1  0
  8 31  1  0
  9 32  1  0
 10 33  1  0
 12 34  1  0
 17 35  1  0
 18 36  1  0
 19 37  1  0
 22 38  1  0
 22 39  1  0
 23 40  1  0
 23 41  1  0
 24 42  1  0
 24 43  1  0
 25 44  1  0
 25 45  1  0
 26 46  1  0
 26 47  1  0
M  END
>  <meeko>  (9) 
{"is_sidechain": [false], "free_energy": -7.356, "intermolecular_energy": -8.564, "internal_energy": -0.519}

$$$$
