cand_034_out
     RDKit          3D

 40 42  0  0  0  0  0  0  0  0999 V2000
  180.5300   15.2820   41.6110 C   0  0  0  0  0  0  0  0  0  0  0  0
  181.2140   15.3260   42.9070 N   0  0  0  0  0  0  0  0  0  0  0  0
  182.6700   15.1490   42.8110 C   0  0  0  0  0  0  0  0  0  0  0  0
  180.8950   16.4460   43.7050 C   0  0  0  0  0  0  0  0  0  0  0  0
  181.3160   17.7440   43.3740 C   0  0  0  0  0  0  0  0  0  0  0  0
  181.0080   18.8380   44.1920 C   0  0  0  0  0  0  0  0  0  0  0  0
  180.2700   18.6690   45.3660 C   0  0  0  0  0  0  0  0  0  0  0  0
  179.9590   19.8020   46.2640 C   0  0  0  0  0  0  0  0  0  0  0  0
  178.6040   20.1140   46.2920 O   0  0  0  0  0  0  0  0  0  0  0  0
  178.1780   21.1500   47.0830 C   0  0  0  0  0  0  0  0  0  0  0  0
  176.8090   21.4200   47.0880 C   0  0  0  0  0  0  0  0  0  0  0  0
  176.3080   22.4630   47.8700 C   0  0  0  0  0  0  0  0  0  0  0  0
  177.1750   23.2340   48.6460 C   0  0  0  0  0  0  0  0  0  0  0  0
  178.5410   22.9630   48.6390 C   0  0  0  0  0  0  0  0  0  0  0  0
  179.3330   23.7580   49.4210 O   0  0  0  0  0  0  0  0  0  0  0  0
  179.0420   21.9190   47.8560 C   0  0  0  0  0  0  0  0  0  0  0  0
  180.4690   21.6000   47.8180 C   0  0  0  0  0  0  0  0  0  0  0  0
  181.2960   22.2370   48.4680 O   0  0  0  0  0  0  0  0  0  0  0  0
  180.8970   20.4720   46.9600 C   0  0  0  0  0  0  0  0  0  0  0  0
  182.2510   20.1900   46.9190 O   0  0  0  0  0  0  0  0  0  0  0  0
  179.8600   17.3730   45.7080 C   0  0  0  0  0  0  0  0  0  0  0  0
  180.1550   16.2650   44.8890 C   0  0  0  0  0  0  0  0  0  0  0  0
  179.6890   14.8950   45.3090 C   0  0  0  0  0  0  0  0  0  0  0  0
  180.7230   14.0170   45.4840 F   0  0  0  0  0  0  0  0  0  0  0  0
  178.8810   14.3110   44.3770 F   0  0  0  0  0  0  0  0  0  0  0  0
  179.4440   15.2121   41.7717 H   0  0  0  0  0  0  0  0  0  0  0  0
  180.7587   16.1967   41.0444 H   0  0  0  0  0  0  0  0  0  0  0  0
  180.8740   14.4041   41.0444 H   0  0  0  0  0  0  0  0  0  0  0  0
  183.1004   15.0967   43.8219 H   0  0  0  0  0  0  0  0  0  0  0  0
  182.8912   14.2174   42.2696 H   0  0  0  0  0  0  0  0  0  0  0  0
  183.1080   16.0005   42.2696 H   0  0  0  0  0  0  0  0  0  0  0  0
  181.8987   17.9045   42.4549 H   0  0  0  0  0  0  0  0  0  0  0  0
  181.3515   19.8432   43.9065 H   0  0  0  0  0  0  0  0  0  0  0  0
  176.1255   20.8123   46.4769 H   0  0  0  0  0  0  0  0  0  0  0  0
  175.2291   22.6771   47.8744 H   0  0  0  0  0  0  0  0  0  0  0  0
  176.7797   24.0548   49.2624 H   0  0  0  0  0  0  0  0  0  0  0  0
  180.0270   23.3780   49.9240 H   0  0  0  0  0  0  0  0  0  0  0  0
  182.8190   20.7050   46.3810 H   0  0  0  0  0  0  0  0  0  0  0  0
  179.2942   17.2171   46.6384 H   0  0  0  0  0  0  0  0  0  0  0  0
  179.1535   15.0768   46.2525 H   0  0  0  0  0  0  0  0  0  0  0  0
  1  2  1  0
  2  3  1  0
  2  4  1  0
  4  5  2  0
  5  6  1  0
  6  7  2  0
  7  8  1  0
  8  9  1  0
  9 10  1  0
 10 11  2  0
 11 12  1  0
 12 13  2  0
 13 14  1  0
 14 15  1  0
 14 16  2  0
 16 17  1  0
 17 18  2  0
 17 19  1  0
 19 20  1  0
  7 21  1  0
 21 22  2  0
 22 23  1  0
 23 24  1  0
 23 25  1  0
 22  4  1  0
 19  8  2  0
 16 10  1  0
  1 26  1  0
  1 27  1  0
  1 28  1  0
  3 29  1  0
  3 30  1  0
  3 31  1  0
  5 32  1  0
  6 33  1  0
 11 34  1  0
 12 35  1  0
 13 36  1  0
 15 37  1  0
 20 38  1  0
 21 39  1  0
 23 40  1  0
M  END
>  <meeko>  (1) 
{"is_sidechain": [false], "free_energy": -7.934, "intermolecular_energy": -9.789, "internal_energy": -0.397}

$$$$
cand_034_out
     RDKit          3D

 40 42  0  0  0  0  0  0  0  0999 V2000
  175.8400   21.8210   49.9400 C   0  0  0  0  0  0  0  0  0  0  0  0
  176.4080   22.3480   48.6950 N   0  0  0  0  0  0  0  0  0  0  0  0
  177.0730   23.6500   48.8550 C   0  0  0  0  0  0  0  0  0  0  0  0
  177.2370   21.4440   47.9940 C   0  0  0  0  0  0  0  0  0  0  0  0
  178.6370   21.5240   48.0390 C   0  0  0  0  0  0  0  0  0  0  0  0
  179.4390   20.6310   47.3190 C   0  0  0  0  0  0  0  0  0  0  0  0
  178.8670   19.6300   46.5310 C   0  0  0  0  0  0  0  0  0  0  0  0
  179.6900   18.6950   45.7340 C   0  0  0  0  0  0  0  0  0  0  0  0
  179.1950   17.3960   45.7450 O   0  0  0  0  0  0  0  0  0  0  0  0
  179.8670   16.4240   45.0490 C   0  0  0  0  0  0  0  0  0  0  0  0
  179.3290   15.1370   45.0800 C   0  0  0  0  0  0  0  0  0  0  0  0
  179.9640   14.1000   44.3920 C   0  0  0  0  0  0  0  0  0  0  0  0
  181.1360   14.3500   43.6760 C   0  0  0  0  0  0  0  0  0  0  0  0
  181.6710   15.6350   43.6470 C   0  0  0  0  0  0  0  0  0  0  0  0
  182.8210   15.8110   42.9270 O   0  0  0  0  0  0  0  0  0  0  0  0
  181.0350   16.6730   44.3350 C   0  0  0  0  0  0  0  0  0  0  0  0
  181.5630   18.0370   44.3320 C   0  0  0  0  0  0  0  0  0  0  0  0
  182.5930   18.3350   43.7310 O   0  0  0  0  0  0  0  0  0  0  0  0
  180.8120   19.0650   45.0890 C   0  0  0  0  0  0  0  0  0  0  0  0
  181.3300   20.3470   45.0920 O   0  0  0  0  0  0  0  0  0  0  0  0
  177.4680   19.5550   46.4710 C   0  0  0  0  0  0  0  0  0  0  0  0
  176.6500   20.4410   47.2000 C   0  0  0  0  0  0  0  0  0  0  0  0
  175.1520   20.3130   47.0960 C   0  0  0  0  0  0  0  0  0  0  0  0
  174.7580   19.0850   46.6380 F   0  0  0  0  0  0  0  0  0  0  0  0
  174.6120   21.2080   46.2180 F   0  0  0  0  0  0  0  0  0  0  0  0
  176.3434   22.2881   50.7993 H   0  0  0  0  0  0  0  0  0  0  0  0
  174.7644   22.0482   49.9773 H   0  0  0  0  0  0  0  0  0  0  0  0
  175.9861   20.7314   49.9773 H   0  0  0  0  0  0  0  0  0  0  0  0
  177.1875   23.8741   49.9258 H   0  0  0  0  0  0  0  0  0  0  0  0
  178.0643   23.6163   48.3794 H   0  0  0  0  0  0  0  0  0  0  0  0
  176.4646   24.4334   48.3794 H   0  0  0  0  0  0  0  0  0  0  0  0
  179.1134   22.3034   48.6518 H   0  0  0  0  0  0  0  0  0  0  0  0
  180.5341   20.7188   47.3746 H   0  0  0  0  0  0  0  0  0  0  0  0
  178.4063   14.9391   45.6453 H   0  0  0  0  0  0  0  0  0  0  0  0
  179.5399   13.0853   44.4145 H   0  0  0  0  0  0  0  0  0  0  0  0
  181.6361   13.5329   43.1355 H   0  0  0  0  0  0  0  0  0  0  0  0
  183.3430   15.0690   42.6900 H   0  0  0  0  0  0  0  0  0  0  0  0
  181.5150   20.7790   44.2820 H   0  0  0  0  0  0  0  0  0  0  0  0
  176.9980   18.7863   45.8399 H   0  0  0  0  0  0  0  0  0  0  0  0
  174.8010   20.4902   48.1233 H   0  0  0  0  0  0  0  0  0  0  0  0
  1  2  1  0
  2  3  1  0
  2  4  1  0
  4  5  2  0
  5  6  1  0
  6  7  2  0
  7  8  1  0
  8  9  1  0
  9 10  1  0
 10 11  2  0
 11 12  1  0
 12 13  2  0
 13 14  1  0
 14 15  1  0
 14 16  2  0
 16 17  1  0
 17 18  2  0
 17 19  1  0
 19 20  1  0
  7 21  1  0
 21 22  2  0
 22 23  1  0
 23 24  1  0
 23 25  1  0
 22  4  1  0
 19  8  2  0
 16 10  1  0
  1 26  1  0
  1 27  1  0
  1 28  1  0
  3 29  1  0
  3 30  1  0
  3 31  1  0
  5 32  1  0
  6 33  1  0
 11 34  1  0
 12 35  1  0
 13 36  1  0
 15 37  1  0
 20 38  1  0
 21 39  1  0
 23 40  1  0
M  END
>  <meeko>  (2) 
{"is_sidechain": [false], "free_energy": -7.064, "intermolecular_energy": -9.077, "internal_energy": -0.037}

$$$$
cand_034_out
     RDKit          3D

 40 42  0  0  0  0  0  0  0  0999 V2000
  175.1250   22.7940   48.2760 C   0  0  0  0  0  0  0  0  0  0  0  0
  175.9590   21.8320   49.0040 N   0  0  0  0  0  0  0  0  0  0  0  0
  175.2080   21.0140   49.9680 C   0  0  0  0  0  0  0  0  0  0  0  0
  176.7760   21.0210   48.1870 C   0  0  0  0  0  0  0  0  0  0  0  0
  176.3280   19.8020   47.6550 C   0  0  0  0  0  0  0  0  0  0  0  0
  177.1630   19.0030   46.8650 C   0  0  0  0  0  0  0  0  0  0  0  0
  178.4720   19.3980   46.5820 C   0  0  0  0  0  0  0  0  0  0  0  0
  179.3860   18.5570   45.7780 C   0  0  0  0  0  0  0  0  0  0  0  0
  179.0030   17.2210   45.7470 O   0  0  0  0  0  0  0  0  0  0  0  0
  179.7670   16.3280   45.0390 C   0  0  0  0  0  0  0  0  0  0  0  0
  179.3400   15.0000   45.0280 C   0  0  0  0  0  0  0  0  0  0  0  0
  180.0720   14.0390   44.3270 C   0  0  0  0  0  0  0  0  0  0  0  0
  181.2300   14.4060   43.6400 C   0  0  0  0  0  0  0  0  0  0  0  0
  181.6550   15.7320   43.6540 C   0  0  0  0  0  0  0  0  0  0  0  0
  182.7980   16.0230   42.9600 O   0  0  0  0  0  0  0  0  0  0  0  0
  180.9210   16.6940   44.3540 C   0  0  0  0  0  0  0  0  0  0  0  0
  181.3320   18.0980   44.3960 C   0  0  0  0  0  0  0  0  0  0  0  0
  182.3430   18.4970   43.8220 O   0  0  0  0  0  0  0  0  0  0  0  0
  180.4830   19.0370   45.1630 C   0  0  0  0  0  0  0  0  0  0  0  0
  180.8900   20.3590   45.2090 O   0  0  0  0  0  0  0  0  0  0  0  0
  178.9300   20.6080   47.1220 C   0  0  0  0  0  0  0  0  0  0  0  0
  178.0960   21.4260   47.9100 C   0  0  0  0  0  0  0  0  0  0  0  0
  178.6430   22.7150   48.4650 C   0  0  0  0  0  0  0  0  0  0  0  0
  178.3000   23.8030   47.7080 F   0  0  0  0  0  0  0  0  0  0  0  0
  180.0070   22.7280   48.5060 F   0  0  0  0  0  0  0  0  0  0  0  0
  174.5793   23.4235   48.9943 H   0  0  0  0  0  0  0  0  0  0  0  0
  175.7637   23.4284   47.6438 H   0  0  0  0  0  0  0  0  0  0  0  0
  174.4065   22.2517   47.6438 H   0  0  0  0  0  0  0  0  0  0  0  0
  175.4805   21.3108   50.9915 H   0  0  0  0  0  0  0  0  0  0  0  0
  174.1292   21.1670   49.8168 H   0  0  0  0  0  0  0  0  0  0  0  0
  175.4524   19.9522   49.8168 H   0  0  0  0  0  0  0  0  0  0  0  0
  175.3008   19.4679   47.8628 H   0  0  0  0  0  0  0  0  0  0  0  0
  176.7832   18.0524   46.4623 H   0  0  0  0  0  0  0  0  0  0  0  0
  178.4281   14.7101   45.5706 H   0  0  0  0  0  0  0  0  0  0  0  0
  179.7354   12.9918   44.3164 H   0  0  0  0  0  0  0  0  0  0  0  0
  181.8063   13.6488   43.0881 H   0  0  0  0  0  0  0  0  0  0  0  0
  182.8190   16.7580   42.3790 H   0  0  0  0  0  0  0  0  0  0  0  0
  181.1650   20.7350   46.0210 H   0  0  0  0  0  0  0  0  0  0  0  0
  179.9645   20.9263   46.9260 H   0  0  0  0  0  0  0  0  0  0  0  0
  178.2067   22.7733   49.4731 H   0  0  0  0  0  0  0  0  0  0  0  0
  1  2  1  0
  2  3  1  0
  2  4  1  0
  4  5  2  0
  5  6  1  0
  6  7  2  0
  7  8  1  0
  8  9  1  0
  9 10  1  0
 10 11  2  0
 11 12  1  0
 12 13  2  0
 13 14  1  0
 14 15  1  0
 14 16  2  0
 16 17  1  0
 17 18  2  0
 17 19  1  0
 19 20  1  0
  7 21  1  0
 21 22  2  0
 22 23  1  0
 23 24  1  0
 23 25  1  0
 22  4  1  0
 19  8  2  0
 16 10  1  0
  1 26  1  0
  1 27  1  0
  1 28  1  0
  3 29  1  0
  3 30  1  0
  3 31  1  0
  5 32  1  0
  6 33  1  0
 11 34  1  0
 12 35  1  0
 13 36  1  0
 15 37  1  0
 20 38  1  0
 21 39  1  0
 23 40  1  0
M  END
>  <meeko>  (3) 
{"is_sidechain": [false], "free_energy": -5.927, "intermolecular_energy": -7.712, "internal_energy": 0.001}

$$$$
cand_034_out
     RDKit          3D

 40 42  0  0  0  0  0  0  0  0999 V2000
  187.9300   23.0850   45.0840 C   0  0  0  0  0  0  0  0  0  0  0  0
  186.7680   23.9790   45.1210 N   0  0  0  0  0  0  0  0  0  0  0  0
  186.6660   24.8600   43.9480 C   0  0  0  0  0  0  0  0  0  0  0  0
  185.5370   23.3380   45.3770 C   0  0  0  0  0  0  0  0  0  0  0  0
  184.9310   22.4830   44.4430 C   0  0  0  0  0  0  0  0  0  0  0  0
  183.6980   21.8740   44.7080 C   0  0  0  0  0  0  0  0  0  0  0  0
  183.0320   22.1020   45.9150 C   0  0  0  0  0  0  0  0  0  0  0  0
  181.7140   21.4990   46.2070 C   0  0  0  0  0  0  0  0  0  0  0  0
  180.8910   22.3340   46.9520 O   0  0  0  0  0  0  0  0  0  0  0  0
  179.6380   21.8960   47.2980 C   0  0  0  0  0  0  0  0  0  0  0  0
  178.8430   22.7720   48.0380 C   0  0  0  0  0  0  0  0  0  0  0  0
  177.5570   22.3880   48.4240 C   0  0  0  0  0  0  0  0  0  0  0  0
  177.0670   21.1290   48.0700 C   0  0  0  0  0  0  0  0  0  0  0  0
  177.8620   20.2570   47.3330 C   0  0  0  0  0  0  0  0  0  0  0  0
  177.3210   19.0390   47.0210 O   0  0  0  0  0  0  0  0  0  0  0  0
  179.1500   20.6420   46.9460 C   0  0  0  0  0  0  0  0  0  0  0  0
  180.0200   19.7560   46.1710 C   0  0  0  0  0  0  0  0  0  0  0  0
  179.6630   18.6310   45.8280 O   0  0  0  0  0  0  0  0  0  0  0  0
  181.3630   20.2610   45.8090 C   0  0  0  0  0  0  0  0  0  0  0  0
  182.1830   19.4090   45.0900 O   0  0  0  0  0  0  0  0  0  0  0  0
  183.6260   22.9670   46.8450 C   0  0  0  0  0  0  0  0  0  0  0  0
  184.8720   23.5770   46.5940 C   0  0  0  0  0  0  0  0  0  0  0  0
  185.4610   24.4980   47.6300 C   0  0  0  0  0  0  0  0  0  0  0  0
  184.9460   24.2850   48.8800 F   0  0  0  0  0  0  0  0  0  0  0  0
  185.2090   25.8130   47.3630 F   0  0  0  0  0  0  0  0  0  0  0  0
  188.2412   22.8455   46.1115 H   0  0  0  0  0  0  0  0  0  0  0  0
  187.6625   22.1576   44.5564 H   0  0  0  0  0  0  0  0  0  0  0  0
  188.7578   23.5813   44.5564 H   0  0  0  0  0  0  0  0  0  0  0  0
  186.5454   25.9014   44.2810 H   0  0  0  0  0  0  0  0  0  0  0  0
  187.5803   24.7721   43.3428 H   0  0  0  0  0  0  0  0  0  0  0  0
  185.7960   24.5655   43.3428 H   0  0  0  0  0  0  0  0  0  0  0  0
  185.4342   22.2876   43.4846 H   0  0  0  0  0  0  0  0  0  0  0  0
  183.2484   21.2081   43.9568 H   0  0  0  0  0  0  0  0  0  0  0  0
  179.2287   23.7637   48.3169 H   0  0  0  0  0  0  0  0  0  0  0  0
  176.9294   23.0778   49.0074 H   0  0  0  0  0  0  0  0  0  0  0  0
  176.0537   20.8272   48.3735 H   0  0  0  0  0  0  0  0  0  0  0  0
  177.4830   18.3000   47.5730 H   0  0  0  0  0  0  0  0  0  0  0  0
  182.6440   18.7230   45.5310 H   0  0  0  0  0  0  0  0  0  0  0  0
  183.1076   23.1745   47.7928 H   0  0  0  0  0  0  0  0  0  0  0  0
  186.5379   24.2762   47.5962 H   0  0  0  0  0  0  0  0  0  0  0  0
  1  2  1  0
  2  3  1  0
  2  4  1  0
  4  5  2  0
  5  6  1  0
  6  7  2  0
  7  8  1  0
  8  9  1  0
  9 10  1  0
 10 11  2  0
 11 12  1  0
 12 13  2  0
 13 14  1  0
 14 15  1  0
 14 16  2  0
 16 17  1  0
 17 18  2  0
 17 19  1  0
 19 20  1  0
  7 21  1  0
 21 22  2  0
 22 23  1  0
 23 24  1  0
 23 25  1  0
 22  4  1  0
 19  8  2  0
 16 10  1  0
  1 26  1  0
  1 27  1  0
  1 28  1  0
  3 29  1  0
  3 30  1  0
  3 31  1  0
  5 32  1  0
  6 33  1  0
 11 34  1  0
 12 35  1  0
 13 36  1  0
 15 37  1  0
 20 38  1  0
 21 39  1  0
 23 40  1  0
M  END
>  <meeko>  (4) 
{"is_sidechain": [false], "free_energy": -5.537, "intermolecular_energy": -6.947, "internal_energy": -0.282}

$$$$
cand_034_out
     RDKit          3D

 40 42  0  0  0  0  0  0  0  0999 V2000
  186.9440   25.5830   45.7530 C   0  0  0  0  0  0  0  0  0  0  0  0
  186.9370   24.1200   45.6460 N   0  0  0  0  0  0  0  0  0  0  0  0
  187.9300   23.4620   46.5080 C   0  0  0  0  0  0  0  0  0  0  0  0
  185.6670   23.5230   45.7970 C   0  0  0  0  0  0  0  0  0  0  0  0
  184.9010   23.6780   46.9630 C   0  0  0  0  0  0  0  0  0  0  0  0
  183.6530   23.0590   47.1000 C   0  0  0  0  0  0  0  0  0  0  0  0
  183.1310   22.2650   46.0760 C   0  0  0  0  0  0  0  0  0  0  0  0
  181.8310   21.5720   46.2090 C   0  0  0  0  0  0  0  0  0  0  0  0
  180.8830   22.3290   46.8890 O   0  0  0  0  0  0  0  0  0  0  0  0
  179.6320   21.8030   47.0870 C   0  0  0  0  0  0  0  0  0  0  0  0
  178.7100   22.6010   47.7660 C   0  0  0  0  0  0  0  0  0  0  0  0
  177.4190   22.1260   48.0020 C   0  0  0  0  0  0  0  0  0  0  0  0
  177.0500   20.8540   47.5600 C   0  0  0  0  0  0  0  0  0  0  0  0
  177.9710   20.0580   46.8840 C   0  0  0  0  0  0  0  0  0  0  0  0
  177.5450   18.8230   46.4800 O   0  0  0  0  0  0  0  0  0  0  0  0
  179.2640   20.5350   46.6470 C   0  0  0  0  0  0  0  0  0  0  0  0
  180.2650   19.7330   45.9420 C   0  0  0  0  0  0  0  0  0  0  0  0
  180.0180   18.6020   45.5290 O   0  0  0  0  0  0  0  0  0  0  0  0
  181.6040   20.3320   45.7390 C   0  0  0  0  0  0  0  0  0  0  0  0
  182.5460   19.5580   45.0850 O   0  0  0  0  0  0  0  0  0  0  0  0
  183.8990   22.0950   44.9160 C   0  0  0  0  0  0  0  0  0  0  0  0
  185.1510   22.7210   44.7610 C   0  0  0  0  0  0  0  0  0  0  0  0
  185.9320   22.5010   43.4910 C   0  0  0  0  0  0  0  0  0  0  0  0
  185.3030   23.0150   42.3890 F   0  0  0  0  0  0  0  0  0  0  0  0
  186.1100   21.1770   43.2120 F   0  0  0  0  0  0  0  0  0  0  0  0
  186.9454   25.8730   46.8141 H   0  0  0  0  0  0  0  0  0  0  0  0
  187.8441   25.9822   45.2626 H   0  0  0  0  0  0  0  0  0  0  0  0
  186.0478   25.9908   45.2626 H   0  0  0  0  0  0  0  0  0  0  0  0
  187.6708   23.6338   47.5631 H   0  0  0  0  0  0  0  0  0  0  0  0
  187.9349   22.3813   46.3029 H   0  0  0  0  0  0  0  0  0  0  0  0
  188.9271   23.8787   46.3029 H   0  0  0  0  0  0  0  0  0  0  0  0
  185.2889   24.2978   47.7848 H   0  0  0  0  0  0  0  0  0  0  0  0
  183.0759   23.1996   48.0259 H   0  0  0  0  0  0  0  0  0  0  0  0
  179.0004   23.6030   48.1147 H   0  0  0  0  0  0  0  0  0  0  0  0
  176.6915   22.7544   48.5367 H   0  0  0  0  0  0  0  0  0  0  0  0
  176.0320   20.4808   47.7458 H   0  0  0  0  0  0  0  0  0  0  0  0
  178.1260   18.2560   46.0120 H   0  0  0  0  0  0  0  0  0  0  0  0
  183.3420   19.3250   45.5200 H   0  0  0  0  0  0  0  0  0  0  0  0
  183.5144   21.4569   44.1067 H   0  0  0  0  0  0  0  0  0  0  0  0
  186.8897   23.0082   43.6794 H   0  0  0  0  0  0  0  0  0  0  0  0
  1  2  1  0
  2  3  1  0
  2  4  1  0
  4  5  2  0
  5  6  1  0
  6  7  2  0
  7  8  1  0
  8  9  1  0
  9 10  1  0
 10 11  2  0
 11 12  1  0
 12 13  2  0
 13 14  1  0
 14 15  1  0
 14 16  2  0
 16 17  1  0
 17 18  2  0
 17 19  1  0
 19 20  1  0
  7 21  1  0
 21 22  2  0
 22 23  1  0
 23 24  1  0
 23 25  1  0
 22  4  1  0
 19  8  2  0
 16 10  1  0
  1 26  1  0
  1 27  1  0
  1 28  1  0
  3 29  1  0
  3 30  1  0
  3 31  1  0
  5 32  1  0
  6 33  1  0
 11 34  1  0
 12 35  1  0
 13 36  1  0
 15 37  1  0
 20 38  1  0
 21 39  1  0
 23 40  1  0
M  END
>  <meeko>  (5) 
{"is_sidechain": [false], "free_energy": -5.413, "intermolecular_energy": -6.885, "internal_energy": -0.191}

$$$$
