cand_040_out
     RDKit          3D

 36 38  0  0  0  0  0  0  0  0999 V2000
  181.3930   14.8330   41.4770 C   0  0  0  0  0  0  0  0  0  0  0  0
  181.8680   15.0580   42.7080 C   0  0  0  0  0  0  0  0  0  0  0  0
  181.3300   16.0870   43.6090 C   0  0  0  0  0  0  0  0  0  0  0  0
  181.7280   17.4220   43.4510 C   0  0  0  0  0  0  0  0  0  0  0  0
  181.2090   18.4300   44.2690 C   0  0  0  0  0  0  0  0  0  0  0  0
  180.2650   18.1310   45.2580 C   0  0  0  0  0  0  0  0  0  0  0  0
  179.7450   19.2070   46.1280 C   0  0  0  0  0  0  0  0  0  0  0  0
  178.3560   19.2370   46.1790 O   0  0  0  0  0  0  0  0  0  0  0  0
  177.7410   20.1870   46.9520 C   0  0  0  0  0  0  0  0  0  0  0  0
  176.3450   20.1900   46.9600 C   0  0  0  0  0  0  0  0  0  0  0  0
  175.6550   21.1310   47.7280 C   0  0  0  0  0  0  0  0  0  0  0  0
  176.3610   22.0700   48.4860 C   0  0  0  0  0  0  0  0  0  0  0  0
  177.7530   22.0640   48.4740 C   0  0  0  0  0  0  0  0  0  0  0  0
  178.3800   23.0090   49.2400 O   0  0  0  0  0  0  0  0  0  0  0  0
  178.4430   21.1220   47.7060 C   0  0  0  0  0  0  0  0  0  0  0  0
  179.9050   21.0820   47.6660 C   0  0  0  0  0  0  0  0  0  0  0  0
  180.5960   21.8690   48.3110 O   0  0  0  0  0  0  0  0  0  0  0  0
  180.5400   20.0500   46.8140 C   0  0  0  0  0  0  0  0  0  0  0  0
  181.9210   20.0130   46.7940 O   0  0  0  0  0  0  0  0  0  0  0  0
  179.8660   16.7960   45.4170 C   0  0  0  0  0  0  0  0  0  0  0  0
  180.3840   15.7680   44.6030 C   0  0  0  0  0  0  0  0  0  0  0  0
  179.9040   14.3590   44.8190 C   0  0  0  0  0  0  0  0  0  0  0  0
  181.8394   14.0468   40.8504 H   0  0  0  0  0  0  0  0  0  0  0  0
  180.5562   15.4343   41.0920 H   0  0  0  0  0  0  0  0  0  0  0  0
  182.7054   14.4400   43.0642 H   0  0  0  0  0  0  0  0  0  0  0  0
  182.4598   17.6803   42.6715 H   0  0  0  0  0  0  0  0  0  0  0  0
  181.5459   19.4684   44.1339 H   0  0  0  0  0  0  0  0  0  0  0  0
  175.7892   19.4525   46.3624 H   0  0  0  0  0  0  0  0  0  0  0  0
  174.5550   21.1332   47.7364 H   0  0  0  0  0  0  0  0  0  0  0  0
  175.8179   22.8116   49.0903 H   0  0  0  0  0  0  0  0  0  0  0  0
  179.1310   22.7760   49.7500 H   0  0  0  0  0  0  0  0  0  0  0  0
  182.3910   20.4340   46.1010 H   0  0  0  0  0  0  0  0  0  0  0  0
  179.1309   16.5448   46.1958 H   0  0  0  0  0  0  0  0  0  0  0  0
  179.8350   14.1565   45.8980 H   0  0  0  0  0  0  0  0  0  0  0  0
  178.9128   14.2346   44.3585 H   0  0  0  0  0  0  0  0  0  0  0  0
  180.6131   13.6554   44.3585 H   0  0  0  0  0  0  0  0  0  0  0  0
  1  2  2  0
  2  3  1  0
  3  4  2  0
  4  5  1  0
  5  6  2  0
  6  7  1  0
  7  8  1  0
  8  9  1  0
  9 10  2  0
 10 11  1  0
 11 12  2  0
 12 13  1  0
 13 14  1  0
 13 15  2  0
 15 16  1  0
 16 17  2  0
 16 18  1  0
 18 19  1  0
  6 20  1  0
 20 21  2  0
 21 22  1  0
 21  3  1  0
 18  7  2  0
 15  9  1  0
  1 23  1  0
  1 24  1  0
  2 25  1  0
  4 26  1  0
  5 27  1  0
 10 28  1  0
 11 29  1  0
 12 30  1  0
 14 31  1  0
 19 32  1  0
 20 33  1  0
 22 34  1  0
 22 35  1  0
 22 36  1  0
M  END
>  <meeko>  (1) 
{"is_sidechain": [false], "free_energy": -8.707, "intermolecular_energy": -10.234, "internal_energy": -0.207}

$$$$
cand_040_out
     RDKit          3D

 36 38  0  0  0  0  0  0  0  0999 V2000
  176.5500   23.7440   48.8000 C   0  0  0  0  0  0  0  0  0  0  0  0
  176.5130   22.4150   48.9570 C   0  0  0  0  0  0  0  0  0  0  0  0
  177.2850   21.4790   48.1270 C   0  0  0  0  0  0  0  0  0  0  0  0
  178.6860   21.4920   48.1890 C   0  0  0  0  0  0  0  0  0  0  0  0
  179.4480   20.5920   47.4380 C   0  0  0  0  0  0  0  0  0  0  0  0
  178.8280   19.6440   46.6160 C   0  0  0  0  0  0  0  0  0  0  0  0
  179.6520   18.7160   45.8120 C   0  0  0  0  0  0  0  0  0  0  0  0
  179.1540   17.4180   45.8080 O   0  0  0  0  0  0  0  0  0  0  0  0
  179.8230   16.4540   45.0980 C   0  0  0  0  0  0  0  0  0  0  0  0
  179.2970   15.1610   45.1350 C   0  0  0  0  0  0  0  0  0  0  0  0
  179.9290   14.1330   44.4330 C   0  0  0  0  0  0  0  0  0  0  0  0
  181.0860   14.3950   43.6960 C   0  0  0  0  0  0  0  0  0  0  0  0
  181.6080   15.6860   43.6620 C   0  0  0  0  0  0  0  0  0  0  0  0
  182.7420   15.8730   42.9200 O   0  0  0  0  0  0  0  0  0  0  0  0
  180.9760   16.7150   44.3640 C   0  0  0  0  0  0  0  0  0  0  0  0
  181.4920   18.0840   44.3560 C   0  0  0  0  0  0  0  0  0  0  0  0
  182.5000   18.3960   43.7240 O   0  0  0  0  0  0  0  0  0  0  0  0
  180.7530   19.1010   45.1390 C   0  0  0  0  0  0  0  0  0  0  0  0
  181.2410   20.3930   45.1130 O   0  0  0  0  0  0  0  0  0  0  0  0
  177.4270   19.6310   46.5530 C   0  0  0  0  0  0  0  0  0  0  0  0
  176.6460   20.5350   47.3010 C   0  0  0  0  0  0  0  0  0  0  0  0
  175.1460   20.4570   47.1960 C   0  0  0  0  0  0  0  0  0  0  0  0
  175.9481   24.3921   49.4540 H   0  0  0  0  0  0  0  0  0  0  0  0
  177.1823   24.1879   48.0169 H   0  0  0  0  0  0  0  0  0  0  0  0
  175.8711   22.0016   49.7488 H   0  0  0  0  0  0  0  0  0  0  0  0
  179.1929   22.2212   48.8382 H   0  0  0  0  0  0  0  0  0  0  0  0
  180.5459   20.6294   47.4937 H   0  0  0  0  0  0  0  0  0  0  0  0
  178.3865   14.9528   45.7161 H   0  0  0  0  0  0  0  0  0  0  0  0
  179.5147   13.1144   44.4604 H   0  0  0  0  0  0  0  0  0  0  0  0
  181.5837   13.5841   43.1439 H   0  0  0  0  0  0  0  0  0  0  0  0
  183.4090   16.4580   43.2220 H   0  0  0  0  0  0  0  0  0  0  0  0
  180.6880   21.0980   44.8370 H   0  0  0  0  0  0  0  0  0  0  0  0
  176.9256   18.8977   45.9043 H   0  0  0  0  0  0  0  0  0  0  0  0
  174.7085   20.4343   48.2050 H   0  0  0  0  0  0  0  0  0  0  0  0
  174.7702   21.3368   46.6531 H   0  0  0  0  0  0  0  0  0  0  0  0
  174.8635   19.5430   46.6531 H   0  0  0  0  0  0  0  0  0  0  0  0
  1  2  2  0
  2  3  1  0
  3  4  2  0
  4  5  1  0
  5  6  2  0
  6  7  1  0
  7  8  1  0
  8  9  1  0
  9 10  2  0
 10 11  1  0
 11 12  2  0
 12 13  1  0
 13 14  1  0
 13 15  2  0
 15 16  1  0
 16 17  2  0
 16 18  1  0
 18 19  1  0
  6 20  1  0
 20 21  2  0
 21 22  1  0
 21  3  1  0
 18  7  2  0
 15  9  1  0
  1 23  1  0
  1 24  1  0
  2 25  1  0
  4 26  1  0
  5 27  1  0
 10 28  1  0
 11 29  1  0
 12 30  1  0
 14 31  1  0
 19 32  1  0
 20 33  1  0
 22 34  1  0
 22 35  1  0
 22 36  1  0
M  END
>  <meeko>  (2) 
{"is_sidechain": [false], "free_energy": -7.395, "intermolecular_energy": -8.8, "internal_energy": -0.098}

$$$$
cand_040_out
     RDKit          3D

 36 38  0  0  0  0  0  0  0  0999 V2000
  181.1650   16.5550   42.3380 C   0  0  0  0  0  0  0  0  0  0  0  0
  181.5950   16.8490   43.5710 C   0  0  0  0  0  0  0  0  0  0  0  0
  180.9330   17.8230   44.4510 C   0  0  0  0  0  0  0  0  0  0  0  0
  181.2940   19.1760   44.3810 C   0  0  0  0  0  0  0  0  0  0  0  0
  180.6600   20.1320   45.1790 C   0  0  0  0  0  0  0  0  0  0  0  0
  179.6350   19.7630   46.0580 C   0  0  0  0  0  0  0  0  0  0  0  0
  178.9920   20.7860   46.9100 C   0  0  0  0  0  0  0  0  0  0  0  0
  177.6090   20.6510   46.9650 O   0  0  0  0  0  0  0  0  0  0  0  0
  176.8860   21.5360   47.7220 C   0  0  0  0  0  0  0  0  0  0  0  0
  175.5000   21.3730   47.7360 C   0  0  0  0  0  0  0  0  0  0  0  0
  174.7050   22.2400   48.4890 C   0  0  0  0  0  0  0  0  0  0  0  0
  175.2950   23.2690   49.2270 C   0  0  0  0  0  0  0  0  0  0  0  0
  176.6780   23.4290   49.2100 C   0  0  0  0  0  0  0  0  0  0  0  0
  177.1890   24.4560   49.9560 O   0  0  0  0  0  0  0  0  0  0  0  0
  177.4740   22.5620   48.4570 C   0  0  0  0  0  0  0  0  0  0  0  0
  178.9300   22.6950   48.4120 C   0  0  0  0  0  0  0  0  0  0  0  0
  179.5230   23.5700   49.0400 O   0  0  0  0  0  0  0  0  0  0  0  0
  179.6820   21.7300   47.5770 C   0  0  0  0  0  0  0  0  0  0  0  0
  181.0580   21.8570   47.5520 O   0  0  0  0  0  0  0  0  0  0  0  0
  179.2730   18.4100   46.1280 C   0  0  0  0  0  0  0  0  0  0  0  0
  179.9070   17.4340   45.3330 C   0  0  0  0  0  0  0  0  0  0  0  0
  179.4610   16.0010   45.4490 C   0  0  0  0  0  0  0  0  0  0  0  0
  181.7056   15.8158   41.7287 H   0  0  0  0  0  0  0  0  0  0  0  0
  180.2710   17.0526   41.9340 H   0  0  0  0  0  0  0  0  0  0  0  0
  182.4919   16.3342   43.9460 H   0  0  0  0  0  0  0  0  0  0  0  0
  182.0882   19.4896   43.6875 H   0  0  0  0  0  0  0  0  0  0  0  0
  180.9697   21.1856   45.1158 H   0  0  0  0  0  0  0  0  0  0  0  0
  175.0346   20.5632   47.1550 H   0  0  0  0  0  0  0  0  0  0  0  0
  173.6125   22.1124   48.5010 H   0  0  0  0  0  0  0  0  0  0  0  0
  174.6684   23.9513   49.8202 H   0  0  0  0  0  0  0  0  0  0  0  0
  177.4820   25.2410   49.5350 H   0  0  0  0  0  0  0  0  0  0  0  0
  181.5980   21.0930   47.4930 H   0  0  0  0  0  0  0  0  0  0  0  0
  178.4750   18.1030   46.8201 H   0  0  0  0  0  0  0  0  0  0  0  0
  179.3761   15.7283   46.5113 H   0  0  0  0  0  0  0  0  0  0  0  0
  178.4829   15.8807   44.9603 H   0  0  0  0  0  0  0  0  0  0  0  0
  180.1981   15.3469   44.9603 H   0  0  0  0  0  0  0  0  0  0  0  0
  1  2  2  0
  2  3  1  0
  3  4  2  0
  4  5  1  0
  5  6  2  0
  6  7  1  0
  7  8  1  0
  8  9  1  0
  9 10  2  0
 10 11  1  0
 11 12  2  0
 12 13  1  0
 13 14  1  0
 13 15  2  0
 15 16  1  0
 16 17  2  0
 16 18  1  0
 18 19  1  0
  6 20  1  0
 20 21  2  0
 21 22  1  0
 21  3  1  0
 18  7  2  0
 15  9  1  0
  1 23  1  0
  1 24  1  0
  2 25  1  0
  4 26  1  0
  5 27  1  0
 10 28  1  0
 11 29  1  0
 12 30  1  0
 14 31  1  0
 19 32  1  0
 20 33  1  0
 22 34  1  0
 22 35  1  0
 22 36  1  0
M  END
>  <meeko>  (3) 
{"is_sidechain": [false], "free_energy": -7.3, "intermolecular_energy": -8.712, "internal_energy": -0.075}

$$$$
cand_040_out
     RDKit          3D

 36 38  0  0  0  0  0  0  0  0999 V2000
  181.0790   14.4240   40.7490 C   0  0  0  0  0  0  0  0  0  0  0  0
  181.2400   14.4200   42.0790 C   0  0  0  0  0  0  0  0  0  0  0  0
  180.9370   15.5750   42.9360 C   0  0  0  0  0  0  0  0  0  0  0  0
  180.5780   15.3680   44.2750 C   0  0  0  0  0  0  0  0  0  0  0  0
  180.3180   16.4460   45.1260 C   0  0  0  0  0  0  0  0  0  0  0  0
  180.4250   17.7630   44.6630 C   0  0  0  0  0  0  0  0  0  0  0  0
  180.1230   18.8890   45.5710 C   0  0  0  0  0  0  0  0  0  0  0  0
  178.8280   18.8430   46.0760 O   0  0  0  0  0  0  0  0  0  0  0  0
  178.4160   19.8290   46.9340 C   0  0  0  0  0  0  0  0  0  0  0  0
  177.1030   19.7520   47.4040 C   0  0  0  0  0  0  0  0  0  0  0  0
  176.6200   20.7240   48.2830 C   0  0  0  0  0  0  0  0  0  0  0  0
  177.4480   21.7740   48.6910 C   0  0  0  0  0  0  0  0  0  0  0  0
  178.7560   21.8470   48.2200 C   0  0  0  0  0  0  0  0  0  0  0  0
  179.5120   22.8990   48.6600 O   0  0  0  0  0  0  0  0  0  0  0  0
  179.2400   20.8750   47.3400 C   0  0  0  0  0  0  0  0  0  0  0  0
  180.6070   20.9150   46.8220 C   0  0  0  0  0  0  0  0  0  0  0  0
  181.3980   21.8020   47.1410 O   0  0  0  0  0  0  0  0  0  0  0  0
  181.0200   19.8410   45.8890 C   0  0  0  0  0  0  0  0  0  0  0  0
  182.3170   19.8820   45.4160 O   0  0  0  0  0  0  0  0  0  0  0  0
  180.7840   17.9700   43.3230 C   0  0  0  0  0  0  0  0  0  0  0  0
  181.0450   16.8930   42.4530 C   0  0  0  0  0  0  0  0  0  0  0  0
  181.4380   17.1880   41.0300 C   0  0  0  0  0  0  0  0  0  0  0  0
  181.3241   13.5262   40.1626 H   0  0  0  0  0  0  0  0  0  0  0  0
  180.7017   15.3251   40.2434 H   0  0  0  0  0  0  0  0  0  0  0  0
  181.6191   13.5036   42.5549 H   0  0  0  0  0  0  0  0  0  0  0  0
  180.4997   14.3414   44.6621 H   0  0  0  0  0  0  0  0  0  0  0  0
  180.0264   16.2577   46.1698 H   0  0  0  0  0  0  0  0  0  0  0  0
  176.4503   18.9271   47.0823 H   0  0  0  0  0  0  0  0  0  0  0  0
  175.5865   20.6633   48.6548 H   0  0  0  0  0  0  0  0  0  0  0  0
  177.0671   22.5403   49.3822 H   0  0  0  0  0  0  0  0  0  0  0  0
  179.4330   23.1950   49.5460 H   0  0  0  0  0  0  0  0  0  0  0  0
  182.4830   19.8120   44.4960 H   0  0  0  0  0  0  0  0  0  0  0  0
  180.8637   18.9988   42.9419 H   0  0  0  0  0  0  0  0  0  0  0  0
  182.3177   17.8483   41.0219 H   0  0  0  0  0  0  0  0  0  0  0  0
  181.6809   16.2473   40.5142 H   0  0  0  0  0  0  0  0  0  0  0  0
  180.6026   17.6839   40.5142 H   0  0  0  0  0  0  0  0  0  0  0  0
  1  2  2  0
  2  3  1  0
  3  4  2  0
  4  5  1  0
  5  6  2  0
  6  7  1  0
  7  8  1  0
  8  9  1  0
  9 10  2  0
 10 11  1  0
 11 12  2  0
 12 13  1  0
 13 14  1  0
 13 15  2  0
 15 16  1  0
 16 17  2  0
 16 18  1  0
 18 19  1  0
  6 20  1  0
 20 21  2  0
 21 22  1  0
 21  3  1  0
 18  7  2  0
 15  9  1  0
  1 23  1  0
  1 24  1  0
  2 25  1  0
  4 26  1  0
  5 27  1  0
 10 28  1  0
 11 29  1  0
 12 30  1  0
 14 31  1  0
 19 32  1  0
 20 33  1  0
 22 34  1  0
 22 35  1  0
 22 36  1  0
M  END
>  <meeko>  (4) 
{"is_sidechain": [false], "free_energy": -6.826, "intermolecular_energy": -8.754, "internal_energy": 0.525}

$$$$
cand_040_out
     RDKit          3D

 36 38  0  0  0  0  0  0  0  0999 V2000
  181.6340   15.4820   42.2840 C   0  0  0  0  0  0  0  0  0  0  0  0
  181.9280   15.9770   43.4930 C   0  0  0  0  0  0  0  0  0  0  0  0
  181.0170   16.8410   44.2580 C   0  0  0  0  0  0  0  0  0  0  0  0
  181.1430   18.2350   44.1640 C   0  0  0  0  0  0  0  0  0  0  0  0
  180.2710   19.0840   44.8510 C   0  0  0  0  0  0  0  0  0  0  0  0
  179.2400   18.5620   45.6400 C   0  0  0  0  0  0  0  0  0  0  0  0
  178.3430   19.4770   46.3770 C   0  0  0  0  0  0  0  0  0  0  0  0
  178.9750   20.6500   46.7730 O   0  0  0  0  0  0  0  0  0  0  0  0
  178.2570   21.5890   47.4670 C   0  0  0  0  0  0  0  0  0  0  0  0
  178.9360   22.7450   47.8590 C   0  0  0  0  0  0  0  0  0  0  0  0
  178.2620   23.7420   48.5670 C   0  0  0  0  0  0  0  0  0  0  0  0
  176.9110   23.5840   48.8850 C   0  0  0  0  0  0  0  0  0  0  0  0
  176.2370   22.4300   48.4940 C   0  0  0  0  0  0  0  0  0  0  0  0
  174.9150   22.3410   48.8370 O   0  0  0  0  0  0  0  0  0  0  0  0
  176.9110   21.4320   47.7850 C   0  0  0  0  0  0  0  0  0  0  0  0
  176.2400   20.2050   47.3550 C   0  0  0  0  0  0  0  0  0  0  0  0
  175.0510   19.9970   47.5900 O   0  0  0  0  0  0  0  0  0  0  0  0
  177.0460   19.2060   46.6160 C   0  0  0  0  0  0  0  0  0  0  0  0
  176.3990   18.0560   46.2040 O   0  0  0  0  0  0  0  0  0  0  0  0
  179.1130   17.1690   45.7340 C   0  0  0  0  0  0  0  0  0  0  0  0
  179.9870   16.3000   45.0500 C   0  0  0  0  0  0  0  0  0  0  0  0
  179.7870   14.8140   45.1870 C   0  0  0  0  0  0  0  0  0  0  0  0
  182.3586   14.8404   41.7613 H   0  0  0  0  0  0  0  0  0  0  0  0
  180.6679   15.7170   41.8135 H   0  0  0  0  0  0  0  0  0  0  0  0
  182.9021   15.7240   43.9370 H   0  0  0  0  0  0  0  0  0  0  0  0
  181.9399   18.6662   43.5403 H   0  0  0  0  0  0  0  0  0  0  0  0
  180.3964   20.1739   44.7706 H   0  0  0  0  0  0  0  0  0  0  0  0
  180.0002   22.8697   47.6103 H   0  0  0  0  0  0  0  0  0  0  0  0
  178.7957   24.6533   48.8748 H   0  0  0  0  0  0  0  0  0  0  0  0
  176.3807   24.3696   49.4432 H   0  0  0  0  0  0  0  0  0  0  0  0
  174.4030   23.1200   48.9350 H   0  0  0  0  0  0  0  0  0  0  0  0
  175.9650   17.5120   46.8310 H   0  0  0  0  0  0  0  0  0  0  0  0
  178.3120   16.7439   46.3566 H   0  0  0  0  0  0  0  0  0  0  0  0
  179.7509   14.5456   46.2532 H   0  0  0  0  0  0  0  0  0  0  0  0
  178.8419   14.5252   44.7040 H   0  0  0  0  0  0  0  0  0  0  0  0
  180.6221   14.2856   44.7040 H   0  0  0  0  0  0  0  0  0  0  0  0
  1  2  2  0
  2  3  1  0
  3  4  2  0
  4  5  1  0
  5  6  2  0
  6  7  1  0
  7  8  1  0
  8  9  1  0
  9 10  2  0
 10 11  1  0
 11 12  2  0
 12 13  1  0
 13 14  1  0
 13 15  2  0
 15 16  1  0
 16 17  2  0
 16 18  1  0
 18 19  1  0
  6 20  1  0
 20 21  2  0
 21 22  1  0
 21  3  1  0
 18  7  2  0
 15  9  1  0
  1 23  1  0
  1 24  1  0
  2 25  1  0
  4 26  1  0
  5 27  1  0
 10 28  1  0
 11 29  1  0
 12 30  1  0
 14 31  1  0
 19 32  1  0
 20 33  1  0
 22 34  1  0
 22 35  1  0
 22 36  1  0
M  END
>  <meeko>  (5) 
{"is_sidechain": [false], "free_energy": -6.778, "intermolecular_energy": -8.212, "internal_energy": 0.039}

$$$$
