cand_001_out
     RDKit          3D

 45 48  0  0  0  0  0  0  0  0999 V2000
  176.3610   18.1380   46.2850 C   0  0  0  0  0  0  0  0  0  0  0  0
  176.2820   19.2720   47.2710 C   0  0  0  0  0  0  0  0  0  0  0  0
  175.5440   19.0880   48.4500 C   0  0  0  0  0  0  0  0  0  0  0  0
  175.4630   20.0970   49.4130 C   0  0  0  0  0  0  0  0  0  0  0  0
  176.1280   21.3130   49.2300 C   0  0  0  0  0  0  0  0  0  0  0  0
  176.0190   22.3740   50.2540 C   0  0  0  0  0  0  0  0  0  0  0  0
  175.4330   23.5380   49.7660 O   0  0  0  0  0  0  0  0  0  0  0  0
  175.2710   24.6040   50.6130 C   0  0  0  0  0  0  0  0  0  0  0  0
  174.6930   25.7560   50.0780 C   0  0  0  0  0  0  0  0  0  0  0  0
  174.4970   26.8770   50.8870 C   0  0  0  0  0  0  0  0  0  0  0  0
  174.8780   26.8460   52.2300 C   0  0  0  0  0  0  0  0  0  0  0  0
  175.4540   25.6960   52.7620 C   0  0  0  0  0  0  0  0  0  0  0  0
  175.8020   25.7340   54.0840 O   0  0  0  0  0  0  0  0  0  0  0  0
  175.6500   24.5740   51.9510 C   0  0  0  0  0  0  0  0  0  0  0  0
  176.2520   23.3450   52.4710 C   0  0  0  0  0  0  0  0  0  0  0  0
  176.6060   23.2370   53.6430 O   0  0  0  0  0  0  0  0  0  0  0  0
  176.4230   22.2150   51.5270 C   0  0  0  0  0  0  0  0  0  0  0  0
  176.9810   21.0540   52.0320 O   0  0  0  0  0  0  0  0  0  0  0  0
  176.8610   21.5000   48.0510 C   0  0  0  0  0  0  0  0  0  0  0  0
  176.9590   20.4920   47.0690 C   0  0  0  0  0  0  0  0  0  0  0  0
  177.8040   20.7660   45.8380 C   0  0  0  0  0  0  0  0  0  0  0  0
  179.2990   20.7410   46.0700 C   0  0  0  0  0  0  0  0  0  0  0  0
  180.1090   19.8510   45.3480 C   0  0  0  0  0  0  0  0  0  0  0  0
  181.4930   19.8360   45.5370 C   0  0  0  0  0  0  0  0  0  0  0  0
  182.0840   20.7150   46.4420 C   0  0  0  0  0  0  0  0  0  0  0  0
  181.2930   21.6120   47.1560 C   0  0  0  0  0  0  0  0  0  0  0  0
  179.9100   21.6300   46.9680 C   0  0  0  0  0  0  0  0  0  0  0  0
  176.4275   17.1838   46.8282 H   0  0  0  0  0  0  0  0  0  0  0  0
  175.4607   18.1382   45.6530 H   0  0  0  0  0  0  0  0  0  0  0  0
  177.2526   18.2630   45.6530 H   0  0  0  0  0  0  0  0  0  0  0  0
  175.0213   18.1349   48.6187 H   0  0  0  0  0  0  0  0  0  0  0  0
  174.8698   19.9329   50.3247 H   0  0  0  0  0  0  0  0  0  0  0  0
  174.3922   25.7809   49.0202 H   0  0  0  0  0  0  0  0  0  0  0  0
  174.0419   27.7856   50.4659 H   0  0  0  0  0  0  0  0  0  0  0  0
  174.7231   27.7294   52.8668 H   0  0  0  0  0  0  0  0  0  0  0  0
  175.2620   26.1900   54.6980 H   0  0  0  0  0  0  0  0  0  0  0  0
  176.4970   20.2520   52.0050 H   0  0  0  0  0  0  0  0  0  0  0  0
  177.3741   22.4590   47.8864 H   0  0  0  0  0  0  0  0  0  0  0  0
  177.5632   20.0039   45.0823 H   0  0  0  0  0  0  0  0  0  0  0  0
  177.5595   21.7900   45.5190 H   0  0  0  0  0  0  0  0  0  0  0  0
  179.6499   19.1589   44.6267 H   0  0  0  0  0  0  0  0  0  0  0  0
  182.1171   19.1292   44.9705 H   0  0  0  0  0  0  0  0  0  0  0  0
  183.1736   20.7007   46.5924 H   0  0  0  0  0  0  0  0  0  0  0  0
  181.7591   22.3076   47.8694 H   0  0  0  0  0  0  0  0  0  0  0  0
  179.2932   22.3476   47.5289 H   0  0  0  0  0  0  0  0  0  0  0  0
  1  2  1  0
  2  3  2  0
  3  4  1  0
  4  5  2  0
  5  6  1  0
  6  7  1  0
  7  8  1  0
  8  9  2  0
  9 10  1  0
 10 11  2  0
 11 12  1  0
 12 13  1  0
 12 14  2  0
 14 15  1  0
 15 16  2  0
 15 17  1  0
 17 18  1  0
  5 19  1  0
 19 20  2  0
 20 21  1  0
 21 22  1  0
 22 23  2  0
 23 24  1  0
 24 25  2  0
 25 26  1  0
 26 27  2  0
 20  2  1  0
 27 22  1  0
 17  6  2  0
 14  8  1  0
  1 28  1  0
  1 29  1  0
  1 30  1  0
  3 31  1  0
  4 32  1  0
  9 33  1  0
 10 34  1  0
 11 35  1  0
 13 36  1  0
 18 37  1  0
 19 38  1  0
 21 39  1  0
 21 40  1  0
 23 41  1  0
 24 42  1  0
 25 43  1  0
 26 44  1  0
 27 45  1  0
M  END
>  <meeko>  (1) 
{"is_sidechain": [false], "free_energy": -8.817, "intermolecular_energy": -10.879, "internal_energy": -0.632}

$$$$
cand_001_out
     RDKit          3D

 45 48  0  0  0  0  0  0  0  0999 V2000
  180.7410   21.3640   49.9400 C   0  0  0  0  0  0  0  0  0  0  0  0
  179.3600   21.9520   49.8380 C   0  0  0  0  0  0  0  0  0  0  0  0
  178.5720   22.0210   50.9970 C   0  0  0  0  0  0  0  0  0  0  0  0
  177.2940   22.5860   50.9650 C   0  0  0  0  0  0  0  0  0  0  0  0
  176.7730   23.1090   49.7770 C   0  0  0  0  0  0  0  0  0  0  0  0
  175.4140   23.6890   49.7600 C   0  0  0  0  0  0  0  0  0  0  0  0
  175.4070   25.0540   50.0280 O   0  0  0  0  0  0  0  0  0  0  0  0
  174.2070   25.7200   50.0420 C   0  0  0  0  0  0  0  0  0  0  0  0
  174.2440   27.0850   50.3300 C   0  0  0  0  0  0  0  0  0  0  0  0
  173.0590   27.8220   50.3590 C   0  0  0  0  0  0  0  0  0  0  0  0
  171.8380   27.1970   50.1000 C   0  0  0  0  0  0  0  0  0  0  0  0
  171.8040   25.8350   49.8130 C   0  0  0  0  0  0  0  0  0  0  0  0
  170.5750   25.2860   49.5690 O   0  0  0  0  0  0  0  0  0  0  0  0
  172.9910   25.0960   49.7850 C   0  0  0  0  0  0  0  0  0  0  0  0
  172.9990   23.6630   49.4870 C   0  0  0  0  0  0  0  0  0  0  0  0
  171.9670   23.0430   49.2410 O   0  0  0  0  0  0  0  0  0  0  0  0
  174.3090   22.9720   49.4900 C   0  0  0  0  0  0  0  0  0  0  0  0
  174.3060   21.6200   49.1940 O   0  0  0  0  0  0  0  0  0  0  0  0
  177.5580   23.0350   48.6180 C   0  0  0  0  0  0  0  0  0  0  0  0
  178.8520   22.4730   48.6310 C   0  0  0  0  0  0  0  0  0  0  0  0
  179.6470   22.4680   47.3370 C   0  0  0  0  0  0  0  0  0  0  0  0
  179.7940   21.1110   46.6820 C   0  0  0  0  0  0  0  0  0  0  0  0
  181.0110   20.7460   46.0860 C   0  0  0  0  0  0  0  0  0  0  0  0
  181.1650   19.4870   45.5000 C   0  0  0  0  0  0  0  0  0  0  0  0
  180.1100   18.5780   45.5100 C   0  0  0  0  0  0  0  0  0  0  0  0
  178.9010   18.9230   46.1100 C   0  0  0  0  0  0  0  0  0  0  0  0
  178.7450   20.1800   46.6970 C   0  0  0  0  0  0  0  0  0  0  0  0
  181.0129   21.2482   50.9996 H   0  0  0  0  0  0  0  0  0  0  0  0
  180.7581   20.3806   49.4475 H   0  0  0  0  0  0  0  0  0  0  0  0
  181.4618   22.0333   49.4475 H   0  0  0  0  0  0  0  0  0  0  0  0
  178.9658   21.6247   51.9445 H   0  0  0  0  0  0  0  0  0  0  0  0
  176.6912   22.6197   51.8845 H   0  0  0  0  0  0  0  0  0  0  0  0
  175.2054   27.5792   50.5338 H   0  0  0  0  0  0  0  0  0  0  0  0
  173.0874   28.8978   50.5865 H   0  0  0  0  0  0  0  0  0  0  0  0
  170.9049   27.7791   50.1226 H   0  0  0  0  0  0  0  0  0  0  0  0
  170.2670   25.2000   48.6880 H   0  0  0  0  0  0  0  0  0  0  0  0
  174.0500   21.3270   48.3410 H   0  0  0  0  0  0  0  0  0  0  0  0
  177.1540   23.4258   47.6725 H   0  0  0  0  0  0  0  0  0  0  0  0
  179.1436   23.1381   46.6246 H   0  0  0  0  0  0  0  0  0  0  0  0
  180.6641   22.7946   47.5996 H   0  0  0  0  0  0  0  0  0  0  0  0
  181.8504   21.4568   46.0801 H   0  0  0  0  0  0  0  0  0  0  0  0
  182.1211   19.2134   45.0300 H   0  0  0  0  0  0  0  0  0  0  0  0
  180.2312   17.5887   45.0446 H   0  0  0  0  0  0  0  0  0  0  0  0
  178.0684   18.2042   46.1213 H   0  0  0  0  0  0  0  0  0  0  0  0
  177.7902   20.4428   47.1759 H   0  0  0  0  0  0  0  0  0  0  0  0
  1  2  1  0
  2  3  2  0
  3  4  1  0
  4  5  2  0
  5  6  1  0
  6  7  1  0
  7  8  1  0
  8  9  2  0
  9 10  1  0
 10 11  2  0
 11 12  1  0
 12 13  1  0
 12 14  2  0
 14 15  1  0
 15 16  2  0
 15 17  1  0
 17 18  1  0
  5 19  1  0
 19 20  2  0
 20 21  1  0
 21 22  1  0
 22 23  2  0
 23 24  1  0
 24 25  2  0
 25 26  1  0
 26 27  2  0
 20  2  1  0
 27 22  1  0
 17  6  2  0
 14  8  1  0
  1 28  1  0
  1 29  1  0
  1 30  1  0
  3 31  1  0
  4 32  1  0
  9 33  1  0
 10 34  1  0
 11 35  1  0
 13 36  1  0
 18 37  1  0
 19 38  1  0
 21 39  1  0
 21 40  1  0
 23 41  1  0
 24 42  1  0
 25 43  1  0
 26 44  1  0
 27 45  1  0
M  END
>  <meeko>  (2) 
{"is_sidechain": [false], "free_energy": -8.556, "intermolecular_energy": -10.224, "internal_energy": -0.964}

$$$$
cand_001_out
     RDKit          3D

 45 48  0  0  0  0  0  0  0  0999 V2000
  177.1190   20.4640   45.8690 C   0  0  0  0  0  0  0  0  0  0  0  0
  176.4220   21.1280   47.0240 C   0  0  0  0  0  0  0  0  0  0  0  0
  175.1990   20.6010   47.4650 C   0  0  0  0  0  0  0  0  0  0  0  0
  174.5240   21.1600   48.5540 C   0  0  0  0  0  0  0  0  0  0  0  0
  175.0590   22.2550   49.2390 C   0  0  0  0  0  0  0  0  0  0  0  0
  174.3240   22.8430   50.3800 C   0  0  0  0  0  0  0  0  0  0  0  0
  175.1340   23.0610   51.4890 O   0  0  0  0  0  0  0  0  0  0  0  0
  174.5770   23.6040   52.6190 C   0  0  0  0  0  0  0  0  0  0  0  0
  175.4220   23.7920   53.7140 C   0  0  0  0  0  0  0  0  0  0  0  0
  174.9190   24.3420   54.8940 C   0  0  0  0  0  0  0  0  0  0  0  0
  173.5740   24.7040   54.9810 C   0  0  0  0  0  0  0  0  0  0  0  0
  172.7330   24.5160   53.8870 C   0  0  0  0  0  0  0  0  0  0  0  0
  171.4270   24.8930   54.0400 O   0  0  0  0  0  0  0  0  0  0  0  0
  173.2360   23.9650   52.7060 C   0  0  0  0  0  0  0  0  0  0  0  0
  172.3860   23.7500   51.5330 C   0  0  0  0  0  0  0  0  0  0  0  0
  171.1950   24.0500   51.5290 O   0  0  0  0  0  0  0  0  0  0  0  0
  173.0160   23.1520   50.3330 C   0  0  0  0  0  0  0  0  0  0  0  0
  172.2070   22.9660   49.2260 O   0  0  0  0  0  0  0  0  0  0  0  0
  176.2780   22.7860   48.7970 C   0  0  0  0  0  0  0  0  0  0  0  0
  176.9770   22.2320   47.7030 C   0  0  0  0  0  0  0  0  0  0  0  0
  178.3090   22.8480   47.3140 C   0  0  0  0  0  0  0  0  0  0  0  0
  179.5280   22.0910   47.7920 C   0  0  0  0  0  0  0  0  0  0  0  0
  179.7750   21.9490   49.1670 C   0  0  0  0  0  0  0  0  0  0  0  0
  180.8850   21.2320   49.6200 C   0  0  0  0  0  0  0  0  0  0  0  0
  181.7550   20.6410   48.7060 C   0  0  0  0  0  0  0  0  0  0  0  0
  181.5150   20.7640   47.3390 C   0  0  0  0  0  0  0  0  0  0  0  0
  180.4060   21.4790   46.8840 C   0  0  0  0  0  0  0  0  0  0  0  0
  177.8658   19.7526   46.2513 H   0  0  0  0  0  0  0  0  0  0  0  0
  176.3811   19.9265   45.2553 H   0  0  0  0  0  0  0  0  0  0  0  0
  177.6201   21.2271   45.2553 H   0  0  0  0  0  0  0  0  0  0  0  0
  174.7643   19.7342   46.9457 H   0  0  0  0  0  0  0  0  0  0  0  0
  173.5621   20.7340   48.8753 H   0  0  0  0  0  0  0  0  0  0  0  0
  176.4824   23.5072   53.6470 H   0  0  0  0  0  0  0  0  0  0  0  0
  175.5842   24.4905   55.7574 H   0  0  0  0  0  0  0  0  0  0  0  0
  173.1789   25.1370   55.9118 H   0  0  0  0  0  0  0  0  0  0  0  0
  170.8170   24.7610   53.3420 H   0  0  0  0  0  0  0  0  0  0  0  0
  172.4340   23.3610   48.4080 H   0  0  0  0  0  0  0  0  0  0  0  0
  176.7017   23.6581   49.3166 H   0  0  0  0  0  0  0  0  0  0  0  0
  178.3512   22.9043   46.2162 H   0  0  0  0  0  0  0  0  0  0  0  0
  178.3470   23.8321   47.8039 H   0  0  0  0  0  0  0  0  0  0  0  0
  179.0881   22.4066   49.8941 H   0  0  0  0  0  0  0  0  0  0  0  0
  181.0725   21.1338   50.6995 H   0  0  0  0  0  0  0  0  0  0  0  0
  182.6300   20.0782   49.0631 H   0  0  0  0  0  0  0  0  0  0  0  0
  182.2008   20.2967   46.6170 H   0  0  0  0  0  0  0  0  0  0  0  0
  180.2183   21.5637   45.8034 H   0  0  0  0  0  0  0  0  0  0  0  0
  1  2  1  0
  2  3  2  0
  3  4  1  0
  4  5  2  0
  5  6  1  0
  6  7  1  0
  7  8  1  0
  8  9  2  0
  9 10  1  0
 10 11  2  0
 11 12  1  0
 12 13  1  0
 12 14  2  0
 14 15  1  0
 15 16  2  0
 15 17  1  0
 17 18  1  0
  5 19  1  0
 19 20  2  0
 20 21  1  0
 21 22  1  0
 22 23  2  0
 23 24  1  0
 24 25  2  0
 25 26  1  0
 26 27  2  0
 20  2  1  0
 27 22  1  0
 17  6  2  0
 14  8  1  0
  1 28  1  0
  1 29  1  0
  1 30  1  0
  3 31  1  0
  4 32  1  0
  9 33  1  0
 10 34  1  0
 11 35  1  0
 13 36  1  0
 18 37  1  0
 19 38  1  0
 21 39  1  0
 21 40  1  0
 23 41  1  0
 24 42  1  0
 25 43  1  0
 26 44  1  0
 27 45  1  0
M  END
>  <meeko>  (3) 
{"is_sidechain": [false], "free_energy": -8.255, "intermolecular_energy": -10.172, "internal_energy": -0.645}

$$$$
cand_001_out
     RDKit          3D

 45 48  0  0  0  0  0  0  0  0999 V2000
  175.3890   20.2550   49.2820 C   0  0  0  0  0  0  0  0  0  0  0  0
  176.6820   20.9150   49.6760 C   0  0  0  0  0  0  0  0  0  0  0  0
  176.9120   21.1860   51.0340 C   0  0  0  0  0  0  0  0  0  0  0  0
  178.1080   21.7700   51.4590 C   0  0  0  0  0  0  0  0  0  0  0  0
  179.1130   22.0880   50.5400 C   0  0  0  0  0  0  0  0  0  0  0  0
  180.3660   22.7180   51.0070 C   0  0  0  0  0  0  0  0  0  0  0  0
  180.1520   23.9300   51.6540 O   0  0  0  0  0  0  0  0  0  0  0  0
  181.2330   24.6220   52.1390 C   0  0  0  0  0  0  0  0  0  0  0  0
  180.9750   25.8410   52.7680 C   0  0  0  0  0  0  0  0  0  0  0  0
  182.0290   26.5940   53.2860 C   0  0  0  0  0  0  0  0  0  0  0  0
  183.3420   26.1310   53.1750 C   0  0  0  0  0  0  0  0  0  0  0  0
  183.5970   24.9150   52.5470 C   0  0  0  0  0  0  0  0  0  0  0  0
  184.9050   24.5200   52.4740 O   0  0  0  0  0  0  0  0  0  0  0  0
  182.5410   24.1600   52.0290 C   0  0  0  0  0  0  0  0  0  0  0  0
  182.7660   22.8770   51.3620 C   0  0  0  0  0  0  0  0  0  0  0  0
  183.8900   22.3990   51.2320 O   0  0  0  0  0  0  0  0  0  0  0  0
  181.5790   22.1600   50.8400 C   0  0  0  0  0  0  0  0  0  0  0  0
  181.8020   20.9420   50.2230 O   0  0  0  0  0  0  0  0  0  0  0  0
  178.8820   21.8220   49.1840 C   0  0  0  0  0  0  0  0  0  0  0  0
  177.6830   21.2290   48.7350 C   0  0  0  0  0  0  0  0  0  0  0  0
  177.5320   20.9440   47.2520 C   0  0  0  0  0  0  0  0  0  0  0  0
  178.7480   20.3340   46.5900 C   0  0  0  0  0  0  0  0  0  0  0  0
  178.7900   18.9560   46.3250 C   0  0  0  0  0  0  0  0  0  0  0  0
  179.8970   18.3870   45.6930 C   0  0  0  0  0  0  0  0  0  0  0  0
  180.9720   19.1870   45.3120 C   0  0  0  0  0  0  0  0  0  0  0  0
  180.9390   20.5580   45.5580 C   0  0  0  0  0  0  0  0  0  0  0  0
  179.8320   21.1300   46.1880 C   0  0  0  0  0  0  0  0  0  0  0  0
  174.8319   19.9706   50.1868 H   0  0  0  0  0  0  0  0  0  0  0  0
  174.7865   20.9558   48.6855 H   0  0  0  0  0  0  0  0  0  0  0  0
  175.6031   19.3559   48.6855 H   0  0  0  0  0  0  0  0  0  0  0  0
  176.1388   20.9347   51.7749 H   0  0  0  0  0  0  0  0  0  0  0  0
  178.2607   21.9819   52.5276 H   0  0  0  0  0  0  0  0  0  0  0  0
  179.9416   26.2076   52.8552 H   0  0  0  0  0  0  0  0  0  0  0  0
  181.8256   27.5541   53.7828 H   0  0  0  0  0  0  0  0  0  0  0  0
  184.1726   26.7257   53.5828 H   0  0  0  0  0  0  0  0  0  0  0  0
  185.3830   24.6300   51.6770 H   0  0  0  0  0  0  0  0  0  0  0  0
  182.3890   20.8860   49.4950 H   0  0  0  0  0  0  0  0  0  0  0  0
  179.6573   22.0828   48.4486 H   0  0  0  0  0  0  0  0  0  0  0  0
  176.6888   20.2496   47.1223 H   0  0  0  0  0  0  0  0  0  0  0  0
  177.3747   21.9185   46.7666 H   0  0  0  0  0  0  0  0  0  0  0  0
  177.9427   18.3187   46.6181 H   0  0  0  0  0  0  0  0  0  0  0  0
  179.9206   17.3051   45.4955 H   0  0  0  0  0  0  0  0  0  0  0  0
  181.8456   18.7369   44.8177 H   0  0  0  0  0  0  0  0  0  0  0  0
  181.7864   21.1908   45.2554 H   0  0  0  0  0  0  0  0  0  0  0  0
  179.8092   22.2144   46.3710 H   0  0  0  0  0  0  0  0  0  0  0  0
  1  2  1  0
  2  3  2  0
  3  4  1  0
  4  5  2  0
  5  6  1  0
  6  7  1  0
  7  8  1  0
  8  9  2  0
  9 10  1  0
 10 11  2  0
 11 12  1  0
 12 13  1  0
 12 14  2  0
 14 15  1  0
 15 16  2  0
 15 17  1  0
 17 18  1  0
  5 19  1  0
 19 20  2  0
 20 21  1  0
 21 22  1  0
 22 23  2  0
 23 24  1  0
 24 25  2  0
 25 26  1  0
 26 27  2  0
 20  2  1  0
 27 22  1  0
 17  6  2  0
 14  8  1  0
  1 28  1  0
  1 29  1  0
  1 30  1  0
  3 31  1  0
  4 32  1  0
  9 33  1  0
 10 34  1  0
 11 35  1  0
 13 36  1  0
 18 37  1  0
 19 38  1  0
 21 39  1  0
 21 40  1  0
 23 41  1  0
 24 42  1  0
 25 43  1  0
 26 44  1  0
 27 45  1  0
M  END
>  <meeko>  (4) 
{"is_sidechain": [false], "free_energy": -8.197, "intermolecular_energy": -10.099, "internal_energy": -0.647}

$$$$
cand_001_out
     RDKit          3D

 45 48  0  0  0  0  0  0  0  0999 V2000
  175.6030   23.8020   53.2840 C   0  0  0  0  0  0  0  0  0  0  0  0
  176.3440   23.2740   52.0860 C   0  0  0  0  0  0  0  0  0  0  0  0
  177.0570   22.0720   52.2120 C   0  0  0  0  0  0  0  0  0  0  0  0
  177.7370   21.5210   51.1220 C   0  0  0  0  0  0  0  0  0  0  0  0
  177.7130   22.1500   49.8730 C   0  0  0  0  0  0  0  0  0  0  0  0
  178.4500   21.5600   48.7360 C   0  0  0  0  0  0  0  0  0  0  0  0
  179.7410   22.0620   48.6110 O   0  0  0  0  0  0  0  0  0  0  0  0
  180.5370   21.5980   47.5940 C   0  0  0  0  0  0  0  0  0  0  0  0
  181.8190   22.1400   47.4950 C   0  0  0  0  0  0  0  0  0  0  0  0
  182.6810   21.7100   46.4850 C   0  0  0  0  0  0  0  0  0  0  0  0
  182.2620   20.7390   45.5740 C   0  0  0  0  0  0  0  0  0  0  0  0
  180.9820   20.1990   45.6740 C   0  0  0  0  0  0  0  0  0  0  0  0
  180.6370   19.2520   44.7500 O   0  0  0  0  0  0  0  0  0  0  0  0
  180.1190   20.6310   46.6860 C   0  0  0  0  0  0  0  0  0  0  0  0
  178.7670   20.0890   46.8270 C   0  0  0  0  0  0  0  0  0  0  0  0
  178.3280   19.2270   46.0690 O   0  0  0  0  0  0  0  0  0  0  0  0
  177.9290   20.6190   47.9280 C   0  0  0  0  0  0  0  0  0  0  0  0
  176.6570   20.0910   48.0600 O   0  0  0  0  0  0  0  0  0  0  0  0
  177.0050   23.3530   49.7480 C   0  0  0  0  0  0  0  0  0  0  0  0
  176.3080   23.9230   50.8340 C   0  0  0  0  0  0  0  0  0  0  0  0
  175.5380   25.2090   50.6000 C   0  0  0  0  0  0  0  0  0  0  0  0
  174.1260   25.0260   50.0870 C   0  0  0  0  0  0  0  0  0  0  0  0
  173.6970   23.7660   49.6420 C   0  0  0  0  0  0  0  0  0  0  0  0
  172.3890   23.5790   49.1890 C   0  0  0  0  0  0  0  0  0  0  0  0
  171.4930   24.6460   49.1830 C   0  0  0  0  0  0  0  0  0  0  0  0
  171.9030   25.8990   49.6330 C   0  0  0  0  0  0  0  0  0  0  0  0
  173.2090   26.0880   50.0880 C   0  0  0  0  0  0  0  0  0  0  0  0
  176.0950   23.4514   54.2033 H   0  0  0  0  0  0  0  0  0  0  0  0
  175.6073   24.9018   53.2624 H   0  0  0  0  0  0  0  0  0  0  0  0
  174.5649   23.4389   53.2624 H   0  0  0  0  0  0  0  0  0  0  0  0
  177.0812   21.5556   53.1830 H   0  0  0  0  0  0  0  0  0  0  0  0
  178.2970   20.5826   51.2479 H   0  0  0  0  0  0  0  0  0  0  0  0
  182.1500   22.9055   48.2123 H   0  0  0  0  0  0  0  0  0  0  0  0
  183.6918   22.1368   46.4068 H   0  0  0  0  0  0  0  0  0  0  0  0
  182.9418   20.4007   44.7781 H   0  0  0  0  0  0  0  0  0  0  0  0
  180.4480   19.5050   43.8680 H   0  0  0  0  0  0  0  0  0  0  0  0
  176.0460   20.4830   48.6520 H   0  0  0  0  0  0  0  0  0  0  0  0
  176.9924   23.8673   48.7757 H   0  0  0  0  0  0  0  0  0  0  0  0
  175.4862   25.7539   51.5541 H   0  0  0  0  0  0  0  0  0  0  0  0
  176.0819   25.7537   49.8142 H   0  0  0  0  0  0  0  0  0  0  0  0
  174.3974   22.9178   49.6500 H   0  0  0  0  0  0  0  0  0  0  0  0
  172.0660   22.5883   48.8366 H   0  0  0  0  0  0  0  0  0  0  0  0
  170.4638   24.4992   48.8236 H   0  0  0  0  0  0  0  0  0  0  0  0
  171.1958   26.7415   49.6298 H   0  0  0  0  0  0  0  0  0  0  0  0
  173.5221   27.0782   50.4505 H   0  0  0  0  0  0  0  0  0  0  0  0
  1  2  1  0
  2  3  2  0
  3  4  1  0
  4  5  2  0
  5  6  1  0
  6  7  1  0
  7  8  1  0
  8  9  2  0
  9 10  1  0
 10 11  2  0
 11 12  1  0
 12 13  1  0
 12 14  2  0
 14 15  1  0
 15 16  2  0
 15 17  1  0
 17 18  1  0
  5 19  1  0
 19 20  2  0
 20 21  1  0
 21 22  1  0
 22 23  2  0
 23 24  1  0
 24 25  2  0
 25 26  1  0
 26 27  2  0
 20  2  1  0
 27 22  1  0
 17  6  2  0
 14  8  1  0
  1 28  1  0
  1 29  1  0
  1 30  1  0
  3 31  1  0
  4 32  1  0
  9 33  1  0
 10 34  1  0
 11 35  1  0
 13 36  1  0
 18 37  1  0
 19 38  1  0
 21 39  1  0
 21 40  1  0
 23 41  1  0
 24 42  1  0
 25 43  1  0
 26 44  1  0
 27 45  1  0
M  END
>  <meeko>  (5) 
{"is_sidechain": [false], "free_energy": -8.113, "intermolecular_energy": -9.723, "internal_energy": -0.92}

$$$$
cand_001_out
     RDKit          3D

 45 48  0  0  0  0  0  0  0  0999 V2000
  177.2460   19.8860   46.2380 C   0  0  0  0  0  0  0  0  0  0  0  0
  178.5210   20.4740   46.7780 C   0  0  0  0  0  0  0  0  0  0  0  0
  179.6980   19.7140   46.6980 C   0  0  0  0  0  0  0  0  0  0  0  0
  180.9160   20.2230   47.1560 C   0  0  0  0  0  0  0  0  0  0  0  0
  180.9940   21.5110   47.6960 C   0  0  0  0  0  0  0  0  0  0  0  0
  182.2890   22.0270   48.1890 C   0  0  0  0  0  0  0  0  0  0  0  0
  182.9800   22.7550   47.2280 O   0  0  0  0  0  0  0  0  0  0  0  0
  184.2000   23.2930   47.5540 C   0  0  0  0  0  0  0  0  0  0  0  0
  184.8660   24.0040   46.5550 C   0  0  0  0  0  0  0  0  0  0  0  0
  186.1100   24.5780   46.8220 C   0  0  0  0  0  0  0  0  0  0  0  0
  186.6880   24.4430   48.0850 C   0  0  0  0  0  0  0  0  0  0  0  0
  186.0210   23.7330   49.0810 C   0  0  0  0  0  0  0  0  0  0  0  0
  186.6430   23.6400   50.2950 O   0  0  0  0  0  0  0  0  0  0  0  0
  184.7750   23.1580   48.8130 C   0  0  0  0  0  0  0  0  0  0  0  0
  184.0410   22.4050   49.8310 C   0  0  0  0  0  0  0  0  0  0  0  0
  184.4790   22.2480   50.9680 O   0  0  0  0  0  0  0  0  0  0  0  0
  182.7320   21.8280   49.4430 C   0  0  0  0  0  0  0  0  0  0  0  0
  182.0400   21.1290   50.4170 O   0  0  0  0  0  0  0  0  0  0  0  0
  179.8180   22.2680   47.7810 C   0  0  0  0  0  0  0  0  0  0  0  0
  178.5800   21.7740   47.3200 C   0  0  0  0  0  0  0  0  0  0  0  0
  177.3630   22.6760   47.4180 C   0  0  0  0  0  0  0  0  0  0  0  0
  176.8120   22.8590   48.8150 C   0  0  0  0  0  0  0  0  0  0  0  0
  176.9490   21.8350   49.7660 C   0  0  0  0  0  0  0  0  0  0  0  0
  176.4660   22.0020   51.0660 C   0  0  0  0  0  0  0  0  0  0  0  0
  175.8490   23.1950   51.4330 C   0  0  0  0  0  0  0  0  0  0  0  0
  175.7180   24.2250   50.5030 C   0  0  0  0  0  0  0  0  0  0  0  0
  176.2010   24.0600   49.2040 C   0  0  0  0  0  0  0  0  0  0  0  0
  176.5972   19.5868   47.0743 H   0  0  0  0  0  0  0  0  0  0  0  0
  176.7281   20.6362   45.6224 H   0  0  0  0  0  0  0  0  0  0  0  0
  177.4804   19.0050   45.6224 H   0  0  0  0  0  0  0  0  0  0  0  0
  179.6612   18.7021   46.2682 H   0  0  0  0  0  0  0  0  0  0  0  0
  181.8232   19.6043   47.0912 H   0  0  0  0  0  0  0  0  0  0  0  0
  184.4116   24.1119   45.5591 H   0  0  0  0  0  0  0  0  0  0  0  0
  186.6361   25.1381   46.0349 H   0  0  0  0  0  0  0  0  0  0  0  0
  187.6683   24.8963   48.2937 H   0  0  0  0  0  0  0  0  0  0  0  0
  187.5760   23.6930   50.3490 H   0  0  0  0  0  0  0  0  0  0  0  0
  182.5010   20.5590   51.0010 H   0  0  0  0  0  0  0  0  0  0  0  0
  179.8615   23.2758   48.2196 H   0  0  0  0  0  0  0  0  0  0  0  0
  177.6405   23.6666   47.0284 H   0  0  0  0  0  0  0  0  0  0  0  0
  176.5690   22.1841   46.8370 H   0  0  0  0  0  0  0  0  0  0  0  0
  177.4413   20.8924   49.4846 H   0  0  0  0  0  0  0  0  0  0  0  0
  176.5732   21.1902   51.8005 H   0  0  0  0  0  0  0  0  0  0  0  0
  175.4653   23.3245   52.4557 H   0  0  0  0  0  0  0  0  0  0  0  0
  175.2334   25.1689   50.7932 H   0  0  0  0  0  0  0  0  0  0  0  0
  176.1015   24.8803   48.4779 H   0  0  0  0  0  0  0  0  0  0  0  0
  1  2  1  0
  2  3  2  0
  3  4  1  0
  4  5  2  0
  5  6  1  0
  6  7  1  0
  7  8  1  0
  8  9  2  0
  9 10  1  0
 10 11  2  0
 11 12  1  0
 12 13  1  0
 12 14  2  0
 14 15  1  0
 15 16  2  0
 15 17  1  0
 17 18  1  0
  5 19  1  0
 19 20  2  0
 20 21  1  0
 21 22  1  0
 22 23  2  0
 23 24  1  0
 24 25  2  0
 25 26  1  0
 26 27  2  0
 20  2  1  0
 27 22  1  0
 17  6  2  0
 14  8  1  0
  1 28  1  0
  1 29  1  0
  1 30  1  0
  3 31  1  0
  4 32  1  0
  9 33  1  0
 10 34  1  0
 11 35  1  0
 13 36  1  0
 18 37  1  0
 19 38  1  0
 21 39  1  0
 21 40  1  0
 23 41  1  0
 24 42  1  0
 25 43  1  0
 26 44  1  0
 27 45  1  0
M  END
>  <meeko>  (6) 
{"is_sidechain": [false], "free_energy": -8.109, "intermolecular_energy": -9.609, "internal_energy": -1.028}

$$$$
cand_001_out
     RDKit          3D

 45 48  0  0  0  0  0  0  0  0999 V2000
  175.2580   23.7030   53.0580 C   0  0  0  0  0  0  0  0  0  0  0  0
  176.2900   23.3810   52.0120 C   0  0  0  0  0  0  0  0  0  0  0  0
  177.1070   22.2560   52.1960 C   0  0  0  0  0  0  0  0  0  0  0  0
  178.0600   21.8940   51.2410 C   0  0  0  0  0  0  0  0  0  0  0  0
  178.2150   22.6400   50.0680 C   0  0  0  0  0  0  0  0  0  0  0  0
  179.2390   22.2500   49.0760 C   0  0  0  0  0  0  0  0  0  0  0  0
  178.8530   21.1610   48.3020 O   0  0  0  0  0  0  0  0  0  0  0  0
  179.7120   20.6950   47.3390 C   0  0  0  0  0  0  0  0  0  0  0  0
  179.2910   19.5910   46.5960 C   0  0  0  0  0  0  0  0  0  0  0  0
  180.1160   19.0680   45.5990 C   0  0  0  0  0  0  0  0  0  0  0  0
  181.3610   19.6470   45.3450 C   0  0  0  0  0  0  0  0  0  0  0  0
  181.7790   20.7480   46.0870 C   0  0  0  0  0  0  0  0  0  0  0  0
  183.0080   21.2660   45.7860 O   0  0  0  0  0  0  0  0  0  0  0  0
  180.9520   21.2720   47.0860 C   0  0  0  0  0  0  0  0  0  0  0  0
  181.3530   22.4280   47.8890 C   0  0  0  0  0  0  0  0  0  0  0  0
  182.4290   22.9970   47.7200 O   0  0  0  0  0  0  0  0  0  0  0  0
  180.4070   22.9000   48.9280 C   0  0  0  0  0  0  0  0  0  0  0  0
  180.7900   24.0020   49.6720 O   0  0  0  0  0  0  0  0  0  0  0  0
  177.4030   23.7670   49.8860 C   0  0  0  0  0  0  0  0  0  0  0  0
  176.4320   24.1470   50.8360 C   0  0  0  0  0  0  0  0  0  0  0  0
  175.5710   25.3620   50.5410 C   0  0  0  0  0  0  0  0  0  0  0  0
  174.1750   25.0520   50.0460 C   0  0  0  0  0  0  0  0  0  0  0  0
  173.8500   23.7540   49.6200 C   0  0  0  0  0  0  0  0  0  0  0  0
  172.5580   23.4520   49.1840 C   0  0  0  0  0  0  0  0  0  0  0  0
  171.5750   24.4380   49.1760 C   0  0  0  0  0  0  0  0  0  0  0  0
  171.8800   25.7270   49.6080 C   0  0  0  0  0  0  0  0  0  0  0  0
  173.1700   26.0310   50.0460 C   0  0  0  0  0  0  0  0  0  0  0  0
  175.6949   23.5667   54.0583 H   0  0  0  0  0  0  0  0  0  0  0  0
  174.9298   24.7463   52.9403 H   0  0  0  0  0  0  0  0  0  0  0  0
  174.3947   23.0315   52.9403 H   0  0  0  0  0  0  0  0  0  0  0  0
  176.9956   21.6492   53.1067 H   0  0  0  0  0  0  0  0  0  0  0  0
  178.6954   21.0128   51.4133 H   0  0  0  0  0  0  0  0  0  0  0  0
  178.3106   19.1339   46.7958 H   0  0  0  0  0  0  0  0  0  0  0  0
  179.7849   18.1983   45.0124 H   0  0  0  0  0  0  0  0  0  0  0  0
  182.0106   19.2335   44.5595 H   0  0  0  0  0  0  0  0  0  0  0  0
  183.1270   22.1940   45.7400 H   0  0  0  0  0  0  0  0  0  0  0  0
  181.3220   23.8890   50.4350 H   0  0  0  0  0  0  0  0  0  0  0  0
  177.5262   24.3729   48.9762 H   0  0  0  0  0  0  0  0  0  0  0  0
  175.4821   25.9500   51.4664 H   0  0  0  0  0  0  0  0  0  0  0  0
  176.0729   25.9036   49.7257 H   0  0  0  0  0  0  0  0  0  0  0  0
  174.6197   22.9682   49.6298 H   0  0  0  0  0  0  0  0  0  0  0  0
  172.3166   22.4333   48.8463 H   0  0  0  0  0  0  0  0  0  0  0  0
  170.5588   24.1996   48.8290 H   0  0  0  0  0  0  0  0  0  0  0  0
  171.1034   26.5060   49.6039 H   0  0  0  0  0  0  0  0  0  0  0  0
  173.4010   27.0484   50.3947 H   0  0  0  0  0  0  0  0  0  0  0  0
  1  2  1  0
  2  3  2  0
  3  4  1  0
  4  5  2  0
  5  6  1  0
  6  7  1  0
  7  8  1  0
  8  9  2  0
  9 10  1  0
 10 11  2  0
 11 12  1  0
 12 13  1  0
 12 14  2  0
 14 15  1  0
 15 16  2  0
 15 17  1  0
 17 18  1  0
  5 19  1  0
 19 20  2  0
 20 21  1  0
 21 22  1  0
 22 23  2  0
 23 24  1  0
 24 25  2  0
 25 26  1  0
 26 27  2  0
 20  2  1  0
 27 22  1  0
 17  6  2  0
 14  8  1  0
  1 28  1  0
  1 29  1  0
  1 30  1  0
  3 31  1  0
  4 32  1  0
  9 33  1  0
 10 34  1  0
 11 35  1  0
 13 36  1  0
 18 37  1  0
 19 38  1  0
 21 39  1  0
 21 40  1  0
 23 41  1  0
 24 42  1  0
 25 43  1  0
 26 44  1  0
 27 45  1  0
M  END
>  <meeko>  (7) 
{"is_sidechain": [false], "free_energy": -8.109, "intermolecular_energy": -9.79, "internal_energy": -0.847}

$$$$
cand_001_out
     RDKit          3D

 45 48  0  0  0  0  0  0  0  0999 V2000
  180.4820   18.6770   44.8960 C   0  0  0  0  0  0  0  0  0  0  0  0
  180.6140   19.7620   45.9290 C   0  0  0  0  0  0  0  0  0  0  0  0
  181.8760   20.0070   46.4900 C   0  0  0  0  0  0  0  0  0  0  0  0
  182.0610   21.0230   47.4310 C   0  0  0  0  0  0  0  0  0  0  0  0
  180.9920   21.8310   47.8290 C   0  0  0  0  0  0  0  0  0  0  0  0
  181.2040   22.8920   48.8360 C   0  0  0  0  0  0  0  0  0  0  0  0
  181.6270   24.0920   48.2750 O   0  0  0  0  0  0  0  0  0  0  0  0
  181.8610   25.1630   49.1000 C   0  0  0  0  0  0  0  0  0  0  0  0
  182.3000   26.3430   48.4980 C   0  0  0  0  0  0  0  0  0  0  0  0
  182.5540   27.4710   49.2790 C   0  0  0  0  0  0  0  0  0  0  0  0
  182.3710   27.4200   50.6620 C   0  0  0  0  0  0  0  0  0  0  0  0
  181.9340   26.2420   51.2620 C   0  0  0  0  0  0  0  0  0  0  0  0
  181.7750   26.2620   52.6200 O   0  0  0  0  0  0  0  0  0  0  0  0
  181.6790   25.1130   50.4780 C   0  0  0  0  0  0  0  0  0  0  0  0
  181.2180   23.8550   51.0680 C   0  0  0  0  0  0  0  0  0  0  0  0
  181.0260   23.7330   52.2760 O   0  0  0  0  0  0  0  0  0  0  0  0
  180.9850   22.7150   50.1510 C   0  0  0  0  0  0  0  0  0  0  0  0
  180.5360   21.5340   50.7180 O   0  0  0  0  0  0  0  0  0  0  0  0
  179.7290   21.5840   47.2730 C   0  0  0  0  0  0  0  0  0  0  0  0
  179.5230   20.5660   46.3180 C   0  0  0  0  0  0  0  0  0  0  0  0
  178.1290   20.3920   45.7410 C   0  0  0  0  0  0  0  0  0  0  0  0
  177.0100   20.3990   46.7590 C   0  0  0  0  0  0  0  0  0  0  0  0
  176.6840   19.2250   47.4560 C   0  0  0  0  0  0  0  0  0  0  0  0
  175.6690   19.2260   48.4150 C   0  0  0  0  0  0  0  0  0  0  0  0
  174.9730   20.4000   48.6950 C   0  0  0  0  0  0  0  0  0  0  0  0
  175.2950   21.5760   48.0190 C   0  0  0  0  0  0  0  0  0  0  0  0
  176.3100   21.5770   47.0610 C   0  0  0  0  0  0  0  0  0  0  0  0
  180.3638   17.7053   45.3979 H   0  0  0  0  0  0  0  0  0  0  0  0
  179.6013   18.8745   44.2673 H   0  0  0  0  0  0  0  0  0  0  0  0
  181.3844   18.6576   44.2673 H   0  0  0  0  0  0  0  0  0  0  0  0
  182.7335   19.3895   46.1843 H   0  0  0  0  0  0  0  0  0  0  0  0
  183.0588   21.1889   47.8634 H   0  0  0  0  0  0  0  0  0  0  0  0
  182.4457   26.3838   47.4085 H   0  0  0  0  0  0  0  0  0  0  0  0
  182.8988   28.4015   48.8044 H   0  0  0  0  0  0  0  0  0  0  0  0
  182.5718   28.3096   51.2771 H   0  0  0  0  0  0  0  0  0  0  0  0
  182.5140   26.4110   53.1760 H   0  0  0  0  0  0  0  0  0  0  0  0
  179.6400   21.4500   50.9770 H   0  0  0  0  0  0  0  0  0  0  0  0
  178.8751   22.2008   47.5900 H   0  0  0  0  0  0  0  0  0  0  0  0
  177.9490   21.2122   45.0305 H   0  0  0  0  0  0  0  0  0  0  0  0
  178.1122   19.3968   45.2727 H   0  0  0  0  0  0  0  0  0  0  0  0
  177.2332   18.2956   47.2448 H   0  0  0  0  0  0  0  0  0  0  0  0
  175.4185   18.2983   48.9503 H   0  0  0  0  0  0  0  0  0  0  0  0
  174.1711   20.3990   49.4479 H   0  0  0  0  0  0  0  0  0  0  0  0
  174.7483   22.5044   48.2410 H   0  0  0  0  0  0  0  0  0  0  0  0
  176.5637   22.5106   46.5375 H   0  0  0  0  0  0  0  0  0  0  0  0
  1  2  1  0
  2  3  2  0
  3  4  1  0
  4  5  2  0
  5  6  1  0
  6  7  1  0
  7  8  1  0
  8  9  2  0
  9 10  1  0
 10 11  2  0
 11 12  1  0
 12 13  1  0
 12 14  2  0
 14 15  1  0
 15 16  2  0
 15 17  1  0
 17 18  1  0
  5 19  1  0
 19 20  2  0
 20 21  1  0
 21 22  1  0
 22 23  2  0
 23 24  1  0
 24 25  2  0
 25 26  1  0
 26 27  2  0
 20  2  1  0
 27 22  1  0
 17  6  2  0
 14  8  1  0
  1 28  1  0
  1 29  1  0
  1 30  1  0
  3 31  1  0
  4 32  1  0
  9 33  1  0
 10 34  1  0
 11 35  1  0
 13 36  1  0
 18 37  1  0
 19 38  1  0
 21 39  1  0
 21 40  1  0
 23 41  1  0
 24 42  1  0
 25 43  1  0
 26 44  1  0
 27 45  1  0
M  END
>  <meeko>  (8) 
{"is_sidechain": [false], "free_energy": -8.109, "intermolecular_energy": -9.651, "internal_energy": -0.986}

$$$$
