cand_011_out
     RDKit          3D

 35 37  0  0  0  0  0  0  0  0999 V2000
  182.0340   15.3830   42.7800 C   0  0  0  0  0  0  0  0  0  0  0  0
  181.4620   16.4300   43.6980 C   0  0  0  0  0  0  0  0  0  0  0  0
  181.8960   17.7580   43.5740 C   0  0  0  0  0  0  0  0  0  0  0  0
  181.3850   18.7570   44.4040 C   0  0  0  0  0  0  0  0  0  0  0  0
  180.4310   18.4600   45.3830 C   0  0  0  0  0  0  0  0  0  0  0  0
  179.8900   19.5370   46.2380 C   0  0  0  0  0  0  0  0  0  0  0  0
  178.5010   19.5820   46.2390 O   0  0  0  0  0  0  0  0  0  0  0  0
  177.8700   20.5390   46.9930 C   0  0  0  0  0  0  0  0  0  0  0  0
  176.4750   20.5400   46.9760 C   0  0  0  0  0  0  0  0  0  0  0  0
  175.7690   21.4870   47.7220 C   0  0  0  0  0  0  0  0  0  0  0  0
  176.4600   22.4350   48.4820 C   0  0  0  0  0  0  0  0  0  0  0  0
  177.8520   22.4320   48.4960 C   0  0  0  0  0  0  0  0  0  0  0  0
  178.4640   23.3870   49.2600 O   0  0  0  0  0  0  0  0  0  0  0  0
  178.5570   21.4820   47.7510 C   0  0  0  0  0  0  0  0  0  0  0  0
  180.0200   21.4450   47.7380 C   0  0  0  0  0  0  0  0  0  0  0  0
  180.6990   22.2490   48.3750 O   0  0  0  0  0  0  0  0  0  0  0  0
  180.6710   20.3940   46.9230 C   0  0  0  0  0  0  0  0  0  0  0  0
  182.0530   20.3730   46.9060 O   0  0  0  0  0  0  0  0  0  0  0  0
  179.9840   17.1340   45.4950 C   0  0  0  0  0  0  0  0  0  0  0  0
  180.4870   16.1100   44.6660 C   0  0  0  0  0  0  0  0  0  0  0  0
  179.9730   14.6980   44.8400 C   0  0  0  0  0  0  0  0  0  0  0  0
  178.8300   14.6440   45.5800 F   0  0  0  0  0  0  0  0  0  0  0  0
  179.6810   14.0700   43.6660 F   0  0  0  0  0  0  0  0  0  0  0  0
  180.8670   13.8860   45.4730 F   0  0  0  0  0  0  0  0  0  0  0  0
  182.4765   14.5730   43.3783 H   0  0  0  0  0  0  0  0  0  0  0  0
  181.2335   14.9749   42.1454 H   0  0  0  0  0  0  0  0  0  0  0  0
  182.8099   15.8361   42.1454 H   0  0  0  0  0  0  0  0  0  0  0  0
  182.6480   18.0152   42.8136 H   0  0  0  0  0  0  0  0  0  0  0  0
  181.7374   19.7924   44.2866 H   0  0  0  0  0  0  0  0  0  0  0  0
  175.9314   19.7957   46.3756 H   0  0  0  0  0  0  0  0  0  0  0  0
  174.6690   21.4866   47.7113 H   0  0  0  0  0  0  0  0  0  0  0  0
  175.9048   23.1822   49.0681 H   0  0  0  0  0  0  0  0  0  0  0  0
  179.1660   23.1500   49.8340 H   0  0  0  0  0  0  0  0  0  0  0  0
  182.5220   19.9090   47.5710 H   0  0  0  0  0  0  0  0  0  0  0  0
  179.2218   16.8873   46.2488 H   0  0  0  0  0  0  0  0  0  0  0  0
  1  2  1  0
  2  3  2  0
  3  4  1  0
  4  5  2  0
  5  6  1  0
  6  7  1  0
  7  8  1  0
  8  9  2  0
  9 10  1  0
 10 11  2  0
 11 12  1  0
 12 13  1  0
 12 14  2  0
 14 15  1  0
 15 16  2  0
 15 17  1  0
 17 18  1  0
  5 19  1  0
 19 20  2  0
 20 21  1  0
 21 22  1  0
 21 23  1  0
 21 24  1  0
 20  2  1  0
 17  6  2  0
 14  8  1  0
  1 25  1  0
  1 26  1  0
  1 27  1  0
  3 28  1  0
  4 29  1  0
  9 30  1  0
 10 31  1  0
 11 32  1  0
 13 33  1  0
 18 34  1  0
 19 35  1  0
M  END
>  <meeko>  (1) 
{"is_sidechain": [false], "free_energy": -8.992, "intermolecular_energy": -10.569, "internal_energy": -0.112}

$$$$
cand_011_out
     RDKit          3D

 35 37  0  0  0  0  0  0  0  0999 V2000
  176.6300   22.3760   49.1120 C   0  0  0  0  0  0  0  0  0  0  0  0
  177.3850   21.4120   48.2360 C   0  0  0  0  0  0  0  0  0  0  0  0
  178.7800   21.5240   48.1410 C   0  0  0  0  0  0  0  0  0  0  0  0
  179.5140   20.6450   47.3420 C   0  0  0  0  0  0  0  0  0  0  0  0
  178.8780   19.6330   46.6150 C   0  0  0  0  0  0  0  0  0  0  0  0
  179.6780   18.7030   45.7900 C   0  0  0  0  0  0  0  0  0  0  0  0
  179.1820   17.4050   45.8040 O   0  0  0  0  0  0  0  0  0  0  0  0
  179.8340   16.4390   45.0790 C   0  0  0  0  0  0  0  0  0  0  0  0
  179.2940   15.1530   45.1090 C   0  0  0  0  0  0  0  0  0  0  0  0
  179.9090   14.1220   44.3930 C   0  0  0  0  0  0  0  0  0  0  0  0
  181.0630   14.3790   43.6490 C   0  0  0  0  0  0  0  0  0  0  0  0
  181.5990   15.6640   43.6210 C   0  0  0  0  0  0  0  0  0  0  0  0
  182.7300   15.8440   42.8740 O   0  0  0  0  0  0  0  0  0  0  0  0
  180.9830   16.6950   44.3370 C   0  0  0  0  0  0  0  0  0  0  0  0
  181.5140   18.0580   44.3340 C   0  0  0  0  0  0  0  0  0  0  0  0
  182.5290   18.3620   43.7100 O   0  0  0  0  0  0  0  0  0  0  0  0
  180.7820   19.0790   45.1180 C   0  0  0  0  0  0  0  0  0  0  0  0
  181.2970   20.3620   45.1210 O   0  0  0  0  0  0  0  0  0  0  0  0
  177.4850   19.5110   46.7230 C   0  0  0  0  0  0  0  0  0  0  0  0
  176.7240   20.3880   47.5250 C   0  0  0  0  0  0  0  0  0  0  0  0
  175.2230   20.2120   47.5960 C   0  0  0  0  0  0  0  0  0  0  0  0
  174.7840   19.1560   46.8540 F   0  0  0  0  0  0  0  0  0  0  0  0
  174.7540   19.9940   48.8570 F   0  0  0  0  0  0  0  0  0  0  0  0
  174.5420   21.3000   47.1380 F   0  0  0  0  0  0  0  0  0  0  0  0
  176.8182   22.1357   50.1688 H   0  0  0  0  0  0  0  0  0  0  0  0
  176.9672   23.4021   48.9036 H   0  0  0  0  0  0  0  0  0  0  0  0
  175.5530   22.2945   48.9036 H   0  0  0  0  0  0  0  0  0  0  0  0
  179.3016   22.3132   48.7023 H   0  0  0  0  0  0  0  0  0  0  0  0
  180.6074   20.7497   47.2834 H   0  0  0  0  0  0  0  0  0  0  0  0
  178.3855   14.9507   45.6953 H   0  0  0  0  0  0  0  0  0  0  0  0
  179.4840   13.1077   44.4154 H   0  0  0  0  0  0  0  0  0  0  0  0
  181.5476   13.5676   43.0861 H   0  0  0  0  0  0  0  0  0  0  0  0
  182.7890   15.4730   42.0150 H   0  0  0  0  0  0  0  0  0  0  0  0
  181.9660   20.5990   44.5100 H   0  0  0  0  0  0  0  0  0  0  0  0
  176.9725   18.7112   46.1683 H   0  0  0  0  0  0  0  0  0  0  0  0
  1  2  1  0
  2  3  2  0
  3  4  1  0
  4  5  2  0
  5  6  1  0
  6  7  1  0
  7  8  1  0
  8  9  2  0
  9 10  1  0
 10 11  2  0
 11 12  1  0
 12 13  1  0
 12 14  2  0
 14 15  1  0
 15 16  2  0
 15 17  1  0
 17 18  1  0
  5 19  1  0
 19 20  2  0
 20 21  1  0
 21 22  1  0
 21 23  1  0
 21 24  1  0
 20  2  1  0
 17  6  2  0
 14  8  1  0
  1 25  1  0
  1 26  1  0
  1 27  1  0
  3 28  1  0
  4 29  1  0
  9 30  1  0
 10 31  1  0
 11 32  1  0
 13 33  1  0
 18 34  1  0
 19 35  1  0
M  END
>  <meeko>  (2) 
{"is_sidechain": [false], "free_energy": -8.023, "intermolecular_energy": -9.549, "internal_energy": 0.007}

$$$$
cand_011_out
     RDKit          3D

 35 37  0  0  0  0  0  0  0  0999 V2000
  175.7450   22.2100   48.5520 C   0  0  0  0  0  0  0  0  0  0  0  0
  176.7190   21.3250   47.8210 C   0  0  0  0  0  0  0  0  0  0  0  0
  176.3730   19.9890   47.5710 C   0  0  0  0  0  0  0  0  0  0  0  0
  177.2490   19.1390   46.8920 C   0  0  0  0  0  0  0  0  0  0  0  0
  178.4930   19.5970   46.4470 C   0  0  0  0  0  0  0  0  0  0  0  0
  179.3960   18.6850   45.7140 C   0  0  0  0  0  0  0  0  0  0  0  0
  178.9840   17.3580   45.7670 O   0  0  0  0  0  0  0  0  0  0  0  0
  179.7350   16.4050   45.1270 C   0  0  0  0  0  0  0  0  0  0  0  0
  179.2780   15.0890   45.1930 C   0  0  0  0  0  0  0  0  0  0  0  0
  179.9960   14.0690   44.5640 C   0  0  0  0  0  0  0  0  0  0  0  0
  181.1710   14.3670   43.8690 C   0  0  0  0  0  0  0  0  0  0  0  0
  181.6250   15.6810   43.8050 C   0  0  0  0  0  0  0  0  0  0  0  0
  182.7830   15.9010   43.1110 O   0  0  0  0  0  0  0  0  0  0  0  0
  180.9050   16.7010   44.4350 C   0  0  0  0  0  0  0  0  0  0  0  0
  181.3480   18.0950   44.3910 C   0  0  0  0  0  0  0  0  0  0  0  0
  182.3750   18.4360   43.8080 O   0  0  0  0  0  0  0  0  0  0  0  0
  180.5100   19.1010   45.0830 C   0  0  0  0  0  0  0  0  0  0  0  0
  180.9410   20.4140   45.0490 O   0  0  0  0  0  0  0  0  0  0  0  0
  178.8320   20.9380   46.6820 C   0  0  0  0  0  0  0  0  0  0  0  0
  177.9620   21.8130   47.3650 C   0  0  0  0  0  0  0  0  0  0  0  0
  178.3860   23.2470   47.5970 C   0  0  0  0  0  0  0  0  0  0  0  0
  179.5320   23.5680   46.9330 F   0  0  0  0  0  0  0  0  0  0  0  0
  177.4600   24.1650   47.1970 F   0  0  0  0  0  0  0  0  0  0  0  0
  178.6250   23.5210   48.9110 F   0  0  0  0  0  0  0  0  0  0  0  0
  175.8805   22.0869   49.6367 H   0  0  0  0  0  0  0  0  0  0  0  0
  175.9254   23.2596   48.2767 H   0  0  0  0  0  0  0  0  0  0  0  0
  174.7174   21.9302   48.2767 H   0  0  0  0  0  0  0  0  0  0  0  0
  175.4004   19.6061   47.9137 H   0  0  0  0  0  0  0  0  0  0  0  0
  176.9564   18.0953   46.7048 H   0  0  0  0  0  0  0  0  0  0  0  0
  178.3529   14.8544   45.7399 H   0  0  0  0  0  0  0  0  0  0  0  0
  179.6362   13.0308   44.6159 H   0  0  0  0  0  0  0  0  0  0  0  0
  181.7363   13.5642   43.3732 H   0  0  0  0  0  0  0  0  0  0  0  0
  183.4530   15.2470   43.0990 H   0  0  0  0  0  0  0  0  0  0  0  0
  180.9030   20.9400   45.8240 H   0  0  0  0  0  0  0  0  0  0  0  0
  179.8010   21.3165   46.3245 H   0  0  0  0  0  0  0  0  0  0  0  0
  1  2  1  0
  2  3  2  0
  3  4  1  0
  4  5  2  0
  5  6  1  0
  6  7  1  0
  7  8  1  0
  8  9  2  0
  9 10  1  0
 10 11  2  0
 11 12  1  0
 12 13  1  0
 12 14  2  0
 14 15  1  0
 15 16  2  0
 15 17  1  0
 17 18  1  0
  5 19  1  0
 19 20  2  0
 20 21  1  0
 21 22  1  0
 21 23  1  0
 21 24  1  0
 20  2  1  0
 17  6  2  0
 14  8  1  0
  1 25  1  0
  1 26  1  0
  1 27  1  0
  3 28  1  0
  4 29  1  0
  9 30  1  0
 10 31  1  0
 11 32  1  0
 13 33  1  0
 18 34  1  0
 19 35  1  0
M  END
>  <meeko>  (3) 
{"is_sidechain": [false], "free_energy": -7.288, "intermolecular_energy": -8.9, "internal_energy": 0.222}

$$$$
cand_011_out
     RDKit          3D

 35 37  0  0  0  0  0  0  0  0999 V2000
  182.2970   15.8310   43.2590 C   0  0  0  0  0  0  0  0  0  0  0  0
  181.3590   16.7140   44.0380 C   0  0  0  0  0  0  0  0  0  0  0  0
  181.5590   18.1020   44.0260 C   0  0  0  0  0  0  0  0  0  0  0  0
  180.7070   18.9530   44.7340 C   0  0  0  0  0  0  0  0  0  0  0  0
  179.6360   18.4430   45.4740 C   0  0  0  0  0  0  0  0  0  0  0  0
  178.7360   19.3640   46.2000 C   0  0  0  0  0  0  0  0  0  0  0  0
  179.3510   20.5630   46.5410 O   0  0  0  0  0  0  0  0  0  0  0  0
  178.6260   21.5090   47.2210 C   0  0  0  0  0  0  0  0  0  0  0  0
  179.2770   22.7040   47.5320 C   0  0  0  0  0  0  0  0  0  0  0  0
  178.5960   23.7090   48.2220 C   0  0  0  0  0  0  0  0  0  0  0  0
  177.2650   23.5180   48.6030 C   0  0  0  0  0  0  0  0  0  0  0  0
  176.6180   22.3260   48.2920 C   0  0  0  0  0  0  0  0  0  0  0  0
  175.3170   22.2060   48.6950 O   0  0  0  0  0  0  0  0  0  0  0  0
  177.3000   21.3200   47.5990 C   0  0  0  0  0  0  0  0  0  0  0  0
  176.6560   20.0520   47.2530 C   0  0  0  0  0  0  0  0  0  0  0  0
  175.4910   19.8070   47.5590 O   0  0  0  0  0  0  0  0  0  0  0  0
  177.4630   19.0570   46.5110 C   0  0  0  0  0  0  0  0  0  0  0  0
  176.8530   17.8560   46.1980 O   0  0  0  0  0  0  0  0  0  0  0  0
  179.4260   17.0560   45.4720 C   0  0  0  0  0  0  0  0  0  0  0  0
  180.2740   16.1790   44.7640 C   0  0  0  0  0  0  0  0  0  0  0  0
  180.0020   14.6910   44.8060 C   0  0  0  0  0  0  0  0  0  0  0  0
  178.8150   14.3920   45.4050 F   0  0  0  0  0  0  0  0  0  0  0  0
  179.9490   14.1070   43.5750 F   0  0  0  0  0  0  0  0  0  0  0  0
  180.9530   14.0000   45.4950 F   0  0  0  0  0  0  0  0  0  0  0  0
  182.9162   15.2481   43.9567 H   0  0  0  0  0  0  0  0  0  0  0  0
  181.7145   15.1459   42.6255 H   0  0  0  0  0  0  0  0  0  0  0  0
  182.9457   16.4538   42.6255 H   0  0  0  0  0  0  0  0  0  0  0  0
  182.3966   18.5255   43.4524 H   0  0  0  0  0  0  0  0  0  0  0  0
  180.8810   20.0389   44.7090 H   0  0  0  0  0  0  0  0  0  0  0  0
  180.3252   22.8538   47.2339 H   0  0  0  0  0  0  0  0  0  0  0  0
  179.1076   24.6518   48.4659 H   0  0  0  0  0  0  0  0  0  0  0  0
  176.7294   24.3092   49.1482 H   0  0  0  0  0  0  0  0  0  0  0  0
  174.8550   21.4030   48.5540 H   0  0  0  0  0  0  0  0  0  0  0  0
  177.3720   17.1230   45.9320 H   0  0  0  0  0  0  0  0  0  0  0  0
  178.5781   16.6416   46.0372 H   0  0  0  0  0  0  0  0  0  0  0  0
  1  2  1  0
  2  3  2  0
  3  4  1  0
  4  5  2  0
  5  6  1  0
  6  7  1  0
  7  8  1  0
  8  9  2  0
  9 10  1  0
 10 11  2  0
 11 12  1  0
 12 13  1  0
 12 14  2  0
 14 15  1  0
 15 16  2  0
 15 17  1  0
 17 18  1  0
  5 19  1  0
 19 20  2  0
 20 21  1  0
 21 22  1  0
 21 23  1  0
 21 24  1  0
 20  2  1  0
 17  6  2  0
 14  8  1  0
  1 25  1  0
  1 26  1  0
  1 27  1  0
  3 28  1  0
  4 29  1  0
  9 30  1  0
 10 31  1  0
 11 32  1  0
 13 33  1  0
 18 34  1  0
 19 35  1  0
M  END
>  <meeko>  (4) 
{"is_sidechain": [false], "free_energy": -7.24, "intermolecular_energy": -8.75, "internal_energy": 0.13}

$$$$
cand_011_out
     RDKit          3D

 35 37  0  0  0  0  0  0  0  0999 V2000
  181.0620   13.4950   42.4540 C   0  0  0  0  0  0  0  0  0  0  0  0
  180.8400   14.7980   43.1760 C   0  0  0  0  0  0  0  0  0  0  0  0
  180.5620   14.7790   44.5500 C   0  0  0  0  0  0  0  0  0  0  0  0
  180.3540   15.9680   45.2540 C   0  0  0  0  0  0  0  0  0  0  0  0
  180.4160   17.2050   44.6060 C   0  0  0  0  0  0  0  0  0  0  0  0
  180.2120   18.4510   45.3750 C   0  0  0  0  0  0  0  0  0  0  0  0
  178.9230   18.5690   45.8810 O   0  0  0  0  0  0  0  0  0  0  0  0
  178.5980   19.6820   46.6150 C   0  0  0  0  0  0  0  0  0  0  0  0
  177.2980   19.7540   47.1160 C   0  0  0  0  0  0  0  0  0  0  0  0
  176.9020   20.8600   47.8720 C   0  0  0  0  0  0  0  0  0  0  0  0
  177.8070   21.8950   48.1240 C   0  0  0  0  0  0  0  0  0  0  0  0
  179.1040   21.8200   47.6230 C   0  0  0  0  0  0  0  0  0  0  0  0
  179.9360   22.8680   47.9070 O   0  0  0  0  0  0  0  0  0  0  0  0
  179.4990   20.7120   46.8680 C   0  0  0  0  0  0  0  0  0  0  0  0
  180.8520   20.5960   46.3220 C   0  0  0  0  0  0  0  0  0  0  0  0
  181.7030   21.4670   46.4950 O   0  0  0  0  0  0  0  0  0  0  0  0
  181.1730   19.3780   45.5440 C   0  0  0  0  0  0  0  0  0  0  0  0
  182.4490   19.2810   45.0210 O   0  0  0  0  0  0  0  0  0  0  0  0
  180.7120   17.2250   43.2350 C   0  0  0  0  0  0  0  0  0  0  0  0
  180.9250   16.0370   42.5060 C   0  0  0  0  0  0  0  0  0  0  0  0
  181.2320   16.1210   41.0260 C   0  0  0  0  0  0  0  0  0  0  0  0
  181.4750   17.3970   40.6130 F   0  0  0  0  0  0  0  0  0  0  0  0
  182.3260   15.3990   40.6500 F   0  0  0  0  0  0  0  0  0  0  0  0
  180.2100   15.6630   40.2480 F   0  0  0  0  0  0  0  0  0  0  0  0
  181.1995   12.6877   43.1884 H   0  0  0  0  0  0  0  0  0  0  0  0
  180.1889   13.2720   41.8231 H   0  0  0  0  0  0  0  0  0  0  0  0
  181.9597   13.5737   41.8231 H   0  0  0  0  0  0  0  0  0  0  0  0
  180.5070   13.8167   45.0801 H   0  0  0  0  0  0  0  0  0  0  0  0
  180.1387   15.9301   46.3321 H   0  0  0  0  0  0  0  0  0  0  0  0
  176.5852   18.9404   46.9159 H   0  0  0  0  0  0  0  0  0  0  0  0
  175.8777   20.9164   48.2691 H   0  0  0  0  0  0  0  0  0  0  0  0
  177.4951   22.7673   48.7171 H   0  0  0  0  0  0  0  0  0  0  0  0
  180.8520   22.8020   47.7200 H   0  0  0  0  0  0  0  0  0  0  0  0
  182.8650   18.4440   44.9530 H   0  0  0  0  0  0  0  0  0  0  0  0
  180.7797   18.1921   42.7153 H   0  0  0  0  0  0  0  0  0  0  0  0
  1  2  1  0
  2  3  2  0
  3  4  1  0
  4  5  2  0
  5  6  1  0
  6  7  1  0
  7  8  1  0
  8  9  2  0
  9 10  1  0
 10 11  2  0
 11 12  1  0
 12 13  1  0
 12 14  2  0
 14 15  1  0
 15 16  2  0
 15 17  1  0
 17 18  1  0
  5 19  1  0
 19 20  2  0
 20 21  1  0
 21 22  1  0
 21 23  1  0
 21 24  1  0
 20  2  1  0
 17  6  2  0
 14  8  1  0
  1 25  1  0
  1 26  1  0
  1 27  1  0
  3 28  1  0
  4 29  1  0
  9 30  1  0
 10 31  1  0
 11 32  1  0
 13 33  1  0
 18 34  1  0
 19 35  1  0
M  END
>  <meeko>  (5) 
{"is_sidechain": [false], "free_energy": -7.0, "intermolecular_energy": -8.048, "internal_energy": -0.291}

$$$$
cand_011_out
     RDKit          3D

 35 37  0  0  0  0  0  0  0  0999 V2000
  179.5550   21.7500   48.1570 C   0  0  0  0  0  0  0  0  0  0  0  0
  179.7440   20.6230   47.1770 C   0  0  0  0  0  0  0  0  0  0  0  0
  181.0400   20.3030   46.7460 C   0  0  0  0  0  0  0  0  0  0  0  0
  181.2550   19.2620   45.8410 C   0  0  0  0  0  0  0  0  0  0  0  0
  180.1850   18.5140   45.3390 C   0  0  0  0  0  0  0  0  0  0  0  0
  180.4390   17.4040   44.3970 C   0  0  0  0  0  0  0  0  0  0  0  0
  180.7320   17.8420   43.1110 O   0  0  0  0  0  0  0  0  0  0  0  0
  180.9870   16.9110   42.1360 C   0  0  0  0  0  0  0  0  0  0  0  0
  181.2910   17.3950   40.8620 C   0  0  0  0  0  0  0  0  0  0  0  0
  181.5610   16.5010   39.8230 C   0  0  0  0  0  0  0  0  0  0  0  0
  181.5260   15.1240   40.0580 C   0  0  0  0  0  0  0  0  0  0  0  0
  181.2230   14.6450   41.3300 C   0  0  0  0  0  0  0  0  0  0  0  0
  181.2050   13.2860   41.4890 O   0  0  0  0  0  0  0  0  0  0  0  0
  180.9540   15.5400   42.3690 C   0  0  0  0  0  0  0  0  0  0  0  0
  180.6310   15.0770   43.7190 C   0  0  0  0  0  0  0  0  0  0  0  0
  180.5730   13.8820   44.0030 O   0  0  0  0  0  0  0  0  0  0  0  0
  180.3700   16.1070   44.7510 C   0  0  0  0  0  0  0  0  0  0  0  0
  180.0530   15.6620   46.0210 O   0  0  0  0  0  0  0  0  0  0  0  0
  178.8910   18.8230   45.7840 C   0  0  0  0  0  0  0  0  0  0  0  0
  178.6520   19.8700   46.6980 C   0  0  0  0  0  0  0  0  0  0  0  0
  177.2320   20.1620   47.1340 C   0  0  0  0  0  0  0  0  0  0  0  0
  176.3360   19.2650   46.6350 F   0  0  0  0  0  0  0  0  0  0  0  0
  177.0580   20.1420   48.4860 F   0  0  0  0  0  0  0  0  0  0  0  0
  176.7980   21.3890   46.7300 F   0  0  0  0  0  0  0  0  0  0  0  0
  179.6206   21.3587   49.1829 H   0  0  0  0  0  0  0  0  0  0  0  0
  180.3389   22.5060   48.0021 H   0  0  0  0  0  0  0  0  0  0  0  0
  178.5673   22.2089   48.0021 H   0  0  0  0  0  0  0  0  0  0  0  0
  181.8968   20.8790   47.1255 H   0  0  0  0  0  0  0  0  0  0  0  0
  182.2800   19.0268   45.5183 H   0  0  0  0  0  0  0  0  0  0  0  0
  181.3179   18.4789   40.6767 H   0  0  0  0  0  0  0  0  0  0  0  0
  181.8013   16.8813   38.8192 H   0  0  0  0  0  0  0  0  0  0  0  0
  181.7374   14.4198   39.2398 H   0  0  0  0  0  0  0  0  0  0  0  0
  181.4460   12.7280   40.7760 H   0  0  0  0  0  0  0  0  0  0  0  0
  179.9790   14.7440   46.1910 H   0  0  0  0  0  0  0  0  0  0  0  0
  178.0408   18.2334   45.4104 H   0  0  0  0  0  0  0  0  0  0  0  0
  1  2  1  0
  2  3  2  0
  3  4  1  0
  4  5  2  0
  5  6  1  0
  6  7  1  0
  7  8  1  0
  8  9  2  0
  9 10  1  0
 10 11  2  0
 11 12  1  0
 12 13  1  0
 12 14  2  0
 14 15  1  0
 15 16  2  0
 15 17  1  0
 17 18  1  0
  5 19  1  0
 19 20  2  0
 20 21  1  0
 21 22  1  0
 21 23  1  0
 21 24  1  0
 20  2  1  0
 17  6  2  0
 14  8  1  0
  1 25  1  0
  1 26  1  0
  1 27  1  0
  3 28  1  0
  4 29  1  0
  9 30  1  0
 10 31  1  0
 11 32  1  0
 13 33  1  0
 18 34  1  0
 19 35  1  0
M  END
>  <meeko>  (6) 
{"is_sidechain": [false], "free_energy": -5.994, "intermolecular_energy": -6.756, "internal_energy": -0.402}

$$$$
