cand_007_out
     RDKit          3D

 35 37  0  0  0  0  0  0  0  0999 V2000
  180.5880   21.6910   48.5840 O   0  0  0  0  0  0  0  0  0  0  0  0
  179.8660   20.9720   47.8960 C   0  0  0  0  0  0  0  0  0  0  0  0
  180.4600   19.9700   46.9800 C   0  0  0  0  0  0  0  0  0  0  0  0
  181.8400   19.9010   46.9320 O   0  0  0  0  0  0  0  0  0  0  0  0
  179.6340   19.2050   46.2430 C   0  0  0  0  0  0  0  0  0  0  0  0
  180.1130   18.1840   45.2880 C   0  0  0  0  0  0  0  0  0  0  0  0
  180.9190   18.5180   44.1940 C   0  0  0  0  0  0  0  0  0  0  0  0
  181.3770   17.5330   43.3160 C   0  0  0  0  0  0  0  0  0  0  0  0
  181.0460   16.1810   43.5100 C   0  0  0  0  0  0  0  0  0  0  0  0
  181.5580   15.1380   42.5410 C   0  0  0  0  0  0  0  0  0  0  0  0
  181.5410   15.5800   41.2530 F   0  0  0  0  0  0  0  0  0  0  0  0
  182.8480   14.7820   42.7940 F   0  0  0  0  0  0  0  0  0  0  0  0
  180.8430   13.9790   42.5480 F   0  0  0  0  0  0  0  0  0  0  0  0
  180.2460   15.8250   44.6180 C   0  0  0  0  0  0  0  0  0  0  0  0
  179.8530   14.3900   44.8810 C   0  0  0  0  0  0  0  0  0  0  0  0
  180.8240   13.6720   45.5150 F   0  0  0  0  0  0  0  0  0  0  0  0
  179.7900   16.8330   45.4900 C   0  0  0  0  0  0  0  0  0  0  0  0
  178.2470   19.3020   46.2810 O   0  0  0  0  0  0  0  0  0  0  0  0
  177.6700   20.2160   47.1240 C   0  0  0  0  0  0  0  0  0  0  0  0
  176.2750   20.2740   47.1350 C   0  0  0  0  0  0  0  0  0  0  0  0
  175.6220   21.1820   47.9700 C   0  0  0  0  0  0  0  0  0  0  0  0
  176.3630   22.0340   48.7910 C   0  0  0  0  0  0  0  0  0  0  0  0
  177.7540   21.9760   48.7780 C   0  0  0  0  0  0  0  0  0  0  0  0
  178.4160   22.8390   49.6070 O   0  0  0  0  0  0  0  0  0  0  0  0
  178.4070   21.0650   47.9430 C   0  0  0  0  0  0  0  0  0  0  0  0
  182.3400   20.6620   46.7060 H   0  0  0  0  0  0  0  0  0  0  0  0
  181.1953   19.5690   44.0234 H   0  0  0  0  0  0  0  0  0  0  0  0
  182.0059   17.8196   42.4603 H   0  0  0  0  0  0  0  0  0  0  0  0
  178.9493   14.3849   45.5082 H   0  0  0  0  0  0  0  0  0  0  0  0
  179.6822   13.9148   43.9038 H   0  0  0  0  0  0  0  0  0  0  0  0
  179.1649   16.5543   46.3511 H   0  0  0  0  0  0  0  0  0  0  0  0
  175.6911   19.6046   46.4861 H   0  0  0  0  0  0  0  0  0  0  0  0
  174.5229   21.2263   47.9812 H   0  0  0  0  0  0  0  0  0  0  0  0
  175.8482   22.7507   49.4477 H   0  0  0  0  0  0  0  0  0  0  0  0
  178.1270   22.9550   50.4900 H   0  0  0  0  0  0  0  0  0  0  0  0
  1  2  2  0
  2  3  1  0
  3  4  1  0
  3  5  2  0
  5  6  1  0
  6  7  2  0
  7  8  1  0
  8  9  2  0
  9 10  1  0
 10 11  1  0
 10 12  1  0
 10 13  1  0
  9 14  1  0
 14 15  1  0
 15 16  1  0
 14 17  2  0
  5 18  1  0
 18 19  1  0
 19 20  2  0
 20 21  1  0
 21 22  2  0
 22 23  1  0
 23 24  1  0
 23 25  2  0
 25  2  1  0
 17  6  1  0
 25 19  1  0
  4 26  1  0
  7 27  1  0
  8 28  1  0
 15 29  1  0
 15 30  1  0
 17 31  1  0
 20 32  1  0
 21 33  1  0
 22 34  1  0
 24 35  1  0
M  END
>  <meeko>  (1) 
{"is_sidechain": [false], "free_energy": -8.191, "intermolecular_energy": -10.107, "internal_energy": -0.005}

$$$$
cand_007_out
     RDKit          3D

 35 37  0  0  0  0  0  0  0  0999 V2000
  171.0300   23.7390   51.6350 O   0  0  0  0  0  0  0  0  0  0  0  0
  172.2500   23.6160   51.7170 C   0  0  0  0  0  0  0  0  0  0  0  0
  173.0250   23.0630   50.5830 C   0  0  0  0  0  0  0  0  0  0  0  0
  172.3140   22.6860   49.4580 O   0  0  0  0  0  0  0  0  0  0  0  0
  174.3600   22.9430   50.7140 C   0  0  0  0  0  0  0  0  0  0  0  0
  175.2320   22.3920   49.6550 C   0  0  0  0  0  0  0  0  0  0  0  0
  176.1450   23.1940   48.9610 C   0  0  0  0  0  0  0  0  0  0  0  0
  176.9730   22.6470   47.9780 C   0  0  0  0  0  0  0  0  0  0  0  0
  176.9160   21.2790   47.6640 C   0  0  0  0  0  0  0  0  0  0  0  0
  177.8270   20.7180   46.5950 C   0  0  0  0  0  0  0  0  0  0  0  0
  177.1490   20.3900   45.4600 F   0  0  0  0  0  0  0  0  0  0  0  0
  178.7860   21.6050   46.2100 F   0  0  0  0  0  0  0  0  0  0  0  0
  178.4920   19.5910   46.9710 F   0  0  0  0  0  0  0  0  0  0  0  0
  176.0110   20.4530   48.3660 C   0  0  0  0  0  0  0  0  0  0  0  0
  175.9000   18.9750   48.0740 C   0  0  0  0  0  0  0  0  0  0  0  0
  175.1340   18.6960   46.9810 F   0  0  0  0  0  0  0  0  0  0  0  0
  175.1810   21.0230   49.3510 C   0  0  0  0  0  0  0  0  0  0  0  0
  175.0610   23.3000   51.8600 O   0  0  0  0  0  0  0  0  0  0  0  0
  174.3700   23.8210   52.9250 C   0  0  0  0  0  0  0  0  0  0  0  0
  175.1150   24.1730   54.0510 C   0  0  0  0  0  0  0  0  0  0  0  0
  174.4740   24.7090   55.1700 C   0  0  0  0  0  0  0  0  0  0  0  0
  173.0900   24.8900   55.1630 C   0  0  0  0  0  0  0  0  0  0  0  0
  172.3490   24.5370   54.0380 C   0  0  0  0  0  0  0  0  0  0  0  0
  170.9970   24.7410   54.1000 O   0  0  0  0  0  0  0  0  0  0  0  0
  172.9910   24.0020   52.9190 C   0  0  0  0  0  0  0  0  0  0  0  0
  171.9420   21.8270   49.4040 H   0  0  0  0  0  0  0  0  0  0  0  0
  176.2114   24.2674   49.1922 H   0  0  0  0  0  0  0  0  0  0  0  0
  177.6801   23.2970   47.4419 H   0  0  0  0  0  0  0  0  0  0  0  0
  176.9108   18.5763   47.9026 H   0  0  0  0  0  0  0  0  0  0  0  0
  175.4110   18.5079   48.9416 H   0  0  0  0  0  0  0  0  0  0  0  0
  174.4751   20.3788   49.8956 H   0  0  0  0  0  0  0  0  0  0  0  0
  176.2055   24.0286   54.0573 H   0  0  0  0  0  0  0  0  0  0  0  0
  175.0603   24.9888   56.0577 H   0  0  0  0  0  0  0  0  0  0  0  0
  172.5852   25.3110   56.0450 H   0  0  0  0  0  0  0  0  0  0  0  0
  170.5990   25.4050   53.5740 H   0  0  0  0  0  0  0  0  0  0  0  0
  1  2  2  0
  2  3  1  0
  3  4  1  0
  3  5  2  0
  5  6  1  0
  6  7  2  0
  7  8  1  0
  8  9  2  0
  9 10  1  0
 10 11  1  0
 10 12  1  0
 10 13  1  0
  9 14  1  0
 14 15  1  0
 15 16  1  0
 14 17  2  0
  5 18  1  0
 18 19  1  0
 19 20  2  0
 20 21  1  0
 21 22  2  0
 22 23  1  0
 23 24  1  0
 23 25  2  0
 25  2  1  0
 17  6  1  0
 25 19  1  0
  4 26  1  0
  7 27  1  0
  8 28  1  0
 15 29  1  0
 15 30  1  0
 17 31  1  0
 20 32  1  0
 21 33  1  0
 22 34  1  0
 24 35  1  0
M  END
>  <meeko>  (2) 
{"is_sidechain": [false], "free_energy": -8.029, "intermolecular_energy": -9.481, "internal_energy": -0.43}

$$$$
cand_007_out
     RDKit          3D

 35 37  0  0  0  0  0  0  0  0999 V2000
  177.5870   21.1000   47.7490 O   0  0  0  0  0  0  0  0  0  0  0  0
  178.7020   20.6490   47.4930 C   0  0  0  0  0  0  0  0  0  0  0  0
  178.8650   19.5870   46.4730 C   0  0  0  0  0  0  0  0  0  0  0  0
  177.7170   19.1300   45.8500 O   0  0  0  0  0  0  0  0  0  0  0  0
  180.1020   19.1190   46.2240 C   0  0  0  0  0  0  0  0  0  0  0  0
  180.3820   18.0530   45.2390 C   0  0  0  0  0  0  0  0  0  0  0  0
  181.1050   18.3030   44.0680 C   0  0  0  0  0  0  0  0  0  0  0  0
  181.3750   17.2740   43.1610 C   0  0  0  0  0  0  0  0  0  0  0  0
  180.9340   15.9630   43.4040 C   0  0  0  0  0  0  0  0  0  0  0  0
  181.2440   14.8710   42.4030 C   0  0  0  0  0  0  0  0  0  0  0  0
  180.8160   15.1870   41.1490 F   0  0  0  0  0  0  0  0  0  0  0  0
  182.5800   14.6320   42.2910 F   0  0  0  0  0  0  0  0  0  0  0  0
  180.6750   13.6710   42.7010 F   0  0  0  0  0  0  0  0  0  0  0  0
  180.2170   15.6910   44.5900 C   0  0  0  0  0  0  0  0  0  0  0  0
  179.7140   14.3020   44.9090 C   0  0  0  0  0  0  0  0  0  0  0  0
  180.5910   13.5680   45.6530 F   0  0  0  0  0  0  0  0  0  0  0  0
  179.9510   16.7410   45.4900 C   0  0  0  0  0  0  0  0  0  0  0  0
  181.2460   19.5670   46.8760 O   0  0  0  0  0  0  0  0  0  0  0  0
  181.1260   20.5540   47.8210 C   0  0  0  0  0  0  0  0  0  0  0  0
  182.3010   20.9790   48.4430 C   0  0  0  0  0  0  0  0  0  0  0  0
  182.2500   21.9810   49.4150 C   0  0  0  0  0  0  0  0  0  0  0  0
  181.0270   22.5550   49.7650 C   0  0  0  0  0  0  0  0  0  0  0  0
  179.8560   22.1290   49.1420 C   0  0  0  0  0  0  0  0  0  0  0  0
  178.6930   22.7340   49.5330 O   0  0  0  0  0  0  0  0  0  0  0  0
  179.9080   21.1270   48.1690 C   0  0  0  0  0  0  0  0  0  0  0  0
  177.3310   18.3180   46.1160 H   0  0  0  0  0  0  0  0  0  0  0  0
  181.4653   19.3210   43.8584 H   0  0  0  0  0  0  0  0  0  0  0  0
  181.9410   17.4944   42.2439 H   0  0  0  0  0  0  0  0  0  0  0  0
  178.7714   14.3920   45.4688 H   0  0  0  0  0  0  0  0  0  0  0  0
  179.5793   13.7766   43.9520 H   0  0  0  0  0  0  0  0  0  0  0  0
  179.3915   16.5276   46.4127 H   0  0  0  0  0  0  0  0  0  0  0  0
  183.2650   20.5259   48.1684 H   0  0  0  0  0  0  0  0  0  0  0  0
  183.1752   22.3181   49.9053 H   0  0  0  0  0  0  0  0  0  0  0  0
  180.9877   23.3427   50.5318 H   0  0  0  0  0  0  0  0  0  0  0  0
  178.2890   22.4940   50.3430 H   0  0  0  0  0  0  0  0  0  0  0  0
  1  2  2  0
  2  3  1  0
  3  4  1  0
  3  5  2  0
  5  6  1  0
  6  7  2  0
  7  8  1  0
  8  9  2  0
  9 10  1  0
 10 11  1  0
 10 12  1  0
 10 13  1  0
  9 14  1  0
 14 15  1  0
 15 16  1  0
 14 17  2  0
  5 18  1  0
 18 19  1  0
 19 20  2  0
 20 21  1  0
 21 22  2  0
 22 23  1  0
 23 24  1  0
 23 25  2  0
 25  2  1  0
 17  6  1  0
 25 19  1  0
  4 26  1  0
  7 27  1  0
  8 28  1  0
 15 29  1  0
 15 30  1  0
 17 31  1  0
 20 32  1  0
 21 33  1  0
 22 34  1  0
 24 35  1  0
M  END
>  <meeko>  (3) 
{"is_sidechain": [false], "free_energy": -7.774, "intermolecular_energy": -9.684, "internal_energy": 0.087}

$$$$
cand_007_out
     RDKit          3D

 35 37  0  0  0  0  0  0  0  0999 V2000
  176.6650   22.6440   53.2620 O   0  0  0  0  0  0  0  0  0  0  0  0
  176.5020   22.8030   52.0540 C   0  0  0  0  0  0  0  0  0  0  0  0
  177.4650   22.2280   51.0860 C   0  0  0  0  0  0  0  0  0  0  0  0
  178.5410   21.5320   51.6060 O   0  0  0  0  0  0  0  0  0  0  0  0
  177.2510   22.4270   49.7720 C   0  0  0  0  0  0  0  0  0  0  0  0
  178.1510   21.9130   48.7180 C   0  0  0  0  0  0  0  0  0  0  0  0
  179.3720   22.5300   48.4250 C   0  0  0  0  0  0  0  0  0  0  0  0
  180.2150   22.0150   47.4380 C   0  0  0  0  0  0  0  0  0  0  0  0
  179.8640   20.8600   46.7190 C   0  0  0  0  0  0  0  0  0  0  0  0
  180.8000   20.3260   45.6570 C   0  0  0  0  0  0  0  0  0  0  0  0
  180.2300   20.3280   44.4200 F   0  0  0  0  0  0  0  0  0  0  0  0
  181.9360   21.0690   45.5430 F   0  0  0  0  0  0  0  0  0  0  0  0
  181.2130   19.0470   45.8760 F   0  0  0  0  0  0  0  0  0  0  0  0
  178.6430   20.2150   47.0130 C   0  0  0  0  0  0  0  0  0  0  0  0
  178.2070   18.9710   46.2750 C   0  0  0  0  0  0  0  0  0  0  0  0
  176.8540   18.7950   46.2640 F   0  0  0  0  0  0  0  0  0  0  0  0
  177.8040   20.7530   48.0090 C   0  0  0  0  0  0  0  0  0  0  0  0
  176.1800   23.1510   49.2620 O   0  0  0  0  0  0  0  0  0  0  0  0
  175.2690   23.6900   50.1340 C   0  0  0  0  0  0  0  0  0  0  0  0
  174.2050   24.4020   49.5780 C   0  0  0  0  0  0  0  0  0  0  0  0
  173.2420   24.9770   50.4100 C   0  0  0  0  0  0  0  0  0  0  0  0
  173.3430   24.8420   51.7960 C   0  0  0  0  0  0  0  0  0  0  0  0
  174.4050   24.1310   52.3480 C   0  0  0  0  0  0  0  0  0  0  0  0
  174.4430   24.0380   53.7120 O   0  0  0  0  0  0  0  0  0  0  0  0
  175.3690   23.5550   51.5150 C   0  0  0  0  0  0  0  0  0  0  0  0
  178.4130   20.6840   51.9840 H   0  0  0  0  0  0  0  0  0  0  0  0
  179.6716   23.4319   48.9789 H   0  0  0  0  0  0  0  0  0  0  0  0
  181.1673   22.5207   47.2203 H   0  0  0  0  0  0  0  0  0  0  0  0
  178.5582   19.0412   45.2349 H   0  0  0  0  0  0  0  0  0  0  0  0
  178.6427   18.1100   46.8031 H   0  0  0  0  0  0  0  0  0  0  0  0
  176.8523   20.2506   48.2366 H   0  0  0  0  0  0  0  0  0  0  0  0
  174.1251   24.5100   48.4862 H   0  0  0  0  0  0  0  0  0  0  0  0
  172.4024   25.5372   49.9726 H   0  0  0  0  0  0  0  0  0  0  0  0
  172.5848   25.2966   52.4506 H   0  0  0  0  0  0  0  0  0  0  0  0
  174.8120   24.7330   54.2190 H   0  0  0  0  0  0  0  0  0  0  0  0
  1  2  2  0
  2  3  1  0
  3  4  1  0
  3  5  2  0
  5  6  1  0
  6  7  2  0
  7  8  1  0
  8  9  2  0
  9 10  1  0
 10 11  1  0
 10 12  1  0
 10 13  1  0
  9 14  1  0
 14 15  1  0
 15 16  1  0
 14 17  2  0
  5 18  1  0
 18 19  1  0
 19 20  2  0
 20 21  1  0
 21 22  2  0
 22 23  1  0
 23 24  1  0
 23 25  2  0
 25  2  1  0
 17  6  1  0
 25 19  1  0
  4 26  1  0
  7 27  1  0
  8 28  1  0
 15 29  1  0
 15 30  1  0
 17 31  1  0
 20 32  1  0
 21 33  1  0
 22 34  1  0
 24 35  1  0
M  END
>  <meeko>  (4) 
{"is_sidechain": [false], "free_energy": -7.769, "intermolecular_energy": -9.185, "internal_energy": -0.405}

$$$$
cand_007_out
     RDKit          3D

 35 37  0  0  0  0  0  0  0  0999 V2000
  184.7110   22.2970   50.9150 O   0  0  0  0  0  0  0  0  0  0  0  0
  184.2330   22.4630   49.7950 C   0  0  0  0  0  0  0  0  0  0  0  0
  182.9010   21.9110   49.4590 C   0  0  0  0  0  0  0  0  0  0  0  0
  182.2450   21.2000   50.4480 O   0  0  0  0  0  0  0  0  0  0  0  0
  182.4150   22.1130   48.2200 C   0  0  0  0  0  0  0  0  0  0  0  0
  181.1040   21.5980   47.7690 C   0  0  0  0  0  0  0  0  0  0  0  0
  180.9500   20.2930   47.2920 C   0  0  0  0  0  0  0  0  0  0  0  0
  179.6980   19.8220   46.8900 C   0  0  0  0  0  0  0  0  0  0  0  0
  178.5600   20.6430   46.9610 C   0  0  0  0  0  0  0  0  0  0  0  0
  177.2180   20.1020   46.5190 C   0  0  0  0  0  0  0  0  0  0  0  0
  176.7600   20.7180   45.3930 F   0  0  0  0  0  0  0  0  0  0  0  0
  177.2640   18.7740   46.2230 F   0  0  0  0  0  0  0  0  0  0  0  0
  176.2330   20.2420   47.4490 F   0  0  0  0  0  0  0  0  0  0  0  0
  178.6960   21.9590   47.4560 C   0  0  0  0  0  0  0  0  0  0  0  0
  177.5120   22.8920   47.5550 C   0  0  0  0  0  0  0  0  0  0  0  0
  177.7740   24.1480   47.0930 F   0  0  0  0  0  0  0  0  0  0  0  0
  179.9680   22.4170   47.8520 C   0  0  0  0  0  0  0  0  0  0  0  0
  183.0950   22.8070   47.2250 O   0  0  0  0  0  0  0  0  0  0  0  0
  184.3280   23.3340   47.5090 C   0  0  0  0  0  0  0  0  0  0  0  0
  184.9710   24.0290   46.4830 C   0  0  0  0  0  0  0  0  0  0  0  0
  186.2300   24.5910   46.7050 C   0  0  0  0  0  0  0  0  0  0  0  0
  186.8460   24.4580   47.9500 C   0  0  0  0  0  0  0  0  0  0  0  0
  186.2030   23.7640   48.9720 C   0  0  0  0  0  0  0  0  0  0  0  0
  186.8640   23.6700   50.1670 O   0  0  0  0  0  0  0  0  0  0  0  0
  184.9430   23.2020   48.7500 C   0  0  0  0  0  0  0  0  0  0  0  0
  181.6010   20.5600   50.2170 H   0  0  0  0  0  0  0  0  0  0  0  0
  181.8251   19.6292   47.2326 H   0  0  0  0  0  0  0  0  0  0  0  0
  179.6015   18.7934   46.5123 H   0  0  0  0  0  0  0  0  0  0  0  0
  176.6844   22.4693   46.9665 H   0  0  0  0  0  0  0  0  0  0  0  0
  177.2582   22.9838   48.6214 H   0  0  0  0  0  0  0  0  0  0  0  0
  180.0731   23.4425   48.2359 H   0  0  0  0  0  0  0  0  0  0  0  0
  184.4865   24.1338   45.5010 H   0  0  0  0  0  0  0  0  0  0  0  0
  186.7368   25.1393   45.8973 H   0  0  0  0  0  0  0  0  0  0  0  0
  187.8379   24.9006   48.1239 H   0  0  0  0  0  0  0  0  0  0  0  0
  186.8810   24.4020   50.7510 H   0  0  0  0  0  0  0  0  0  0  0  0
  1  2  2  0
  2  3  1  0
  3  4  1  0
  3  5  2  0
  5  6  1  0
  6  7  2  0
  7  8  1  0
  8  9  2  0
  9 10  1  0
 10 11  1  0
 10 12  1  0
 10 13  1  0
  9 14  1  0
 14 15  1  0
 15 16  1  0
 14 17  2  0
  5 18  1  0
 18 19  1  0
 19 20  2  0
 20 21  1  0
 21 22  2  0
 22 23  1  0
 23 24  1  0
 23 25  2  0
 25  2  1  0
 17  6  1  0
 25 19  1  0
  4 26  1  0
  7 27  1  0
  8 28  1  0
 15 29  1  0
 15 30  1  0
 17 31  1  0
 20 32  1  0
 21 33  1  0
 22 34  1  0
 24 35  1  0
M  END
>  <meeko>  (5) 
{"is_sidechain": [false], "free_energy": -7.695, "intermolecular_energy": -9.075, "internal_energy": -0.424}

$$$$
cand_007_out
     RDKit          3D

 35 37  0  0  0  0  0  0  0  0999 V2000
  183.5810   21.9870   51.0790 O   0  0  0  0  0  0  0  0  0  0  0  0
  182.7480   22.4680   50.3140 C   0  0  0  0  0  0  0  0  0  0  0  0
  181.5910   21.6620   49.8620 C   0  0  0  0  0  0  0  0  0  0  0  0
  181.5110   20.3610   50.3240 O   0  0  0  0  0  0  0  0  0  0  0  0
  180.7030   22.2270   49.0220 C   0  0  0  0  0  0  0  0  0  0  0  0
  179.5200   21.5140   48.4950 C   0  0  0  0  0  0  0  0  0  0  0  0
  179.5900   20.7180   47.3470 C   0  0  0  0  0  0  0  0  0  0  0  0
  178.4630   20.0380   46.8790 C   0  0  0  0  0  0  0  0  0  0  0  0
  177.2330   20.1300   47.5520 C   0  0  0  0  0  0  0  0  0  0  0  0
  176.0310   19.3800   47.0200 C   0  0  0  0  0  0  0  0  0  0  0  0
  174.9820   20.2090   46.7560 F   0  0  0  0  0  0  0  0  0  0  0  0
  176.2960   18.7340   45.8510 F   0  0  0  0  0  0  0  0  0  0  0  0
  175.5520   18.4300   47.8700 F   0  0  0  0  0  0  0  0  0  0  0  0
  177.1500   20.9170   48.7220 C   0  0  0  0  0  0  0  0  0  0  0  0
  175.8560   21.0570   49.4900 C   0  0  0  0  0  0  0  0  0  0  0  0
  175.6200   20.0210   50.3450 F   0  0  0  0  0  0  0  0  0  0  0  0
  178.2960   21.5980   49.1760 C   0  0  0  0  0  0  0  0  0  0  0  0
  180.8100   23.5270   48.5420 O   0  0  0  0  0  0  0  0  0  0  0  0
  181.8680   24.2990   48.9490 C   0  0  0  0  0  0  0  0  0  0  0  0
  181.9300   25.6010   48.4490 C   0  0  0  0  0  0  0  0  0  0  0  0
  182.9810   26.4410   48.8220 C   0  0  0  0  0  0  0  0  0  0  0  0
  183.9700   25.9800   49.6930 C   0  0  0  0  0  0  0  0  0  0  0  0
  183.9050   24.6800   50.1910 C   0  0  0  0  0  0  0  0  0  0  0  0
  184.9070   24.2940   51.0390 O   0  0  0  0  0  0  0  0  0  0  0  0
  182.8530   23.8400   49.8170 C   0  0  0  0  0  0  0  0  0  0  0  0
  180.9040   19.7620   49.9350 H   0  0  0  0  0  0  0  0  0  0  0  0
  180.5436   20.6264   46.8064 H   0  0  0  0  0  0  0  0  0  0  0  0
  178.5396   19.4219   45.9709 H   0  0  0  0  0  0  0  0  0  0  0  0
  175.8956   21.9887   50.0734 H   0  0  0  0  0  0  0  0  0  0  0  0
  175.0394   21.0629   48.7530 H   0  0  0  0  0  0  0  0  0  0  0  0
  178.2300   22.2109   50.0870 H   0  0  0  0  0  0  0  0  0  0  0  0
  181.1517   25.9646   47.7620 H   0  0  0  0  0  0  0  0  0  0  0  0
  183.0299   27.4673   48.4291 H   0  0  0  0  0  0  0  0  0  0  0  0
  184.7988   26.6415   49.9855 H   0  0  0  0  0  0  0  0  0  0  0  0
  184.7010   23.9980   51.9030 H   0  0  0  0  0  0  0  0  0  0  0  0
  1  2  2  0
  2  3  1  0
  3  4  1  0
  3  5  2  0
  5  6  1  0
  6  7  2  0
  7  8  1  0
  8  9  2  0
  9 10  1  0
 10 11  1  0
 10 12  1  0
 10 13  1  0
  9 14  1  0
 14 15  1  0
 15 16  1  0
 14 17  2  0
  5 18  1  0
 18 19  1  0
 19 20  2  0
 20 21  1  0
 21 22  2  0
 22 23  1  0
 23 24  1  0
 23 25  2  0
 25  2  1  0
 17  6  1  0
 25 19  1  0
  4 26  1  0
  7 27  1  0
  8 28  1  0
 15 29  1  0
 15 30  1  0
 17 31  1  0
 20 32  1  0
 21 33  1  0
 22 34  1  0
 24 35  1  0
M  END
>  <meeko>  (6) 
{"is_sidechain": [false], "free_energy": -7.67, "intermolecular_energy": -8.944, "internal_energy": -0.524}

$$$$
cand_007_out
     RDKit          3D

 35 37  0  0  0  0  0  0  0  0999 V2000
  180.3180   22.4260   51.7130 O   0  0  0  0  0  0  0  0  0  0  0  0
  179.5810   22.2980   50.7380 C   0  0  0  0  0  0  0  0  0  0  0  0
  178.2010   22.8350   50.7660 C   0  0  0  0  0  0  0  0  0  0  0  0
  177.7920   23.4610   51.9290 O   0  0  0  0  0  0  0  0  0  0  0  0
  177.4250   22.6720   49.6780 C   0  0  0  0  0  0  0  0  0  0  0  0
  176.0300   23.1540   49.5970 C   0  0  0  0  0  0  0  0  0  0  0  0
  174.9810   22.3140   49.2070 C   0  0  0  0  0  0  0  0  0  0  0  0
  173.6680   22.7870   49.1580 C   0  0  0  0  0  0  0  0  0  0  0  0
  173.3640   24.1140   49.5050 C   0  0  0  0  0  0  0  0  0  0  0  0
  171.9300   24.5940   49.4420 C   0  0  0  0  0  0  0  0  0  0  0  0
  171.8190   25.8030   48.8240 F   0  0  0  0  0  0  0  0  0  0  0  0
  171.1270   23.7450   48.7430 F   0  0  0  0  0  0  0  0  0  0  0  0
  171.3430   24.7420   50.6620 F   0  0  0  0  0  0  0  0  0  0  0  0
  174.4090   24.9700   49.9160 C   0  0  0  0  0  0  0  0  0  0  0  0
  174.1480   26.4080   50.3000 C   0  0  0  0  0  0  0  0  0  0  0  0
  173.6570   26.5480   51.5650 F   0  0  0  0  0  0  0  0  0  0  0  0
  175.7270   24.4760   49.9560 C   0  0  0  0  0  0  0  0  0  0  0  0
  177.8390   22.0170   48.5230 O   0  0  0  0  0  0  0  0  0  0  0  0
  179.1130   21.5140   48.4660 C   0  0  0  0  0  0  0  0  0  0  0  0
  179.4880   20.8720   47.2850 C   0  0  0  0  0  0  0  0  0  0  0  0
  180.7720   20.3380   47.1600 C   0  0  0  0  0  0  0  0  0  0  0  0
  181.6790   20.4430   48.2160 C   0  0  0  0  0  0  0  0  0  0  0  0
  181.3020   21.0830   49.3940 C   0  0  0  0  0  0  0  0  0  0  0  0
  182.2400   21.1500   50.3880 O   0  0  0  0  0  0  0  0  0  0  0  0
  180.0180   21.6190   49.5180 C   0  0  0  0  0  0  0  0  0  0  0  0
  177.9020   23.0320   52.7560 H   0  0  0  0  0  0  0  0  0  0  0  0
  175.1931   21.2692   48.9359 H   0  0  0  0  0  0  0  0  0  0  0  0
  172.8598   22.1106   48.8430 H   0  0  0  0  0  0  0  0  0  0  0  0
  175.0935   26.9655   50.2288 H   0  0  0  0  0  0  0  0  0  0  0  0
  173.3849   26.7963   49.6094 H   0  0  0  0  0  0  0  0  0  0  0  0
  176.5400   25.1438   50.2770 H   0  0  0  0  0  0  0  0  0  0  0  0
  178.7728   20.7868   46.4536 H   0  0  0  0  0  0  0  0  0  0  0  0
  181.0692   19.8340   46.2285 H   0  0  0  0  0  0  0  0  0  0  0  0
  182.6900   20.0208   48.1178 H   0  0  0  0  0  0  0  0  0  0  0  0
  181.9900   21.4100   51.2510 H   0  0  0  0  0  0  0  0  0  0  0  0
  1  2  2  0
  2  3  1  0
  3  4  1  0
  3  5  2  0
  5  6  1  0
  6  7  2  0
  7  8  1  0
  8  9  2  0
  9 10  1  0
 10 11  1  0
 10 12  1  0
 10 13  1  0
  9 14  1  0
 14 15  1  0
 15 16  1  0
 14 17  2  0
  5 18  1  0
 18 19  1  0
 19 20  2  0
 20 21  1  0
 21 22  2  0
 22 23  1  0
 23 24  1  0
 23 25  2  0
 25  2  1  0
 17  6  1  0
 25 19  1  0
  4 26  1  0
  7 27  1  0
  8 28  1  0
 15 29  1  0
 15 30  1  0
 17 31  1  0
 20 32  1  0
 21 33  1  0
 22 34  1  0
 24 35  1  0
M  END
>  <meeko>  (7) 
{"is_sidechain": [false], "free_energy": -7.567, "intermolecular_energy": -9.168, "internal_energy": -0.173}

$$$$
cand_007_out
     RDKit          3D

 35 37  0  0  0  0  0  0  0  0999 V2000
  176.6770   22.9840   53.3370 O   0  0  0  0  0  0  0  0  0  0  0  0
  176.4450   22.9720   52.1300 C   0  0  0  0  0  0  0  0  0  0  0  0
  177.3240   22.2210   51.2040 C   0  0  0  0  0  0  0  0  0  0  0  0
  178.4060   21.5610   51.7590 O   0  0  0  0  0  0  0  0  0  0  0  0
  177.0360   22.2350   49.8900 C   0  0  0  0  0  0  0  0  0  0  0  0
  177.8490   21.5340   48.8740 C   0  0  0  0  0  0  0  0  0  0  0  0
  177.3140   20.5190   48.0740 C   0  0  0  0  0  0  0  0  0  0  0  0
  178.0970   19.8840   47.1060 C   0  0  0  0  0  0  0  0  0  0  0  0
  179.4380   20.2520   46.9070 C   0  0  0  0  0  0  0  0  0  0  0  0
  180.2590   19.5450   45.8500 C   0  0  0  0  0  0  0  0  0  0  0  0
  179.6690   18.3940   45.4240 F   0  0  0  0  0  0  0  0  0  0  0  0
  180.4360   20.3060   44.7340 F   0  0  0  0  0  0  0  0  0  0  0  0
  181.5080   19.1950   46.2630 F   0  0  0  0  0  0  0  0  0  0  0  0
  179.9890   21.2850   47.6960 C   0  0  0  0  0  0  0  0  0  0  0  0
  181.4250   21.7260   47.5310 C   0  0  0  0  0  0  0  0  0  0  0  0
  182.2870   21.0810   48.3700 F   0  0  0  0  0  0  0  0  0  0  0  0
  179.1850   21.9110   48.6690 C   0  0  0  0  0  0  0  0  0  0  0  0
  175.9610   22.9240   49.3400 O   0  0  0  0  0  0  0  0  0  0  0  0
  175.1260   23.6240   50.1730 C   0  0  0  0  0  0  0  0  0  0  0  0
  174.0550   24.2940   49.5790 C   0  0  0  0  0  0  0  0  0  0  0  0
  173.1670   25.0260   50.3700 C   0  0  0  0  0  0  0  0  0  0  0  0
  173.3500   25.0890   51.7520 C   0  0  0  0  0  0  0  0  0  0  0  0
  174.4190   24.4200   52.3430 C   0  0  0  0  0  0  0  0  0  0  0  0
  174.5390   24.5250   53.7010 O   0  0  0  0  0  0  0  0  0  0  0  0
  175.3070   23.6880   51.5510 C   0  0  0  0  0  0  0  0  0  0  0  0
  178.7890   20.8310   51.3130 H   0  0  0  0  0  0  0  0  0  0  0  0
  176.2648   20.2170   48.2083 H   0  0  0  0  0  0  0  0  0  0  0  0
  177.6570   19.0849   46.4913 H   0  0  0  0  0  0  0  0  0  0  0  0
  181.7339   21.5289   46.4938 H   0  0  0  0  0  0  0  0  0  0  0  0
  181.4679   22.7967   47.7795 H   0  0  0  0  0  0  0  0  0  0  0  0
  179.6154   22.7155   49.2834 H   0  0  0  0  0  0  0  0  0  0  0  0
  173.9108   24.2454   48.4896 H   0  0  0  0  0  0  0  0  0  0  0  0
  172.3222   25.5536   49.9031 H   0  0  0  0  0  0  0  0  0  0  0  0
  172.6505   25.6666   52.3741 H   0  0  0  0  0  0  0  0  0  0  0  0
  175.3660   24.3700   54.1120 H   0  0  0  0  0  0  0  0  0  0  0  0
  1  2  2  0
  2  3  1  0
  3  4  1  0
  3  5  2  0
  5  6  1  0
  6  7  2  0
  7  8  1  0
  8  9  2  0
  9 10  1  0
 10 11  1  0
 10 12  1  0
 10 13  1  0
  9 14  1  0
 14 15  1  0
 15 16  1  0
 14 17  2  0
  5 18  1  0
 18 19  1  0
 19 20  2  0
 20 21  1  0
 21 22  2  0
 22 23  1  0
 23 24  1  0
 23 25  2  0
 25  2  1  0
 17  6  1  0
 25 19  1  0
  4 26  1  0
  7 27  1  0
  8 28  1  0
 15 29  1  0
 15 30  1  0
 17 31  1  0
 20 32  1  0
 21 33  1  0
 22 34  1  0
 24 35  1  0
M  END
>  <meeko>  (8) 
{"is_sidechain": [false], "free_energy": -7.555, "intermolecular_energy": -9.045, "internal_energy": -0.282}

$$$$
cand_007_out
     RDKit          3D

 35 37  0  0  0  0  0  0  0  0999 V2000
  173.9150   24.0790   53.5710 O   0  0  0  0  0  0  0  0  0  0  0  0
  173.8070   24.1310   52.3470 C   0  0  0  0  0  0  0  0  0  0  0  0
  174.7480   23.3860   51.4790 C   0  0  0  0  0  0  0  0  0  0  0  0
  175.7420   22.6580   52.1060 O   0  0  0  0  0  0  0  0  0  0  0  0
  174.5950   23.4710   50.1440 C   0  0  0  0  0  0  0  0  0  0  0  0
  175.4820   22.7830   49.1820 C   0  0  0  0  0  0  0  0  0  0  0  0
  176.5870   23.4220   48.6100 C   0  0  0  0  0  0  0  0  0  0  0  0
  177.4220   22.7450   47.7180 C   0  0  0  0  0  0  0  0  0  0  0  0
  177.1790   21.4040   47.3770 C   0  0  0  0  0  0  0  0  0  0  0  0
  178.1030   20.6990   46.4090 C   0  0  0  0  0  0  0  0  0  0  0  0
  178.6080   19.5450   46.9270 F   0  0  0  0  0  0  0  0  0  0  0  0
  177.4740   20.3430   45.2550 F   0  0  0  0  0  0  0  0  0  0  0  0
  179.1800   21.4420   46.0320 F   0  0  0  0  0  0  0  0  0  0  0  0
  176.0760   20.7400   47.9570 C   0  0  0  0  0  0  0  0  0  0  0  0
  175.7600   19.2990   47.6300 C   0  0  0  0  0  0  0  0  0  0  0  0
  175.8430   18.4690   48.7100 F   0  0  0  0  0  0  0  0  0  0  0  0
  175.2430   21.4400   48.8520 C   0  0  0  0  0  0  0  0  0  0  0  0
  173.6070   24.2280   49.5240 O   0  0  0  0  0  0  0  0  0  0  0  0
  172.7180   24.9230   50.3030 C   0  0  0  0  0  0  0  0  0  0  0  0
  171.7390   25.6630   49.6380 C   0  0  0  0  0  0  0  0  0  0  0  0
  170.8020   26.3940   50.3710 C   0  0  0  0  0  0  0  0  0  0  0  0
  170.8450   26.3880   51.7660 C   0  0  0  0  0  0  0  0  0  0  0  0
  171.8240   25.6500   52.4270 C   0  0  0  0  0  0  0  0  0  0  0  0
  171.8090   25.6890   53.7940 O   0  0  0  0  0  0  0  0  0  0  0  0
  172.7610   24.9180   51.6930 C   0  0  0  0  0  0  0  0  0  0  0  0
  176.5820   23.0460   52.2580 H   0  0  0  0  0  0  0  0  0  0  0  0
  176.8010   24.4702   48.8657 H   0  0  0  0  0  0  0  0  0  0  0  0
  178.2821   23.2694   47.2762 H   0  0  0  0  0  0  0  0  0  0  0  0
  174.7370   19.2484   47.2288 H   0  0  0  0  0  0  0  0  0  0  0  0
  176.5093   18.9591   46.8999 H   0  0  0  0  0  0  0  0  0  0  0  0
  174.3843   20.9212   49.3032 H   0  0  0  0  0  0  0  0  0  0  0  0
  171.7057   25.6703   48.5385 H   0  0  0  0  0  0  0  0  0  0  0  0
  170.0286   26.9757   49.8481 H   0  0  0  0  0  0  0  0  0  0  0  0
  170.1070   26.9651   52.3424 H   0  0  0  0  0  0  0  0  0  0  0  0
  170.9930   25.6960   54.2530 H   0  0  0  0  0  0  0  0  0  0  0  0
  1  2  2  0
  2  3  1  0
  3  4  1  0
  3  5  2  0
  5  6  1  0
  6  7  2  0
  7  8  1  0
  8  9  2  0
  9 10  1  0
 10 11  1  0
 10 12  1  0
 10 13  1  0
  9 14  1  0
 14 15  1  0
 15 16  1  0
 14 17  2  0
  5 18  1  0
 18 19  1  0
 19 20  2  0
 20 21  1  0
 21 22  2  0
 22 23  1  0
 23 24  1  0
 23 25  2  0
 25  2  1  0
 17  6  1  0
 25 19  1  0
  4 26  1  0
  7 27  1  0
  8 28  1  0
 15 29  1  0
 15 30  1  0
 17 31  1  0
 20 32  1  0
 21 33  1  0
 22 34  1  0
 24 35  1  0
M  END
>  <meeko>  (9) 
{"is_sidechain": [false], "free_energy": -7.372, "intermolecular_energy": -8.673, "internal_energy": -0.427}

$$$$
