cand_029_out
     RDKit          3D

 50 53  0  0  0  0  0  0  0  0999 V2000
  174.8700   19.0180   47.0130 C   0  0  0  0  0  0  0  0  0  0  0  0
  175.3890   20.4190   47.3000 C   0  0  0  0  0  0  0  0  0  0  0  0
  176.8980   20.4590   47.3880 C   0  0  0  0  0  0  0  0  0  0  0  0
  177.6460   19.5560   46.6070 C   0  0  0  0  0  0  0  0  0  0  0  0
  179.0480   19.5240   46.6590 C   0  0  0  0  0  0  0  0  0  0  0  0
  179.7950   18.5810   45.8000 C   0  0  0  0  0  0  0  0  0  0  0  0
  179.2750   17.2920   45.8340 O   0  0  0  0  0  0  0  0  0  0  0  0
  179.8750   16.3140   45.0830 C   0  0  0  0  0  0  0  0  0  0  0  0
  179.3120   15.0380   45.1370 C   0  0  0  0  0  0  0  0  0  0  0  0
  179.8750   13.9970   44.3980 C   0  0  0  0  0  0  0  0  0  0  0  0
  181.0010   14.2290   43.6050 C   0  0  0  0  0  0  0  0  0  0  0  0
  181.5610   15.5040   43.5530 C   0  0  0  0  0  0  0  0  0  0  0  0
  182.6620   15.6620   42.7570 O   0  0  0  0  0  0  0  0  0  0  0  0
  180.9960   16.5460   44.2920 C   0  0  0  0  0  0  0  0  0  0  0  0
  181.5530   17.9000   44.2660 C   0  0  0  0  0  0  0  0  0  0  0  0
  182.5460   18.1820   43.5980 O   0  0  0  0  0  0  0  0  0  0  0  0
  180.8760   18.9350   45.0810 C   0  0  0  0  0  0  0  0  0  0  0  0
  181.4200   20.2060   45.0590 O   0  0  0  0  0  0  0  0  0  0  0  0
  179.6980   20.4300   47.5020 C   0  0  0  0  0  0  0  0  0  0  0  0
  178.9680   21.3250   48.2880 C   0  0  0  0  0  0  0  0  0  0  0  0
  177.5650   21.3500   48.2520 C   0  0  0  0  0  0  0  0  0  0  0  0
  176.8120   22.2480   49.0390 N   0  0  0  0  0  0  0  0  0  0  0  0
  177.0960   22.1440   50.4790 C   0  0  0  0  0  0  0  0  0  0  0  0
  176.0640   22.9700   51.2480 C   0  0  0  0  0  0  0  0  0  0  0  0
  176.0470   24.4190   50.7650 C   0  0  0  0  0  0  0  0  0  0  0  0
  175.8550   24.4870   49.2500 C   0  0  0  0  0  0  0  0  0  0  0  0
  176.8850   23.6230   48.5200 C   0  0  0  0  0  0  0  0  0  0  0  0
  174.6769   18.4969   47.9623 H   0  0  0  0  0  0  0  0  0  0  0  0
  173.9367   19.0841   46.4346 H   0  0  0  0  0  0  0  0  0  0  0  0
  175.6211   18.4601   46.4346 H   0  0  0  0  0  0  0  0  0  0  0  0
  175.0628   21.0906   46.4922 H   0  0  0  0  0  0  0  0  0  0  0  0
  174.9842   20.7380   48.2718 H   0  0  0  0  0  0  0  0  0  0  0  0
  177.1180   18.8587   45.9399 H   0  0  0  0  0  0  0  0  0  0  0  0
  178.4255   14.8533   45.7614 H   0  0  0  0  0  0  0  0  0  0  0  0
  179.4311   12.9914   44.4401 H   0  0  0  0  0  0  0  0  0  0  0  0
  181.4446   13.4076   43.0231 H   0  0  0  0  0  0  0  0  0  0  0  0
  182.7270   16.4020   42.1860 H   0  0  0  0  0  0  0  0  0  0  0  0
  182.0490   20.4580   45.7070 H   0  0  0  0  0  0  0  0  0  0  0  0
  180.7970   20.4383   47.5470 H   0  0  0  0  0  0  0  0  0  0  0  0
  179.5031   22.0237   48.9479 H   0  0  0  0  0  0  0  0  0  0  0  0
  177.0344   21.0914   50.7925 H   0  0  0  0  0  0  0  0  0  0  0  0
  178.1073   22.5229   50.6879 H   0  0  0  0  0  0  0  0  0  0  0  0
  175.0673   22.5296   51.0974 H   0  0  0  0  0  0  0  0  0  0  0  0
  176.3343   22.9609   52.3142 H   0  0  0  0  0  0  0  0  0  0  0  0
  175.2207   24.9529   51.2570 H   0  0  0  0  0  0  0  0  0  0  0  0
  177.0106   24.8851   51.0183 H   0  0  0  0  0  0  0  0  0  0  0  0
  174.8454   24.1288   49.0003 H   0  0  0  0  0  0  0  0  0  0  0  0
  175.9878   25.5309   48.9296 H   0  0  0  0  0  0  0  0  0  0  0  0
  176.6676   23.6221   47.4417 H   0  0  0  0  0  0  0  0  0  0  0  0
  177.8939   24.0290   48.6848 H   0  0  0  0  0  0  0  0  0  0  0  0
  1  2  1  0
  2  3  1  0
  3  4  2  0
  4  5  1  0
  5  6  1  0
  6  7  1  0
  7  8  1  0
  8  9  2  0
  9 10  1  0
 10 11  2  0
 11 12  1  0
 12 13  1  0
 12 14  2  0
 14 15  1  0
 15 16  2  0
 15 17  1  0
 17 18  1  0
  5 19  2  0
 19 20  1  0
 20 21  2  0
 21 22  1  0
 22 23  1  0
 23 24  1  0
 24 25  1  0
 25 26  1  0
 26 27  1  0
 21  3  1  0
 27 22  1  0
 17  6  2  0
 14  8  1  0
  1 28  1  0
  1 29  1  0
  1 30  1  0
  2 31  1  0
  2 32  1  0
  4 33  1  0
  9 34  1  0
 10 35  1  0
 11 36  1  0
 13 37  1  0
 18 38  1  0
 19 39  1  0
 20 40  1  0
 23 41  1  0
 23 42  1  0
 24 43  1  0
 24 44  1  0
 25 45  1  0
 25 46  1  0
 26 47  1  0
 26 48  1  0
 27 49  1  0
 27 50  1  0
M  END
>  <meeko>  (1) 
{"is_sidechain": [false], "free_energy": -7.991, "intermolecular_energy": -9.86, "internal_energy": -0.544}

$$$$
cand_029_out
     RDKit          3D

 50 53  0  0  0  0  0  0  0  0999 V2000
  180.7390   21.5790   49.6340 C   0  0  0  0  0  0  0  0  0  0  0  0
  179.2670   21.9450   49.5200 C   0  0  0  0  0  0  0  0  0  0  0  0
  178.5780   21.1880   48.4060 C   0  0  0  0  0  0  0  0  0  0  0  0
  179.3390   20.3050   47.6160 C   0  0  0  0  0  0  0  0  0  0  0  0
  178.7680   19.5900   46.5530 C   0  0  0  0  0  0  0  0  0  0  0  0
  179.5960   18.6510   45.7670 C   0  0  0  0  0  0  0  0  0  0  0  0
  179.1270   17.3430   45.8180 O   0  0  0  0  0  0  0  0  0  0  0  0
  179.8040   16.3670   45.1330 C   0  0  0  0  0  0  0  0  0  0  0  0
  179.2900   15.0720   45.2010 C   0  0  0  0  0  0  0  0  0  0  0  0
  179.9330   14.0310   44.5280 C   0  0  0  0  0  0  0  0  0  0  0  0
  181.0890   14.2850   43.7880 C   0  0  0  0  0  0  0  0  0  0  0  0
  181.6000   15.5790   43.7210 C   0  0  0  0  0  0  0  0  0  0  0  0
  182.7350   15.7560   42.9790 O   0  0  0  0  0  0  0  0  0  0  0  0
  180.9560   16.6200   44.3940 C   0  0  0  0  0  0  0  0  0  0  0  0
  181.4600   17.9940   44.3510 C   0  0  0  0  0  0  0  0  0  0  0  0
  182.4740   18.2950   43.7260 O   0  0  0  0  0  0  0  0  0  0  0  0
  180.7000   19.0260   45.0940 C   0  0  0  0  0  0  0  0  0  0  0  0
  181.1930   20.3170   45.0560 O   0  0  0  0  0  0  0  0  0  0  0  0
  177.4040   19.7610   46.3000 C   0  0  0  0  0  0  0  0  0  0  0  0
  176.6380   20.6410   47.0710 C   0  0  0  0  0  0  0  0  0  0  0  0
  177.2090   21.3700   48.1240 C   0  0  0  0  0  0  0  0  0  0  0  0
  176.4510   22.2610   48.9140 N   0  0  0  0  0  0  0  0  0  0  0  0
  176.5520   23.6620   48.4760 C   0  0  0  0  0  0  0  0  0  0  0  0
  175.9050   24.5600   49.5320 C   0  0  0  0  0  0  0  0  0  0  0  0
  174.4610   24.1400   49.8020 C   0  0  0  0  0  0  0  0  0  0  0  0
  174.3810   22.6550   50.1520 C   0  0  0  0  0  0  0  0  0  0  0  0
  175.0660   21.7950   49.0890 C   0  0  0  0  0  0  0  0  0  0  0  0
  181.0184   21.5095   50.6957 H   0  0  0  0  0  0  0  0  0  0  0  0
  180.9148   20.6098   49.1444 H   0  0  0  0  0  0  0  0  0  0  0  0
  181.3483   22.3530   49.1444 H   0  0  0  0  0  0  0  0  0  0  0  0
  178.7678   21.7086   50.4713 H   0  0  0  0  0  0  0  0  0  0  0  0
  179.2013   23.0190   49.2915 H   0  0  0  0  0  0  0  0  0  0  0  0
  180.4082   20.1727   47.8381 H   0  0  0  0  0  0  0  0  0  0  0  0
  178.3792   14.8710   45.7841 H   0  0  0  0  0  0  0  0  0  0  0  0
  179.5281   13.0096   44.5811 H   0  0  0  0  0  0  0  0  0  0  0  0
  181.5956   13.4646   43.2586 H   0  0  0  0  0  0  0  0  0  0  0  0
  183.4580   16.2360   43.3340 H   0  0  0  0  0  0  0  0  0  0  0  0
  182.1080   20.4730   45.1810 H   0  0  0  0  0  0  0  0  0  0  0  0
  176.9275   19.1967   45.4848 H   0  0  0  0  0  0  0  0  0  0  0  0
  175.5680   20.7636   46.8473 H   0  0  0  0  0  0  0  0  0  0  0  0
  177.6106   23.9361   48.3568 H   0  0  0  0  0  0  0  0  0  0  0  0
  176.0364   23.7891   47.5127 H   0  0  0  0  0  0  0  0  0  0  0  0
  176.4808   24.4878   50.4665 H   0  0  0  0  0  0  0  0  0  0  0  0
  175.9036   25.5943   49.1574 H   0  0  0  0  0  0  0  0  0  0  0  0
  174.0656   24.7297   50.6421 H   0  0  0  0  0  0  0  0  0  0  0  0
  173.8674   24.3192   48.8934 H   0  0  0  0  0  0  0  0  0  0  0  0
  174.8750   22.4882   51.1206 H   0  0  0  0  0  0  0  0  0  0  0  0
  173.3205   22.3668   50.2008 H   0  0  0  0  0  0  0  0  0  0  0  0
  175.0688   20.7433   49.4113 H   0  0  0  0  0  0  0  0  0  0  0  0
  174.5226   21.8795   48.1363 H   0  0  0  0  0  0  0  0  0  0  0  0
  1  2  1  0
  2  3  1  0
  3  4  2  0
  4  5  1  0
  5  6  1  0
  6  7  1  0
  7  8  1  0
  8  9  2  0
  9 10  1  0
 10 11  2  0
 11 12  1  0
 12 13  1  0
 12 14  2  0
 14 15  1  0
 15 16  2  0
 15 17  1  0
 17 18  1  0
  5 19  2  0
 19 20  1  0
 20 21  2  0
 21 22  1  0
 22 23  1  0
 23 24  1  0
 24 25  1  0
 25 26  1  0
 26 27  1  0
 21  3  1  0
 27 22  1  0
 17  6  2  0
 14  8  1  0
  1 28  1  0
  1 29  1  0
  1 30  1  0
  2 31  1  0
  2 32  1  0
  4 33  1  0
  9 34  1  0
 10 35  1  0
 11 36  1  0
 13 37  1  0
 18 38  1  0
 19 39  1  0
 20 40  1  0
 23 41  1  0
 23 42  1  0
 24 43  1  0
 24 44  1  0
 25 45  1  0
 25 46  1  0
 26 47  1  0
 26 48  1  0
 27 49  1  0
 27 50  1  0
M  END
>  <meeko>  (2) 
{"is_sidechain": [false], "free_energy": -7.854, "intermolecular_energy": -9.718, "internal_energy": -0.517}

$$$$
cand_029_out
     RDKit          3D

 50 53  0  0  0  0  0  0  0  0999 V2000
  179.9520   24.4980   48.4040 C   0  0  0  0  0  0  0  0  0  0  0  0
  178.7970   24.0220   47.5350 C   0  0  0  0  0  0  0  0  0  0  0  0
  177.9660   22.9640   48.2260 C   0  0  0  0  0  0  0  0  0  0  0  0
  176.9540   23.3710   49.1170 C   0  0  0  0  0  0  0  0  0  0  0  0
  176.1640   22.4400   49.8070 C   0  0  0  0  0  0  0  0  0  0  0  0
  175.0920   22.9100   50.7100 C   0  0  0  0  0  0  0  0  0  0  0  0
  175.5710   23.3160   51.9510 O   0  0  0  0  0  0  0  0  0  0  0  0
  174.6820   23.7750   52.8890 C   0  0  0  0  0  0  0  0  0  0  0  0
  175.2070   24.1830   54.1150 C   0  0  0  0  0  0  0  0  0  0  0  0
  174.3560   24.6590   55.1140 C   0  0  0  0  0  0  0  0  0  0  0  0
  172.9800   24.7260   54.8880 C   0  0  0  0  0  0  0  0  0  0  0  0
  172.4580   24.3180   53.6620 C   0  0  0  0  0  0  0  0  0  0  0  0
  171.1010   24.4110   53.5080 O   0  0  0  0  0  0  0  0  0  0  0  0
  173.3100   23.8430   52.6630 C   0  0  0  0  0  0  0  0  0  0  0  0
  172.8030   23.4040   51.3620 C   0  0  0  0  0  0  0  0  0  0  0  0
  171.6040   23.4270   51.0890 O   0  0  0  0  0  0  0  0  0  0  0  0
  173.7900   22.9220   50.3680 C   0  0  0  0  0  0  0  0  0  0  0  0
  173.2980   22.4980   49.1480 O   0  0  0  0  0  0  0  0  0  0  0  0
  176.3930   21.0800   49.5790 C   0  0  0  0  0  0  0  0  0  0  0  0
  177.4000   20.6620   48.7040 C   0  0  0  0  0  0  0  0  0  0  0  0
  178.2040   21.5890   48.0240 C   0  0  0  0  0  0  0  0  0  0  0  0
  179.2240   21.1850   47.1350 N   0  0  0  0  0  0  0  0  0  0  0  0
  180.4550   20.7530   47.8160 C   0  0  0  0  0  0  0  0  0  0  0  0
  181.5620   20.5780   46.7750 C   0  0  0  0  0  0  0  0  0  0  0  0
  181.1370   19.6050   45.6770 C   0  0  0  0  0  0  0  0  0  0  0  0
  179.8020   20.0250   45.0630 C   0  0  0  0  0  0  0  0  0  0  0  0
  178.7320   20.2210   46.1380 C   0  0  0  0  0  0  0  0  0  0  0  0
  179.6827   24.3870   49.4647 H   0  0  0  0  0  0  0  0  0  0  0  0
  180.8463   23.8951   48.1877 H   0  0  0  0  0  0  0  0  0  0  0  0
  180.1618   25.5559   48.1877 H   0  0  0  0  0  0  0  0  0  0  0  0
  178.1525   24.8816   47.2990 H   0  0  0  0  0  0  0  0  0  0  0  0
  179.2197   23.5786   46.6214 H   0  0  0  0  0  0  0  0  0  0  0  0
  176.7789   24.4453   49.2756 H   0  0  0  0  0  0  0  0  0  0  0  0
  176.2909   24.1298   54.2947 H   0  0  0  0  0  0  0  0  0  0  0  0
  174.7702   24.9817   56.0806 H   0  0  0  0  0  0  0  0  0  0  0  0
  172.3095   25.0999   55.6757 H   0  0  0  0  0  0  0  0  0  0  0  0
  170.5500   23.7030   53.7780 H   0  0  0  0  0  0  0  0  0  0  0  0
  173.8340   21.9770   48.5830 H   0  0  0  0  0  0  0  0  0  0  0  0
  175.7740   20.3304   50.0938 H   0  0  0  0  0  0  0  0  0  0  0  0
  177.5650   19.5860   48.5457 H   0  0  0  0  0  0  0  0  0  0  0  0
  180.7565   21.5135   48.5513 H   0  0  0  0  0  0  0  0  0  0  0  0
  180.2784   19.7999   48.3359 H   0  0  0  0  0  0  0  0  0  0  0  0
  181.7865   21.5549   46.3219 H   0  0  0  0  0  0  0  0  0  0  0  0
  182.4518   20.1704   47.2771 H   0  0  0  0  0  0  0  0  0  0  0  0
  181.9063   19.5907   44.8909 H   0  0  0  0  0  0  0  0  0  0  0  0
  181.0211   18.6046   46.1194 H   0  0  0  0  0  0  0  0  0  0  0  0
  179.9400   20.9707   44.5184 H   0  0  0  0  0  0  0  0  0  0  0  0
  179.4676   19.2285   44.3821 H   0  0  0  0  0  0  0  0  0  0  0  0
  177.8113   20.6064   45.6757 H   0  0  0  0  0  0  0  0  0  0  0  0
  178.5161   19.2594   46.6265 H   0  0  0  0  0  0  0  0  0  0  0  0
  1  2  1  0
  2  3  1  0
  3  4  2  0
  4  5  1  0
  5  6  1  0
  6  7  1  0
  7  8  1  0
  8  9  2  0
  9 10  1  0
 10 11  2  0
 11 12  1  0
 12 13  1  0
 12 14  2  0
 14 15  1  0
 15 16  2  0
 15 17  1  0
 17 18  1  0
  5 19  2  0
 19 20  1  0
 20 21  2  0
 21 22  1  0
 22 23  1  0
 23 24  1  0
 24 25  1  0
 25 26  1  0
 26 27  1  0
 21  3  1  0
 27 22  1  0
 17  6  2  0
 14  8  1  0
  1 28  1  0
  1 29  1  0
  1 30  1  0
  2 31  1  0
  2 32  1  0
  4 33  1  0
  9 34  1  0
 10 35  1  0
 11 36  1  0
 13 37  1  0
 18 38  1  0
 19 39  1  0
 20 40  1  0
 23 41  1  0
 23 42  1  0
 24 43  1  0
 24 44  1  0
 25 45  1  0
 25 46  1  0
 26 47  1  0
 26 48  1  0
 27 49  1  0
 27 50  1  0
M  END
>  <meeko>  (3) 
{"is_sidechain": [false], "free_energy": -7.731, "intermolecular_energy": -9.196, "internal_energy": -0.887}

$$$$
cand_029_out
     RDKit          3D

 50 53  0  0  0  0  0  0  0  0999 V2000
  179.9140   20.2080   45.2380 C   0  0  0  0  0  0  0  0  0  0  0  0
  179.5810   19.7220   46.6410 C   0  0  0  0  0  0  0  0  0  0  0  0
  179.8380   20.7860   47.6850 C   0  0  0  0  0  0  0  0  0  0  0  0
  181.1640   21.2030   47.9150 C   0  0  0  0  0  0  0  0  0  0  0  0
  181.4740   22.1680   48.8850 C   0  0  0  0  0  0  0  0  0  0  0  0
  182.8750   22.5980   49.0740 C   0  0  0  0  0  0  0  0  0  0  0  0
  183.4910   22.9700   47.8840 O   0  0  0  0  0  0  0  0  0  0  0  0
  184.7960   23.3910   47.9140 C   0  0  0  0  0  0  0  0  0  0  0  0
  185.3690   23.7660   46.6980 C   0  0  0  0  0  0  0  0  0  0  0  0
  186.6950   24.2020   46.6590 C   0  0  0  0  0  0  0  0  0  0  0  0
  187.4480   24.2610   47.8330 C   0  0  0  0  0  0  0  0  0  0  0  0
  186.8730   23.8860   49.0450 C   0  0  0  0  0  0  0  0  0  0  0  0
  187.6670   23.9690   50.1560 O   0  0  0  0  0  0  0  0  0  0  0  0
  185.5460   23.4510   49.0840 C   0  0  0  0  0  0  0  0  0  0  0  0
  184.9040   23.0470   50.3360 C   0  0  0  0  0  0  0  0  0  0  0  0
  185.5020   23.0660   51.4100 O   0  0  0  0  0  0  0  0  0  0  0  0
  183.4910   22.6070   50.2710 C   0  0  0  0  0  0  0  0  0  0  0  0
  182.8990   22.2150   51.4580 O   0  0  0  0  0  0  0  0  0  0  0  0
  180.4240   22.7260   49.6200 C   0  0  0  0  0  0  0  0  0  0  0  0
  179.1050   22.3150   49.4080 C   0  0  0  0  0  0  0  0  0  0  0  0
  178.7920   21.3390   48.4500 C   0  0  0  0  0  0  0  0  0  0  0  0
  177.4660   20.9130   48.2220 N   0  0  0  0  0  0  0  0  0  0  0  0
  176.6920   20.7220   49.4590 C   0  0  0  0  0  0  0  0  0  0  0  0
  175.3710   20.0310   49.1150 C   0  0  0  0  0  0  0  0  0  0  0  0
  174.5940   20.8200   48.0630 C   0  0  0  0  0  0  0  0  0  0  0  0
  175.4620   21.0920   46.8350 C   0  0  0  0  0  0  0  0  0  0  0  0
  176.7850   21.7530   47.2240 C   0  0  0  0  0  0  0  0  0  0  0  0
  180.5347   21.1139   45.3015 H   0  0  0  0  0  0  0  0  0  0  0  0
  180.4649   19.4230   44.6992 H   0  0  0  0  0  0  0  0  0  0  0  0
  178.9831   20.4384   44.6992 H   0  0  0  0  0  0  0  0  0  0  0  0
  178.5185   19.4393   46.6761 H   0  0  0  0  0  0  0  0  0  0  0  0
  180.2291   18.8620   46.8655 H   0  0  0  0  0  0  0  0  0  0  0  0
  181.9763   20.7610   47.3193 H   0  0  0  0  0  0  0  0  0  0  0  0
  184.7772   23.7182   45.7720 H   0  0  0  0  0  0  0  0  0  0  0  0
  187.1471   24.4995   45.7014 H   0  0  0  0  0  0  0  0  0  0  0  0
  188.4930   24.6029   47.8010 H   0  0  0  0  0  0  0  0  0  0  0  0
  187.3620   24.4210   50.9180 H   0  0  0  0  0  0  0  0  0  0  0  0
  182.8280   22.8220   52.1680 H   0  0  0  0  0  0  0  0  0  0  0  0
  180.6383   23.4976   50.3741 H   0  0  0  0  0  0  0  0  0  0  0  0
  178.2971   22.7653   50.0035 H   0  0  0  0  0  0  0  0  0  0  0  0
  177.2644   20.0966   50.1599 H   0  0  0  0  0  0  0  0  0  0  0  0
  176.4918   21.6968   49.9278 H   0  0  0  0  0  0  0  0  0  0  0  0
  175.5832   19.0247   48.7248 H   0  0  0  0  0  0  0  0  0  0  0  0
  174.7603   19.9715   50.0280 H   0  0  0  0  0  0  0  0  0  0  0  0
  173.7101   20.2405   47.7582 H   0  0  0  0  0  0  0  0  0  0  0  0
  174.2900   21.7830   48.4991 H   0  0  0  0  0  0  0  0  0  0  0  0
  175.6733   20.1392   46.3276 H   0  0  0  0  0  0  0  0  0  0  0  0
  174.9156   21.7756   46.1686 H   0  0  0  0  0  0  0  0  0  0  0  0
  177.4216   21.8561   46.3329 H   0  0  0  0  0  0  0  0  0  0  0  0
  176.5917   22.7497   47.6474 H   0  0  0  0  0  0  0  0  0  0  0  0
  1  2  1  0
  2  3  1  0
  3  4  2  0
  4  5  1  0
  5  6  1  0
  6  7  1  0
  7  8  1  0
  8  9  2  0
  9 10  1  0
 10 11  2  0
 11 12  1  0
 12 13  1  0
 12 14  2  0
 14 15  1  0
 15 16  2  0
 15 17  1  0
 17 18  1  0
  5 19  2  0
 19 20  1  0
 20 21  2  0
 21 22  1  0
 22 23  1  0
 23 24  1  0
 24 25  1  0
 25 26  1  0
 26 27  1  0
 21  3  1  0
 27 22  1  0
 17  6  2  0
 14  8  1  0
  1 28  1  0
  1 29  1  0
  1 30  1  0
  2 31  1  0
  2 32  1  0
  4 33  1  0
  9 34  1  0
 10 35  1  0
 11 36  1  0
 13 37  1  0
 18 38  1  0
 19 39  1  0
 20 40  1  0
 23 41  1  0
 23 42  1  0
 24 43  1  0
 24 44  1  0
 25 45  1  0
 25 46  1  0
 26 47  1  0
 26 48  1  0
 27 49  1  0
 27 50  1  0
M  END
>  <meeko>  (4) 
{"is_sidechain": [false], "free_energy": -7.563, "intermolecular_energy": -9.241, "internal_energy": -0.634}

$$$$
cand_029_out
     RDKit          3D

 50 53  0  0  0  0  0  0  0  0999 V2000
  175.2020   19.1690   47.1290 C   0  0  0  0  0  0  0  0  0  0  0  0
  176.0700   19.2840   48.3730 C   0  0  0  0  0  0  0  0  0  0  0  0
  176.2290   20.7190   48.8240 C   0  0  0  0  0  0  0  0  0  0  0  0
  175.2100   21.3020   49.6030 C   0  0  0  0  0  0  0  0  0  0  0  0
  175.2850   22.6350   50.0340 C   0  0  0  0  0  0  0  0  0  0  0  0
  174.2080   23.1970   50.8750 C   0  0  0  0  0  0  0  0  0  0  0  0
  174.6530   23.5910   52.1320 O   0  0  0  0  0  0  0  0  0  0  0  0
  173.7550   24.1290   53.0170 C   0  0  0  0  0  0  0  0  0  0  0  0
  174.2490   24.5220   54.2620 C   0  0  0  0  0  0  0  0  0  0  0  0
  173.3870   25.0760   55.2100 C   0  0  0  0  0  0  0  0  0  0  0  0
  172.0310   25.2370   54.9150 C   0  0  0  0  0  0  0  0  0  0  0  0
  171.5410   24.8450   53.6710 C   0  0  0  0  0  0  0  0  0  0  0  0
  170.2040   25.0310   53.4490 O   0  0  0  0  0  0  0  0  0  0  0  0
  172.4050   24.2910   52.7230 C   0  0  0  0  0  0  0  0  0  0  0  0
  171.9310   23.8650   51.4050 C   0  0  0  0  0  0  0  0  0  0  0  0
  170.7510   23.9690   51.0730 O   0  0  0  0  0  0  0  0  0  0  0  0
  172.9280   23.2960   50.4690 C   0  0  0  0  0  0  0  0  0  0  0  0
  172.4660   22.8840   49.2320 O   0  0  0  0  0  0  0  0  0  0  0  0
  176.4130   23.3810   49.6820 C   0  0  0  0  0  0  0  0  0  0  0  0
  177.4270   22.8180   48.9020 C   0  0  0  0  0  0  0  0  0  0  0  0
  177.3500   21.4900   48.4550 C   0  0  0  0  0  0  0  0  0  0  0  0
  178.3650   20.9060   47.6670 N   0  0  0  0  0  0  0  0  0  0  0  0
  178.2090   21.1620   46.2270 C   0  0  0  0  0  0  0  0  0  0  0  0
  179.2030   20.2890   45.4580 C   0  0  0  0  0  0  0  0  0  0  0  0
  180.6330   20.5310   45.9360 C   0  0  0  0  0  0  0  0  0  0  0  0
  180.7370   20.3600   47.4510 C   0  0  0  0  0  0  0  0  0  0  0  0
  179.7070   21.2220   48.1810 C   0  0  0  0  0  0  0  0  0  0  0  0
  174.1520   19.0299   47.4261 H   0  0  0  0  0  0  0  0  0  0  0  0
  175.2952   20.0873   46.5307 H   0  0  0  0  0  0  0  0  0  0  0  0
  175.5311   18.3066   46.5307 H   0  0  0  0  0  0  0  0  0  0  0  0
  175.6046   18.7063   49.1851 H   0  0  0  0  0  0  0  0  0  0  0  0
  177.0684   18.8931   48.1272 H   0  0  0  0  0  0  0  0  0  0  0  0
  174.3340   20.6971   49.8801 H   0  0  0  0  0  0  0  0  0  0  0  0
  175.3164   24.3953   54.4958 H   0  0  0  0  0  0  0  0  0  0  0  0
  173.7761   25.3863   56.1910 H   0  0  0  0  0  0  0  0  0  0  0  0
  171.3519   25.6721   55.6630 H   0  0  0  0  0  0  0  0  0  0  0  0
  169.6160   25.1160   54.1730 H   0  0  0  0  0  0  0  0  0  0  0  0
  171.8810   22.1540   49.1700 H   0  0  0  0  0  0  0  0  0  0  0  0
  176.5039   24.4230   50.0226 H   0  0  0  0  0  0  0  0  0  0  0  0
  178.3023   23.4277   48.6333 H   0  0  0  0  0  0  0  0  0  0  0  0
  177.1831   20.9143   45.9169 H   0  0  0  0  0  0  0  0  0  0  0  0
  178.4028   22.2236   46.0140 H   0  0  0  0  0  0  0  0  0  0  0  0
  178.9466   19.2307   45.6135 H   0  0  0  0  0  0  0  0  0  0  0  0
  179.1430   20.5490   44.3908 H   0  0  0  0  0  0  0  0  0  0  0  0
  181.3037   19.8104   45.4452 H   0  0  0  0  0  0  0  0  0  0  0  0
  180.9208   21.5608   45.6776 H   0  0  0  0  0  0  0  0  0  0  0  0
  180.5642   19.3037   47.7048 H   0  0  0  0  0  0  0  0  0  0  0  0
  181.7414   20.6778   47.7674 H   0  0  0  0  0  0  0  0  0  0  0  0
  179.7477   21.0106   49.2597 H   0  0  0  0  0  0  0  0  0  0  0  0
  179.9277   22.2864   48.0124 H   0  0  0  0  0  0  0  0  0  0  0  0
  1  2  1  0
  2  3  1  0
  3  4  2  0
  4  5  1  0
  5  6  1  0
  6  7  1  0
  7  8  1  0
  8  9  2  0
  9 10  1  0
 10 11  2  0
 11 12  1  0
 12 13  1  0
 12 14  2  0
 14 15  1  0
 15 16  2  0
 15 17  1  0
 17 18  1  0
  5 19  2  0
 19 20  1  0
 20 21  2  0
 21 22  1  0
 22 23  1  0
 23 24  1  0
 24 25  1  0
 25 26  1  0
 26 27  1  0
 21  3  1  0
 27 22  1  0
 17  6  2  0
 14  8  1  0
  1 28  1  0
  1 29  1  0
  1 30  1  0
  2 31  1  0
  2 32  1  0
  4 33  1  0
  9 34  1  0
 10 35  1  0
 11 36  1  0
 13 37  1  0
 18 38  1  0
 19 39  1  0
 20 40  1  0
 23 41  1  0
 23 42  1  0
 24 43  1  0
 24 44  1  0
 25 45  1  0
 25 46  1  0
 26 47  1  0
 26 48  1  0
 27 49  1  0
 27 50  1  0
M  END
>  <meeko>  (5) 
{"is_sidechain": [false], "free_energy": -7.542, "intermolecular_energy": -9.139, "internal_energy": -0.711}

$$$$
cand_029_out
     RDKit          3D

 50 53  0  0  0  0  0  0  0  0999 V2000
  180.5300   22.9380   51.1310 C   0  0  0  0  0  0  0  0  0  0  0  0
  179.7850   21.7300   50.5830 C   0  0  0  0  0  0  0  0  0  0  0  0
  178.7130   22.1250   49.5910 C   0  0  0  0  0  0  0  0  0  0  0  0
  177.5110   22.6770   50.0770 C   0  0  0  0  0  0  0  0  0  0  0  0
  176.4680   23.0430   49.2130 C   0  0  0  0  0  0  0  0  0  0  0  0
  175.2360   23.6460   49.7620 C   0  0  0  0  0  0  0  0  0  0  0  0
  175.2490   25.0360   49.7210 O   0  0  0  0  0  0  0  0  0  0  0  0
  174.1660   25.7260   50.2010 C   0  0  0  0  0  0  0  0  0  0  0  0
  174.2180   27.1180   50.1280 C   0  0  0  0  0  0  0  0  0  0  0  0
  173.1480   27.8800   50.6020 C   0  0  0  0  0  0  0  0  0  0  0  0
  172.0280   27.2510   51.1490 C   0  0  0  0  0  0  0  0  0  0  0  0
  171.9790   25.8610   51.2200 C   0  0  0  0  0  0  0  0  0  0  0  0
  170.8520   25.3110   51.7670 O   0  0  0  0  0  0  0  0  0  0  0  0
  173.0490   25.0990   50.7450 C   0  0  0  0  0  0  0  0  0  0  0  0
  173.0390   23.6360   50.8020 C   0  0  0  0  0  0  0  0  0  0  0  0
  172.0920   23.0100   51.2740 O   0  0  0  0  0  0  0  0  0  0  0  0
  174.2200   22.9210   50.2670 C   0  0  0  0  0  0  0  0  0  0  0  0
  174.2040   21.5400   50.3380 O   0  0  0  0  0  0  0  0  0  0  0  0
  176.6530   22.8610   47.8400 C   0  0  0  0  0  0  0  0  0  0  0  0
  177.8370   22.3060   47.3450 C   0  0  0  0  0  0  0  0  0  0  0  0
  178.8770   21.9230   48.2060 C   0  0  0  0  0  0  0  0  0  0  0  0
  180.0800   21.3630   47.7240 N   0  0  0  0  0  0  0  0  0  0  0  0
  179.8810   20.4230   46.6100 C   0  0  0  0  0  0  0  0  0  0  0  0
  181.1990   19.6960   46.3340 C   0  0  0  0  0  0  0  0  0  0  0  0
  182.3280   20.6880   46.0600 C   0  0  0  0  0  0  0  0  0  0  0  0
  182.4380   21.7150   47.1860 C   0  0  0  0  0  0  0  0  0  0  0  0
  181.0940   22.3950   47.4530 C   0  0  0  0  0  0  0  0  0  0  0  0
  180.5135   22.9112   52.2305 H   0  0  0  0  0  0  0  0  0  0  0  0
  181.5721   22.9167   50.7793 H   0  0  0  0  0  0  0  0  0  0  0  0
  180.0431   23.8596   50.7793 H   0  0  0  0  0  0  0  0  0  0  0  0
  180.5051   21.0665   50.0818 H   0  0  0  0  0  0  0  0  0  0  0  0
  179.2953   21.2222   51.4270 H   0  0  0  0  0  0  0  0  0  0  0  0
  177.3875   22.8245   51.1600 H   0  0  0  0  0  0  0  0  0  0  0  0
  175.1002   27.6146   49.6978 H   0  0  0  0  0  0  0  0  0  0  0  0
  173.1877   28.9778   50.5443 H   0  0  0  0  0  0  0  0  0  0  0  0
  171.1861   27.8520   51.5231 H   0  0  0  0  0  0  0  0  0  0  0  0
  170.3770   25.7750   52.4290 H   0  0  0  0  0  0  0  0  0  0  0  0
  173.8260   21.1140   51.0820 H   0  0  0  0  0  0  0  0  0  0  0  0
  175.8578   23.1579   47.1403 H   0  0  0  0  0  0  0  0  0  0  0  0
  177.9556   22.1669   46.2603 H   0  0  0  0  0  0  0  0  0  0  0  0
  179.1048   19.6913   46.8784 H   0  0  0  0  0  0  0  0  0  0  0  0
  179.5626   20.9718   45.7114 H   0  0  0  0  0  0  0  0  0  0  0  0
  181.4624   19.0850   47.2100 H   0  0  0  0  0  0  0  0  0  0  0  0
  181.0683   19.0616   45.4450 H   0  0  0  0  0  0  0  0  0  0  0  0
  183.2778   20.1391   45.9794 H   0  0  0  0  0  0  0  0  0  0  0  0
  182.1093   21.2183   45.1214 H   0  0  0  0  0  0  0  0  0  0  0  0
  182.7706   21.2067   48.1031 H   0  0  0  0  0  0  0  0  0  0  0  0
  183.1622   22.4855   46.8829 H   0  0  0  0  0  0  0  0  0  0  0  0
  181.1842   23.0610   48.3238 H   0  0  0  0  0  0  0  0  0  0  0  0
  180.7962   22.9870   46.5750 H   0  0  0  0  0  0  0  0  0  0  0  0
  1  2  1  0
  2  3  1  0
  3  4  2  0
  4  5  1  0
  5  6  1  0
  6  7  1  0
  7  8  1  0
  8  9  2  0
  9 10  1  0
 10 11  2  0
 11 12  1  0
 12 13  1  0
 12 14  2  0
 14 15  1  0
 15 16  2  0
 15 17  1  0
 17 18  1  0
  5 19  2  0
 19 20  1  0
 20 21  2  0
 21 22  1  0
 22 23  1  0
 23 24  1  0
 24 25  1  0
 25 26  1  0
 26 27  1  0
 21  3  1  0
 27 22  1  0
 17  6  2  0
 14  8  1  0
  1 28  1  0
  1 29  1  0
  1 30  1  0
  2 31  1  0
  2 32  1  0
  4 33  1  0
  9 34  1  0
 10 35  1  0
 11 36  1  0
 13 37  1  0
 18 38  1  0
 19 39  1  0
 20 40  1  0
 23 41  1  0
 23 42  1  0
 24 43  1  0
 24 44  1  0
 25 45  1  0
 25 46  1  0
 26 47  1  0
 26 48  1  0
 27 49  1  0
 27 50  1  0
M  END
>  <meeko>  (6) 
{"is_sidechain": [false], "free_energy": -7.513, "intermolecular_energy": -8.992, "internal_energy": -0.821}

$$$$
cand_029_out
     RDKit          3D

 50 53  0  0  0  0  0  0  0  0999 V2000
  182.1080   26.5350   48.9230 C   0  0  0  0  0  0  0  0  0  0  0  0
  182.6780   25.6280   47.8420 C   0  0  0  0  0  0  0  0  0  0  0  0
  182.4670   24.1640   48.1600 C   0  0  0  0  0  0  0  0  0  0  0  0
  181.1670   23.7180   48.4670 C   0  0  0  0  0  0  0  0  0  0  0  0
  180.9070   22.3790   48.7940 C   0  0  0  0  0  0  0  0  0  0  0  0
  179.5230   21.9470   49.0800 C   0  0  0  0  0  0  0  0  0  0  0  0
  178.7950   21.6660   47.9300 O   0  0  0  0  0  0  0  0  0  0  0  0
  177.4920   21.2550   48.0500 C   0  0  0  0  0  0  0  0  0  0  0  0
  176.8040   20.9730   46.8700 C   0  0  0  0  0  0  0  0  0  0  0  0
  175.4740   20.5520   46.9220 C   0  0  0  0  0  0  0  0  0  0  0  0
  174.8320   20.4140   48.1550 C   0  0  0  0  0  0  0  0  0  0  0  0
  175.5210   20.6960   49.3320 C   0  0  0  0  0  0  0  0  0  0  0  0
  174.8320   20.5400   50.5030 O   0  0  0  0  0  0  0  0  0  0  0  0
  176.8520   21.1170   49.2780 C   0  0  0  0  0  0  0  0  0  0  0  0
  177.6130   21.4250   50.4910 C   0  0  0  0  0  0  0  0  0  0  0  0
  177.1150   21.3330   51.6110 O   0  0  0  0  0  0  0  0  0  0  0  0
  179.0200   21.8570   50.3260 C   0  0  0  0  0  0  0  0  0  0  0  0
  179.7240   22.1580   51.4770 O   0  0  0  0  0  0  0  0  0  0  0  0
  181.9770   21.4790   48.7940 C   0  0  0  0  0  0  0  0  0  0  0  0
  183.2730   21.9100   48.5000 C   0  0  0  0  0  0  0  0  0  0  0  0
  183.5410   23.2520   48.1890 C   0  0  0  0  0  0  0  0  0  0  0  0
  184.8440   23.7040   47.8880 N   0  0  0  0  0  0  0  0  0  0  0  0
  185.8620   23.2310   48.8390 C   0  0  0  0  0  0  0  0  0  0  0  0
  187.1740   23.9700   48.5700 C   0  0  0  0  0  0  0  0  0  0  0  0
  187.6150   23.7980   47.1180 C   0  0  0  0  0  0  0  0  0  0  0  0
  186.4970   24.2000   46.1570 C   0  0  0  0  0  0  0  0  0  0  0  0
  185.1950   23.4640   46.4790 C   0  0  0  0  0  0  0  0  0  0  0  0
  182.3626   26.1298   49.9134 H   0  0  0  0  0  0  0  0  0  0  0  0
  182.5351   27.5433   48.8184 H   0  0  0  0  0  0  0  0  0  0  0  0
  181.0142   26.5875   48.8184 H   0  0  0  0  0  0  0  0  0  0  0  0
  182.1827   25.8589   46.8874 H   0  0  0  0  0  0  0  0  0  0  0  0
  183.7613   25.8098   47.7829 H   0  0  0  0  0  0  0  0  0  0  0  0
  180.3350   24.4374   48.4499 H   0  0  0  0  0  0  0  0  0  0  0  0
  177.3091   21.0823   45.8989 H   0  0  0  0  0  0  0  0  0  0  0  0
  174.9313   20.3288   45.9916 H   0  0  0  0  0  0  0  0  0  0  0  0
  173.7838   20.0831   48.1962 H   0  0  0  0  0  0  0  0  0  0  0  0
  174.8870   21.1950   51.1710 H   0  0  0  0  0  0  0  0  0  0  0  0
  180.6040   22.4750   51.4190 H   0  0  0  0  0  0  0  0  0  0  0  0
  181.7963   20.4195   49.0282 H   0  0  0  0  0  0  0  0  0  0  0  0
  184.0990   21.1837   48.5125 H   0  0  0  0  0  0  0  0  0  0  0  0
  185.5286   23.4334   49.8675 H   0  0  0  0  0  0  0  0  0  0  0  0
  186.0124   22.1484   48.7155 H   0  0  0  0  0  0  0  0  0  0  0  0
  187.0321   25.0408   48.7778 H   0  0  0  0  0  0  0  0  0  0  0  0
  187.9522   23.5488   49.2234 H   0  0  0  0  0  0  0  0  0  0  0  0
  188.4951   24.4310   46.9316 H   0  0  0  0  0  0  0  0  0  0  0  0
  187.8603   22.7392   46.9484 H   0  0  0  0  0  0  0  0  0  0  0  0
  186.3259   25.2835   46.2397 H   0  0  0  0  0  0  0  0  0  0  0  0
  186.8041   23.9310   45.1356 H   0  0  0  0  0  0  0  0  0  0  0  0
  184.3898   23.8380   45.8296 H   0  0  0  0  0  0  0  0  0  0  0  0
  185.3260   22.3854   46.3075 H   0  0  0  0  0  0  0  0  0  0  0  0
  1  2  1  0
  2  3  1  0
  3  4  2  0
  4  5  1  0
  5  6  1  0
  6  7  1  0
  7  8  1  0
  8  9  2  0
  9 10  1  0
 10 11  2  0
 11 12  1  0
 12 13  1  0
 12 14  2  0
 14 15  1  0
 15 16  2  0
 15 17  1  0
 17 18  1  0
  5 19  2  0
 19 20  1  0
 20 21  2  0
 21 22  1  0
 22 23  1  0
 23 24  1  0
 24 25  1  0
 25 26  1  0
 26 27  1  0
 21  3  1  0
 27 22  1  0
 17  6  2  0
 14  8  1  0
  1 28  1  0
  1 29  1  0
  1 30  1  0
  2 31  1  0
  2 32  1  0
  4 33  1  0
  9 34  1  0
 10 35  1  0
 11 36  1  0
 13 37  1  0
 18 38  1  0
 19 39  1  0
 20 40  1  0
 23 41  1  0
 23 42  1  0
 24 43  1  0
 24 44  1  0
 25 45  1  0
 25 46  1  0
 26 47  1  0
 26 48  1  0
 27 49  1  0
 27 50  1  0
M  END
>  <meeko>  (7) 
{"is_sidechain": [false], "free_energy": -7.433, "intermolecular_energy": -8.881, "internal_energy": -0.833}

$$$$
cand_029_out
     RDKit          3D

 50 53  0  0  0  0  0  0  0  0999 V2000
  180.1400   24.4320   48.3820 C   0  0  0  0  0  0  0  0  0  0  0  0
  179.0490   24.0680   47.3860 C   0  0  0  0  0  0  0  0  0  0  0  0
  178.0760   23.0590   47.9530 C   0  0  0  0  0  0  0  0  0  0  0  0
  177.0040   23.5200   48.7430 C   0  0  0  0  0  0  0  0  0  0  0  0
  176.0800   22.6360   49.3180 C   0  0  0  0  0  0  0  0  0  0  0  0
  174.9540   23.1640   50.1160 C   0  0  0  0  0  0  0  0  0  0  0  0
  173.9230   23.6660   49.3290 O   0  0  0  0  0  0  0  0  0  0  0  0
  172.8140   24.1910   49.9410 C   0  0  0  0  0  0  0  0  0  0  0  0
  171.8000   24.6720   49.1130 C   0  0  0  0  0  0  0  0  0  0  0  0
  170.6450   25.2200   49.6730 C   0  0  0  0  0  0  0  0  0  0  0  0
  170.5040   25.2890   51.0600 C   0  0  0  0  0  0  0  0  0  0  0  0
  171.5180   24.8080   51.8850 C   0  0  0  0  0  0  0  0  0  0  0  0
  171.3140   24.9070   53.2340 O   0  0  0  0  0  0  0  0  0  0  0  0
  172.6730   24.2590   51.3240 C   0  0  0  0  0  0  0  0  0  0  0  0
  173.7630   23.7430   52.1550 C   0  0  0  0  0  0  0  0  0  0  0  0
  173.7160   23.7740   53.3830 O   0  0  0  0  0  0  0  0  0  0  0  0
  174.9420   23.1750   51.4620 C   0  0  0  0  0  0  0  0  0  0  0  0
  175.9710   22.7030   52.2560 O   0  0  0  0  0  0  0  0  0  0  0  0
  176.2360   21.2680   49.0760 C   0  0  0  0  0  0  0  0  0  0  0  0
  177.3000   20.7960   48.3020 C   0  0  0  0  0  0  0  0  0  0  0  0
  178.2360   21.6750   47.7380 C   0  0  0  0  0  0  0  0  0  0  0  0
  179.3150   21.2160   46.9520 N   0  0  0  0  0  0  0  0  0  0  0  0
  180.4140   20.6420   47.7440 C   0  0  0  0  0  0  0  0  0  0  0  0
  181.6170   20.4090   46.8290 C   0  0  0  0  0  0  0  0  0  0  0  0
  181.2410   19.5280   45.6390 C   0  0  0  0  0  0  0  0  0  0  0  0
  180.0300   20.0970   44.9000 C   0  0  0  0  0  0  0  0  0  0  0  0
  178.8620   20.3460   45.8540 C   0  0  0  0  0  0  0  0  0  0  0  0
  179.7589   24.3049   49.4060 H   0  0  0  0  0  0  0  0  0  0  0  0
  181.0092   23.7752   48.2300 H   0  0  0  0  0  0  0  0  0  0  0  0
  180.4407   25.4791   48.2300 H   0  0  0  0  0  0  0  0  0  0  0  0
  178.4969   24.9801   47.1154 H   0  0  0  0  0  0  0  0  0  0  0  0
  179.5303   23.6173   46.5055 H   0  0  0  0  0  0  0  0  0  0  0  0
  176.8892   24.6007   48.9128 H   0  0  0  0  0  0  0  0  0  0  0  0
  171.9104   24.6195   48.0198 H   0  0  0  0  0  0  0  0  0  0  0  0
  169.8445   25.5982   49.0202 H   0  0  0  0  0  0  0  0  0  0  0  0
  169.5940   25.7223   51.5006 H   0  0  0  0  0  0  0  0  0  0  0  0
  171.8670   24.4370   53.8280 H   0  0  0  0  0  0  0  0  0  0  0  0
  176.4590   23.2970   52.7920 H   0  0  0  0  0  0  0  0  0  0  0  0
  175.5133   20.5550   49.4994 H   0  0  0  0  0  0  0  0  0  0  0  0
  177.4052   19.7143   48.1320 H   0  0  0  0  0  0  0  0  0  0  0  0
  180.6919   21.3386   48.5486 H   0  0  0  0  0  0  0  0  0  0  0  0
  180.0938   19.6878   48.1878 H   0  0  0  0  0  0  0  0  0  0  0  0
  181.9789   21.3791   46.4575 H   0  0  0  0  0  0  0  0  0  0  0  0
  182.4017   19.8989   47.4070 H   0  0  0  0  0  0  0  0  0  0  0  0
  182.0937   19.4755   44.9461 H   0  0  0  0  0  0  0  0  0  0  0  0
  180.9860   18.5248   46.0112 H   0  0  0  0  0  0  0  0  0  0  0  0
  180.3142   21.0481   44.4260 H   0  0  0  0  0  0  0  0  0  0  0  0
  179.7099   19.3649   44.1440 H   0  0  0  0  0  0  0  0  0  0  0  0
  178.0404   20.8358   45.3107 H   0  0  0  0  0  0  0  0  0  0  0  0
  178.5058   19.3886   46.2621 H   0  0  0  0  0  0  0  0  0  0  0  0
  1  2  1  0
  2  3  1  0
  3  4  2  0
  4  5  1  0
  5  6  1  0
  6  7  1  0
  7  8  1  0
  8  9  2  0
  9 10  1  0
 10 11  2  0
 11 12  1  0
 12 13  1  0
 12 14  2  0
 14 15  1  0
 15 16  2  0
 15 17  1  0
 17 18  1  0
  5 19  2  0
 19 20  1  0
 20 21  2  0
 21 22  1  0
 22 23  1  0
 23 24  1  0
 24 25  1  0
 25 26  1  0
 26 27  1  0
 21  3  1  0
 27 22  1  0
 17  6  2  0
 14  8  1  0
  1 28  1  0
  1 29  1  0
  1 30  1  0
  2 31  1  0
  2 32  1  0
  4 33  1  0
  9 34  1  0
 10 35  1  0
 11 36  1  0
 13 37  1  0
 18 38  1  0
 19 39  1  0
 20 40  1  0
 23 41  1  0
 23 42  1  0
 24 43  1  0
 24 44  1  0
 25 45  1  0
 25 46  1  0
 26 47  1  0
 26 48  1  0
 27 49  1  0
 27 50  1  0
M  END
>  <meeko>  (8) 
{"is_sidechain": [false], "free_energy": -7.329, "intermolecular_energy": -8.685, "internal_energy": -0.902}

$$$$
cand_029_out
     RDKit          3D

 50 53  0  0  0  0  0  0  0  0999 V2000
  173.2950   24.6620   49.6140 C   0  0  0  0  0  0  0  0  0  0  0  0
  174.6920   25.2260   49.8280 C   0  0  0  0  0  0  0  0  0  0  0  0
  175.6620   24.1710   50.3120 C   0  0  0  0  0  0  0  0  0  0  0  0
  176.3780   23.4200   49.3600 C   0  0  0  0  0  0  0  0  0  0  0  0
  177.2740   22.4110   49.7410 C   0  0  0  0  0  0  0  0  0  0  0  0
  178.0270   21.6670   48.7100 C   0  0  0  0  0  0  0  0  0  0  0  0
  179.3320   22.1210   48.5600 O   0  0  0  0  0  0  0  0  0  0  0  0
  180.1440   21.5190   47.6330 C   0  0  0  0  0  0  0  0  0  0  0  0
  181.4490   22.0000   47.5250 C   0  0  0  0  0  0  0  0  0  0  0  0
  182.3270   21.4320   46.6000 C   0  0  0  0  0  0  0  0  0  0  0  0
  181.8990   20.3840   45.7810 C   0  0  0  0  0  0  0  0  0  0  0  0
  180.5950   19.9060   45.8910 C   0  0  0  0  0  0  0  0  0  0  0  0
  180.2430   18.8790   45.0590 O   0  0  0  0  0  0  0  0  0  0  0  0
  179.7180   20.4750   46.8180 C   0  0  0  0  0  0  0  0  0  0  0  0
  178.3400   20.0030   46.9650 C   0  0  0  0  0  0  0  0  0  0  0  0
  177.8880   19.0900   46.2770 O   0  0  0  0  0  0  0  0  0  0  0  0
  177.4930   20.6690   47.9810 C   0  0  0  0  0  0  0  0  0  0  0  0
  176.1890   20.2240   48.1010 O   0  0  0  0  0  0  0  0  0  0  0  0
  177.4580   22.1720   51.1060 C   0  0  0  0  0  0  0  0  0  0  0  0
  176.7480   22.9040   52.0620 C   0  0  0  0  0  0  0  0  0  0  0  0
  175.8380   23.9030   51.6850 C   0  0  0  0  0  0  0  0  0  0  0  0
  175.1140   24.6530   52.6370 N   0  0  0  0  0  0  0  0  0  0  0  0
  174.2890   23.8240   53.5300 C   0  0  0  0  0  0  0  0  0  0  0  0
  173.3690   24.7360   54.3440 C   0  0  0  0  0  0  0  0  0  0  0  0
  174.1710   25.7870   55.1070 C   0  0  0  0  0  0  0  0  0  0  0  0
  175.0950   26.5590   54.1660 C   0  0  0  0  0  0  0  0  0  0  0  0
  175.9740   25.6120   53.3480 C   0  0  0  0  0  0  0  0  0  0  0  0
  172.8231   24.4715   50.5892 H   0  0  0  0  0  0  0  0  0  0  0  0
  172.6898   25.3862   49.0490 H   0  0  0  0  0  0  0  0  0  0  0  0
  173.3622   23.7206   49.0490 H   0  0  0  0  0  0  0  0  0  0  0  0
  175.0592   25.6356   48.8754 H   0  0  0  0  0  0  0  0  0  0  0  0
  174.6280   26.0076   50.5994 H   0  0  0  0  0  0  0  0  0  0  0  0
  176.2307   23.6302   48.2904 H   0  0  0  0  0  0  0  0  0  0  0  0
  181.7860   22.8262   48.1682 H   0  0  0  0  0  0  0  0  0  0  0  0
  183.3566   21.8099   46.5159 H   0  0  0  0  0  0  0  0  0  0  0  0
  182.5901   19.9373   45.0510 H   0  0  0  0  0  0  0  0  0  0  0  0
  180.6520   18.7930   44.2200 H   0  0  0  0  0  0  0  0  0  0  0  0
  175.4980   20.8370   48.2610 H   0  0  0  0  0  0  0  0  0  0  0  0
  178.1697   21.3990   51.4315 H   0  0  0  0  0  0  0  0  0  0  0  0
  176.9057   22.6928   53.1299 H   0  0  0  0  0  0  0  0  0  0  0  0
  173.6832   23.1274   52.9319 H   0  0  0  0  0  0  0  0  0  0  0  0
  174.9366   23.2479   54.2073 H   0  0  0  0  0  0  0  0  0  0  0  0
  172.6705   25.2427   53.6618 H   0  0  0  0  0  0  0  0  0  0  0  0
  172.8207   24.1193   55.0714 H   0  0  0  0  0  0  0  0  0  0  0  0
  173.4759   26.4916   55.5870 H   0  0  0  0  0  0  0  0  0  0  0  0
  174.7864   25.2779   55.8634 H   0  0  0  0  0  0  0  0  0  0  0  0
  174.4835   27.1628   53.4794 H   0  0  0  0  0  0  0  0  0  0  0  0
  175.7494   27.2019   54.7730 H   0  0  0  0  0  0  0  0  0  0  0  0
  176.5613   26.1908   52.6199 H   0  0  0  0  0  0  0  0  0  0  0  0
  176.6595   25.0710   54.0169 H   0  0  0  0  0  0  0  0  0  0  0  0
  1  2  1  0
  2  3  1  0
  3  4  2  0
  4  5  1  0
  5  6  1  0
  6  7  1  0
  7  8  1  0
  8  9  2  0
  9 10  1  0
 10 11  2  0
 11 12  1  0
 12 13  1  0
 12 14  2  0
 14 15  1  0
 15 16  2  0
 15 17  1  0
 17 18  1  0
  5 19  2  0
 19 20  1  0
 20 21  2  0
 21 22  1  0
 22 23  1  0
 23 24  1  0
 24 25  1  0
 25 26  1  0
 26 27  1  0
 21  3  1  0
 27 22  1  0
 17  6  2  0
 14  8  1  0
  1 28  1  0
  1 29  1  0
  1 30  1  0
  2 31  1  0
  2 32  1  0
  4 33  1  0
  9 34  1  0
 10 35  1  0
 11 36  1  0
 13 37  1  0
 18 38  1  0
 19 39  1  0
 20 40  1  0
 23 41  1  0
 23 42  1  0
 24 43  1  0
 24 44  1  0
 25 45  1  0
 25 46  1  0
 26 47  1  0
 26 48  1  0
 27 49  1  0
 27 50  1  0
M  END
>  <meeko>  (9) 
{"is_sidechain": [false], "free_energy": -7.311, "intermolecular_energy": -8.709, "internal_energy": -0.856}

$$$$
