cand_007_out
     RDKit          3D

 35 37  0  0  0  0  0  0  0  0999 V2000
  180.7520   22.0260   48.1060 O   0  0  0  0  0  0  0  0  0  0  0  0
  180.0230   21.2000   47.5590 C   0  0  0  0  0  0  0  0  0  0  0  0
  180.5960   20.1790   46.6520 C   0  0  0  0  0  0  0  0  0  0  0  0
  181.9630   20.2150   46.4470 O   0  0  0  0  0  0  0  0  0  0  0  0
  179.7630   19.2950   46.0720 C   0  0  0  0  0  0  0  0  0  0  0  0
  180.2200   18.2420   45.1400 C   0  0  0  0  0  0  0  0  0  0  0  0
  180.9460   18.5460   43.9830 C   0  0  0  0  0  0  0  0  0  0  0  0
  181.3850   17.5320   43.1280 C   0  0  0  0  0  0  0  0  0  0  0  0
  181.1160   16.1820   43.4100 C   0  0  0  0  0  0  0  0  0  0  0  0
  181.6050   15.1080   42.4640 C   0  0  0  0  0  0  0  0  0  0  0  0
  181.5250   15.4940   41.1600 F   0  0  0  0  0  0  0  0  0  0  0  0
  182.9120   14.7850   42.6740 F   0  0  0  0  0  0  0  0  0  0  0  0
  180.9140   13.9380   42.5510 F   0  0  0  0  0  0  0  0  0  0  0  0
  180.3980   15.8580   44.5820 C   0  0  0  0  0  0  0  0  0  0  0  0
  180.0750   14.4260   44.9400 C   0  0  0  0  0  0  0  0  0  0  0  0
  181.0870   13.7920   45.5990 F   0  0  0  0  0  0  0  0  0  0  0  0
  179.9600   16.8940   45.4300 C   0  0  0  0  0  0  0  0  0  0  0  0
  178.3870   19.2850   46.2650 O   0  0  0  0  0  0  0  0  0  0  0  0
  177.8290   20.2160   47.1040 C   0  0  0  0  0  0  0  0  0  0  0  0
  176.4440   20.1640   47.2750 C   0  0  0  0  0  0  0  0  0  0  0  0
  175.8120   21.0820   48.1150 C   0  0  0  0  0  0  0  0  0  0  0  0
  176.5620   22.0520   48.7830 C   0  0  0  0  0  0  0  0  0  0  0  0
  177.9430   22.1020   48.6100 C   0  0  0  0  0  0  0  0  0  0  0  0
  178.6160   23.0770   49.2940 O   0  0  0  0  0  0  0  0  0  0  0  0
  178.5750   21.1820   47.7700 C   0  0  0  0  0  0  0  0  0  0  0  0
  182.5490   20.0900   47.1680 H   0  0  0  0  0  0  0  0  0  0  0  0
  181.1737   19.5953   43.7439 H   0  0  0  0  0  0  0  0  0  0  0  0
  181.9494   17.7943   42.2210 H   0  0  0  0  0  0  0  0  0  0  0  0
  179.1824   14.4199   45.5828 H   0  0  0  0  0  0  0  0  0  0  0  0
  179.9112   13.8840   43.9969 H   0  0  0  0  0  0  0  0  0  0  0  0
  179.4003   16.6399   46.3422 H   0  0  0  0  0  0  0  0  0  0  0  0
  175.8522   19.4008   46.7485 H   0  0  0  0  0  0  0  0  0  0  0  0
  174.7212   21.0413   48.2510 H   0  0  0  0  0  0  0  0  0  0  0  0
  176.0630   22.7753   49.4447 H   0  0  0  0  0  0  0  0  0  0  0  0
  179.5430   23.0150   49.4080 H   0  0  0  0  0  0  0  0  0  0  0  0
  1  2  2  0
  2  3  1  0
  3  4  1  0
  3  5  2  0
  5  6  1  0
  6  7  2  0
  7  8  1  0
  8  9  2  0
  9 10  1  0
 10 11  1  0
 10 12  1  0
 10 13  1  0
  9 14  1  0
 14 15  1  0
 15 16  1  0
 14 17  2  0
  5 18  1  0
 18 19  1  0
 19 20  2  0
 20 21  1  0
 21 22  2  0
 22 23  1  0
 23 24  1  0
 23 25  2  0
 25  2  1  0
 17  6  1  0
 25 19  1  0
  4 26  1  0
  7 27  1  0
  8 28  1  0
 15 29  1  0
 15 30  1  0
 17 31  1  0
 20 32  1  0
 21 33  1  0
 22 34  1  0
 24 35  1  0
M  END
>  <meeko>  (1) 
{"is_sidechain": [false], "free_energy": -9.019, "intermolecular_energy": -11.128, "internal_energy": 0.022}

$$$$
cand_007_out
     RDKit          3D

 35 37  0  0  0  0  0  0  0  0999 V2000
  181.1730   21.8780   48.2680 O   0  0  0  0  0  0  0  0  0  0  0  0
  180.3240   21.2150   47.6770 C   0  0  0  0  0  0  0  0  0  0  0  0
  180.7140   20.0070   46.9140 C   0  0  0  0  0  0  0  0  0  0  0  0
  182.0580   19.6830   46.8910 O   0  0  0  0  0  0  0  0  0  0  0  0
  179.7530   19.3100   46.2790 C   0  0  0  0  0  0  0  0  0  0  0  0
  180.0260   18.0990   45.4770 C   0  0  0  0  0  0  0  0  0  0  0  0
  179.5180   16.8460   45.8390 C   0  0  0  0  0  0  0  0  0  0  0  0
  179.7720   15.7190   45.0550 C   0  0  0  0  0  0  0  0  0  0  0  0
  180.5380   15.8130   43.8810 C   0  0  0  0  0  0  0  0  0  0  0  0
  180.7960   14.5720   43.0530 C   0  0  0  0  0  0  0  0  0  0  0  0
  180.3750   13.4390   43.6800 F   0  0  0  0  0  0  0  0  0  0  0  0
  180.1430   14.6000   41.8580 F   0  0  0  0  0  0  0  0  0  0  0  0
  182.1090   14.3690   42.7560 F   0  0  0  0  0  0  0  0  0  0  0  0
  181.0450   17.0730   43.4940 C   0  0  0  0  0  0  0  0  0  0  0  0
  181.8780   17.2400   42.2430 C   0  0  0  0  0  0  0  0  0  0  0  0
  181.1450   17.1760   41.0950 F   0  0  0  0  0  0  0  0  0  0  0  0
  180.7810   18.1980   44.2990 C   0  0  0  0  0  0  0  0  0  0  0  0
  178.4070   19.6620   46.2870 O   0  0  0  0  0  0  0  0  0  0  0  0
  178.0160   20.7730   46.9900 C   0  0  0  0  0  0  0  0  0  0  0  0
  176.6560   21.0830   46.9770 C   0  0  0  0  0  0  0  0  0  0  0  0
  176.1900   22.2010   47.6720 C   0  0  0  0  0  0  0  0  0  0  0  0
  177.0840   23.0080   48.3780 C   0  0  0  0  0  0  0  0  0  0  0  0
  178.4410   22.6970   48.3890 C   0  0  0  0  0  0  0  0  0  0  0  0
  179.2600   23.5300   49.1000 O   0  0  0  0  0  0  0  0  0  0  0  0
  178.9060   21.5770   47.6930 C   0  0  0  0  0  0  0  0  0  0  0  0
  182.4640   19.4230   46.0870 H   0  0  0  0  0  0  0  0  0  0  0  0
  178.9117   16.7481   46.7516 H   0  0  0  0  0  0  0  0  0  0  0  0
  179.3665   14.7433   45.3609 H   0  0  0  0  0  0  0  0  0  0  0  0
  182.3776   18.2191   42.2842 H   0  0  0  0  0  0  0  0  0  0  0  0
  182.5977   16.4085   42.2171 H   0  0  0  0  0  0  0  0  0  0  0  0
  181.1767   19.1787   43.9964 H   0  0  0  0  0  0  0  0  0  0  0  0
  175.9516   20.4477   46.4201 H   0  0  0  0  0  0  0  0  0  0  0  0
  175.1177   22.4460   47.6632 H   0  0  0  0  0  0  0  0  0  0  0  0
  176.7166   23.8888   48.9251 H   0  0  0  0  0  0  0  0  0  0  0  0
  178.8940   24.2250   49.6090 H   0  0  0  0  0  0  0  0  0  0  0  0
  1  2  2  0
  2  3  1  0
  3  4  1  0
  3  5  2  0
  5  6  1  0
  6  7  2  0
  7  8  1  0
  8  9  2  0
  9 10  1  0
 10 11  1  0
 10 12  1  0
 10 13  1  0
  9 14  1  0
 14 15  1  0
 15 16  1  0
 14 17  2  0
  5 18  1  0
 18 19  1  0
 19 20  2  0
 20 21  1  0
 21 22  2  0
 22 23  1  0
 23 24  1  0
 23 25  2  0
 25  2  1  0
 17  6  1  0
 25 19  1  0
  4 26  1  0
  7 27  1  0
  8 28  1  0
 15 29  1  0
 15 30  1  0
 17 31  1  0
 20 32  1  0
 21 33  1  0
 22 34  1  0
 24 35  1  0
M  END
>  <meeko>  (2) 
{"is_sidechain": [false], "free_energy": -7.75, "intermolecular_energy": -9.164, "internal_energy": -0.377}

$$$$
cand_007_out
     RDKit          3D

 35 37  0  0  0  0  0  0  0  0999 V2000
  182.5950   18.2230   43.6770 O   0  0  0  0  0  0  0  0  0  0  0  0
  181.5680   17.9530   44.2960 C   0  0  0  0  0  0  0  0  0  0  0  0
  180.8650   18.9980   45.0760 C   0  0  0  0  0  0  0  0  0  0  0  0
  181.4240   20.2630   45.0810 O   0  0  0  0  0  0  0  0  0  0  0  0
  179.7450   18.6600   45.7410 C   0  0  0  0  0  0  0  0  0  0  0  0
  178.9690   19.6150   46.5610 C   0  0  0  0  0  0  0  0  0  0  0  0
  179.5940   20.5980   47.3360 C   0  0  0  0  0  0  0  0  0  0  0  0
  178.8400   21.5030   48.0860 C   0  0  0  0  0  0  0  0  0  0  0  0
  177.4360   21.4540   48.0780 C   0  0  0  0  0  0  0  0  0  0  0  0
  176.6470   22.4490   48.9020 C   0  0  0  0  0  0  0  0  0  0  0  0
  176.0130   21.8600   49.9530 F   0  0  0  0  0  0  0  0  0  0  0  0
  177.4370   23.4190   49.4410 F   0  0  0  0  0  0  0  0  0  0  0  0
  175.6800   23.1030   48.2010 F   0  0  0  0  0  0  0  0  0  0  0  0
  176.7890   20.4780   47.2890 C   0  0  0  0  0  0  0  0  0  0  0  0
  175.2830   20.3730   47.2380 C   0  0  0  0  0  0  0  0  0  0  0  0
  174.7500   19.7250   48.3150 F   0  0  0  0  0  0  0  0  0  0  0  0
  177.5670   19.5720   46.5410 C   0  0  0  0  0  0  0  0  0  0  0  0
  179.2060   17.3780   45.7500 O   0  0  0  0  0  0  0  0  0  0  0  0
  179.8320   16.3910   45.0330 C   0  0  0  0  0  0  0  0  0  0  0  0
  179.2530   15.1210   45.0640 C   0  0  0  0  0  0  0  0  0  0  0  0
  179.8390   14.0710   44.3560 C   0  0  0  0  0  0  0  0  0  0  0  0
  181.0040   14.2880   43.6190 C   0  0  0  0  0  0  0  0  0  0  0  0
  181.5810   15.5550   43.5900 C   0  0  0  0  0  0  0  0  0  0  0  0
  182.7220   15.6980   42.8480 O   0  0  0  0  0  0  0  0  0  0  0  0
  180.9930   16.6070   44.2980 C   0  0  0  0  0  0  0  0  0  0  0  0
  182.0690   20.4880   45.7230 H   0  0  0  0  0  0  0  0  0  0  0  0
  180.6922   20.6587   47.3547 H   0  0  0  0  0  0  0  0  0  0  0  0
  179.3526   22.2650   48.6916 H   0  0  0  0  0  0  0  0  0  0  0  0
  174.8633   21.3890   47.1990 H   0  0  0  0  0  0  0  0  0  0  0  0
  175.0276   19.7844   46.3445 H   0  0  0  0  0  0  0  0  0  0  0  0
  177.0624   18.8122   45.9261 H   0  0  0  0  0  0  0  0  0  0  0  0
  178.3357   14.9482   45.6460 H   0  0  0  0  0  0  0  0  0  0  0  0
  179.3820   13.0707   44.3788 H   0  0  0  0  0  0  0  0  0  0  0  0
  181.4658   13.4595   43.0619 H   0  0  0  0  0  0  0  0  0  0  0  0
  183.4250   16.2270   43.1680 H   0  0  0  0  0  0  0  0  0  0  0  0
  1  2  2  0
  2  3  1  0
  3  4  1  0
  3  5  2  0
  5  6  1  0
  6  7  2  0
  7  8  1  0
  8  9  2  0
  9 10  1  0
 10 11  1  0
 10 12  1  0
 10 13  1  0
  9 14  1  0
 14 15  1  0
 15 16  1  0
 14 17  2  0
  5 18  1  0
 18 19  1  0
 19 20  2  0
 20 21  1  0
 21 22  2  0
 22 23  1  0
 23 24  1  0
 23 25  2  0
 25  2  1  0
 17  6  1  0
 25 19  1  0
  4 26  1  0
  7 27  1  0
  8 28  1  0
 15 29  1  0
 15 30  1  0
 17 31  1  0
 20 32  1  0
 21 33  1  0
 22 34  1  0
 24 35  1  0
M  END
>  <meeko>  (3) 
{"is_sidechain": [false], "free_energy": -7.592, "intermolecular_energy": -9.219, "internal_energy": -0.126}

$$$$
cand_007_out
     RDKit          3D

 35 37  0  0  0  0  0  0  0  0999 V2000
  174.9980   20.0700   47.5930 O   0  0  0  0  0  0  0  0  0  0  0  0
  176.1900   20.2580   47.3580 C   0  0  0  0  0  0  0  0  0  0  0  0
  176.9750   19.2450   46.6150 C   0  0  0  0  0  0  0  0  0  0  0  0
  176.3120   18.0960   46.2230 O   0  0  0  0  0  0  0  0  0  0  0  0
  178.2780   19.4880   46.3810 C   0  0  0  0  0  0  0  0  0  0  0  0
  179.1620   18.5450   45.6620 C   0  0  0  0  0  0  0  0  0  0  0  0
  180.2420   18.9890   44.8920 C   0  0  0  0  0  0  0  0  0  0  0  0
  181.0760   18.0780   44.2390 C   0  0  0  0  0  0  0  0  0  0  0  0
  180.8560   16.6940   44.3430 C   0  0  0  0  0  0  0  0  0  0  0  0
  181.7770   15.7340   43.6230 C   0  0  0  0  0  0  0  0  0  0  0  0
  181.2190   15.2420   42.4820 F   0  0  0  0  0  0  0  0  0  0  0  0
  182.9450   16.3210   43.2420 F   0  0  0  0  0  0  0  0  0  0  0  0
  182.1310   14.6480   44.3650 F   0  0  0  0  0  0  0  0  0  0  0  0
  179.7790   16.2300   45.1290 C   0  0  0  0  0  0  0  0  0  0  0  0
  179.4880   14.7540   45.2800 C   0  0  0  0  0  0  0  0  0  0  0  0
  179.0610   14.1680   44.1250 F   0  0  0  0  0  0  0  0  0  0  0  0
  178.9470   17.1640   45.7780 C   0  0  0  0  0  0  0  0  0  0  0  0
  178.9410   20.6350   46.8030 O   0  0  0  0  0  0  0  0  0  0  0  0
  178.2370   21.5930   47.4880 C   0  0  0  0  0  0  0  0  0  0  0  0
  178.9400   22.7310   47.8850 C   0  0  0  0  0  0  0  0  0  0  0  0
  178.2840   23.7450   48.5870 C   0  0  0  0  0  0  0  0  0  0  0  0
  176.9280   23.6200   48.8920 C   0  0  0  0  0  0  0  0  0  0  0  0
  176.2290   22.4830   48.4950 C   0  0  0  0  0  0  0  0  0  0  0  0
  174.9030   22.4260   48.8270 O   0  0  0  0  0  0  0  0  0  0  0  0
  176.8860   21.4690   47.7920 C   0  0  0  0  0  0  0  0  0  0  0  0
  176.5720   17.2640   46.5680 H   0  0  0  0  0  0  0  0  0  0  0  0
  180.4369   20.0676   44.7995 H   0  0  0  0  0  0  0  0  0  0  0  0
  181.9169   18.4494   43.6348 H   0  0  0  0  0  0  0  0  0  0  0  0
  180.4080   14.2485   45.6087 H   0  0  0  0  0  0  0  0  0  0  0  0
  178.6758   14.6553   46.0153 H   0  0  0  0  0  0  0  0  0  0  0  0
  178.1085   16.8011   46.3905 H   0  0  0  0  0  0  0  0  0  0  0  0
  180.0091   22.8295   47.6456 H   0  0  0  0  0  0  0  0  0  0  0  0
  178.8369   24.6430   48.8997 H   0  0  0  0  0  0  0  0  0  0  0  0
  176.4120   24.4185   49.4453 H   0  0  0  0  0  0  0  0  0  0  0  0
  174.3840   23.2050   48.8180 H   0  0  0  0  0  0  0  0  0  0  0  0
  1  2  2  0
  2  3  1  0
  3  4  1  0
  3  5  2  0
  5  6  1  0
  6  7  2  0
  7  8  1  0
  8  9  2  0
  9 10  1  0
 10 11  1  0
 10 12  1  0
 10 13  1  0
  9 14  1  0
 14 15  1  0
 15 16  1  0
 14 17  2  0
  5 18  1  0
 18 19  1  0
 19 20  2  0
 20 21  1  0
 21 22  2  0
 22 23  1  0
 23 24  1  0
 23 25  2  0
 25  2  1  0
 17  6  1  0
 25 19  1  0
  4 26  1  0
  7 27  1  0
  8 28  1  0
 15 29  1  0
 15 30  1  0
 17 31  1  0
 20 32  1  0
 21 33  1  0
 22 34  1  0
 24 35  1  0
M  END
>  <meeko>  (4) 
{"is_sidechain": [false], "free_energy": -6.926, "intermolecular_energy": -8.626, "internal_energy": 0.101}

$$$$
