cand_046_out
     RDKit          3D

 39 41  0  0  0  0  0  0  0  0999 V2000
  178.9960   13.6640   45.0390 C   0  0  0  0  0  0  0  0  0  0  0  0
  180.2300   14.1620   44.8870 C   0  0  0  0  0  0  0  0  0  0  0  0
  180.4990   15.5840   44.6280 C   0  0  0  0  0  0  0  0  0  0  0  0
  179.8840   16.5540   45.4420 C   0  0  0  0  0  0  0  0  0  0  0  0
  180.1270   17.9250   45.2690 C   0  0  0  0  0  0  0  0  0  0  0  0
  179.4350   18.9090   46.1280 C   0  0  0  0  0  0  0  0  0  0  0  0
  178.0520   18.7630   46.1100 O   0  0  0  0  0  0  0  0  0  0  0  0
  177.2860   19.6120   46.8660 C   0  0  0  0  0  0  0  0  0  0  0  0
  175.9030   19.4380   46.8060 C   0  0  0  0  0  0  0  0  0  0  0  0
  175.0630   20.2690   47.5540 C   0  0  0  0  0  0  0  0  0  0  0  0
  175.6080   21.2690   48.3610 C   0  0  0  0  0  0  0  0  0  0  0  0
  176.9890   21.4400   48.4190 C   0  0  0  0  0  0  0  0  0  0  0  0
  177.4540   22.4400   49.2280 O   0  0  0  0  0  0  0  0  0  0  0  0
  177.8270   20.6100   47.6690 C   0  0  0  0  0  0  0  0  0  0  0  0
  179.2840   20.7550   47.7010 C   0  0  0  0  0  0  0  0  0  0  0  0
  179.8370   21.6090   48.3910 O   0  0  0  0  0  0  0  0  0  0  0  0
  180.0820   19.8300   46.8660 C   0  0  0  0  0  0  0  0  0  0  0  0
  181.4570   19.9660   46.9140 O   0  0  0  0  0  0  0  0  0  0  0  0
  181.0000   18.3210   44.2520 C   0  0  0  0  0  0  0  0  0  0  0  0
  181.6270   17.3710   43.4410 C   0  0  0  0  0  0  0  0  0  0  0  0
  181.3870   15.9970   43.6150 C   0  0  0  0  0  0  0  0  0  0  0  0
  182.1060   15.0250   42.7070 C   0  0  0  0  0  0  0  0  0  0  0  0
  181.3400   14.7780   41.4160 C   0  0  0  0  0  0  0  0  0  0  0  0
  178.8562   12.5900   45.2312 H   0  0  0  0  0  0  0  0  0  0  0  0
  178.1224   14.3290   44.9716 H   0  0  0  0  0  0  0  0  0  0  0  0
  181.0844   13.4730   44.9595 H   0  0  0  0  0  0  0  0  0  0  0  0
  179.1945   16.2284   46.2349 H   0  0  0  0  0  0  0  0  0  0  0  0
  175.4741   18.6485   46.1714 H   0  0  0  0  0  0  0  0  0  0  0  0
  173.9723   20.1345   47.5064 H   0  0  0  0  0  0  0  0  0  0  0  0
  174.9473   21.9215   48.9507 H   0  0  0  0  0  0  0  0  0  0  0  0
  177.1330   23.3140   49.1250 H   0  0  0  0  0  0  0  0  0  0  0  0
  182.0060   19.2150   46.8010 H   0  0  0  0  0  0  0  0  0  0  0  0
  181.1956   19.3910   44.0882 H   0  0  0  0  0  0  0  0  0  0  0  0
  182.3195   17.7039   42.6538 H   0  0  0  0  0  0  0  0  0  0  0  0
  183.0959   15.4359   42.4595 H   0  0  0  0  0  0  0  0  0  0  0  0
  182.1949   14.0659   43.2382 H   0  0  0  0  0  0  0  0  0  0  0  0
  180.3178   14.4484   41.6535 H   0  0  0  0  0  0  0  0  0  0  0  0
  181.2985   15.7083   40.8305 H   0  0  0  0  0  0  0  0  0  0  0  0
  181.8498   13.9987   40.8305 H   0  0  0  0  0  0  0  0  0  0  0  0
  1  2  2  0
  2  3  1  0
  3  4  2  0
  4  5  1  0
  5  6  1  0
  6  7  1  0
  7  8  1  0
  8  9  2  0
  9 10  1  0
 10 11  2  0
 11 12  1  0
 12 13  1  0
 12 14  2  0
 14 15  1  0
 15 16  2  0
 15 17  1  0
 17 18  1  0
  5 19  2  0
 19 20  1  0
 20 21  2  0
 21 22  1  0
 22 23  1  0
 21  3  1  0
 17  6  2  0
 14  8  1  0
  1 24  1  0
  1 25  1  0
  2 26  1  0
  4 27  1  0
  9 28  1  0
 10 29  1  0
 11 30  1  0
 13 31  1  0
 18 32  1  0
 19 33  1  0
 20 34  1  0
 22 35  1  0
 22 36  1  0
 23 37  1  0
 23 38  1  0
 23 39  1  0
M  END
>  <meeko>  (1) 
{"is_sidechain": [false], "free_energy": -8.189, "intermolecular_energy": -10.104, "internal_energy": -0.496}

$$$$
cand_046_out
     RDKit          3D

 39 41  0  0  0  0  0  0  0  0999 V2000
  179.0350   13.6020   45.1430 C   0  0  0  0  0  0  0  0  0  0  0  0
  180.2590   13.9880   44.7620 C   0  0  0  0  0  0  0  0  0  0  0  0
  180.5540   15.3280   44.2320 C   0  0  0  0  0  0  0  0  0  0  0  0
  180.3830   16.4450   45.0700 C   0  0  0  0  0  0  0  0  0  0  0  0
  180.6800   17.7460   44.6360 C   0  0  0  0  0  0  0  0  0  0  0  0
  180.4560   18.8930   45.5420 C   0  0  0  0  0  0  0  0  0  0  0  0
  181.5720   19.7140   45.6590 O   0  0  0  0  0  0  0  0  0  0  0  0
  181.5000   20.8190   46.4670 C   0  0  0  0  0  0  0  0  0  0  0  0
  182.6470   21.6070   46.5660 C   0  0  0  0  0  0  0  0  0  0  0  0
  182.6420   22.7490   47.3720 C   0  0  0  0  0  0  0  0  0  0  0  0
  181.4900   23.1010   48.0770 C   0  0  0  0  0  0  0  0  0  0  0  0
  180.3460   22.3130   47.9770 C   0  0  0  0  0  0  0  0  0  0  0  0
  179.2530   22.7160   48.6950 O   0  0  0  0  0  0  0  0  0  0  0  0
  180.3530   21.1710   47.1720 C   0  0  0  0  0  0  0  0  0  0  0  0
  179.1730   20.3150   47.0380 C   0  0  0  0  0  0  0  0  0  0  0  0
  178.1200   20.5620   47.6230 O   0  0  0  0  0  0  0  0  0  0  0  0
  179.2850   19.1240   46.1650 C   0  0  0  0  0  0  0  0  0  0  0  0
  178.1610   18.3310   46.0350 O   0  0  0  0  0  0  0  0  0  0  0  0
  181.1500   17.9190   43.3310 C   0  0  0  0  0  0  0  0  0  0  0  0
  181.3340   16.8200   42.4890 C   0  0  0  0  0  0  0  0  0  0  0  0
  181.0400   15.5160   42.9240 C   0  0  0  0  0  0  0  0  0  0  0  0
  181.2720   14.3720   41.9620 C   0  0  0  0  0  0  0  0  0  0  0  0
  181.0250   14.7830   40.5170 C   0  0  0  0  0  0  0  0  0  0  0  0
  178.8751   12.5857   45.5322 H   0  0  0  0  0  0  0  0  0  0  0  0
  178.1892   14.3012   45.0669 H   0  0  0  0  0  0  0  0  0  0  0  0
  181.0852   13.2671   44.8497 H   0  0  0  0  0  0  0  0  0  0  0  0
  180.0065   16.2946   46.0926 H   0  0  0  0  0  0  0  0  0  0  0  0
  183.5548   21.3298   46.0101 H   0  0  0  0  0  0  0  0  0  0  0  0
  183.5462   23.3704   47.4507 H   0  0  0  0  0  0  0  0  0  0  0  0
  181.4856   23.9999   48.7110 H   0  0  0  0  0  0  0  0  0  0  0  0
  179.3250   23.4310   49.2950 H   0  0  0  0  0  0  0  0  0  0  0  0
  177.9550   17.9420   45.2070 H   0  0  0  0  0  0  0  0  0  0  0  0
  181.3772   18.9306   42.9636 H   0  0  0  0  0  0  0  0  0  0  0  0
  181.7151   16.9773   41.4692 H   0  0  0  0  0  0  0  0  0  0  0  0
  182.3129   14.0302   42.0611 H   0  0  0  0  0  0  0  0  0  0  0  0
  180.5638   13.5684   42.2125 H   0  0  0  0  0  0  0  0  0  0  0  0
  180.4585   15.7257   40.4956 H   0  0  0  0  0  0  0  0  0  0  0  0
  181.9888   14.9228   40.0057 H   0  0  0  0  0  0  0  0  0  0  0  0
  180.4492   13.9975   40.0057 H   0  0  0  0  0  0  0  0  0  0  0  0
  1  2  2  0
  2  3  1  0
  3  4  2  0
  4  5  1  0
  5  6  1  0
  6  7  1  0
  7  8  1  0
  8  9  2  0
  9 10  1  0
 10 11  2  0
 11 12  1  0
 12 13  1  0
 12 14  2  0
 14 15  1  0
 15 16  2  0
 15 17  1  0
 17 18  1  0
  5 19  2  0
 19 20  1  0
 20 21  2  0
 21 22  1  0
 22 23  1  0
 21  3  1  0
 17  6  2  0
 14  8  1  0
  1 24  1  0
  1 25  1  0
  2 26  1  0
  4 27  1  0
  9 28  1  0
 10 29  1  0
 11 30  1  0
 13 31  1  0
 18 32  1  0
 19 33  1  0
 20 34  1  0
 22 35  1  0
 22 36  1  0
 23 37  1  0
 23 38  1  0
 23 39  1  0
M  END
>  <meeko>  (2) 
{"is_sidechain": [false], "free_energy": -7.582, "intermolecular_energy": -9.472, "internal_energy": -0.38}

$$$$
cand_046_out
     RDKit          3D

 39 41  0  0  0  0  0  0  0  0999 V2000
  175.4570   18.1760   46.9230 C   0  0  0  0  0  0  0  0  0  0  0  0
  176.5260   18.7920   46.4040 C   0  0  0  0  0  0  0  0  0  0  0  0
  177.3220   19.7840   47.1420 C   0  0  0  0  0  0  0  0  0  0  0  0
  176.7020   20.5390   48.1550 C   0  0  0  0  0  0  0  0  0  0  0  0
  177.4140   21.4750   48.9190 C   0  0  0  0  0  0  0  0  0  0  0  0
  176.7140   22.2680   49.9530 C   0  0  0  0  0  0  0  0  0  0  0  0
  175.7200   23.0840   49.4250 O   0  0  0  0  0  0  0  0  0  0  0  0
  174.9890   23.8730   50.2760 C   0  0  0  0  0  0  0  0  0  0  0  0
  174.0120   24.6870   49.7020 C   0  0  0  0  0  0  0  0  0  0  0  0
  173.2300   25.5140   50.5120 C   0  0  0  0  0  0  0  0  0  0  0  0
  173.4250   25.5250   51.8950 C   0  0  0  0  0  0  0  0  0  0  0  0
  174.4000   24.7120   52.4650 C   0  0  0  0  0  0  0  0  0  0  0  0
  174.5390   24.7730   53.8250 O   0  0  0  0  0  0  0  0  0  0  0  0
  175.1830   23.8860   51.6530 C   0  0  0  0  0  0  0  0  0  0  0  0
  176.2190   23.0150   52.2120 C   0  0  0  0  0  0  0  0  0  0  0  0
  176.4460   22.9650   53.4190 O   0  0  0  0  0  0  0  0  0  0  0  0
  176.9980   22.1830   51.2660 C   0  0  0  0  0  0  0  0  0  0  0  0
  177.9640   21.3540   51.8050 O   0  0  0  0  0  0  0  0  0  0  0  0
  178.7740   21.6570   48.6480 C   0  0  0  0  0  0  0  0  0  0  0  0
  179.4070   20.9090   47.6530 C   0  0  0  0  0  0  0  0  0  0  0  0
  178.6950   19.9680   46.8890 C   0  0  0  0  0  0  0  0  0  0  0  0
  179.4470   19.1880   45.8330 C   0  0  0  0  0  0  0  0  0  0  0  0
  180.3750   20.0780   45.0190 C   0  0  0  0  0  0  0  0  0  0  0  0
  174.8998   17.4418   46.3225 H   0  0  0  0  0  0  0  0  0  0  0  0
  175.1356   18.4039   47.9500 H   0  0  0  0  0  0  0  0  0  0  0  0
  176.8238   18.5439   45.3745 H   0  0  0  0  0  0  0  0  0  0  0  0
  175.6301   20.3910   48.3528 H   0  0  0  0  0  0  0  0  0  0  0  0
  173.8576   24.6776   48.6129 H   0  0  0  0  0  0  0  0  0  0  0  0
  172.4602   26.1569   50.0603 H   0  0  0  0  0  0  0  0  0  0  0  0
  172.8086   26.1755   52.5329 H   0  0  0  0  0  0  0  0  0  0  0  0
  174.8870   24.0400   54.2930 H   0  0  0  0  0  0  0  0  0  0  0  0
  178.3900   20.7180   51.2640 H   0  0  0  0  0  0  0  0  0  0  0  0
  179.3503   22.3961   49.2239 H   0  0  0  0  0  0  0  0  0  0  0  0
  180.4803   21.0586   47.4640 H   0  0  0  0  0  0  0  0  0  0  0  0
  180.0456   18.4082   46.3266 H   0  0  0  0  0  0  0  0  0  0  0  0
  178.7091   18.7483   45.1458 H   0  0  0  0  0  0  0  0  0  0  0  0
  180.9990   20.6764   45.6991 H   0  0  0  0  0  0  0  0  0  0  0  0
  181.0201   19.4522   44.3847 H   0  0  0  0  0  0  0  0  0  0  0  0
  179.7767   20.7487   44.3847 H   0  0  0  0  0  0  0  0  0  0  0  0
  1  2  2  0
  2  3  1  0
  3  4  2  0
  4  5  1  0
  5  6  1  0
  6  7  1  0
  7  8  1  0
  8  9  2  0
  9 10  1  0
 10 11  2  0
 11 12  1  0
 12 13  1  0
 12 14  2  0
 14 15  1  0
 15 16  2  0
 15 17  1  0
 17 18  1  0
  5 19  2  0
 19 20  1  0
 20 21  2  0
 21 22  1  0
 22 23  1  0
 21  3  1  0
 17  6  2  0
 14  8  1  0
  1 24  1  0
  1 25  1  0
  2 26  1  0
  4 27  1  0
  9 28  1  0
 10 29  1  0
 11 30  1  0
 13 31  1  0
 18 32  1  0
 19 33  1  0
 20 34  1  0
 22 35  1  0
 22 36  1  0
 23 37  1  0
 23 38  1  0
 23 39  1  0
M  END
>  <meeko>  (3) 
{"is_sidechain": [false], "free_energy": -7.436, "intermolecular_energy": -9.137, "internal_energy": -0.534}

$$$$
cand_046_out
     RDKit          3D

 39 41  0  0  0  0  0  0  0  0999 V2000
  175.2270   18.5570   46.8840 C   0  0  0  0  0  0  0  0  0  0  0  0
  175.9740   19.0590   47.8760 C   0  0  0  0  0  0  0  0  0  0  0  0
  176.0600   20.4960   48.1730 C   0  0  0  0  0  0  0  0  0  0  0  0
  175.2870   21.0230   49.2240 C   0  0  0  0  0  0  0  0  0  0  0  0
  175.3510   22.3790   49.5800 C   0  0  0  0  0  0  0  0  0  0  0  0
  174.4970   22.8940   50.6720 C   0  0  0  0  0  0  0  0  0  0  0  0
  175.2230   23.2420   51.8050 O   0  0  0  0  0  0  0  0  0  0  0  0
  174.5540   23.7380   52.8940 C   0  0  0  0  0  0  0  0  0  0  0  0
  175.3200   24.0610   54.0150 C   0  0  0  0  0  0  0  0  0  0  0  0
  174.7010   24.5730   55.1590 C   0  0  0  0  0  0  0  0  0  0  0  0
  173.3190   24.7620   55.1800 C   0  0  0  0  0  0  0  0  0  0  0  0
  172.5560   24.4380   54.0600 C   0  0  0  0  0  0  0  0  0  0  0  0
  171.2060   24.6480   54.1500 O   0  0  0  0  0  0  0  0  0  0  0  0
  173.1760   23.9250   52.9170 C   0  0  0  0  0  0  0  0  0  0  0  0
  172.4120   23.5730   51.7190 C   0  0  0  0  0  0  0  0  0  0  0  0
  171.1930   23.7160   51.6590 O   0  0  0  0  0  0  0  0  0  0  0  0
  173.1630   23.0310   50.5630 C   0  0  0  0  0  0  0  0  0  0  0  0
  172.4340   22.7150   49.4320 O   0  0  0  0  0  0  0  0  0  0  0  0
  176.2040   23.2160   48.8550 C   0  0  0  0  0  0  0  0  0  0  0  0
  176.9860   22.7070   47.8140 C   0  0  0  0  0  0  0  0  0  0  0  0
  176.9260   21.3490   47.4590 C   0  0  0  0  0  0  0  0  0  0  0  0
  177.8060   20.8650   46.3280 C   0  0  0  0  0  0  0  0  0  0  0  0
  179.2300   20.5930   46.7900 C   0  0  0  0  0  0  0  0  0  0  0  0
  175.2023   17.4712   46.7095 H   0  0  0  0  0  0  0  0  0  0  0  0
  174.6383   19.2305   46.2439 H   0  0  0  0  0  0  0  0  0  0  0  0
  176.5520   18.3610   48.4995 H   0  0  0  0  0  0  0  0  0  0  0  0
  174.6146   20.3543   49.7815 H   0  0  0  0  0  0  0  0  0  0  0  0
  176.4099   23.9128   53.9983 H   0  0  0  0  0  0  0  0  0  0  0  0
  175.3040   24.8270   56.0432 H   0  0  0  0  0  0  0  0  0  0  0  0
  172.8322   25.1663   56.0797 H   0  0  0  0  0  0  0  0  0  0  0  0
  170.7870   24.6450   54.9870 H   0  0  0  0  0  0  0  0  0  0  0  0
  172.8650   22.6430   48.6030 H   0  0  0  0  0  0  0  0  0  0  0  0
  176.2605   24.2855   49.1060 H   0  0  0  0  0  0  0  0  0  0  0  0
  177.6593   23.3808   47.2638 H   0  0  0  0  0  0  0  0  0  0  0  0
  177.3813   19.9358   45.9203 H   0  0  0  0  0  0  0  0  0  0  0  0
  177.8419   21.6551   45.5635 H   0  0  0  0  0  0  0  0  0  0  0  0
  179.2638   20.5865   47.8895 H   0  0  0  0  0  0  0  0  0  0  0  0
  179.5593   19.6157   46.4073 H   0  0  0  0  0  0  0  0  0  0  0  0
  179.8963   21.3801   46.4073 H   0  0  0  0  0  0  0  0  0  0  0  0
  1  2  2  0
  2  3  1  0
  3  4  2  0
  4  5  1  0
  5  6  1  0
  6  7  1  0
  7  8  1  0
  8  9  2  0
  9 10  1  0
 10 11  2  0
 11 12  1  0
 12 13  1  0
 12 14  2  0
 14 15  1  0
 15 16  2  0
 15 17  1  0
 17 18  1  0
  5 19  2  0
 19 20  1  0
 20 21  2  0
 21 22  1  0
 22 23  1  0
 21  3  1  0
 17  6  2  0
 14  8  1  0
  1 24  1  0
  1 25  1  0
  2 26  1  0
  4 27  1  0
  9 28  1  0
 10 29  1  0
 11 30  1  0
 13 31  1  0
 18 32  1  0
 19 33  1  0
 20 34  1  0
 22 35  1  0
 22 36  1  0
 23 37  1  0
 23 38  1  0
 23 39  1  0
M  END
>  <meeko>  (4) 
{"is_sidechain": [false], "free_energy": -7.377, "intermolecular_energy": -9.08, "internal_energy": -0.518}

$$$$
cand_046_out
     RDKit          3D

 39 41  0  0  0  0  0  0  0  0999 V2000
  179.2470   23.8360   47.8200 C   0  0  0  0  0  0  0  0  0  0  0  0
  177.9870   23.7690   47.3720 C   0  0  0  0  0  0  0  0  0  0  0  0
  176.9840   22.8470   47.9250 C   0  0  0  0  0  0  0  0  0  0  0  0
  176.1550   23.2890   48.9730 C   0  0  0  0  0  0  0  0  0  0  0  0
  175.1550   22.4710   49.5190 C   0  0  0  0  0  0  0  0  0  0  0  0
  174.3280   22.9670   50.6400 C   0  0  0  0  0  0  0  0  0  0  0  0
  175.0850   23.3410   51.7450 O   0  0  0  0  0  0  0  0  0  0  0  0
  174.4430   23.8230   52.8560 C   0  0  0  0  0  0  0  0  0  0  0  0
  175.2400   24.1730   53.9460 C   0  0  0  0  0  0  0  0  0  0  0  0
  174.6500   24.6730   55.1100 C   0  0  0  0  0  0  0  0  0  0  0  0
  173.2640   24.8230   55.1810 C   0  0  0  0  0  0  0  0  0  0  0  0
  172.4700   24.4730   54.0920 C   0  0  0  0  0  0  0  0  0  0  0  0
  171.1190   24.6450   54.2300 O   0  0  0  0  0  0  0  0  0  0  0  0
  173.0620   23.9720   52.9290 C   0  0  0  0  0  0  0  0  0  0  0  0
  172.2640   23.5920   51.7610 C   0  0  0  0  0  0  0  0  0  0  0  0
  171.0400   23.7010   51.7460 O   0  0  0  0  0  0  0  0  0  0  0  0
  172.9870   23.0660   50.5810 C   0  0  0  0  0  0  0  0  0  0  0  0
  172.2260   22.7240   49.4780 O   0  0  0  0  0  0  0  0  0  0  0  0
  174.9970   21.1810   49.0030 C   0  0  0  0  0  0  0  0  0  0  0  0
  175.8050   20.7290   47.9570 C   0  0  0  0  0  0  0  0  0  0  0  0
  176.8050   21.5500   47.4050 C   0  0  0  0  0  0  0  0  0  0  0  0
  177.6370   20.9980   46.2690 C   0  0  0  0  0  0  0  0  0  0  0  0
  178.6810   20.0050   46.7570 C   0  0  0  0  0  0  0  0  0  0  0  0
  179.9546   24.5462   47.3673 H   0  0  0  0  0  0  0  0  0  0  0  0
  179.5745   23.1809   48.6407 H   0  0  0  0  0  0  0  0  0  0  0  0
  177.6877   24.4362   46.5503 H   0  0  0  0  0  0  0  0  0  0  0  0
  176.2951   24.3034   49.3747 H   0  0  0  0  0  0  0  0  0  0  0  0
  176.3322   24.0555   53.8894 H   0  0  0  0  0  0  0  0  0  0  0  0
  175.2778   24.9484   55.9703 H   0  0  0  0  0  0  0  0  0  0  0  0
  172.7993   25.2175   56.0967 H   0  0  0  0  0  0  0  0  0  0  0  0
  170.6930   25.3620   53.8060 H   0  0  0  0  0  0  0  0  0  0  0  0
  172.6240   22.2810   48.7540 H   0  0  0  0  0  0  0  0  0  0  0  0
  174.2291   20.5158   49.4248 H   0  0  0  0  0  0  0  0  0  0  0  0
  175.6569   19.7145   47.5585 H   0  0  0  0  0  0  0  0  0  0  0  0
  176.9712   20.4911   45.5550 H   0  0  0  0  0  0  0  0  0  0  0  0
  178.1638   21.8388   45.7941 H   0  0  0  0  0  0  0  0  0  0  0  0
  178.6916   19.9949   47.8569 H   0  0  0  0  0  0  0  0  0  0  0  0
  178.4342   19.0002   46.3835 H   0  0  0  0  0  0  0  0  0  0  0  0
  179.6722   20.3018   46.3835 H   0  0  0  0  0  0  0  0  0  0  0  0
  1  2  2  0
  2  3  1  0
  3  4  2  0
  4  5  1  0
  5  6  1  0
  6  7  1  0
  7  8  1  0
  8  9  2  0
  9 10  1  0
 10 11  2  0
 11 12  1  0
 12 13  1  0
 12 14  2  0
 14 15  1  0
 15 16  2  0
 15 17  1  0
 17 18  1  0
  5 19  2  0
 19 20  1  0
 20 21  2  0
 21 22  1  0
 22 23  1  0
 21  3  1  0
 17  6  2  0
 14  8  1  0
  1 24  1  0
  1 25  1  0
  2 26  1  0
  4 27  1  0
  9 28  1  0
 10 29  1  0
 11 30  1  0
 13 31  1  0
 18 32  1  0
 19 33  1  0
 20 34  1  0
 22 35  1  0
 22 36  1  0
 23 37  1  0
 23 38  1  0
 23 39  1  0
M  END
>  <meeko>  (5) 
{"is_sidechain": [false], "free_energy": -7.311, "intermolecular_energy": -8.985, "internal_energy": -0.532}

$$$$
cand_046_out
     RDKit          3D

 39 41  0  0  0  0  0  0  0  0999 V2000
  179.5940   21.8290   46.9540 C   0  0  0  0  0  0  0  0  0  0  0  0
  178.7750   20.7730   47.0270 C   0  0  0  0  0  0  0  0  0  0  0  0
  177.5060   20.7870   47.7700 C   0  0  0  0  0  0  0  0  0  0  0  0
  177.3230   21.7400   48.7890 C   0  0  0  0  0  0  0  0  0  0  0  0
  176.1220   21.8290   49.5090 C   0  0  0  0  0  0  0  0  0  0  0  0
  175.9860   22.8260   50.5920 C   0  0  0  0  0  0  0  0  0  0  0  0
  175.5010   24.0490   50.1420 O   0  0  0  0  0  0  0  0  0  0  0  0
  175.3230   25.0650   51.0450 C   0  0  0  0  0  0  0  0  0  0  0  0
  174.8480   26.2790   50.5470 C   0  0  0  0  0  0  0  0  0  0  0  0
  174.6430   27.3560   51.4140 C   0  0  0  0  0  0  0  0  0  0  0  0
  174.9120   27.2170   52.7760 C   0  0  0  0  0  0  0  0  0  0  0  0
  175.3860   26.0040   53.2710 C   0  0  0  0  0  0  0  0  0  0  0  0
  175.6300   25.9380   54.6160 O   0  0  0  0  0  0  0  0  0  0  0  0
  175.5920   24.9290   52.4030 C   0  0  0  0  0  0  0  0  0  0  0  0
  176.0890   23.6370   52.8810 C   0  0  0  0  0  0  0  0  0  0  0  0
  176.3430   23.4360   54.0670 O   0  0  0  0  0  0  0  0  0  0  0  0
  176.2790   22.5630   51.8790 C   0  0  0  0  0  0  0  0  0  0  0  0
  176.7350   21.3430   52.3430 O   0  0  0  0  0  0  0  0  0  0  0  0
  175.0940   20.9340   49.1990 C   0  0  0  0  0  0  0  0  0  0  0  0
  175.2560   19.9880   48.1840 C   0  0  0  0  0  0  0  0  0  0  0  0
  176.4570   19.9000   47.4590 C   0  0  0  0  0  0  0  0  0  0  0  0
  176.5590   18.8570   46.3680 C   0  0  0  0  0  0  0  0  0  0  0  0
  175.4530   17.8180   46.4670 C   0  0  0  0  0  0  0  0  0  0  0  0
  180.5314   21.7596   46.3826 H   0  0  0  0  0  0  0  0  0  0  0  0
  179.3297   22.7664   47.4654 H   0  0  0  0  0  0  0  0  0  0  0  0
  179.0654   19.8490   46.5055 H   0  0  0  0  0  0  0  0  0  0  0  0
  178.1430   22.4334   49.0274 H   0  0  0  0  0  0  0  0  0  0  0  0
  174.6352   26.3882   49.4733 H   0  0  0  0  0  0  0  0  0  0  0  0
  174.2694   28.3136   51.0224 H   0  0  0  0  0  0  0  0  0  0  0  0
  174.7500   28.0644   53.4584 H   0  0  0  0  0  0  0  0  0  0  0  0
  175.7070   25.1060   55.0370 H   0  0  0  0  0  0  0  0  0  0  0  0
  177.3420   20.8450   51.8320 H   0  0  0  0  0  0  0  0  0  0  0  0
  174.1485   20.9750   49.7596 H   0  0  0  0  0  0  0  0  0  0  0  0
  174.4302   19.3007   47.9482 H   0  0  0  0  0  0  0  0  0  0  0  0
  176.4896   19.3574   45.3909 H   0  0  0  0  0  0  0  0  0  0  0  0
  177.5226   18.3390   46.4826 H   0  0  0  0  0  0  0  0  0  0  0  0
  175.2355   17.6137   47.5258 H   0  0  0  0  0  0  0  0  0  0  0  0
  174.5468   18.1990   45.9734 H   0  0  0  0  0  0  0  0  0  0  0  0
  175.7767   16.8898   45.9734 H   0  0  0  0  0  0  0  0  0  0  0  0
  1  2  2  0
  2  3  1  0
  3  4  2  0
  4  5  1  0
  5  6  1  0
  6  7  1  0
  7  8  1  0
  8  9  2  0
  9 10  1  0
 10 11  2  0
 11 12  1  0
 12 13  1  0
 12 14  2  0
 14 15  1  0
 15 16  2  0
 15 17  1  0
 17 18  1  0
  5 19  2  0
 19 20  1  0
 20 21  2  0
 21 22  1  0
 22 23  1  0
 21  3  1  0
 17  6  2  0
 14  8  1  0
  1 24  1  0
  1 25  1  0
  2 26  1  0
  4 27  1  0
  9 28  1  0
 10 29  1  0
 11 30  1  0
 13 31  1  0
 18 32  1  0
 19 33  1  0
 20 34  1  0
 22 35  1  0
 22 36  1  0
 23 37  1  0
 23 38  1  0
 23 39  1  0
M  END
>  <meeko>  (6) 
{"is_sidechain": [false], "free_energy": -7.187, "intermolecular_energy": -8.737, "internal_energy": -0.627}

$$$$
cand_046_out
     RDKit          3D

 39 41  0  0  0  0  0  0  0  0999 V2000
  176.8930   23.7530   48.3750 C   0  0  0  0  0  0  0  0  0  0  0  0
  176.8420   22.6440   47.6260 C   0  0  0  0  0  0  0  0  0  0  0  0
  178.0010   21.7660   47.4060 C   0  0  0  0  0  0  0  0  0  0  0  0
  179.2620   22.1690   47.8810 C   0  0  0  0  0  0  0  0  0  0  0  0
  180.3990   21.3610   47.7350 C   0  0  0  0  0  0  0  0  0  0  0  0
  181.7100   21.8400   48.2230 C   0  0  0  0  0  0  0  0  0  0  0  0
  182.4910   22.3950   47.2160 O   0  0  0  0  0  0  0  0  0  0  0  0
  183.7330   22.8820   47.5330 C   0  0  0  0  0  0  0  0  0  0  0  0
  184.4880   23.4180   46.4890 C   0  0  0  0  0  0  0  0  0  0  0  0
  185.7620   23.9330   46.7430 C   0  0  0  0  0  0  0  0  0  0  0  0
  186.2790   23.9120   48.0400 C   0  0  0  0  0  0  0  0  0  0  0  0
  185.5230   23.3770   49.0800 C   0  0  0  0  0  0  0  0  0  0  0  0
  186.0910   23.3870   50.3250 O   0  0  0  0  0  0  0  0  0  0  0  0
  184.2500   22.8610   48.8240 C   0  0  0  0  0  0  0  0  0  0  0  0
  183.4220   22.2890   49.8890 C   0  0  0  0  0  0  0  0  0  0  0  0
  183.8060   22.2400   51.0560 O   0  0  0  0  0  0  0  0  0  0  0  0
  182.0900   21.7630   49.5130 C   0  0  0  0  0  0  0  0  0  0  0  0
  181.3110   21.2390   50.5270 O   0  0  0  0  0  0  0  0  0  0  0  0
  180.2590   20.1290   47.0890 C   0  0  0  0  0  0  0  0  0  0  0  0
  179.0130   19.7090   46.6190 C   0  0  0  0  0  0  0  0  0  0  0  0
  177.8710   20.5160   46.7690 C   0  0  0  0  0  0  0  0  0  0  0  0
  176.5530   19.9950   46.2430 C   0  0  0  0  0  0  0  0  0  0  0  0
  175.8920   19.0300   47.2170 C   0  0  0  0  0  0  0  0  0  0  0  0
  175.9926   24.3715   48.5039 H   0  0  0  0  0  0  0  0  0  0  0  0
  177.8353   24.0454   48.8613 H   0  0  0  0  0  0  0  0  0  0  0  0
  175.8860   22.3767   47.1520 H   0  0  0  0  0  0  0  0  0  0  0  0
  179.3591   23.1442   48.3805 H   0  0  0  0  0  0  0  0  0  0  0  0
  184.0808   23.4351   45.4673 H   0  0  0  0  0  0  0  0  0  0  0  0
  186.3581   24.3553   45.9206 H   0  0  0  0  0  0  0  0  0  0  0  0
  187.2818   24.3174   48.2399 H   0  0  0  0  0  0  0  0  0  0  0  0
  186.9810   23.1190   50.4360 H   0  0  0  0  0  0  0  0  0  0  0  0
  181.4680   21.4920   51.4160 H   0  0  0  0  0  0  0  0  0  0  0  0
  181.1392   19.4841   46.9496 H   0  0  0  0  0  0  0  0  0  0  0  0
  178.9232   18.7311   46.1234 H   0  0  0  0  0  0  0  0  0  0  0  0
  175.8772   20.8461   46.0725 H   0  0  0  0  0  0  0  0  0  0  0  0
  176.7515   19.4511   45.3077 H   0  0  0  0  0  0  0  0  0  0  0  0
  176.1078   19.3451   48.2486 H   0  0  0  0  0  0  0  0  0  0  0  0
  174.8043   19.0313   47.0532 H   0  0  0  0  0  0  0  0  0  0  0  0
  176.2862   18.0162   47.0532 H   0  0  0  0  0  0  0  0  0  0  0  0
  1  2  2  0
  2  3  1  0
  3  4  2  0
  4  5  1  0
  5  6  1  0
  6  7  1  0
  7  8  1  0
  8  9  2  0
  9 10  1  0
 10 11  2  0
 11 12  1  0
 12 13  1  0
 12 14  2  0
 14 15  1  0
 15 16  2  0
 15 17  1  0
 17 18  1  0
  5 19  2  0
 19 20  1  0
 20 21  2  0
 21 22  1  0
 22 23  1  0
 21  3  1  0
 17  6  2  0
 14  8  1  0
  1 24  1  0
  1 25  1  0
  2 26  1  0
  4 27  1  0
  9 28  1  0
 10 29  1  0
 11 30  1  0
 13 31  1  0
 18 32  1  0
 19 33  1  0
 20 34  1  0
 22 35  1  0
 22 36  1  0
 23 37  1  0
 23 38  1  0
 23 39  1  0
M  END
>  <meeko>  (7) 
{"is_sidechain": [false], "free_energy": -7.151, "intermolecular_energy": -8.678, "internal_energy": -0.641}

$$$$
cand_046_out
     RDKit          3D

 39 41  0  0  0  0  0  0  0  0999 V2000
  182.3790   21.2910   47.9420 C   0  0  0  0  0  0  0  0  0  0  0  0
  181.4050   21.8710   47.2290 C   0  0  0  0  0  0  0  0  0  0  0  0
  179.9940   21.4680   47.3170 C   0  0  0  0  0  0  0  0  0  0  0  0
  179.1920   22.0070   48.3400 C   0  0  0  0  0  0  0  0  0  0  0  0
  177.8310   21.6900   48.4560 C   0  0  0  0  0  0  0  0  0  0  0  0
  177.0350   22.2570   49.5660 C   0  0  0  0  0  0  0  0  0  0  0  0
  175.9230   22.9660   49.1260 O   0  0  0  0  0  0  0  0  0  0  0  0
  175.0950   23.5430   50.0530 C   0  0  0  0  0  0  0  0  0  0  0  0
  173.9990   24.2560   49.5660 C   0  0  0  0  0  0  0  0  0  0  0  0
  173.1140   24.8690   50.4580 C   0  0  0  0  0  0  0  0  0  0  0  0
  173.3250   24.7660   51.8340 C   0  0  0  0  0  0  0  0  0  0  0  0
  174.4190   24.0530   52.3170 C   0  0  0  0  0  0  0  0  0  0  0  0
  174.5670   23.9930   53.6770 O   0  0  0  0  0  0  0  0  0  0  0  0
  175.3050   23.4430   51.4250 C   0  0  0  0  0  0  0  0  0  0  0  0
  176.4670   22.6840   51.8900 C   0  0  0  0  0  0  0  0  0  0  0  0
  176.7160   22.5450   53.0860 O   0  0  0  0  0  0  0  0  0  0  0  0
  177.3470   22.0810   50.8640 C   0  0  0  0  0  0  0  0  0  0  0  0
  178.4340   21.3550   51.3140 O   0  0  0  0  0  0  0  0  0  0  0  0
  177.2730   20.8070   47.5270 C   0  0  0  0  0  0  0  0  0  0  0  0
  178.0520   20.2700   46.4990 C   0  0  0  0  0  0  0  0  0  0  0  0
  179.4160   20.5900   46.3790 C   0  0  0  0  0  0  0  0  0  0  0  0
  180.1960   19.9780   45.2370 C   0  0  0  0  0  0  0  0  0  0  0  0
  180.4680   18.4980   45.4600 C   0  0  0  0  0  0  0  0  0  0  0  0
  183.4184   21.6348   47.8349 H   0  0  0  0  0  0  0  0  0  0  0  0
  182.1396   20.4708   48.6348 H   0  0  0  0  0  0  0  0  0  0  0  0
  181.6739   22.6888   46.5442 H   0  0  0  0  0  0  0  0  0  0  0  0
  179.6450   22.6956   49.0684 H   0  0  0  0  0  0  0  0  0  0  0  0
  173.8315   24.3357   48.4818 H   0  0  0  0  0  0  0  0  0  0  0  0
  172.2507   25.4330   50.0751 H   0  0  0  0  0  0  0  0  0  0  0  0
  172.6280   25.2474   52.5357 H   0  0  0  0  0  0  0  0  0  0  0  0
  174.4700   24.7690   54.1920 H   0  0  0  0  0  0  0  0  0  0  0  0
  178.3300   20.4550   51.5520 H   0  0  0  0  0  0  0  0  0  0  0  0
  176.2108   20.5324   47.6061 H   0  0  0  0  0  0  0  0  0  0  0  0
  177.5908   19.5857   45.7716 H   0  0  0  0  0  0  0  0  0  0  0  0
  179.6181   20.0967   44.3086 H   0  0  0  0  0  0  0  0  0  0  0  0
  181.1647   20.4951   45.1722 H   0  0  0  0  0  0  0  0  0  0  0  0
  180.5061   18.2908   46.5396 H   0  0  0  0  0  0  0  0  0  0  0  0
  179.6640   17.9042   45.0008 H   0  0  0  0  0  0  0  0  0  0  0  0
  181.4307   18.2289   45.0008 H   0  0  0  0  0  0  0  0  0  0  0  0
  1  2  2  0
  2  3  1  0
  3  4  2  0
  4  5  1  0
  5  6  1  0
  6  7  1  0
  7  8  1  0
  8  9  2  0
  9 10  1  0
 10 11  2  0
 11 12  1  0
 12 13  1  0
 12 14  2  0
 14 15  1  0
 15 16  2  0
 15 17  1  0
 17 18  1  0
  5 19  2  0
 19 20  1  0
 20 21  2  0
 21 22  1  0
 22 23  1  0
 21  3  1  0
 17  6  2  0
 14  8  1  0
  1 24  1  0
  1 25  1  0
  2 26  1  0
  4 27  1  0
  9 28  1  0
 10 29  1  0
 11 30  1  0
 13 31  1  0
 18 32  1  0
 19 33  1  0
 20 34  1  0
 22 35  1  0
 22 36  1  0
 23 37  1  0
 23 38  1  0
 23 39  1  0
M  END
>  <meeko>  (8) 
{"is_sidechain": [false], "free_energy": -7.138, "intermolecular_energy": -8.814, "internal_energy": -0.49}

$$$$
cand_046_out
     RDKit          3D

 39 41  0  0  0  0  0  0  0  0999 V2000
  180.8130   18.3170   44.6910 C   0  0  0  0  0  0  0  0  0  0  0  0
  180.0550   18.5430   45.7710 C   0  0  0  0  0  0  0  0  0  0  0  0
  179.9940   19.8430   46.4550 C   0  0  0  0  0  0  0  0  0  0  0  0
  181.1740   20.3860   46.9950 C   0  0  0  0  0  0  0  0  0  0  0  0
  181.1890   21.6380   47.6270 C   0  0  0  0  0  0  0  0  0  0  0  0
  182.4470   22.1560   48.2060 C   0  0  0  0  0  0  0  0  0  0  0  0
  183.1530   22.9680   47.3260 O   0  0  0  0  0  0  0  0  0  0  0  0
  184.3400   23.5170   47.7370 C   0  0  0  0  0  0  0  0  0  0  0  0
  185.0210   24.3150   46.8170 C   0  0  0  0  0  0  0  0  0  0  0  0
  186.2360   24.9070   47.1720 C   0  0  0  0  0  0  0  0  0  0  0  0
  186.7670   24.7020   48.4460 C   0  0  0  0  0  0  0  0  0  0  0  0
  186.0850   23.9060   49.3630 C   0  0  0  0  0  0  0  0  0  0  0  0
  186.6630   23.7470   50.5940 O   0  0  0  0  0  0  0  0  0  0  0  0
  184.8710   23.3130   49.0060 C   0  0  0  0  0  0  0  0  0  0  0  0
  184.1220   22.4700   49.9400 C   0  0  0  0  0  0  0  0  0  0  0  0
  184.5220   22.2480   51.0810 O   0  0  0  0  0  0  0  0  0  0  0  0
  182.8490   21.8840   49.4620 C   0  0  0  0  0  0  0  0  0  0  0  0
  182.1420   21.1000   50.3560 O   0  0  0  0  0  0  0  0  0  0  0  0
  179.9880   22.3480   47.7220 C   0  0  0  0  0  0  0  0  0  0  0  0
  178.8090   21.8280   47.1840 C   0  0  0  0  0  0  0  0  0  0  0  0
  178.7930   20.5750   46.5460 C   0  0  0  0  0  0  0  0  0  0  0  0
  177.4830   20.0780   45.9790 C   0  0  0  0  0  0  0  0  0  0  0  0
  176.2900   20.8170   46.5670 C   0  0  0  0  0  0  0  0  0  0  0  0
  180.8182   17.3225   44.2210 H   0  0  0  0  0  0  0  0  0  0  0  0
  181.4307   19.1258   44.2735 H   0  0  0  0  0  0  0  0  0  0  0  0
  179.4478   17.7152   46.1662 H   0  0  0  0  0  0  0  0  0  0  0  0
  182.1101   19.8133   46.9196 H   0  0  0  0  0  0  0  0  0  0  0  0
  184.6018   24.4779   45.8131 H   0  0  0  0  0  0  0  0  0  0  0  0
  186.7741   25.5350   46.4467 H   0  0  0  0  0  0  0  0  0  0  0  0
  187.7231   25.1685   48.7257 H   0  0  0  0  0  0  0  0  0  0  0  0
  187.0790   24.4730   51.0120 H   0  0  0  0  0  0  0  0  0  0  0  0
  181.3080   21.3870   50.6720 H   0  0  0  0  0  0  0  0  0  0  0  0
  179.9719   23.3258   48.2255 H   0  0  0  0  0  0  0  0  0  0  0  0
  177.8775   22.4081   47.2605 H   0  0  0  0  0  0  0  0  0  0  0  0
  177.4895   20.2248   44.8889 H   0  0  0  0  0  0  0  0  0  0  0  0
  177.3836   19.0132   46.2367 H   0  0  0  0  0  0  0  0  0  0  0  0
  176.3432   20.7840   47.6652 H   0  0  0  0  0  0  0  0  0  0  0  0
  176.3051   21.8641   46.2304 H   0  0  0  0  0  0  0  0  0  0  0  0
  175.3592   20.3371   46.2304 H   0  0  0  0  0  0  0  0  0  0  0  0
  1  2  2  0
  2  3  1  0
  3  4  2  0
  4  5  1  0
  5  6  1  0
  6  7  1  0
  7  8  1  0
  8  9  2  0
  9 10  1  0
 10 11  2  0
 11 12  1  0
 12 13  1  0
 12 14  2  0
 14 15  1  0
 15 16  2  0
 15 17  1  0
 17 18  1  0
  5 19  2  0
 19 20  1  0
 20 21  2  0
 21 22  1  0
 22 23  1  0
 21  3  1  0
 17  6  2  0
 14  8  1  0
  1 24  1  0
  1 25  1  0
  2 26  1  0
  4 27  1  0
  9 28  1  0
 10 29  1  0
 11 30  1  0
 13 31  1  0
 18 32  1  0
 19 33  1  0
 20 34  1  0
 22 35  1  0
 22 36  1  0
 23 37  1  0
 23 38  1  0
 23 39  1  0
M  END
>  <meeko>  (9) 
{"is_sidechain": [false], "free_energy": -7.074, "intermolecular_energy": -8.589, "internal_energy": -0.635}

$$$$
