cand_030_out
     RDKit          3D

 38 40  0  0  0  0  0  0  0  0999 V2000
  181.3470   15.1470   41.4140 C   0  0  0  0  0  0  0  0  0  0  0  0
  182.0100   15.1750   42.7830 C   0  0  0  0  0  0  0  0  0  0  0  0
  181.4070   16.2310   43.6850 C   0  0  0  0  0  0  0  0  0  0  0  0
  181.8420   17.5590   43.5350 C   0  0  0  0  0  0  0  0  0  0  0  0
  181.3300   18.5800   44.3380 C   0  0  0  0  0  0  0  0  0  0  0  0
  180.3660   18.3050   45.3130 C   0  0  0  0  0  0  0  0  0  0  0  0
  179.8500   19.3940   46.1660 C   0  0  0  0  0  0  0  0  0  0  0  0
  178.4610   19.4540   46.1880 O   0  0  0  0  0  0  0  0  0  0  0  0
  177.8520   20.4260   46.9420 C   0  0  0  0  0  0  0  0  0  0  0  0
  176.4570   20.4600   46.9210 C   0  0  0  0  0  0  0  0  0  0  0  0
  175.7740   21.4220   47.6690 C   0  0  0  0  0  0  0  0  0  0  0  0
  176.4850   22.3490   48.4360 C   0  0  0  0  0  0  0  0  0  0  0  0
  177.8770   22.3110   48.4540 C   0  0  0  0  0  0  0  0  0  0  0  0
  178.5090   23.2470   49.2260 O   0  0  0  0  0  0  0  0  0  0  0  0
  178.5590   21.3490   47.7050 C   0  0  0  0  0  0  0  0  0  0  0  0
  180.0220   21.2750   47.6970 C   0  0  0  0  0  0  0  0  0  0  0  0
  180.7170   22.0490   48.3500 O   0  0  0  0  0  0  0  0  0  0  0  0
  180.6490   20.2230   46.8640 C   0  0  0  0  0  0  0  0  0  0  0  0
  182.0300   20.1520   46.8700 O   0  0  0  0  0  0  0  0  0  0  0  0
  179.9430   16.9780   45.4770 C   0  0  0  0  0  0  0  0  0  0  0  0
  180.4520   15.9320   44.6790 C   0  0  0  0  0  0  0  0  0  0  0  0
  179.9210   14.5320   44.8950 C   0  0  0  0  0  0  0  0  0  0  0  0
  179.3630   13.9910   43.7770 F   0  0  0  0  0  0  0  0  0  0  0  0
  180.8780   13.6410   45.2850 F   0  0  0  0  0  0  0  0  0  0  0  0
  180.2548   15.1009   41.5364 H   0  0  0  0  0  0  0  0  0  0  0  0
  181.6155   16.0573   40.8579 H   0  0  0  0  0  0  0  0  0  0  0  0
  181.6913   14.2626   40.8579 H   0  0  0  0  0  0  0  0  0  0  0  0
  181.8864   14.1903   43.2574 H   0  0  0  0  0  0  0  0  0  0  0  0
  183.0733   15.4178   42.6401 H   0  0  0  0  0  0  0  0  0  0  0  0
  182.5981   17.7979   42.7726 H   0  0  0  0  0  0  0  0  0  0  0  0
  181.6885   19.6111   44.2023 H   0  0  0  0  0  0  0  0  0  0  0  0
  175.8967   19.7311   46.3170 H   0  0  0  0  0  0  0  0  0  0  0  0
  174.6745   21.4499   47.6543 H   0  0  0  0  0  0  0  0  0  0  0  0
  175.9465   23.1068   49.0240 H   0  0  0  0  0  0  0  0  0  0  0  0
  179.4160   23.4340   49.0850 H   0  0  0  0  0  0  0  0  0  0  0  0
  182.5310   20.7560   46.3580 H   0  0  0  0  0  0  0  0  0  0  0  0
  179.1941   16.7465   46.2487 H   0  0  0  0  0  0  0  0  0  0  0  0
  179.1710   14.6778   45.6864 H   0  0  0  0  0  0  0  0  0  0  0  0
  1  2  1  0
  2  3  1  0
  3  4  2  0
  4  5  1  0
  5  6  2  0
  6  7  1  0
  7  8  1  0
  8  9  1  0
  9 10  2  0
 10 11  1  0
 11 12  2  0
 12 13  1  0
 13 14  1  0
 13 15  2  0
 15 16  1  0
 16 17  2  0
 16 18  1  0
 18 19  1  0
  6 20  1  0
 20 21  2  0
 21 22  1  0
 22 23  1  0
 22 24  1  0
 21  3  1  0
 18  7  2  0
 15  9  1  0
  1 25  1  0
  1 26  1  0
  1 27  1  0
  2 28  1  0
  2 29  1  0
  4 30  1  0
  5 31  1  0
 10 32  1  0
 11 33  1  0
 12 34  1  0
 14 35  1  0
 19 36  1  0
 20 37  1  0
 22 38  1  0
M  END
>  <meeko>  (1) 
{"is_sidechain": [false], "free_energy": -9.001, "intermolecular_energy": -11.106, "internal_energy": -0.362}

$$$$
cand_030_out
     RDKit          3D

 38 40  0  0  0  0  0  0  0  0999 V2000
  176.8540   23.9030   48.5100 C   0  0  0  0  0  0  0  0  0  0  0  0
  176.6730   22.4900   49.0440 C   0  0  0  0  0  0  0  0  0  0  0  0
  177.4020   21.4660   48.2010 C   0  0  0  0  0  0  0  0  0  0  0  0
  178.7980   21.5780   48.0820 C   0  0  0  0  0  0  0  0  0  0  0  0
  179.5310   20.6700   47.3140 C   0  0  0  0  0  0  0  0  0  0  0  0
  178.8910   19.6210   46.6460 C   0  0  0  0  0  0  0  0  0  0  0  0
  179.6800   18.6810   45.8240 C   0  0  0  0  0  0  0  0  0  0  0  0
  179.1650   17.3900   45.8320 O   0  0  0  0  0  0  0  0  0  0  0  0
  179.8070   16.4170   45.1090 C   0  0  0  0  0  0  0  0  0  0  0  0
  179.2660   15.1310   45.1590 C   0  0  0  0  0  0  0  0  0  0  0  0
  179.8690   14.0950   44.4440 C   0  0  0  0  0  0  0  0  0  0  0  0
  181.0120   14.3420   43.6800 C   0  0  0  0  0  0  0  0  0  0  0  0
  181.5500   15.6260   43.6320 C   0  0  0  0  0  0  0  0  0  0  0  0
  182.6690   15.7990   42.8650 O   0  0  0  0  0  0  0  0  0  0  0  0
  180.9460   16.6630   44.3490 C   0  0  0  0  0  0  0  0  0  0  0  0
  181.4790   18.0270   44.3260 C   0  0  0  0  0  0  0  0  0  0  0  0
  182.4750   18.3260   43.6730 O   0  0  0  0  0  0  0  0  0  0  0  0
  180.7690   19.0520   45.1260 C   0  0  0  0  0  0  0  0  0  0  0  0
  181.2710   20.3400   45.0900 O   0  0  0  0  0  0  0  0  0  0  0  0
  177.4970   19.5180   46.7500 C   0  0  0  0  0  0  0  0  0  0  0  0
  176.7380   20.4280   47.5150 C   0  0  0  0  0  0  0  0  0  0  0  0
  175.2410   20.2290   47.6030 C   0  0  0  0  0  0  0  0  0  0  0  0
  174.7650   19.3280   46.6990 F   0  0  0  0  0  0  0  0  0  0  0  0
  174.8220   19.7740   48.8180 F   0  0  0  0  0  0  0  0  0  0  0  0
  176.9439   24.6046   49.3524 H   0  0  0  0  0  0  0  0  0  0  0  0
  177.7654   23.9489   47.8957 H   0  0  0  0  0  0  0  0  0  0  0  0
  175.9836   24.1771   47.8957 H   0  0  0  0  0  0  0  0  0  0  0  0
  177.0631   22.4463   50.0716 H   0  0  0  0  0  0  0  0  0  0  0  0
  175.5996   22.2513   49.0146 H   0  0  0  0  0  0  0  0  0  0  0  0
  179.3218   22.3937   48.6019 H   0  0  0  0  0  0  0  0  0  0  0  0
  180.6224   20.7812   47.2338 H   0  0  0  0  0  0  0  0  0  0  0  0
  178.3663   14.9346   45.7607 H   0  0  0  0  0  0  0  0  0  0  0  0
  179.4431   13.0815   44.4822 H   0  0  0  0  0  0  0  0  0  0  0  0
  181.4862   13.5243   43.1174 H   0  0  0  0  0  0  0  0  0  0  0  0
  183.1770   16.5810   42.9480 H   0  0  0  0  0  0  0  0  0  0  0  0
  181.3260   20.7970   44.2740 H   0  0  0  0  0  0  0  0  0  0  0  0
  176.9803   18.7044   46.2199 H   0  0  0  0  0  0  0  0  0  0  0  0
  174.8519   21.2386   47.4050 H   0  0  0  0  0  0  0  0  0  0  0  0
  1  2  1  0
  2  3  1  0
  3  4  2  0
  4  5  1  0
  5  6  2  0
  6  7  1  0
  7  8  1  0
  8  9  1  0
  9 10  2  0
 10 11  1  0
 11 12  2  0
 12 13  1  0
 13 14  1  0
 13 15  2  0
 15 16  1  0
 16 17  2  0
 16 18  1  0
 18 19  1  0
  6 20  1  0
 20 21  2  0
 21 22  1  0
 22 23  1  0
 22 24  1  0
 21  3  1  0
 18  7  2  0
 15  9  1  0
  1 25  1  0
  1 26  1  0
  1 27  1  0
  2 28  1  0
  2 29  1  0
  4 30  1  0
  5 31  1  0
 10 32  1  0
 11 33  1  0
 12 34  1  0
 14 35  1  0
 19 36  1  0
 20 37  1  0
 22 38  1  0
M  END
>  <meeko>  (2) 
{"is_sidechain": [false], "free_energy": -7.655, "intermolecular_energy": -9.618, "internal_energy": -0.189}

$$$$
cand_030_out
     RDKit          3D

 38 40  0  0  0  0  0  0  0  0999 V2000
  181.5160   15.4420   41.9450 C   0  0  0  0  0  0  0  0  0  0  0  0
  182.0430   15.7580   43.3370 C   0  0  0  0  0  0  0  0  0  0  0  0
  181.1030   16.6570   44.1100 C   0  0  0  0  0  0  0  0  0  0  0  0
  181.2660   18.0480   43.9900 C   0  0  0  0  0  0  0  0  0  0  0  0
  180.4370   18.9330   44.6810 C   0  0  0  0  0  0  0  0  0  0  0  0
  179.4160   18.4560   45.5090 C   0  0  0  0  0  0  0  0  0  0  0  0
  178.5600   19.4070   46.2460 C   0  0  0  0  0  0  0  0  0  0  0  0
  179.2160   20.5880   46.5700 O   0  0  0  0  0  0  0  0  0  0  0  0
  178.5330   21.5580   47.2600 C   0  0  0  0  0  0  0  0  0  0  0  0
  179.2360   22.7200   47.5810 C   0  0  0  0  0  0  0  0  0  0  0  0
  178.5980   23.7480   48.2800 C   0  0  0  0  0  0  0  0  0  0  0  0
  177.2600   23.6130   48.6580 C   0  0  0  0  0  0  0  0  0  0  0  0
  176.5620   22.4520   48.3370 C   0  0  0  0  0  0  0  0  0  0  0  0
  175.2550   22.3860   48.7370 O   0  0  0  0  0  0  0  0  0  0  0  0
  177.2010   21.4240   47.6380 C   0  0  0  0  0  0  0  0  0  0  0  0
  176.5030   20.1870   47.2810 C   0  0  0  0  0  0  0  0  0  0  0  0
  175.3250   19.9960   47.5710 O   0  0  0  0  0  0  0  0  0  0  0  0
  177.2720   19.1560   46.5460 C   0  0  0  0  0  0  0  0  0  0  0  0
  176.6030   17.9960   46.2020 O   0  0  0  0  0  0  0  0  0  0  0  0
  179.2610   17.0690   45.6440 C   0  0  0  0  0  0  0  0  0  0  0  0
  180.0930   16.1580   44.9590 C   0  0  0  0  0  0  0  0  0  0  0  0
  179.8420   14.6770   45.1320 C   0  0  0  0  0  0  0  0  0  0  0  0
  179.4070   14.0690   43.9930 F   0  0  0  0  0  0  0  0  0  0  0  0
  180.9500   13.9770   45.5110 F   0  0  0  0  0  0  0  0  0  0  0  0
  180.5753   14.8779   42.0284 H   0  0  0  0  0  0  0  0  0  0  0  0
  181.3340   16.3801   41.4002 H   0  0  0  0  0  0  0  0  0  0  0  0
  182.2577   14.8395   41.4002 H   0  0  0  0  0  0  0  0  0  0  0  0
  182.1690   14.8161   43.8910 H   0  0  0  0  0  0  0  0  0  0  0  0
  183.0015   16.2859   43.2250 H   0  0  0  0  0  0  0  0  0  0  0  0
  182.0600   18.4456   43.3408 H   0  0  0  0  0  0  0  0  0  0  0  0
  180.5883   20.0172   44.5731 H   0  0  0  0  0  0  0  0  0  0  0  0
  180.2899   22.8264   47.2844 H   0  0  0  0  0  0  0  0  0  0  0  0
  179.1503   24.6651   48.5330 H   0  0  0  0  0  0  0  0  0  0  0  0
  176.7587   24.4228   49.2084 H   0  0  0  0  0  0  0  0  0  0  0  0
  174.9990   22.7530   49.5590 H   0  0  0  0  0  0  0  0  0  0  0  0
  176.8110   17.5570   45.4000 H   0  0  0  0  0  0  0  0  0  0  0  0
  178.4694   16.6805   46.3017 H   0  0  0  0  0  0  0  0  0  0  0  0
  179.0724   14.6535   45.9176 H   0  0  0  0  0  0  0  0  0  0  0  0
  1  2  1  0
  2  3  1  0
  3  4  2  0
  4  5  1  0
  5  6  2  0
  6  7  1  0
  7  8  1  0
  8  9  1  0
  9 10  2  0
 10 11  1  0
 11 12  2  0
 12 13  1  0
 13 14  1  0
 13 15  2  0
 15 16  1  0
 16 17  2  0
 16 18  1  0
 18 19  1  0
  6 20  1  0
 20 21  2  0
 21 22  1  0
 22 23  1  0
 22 24  1  0
 21  3  1  0
 18  7  2  0
 15  9  1  0
  1 25  1  0
  1 26  1  0
  1 27  1  0
  2 28  1  0
  2 29  1  0
  4 30  1  0
  5 31  1  0
 10 32  1  0
 11 33  1  0
 12 34  1  0
 14 35  1  0
 19 36  1  0
 20 37  1  0
 22 38  1  0
M  END
>  <meeko>  (3) 
{"is_sidechain": [false], "free_energy": -7.457, "intermolecular_energy": -9.42, "internal_energy": -0.143}

$$$$
cand_030_out
     RDKit          3D

 38 40  0  0  0  0  0  0  0  0999 V2000
  175.1070   21.5530   49.5290 C   0  0  0  0  0  0  0  0  0  0  0  0
  176.0420   22.3520   48.6330 C   0  0  0  0  0  0  0  0  0  0  0  0
  176.9900   21.4600   47.8610 C   0  0  0  0  0  0  0  0  0  0  0  0
  176.5970   20.1330   47.6130 C   0  0  0  0  0  0  0  0  0  0  0  0
  177.4270   19.2550   46.9120 C   0  0  0  0  0  0  0  0  0  0  0  0
  178.6710   19.6790   46.4340 C   0  0  0  0  0  0  0  0  0  0  0  0
  179.5430   18.7310   45.7100 C   0  0  0  0  0  0  0  0  0  0  0  0
  179.0640   17.4270   45.7340 O   0  0  0  0  0  0  0  0  0  0  0  0
  179.7830   16.4450   45.1000 C   0  0  0  0  0  0  0  0  0  0  0  0
  179.2740   15.1470   45.1630 C   0  0  0  0  0  0  0  0  0  0  0  0
  179.9570   14.1020   44.5370 C   0  0  0  0  0  0  0  0  0  0  0  0
  181.1450   14.3540   43.8480 C   0  0  0  0  0  0  0  0  0  0  0  0
  181.6500   15.6500   43.7860 C   0  0  0  0  0  0  0  0  0  0  0  0
  182.8170   15.8260   43.0950 O   0  0  0  0  0  0  0  0  0  0  0  0
  180.9680   16.6960   44.4150 C   0  0  0  0  0  0  0  0  0  0  0  0
  181.4640   18.0730   44.3740 C   0  0  0  0  0  0  0  0  0  0  0  0
  182.4970   18.3760   43.7830 O   0  0  0  0  0  0  0  0  0  0  0  0
  180.6700   19.1060   45.0780 C   0  0  0  0  0  0  0  0  0  0  0  0
  181.1390   20.4060   45.0250 O   0  0  0  0  0  0  0  0  0  0  0  0
  179.0720   20.9960   46.6950 C   0  0  0  0  0  0  0  0  0  0  0  0
  178.2510   21.8960   47.4060 C   0  0  0  0  0  0  0  0  0  0  0  0
  178.7410   23.3120   47.6180 C   0  0  0  0  0  0  0  0  0  0  0  0
  177.9410   24.2490   47.0390 F   0  0  0  0  0  0  0  0  0  0  0  0
  178.8200   23.6690   48.9320 F   0  0  0  0  0  0  0  0  0  0  0  0
  175.3459   21.7572   50.5831 H   0  0  0  0  0  0  0  0  0  0  0  0
  174.0661   21.8449   49.3258 H   0  0  0  0  0  0  0  0  0  0  0  0
  175.2330   20.4793   49.3258 H   0  0  0  0  0  0  0  0  0  0  0  0
  175.4393   22.9318   47.9185 H   0  0  0  0  0  0  0  0  0  0  0  0
  176.6443   23.0121   49.2745 H   0  0  0  0  0  0  0  0  0  0  0  0
  175.6205   19.7807   47.9767 H   0  0  0  0  0  0  0  0  0  0  0  0
  177.0990   18.2202   46.7342 H   0  0  0  0  0  0  0  0  0  0  0  0
  178.3374   14.9476   45.7043 H   0  0  0  0  0  0  0  0  0  0  0  0
  179.5581   13.0781   44.5868 H   0  0  0  0  0  0  0  0  0  0  0  0
  181.6812   13.5298   43.3549 H   0  0  0  0  0  0  0  0  0  0  0  0
  182.8620   15.6030   42.1870 H   0  0  0  0  0  0  0  0  0  0  0  0
  181.4540   20.8220   45.8040 H   0  0  0  0  0  0  0  0  0  0  0  0
  180.0540   21.3374   46.3356 H   0  0  0  0  0  0  0  0  0  0  0  0
  179.7378   23.2952   47.1532 H   0  0  0  0  0  0  0  0  0  0  0  0
  1  2  1  0
  2  3  1  0
  3  4  2  0
  4  5  1  0
  5  6  2  0
  6  7  1  0
  7  8  1  0
  8  9  1  0
  9 10  2  0
 10 11  1  0
 11 12  2  0
 12 13  1  0
 13 14  1  0
 13 15  2  0
 15 16  1  0
 16 17  2  0
 16 18  1  0
 18 19  1  0
  6 20  1  0
 20 21  2  0
 21 22  1  0
 22 23  1  0
 22 24  1  0
 21  3  1  0
 18  7  2  0
 15  9  1  0
  1 25  1  0
  1 26  1  0
  1 27  1  0
  2 28  1  0
  2 29  1  0
  4 30  1  0
  5 31  1  0
 10 32  1  0
 11 33  1  0
 12 34  1  0
 14 35  1  0
 19 36  1  0
 20 37  1  0
 22 38  1  0
M  END
>  <meeko>  (4) 
{"is_sidechain": [false], "free_energy": -7.005, "intermolecular_energy": -9.094, "internal_energy": 0.089}

$$$$
