cand_025_out
     RDKit          3D

 53 56  0  0  0  0  0  0  0  0999 V2000
  175.0490   19.0030   47.0200 C   0  0  0  0  0  0  0  0  0  0  0  0
  175.6340   20.4070   47.0400 C   0  0  0  0  0  0  0  0  0  0  0  0
  177.1440   20.3900   47.1340 C   0  0  0  0  0  0  0  0  0  0  0  0
  177.8620   19.4850   46.3260 C   0  0  0  0  0  0  0  0  0  0  0  0
  179.2590   19.4110   46.3700 C   0  0  0  0  0  0  0  0  0  0  0  0
  180.0160   18.4470   45.5440 C   0  0  0  0  0  0  0  0  0  0  0  0
  179.4340   17.1840   45.5180 O   0  0  0  0  0  0  0  0  0  0  0  0
  180.0350   16.1920   44.7870 C   0  0  0  0  0  0  0  0  0  0  0  0
  179.4090   14.9460   44.7750 C   0  0  0  0  0  0  0  0  0  0  0  0
  179.9690   13.8900   44.0510 C   0  0  0  0  0  0  0  0  0  0  0  0
  181.1550   14.0830   43.3390 C   0  0  0  0  0  0  0  0  0  0  0  0
  181.7770   15.3280   43.3520 C   0  0  0  0  0  0  0  0  0  0  0  0
  182.9350   15.4470   42.6330 O   0  0  0  0  0  0  0  0  0  0  0  0
  181.2160   16.3830   44.0760 C   0  0  0  0  0  0  0  0  0  0  0  0
  181.8380   17.7080   44.1150 C   0  0  0  0  0  0  0  0  0  0  0  0
  182.8860   17.9520   43.5200 O   0  0  0  0  0  0  0  0  0  0  0  0
  181.1590   18.7600   44.9060 C   0  0  0  0  0  0  0  0  0  0  0  0
  181.7620   20.0030   44.9470 O   0  0  0  0  0  0  0  0  0  0  0  0
  179.9380   20.2520   47.2580 C   0  0  0  0  0  0  0  0  0  0  0  0
  179.2380   21.1490   48.0710 C   0  0  0  0  0  0  0  0  0  0  0  0
  177.8380   21.2290   48.0290 C   0  0  0  0  0  0  0  0  0  0  0  0
  177.1150   22.1290   48.8350 N   0  0  0  0  0  0  0  0  0  0  0  0
  176.8260   23.4270   48.1890 C   0  0  0  0  0  0  0  0  0  0  0  0
  176.1530   24.3780   49.2070 C   0  0  0  0  0  0  0  0  0  0  0  0
  174.9110   23.8070   49.7800 N   0  0  0  0  0  0  0  0  0  0  0  0
  174.3400   24.7120   50.7740 C   0  0  0  0  0  0  0  0  0  0  0  0
  175.2180   22.4910   50.3890 C   0  0  0  0  0  0  0  0  0  0  0  0
  175.8900   21.5140   49.3940 C   0  0  0  0  0  0  0  0  0  0  0  0
  174.9027   18.6520   48.0522 H   0  0  0  0  0  0  0  0  0  0  0  0
  174.0815   19.0163   46.4967 H   0  0  0  0  0  0  0  0  0  0  0  0
  175.7397   18.3254   46.4967 H   0  0  0  0  0  0  0  0  0  0  0  0
  175.3414   20.9269   46.1158 H   0  0  0  0  0  0  0  0  0  0  0  0
  175.2439   20.9253   47.9284 H   0  0  0  0  0  0  0  0  0  0  0  0
  177.3108   18.8207   45.6442 H   0  0  0  0  0  0  0  0  0  0  0  0
  178.4746   14.7944   45.3353 H   0  0  0  0  0  0  0  0  0  0  0  0
  179.4758   12.9068   44.0419 H   0  0  0  0  0  0  0  0  0  0  0  0
  181.5967   13.2524   42.7689 H   0  0  0  0  0  0  0  0  0  0  0  0
  183.7480   15.1600   43.0030 H   0  0  0  0  0  0  0  0  0  0  0  0
  181.4060   20.7140   44.4520 H   0  0  0  0  0  0  0  0  0  0  0  0
  181.0355   20.2072   47.3175 H   0  0  0  0  0  0  0  0  0  0  0  0
  179.7956   21.8042   48.7564 H   0  0  0  0  0  0  0  0  0  0  0  0
  177.7655   23.8763   47.8347 H   0  0  0  0  0  0  0  0  0  0  0  0
  176.1487   23.2670   47.3372 H   0  0  0  0  0  0  0  0  0  0  0  0
  176.8605   24.5768   50.0255 H   0  0  0  0  0  0  0  0  0  0  0  0
  175.8822   25.3014   48.6742 H   0  0  0  0  0  0  0  0  0  0  0  0
  174.2230   23.6830   49.0370 H   0  0  0  0  0  0  0  0  0  0  0  0
  174.5733   24.3423   51.7834 H   0  0  0  0  0  0  0  0  0  0  0  0
  174.7679   25.7169   50.6436 H   0  0  0  0  0  0  0  0  0  0  0  0
  173.2487   24.7584   50.6436 H   0  0  0  0  0  0  0  0  0  0  0  0
  175.8961   22.6472   51.2410 H   0  0  0  0  0  0  0  0  0  0  0  0
  174.2652   22.0407   50.7043 H   0  0  0  0  0  0  0  0  0  0  0  0
  176.1552   20.5842   49.9185 H   0  0  0  0  0  0  0  0  0  0  0  0
  175.1898   21.2919   48.5752 H   0  0  0  0  0  0  0  0  0  0  0  0
  1  2  1  0
  2  3  1  0
  3  4  2  0
  4  5  1  0
  5  6  1  0
  6  7  1  0
  7  8  1  0
  8  9  2  0
  9 10  1  0
 10 11  2  0
 11 12  1  0
 12 13  1  0
 12 14  2  0
 14 15  1  0
 15 16  2  0
 15 17  1  0
 17 18  1  0
  5 19  2  0
 19 20  1  0
 20 21  2  0
 21 22  1  0
 22 23  1  0
 23 24  1  0
 24 25  1  0
 25 26  1  0
 25 27  1  0
 27 28  1  0
 21  3  1  0
 28 22  1  0
 17  6  2  0
 14  8  1  0
  1 29  1  0
  1 30  1  0
  1 31  1  0
  2 32  1  0
  2 33  1  0
  4 34  1  0
  9 35  1  0
 10 36  1  0
 11 37  1  0
 13 38  1  0
 18 39  1  0
 19 40  1  0
 20 41  1  0
 23 42  1  0
 23 43  1  0
 24 44  1  0
 24 45  1  0
 25 46  1  0
 26 47  1  0
 26 48  1  0
 26 49  1  0
 27 50  1  0
 27 51  1  0
 28 52  1  0
 28 53  1  0
M  CHG  1  25   1
M  END
>  <meeko>  (1) 
{"is_sidechain": [false], "free_energy": -5.937, "intermolecular_energy": -7.326, "internal_energy": 0.955}

$$$$
cand_025_out
     RDKit          3D

 53 56  0  0  0  0  0  0  0  0999 V2000
  174.8840   19.6670   47.2710 C   0  0  0  0  0  0  0  0  0  0  0  0
  175.6300   19.9350   48.5700 C   0  0  0  0  0  0  0  0  0  0  0  0
  175.9320   21.4050   48.7560 C   0  0  0  0  0  0  0  0  0  0  0  0
  174.9650   22.2200   49.3790 C   0  0  0  0  0  0  0  0  0  0  0  0
  175.1770   23.5900   49.5750 C   0  0  0  0  0  0  0  0  0  0  0  0
  174.1570   24.4550   50.2050 C   0  0  0  0  0  0  0  0  0  0  0  0
  174.4400   24.7440   51.5350 O   0  0  0  0  0  0  0  0  0  0  0  0
  173.5730   25.5400   52.2400 C   0  0  0  0  0  0  0  0  0  0  0  0
  173.9040   25.8170   53.5660 C   0  0  0  0  0  0  0  0  0  0  0  0
  173.0630   26.6200   54.3410 C   0  0  0  0  0  0  0  0  0  0  0  0
  171.8930   27.1440   53.7890 C   0  0  0  0  0  0  0  0  0  0  0  0
  171.5650   26.8660   52.4640 C   0  0  0  0  0  0  0  0  0  0  0  0
  170.4050   27.4110   51.9870 O   0  0  0  0  0  0  0  0  0  0  0  0
  172.4070   26.0630   51.6900 C   0  0  0  0  0  0  0  0  0  0  0  0
  172.1000   25.7470   50.2940 C   0  0  0  0  0  0  0  0  0  0  0  0
  171.0850   26.1650   49.7400 O   0  0  0  0  0  0  0  0  0  0  0  0
  173.0610   24.8940   49.5580 C   0  0  0  0  0  0  0  0  0  0  0  0
  172.7540   24.5900   48.2450 O   0  0  0  0  0  0  0  0  0  0  0  0
  176.3760   24.1460   49.1180 C   0  0  0  0  0  0  0  0  0  0  0  0
  177.3410   23.3510   48.4920 C   0  0  0  0  0  0  0  0  0  0  0  0
  177.1360   21.9770   48.2950 C   0  0  0  0  0  0  0  0  0  0  0  0
  178.0960   21.1570   47.6710 N   0  0  0  0  0  0  0  0  0  0  0  0
  177.9940   21.1170   46.1960 C   0  0  0  0  0  0  0  0  0  0  0  0
  179.0020   20.0870   45.6320 C   0  0  0  0  0  0  0  0  0  0  0  0
  180.3970   20.3800   46.0380 N   0  0  0  0  0  0  0  0  0  0  0  0
  181.3060   19.3550   45.5300 C   0  0  0  0  0  0  0  0  0  0  0  0
  180.4670   20.4520   47.5170 C   0  0  0  0  0  0  0  0  0  0  0  0
  179.4720   21.4770   48.1130 C   0  0  0  0  0  0  0  0  0  0  0  0
  173.8711   19.3031   47.4982 H   0  0  0  0  0  0  0  0  0  0  0  0
  174.8172   20.5973   46.6879 H   0  0  0  0  0  0  0  0  0  0  0  0
  175.4245   18.9068   46.6879 H   0  0  0  0  0  0  0  0  0  0  0  0
  175.0122   19.5899   49.4122 H   0  0  0  0  0  0  0  0  0  0  0  0
  176.5867   19.3936   48.5307 H   0  0  0  0  0  0  0  0  0  0  0  0
  174.0213   21.7687   49.7193 H   0  0  0  0  0  0  0  0  0  0  0  0
  174.8259   25.4040   54.0013 H   0  0  0  0  0  0  0  0  0  0  0  0
  173.3233   26.8393   55.3870 H   0  0  0  0  0  0  0  0  0  0  0  0
  171.2309   27.7756   54.3994 H   0  0  0  0  0  0  0  0  0  0  0  0
  170.2970   27.5530   51.0670 H   0  0  0  0  0  0  0  0  0  0  0  0
  171.9020   24.2710   48.0230 H   0  0  0  0  0  0  0  0  0  0  0  0
  176.5622   25.2217   49.2526 H   0  0  0  0  0  0  0  0  0  0  0  0
  178.2787   23.8115   48.1474 H   0  0  0  0  0  0  0  0  0  0  0  0
  176.9733   20.8255   45.9077 H   0  0  0  0  0  0  0  0  0  0  0  0
  178.2228   22.1124   45.7876 H   0  0  0  0  0  0  0  0  0  0  0  0
  178.7293   19.0874   46.0012 H   0  0  0  0  0  0  0  0  0  0  0  0
  178.9547   20.1383   44.5342 H   0  0  0  0  0  0  0  0  0  0  0  0
  180.6830   21.2760   45.6420 H   0  0  0  0  0  0  0  0  0  0  0  0
  181.7733   18.8280   46.3749 H   0  0  0  0  0  0  0  0  0  0  0  0
  180.7425   18.6367   44.9163 H   0  0  0  0  0  0  0  0  0  0  0  0
  182.0865   19.8286   44.9163 H   0  0  0  0  0  0  0  0  0  0  0  0
  180.2374   19.4582   47.9289 H   0  0  0  0  0  0  0  0  0  0  0  0
  181.4821   20.7793   47.7860 H   0  0  0  0  0  0  0  0  0  0  0  0
  179.5211   21.4373   49.2112 H   0  0  0  0  0  0  0  0  0  0  0  0
  179.7391   22.4860   47.7658 H   0  0  0  0  0  0  0  0  0  0  0  0
  1  2  1  0
  2  3  1  0
  3  4  2  0
  4  5  1  0
  5  6  1  0
  6  7  1  0
  7  8  1  0
  8  9  2  0
  9 10  1  0
 10 11  2  0
 11 12  1  0
 12 13  1  0
 12 14  2  0
 14 15  1  0
 15 16  2  0
 15 17  1  0
 17 18  1  0
  5 19  2  0
 19 20  1  0
 20 21  2  0
 21 22  1  0
 22 23  1  0
 23 24  1  0
 24 25  1  0
 25 26  1  0
 25 27  1  0
 27 28  1  0
 21  3  1  0
 28 22  1  0
 17  6  2  0
 14  8  1  0
  1 29  1  0
  1 30  1  0
  1 31  1  0
  2 32  1  0
  2 33  1  0
  4 34  1  0
  9 35  1  0
 10 36  1  0
 11 37  1  0
 13 38  1  0
 18 39  1  0
 19 40  1  0
 20 41  1  0
 23 42  1  0
 23 43  1  0
 24 44  1  0
 24 45  1  0
 25 46  1  0
 26 47  1  0
 26 48  1  0
 26 49  1  0
 27 50  1  0
 27 51  1  0
 28 52  1  0
 28 53  1  0
M  CHG  1  25   1
M  END
>  <meeko>  (2) 
{"is_sidechain": [false], "free_energy": -5.637, "intermolecular_energy": -5.376, "internal_energy": -0.624}

$$$$
cand_025_out
     RDKit          3D

 53 56  0  0  0  0  0  0  0  0999 V2000
  182.9830   20.8780   45.0800 C   0  0  0  0  0  0  0  0  0  0  0  0
  182.4090   19.5220   44.6990 C   0  0  0  0  0  0  0  0  0  0  0  0
  181.0220   19.3150   45.2640 C   0  0  0  0  0  0  0  0  0  0  0  0
  180.4440   20.3460   46.0330 C   0  0  0  0  0  0  0  0  0  0  0  0
  179.1680   20.2170   46.5920 C   0  0  0  0  0  0  0  0  0  0  0  0
  178.5670   21.2840   47.4200 C   0  0  0  0  0  0  0  0  0  0  0  0
  177.1780   21.2360   47.4390 O   0  0  0  0  0  0  0  0  0  0  0  0
  176.4910   22.1710   48.1710 C   0  0  0  0  0  0  0  0  0  0  0  0
  175.1000   22.0760   48.1760 C   0  0  0  0  0  0  0  0  0  0  0  0
  174.3400   22.9970   48.9000 C   0  0  0  0  0  0  0  0  0  0  0  0
  174.9730   24.0130   49.6190 C   0  0  0  0  0  0  0  0  0  0  0  0
  176.3620   24.1060   49.6140 C   0  0  0  0  0  0  0  0  0  0  0  0
  176.9160   25.1250   50.3400 O   0  0  0  0  0  0  0  0  0  0  0  0
  177.1210   23.1830   48.8900 C   0  0  0  0  0  0  0  0  0  0  0  0
  178.5840   23.2440   48.8580 C   0  0  0  0  0  0  0  0  0  0  0  0
  179.2110   24.1130   49.4600 O   0  0  0  0  0  0  0  0  0  0  0  0
  179.2950   22.2150   48.0660 C   0  0  0  0  0  0  0  0  0  0  0  0
  180.6740   22.2900   48.0320 O   0  0  0  0  0  0  0  0  0  0  0  0
  178.4730   19.0200   46.3870 C   0  0  0  0  0  0  0  0  0  0  0  0
  179.0370   17.9860   45.6330 C   0  0  0  0  0  0  0  0  0  0  0  0
  180.3150   18.1110   45.0680 C   0  0  0  0  0  0  0  0  0  0  0  0
  180.8990   17.0840   44.3020 N   0  0  0  0  0  0  0  0  0  0  0  0
  180.4450   15.7230   44.6630 C   0  0  0  0  0  0  0  0  0  0  0  0
  181.2480   14.6750   43.8570 C   0  0  0  0  0  0  0  0  0  0  0  0
  181.1340   14.8770   42.3930 N   0  0  0  0  0  0  0  0  0  0  0  0
  181.9490   13.9010   41.6740 C   0  0  0  0  0  0  0  0  0  0  0  0
  181.5580   16.2580   42.0600 C   0  0  0  0  0  0  0  0  0  0  0  0
  180.7710   17.3320   42.8480 C   0  0  0  0  0  0  0  0  0  0  0  0
  183.0201   20.9657   46.1759 H   0  0  0  0  0  0  0  0  0  0  0  0
  183.9991   20.9744   44.6698 H   0  0  0  0  0  0  0  0  0  0  0  0
  182.3449   21.6746   44.6698 H   0  0  0  0  0  0  0  0  0  0  0  0
  182.3597   19.4527   43.6023 H   0  0  0  0  0  0  0  0  0  0  0  0
  183.0658   18.7453   45.1177 H   0  0  0  0  0  0  0  0  0  0  0  0
  181.0103   21.2746   46.1974 H   0  0  0  0  0  0  0  0  0  0  0  0
  174.6013   21.2756   47.6097 H   0  0  0  0  0  0  0  0  0  0  0  0
  173.2426   22.9221   48.9039 H   0  0  0  0  0  0  0  0  0  0  0  0
  174.3747   24.7392   50.1888 H   0  0  0  0  0  0  0  0  0  0  0  0
  177.2520   25.8820   49.9020 H   0  0  0  0  0  0  0  0  0  0  0  0
  181.1390   22.7110   48.7290 H   0  0  0  0  0  0  0  0  0  0  0  0
  177.4718   18.8908   46.8238 H   0  0  0  0  0  0  0  0  0  0  0  0
  178.4678   17.0572   45.4801 H   0  0  0  0  0  0  0  0  0  0  0  0
  180.6045   15.5576   45.7387 H   0  0  0  0  0  0  0  0  0  0  0  0
  179.3751   15.6215   44.4284 H   0  0  0  0  0  0  0  0  0  0  0  0
  182.3080   14.7473   44.1418 H   0  0  0  0  0  0  0  0  0  0  0  0
  180.8335   13.6834   44.0912 H   0  0  0  0  0  0  0  0  0  0  0  0
  180.1630   14.7440   42.1090 H   0  0  0  0  0  0  0  0  0  0  0  0
  182.4808   13.2642   42.3963 H   0  0  0  0  0  0  0  0  0  0  0  0
  181.3006   13.2762   41.0421 H   0  0  0  0  0  0  0  0  0  0  0  0
  182.6794   14.4276   41.0421 H   0  0  0  0  0  0  0  0  0  0  0  0
  182.6276   16.3635   42.2940 H   0  0  0  0  0  0  0  0  0  0  0  0
  181.3572   16.4178   40.9904 H   0  0  0  0  0  0  0  0  0  0  0  0
  181.1746   18.3274   42.6107 H   0  0  0  0  0  0  0  0  0  0  0  0
  179.7093   17.2843   42.5643 H   0  0  0  0  0  0  0  0  0  0  0  0
  1  2  1  0
  2  3  1  0
  3  4  2  0
  4  5  1  0
  5  6  1  0
  6  7  1  0
  7  8  1  0
  8  9  2  0
  9 10  1  0
 10 11  2  0
 11 12  1  0
 12 13  1  0
 12 14  2  0
 14 15  1  0
 15 16  2  0
 15 17  1  0
 17 18  1  0
  5 19  2  0
 19 20  1  0
 20 21  2  0
 21 22  1  0
 22 23  1  0
 23 24  1  0
 24 25  1  0
 25 26  1  0
 25 27  1  0
 27 28  1  0
 21  3  1  0
 28 22  1  0
 17  6  2  0
 14  8  1  0
  1 29  1  0
  1 30  1  0
  1 31  1  0
  2 32  1  0
  2 33  1  0
  4 34  1  0
  9 35  1  0
 10 36  1  0
 11 37  1  0
 13 38  1  0
 18 39  1  0
 19 40  1  0
 20 41  1  0
 23 42  1  0
 23 43  1  0
 24 44  1  0
 24 45  1  0
 25 46  1  0
 26 47  1  0
 26 48  1  0
 26 49  1  0
 27 50  1  0
 27 51  1  0
 28 52  1  0
 28 53  1  0
M  CHG  1  25   1
M  END
>  <meeko>  (3) 
{"is_sidechain": [false], "free_energy": -5.631, "intermolecular_energy": -6.032, "internal_energy": 0.039}

$$$$
cand_025_out
     RDKit          3D

 53 56  0  0  0  0  0  0  0  0999 V2000
  183.3600   22.0060   45.4130 C   0  0  0  0  0  0  0  0  0  0  0  0
  184.4230   22.8540   44.7300 C   0  0  0  0  0  0  0  0  0  0  0  0
  185.4500   23.3740   45.7110 C   0  0  0  0  0  0  0  0  0  0  0  0
  185.0090   23.8420   46.9660 C   0  0  0  0  0  0  0  0  0  0  0  0
  185.9050   24.3440   47.9170 C   0  0  0  0  0  0  0  0  0  0  0  0
  185.4470   24.8590   49.2240 C   0  0  0  0  0  0  0  0  0  0  0  0
  184.7940   26.0820   49.1250 O   0  0  0  0  0  0  0  0  0  0  0  0
  184.3150   26.6730   50.2660 C   0  0  0  0  0  0  0  0  0  0  0  0
  183.6520   27.8910   50.1190 C   0  0  0  0  0  0  0  0  0  0  0  0
  183.1410   28.5480   51.2410 C   0  0  0  0  0  0  0  0  0  0  0  0
  183.2950   27.9860   52.5100 C   0  0  0  0  0  0  0  0  0  0  0  0
  183.9570   26.7700   52.6540 C   0  0  0  0  0  0  0  0  0  0  0  0
  184.0720   26.2760   53.9250 O   0  0  0  0  0  0  0  0  0  0  0  0
  184.4670   26.1130   51.5320 C   0  0  0  0  0  0  0  0  0  0  0  0
  185.1690   24.8330   51.6390 C   0  0  0  0  0  0  0  0  0  0  0  0
  185.3490   24.2800   52.7220 O   0  0  0  0  0  0  0  0  0  0  0  0
  185.6640   24.2160   50.3870 C   0  0  0  0  0  0  0  0  0  0  0  0
  186.3360   23.0140   50.5030 O   0  0  0  0  0  0  0  0  0  0  0  0
  187.2630   24.3930   47.5860 C   0  0  0  0  0  0  0  0  0  0  0  0
  187.7130   23.9390   46.3420 C   0  0  0  0  0  0  0  0  0  0  0  0
  186.8200   23.4320   45.3860 C   0  0  0  0  0  0  0  0  0  0  0  0
  187.2530   22.9670   44.1290 N   0  0  0  0  0  0  0  0  0  0  0  0
  186.5420   21.7610   43.6500 C   0  0  0  0  0  0  0  0  0  0  0  0
  187.1890   21.2630   42.3350 C   0  0  0  0  0  0  0  0  0  0  0  0
  187.1960   22.3030   41.2790 N   0  0  0  0  0  0  0  0  0  0  0  0
  187.8630   21.8090   40.0760 C   0  0  0  0  0  0  0  0  0  0  0  0
  187.8800   23.5130   41.7950 C   0  0  0  0  0  0  0  0  0  0  0  0
  187.2540   24.0390   43.1090 C   0  0  0  0  0  0  0  0  0  0  0  0
  183.4677   22.0920   46.5043 H   0  0  0  0  0  0  0  0  0  0  0  0
  182.3618   22.3586   45.1142 H   0  0  0  0  0  0  0  0  0  0  0  0
  183.4820   20.9544   45.1142 H   0  0  0  0  0  0  0  0  0  0  0  0
  184.9338   22.2410   43.9728 H   0  0  0  0  0  0  0  0  0  0  0  0
  183.9234   23.7196   44.2705 H   0  0  0  0  0  0  0  0  0  0  0  0
  183.9353   23.8118   47.2033 H   0  0  0  0  0  0  0  0  0  0  0  0
  183.5314   28.3344   49.1196 H   0  0  0  0  0  0  0  0  0  0  0  0
  182.6172   29.5083   51.1248 H   0  0  0  0  0  0  0  0  0  0  0  0
  182.8940   28.5032   53.3941 H   0  0  0  0  0  0  0  0  0  0  0  0
  183.7300   25.4280   54.1310 H   0  0  0  0  0  0  0  0  0  0  0  0
  187.2640   23.0060   50.6350 H   0  0  0  0  0  0  0  0  0  0  0  0
  187.9855   24.7932   48.3125 H   0  0  0  0  0  0  0  0  0  0  0  0
  188.7872   23.9802   46.1088 H   0  0  0  0  0  0  0  0  0  0  0  0
  186.6078   20.9707   44.4123 H   0  0  0  0  0  0  0  0  0  0  0  0
  185.4863   22.0091   43.4659 H   0  0  0  0  0  0  0  0  0  0  0  0
  188.2269   20.9641   42.5432 H   0  0  0  0  0  0  0  0  0  0  0  0
  186.5914   20.4159   41.9672 H   0  0  0  0  0  0  0  0  0  0  0  0
  186.2350   22.5370   41.0300 H   0  0  0  0  0  0  0  0  0  0  0  0
  188.7163   21.1770   40.3632 H   0  0  0  0  0  0  0  0  0  0  0  0
  187.1528   21.2173   39.4797 H   0  0  0  0  0  0  0  0  0  0  0  0
  188.2219   22.6608   39.4797 H   0  0  0  0  0  0  0  0  0  0  0  0
  188.9358   23.2675   41.9819 H   0  0  0  0  0  0  0  0  0  0  0  0
  187.7738   24.3031   41.0371 H   0  0  0  0  0  0  0  0  0  0  0  0
  187.8419   24.8927   43.4773 H   0  0  0  0  0  0  0  0  0  0  0  0
  186.2188   24.3570   42.9159 H   0  0  0  0  0  0  0  0  0  0  0  0
  1  2  1  0
  2  3  1  0
  3  4  2  0
  4  5  1  0
  5  6  1  0
  6  7  1  0
  7  8  1  0
  8  9  2  0
  9 10  1  0
 10 11  2  0
 11 12  1  0
 12 13  1  0
 12 14  2  0
 14 15  1  0
 15 16  2  0
 15 17  1  0
 17 18  1  0
  5 19  2  0
 19 20  1  0
 20 21  2  0
 21 22  1  0
 22 23  1  0
 23 24  1  0
 24 25  1  0
 25 26  1  0
 25 27  1  0
 27 28  1  0
 21  3  1  0
 28 22  1  0
 17  6  2  0
 14  8  1  0
  1 29  1  0
  1 30  1  0
  1 31  1  0
  2 32  1  0
  2 33  1  0
  4 34  1  0
  9 35  1  0
 10 36  1  0
 11 37  1  0
 13 38  1  0
 18 39  1  0
 19 40  1  0
 20 41  1  0
 23 42  1  0
 23 43  1  0
 24 44  1  0
 24 45  1  0
 25 46  1  0
 26 47  1  0
 26 48  1  0
 26 49  1  0
 27 50  1  0
 27 51  1  0
 28 52  1  0
 28 53  1  0
M  CHG  1  25   1
M  END
>  <meeko>  (4) 
{"is_sidechain": [false], "free_energy": -5.347, "intermolecular_energy": -6.235, "internal_energy": 0.592}

$$$$
cand_025_out
     RDKit          3D

 53 56  0  0  0  0  0  0  0  0999 V2000
  183.9560   24.7920   45.0870 C   0  0  0  0  0  0  0  0  0  0  0  0
  185.4300   25.1630   45.1250 C   0  0  0  0  0  0  0  0  0  0  0  0
  186.1480   24.5150   46.2880 C   0  0  0  0  0  0  0  0  0  0  0  0
  185.8930   24.9920   47.5900 C   0  0  0  0  0  0  0  0  0  0  0  0
  186.5290   24.4430   48.7100 C   0  0  0  0  0  0  0  0  0  0  0  0
  186.2860   24.9550   50.0750 C   0  0  0  0  0  0  0  0  0  0  0  0
  187.1250   26.0100   50.4140 O   0  0  0  0  0  0  0  0  0  0  0  0
  187.0050   26.5820   51.6540 C   0  0  0  0  0  0  0  0  0  0  0  0
  187.8560   27.6480   51.9460 C   0  0  0  0  0  0  0  0  0  0  0  0
  187.7870   28.2750   53.1930 C   0  0  0  0  0  0  0  0  0  0  0  0
  186.8670   27.8340   54.1460 C   0  0  0  0  0  0  0  0  0  0  0  0
  186.0180   26.7700   53.8520 C   0  0  0  0  0  0  0  0  0  0  0  0
  185.1420   26.3900   54.8320 O   0  0  0  0  0  0  0  0  0  0  0  0
  186.0870   26.1440   52.6050 C   0  0  0  0  0  0  0  0  0  0  0  0
  185.2140   25.0230   52.2550 C   0  0  0  0  0  0  0  0  0  0  0  0
  184.3840   24.5750   53.0440 O   0  0  0  0  0  0  0  0  0  0  0  0
  185.3620   24.4350   50.9050 C   0  0  0  0  0  0  0  0  0  0  0  0
  184.5410   23.3680   50.5900 O   0  0  0  0  0  0  0  0  0  0  0  0
  187.4500   23.4090   48.5080 C   0  0  0  0  0  0  0  0  0  0  0  0
  187.7170   22.9310   47.2210 C   0  0  0  0  0  0  0  0  0  0  0  0
  187.0810   23.4760   46.0950 C   0  0  0  0  0  0  0  0  0  0  0  0
  187.3330   23.0060   44.7920 N   0  0  0  0  0  0  0  0  0  0  0  0
  186.3570   22.0050   44.3080 C   0  0  0  0  0  0  0  0  0  0  0  0
  186.8070   21.4620   42.9300 C   0  0  0  0  0  0  0  0  0  0  0  0
  186.9740   22.5390   41.9250 N   0  0  0  0  0  0  0  0  0  0  0  0
  187.4510   21.9900   40.6580 C   0  0  0  0  0  0  0  0  0  0  0  0
  187.9270   23.5480   42.4480 C   0  0  0  0  0  0  0  0  0  0  0  0
  187.5030   24.1130   43.8240 C   0  0  0  0  0  0  0  0  0  0  0  0
  183.5754   24.6962   46.1146 H   0  0  0  0  0  0  0  0  0  0  0  0
  183.3939   25.5767   44.5595 H   0  0  0  0  0  0  0  0  0  0  0  0
  183.8323   23.8347   44.5595 H   0  0  0  0  0  0  0  0  0  0  0  0
  185.9031   24.8343   44.1879 H   0  0  0  0  0  0  0  0  0  0  0  0
  185.5026   26.2539   45.2463 H   0  0  0  0  0  0  0  0  0  0  0  0
  185.1771   25.8154   47.7293 H   0  0  0  0  0  0  0  0  0  0  0  0
  188.5811   27.9949   51.1950 H   0  0  0  0  0  0  0  0  0  0  0  0
  188.4575   29.1159   53.4237 H   0  0  0  0  0  0  0  0  0  0  0  0
  186.8128   28.3265   55.1281 H   0  0  0  0  0  0  0  0  0  0  0  0
  185.2920   25.6000   55.3140 H   0  0  0  0  0  0  0  0  0  0  0  0
  183.8340   23.4830   49.9870 H   0  0  0  0  0  0  0  0  0  0  0  0
  187.9697   22.9672   49.3710 H   0  0  0  0  0  0  0  0  0  0  0  0
  188.4394   22.1121   47.0888 H   0  0  0  0  0  0  0  0  0  0  0  0
  186.2980   21.1745   45.0268 H   0  0  0  0  0  0  0  0  0  0  0  0
  185.3689   22.4780   44.2083 H   0  0  0  0  0  0  0  0  0  0  0  0
  187.7680   20.9410   43.0524 H   0  0  0  0  0  0  0  0  0  0  0  0
  186.0232   20.7818   42.5654 H   0  0  0  0  0  0  0  0  0  0  0  0
  186.0720   22.9830   41.7530 H   0  0  0  0  0  0  0  0  0  0  0  0
  188.1606   21.1732   40.8563 H   0  0  0  0  0  0  0  0  0  0  0  0
  186.5978   21.6026   40.0819 H   0  0  0  0  0  0  0  0  0  0  0  0
  187.9537   22.7808   40.0819 H   0  0  0  0  0  0  0  0  0  0  0  0
  188.9162   23.0779   42.5503 H   0  0  0  0  0  0  0  0  0  0  0  0
  187.9466   24.3866   41.7364 H   0  0  0  0  0  0  0  0  0  0  0  0
  188.2785   24.8019   44.1901 H   0  0  0  0  0  0  0  0  0  0  0  0
  186.5492   24.6503   43.7168 H   0  0  0  0  0  0  0  0  0  0  0  0
  1  2  1  0
  2  3  1  0
  3  4  2  0
  4  5  1  0
  5  6  1  0
  6  7  1  0
  7  8  1  0
  8  9  2  0
  9 10  1  0
 10 11  2  0
 11 12  1  0
 12 13  1  0
 12 14  2  0
 14 15  1  0
 15 16  2  0
 15 17  1  0
 17 18  1  0
  5 19  2  0
 19 20  1  0
 20 21  2  0
 21 22  1  0
 22 23  1  0
 23 24  1  0
 24 25  1  0
 25 26  1  0
 25 27  1  0
 27 28  1  0
 21  3  1  0
 28 22  1  0
 17  6  2  0
 14  8  1  0
  1 29  1  0
  1 30  1  0
  1 31  1  0
  2 32  1  0
  2 33  1  0
  4 34  1  0
  9 35  1  0
 10 36  1  0
 11 37  1  0
 13 38  1  0
 18 39  1  0
 19 40  1  0
 20 41  1  0
 23 42  1  0
 23 43  1  0
 24 44  1  0
 24 45  1  0
 25 46  1  0
 26 47  1  0
 26 48  1  0
 26 49  1  0
 27 50  1  0
 27 51  1  0
 28 52  1  0
 28 53  1  0
M  CHG  1  25   1
M  END
>  <meeko>  (5) 
{"is_sidechain": [false], "free_energy": -5.119, "intermolecular_energy": -5.813, "internal_energy": 0.451}

$$$$
cand_025_out
     RDKit          3D

 53 56  0  0  0  0  0  0  0  0999 V2000
  182.2010   21.4480   46.5840 C   0  0  0  0  0  0  0  0  0  0  0  0
  181.1270   21.0390   47.5800 C   0  0  0  0  0  0  0  0  0  0  0  0
  180.0920   20.1300   46.9560 C   0  0  0  0  0  0  0  0  0  0  0  0
  180.5270   19.0970   46.1010 C   0  0  0  0  0  0  0  0  0  0  0  0
  179.6220   18.2250   45.4830 C   0  0  0  0  0  0  0  0  0  0  0  0
  180.0700   17.1570   44.5660 C   0  0  0  0  0  0  0  0  0  0  0  0
  180.4090   17.6330   43.3050 O   0  0  0  0  0  0  0  0  0  0  0  0
  180.8430   16.7460   42.3540 C   0  0  0  0  0  0  0  0  0  0  0  0
  181.1880   17.2700   41.1080 C   0  0  0  0  0  0  0  0  0  0  0  0
  181.6360   16.4200   40.0940 C   0  0  0  0  0  0  0  0  0  0  0  0
  181.7390   15.0470   40.3270 C   0  0  0  0  0  0  0  0  0  0  0  0
  181.3960   14.5270   41.5720 C   0  0  0  0  0  0  0  0  0  0  0  0
  181.5200   13.1740   41.7320 O   0  0  0  0  0  0  0  0  0  0  0  0
  180.9480   15.3770   42.5860 C   0  0  0  0  0  0  0  0  0  0  0  0
  180.5760   14.8720   43.9090 C   0  0  0  0  0  0  0  0  0  0  0  0
  180.6340   13.6760   44.1870 O   0  0  0  0  0  0  0  0  0  0  0  0
  180.1210   15.8570   44.9160 C   0  0  0  0  0  0  0  0  0  0  0  0
  179.7610   15.3670   46.1570 O   0  0  0  0  0  0  0  0  0  0  0  0
  178.2560   18.4140   45.7190 C   0  0  0  0  0  0  0  0  0  0  0  0
  177.8100   19.4390   46.5590 C   0  0  0  0  0  0  0  0  0  0  0  0
  178.7130   20.3130   47.1830 C   0  0  0  0  0  0  0  0  0  0  0  0
  178.2840   21.3490   48.0360 N   0  0  0  0  0  0  0  0  0  0  0  0
  178.4780   22.7080   47.4860 C   0  0  0  0  0  0  0  0  0  0  0  0
  178.1030   23.7620   48.5550 C   0  0  0  0  0  0  0  0  0  0  0  0
  176.7120   23.6030   49.0420 N   0  0  0  0  0  0  0  0  0  0  0  0
  176.4180   24.5810   50.0870 C   0  0  0  0  0  0  0  0  0  0  0  0
  176.5310   22.2230   49.5540 C   0  0  0  0  0  0  0  0  0  0  0  0
  176.8960   21.1450   48.5060 C   0  0  0  0  0  0  0  0  0  0  0  0
  183.0947   21.7883   47.1276 H   0  0  0  0  0  0  0  0  0  0  0  0
  182.4622   20.5864   45.9520 H   0  0  0  0  0  0  0  0  0  0  0  0
  181.8229   22.2651   45.9520 H   0  0  0  0  0  0  0  0  0  0  0  0
  181.6035   20.5111   48.4192 H   0  0  0  0  0  0  0  0  0  0  0  0
  180.6160   21.9510   47.9221 H   0  0  0  0  0  0  0  0  0  0  0  0
  181.6040   18.9728   45.9146 H   0  0  0  0  0  0  0  0  0  0  0  0
  181.1073   18.3515   40.9242 H   0  0  0  0  0  0  0  0  0  0  0  0
  181.9079   16.8325   39.1112 H   0  0  0  0  0  0  0  0  0  0  0  0
  182.0906   14.3775   39.5282 H   0  0  0  0  0  0  0  0  0  0  0  0
  181.2020   12.5920   41.0690 H   0  0  0  0  0  0  0  0  0  0  0  0
  179.3580   14.5250   46.2290 H   0  0  0  0  0  0  0  0  0  0  0  0
  177.5242   17.7483   45.2380 H   0  0  0  0  0  0  0  0  0  0  0  0
  176.7310   19.5625   46.7339 H   0  0  0  0  0  0  0  0  0  0  0  0
  179.5314   22.8387   47.1975 H   0  0  0  0  0  0  0  0  0  0  0  0
  177.8342   22.8391   46.6038 H   0  0  0  0  0  0  0  0  0  0  0  0
  178.7898   23.6596   49.4081 H   0  0  0  0  0  0  0  0  0  0  0  0
  178.1838   24.7553   48.0893 H   0  0  0  0  0  0  0  0  0  0  0  0
  176.0640   23.7650   48.2710 H   0  0  0  0  0  0  0  0  0  0  0  0
  176.5578   24.1161   51.0741 H   0  0  0  0  0  0  0  0  0  0  0  0
  177.0976   25.4402   49.9868 H   0  0  0  0  0  0  0  0  0  0  0  0
  175.3773   24.9230   49.9868 H   0  0  0  0  0  0  0  0  0  0  0  0
  177.1737   22.0879   50.4364 H   0  0  0  0  0  0  0  0  0  0  0  0
  175.4669   22.0977   49.8029 H   0  0  0  0  0  0  0  0  0  0  0  0
  176.8083   20.1481   48.9625 H   0  0  0  0  0  0  0  0  0  0  0  0
  176.2088   21.2241   47.6507 H   0  0  0  0  0  0  0  0  0  0  0  0
  1  2  1  0
  2  3  1  0
  3  4  2  0
  4  5  1  0
  5  6  1  0
  6  7  1  0
  7  8  1  0
  8  9  2  0
  9 10  1  0
 10 11  2  0
 11 12  1  0
 12 13  1  0
 12 14  2  0
 14 15  1  0
 15 16  2  0
 15 17  1  0
 17 18  1  0
  5 19  2  0
 19 20  1  0
 20 21  2  0
 21 22  1  0
 22 23  1  0
 23 24  1  0
 24 25  1  0
 25 26  1  0
 25 27  1  0
 27 28  1  0
 21  3  1  0
 28 22  1  0
 17  6  2  0
 14  8  1  0
  1 29  1  0
  1 30  1  0
  1 31  1  0
  2 32  1  0
  2 33  1  0
  4 34  1  0
  9 35  1  0
 10 36  1  0
 11 37  1  0
 13 38  1  0
 18 39  1  0
 19 40  1  0
 20 41  1  0
 23 42  1  0
 23 43  1  0
 24 44  1  0
 24 45  1  0
 25 46  1  0
 26 47  1  0
 26 48  1  0
 26 49  1  0
 27 50  1  0
 27 51  1  0
 28 52  1  0
 28 53  1  0
M  CHG  1  25   1
M  END
>  <meeko>  (6) 
{"is_sidechain": [false], "free_energy": -5.096, "intermolecular_energy": -5.002, "internal_energy": -0.331}

$$$$
cand_025_out
     RDKit          3D

 53 56  0  0  0  0  0  0  0  0999 V2000
  178.5430   23.6550   47.7440 C   0  0  0  0  0  0  0  0  0  0  0  0
  179.0350   22.2940   48.2150 C   0  0  0  0  0  0  0  0  0  0  0  0
  180.0460   21.6970   47.2620 C   0  0  0  0  0  0  0  0  0  0  0  0
  181.2750   22.3620   47.0770 C   0  0  0  0  0  0  0  0  0  0  0  0
  182.2520   21.8680   46.2030 C   0  0  0  0  0  0  0  0  0  0  0  0
  183.5320   22.5740   45.9850 C   0  0  0  0  0  0  0  0  0  0  0  0
  184.0460   22.3800   44.7090 O   0  0  0  0  0  0  0  0  0  0  0  0
  185.2320   22.9800   44.3720 C   0  0  0  0  0  0  0  0  0  0  0  0
  185.7030   22.7720   43.0760 C   0  0  0  0  0  0  0  0  0  0  0  0
  186.9060   23.3540   42.6680 C   0  0  0  0  0  0  0  0  0  0  0  0
  187.6360   24.1430   43.5580 C   0  0  0  0  0  0  0  0  0  0  0  0
  187.1640   24.3510   44.8510 C   0  0  0  0  0  0  0  0  0  0  0  0
  187.9300   25.1350   45.6700 O   0  0  0  0  0  0  0  0  0  0  0  0
  185.9610   23.7690   45.2580 C   0  0  0  0  0  0  0  0  0  0  0  0
  185.4290   23.9620   46.6080 C   0  0  0  0  0  0  0  0  0  0  0  0
  186.0180   24.6370   47.4480 O   0  0  0  0  0  0  0  0  0  0  0  0
  184.1410   23.3080   46.9360 C   0  0  0  0  0  0  0  0  0  0  0  0
  183.6550   23.4860   48.2180 O   0  0  0  0  0  0  0  0  0  0  0  0
  181.9730   20.6960   45.4930 C   0  0  0  0  0  0  0  0  0  0  0  0
  180.7550   20.0300   45.6620 C   0  0  0  0  0  0  0  0  0  0  0  0
  179.7730   20.5180   46.5380 C   0  0  0  0  0  0  0  0  0  0  0  0
  178.5430   19.8610   46.7250 N   0  0  0  0  0  0  0  0  0  0  0  0
  177.3670   20.6280   46.2590 C   0  0  0  0  0  0  0  0  0  0  0  0
  176.0690   19.8740   46.6380 C   0  0  0  0  0  0  0  0  0  0  0  0
  176.0320   18.4990   46.0860 N   0  0  0  0  0  0  0  0  0  0  0  0
  174.8180   17.8070   46.5110 C   0  0  0  0  0  0  0  0  0  0  0  0
  177.2370   17.7630   46.5350 C   0  0  0  0  0  0  0  0  0  0  0  0
  178.5530   18.4900   46.1690 C   0  0  0  0  0  0  0  0  0  0  0  0
  178.3153   24.2847   48.6167 H   0  0  0  0  0  0  0  0  0  0  0  0
  179.3237   24.1373   47.1374 H   0  0  0  0  0  0  0  0  0  0  0  0
  177.6344   23.5266   47.1374 H   0  0  0  0  0  0  0  0  0  0  0  0
  179.5031   22.4082   49.2038 H   0  0  0  0  0  0  0  0  0  0  0  0
  178.1695   21.6167   48.2607 H   0  0  0  0  0  0  0  0  0  0  0  0
  181.4716   23.2910   47.6322 H   0  0  0  0  0  0  0  0  0  0  0  0
  185.1275   22.1497   42.3749 H   0  0  0  0  0  0  0  0  0  0  0  0
  187.2775   23.1903   41.6457 H   0  0  0  0  0  0  0  0  0  0  0  0
  188.5839   24.6003   43.2380 H   0  0  0  0  0  0  0  0  0  0  0  0
  188.4040   25.8610   45.3140 H   0  0  0  0  0  0  0  0  0  0  0  0
  184.2120   23.3350   48.9560 H   0  0  0  0  0  0  0  0  0  0  0  0
  182.7203   20.2933   44.7934 H   0  0  0  0  0  0  0  0  0  0  0  0
  180.5629   19.1057   45.0974 H   0  0  0  0  0  0  0  0  0  0  0  0
  177.3657   21.6200   46.7342 H   0  0  0  0  0  0  0  0  0  0  0  0
  177.4162   20.7422   45.1660 H   0  0  0  0  0  0  0  0  0  0  0  0
  176.0014   19.8163   47.7344 H   0  0  0  0  0  0  0  0  0  0  0  0
  175.2215   20.4298   46.2103 H   0  0  0  0  0  0  0  0  0  0  0  0
  176.0250   18.5450   45.0660 H   0  0  0  0  0  0  0  0  0  0  0  0
  174.7754   17.7827   47.6099 H   0  0  0  0  0  0  0  0  0  0  0  0
  173.9374   18.3388   46.1216 H   0  0  0  0  0  0  0  0  0  0  0  0
  174.8269   16.7783   46.1216 H   0  0  0  0  0  0  0  0  0  0  0  0
  177.1914   17.6471   47.6279 H   0  0  0  0  0  0  0  0  0  0  0  0
  177.2418   16.7899   46.0220 H   0  0  0  0  0  0  0  0  0  0  0  0
  179.4052   17.9335   46.5863 H   0  0  0  0  0  0  0  0  0  0  0  0
  178.6441   18.5442   45.0741 H   0  0  0  0  0  0  0  0  0  0  0  0
  1  2  1  0
  2  3  1  0
  3  4  2  0
  4  5  1  0
  5  6  1  0
  6  7  1  0
  7  8  1  0
  8  9  2  0
  9 10  1  0
 10 11  2  0
 11 12  1  0
 12 13  1  0
 12 14  2  0
 14 15  1  0
 15 16  2  0
 15 17  1  0
 17 18  1  0
  5 19  2  0
 19 20  1  0
 20 21  2  0
 21 22  1  0
 22 23  1  0
 23 24  1  0
 24 25  1  0
 25 26  1  0
 25 27  1  0
 27 28  1  0
 21  3  1  0
 28 22  1  0
 17  6  2  0
 14  8  1  0
  1 29  1  0
  1 30  1  0
  1 31  1  0
  2 32  1  0
  2 33  1  0
  4 34  1  0
  9 35  1  0
 10 36  1  0
 11 37  1  0
 13 38  1  0
 18 39  1  0
 19 40  1  0
 20 41  1  0
 23 42  1  0
 23 43  1  0
 24 44  1  0
 24 45  1  0
 25 46  1  0
 26 47  1  0
 26 48  1  0
 26 49  1  0
 27 50  1  0
 27 51  1  0
 28 52  1  0
 28 53  1  0
M  CHG  1  25   1
M  END
>  <meeko>  (7) 
{"is_sidechain": [false], "free_energy": -4.759, "intermolecular_energy": -5.125, "internal_energy": 0.208}

$$$$
cand_025_out
     RDKit          3D

 53 56  0  0  0  0  0  0  0  0999 V2000
  178.5780   23.8150   47.4800 C   0  0  0  0  0  0  0  0  0  0  0  0
  179.0000   22.4720   48.0570 C   0  0  0  0  0  0  0  0  0  0  0  0
  180.1350   21.8500   47.2730 C   0  0  0  0  0  0  0  0  0  0  0  0
  181.3300   22.5810   47.1200 C   0  0  0  0  0  0  0  0  0  0  0  0
  182.4160   22.0690   46.4000 C   0  0  0  0  0  0  0  0  0  0  0  0
  183.6630   22.8400   46.2140 C   0  0  0  0  0  0  0  0  0  0  0  0
  184.1350   23.3980   47.3970 O   0  0  0  0  0  0  0  0  0  0  0  0
  185.2870   24.1400   47.3680 C   0  0  0  0  0  0  0  0  0  0  0  0
  185.7330   24.6680   48.5800 C   0  0  0  0  0  0  0  0  0  0  0  0
  186.9000   25.4350   48.6200 C   0  0  0  0  0  0  0  0  0  0  0  0
  187.6190   25.6740   47.4480 C   0  0  0  0  0  0  0  0  0  0  0  0
  187.1730   25.1460   46.2390 C   0  0  0  0  0  0  0  0  0  0  0  0
  187.9260   25.4190   45.1300 O   0  0  0  0  0  0  0  0  0  0  0  0
  186.0060   24.3790   46.2000 C   0  0  0  0  0  0  0  0  0  0  0  0
  185.5020   23.8050   44.9510 C   0  0  0  0  0  0  0  0  0  0  0  0
  186.0770   23.9780   43.8780 O   0  0  0  0  0  0  0  0  0  0  0  0
  184.2610   23.0010   45.0180 C   0  0  0  0  0  0  0  0  0  0  0  0
  183.7870   22.4750   43.8310 O   0  0  0  0  0  0  0  0  0  0  0  0
  182.2830   20.8070   45.8100 C   0  0  0  0  0  0  0  0  0  0  0  0
  181.1000   20.0750   45.9480 C   0  0  0  0  0  0  0  0  0  0  0  0
  180.0100   20.5820   46.6710 C   0  0  0  0  0  0  0  0  0  0  0  0
  178.8110   19.8590   46.8250 N   0  0  0  0  0  0  0  0  0  0  0  0
  177.5860   20.6720   46.6660 C   0  0  0  0  0  0  0  0  0  0  0  0
  176.3430   19.8100   46.9900 C   0  0  0  0  0  0  0  0  0  0  0  0
  176.2600   18.5950   46.1450 N   0  0  0  0  0  0  0  0  0  0  0  0
  175.1050   17.7840   46.5200 C   0  0  0  0  0  0  0  0  0  0  0  0
  177.5130   17.8160   46.2920 C   0  0  0  0  0  0  0  0  0  0  0  0
  178.7770   18.6500   45.9710 C   0  0  0  0  0  0  0  0  0  0  0  0
  178.3584   24.5139   48.3006 H   0  0  0  0  0  0  0  0  0  0  0  0
  179.3921   24.2203   46.8611 H   0  0  0  0  0  0  0  0  0  0  0  0
  177.6784   23.6818   46.8611 H   0  0  0  0  0  0  0  0  0  0  0  0
  179.3256   22.6189   49.0974 H   0  0  0  0  0  0  0  0  0  0  0  0
  178.1368   21.7923   48.0026 H   0  0  0  0  0  0  0  0  0  0  0  0
  181.4115   23.5781   47.5774 H   0  0  0  0  0  0  0  0  0  0  0  0
  185.1660   24.4804   49.5037 H   0  0  0  0  0  0  0  0  0  0  0  0
  187.2522   25.8507   49.5756 H   0  0  0  0  0  0  0  0  0  0  0  0
  188.5372   26.2789   47.4792 H   0  0  0  0  0  0  0  0  0  0  0  0
  188.5580   26.1110   45.1520 H   0  0  0  0  0  0  0  0  0  0  0  0
  183.8810   21.5600   43.6530 H   0  0  0  0  0  0  0  0  0  0  0  0
  183.1185   20.3864   45.2313 H   0  0  0  0  0  0  0  0  0  0  0  0
  181.0224   19.0823   45.4806 H   0  0  0  0  0  0  0  0  0  0  0  0
  177.6250   21.5303   47.3529 H   0  0  0  0  0  0  0  0  0  0  0  0
  177.5196   21.0320   45.6287 H   0  0  0  0  0  0  0  0  0  0  0  0
  176.3915   19.5033   48.0453 H   0  0  0  0  0  0  0  0  0  0  0  0
  175.4505   20.4202   46.7873 H   0  0  0  0  0  0  0  0  0  0  0  0
  176.1460   18.8700   45.1690 H   0  0  0  0  0  0  0  0  0  0  0  0
  175.0329   17.7334   47.6165 H   0  0  0  0  0  0  0  0  0  0  0  0
  174.1899   18.2389   46.1130 H   0  0  0  0  0  0  0  0  0  0  0  0
  175.2221   16.7688   46.1130 H   0  0  0  0  0  0  0  0  0  0  0  0
  177.5834   17.4554   47.3288 H   0  0  0  0  0  0  0  0  0  0  0  0
  177.4729   16.9841   45.5734 H   0  0  0  0  0  0  0  0  0  0  0  0
  179.6737   18.0424   46.1626 H   0  0  0  0  0  0  0  0  0  0  0  0
  178.7532   18.9529   44.9138 H   0  0  0  0  0  0  0  0  0  0  0  0
  1  2  1  0
  2  3  1  0
  3  4  2  0
  4  5  1  0
  5  6  1  0
  6  7  1  0
  7  8  1  0
  8  9  2  0
  9 10  1  0
 10 11  2  0
 11 12  1  0
 12 13  1  0
 12 14  2  0
 14 15  1  0
 15 16  2  0
 15 17  1  0
 17 18  1  0
  5 19  2  0
 19 20  1  0
 20 21  2  0
 21 22  1  0
 22 23  1  0
 23 24  1  0
 24 25  1  0
 25 26  1  0
 25 27  1  0
 27 28  1  0
 21  3  1  0
 28 22  1  0
 17  6  2  0
 14  8  1  0
  1 29  1  0
  1 30  1  0
  1 31  1  0
  2 32  1  0
  2 33  1  0
  4 34  1  0
  9 35  1  0
 10 36  1  0
 11 37  1  0
 13 38  1  0
 18 39  1  0
 19 40  1  0
 20 41  1  0
 23 42  1  0
 23 43  1  0
 24 44  1  0
 24 45  1  0
 25 46  1  0
 26 47  1  0
 26 48  1  0
 26 49  1  0
 27 50  1  0
 27 51  1  0
 28 52  1  0
 28 53  1  0
M  CHG  1  25   1
M  END
>  <meeko>  (8) 
{"is_sidechain": [false], "free_energy": -4.699, "intermolecular_energy": -5.605, "internal_energy": 0.763}

$$$$
