cand_005_out
     RDKit          3D

 36 38  0  0  0  0  0  0  0  0999 V2000
  178.9120   13.9760   44.4350 C   0  0  0  0  0  0  0  0  0  0  0  0
  180.1380   14.4480   44.6920 C   0  0  0  0  0  0  0  0  0  0  0  0
  180.5230   15.8390   44.4200 C   0  0  0  0  0  0  0  0  0  0  0  0
  180.0550   16.8510   45.2780 C   0  0  0  0  0  0  0  0  0  0  0  0
  180.3700   18.2010   45.0630 C   0  0  0  0  0  0  0  0  0  0  0  0
  179.8790   19.2290   46.0050 C   0  0  0  0  0  0  0  0  0  0  0  0
  178.4940   19.2390   46.1210 O   0  0  0  0  0  0  0  0  0  0  0  0
  177.9060   20.1480   46.9630 C   0  0  0  0  0  0  0  0  0  0  0  0
  176.5140   20.1140   47.0600 C   0  0  0  0  0  0  0  0  0  0  0  0
  175.8520   21.0130   47.8980 C   0  0  0  0  0  0  0  0  0  0  0  0
  176.5800   21.9460   48.6400 C   0  0  0  0  0  0  0  0  0  0  0  0
  177.9690   21.9780   48.5410 C   0  0  0  0  0  0  0  0  0  0  0  0
  178.6190   22.9160   49.2930 O   0  0  0  0  0  0  0  0  0  0  0  0
  178.6310   21.0770   47.7020 C   0  0  0  0  0  0  0  0  0  0  0  0
  180.0890   21.0770   47.5700 C   0  0  0  0  0  0  0  0  0  0  0  0
  180.7990   21.8710   48.1840 O   0  0  0  0  0  0  0  0  0  0  0  0
  180.6940   20.0770   46.6600 C   0  0  0  0  0  0  0  0  0  0  0  0
  182.0700   20.0940   46.5300 O   0  0  0  0  0  0  0  0  0  0  0  0
  181.1820   18.5280   43.9730 C   0  0  0  0  0  0  0  0  0  0  0  0
  181.6490   17.5340   43.1090 C   0  0  0  0  0  0  0  0  0  0  0  0
  181.3250   16.1810   43.3160 C   0  0  0  0  0  0  0  0  0  0  0  0
  181.8580   15.1330   42.3680 C   0  0  0  0  0  0  0  0  0  0  0  0
  183.1770   14.8540   42.5650 F   0  0  0  0  0  0  0  0  0  0  0  0
  181.7570   15.4930   41.0550 F   0  0  0  0  0  0  0  0  0  0  0  0
  181.1990   13.9420   42.4640 F   0  0  0  0  0  0  0  0  0  0  0  0
  178.6695   12.9260   44.6557 H   0  0  0  0  0  0  0  0  0  0  0  0
  178.1471   14.6381   44.0032 H   0  0  0  0  0  0  0  0  0  0  0  0
  180.8865   13.7674   45.1239 H   0  0  0  0  0  0  0  0  0  0  0  0
  179.4268   16.5770   46.1384 H   0  0  0  0  0  0  0  0  0  0  0  0
  175.9392   19.3796   46.4767 H   0  0  0  0  0  0  0  0  0  0  0  0
  174.7550   20.9866   47.9741 H   0  0  0  0  0  0  0  0  0  0  0  0
  176.0578   22.6536   49.3008 H   0  0  0  0  0  0  0  0  0  0  0  0
  178.5990   23.8180   49.0390 H   0  0  0  0  0  0  0  0  0  0  0  0
  182.5900   19.4410   46.9560 H   0  0  0  0  0  0  0  0  0  0  0  0
  181.4560   19.5781   43.7937 H   0  0  0  0  0  0  0  0  0  0  0  0
  182.2804   17.8142   42.2529 H   0  0  0  0  0  0  0  0  0  0  0  0
  1  2  2  0
  2  3  1  0
  3  4  2  0
  4  5  1  0
  5  6  1  0
  6  7  1  0
  7  8  1  0
  8  9  2  0
  9 10  1  0
 10 11  2  0
 11 12  1  0
 12 13  1  0
 12 14  2  0
 14 15  1  0
 15 16  2  0
 15 17  1  0
 17 18  1  0
  5 19  2  0
 19 20  1  0
 20 21  2  0
 21 22  1  0
 22 23  1  0
 22 24  1  0
 22 25  1  0
 21  3  1  0
 17  6  2  0
 14  8  1  0
  1 26  1  0
  1 27  1  0
  2 28  1  0
  4 29  1  0
  9 30  1  0
 10 31  1  0
 11 32  1  0
 13 33  1  0
 18 34  1  0
 19 35  1  0
 20 36  1  0
M  END
>  <meeko>  (1) 
{"is_sidechain": [false], "free_energy": -8.288, "intermolecular_energy": -10.226, "internal_energy": 0.143}

$$$$
cand_005_out
     RDKit          3D

 36 38  0  0  0  0  0  0  0  0999 V2000
  174.8670   20.1600   47.5180 C   0  0  0  0  0  0  0  0  0  0  0  0
  175.6910   21.0220   46.9120 C   0  0  0  0  0  0  0  0  0  0  0  0
  177.1500   20.9650   47.0700 C   0  0  0  0  0  0  0  0  0  0  0  0
  177.8700   19.9880   46.3570 C   0  0  0  0  0  0  0  0  0  0  0  0
  179.2630   19.8680   46.4780 C   0  0  0  0  0  0  0  0  0  0  0  0
  179.9830   18.8450   45.6910 C   0  0  0  0  0  0  0  0  0  0  0  0
  179.3730   17.5970   45.7410 O   0  0  0  0  0  0  0  0  0  0  0  0
  179.9410   16.5540   45.0540 C   0  0  0  0  0  0  0  0  0  0  0  0
  179.2890   15.3220   45.1200 C   0  0  0  0  0  0  0  0  0  0  0  0
  179.8150   14.2190   44.4450 C   0  0  0  0  0  0  0  0  0  0  0  0
  180.9920   14.3470   43.7040 C   0  0  0  0  0  0  0  0  0  0  0  0
  181.6410   15.5780   43.6400 C   0  0  0  0  0  0  0  0  0  0  0  0
  182.7880   15.6320   42.8980 O   0  0  0  0  0  0  0  0  0  0  0  0
  181.1140   16.6810   44.3160 C   0  0  0  0  0  0  0  0  0  0  0  0
  181.7650   17.9920   44.2740 C   0  0  0  0  0  0  0  0  0  0  0  0
  182.8060   18.1830   43.6500 O   0  0  0  0  0  0  0  0  0  0  0  0
  181.1210   19.0990   45.0190 C   0  0  0  0  0  0  0  0  0  0  0  0
  181.7510   20.3290   44.9860 O   0  0  0  0  0  0  0  0  0  0  0  0
  179.9360   20.7590   47.3200 C   0  0  0  0  0  0  0  0  0  0  0  0
  179.2330   21.7300   48.0380 C   0  0  0  0  0  0  0  0  0  0  0  0
  177.8360   21.8450   47.9270 C   0  0  0  0  0  0  0  0  0  0  0  0
  177.1110   22.9150   48.7090 C   0  0  0  0  0  0  0  0  0  0  0  0
  176.3610   23.7370   47.9240 F   0  0  0  0  0  0  0  0  0  0  0  0
  177.9520   23.7420   49.3970 F   0  0  0  0  0  0  0  0  0  0  0  0
  176.2620   22.4070   49.6480 F   0  0  0  0  0  0  0  0  0  0  0  0
  173.7801   20.2415   47.3700 H   0  0  0  0  0  0  0  0  0  0  0  0
  175.2763   19.3697   48.1644 H   0  0  0  0  0  0  0  0  0  0  0  0
  175.2590   21.8040   46.2703 H   0  0  0  0  0  0  0  0  0  0  0  0
  177.3280   19.3023   45.6891 H   0  0  0  0  0  0  0  0  0  0  0  0
  178.3618   15.2201   45.7031 H   0  0  0  0  0  0  0  0  0  0  0  0
  179.3017   13.2475   44.4968 H   0  0  0  0  0  0  0  0  0  0  0  0
  181.4057   13.4776   43.1720 H   0  0  0  0  0  0  0  0  0  0  0  0
  183.2390   14.8420   42.6730 H   0  0  0  0  0  0  0  0  0  0  0  0
  181.5640   20.9340   44.2950 H   0  0  0  0  0  0  0  0  0  0  0  0
  181.0297   20.6948   47.4181 H   0  0  0  0  0  0  0  0  0  0  0  0
  179.7814   22.4155   48.7008 H   0  0  0  0  0  0  0  0  0  0  0  0
  1  2  2  0
  2  3  1  0
  3  4  2  0
  4  5  1  0
  5  6  1  0
  6  7  1  0
  7  8  1  0
  8  9  2  0
  9 10  1  0
 10 11  2  0
 11 12  1  0
 12 13  1  0
 12 14  2  0
 14 15  1  0
 15 16  2  0
 15 17  1  0
 17 18  1  0
  5 19  2  0
 19 20  1  0
 20 21  2  0
 21 22  1  0
 22 23  1  0
 22 24  1  0
 22 25  1  0
 21  3  1  0
 17  6  2  0
 14  8  1  0
  1 26  1  0
  1 27  1  0
  2 28  1  0
  4 29  1  0
  9 30  1  0
 10 31  1  0
 11 32  1  0
 13 33  1  0
 18 34  1  0
 19 35  1  0
 20 36  1  0
M  END
>  <meeko>  (2) 
{"is_sidechain": [false], "free_energy": -7.989, "intermolecular_energy": -9.381, "internal_energy": -0.333}

$$$$
cand_005_out
     RDKit          3D

 36 38  0  0  0  0  0  0  0  0999 V2000
  181.1970   17.2290   41.0030 C   0  0  0  0  0  0  0  0  0  0  0  0
  181.7690   17.1880   42.2120 C   0  0  0  0  0  0  0  0  0  0  0  0
  180.9940   17.0080   43.4460 C   0  0  0  0  0  0  0  0  0  0  0  0
  180.7290   18.1330   44.2490 C   0  0  0  0  0  0  0  0  0  0  0  0
  180.0110   18.0260   45.4500 C   0  0  0  0  0  0  0  0  0  0  0  0
  179.7330   19.2380   46.2500 C   0  0  0  0  0  0  0  0  0  0  0  0
  178.3850   19.5750   46.2700 O   0  0  0  0  0  0  0  0  0  0  0  0
  177.9900   20.6830   46.9760 C   0  0  0  0  0  0  0  0  0  0  0  0
  176.6260   20.9780   46.9800 C   0  0  0  0  0  0  0  0  0  0  0  0
  176.1570   22.0930   47.6780 C   0  0  0  0  0  0  0  0  0  0  0  0
  177.0500   22.9120   48.3720 C   0  0  0  0  0  0  0  0  0  0  0  0
  178.4110   22.6150   48.3650 C   0  0  0  0  0  0  0  0  0  0  0  0
  179.2290   23.4590   49.0650 O   0  0  0  0  0  0  0  0  0  0  0  0
  178.8800   21.4990   47.6670 C   0  0  0  0  0  0  0  0  0  0  0  0
  180.3020   21.1520   47.6360 C   0  0  0  0  0  0  0  0  0  0  0  0
  181.1500   21.8270   48.2150 O   0  0  0  0  0  0  0  0  0  0  0  0
  180.6940   19.9450   46.8720 C   0  0  0  0  0  0  0  0  0  0  0  0
  182.0410   19.6340   46.8360 O   0  0  0  0  0  0  0  0  0  0  0  0
  179.5440   16.7650   45.8350 C   0  0  0  0  0  0  0  0  0  0  0  0
  179.8040   15.6390   45.0490 C   0  0  0  0  0  0  0  0  0  0  0  0
  180.5330   15.7420   43.8510 C   0  0  0  0  0  0  0  0  0  0  0  0
  180.7850   14.5040   43.0220 C   0  0  0  0  0  0  0  0  0  0  0  0
  182.0900   14.3600   42.6600 F   0  0  0  0  0  0  0  0  0  0  0  0
  180.0810   14.4870   41.8530 F   0  0  0  0  0  0  0  0  0  0  0  0
  180.4390   13.3520   43.6650 F   0  0  0  0  0  0  0  0  0  0  0  0
  181.8177   17.3657   40.1052 H   0  0  0  0  0  0  0  0  0  0  0  0
  180.1061   17.1260   40.9069 H   0  0  0  0  0  0  0  0  0  0  0  0
  182.8616   17.2932   42.2841 H   0  0  0  0  0  0  0  0  0  0  0  0
  181.0934   19.1198   43.9275 H   0  0  0  0  0  0  0  0  0  0  0  0
  175.9214   20.3333   46.4342 H   0  0  0  0  0  0  0  0  0  0  0  0
  175.0821   22.3265   47.6811 H   0  0  0  0  0  0  0  0  0  0  0  0
  176.6798   23.7893   48.9227 H   0  0  0  0  0  0  0  0  0  0  0  0
  180.1020   23.6210   48.7650 H   0  0  0  0  0  0  0  0  0  0  0  0
  182.3150   18.7390   46.7810 H   0  0  0  0  0  0  0  0  0  0  0  0
  178.9666   16.6585   46.7652 H   0  0  0  0  0  0  0  0  0  0  0  0
  179.4321   14.6558   45.3729 H   0  0  0  0  0  0  0  0  0  0  0  0
  1  2  2  0
  2  3  1  0
  3  4  2  0
  4  5  1  0
  5  6  1  0
  6  7  1  0
  7  8  1  0
  8  9  2  0
  9 10  1  0
 10 11  2  0
 11 12  1  0
 12 13  1  0
 12 14  2  0
 14 15  1  0
 15 16  2  0
 15 17  1  0
 17 18  1  0
  5 19  2  0
 19 20  1  0
 20 21  2  0
 21 22  1  0
 22 23  1  0
 22 24  1  0
 22 25  1  0
 21  3  1  0
 17  6  2  0
 14  8  1  0
  1 26  1  0
  1 27  1  0
  2 28  1  0
  4 29  1  0
  9 30  1  0
 10 31  1  0
 11 32  1  0
 13 33  1  0
 18 34  1  0
 19 35  1  0
 20 36  1  0
M  END
>  <meeko>  (3) 
{"is_sidechain": [false], "free_energy": -7.488, "intermolecular_energy": -8.798, "internal_energy": -0.298}

$$$$
cand_005_out
     RDKit          3D

 36 38  0  0  0  0  0  0  0  0999 V2000
  178.5860   23.8200   47.5560 C   0  0  0  0  0  0  0  0  0  0  0  0
  178.3670   22.7320   48.3040 C   0  0  0  0  0  0  0  0  0  0  0  0
  177.8420   21.4800   47.7440 C   0  0  0  0  0  0  0  0  0  0  0  0
  178.7170   20.6380   47.0320 C   0  0  0  0  0  0  0  0  0  0  0  0
  178.2740   19.4370   46.4560 C   0  0  0  0  0  0  0  0  0  0  0  0
  179.2330   18.5700   45.7390 C   0  0  0  0  0  0  0  0  0  0  0  0
  178.8700   17.2280   45.7620 O   0  0  0  0  0  0  0  0  0  0  0  0
  179.6760   16.3140   45.1330 C   0  0  0  0  0  0  0  0  0  0  0  0
  179.2680   14.9790   45.1690 C   0  0  0  0  0  0  0  0  0  0  0  0
  180.0440   13.9970   44.5500 C   0  0  0  0  0  0  0  0  0  0  0  0
  181.2270   14.3480   43.8960 C   0  0  0  0  0  0  0  0  0  0  0  0
  181.6320   15.6800   43.8620 C   0  0  0  0  0  0  0  0  0  0  0  0
  182.8000   15.9530   43.2050 O   0  0  0  0  0  0  0  0  0  0  0  0
  180.8550   16.6630   44.4810 C   0  0  0  0  0  0  0  0  0  0  0  0
  181.2450   18.0730   44.4680 C   0  0  0  0  0  0  0  0  0  0  0  0
  182.2740   18.4610   43.9200 O   0  0  0  0  0  0  0  0  0  0  0  0
  180.3480   19.0370   45.1480 C   0  0  0  0  0  0  0  0  0  0  0  0
  180.7320   20.3650   45.1440 O   0  0  0  0  0  0  0  0  0  0  0  0
  176.9320   19.0790   46.6150 C   0  0  0  0  0  0  0  0  0  0  0  0
  176.0510   19.9080   47.3150 C   0  0  0  0  0  0  0  0  0  0  0  0
  176.4900   21.1170   47.8840 C   0  0  0  0  0  0  0  0  0  0  0  0
  175.5120   21.9830   48.6430 C   0  0  0  0  0  0  0  0  0  0  0  0
  175.6560   21.8940   49.9940 F   0  0  0  0  0  0  0  0  0  0  0  0
  174.2070   21.6620   48.3980 F   0  0  0  0  0  0  0  0  0  0  0  0
  175.6190   23.3070   48.3340 F   0  0  0  0  0  0  0  0  0  0  0  0
  178.9805   24.7361   48.0199 H   0  0  0  0  0  0  0  0  0  0  0  0
  178.3715   23.7982   46.4773 H   0  0  0  0  0  0  0  0  0  0  0  0
  178.5890   22.7773   49.3804 H   0  0  0  0  0  0  0  0  0  0  0  0
  179.7726   20.9280   46.9245 H   0  0  0  0  0  0  0  0  0  0  0  0
  178.3366   14.7014   45.6843 H   0  0  0  0  0  0  0  0  0  0  0  0
  179.7230   12.9452   44.5775 H   0  0  0  0  0  0  0  0  0  0  0  0
  181.8378   13.5738   43.4086 H   0  0  0  0  0  0  0  0  0  0  0  0
  183.5520   16.2400   43.6850 H   0  0  0  0  0  0  0  0  0  0  0  0
  181.3300   20.6830   45.7910 H   0  0  0  0  0  0  0  0  0  0  0  0
  176.5657   18.1352   46.1848 H   0  0  0  0  0  0  0  0  0  0  0  0
  174.9976   19.6102   47.4226 H   0  0  0  0  0  0  0  0  0  0  0  0
  1  2  2  0
  2  3  1  0
  3  4  2  0
  4  5  1  0
  5  6  1  0
  6  7  1  0
  7  8  1  0
  8  9  2  0
  9 10  1  0
 10 11  2  0
 11 12  1  0
 12 13  1  0
 12 14  2  0
 14 15  1  0
 15 16  2  0
 15 17  1  0
 17 18  1  0
  5 19  2  0
 19 20  1  0
 20 21  2  0
 21 22  1  0
 22 23  1  0
 22 24  1  0
 22 25  1  0
 21  3  1  0
 17  6  2  0
 14  8  1  0
  1 26  1  0
  1 27  1  0
  2 28  1  0
  4 29  1  0
  9 30  1  0
 10 31  1  0
 11 32  1  0
 13 33  1  0
 18 34  1  0
 19 35  1  0
 20 36  1  0
M  END
>  <meeko>  (4) 
{"is_sidechain": [false], "free_energy": -7.338, "intermolecular_energy": -9.02, "internal_energy": 0.11}

$$$$
cand_005_out
     RDKit          3D

 36 38  0  0  0  0  0  0  0  0999 V2000
  178.8190   14.1510   44.3250 C   0  0  0  0  0  0  0  0  0  0  0  0
  179.5170   14.8390   45.2360 C   0  0  0  0  0  0  0  0  0  0  0  0
  179.8160   16.2690   45.0880 C   0  0  0  0  0  0  0  0  0  0  0  0
  178.9910   17.2030   45.7420 C   0  0  0  0  0  0  0  0  0  0  0  0
  179.2110   18.5850   45.6270 C   0  0  0  0  0  0  0  0  0  0  0  0
  178.3350   19.5300   46.3510 C   0  0  0  0  0  0  0  0  0  0  0  0
  179.0030   20.6770   46.7640 O   0  0  0  0  0  0  0  0  0  0  0  0
  178.3060   21.6390   47.4510 C   0  0  0  0  0  0  0  0  0  0  0  0
  179.0110   22.7800   47.8350 C   0  0  0  0  0  0  0  0  0  0  0  0
  178.3620   23.7960   48.5380 C   0  0  0  0  0  0  0  0  0  0  0  0
  177.0080   23.6720   48.8580 C   0  0  0  0  0  0  0  0  0  0  0  0
  176.3060   22.5310   48.4740 C   0  0  0  0  0  0  0  0  0  0  0  0
  174.9850   22.4750   48.8200 O   0  0  0  0  0  0  0  0  0  0  0  0
  176.9570   21.5150   47.7690 C   0  0  0  0  0  0  0  0  0  0  0  0
  176.2560   20.3010   47.3470 C   0  0  0  0  0  0  0  0  0  0  0  0
  175.0670   20.1150   47.5960 O   0  0  0  0  0  0  0  0  0  0  0  0
  177.0360   19.2870   46.6000 C   0  0  0  0  0  0  0  0  0  0  0  0
  176.3690   18.1370   46.2180 O   0  0  0  0  0  0  0  0  0  0  0  0
  180.2880   19.0230   44.8500 C   0  0  0  0  0  0  0  0  0  0  0  0
  181.1120   18.1070   44.1920 C   0  0  0  0  0  0  0  0  0  0  0  0
  180.8870   16.7220   44.2970 C   0  0  0  0  0  0  0  0  0  0  0  0
  181.8050   15.7610   43.5800 C   0  0  0  0  0  0  0  0  0  0  0  0
  182.1460   14.6820   44.3370 F   0  0  0  0  0  0  0  0  0  0  0  0
  182.9890   16.3270   43.2040 F   0  0  0  0  0  0  0  0  0  0  0  0
  181.2650   15.2640   42.4310 F   0  0  0  0  0  0  0  0  0  0  0  0
  178.6194   13.0803   44.4788 H   0  0  0  0  0  0  0  0  0  0  0  0
  178.4448   14.6562   43.4223 H   0  0  0  0  0  0  0  0  0  0  0  0
  179.8810   14.3128   46.1307 H   0  0  0  0  0  0  0  0  0  0  0  0
  178.1541   16.8418   46.3578 H   0  0  0  0  0  0  0  0  0  0  0  0
  180.0774   22.8787   47.5839 H   0  0  0  0  0  0  0  0  0  0  0  0
  178.9176   24.6959   48.8406 H   0  0  0  0  0  0  0  0  0  0  0  0
  176.4969   24.4732   49.4119 H   0  0  0  0  0  0  0  0  0  0  0  0
  174.6780   22.9340   49.5760 H   0  0  0  0  0  0  0  0  0  0  0  0
  175.9710   18.0850   45.3720 H   0  0  0  0  0  0  0  0  0  0  0  0
  180.4884   20.1005   44.7560 H   0  0  0  0  0  0  0  0  0  0  0  0
  181.9504   18.4743   43.5819 H   0  0  0  0  0  0  0  0  0  0  0  0
  1  2  2  0
  2  3  1  0
  3  4  2  0
  4  5  1  0
  5  6  1  0
  6  7  1  0
  7  8  1  0
  8  9  2  0
  9 10  1  0
 10 11  2  0
 11 12  1  0
 12 13  1  0
 12 14  2  0
 14 15  1  0
 15 16  2  0
 15 17  1  0
 17 18  1  0
  5 19  2  0
 19 20  1  0
 20 21  2  0
 21 22  1  0
 22 23  1  0
 22 24  1  0
 22 25  1  0
 21  3  1  0
 17  6  2  0
 14  8  1  0
  1 26  1  0
  1 27  1  0
  2 28  1  0
  4 29  1  0
  9 30  1  0
 10 31  1  0
 11 32  1  0
 13 33  1  0
 18 34  1  0
 19 35  1  0
 20 36  1  0
M  END
>  <meeko>  (5) 
{"is_sidechain": [false], "free_energy": -6.646, "intermolecular_energy": -8.112, "internal_energy": 0.056}

$$$$
cand_005_out
     RDKit          3D

 36 38  0  0  0  0  0  0  0  0999 V2000
  176.2690   20.5630   46.5400 C   0  0  0  0  0  0  0  0  0  0  0  0
  177.1970   19.8320   47.1700 C   0  0  0  0  0  0  0  0  0  0  0  0
  178.5710   19.6980   46.6700 C   0  0  0  0  0  0  0  0  0  0  0  0
  178.8690   18.6460   45.7850 C   0  0  0  0  0  0  0  0  0  0  0  0
  180.1660   18.4500   45.2850 C   0  0  0  0  0  0  0  0  0  0  0  0
  180.4300   17.3470   44.3370 C   0  0  0  0  0  0  0  0  0  0  0  0
  180.7140   17.7940   43.0520 O   0  0  0  0  0  0  0  0  0  0  0  0
  180.9770   16.8700   42.0730 C   0  0  0  0  0  0  0  0  0  0  0  0
  181.2710   17.3630   40.8000 C   0  0  0  0  0  0  0  0  0  0  0  0
  181.5460   16.4760   39.7570 C   0  0  0  0  0  0  0  0  0  0  0  0
  181.5270   15.0990   39.9850 C   0  0  0  0  0  0  0  0  0  0  0  0
  181.2320   14.6100   41.2560 C   0  0  0  0  0  0  0  0  0  0  0  0
  181.2310   13.2510   41.4090 O   0  0  0  0  0  0  0  0  0  0  0  0
  180.9580   15.4980   42.2990 C   0  0  0  0  0  0  0  0  0  0  0  0
  180.6450   15.0250   43.6490 C   0  0  0  0  0  0  0  0  0  0  0  0
  180.6010   13.8290   43.9280 O   0  0  0  0  0  0  0  0  0  0  0  0
  180.3750   16.0490   44.6860 C   0  0  0  0  0  0  0  0  0  0  0  0
  180.0650   15.5930   45.9540 O   0  0  0  0  0  0  0  0  0  0  0  0
  181.1690   19.3420   45.6760 C   0  0  0  0  0  0  0  0  0  0  0  0
  180.8890   20.3890   46.5580 C   0  0  0  0  0  0  0  0  0  0  0  0
  179.5920   20.5800   47.0690 C   0  0  0  0  0  0  0  0  0  0  0  0
  179.3230   21.7290   48.0110 C   0  0  0  0  0  0  0  0  0  0  0  0
  178.5640   21.3740   49.0850 F   0  0  0  0  0  0  0  0  0  0  0  0
  178.6550   22.7640   47.4220 F   0  0  0  0  0  0  0  0  0  0  0  0
  180.4630   22.2820   48.5180 F   0  0  0  0  0  0  0  0  0  0  0  0
  175.2517   20.6343   46.9524 H   0  0  0  0  0  0  0  0  0  0  0  0
  176.5238   21.0923   45.6100 H   0  0  0  0  0  0  0  0  0  0  0  0
  176.9193   19.3115   48.0984 H   0  0  0  0  0  0  0  0  0  0  0  0
  178.0660   17.9601   45.4772 H   0  0  0  0  0  0  0  0  0  0  0  0
  181.2859   18.4479   40.6191 H   0  0  0  0  0  0  0  0  0  0  0  0
  181.7780   16.8632   38.7539 H   0  0  0  0  0  0  0  0  0  0  0  0
  181.7445   14.4013   39.1629 H   0  0  0  0  0  0  0  0  0  0  0  0
  180.6550   12.8500   42.0290 H   0  0  0  0  0  0  0  0  0  0  0  0
  180.3620   14.7500   46.2360 H   0  0  0  0  0  0  0  0  0  0  0  0
  182.1897   19.2183   45.2851 H   0  0  0  0  0  0  0  0  0  0  0  0
  181.6953   21.0747   46.8576 H   0  0  0  0  0  0  0  0  0  0  0  0
  1  2  2  0
  2  3  1  0
  3  4  2  0
  4  5  1  0
  5  6  1  0
  6  7  1  0
  7  8  1  0
  8  9  2  0
  9 10  1  0
 10 11  2  0
 11 12  1  0
 12 13  1  0
 12 14  2  0
 14 15  1  0
 15 16  2  0
 15 17  1  0
 17 18  1  0
  5 19  2  0
 19 20  1  0
 20 21  2  0
 21 22  1  0
 22 23  1  0
 22 24  1  0
 22 25  1  0
 21  3  1  0
 17  6  2  0
 14  8  1  0
  1 26  1  0
  1 27  1  0
  2 28  1  0
  4 29  1  0
  9 30  1  0
 10 31  1  0
 11 32  1  0
 13 33  1  0
 18 34  1  0
 19 35  1  0
 20 36  1  0
M  END
>  <meeko>  (6) 
{"is_sidechain": [false], "free_energy": -6.171, "intermolecular_energy": -7.019, "internal_energy": -0.452}

$$$$
cand_005_out
     RDKit          3D

 36 38  0  0  0  0  0  0  0  0999 V2000
  178.5200   23.5830   47.3340 C   0  0  0  0  0  0  0  0  0  0  0  0
  178.8290   22.3060   47.5880 C   0  0  0  0  0  0  0  0  0  0  0  0
  179.8810   21.5870   46.8580 C   0  0  0  0  0  0  0  0  0  0  0  0
  181.1310   22.2100   46.6850 C   0  0  0  0  0  0  0  0  0  0  0  0
  182.1730   21.5850   45.9810 C   0  0  0  0  0  0  0  0  0  0  0  0
  183.4780   22.2650   45.8450 C   0  0  0  0  0  0  0  0  0  0  0  0
  184.0940   22.0140   44.6240 O   0  0  0  0  0  0  0  0  0  0  0  0
  185.3150   22.5840   44.3680 C   0  0  0  0  0  0  0  0  0  0  0  0
  185.8910   22.3170   43.1250 C   0  0  0  0  0  0  0  0  0  0  0  0
  187.1330   22.8650   42.8020 C   0  0  0  0  0  0  0  0  0  0  0  0
  187.8000   23.6800   43.7190 C   0  0  0  0  0  0  0  0  0  0  0  0
  187.2230   23.9450   44.9590 C   0  0  0  0  0  0  0  0  0  0  0  0
  187.9300   24.7500   45.8090 O   0  0  0  0  0  0  0  0  0  0  0  0
  185.9790   23.3960   45.2820 C   0  0  0  0  0  0  0  0  0  0  0  0
  185.3380   23.6500   46.5730 C   0  0  0  0  0  0  0  0  0  0  0  0
  185.8640   24.3510   47.4360 O   0  0  0  0  0  0  0  0  0  0  0  0
  184.0160   23.0270   46.8150 C   0  0  0  0  0  0  0  0  0  0  0  0
  183.4250   23.2600   48.0430 O   0  0  0  0  0  0  0  0  0  0  0  0
  181.9480   20.3080   45.4600 C   0  0  0  0  0  0  0  0  0  0  0  0
  180.7110   19.6790   45.6210 C   0  0  0  0  0  0  0  0  0  0  0  0
  179.6620   20.3080   46.3160 C   0  0  0  0  0  0  0  0  0  0  0  0
  178.3410   19.5930   46.4790 C   0  0  0  0  0  0  0  0  0  0  0  0
  177.3500   20.1180   45.7060 F   0  0  0  0  0  0  0  0  0  0  0  0
  177.8620   19.6340   47.7570 F   0  0  0  0  0  0  0  0  0  0  0  0
  178.4090   18.2680   46.1640 F   0  0  0  0  0  0  0  0  0  0  0  0
  177.7238   24.0807   47.9070 H   0  0  0  0  0  0  0  0  0  0  0  0
  179.0623   24.1351   46.5522 H   0  0  0  0  0  0  0  0  0  0  0  0
  178.2733   21.7741   48.3743 H   0  0  0  0  0  0  0  0  0  0  0  0
  181.2958   23.2105   47.1115 H   0  0  0  0  0  0  0  0  0  0  0  0
  185.3668   21.6757   42.4012 H   0  0  0  0  0  0  0  0  0  0  0  0
  187.5877   22.6545   41.8227 H   0  0  0  0  0  0  0  0  0  0  0  0
  188.7788   24.1118   43.4628 H   0  0  0  0  0  0  0  0  0  0  0  0
  187.6840   24.8110   46.7110 H   0  0  0  0  0  0  0  0  0  0  0  0
  183.1740   24.1300   48.2850 H   0  0  0  0  0  0  0  0  0  0  0  0
  182.7538   19.7923   44.9171 H   0  0  0  0  0  0  0  0  0  0  0  0
  180.5547   18.6759   45.1976 H   0  0  0  0  0  0  0  0  0  0  0  0
  1  2  2  0
  2  3  1  0
  3  4  2  0
  4  5  1  0
  5  6  1  0
  6  7  1  0
  7  8  1  0
  8  9  2  0
  9 10  1  0
 10 11  2  0
 11 12  1  0
 12 13  1  0
 12 14  2  0
 14 15  1  0
 15 16  2  0
 15 17  1  0
 17 18  1  0
  5 19  2  0
 19 20  1  0
 20 21  2  0
 21 22  1  0
 22 23  1  0
 22 24  1  0
 22 25  1  0
 21  3  1  0
 17  6  2  0
 14  8  1  0
  1 26  1  0
  1 27  1  0
  2 28  1  0
  4 29  1  0
  9 30  1  0
 10 31  1  0
 11 32  1  0
 13 33  1  0
 18 34  1  0
 19 35  1  0
 20 36  1  0
M  END
>  <meeko>  (7) 
{"is_sidechain": [false], "free_energy": -5.898, "intermolecular_energy": -7.04, "internal_energy": -0.094}

$$$$
cand_005_out
     RDKit          3D

 36 38  0  0  0  0  0  0  0  0999 V2000
  178.4650   23.0260   47.3850 C   0  0  0  0  0  0  0  0  0  0  0  0
  179.2390   21.9940   47.7410 C   0  0  0  0  0  0  0  0  0  0  0  0
  180.4050   21.5710   46.9550 C   0  0  0  0  0  0  0  0  0  0  0  0
  181.5400   22.4020   46.9270 C   0  0  0  0  0  0  0  0  0  0  0  0
  182.6800   22.0650   46.1800 C   0  0  0  0  0  0  0  0  0  0  0  0
  183.8610   22.9540   46.2010 C   0  0  0  0  0  0  0  0  0  0  0  0
  184.1910   23.3850   47.4800 O   0  0  0  0  0  0  0  0  0  0  0  0
  185.2690   24.2190   47.6400 C   0  0  0  0  0  0  0  0  0  0  0  0
  185.5740   24.6170   48.9430 C   0  0  0  0  0  0  0  0  0  0  0  0
  186.6570   25.4660   49.1760 C   0  0  0  0  0  0  0  0  0  0  0  0
  187.4350   25.9190   48.1080 C   0  0  0  0  0  0  0  0  0  0  0  0
  187.1280   25.5210   46.8090 C   0  0  0  0  0  0  0  0  0  0  0  0
  187.9300   26.0010   45.8110 O   0  0  0  0  0  0  0  0  0  0  0  0
  186.0440   24.6700   46.5770 C   0  0  0  0  0  0  0  0  0  0  0  0
  185.6880   24.2280   45.2270 C   0  0  0  0  0  0  0  0  0  0  0  0
  186.3190   24.5870   44.2360 O   0  0  0  0  0  0  0  0  0  0  0  0
  184.5250   23.3210   45.0890 C   0  0  0  0  0  0  0  0  0  0  0  0
  184.1880   22.9200   43.8100 O   0  0  0  0  0  0  0  0  0  0  0  0
  182.6730   20.8650   45.4640 C   0  0  0  0  0  0  0  0  0  0  0  0
  181.5500   20.0330   45.4770 C   0  0  0  0  0  0  0  0  0  0  0  0
  180.4030   20.3740   46.2170 C   0  0  0  0  0  0  0  0  0  0  0  0
  179.2130   19.4440   46.2170 C   0  0  0  0  0  0  0  0  0  0  0  0
  179.5060   18.1980   45.7520 F   0  0  0  0  0  0  0  0  0  0  0  0
  178.1840   19.8880   45.4370 F   0  0  0  0  0  0  0  0  0  0  0  0
  178.6720   19.2700   47.4570 F   0  0  0  0  0  0  0  0  0  0  0  0
  177.6014   23.3058   48.0062 H   0  0  0  0  0  0  0  0  0  0  0  0
  178.6924   23.5945   46.4711 H   0  0  0  0  0  0  0  0  0  0  0  0
  178.9919   21.4406   48.6590 H   0  0  0  0  0  0  0  0  0  0  0  0
  181.5340   23.3383   47.5043 H   0  0  0  0  0  0  0  0  0  0  0  0
  184.9615   24.2619   49.7849 H   0  0  0  0  0  0  0  0  0  0  0  0
  186.8983   25.7790   50.2026 H   0  0  0  0  0  0  0  0  0  0  0  0
  188.2881   26.5885   48.2924 H   0  0  0  0  0  0  0  0  0  0  0  0
  188.0560   25.5010   45.0290 H   0  0  0  0  0  0  0  0  0  0  0  0
  183.9030   23.5530   43.1800 H   0  0  0  0  0  0  0  0  0  0  0  0
  183.5606   20.5721   44.8841 H   0  0  0  0  0  0  0  0  0  0  0  0
  181.5632   19.0968   44.8996 H   0  0  0  0  0  0  0  0  0  0  0  0
  1  2  2  0
  2  3  1  0
  3  4  2  0
  4  5  1  0
  5  6  1  0
  6  7  1  0
  7  8  1  0
  8  9  2  0
  9 10  1  0
 10 11  2  0
 11 12  1  0
 12 13  1  0
 12 14  2  0
 14 15  1  0
 15 16  2  0
 15 17  1  0
 17 18  1  0
  5 19  2  0
 19 20  1  0
 20 21  2  0
 21 22  1  0
 22 23  1  0
 22 24  1  0
 22 25  1  0
 21  3  1  0
 17  6  2  0
 14  8  1  0
  1 26  1  0
  1 27  1  0
  2 28  1  0
  4 29  1  0
  9 30  1  0
 10 31  1  0
 11 32  1  0
 13 33  1  0
 18 34  1  0
 19 35  1  0
 20 36  1  0
M  END
>  <meeko>  (8) 
{"is_sidechain": [false], "free_energy": -5.827, "intermolecular_energy": -6.747, "internal_energy": -0.299}

$$$$
cand_005_out
     RDKit          3D

 36 38  0  0  0  0  0  0  0  0999 V2000
  186.1120   24.1370   48.6750 C   0  0  0  0  0  0  0  0  0  0  0  0
  185.4510   24.5700   47.5950 C   0  0  0  0  0  0  0  0  0  0  0  0
  184.9120   23.6570   46.5800 C   0  0  0  0  0  0  0  0  0  0  0  0
  183.6750   23.0300   46.8220 C   0  0  0  0  0  0  0  0  0  0  0  0
  183.1130   22.1330   45.9000 C   0  0  0  0  0  0  0  0  0  0  0  0
  181.8000   21.5160   46.1830 C   0  0  0  0  0  0  0  0  0  0  0  0
  180.9600   22.3470   46.9150 O   0  0  0  0  0  0  0  0  0  0  0  0
  179.7080   21.8950   47.2480 C   0  0  0  0  0  0  0  0  0  0  0  0
  178.8920   22.7650   47.9720 C   0  0  0  0  0  0  0  0  0  0  0  0
  177.6060   22.3670   48.3440 C   0  0  0  0  0  0  0  0  0  0  0  0
  177.1360   21.1000   47.9920 C   0  0  0  0  0  0  0  0  0  0  0  0
  177.9530   20.2330   47.2700 C   0  0  0  0  0  0  0  0  0  0  0  0
  177.4300   19.0080   46.9600 O   0  0  0  0  0  0  0  0  0  0  0  0
  179.2390   20.6320   46.8980 C   0  0  0  0  0  0  0  0  0  0  0  0
  180.1280   19.7520   46.1380 C   0  0  0  0  0  0  0  0  0  0  0  0
  179.7910   18.6200   45.7970 O   0  0  0  0  0  0  0  0  0  0  0  0
  181.4700   20.2730   45.7870 C   0  0  0  0  0  0  0  0  0  0  0  0
  182.3080   19.4290   45.0820 O   0  0  0  0  0  0  0  0  0  0  0  0
  183.8080   21.8780   44.7140 C   0  0  0  0  0  0  0  0  0  0  0  0
  185.0390   22.4900   44.4630 C   0  0  0  0  0  0  0  0  0  0  0  0
  185.6090   23.3810   45.3890 C   0  0  0  0  0  0  0  0  0  0  0  0
  186.9360   24.0320   45.0790 C   0  0  0  0  0  0  0  0  0  0  0  0
  186.8910   25.3920   45.1340 F   0  0  0  0  0  0  0  0  0  0  0  0
  187.4010   23.7360   43.8300 F   0  0  0  0  0  0  0  0  0  0  0  0
  187.9300   23.6490   45.9310 F   0  0  0  0  0  0  0  0  0  0  0  0
  186.4983   24.8590   49.4095 H   0  0  0  0  0  0  0  0  0  0  0  0
  186.2691   23.0591   48.8282 H   0  0  0  0  0  0  0  0  0  0  0  0
  185.3060   25.6523   47.4628 H   0  0  0  0  0  0  0  0  0  0  0  0
  183.1360   23.2482   47.7558 H   0  0  0  0  0  0  0  0  0  0  0  0
  179.2612   23.7633   48.2495 H   0  0  0  0  0  0  0  0  0  0  0  0
  176.9625   23.0525   48.9150 H   0  0  0  0  0  0  0  0  0  0  0  0
  176.1227   20.7873   48.2843 H   0  0  0  0  0  0  0  0  0  0  0  0
  177.9860   18.3310   46.6290 H   0  0  0  0  0  0  0  0  0  0  0  0
  183.2120   19.6500   44.9720 H   0  0  0  0  0  0  0  0  0  0  0  0
  183.3814   21.1884   43.9707 H   0  0  0  0  0  0  0  0  0  0  0  0
  185.5708   22.2709   43.5253 H   0  0  0  0  0  0  0  0  0  0  0  0
  1  2  2  0
  2  3  1  0
  3  4  2  0
  4  5  1  0
  5  6  1  0
  6  7  1  0
  7  8  1  0
  8  9  2  0
  9 10  1  0
 10 11  2  0
 11 12  1  0
 12 13  1  0
 12 14  2  0
 14 15  1  0
 15 16  2  0
 15 17  1  0
 17 18  1  0
  5 19  2  0
 19 20  1  0
 20 21  2  0
 21 22  1  0
 22 23  1  0
 22 24  1  0
 22 25  1  0
 21  3  1  0
 17  6  2  0
 14  8  1  0
  1 26  1  0
  1 27  1  0
  2 28  1  0
  4 29  1  0
  9 30  1  0
 10 31  1  0
 11 32  1  0
 13 33  1  0
 18 34  1  0
 19 35  1  0
 20 36  1  0
M  END
>  <meeko>  (9) 
{"is_sidechain": [false], "free_energy": -5.717, "intermolecular_energy": -6.683, "internal_energy": -0.227}

$$$$
