cand_045_out
     RDKit          3D

 35 37  0  0  0  0  0  0  0  0999 V2000
  181.8790   15.0580   42.6720 C   0  0  0  0  0  0  0  0  0  0  0  0
  181.3230   16.1160   43.5850 C   0  0  0  0  0  0  0  0  0  0  0  0
  181.7450   17.4450   43.4310 C   0  0  0  0  0  0  0  0  0  0  0  0
  181.2510   18.4560   44.2610 C   0  0  0  0  0  0  0  0  0  0  0  0
  180.3290   18.1640   45.2720 C   0  0  0  0  0  0  0  0  0  0  0  0
  179.7720   19.2180   46.1470 C   0  0  0  0  0  0  0  0  0  0  0  0
  178.3840   19.1960   46.2030 O   0  0  0  0  0  0  0  0  0  0  0  0
  177.7350   20.1170   46.9840 C   0  0  0  0  0  0  0  0  0  0  0  0
  176.3410   20.0630   47.0040 C   0  0  0  0  0  0  0  0  0  0  0  0
  175.6190   20.9720   47.7790 C   0  0  0  0  0  0  0  0  0  0  0  0
  176.2910   21.9350   48.5350 C   0  0  0  0  0  0  0  0  0  0  0  0
  177.6830   21.9860   48.5140 C   0  0  0  0  0  0  0  0  0  0  0  0
  178.2770   22.9540   49.2780 O   0  0  0  0  0  0  0  0  0  0  0  0
  178.4050   21.0760   47.7380 C   0  0  0  0  0  0  0  0  0  0  0  0
  179.8660   21.0950   47.6890 C   0  0  0  0  0  0  0  0  0  0  0  0
  180.5300   21.9080   48.3310 O   0  0  0  0  0  0  0  0  0  0  0  0
  180.5360   20.0890   46.8310 C   0  0  0  0  0  0  0  0  0  0  0  0
  181.9190   20.1060   46.8050 O   0  0  0  0  0  0  0  0  0  0  0  0
  179.9000   16.8360   45.4180 C   0  0  0  0  0  0  0  0  0  0  0  0
  180.3840   15.8060   44.5890 C   0  0  0  0  0  0  0  0  0  0  0  0
  179.8920   14.3960   44.8000 C   0  0  0  0  0  0  0  0  0  0  0  0
  178.9730   13.9930   43.8750 F   0  0  0  0  0  0  0  0  0  0  0  0
  182.3074   14.2428   43.2736 H   0  0  0  0  0  0  0  0  0  0  0  0
  181.0731   14.6609   42.0373 H   0  0  0  0  0  0  0  0  0  0  0  0
  182.6632   15.4965   42.0373 H   0  0  0  0  0  0  0  0  0  0  0  0
  182.4745   17.6951   42.6466 H   0  0  0  0  0  0  0  0  0  0  0  0
  181.5910   19.4923   44.1175 H   0  0  0  0  0  0  0  0  0  0  0  0
  175.8112   19.3044   46.4092 H   0  0  0  0  0  0  0  0  0  0  0  0
  174.5199   20.9299   47.7943 H   0  0  0  0  0  0  0  0  0  0  0  0
  175.7224   22.6517   49.1457 H   0  0  0  0  0  0  0  0  0  0  0  0
  177.7490   23.5460   49.7770 H   0  0  0  0  0  0  0  0  0  0  0  0
  182.3900   20.7100   47.3450 H   0  0  0  0  0  0  0  0  0  0  0  0
  179.1662   16.5933   46.2007 H   0  0  0  0  0  0  0  0  0  0  0  0
  180.7551   13.7158   44.7517 H   0  0  0  0  0  0  0  0  0  0  0  0
  179.3941   14.3718   45.7806 H   0  0  0  0  0  0  0  0  0  0  0  0
  1  2  1  0
  2  3  2  0
  3  4  1  0
  4  5  2  0
  5  6  1  0
  6  7  1  0
  7  8  1  0
  8  9  2  0
  9 10  1  0
 10 11  2  0
 11 12  1  0
 12 13  1  0
 12 14  2  0
 14 15  1  0
 15 16  2  0
 15 17  1  0
 17 18  1  0
  5 19  1  0
 19 20  2  0
 20 21  1  0
 21 22  1  0
 20  2  1  0
 17  6  2  0
 14  8  1  0
  1 23  1  0
  1 24  1  0
  1 25  1  0
  3 26  1  0
  4 27  1  0
  9 28  1  0
 10 29  1  0
 11 30  1  0
 13 31  1  0
 18 32  1  0
 19 33  1  0
 21 34  1  0
 21 35  1  0
M  END
>  <meeko>  (1) 
{"is_sidechain": [false], "free_energy": -8.214, "intermolecular_energy": -9.654, "internal_energy": -0.228}

$$$$
cand_045_out
     RDKit          3D

 35 37  0  0  0  0  0  0  0  0999 V2000
  181.9930   15.7490   42.9980 C   0  0  0  0  0  0  0  0  0  0  0  0
  181.2380   16.6790   43.9080 C   0  0  0  0  0  0  0  0  0  0  0  0
  181.4980   18.0550   43.8500 C   0  0  0  0  0  0  0  0  0  0  0  0
  180.8170   18.9500   44.6800 C   0  0  0  0  0  0  0  0  0  0  0  0
  179.8640   18.4920   45.5960 C   0  0  0  0  0  0  0  0  0  0  0  0
  179.1110   19.4190   46.4680 C   0  0  0  0  0  0  0  0  0  0  0  0
  177.7430   19.1750   46.4630 O   0  0  0  0  0  0  0  0  0  0  0  0
  176.9250   19.9590   47.2340 C   0  0  0  0  0  0  0  0  0  0  0  0
  175.5580   19.6830   47.1920 C   0  0  0  0  0  0  0  0  0  0  0  0
  174.6690   20.4440   47.9540 C   0  0  0  0  0  0  0  0  0  0  0  0
  175.1470   21.4810   48.7580 C   0  0  0  0  0  0  0  0  0  0  0  0
  176.5130   21.7540   48.7990 C   0  0  0  0  0  0  0  0  0  0  0  0
  176.9130   22.7820   49.6080 O   0  0  0  0  0  0  0  0  0  0  0  0
  177.4020   20.9920   48.0360 C   0  0  0  0  0  0  0  0  0  0  0  0
  178.8420   21.2440   48.0510 C   0  0  0  0  0  0  0  0  0  0  0  0
  179.3410   22.1340   48.7380 O   0  0  0  0  0  0  0  0  0  0  0  0
  179.6980   20.3820   47.2030 C   0  0  0  0  0  0  0  0  0  0  0  0
  181.0600   20.6200   47.2370 O   0  0  0  0  0  0  0  0  0  0  0  0
  179.5970   17.1150   45.6460 C   0  0  0  0  0  0  0  0  0  0  0  0
  180.2720   16.2000   44.8160 C   0  0  0  0  0  0  0  0  0  0  0  0
  179.9490   14.7310   44.9210 C   0  0  0  0  0  0  0  0  0  0  0  0
  180.9780   13.9770   45.4070 F   0  0  0  0  0  0  0  0  0  0  0  0
  182.5724   15.0353   43.6020 H   0  0  0  0  0  0  0  0  0  0  0  0
  181.2820   15.1998   42.3633 H   0  0  0  0  0  0  0  0  0  0  0  0
  182.6766   16.3319   42.3633 H   0  0  0  0  0  0  0  0  0  0  0  0
  182.2483   18.4358   43.1415 H   0  0  0  0  0  0  0  0  0  0  0  0
  181.0328   20.0265   44.6122 H   0  0  0  0  0  0  0  0  0  0  0  0
  175.1807   18.8664   46.5590 H   0  0  0  0  0  0  0  0  0  0  0  0
  173.5912   20.2264   47.9209 H   0  0  0  0  0  0  0  0  0  0  0  0
  174.4468   22.0811   49.3577 H   0  0  0  0  0  0  0  0  0  0  0  0
  177.8110   22.8510   49.8680 H   0  0  0  0  0  0  0  0  0  0  0  0
  181.5980   20.1720   47.8600 H   0  0  0  0  0  0  0  0  0  0  0  0
  178.8408   16.7411   46.3520 H   0  0  0  0  0  0  0  0  0  0  0  0
  179.0847   14.6123   45.5910 H   0  0  0  0  0  0  0  0  0  0  0  0
  179.7415   14.3735   43.9016 H   0  0  0  0  0  0  0  0  0  0  0  0
  1  2  1  0
  2  3  2  0
  3  4  1  0
  4  5  2  0
  5  6  1  0
  6  7  1  0
  7  8  1  0
  8  9  2  0
  9 10  1  0
 10 11  2  0
 11 12  1  0
 12 13  1  0
 12 14  2  0
 14 15  1  0
 15 16  2  0
 15 17  1  0
 17 18  1  0
  5 19  1  0
 19 20  2  0
 20 21  1  0
 21 22  1  0
 20  2  1  0
 17  6  2  0
 14  8  1  0
  1 23  1  0
  1 24  1  0
  1 25  1  0
  3 26  1  0
  4 27  1  0
  9 28  1  0
 10 29  1  0
 11 30  1  0
 13 31  1  0
 18 32  1  0
 19 33  1  0
 21 34  1  0
 21 35  1  0
M  END
>  <meeko>  (2) 
{"is_sidechain": [false], "free_energy": -8.027, "intermolecular_energy": -9.523, "internal_energy": -0.14}

$$$$
cand_045_out
     RDKit          3D

 35 37  0  0  0  0  0  0  0  0999 V2000
  176.5380   22.4930   48.9500 C   0  0  0  0  0  0  0  0  0  0  0  0
  177.3330   21.5240   48.1190 C   0  0  0  0  0  0  0  0  0  0  0  0
  178.7220   21.4470   48.2980 C   0  0  0  0  0  0  0  0  0  0  0  0
  179.4950   20.5590   47.5440 C   0  0  0  0  0  0  0  0  0  0  0  0
  178.9020   19.7300   46.5860 C   0  0  0  0  0  0  0  0  0  0  0  0
  179.6920   18.7640   45.7940 C   0  0  0  0  0  0  0  0  0  0  0  0
  179.1580   17.4810   45.8160 O   0  0  0  0  0  0  0  0  0  0  0  0
  179.7890   16.4860   45.1160 C   0  0  0  0  0  0  0  0  0  0  0  0
  179.2220   15.2120   45.1740 C   0  0  0  0  0  0  0  0  0  0  0  0
  179.8150   14.1530   44.4830 C   0  0  0  0  0  0  0  0  0  0  0  0
  180.9750   14.3670   43.7360 C   0  0  0  0  0  0  0  0  0  0  0  0
  181.5380   15.6400   43.6790 C   0  0  0  0  0  0  0  0  0  0  0  0
  182.6730   15.7810   42.9280 O   0  0  0  0  0  0  0  0  0  0  0  0
  180.9440   16.6990   44.3700 C   0  0  0  0  0  0  0  0  0  0  0  0
  181.5030   18.0510   44.3370 C   0  0  0  0  0  0  0  0  0  0  0  0
  182.5180   18.3210   43.6970 O   0  0  0  0  0  0  0  0  0  0  0  0
  180.8000   19.1030   45.1080 C   0  0  0  0  0  0  0  0  0  0  0  0
  181.3280   20.3800   45.0560 O   0  0  0  0  0  0  0  0  0  0  0  0
  177.5100   19.8000   46.4160 C   0  0  0  0  0  0  0  0  0  0  0  0
  176.7170   20.6860   47.1680 C   0  0  0  0  0  0  0  0  0  0  0  0
  175.2270   20.7230   46.9340 C   0  0  0  0  0  0  0  0  0  0  0  0
  174.5070   20.0560   47.8820 F   0  0  0  0  0  0  0  0  0  0  0  0
  176.7077   22.2862   50.0170 H   0  0  0  0  0  0  0  0  0  0  0  0
  176.8568   23.5205   48.7204 H   0  0  0  0  0  0  0  0  0  0  0  0
  175.4681   22.3811   48.7204 H   0  0  0  0  0  0  0  0  0  0  0  0
  179.2098   22.0941   49.0418 H   0  0  0  0  0  0  0  0  0  0  0  0
  180.5820   20.5117   47.7060 H   0  0  0  0  0  0  0  0  0  0  0  0
  178.3089   15.0421   45.7634 H   0  0  0  0  0  0  0  0  0  0  0  0
  179.3676   13.1491   44.5273 H   0  0  0  0  0  0  0  0  0  0  0  0
  181.4433   13.5323   43.1937 H   0  0  0  0  0  0  0  0  0  0  0  0
  183.1430   16.5910   42.9360 H   0  0  0  0  0  0  0  0  0  0  0  0
  181.9570   20.6520   45.6940 H   0  0  0  0  0  0  0  0  0  0  0  0
  177.0270   19.1452   45.6757 H   0  0  0  0  0  0  0  0  0  0  0  0
  174.9024   21.7740   46.9268 H   0  0  0  0  0  0  0  0  0  0  0  0
  175.0393   20.2197   45.9741 H   0  0  0  0  0  0  0  0  0  0  0  0
  1  2  1  0
  2  3  2  0
  3  4  1  0
  4  5  2  0
  5  6  1  0
  6  7  1  0
  7  8  1  0
  8  9  2  0
  9 10  1  0
 10 11  2  0
 11 12  1  0
 12 13  1  0
 12 14  2  0
 14 15  1  0
 15 16  2  0
 15 17  1  0
 17 18  1  0
  5 19  1  0
 19 20  2  0
 20 21  1  0
 21 22  1  0
 20  2  1  0
 17  6  2  0
 14  8  1  0
  1 23  1  0
  1 24  1  0
  1 25  1  0
  3 26  1  0
  4 27  1  0
  9 28  1  0
 10 29  1  0
 11 30  1  0
 13 31  1  0
 18 32  1  0
 19 33  1  0
 21 34  1  0
 21 35  1  0
M  END
>  <meeko>  (3) 
{"is_sidechain": [false], "free_energy": -7.265, "intermolecular_energy": -8.544, "internal_energy": -0.223}

$$$$
cand_045_out
     RDKit          3D

 35 37  0  0  0  0  0  0  0  0999 V2000
  181.2290   13.9390   42.1650 C   0  0  0  0  0  0  0  0  0  0  0  0
  180.9570   15.1640   42.9940 C   0  0  0  0  0  0  0  0  0  0  0  0
  180.5740   15.0140   44.3340 C   0  0  0  0  0  0  0  0  0  0  0  0
  180.3120   16.1290   45.1350 C   0  0  0  0  0  0  0  0  0  0  0  0
  180.4200   17.4230   44.6160 C   0  0  0  0  0  0  0  0  0  0  0  0
  180.1740   18.6200   45.4490 C   0  0  0  0  0  0  0  0  0  0  0  0
  178.8910   18.6530   45.9820 O   0  0  0  0  0  0  0  0  0  0  0  0
  178.5300   19.7070   46.7810 C   0  0  0  0  0  0  0  0  0  0  0  0
  177.2300   19.7020   47.2880 C   0  0  0  0  0  0  0  0  0  0  0  0
  176.7980   20.7460   48.1090 C   0  0  0  0  0  0  0  0  0  0  0  0
  177.6650   21.7940   48.4220 C   0  0  0  0  0  0  0  0  0  0  0  0
  178.9630   21.7960   47.9150 C   0  0  0  0  0  0  0  0  0  0  0  0
  179.7600   22.8530   48.2620 O   0  0  0  0  0  0  0  0  0  0  0  0
  179.3940   20.7510   47.0940 C   0  0  0  0  0  0  0  0  0  0  0  0
  180.7480   20.7140   46.5420 C   0  0  0  0  0  0  0  0  0  0  0  0
  181.5720   21.5960   46.7770 O   0  0  0  0  0  0  0  0  0  0  0  0
  181.1060   19.5640   45.6790 C   0  0  0  0  0  0  0  0  0  0  0  0
  182.3930   19.5320   45.1750 O   0  0  0  0  0  0  0  0  0  0  0  0
  180.8150   17.5730   43.2780 C   0  0  0  0  0  0  0  0  0  0  0  0
  181.0840   16.4610   42.4580 C   0  0  0  0  0  0  0  0  0  0  0  0
  181.4960   16.6840   41.0240 C   0  0  0  0  0  0  0  0  0  0  0  0
  180.8880   15.8400   40.1410 F   0  0  0  0  0  0  0  0  0  0  0  0
  181.4192   13.0823   42.8282 H   0  0  0  0  0  0  0  0  0  0  0  0
  180.3566   13.7247   41.5302 H   0  0  0  0  0  0  0  0  0  0  0  0
  182.1102   14.1141   41.5302 H   0  0  0  0  0  0  0  0  0  0  0  0
  180.4783   14.0048   44.7611 H   0  0  0  0  0  0  0  0  0  0  0  0
  180.0176   15.9871   46.1853 H   0  0  0  0  0  0  0  0  0  0  0  0
  176.5461   18.8766   47.0413 H   0  0  0  0  0  0  0  0  0  0  0  0
  175.7734   20.7423   48.5093 H   0  0  0  0  0  0  0  0  0  0  0  0
  177.3243   22.6168   49.0677 H   0  0  0  0  0  0  0  0  0  0  0  0
  180.6910   22.7800   48.1890 H   0  0  0  0  0  0  0  0  0  0  0  0
  182.7820   18.7130   44.9370 H   0  0  0  0  0  0  0  0  0  0  0  0
  180.9170   18.5851   42.8593 H   0  0  0  0  0  0  0  0  0  0  0  0
  181.2428   17.7179   40.7467 H   0  0  0  0  0  0  0  0  0  0  0  0
  182.5765   16.4864   40.9656 H   0  0  0  0  0  0  0  0  0  0  0  0
  1  2  1  0
  2  3  2  0
  3  4  1  0
  4  5  2  0
  5  6  1  0
  6  7  1  0
  7  8  1  0
  8  9  2  0
  9 10  1  0
 10 11  2  0
 11 12  1  0
 12 13  1  0
 12 14  2  0
 14 15  1  0
 15 16  2  0
 15 17  1  0
 17 18  1  0
  5 19  1  0
 19 20  2  0
 20 21  1  0
 21 22  1  0
 20  2  1  0
 17  6  2  0
 14  8  1  0
  1 23  1  0
  1 24  1  0
  1 25  1  0
  3 26  1  0
  4 27  1  0
  9 28  1  0
 10 29  1  0
 11 30  1  0
 13 31  1  0
 18 32  1  0
 19 33  1  0
 21 34  1  0
 21 35  1  0
M  END
>  <meeko>  (4) 
{"is_sidechain": [false], "free_energy": -7.146, "intermolecular_energy": -8.702, "internal_energy": 0.074}

$$$$
cand_045_out
     RDKit          3D

 35 37  0  0  0  0  0  0  0  0999 V2000
  181.9850   15.8270   43.3920 C   0  0  0  0  0  0  0  0  0  0  0  0
  181.0770   16.7470   44.1620 C   0  0  0  0  0  0  0  0  0  0  0  0
  181.2580   18.1330   44.0580 C   0  0  0  0  0  0  0  0  0  0  0  0
  180.4340   19.0190   44.7600 C   0  0  0  0  0  0  0  0  0  0  0  0
  179.4140   18.5420   45.5890 C   0  0  0  0  0  0  0  0  0  0  0  0
  178.5130   19.4570   46.3220 C   0  0  0  0  0  0  0  0  0  0  0  0
  179.1350   20.6430   46.6960 O   0  0  0  0  0  0  0  0  0  0  0  0
  178.4110   21.5860   47.3780 C   0  0  0  0  0  0  0  0  0  0  0  0
  179.0770   22.7580   47.7400 C   0  0  0  0  0  0  0  0  0  0  0  0
  178.3980   23.7600   48.4360 C   0  0  0  0  0  0  0  0  0  0  0  0
  177.0530   23.5900   48.7710 C   0  0  0  0  0  0  0  0  0  0  0  0
  176.3900   22.4200   48.4080 C   0  0  0  0  0  0  0  0  0  0  0  0
  175.0730   22.3200   48.7660 O   0  0  0  0  0  0  0  0  0  0  0  0
  177.0700   21.4180   47.7110 C   0  0  0  0  0  0  0  0  0  0  0  0
  176.4110   20.1750   47.3100 C   0  0  0  0  0  0  0  0  0  0  0  0
  175.2280   19.9540   47.5620 O   0  0  0  0  0  0  0  0  0  0  0  0
  177.2220   19.1740   46.5780 C   0  0  0  0  0  0  0  0  0  0  0  0
  176.5840   18.0100   46.1900 O   0  0  0  0  0  0  0  0  0  0  0  0
  179.2270   17.1540   45.6840 C   0  0  0  0  0  0  0  0  0  0  0  0
  180.0460   16.2490   44.9830 C   0  0  0  0  0  0  0  0  0  0  0  0
  179.8030   14.7670   45.1320 C   0  0  0  0  0  0  0  0  0  0  0  0
  180.9020   14.0700   45.5410 F   0  0  0  0  0  0  0  0  0  0  0  0
  182.5791   15.2250   44.0953 H   0  0  0  0  0  0  0  0  0  0  0  0
  181.3806   15.1608   42.7589 H   0  0  0  0  0  0  0  0  0  0  0  0
  182.6591   16.4226   42.7589 H   0  0  0  0  0  0  0  0  0  0  0  0
  182.0585   18.5292   43.4159 H   0  0  0  0  0  0  0  0  0  0  0  0
  180.5902   20.1031   44.6587 H   0  0  0  0  0  0  0  0  0  0  0  0
  180.1366   22.8922   47.4770 H   0  0  0  0  0  0  0  0  0  0  0  0
  178.9228   24.6839   48.7206 H   0  0  0  0  0  0  0  0  0  0  0  0
  176.5181   24.3786   49.3205 H   0  0  0  0  0  0  0  0  0  0  0  0
  174.4030   22.5740   48.1620 H   0  0  0  0  0  0  0  0  0  0  0  0
  176.9780   17.1790   46.3680 H   0  0  0  0  0  0  0  0  0  0  0  0
  178.4204   16.7639   46.3221 H   0  0  0  0  0  0  0  0  0  0  0  0
  179.0025   14.6189   45.8718 H   0  0  0  0  0  0  0  0  0  0  0  0
  179.5309   14.3840   44.1374 H   0  0  0  0  0  0  0  0  0  0  0  0
  1  2  1  0
  2  3  2  0
  3  4  1  0
  4  5  2  0
  5  6  1  0
  6  7  1  0
  7  8  1  0
  8  9  2  0
  9 10  1  0
 10 11  2  0
 11 12  1  0
 12 13  1  0
 12 14  2  0
 14 15  1  0
 15 16  2  0
 15 17  1  0
 17 18  1  0
  5 19  1  0
 19 20  2  0
 20 21  1  0
 21 22  1  0
 20  2  1  0
 17  6  2  0
 14  8  1  0
  1 23  1  0
  1 24  1  0
  1 25  1  0
  3 26  1  0
  4 27  1  0
  9 28  1  0
 10 29  1  0
 11 30  1  0
 13 31  1  0
 18 32  1  0
 19 33  1  0
 21 34  1  0
 21 35  1  0
M  END
>  <meeko>  (5) 
{"is_sidechain": [false], "free_energy": -6.668, "intermolecular_energy": -8.295, "internal_energy": 0.23}

$$$$
cand_045_out
     RDKit          3D

 35 37  0  0  0  0  0  0  0  0999 V2000
  181.9260   17.4590   43.9300 C   0  0  0  0  0  0  0  0  0  0  0  0
  181.1580   18.4310   44.7840 C   0  0  0  0  0  0  0  0  0  0  0  0
  179.8760   18.0840   45.2330 C   0  0  0  0  0  0  0  0  0  0  0  0
  179.1310   18.9610   46.0270 C   0  0  0  0  0  0  0  0  0  0  0  0
  179.6460   20.2110   46.3870 C   0  0  0  0  0  0  0  0  0  0  0  0
  178.8900   21.1470   47.2470 C   0  0  0  0  0  0  0  0  0  0  0  0
  177.5160   20.9430   47.1900 O   0  0  0  0  0  0  0  0  0  0  0  0
  176.6950   21.7400   47.9460 C   0  0  0  0  0  0  0  0  0  0  0  0
  175.3230   21.5050   47.8510 C   0  0  0  0  0  0  0  0  0  0  0  0
  174.4300   22.2800   48.5940 C   0  0  0  0  0  0  0  0  0  0  0  0
  174.9090   23.2910   49.4310 C   0  0  0  0  0  0  0  0  0  0  0  0
  176.2800   23.5230   49.5230 C   0  0  0  0  0  0  0  0  0  0  0  0
  176.6820   24.5270   50.3610 O   0  0  0  0  0  0  0  0  0  0  0  0
  177.1720   22.7460   48.7790 C   0  0  0  0  0  0  0  0  0  0  0  0
  178.6190   22.9560   48.8470 C   0  0  0  0  0  0  0  0  0  0  0  0
  179.1180   23.8210   49.5650 O   0  0  0  0  0  0  0  0  0  0  0  0
  179.4780   22.0820   48.0160 C   0  0  0  0  0  0  0  0  0  0  0  0
  180.8450   22.2790   48.1010 O   0  0  0  0  0  0  0  0  0  0  0  0
  180.9340   20.5530   45.9460 C   0  0  0  0  0  0  0  0  0  0  0  0
  181.6980   19.6810   45.1480 C   0  0  0  0  0  0  0  0  0  0  0  0
  183.0730   20.1070   44.6970 C   0  0  0  0  0  0  0  0  0  0  0  0
  183.4110   21.3690   45.0890 F   0  0  0  0  0  0  0  0  0  0  0  0
  182.4781   16.7603   44.5757 H   0  0  0  0  0  0  0  0  0  0  0  0
  181.2260   16.8963   43.2950 H   0  0  0  0  0  0  0  0  0  0  0  0
  182.6354   18.0099   43.2950 H   0  0  0  0  0  0  0  0  0  0  0  0
  179.4504   17.1080   44.9567 H   0  0  0  0  0  0  0  0  0  0  0  0
  178.1294   18.6651   46.3723 H   0  0  0  0  0  0  0  0  0  0  0  0
  174.9451   20.7099   47.1914 H   0  0  0  0  0  0  0  0  0  0  0  0
  173.3483   22.0943   48.5202 H   0  0  0  0  0  0  0  0  0  0  0  0
  174.2058   23.9022   50.0158 H   0  0  0  0  0  0  0  0  0  0  0  0
  177.5750   24.8070   50.3610 H   0  0  0  0  0  0  0  0  0  0  0  0
  181.2310   22.5310   48.9160 H   0  0  0  0  0  0  0  0  0  0  0  0
  181.3571   21.5275   46.2314 H   0  0  0  0  0  0  0  0  0  0  0  0
  183.8090   19.4045   45.1150 H   0  0  0  0  0  0  0  0  0  0  0  0
  183.0669   20.1023   43.5970 H   0  0  0  0  0  0  0  0  0  0  0  0
  1  2  1  0
  2  3  2  0
  3  4  1  0
  4  5  2  0
  5  6  1  0
  6  7  1  0
  7  8  1  0
  8  9  2  0
  9 10  1  0
 10 11  2  0
 11 12  1  0
 12 13  1  0
 12 14  2  0
 14 15  1  0
 15 16  2  0
 15 17  1  0
 17 18  1  0
  5 19  1  0
 19 20  2  0
 20 21  1  0
 21 22  1  0
 20  2  1  0
 17  6  2  0
 14  8  1  0
  1 23  1  0
  1 24  1  0
  1 25  1  0
  3 26  1  0
  4 27  1  0
  9 28  1  0
 10 29  1  0
 11 30  1  0
 13 31  1  0
 18 32  1  0
 19 33  1  0
 21 34  1  0
 21 35  1  0
M  END
>  <meeko>  (6) 
{"is_sidechain": [false], "free_energy": -5.49, "intermolecular_energy": -6.857, "internal_energy": 0.175}

$$$$
cand_045_out
     RDKit          3D

 35 37  0  0  0  0  0  0  0  0999 V2000
  187.1630   24.3050   45.2480 C   0  0  0  0  0  0  0  0  0  0  0  0
  185.8630   23.5760   45.4550 C   0  0  0  0  0  0  0  0  0  0  0  0
  185.1380   23.7890   46.6360 C   0  0  0  0  0  0  0  0  0  0  0  0
  183.9270   23.1300   46.8630 C   0  0  0  0  0  0  0  0  0  0  0  0
  183.4120   22.2350   45.9200 C   0  0  0  0  0  0  0  0  0  0  0  0
  182.1210   21.5440   46.1250 C   0  0  0  0  0  0  0  0  0  0  0  0
  181.2350   22.2750   46.9070 O   0  0  0  0  0  0  0  0  0  0  0  0
  179.9950   21.7530   47.1710 C   0  0  0  0  0  0  0  0  0  0  0  0
  179.1410   22.5180   47.9670 C   0  0  0  0  0  0  0  0  0  0  0  0
  177.8640   22.0450   48.2740 C   0  0  0  0  0  0  0  0  0  0  0  0
  177.4400   20.8070   47.7860 C   0  0  0  0  0  0  0  0  0  0  0  0
  178.2940   20.0460   46.9910 C   0  0  0  0  0  0  0  0  0  0  0  0
  177.8160   18.8440   46.5450 O   0  0  0  0  0  0  0  0  0  0  0  0
  179.5720   20.5200   46.6840 C   0  0  0  0  0  0  0  0  0  0  0  0
  180.5000   19.7530   45.8520 C   0  0  0  0  0  0  0  0  0  0  0  0
  180.1980   18.6580   45.3800 O   0  0  0  0  0  0  0  0  0  0  0  0
  181.8330   20.3430   45.5890 C   0  0  0  0  0  0  0  0  0  0  0  0
  182.6950   19.6160   44.7890 O   0  0  0  0  0  0  0  0  0  0  0  0
  184.1330   22.0300   44.7340 C   0  0  0  0  0  0  0  0  0  0  0  0
  185.3530   22.6880   44.4870 C   0  0  0  0  0  0  0  0  0  0  0  0
  186.0880   22.4210   43.1970 C   0  0  0  0  0  0  0  0  0  0  0  0
  185.5770   23.0960   42.1270 F   0  0  0  0  0  0  0  0  0  0  0  0
  187.6042   24.5524   46.2248 H   0  0  0  0  0  0  0  0  0  0  0  0
  187.8568   23.6644   44.6839 H   0  0  0  0  0  0  0  0  0  0  0  0
  186.9783   25.2311   44.6839 H   0  0  0  0  0  0  0  0  0  0  0  0
  185.5278   24.4843   47.3941 H   0  0  0  0  0  0  0  0  0  0  0  0
  183.3723   23.3174   47.7942 H   0  0  0  0  0  0  0  0  0  0  0  0
  179.4740   23.4930   48.3522 H   0  0  0  0  0  0  0  0  0  0  0  0
  177.1909   22.6481   48.9010 H   0  0  0  0  0  0  0  0  0  0  0  0
  176.4341   20.4338   48.0288 H   0  0  0  0  0  0  0  0  0  0  0  0
  177.9590   18.0670   47.0480 H   0  0  0  0  0  0  0  0  0  0  0  0
  183.3390   19.0580   45.1790 H   0  0  0  0  0  0  0  0  0  0  0  0
  183.7349   21.3375   43.9777 H   0  0  0  0  0  0  0  0  0  0  0  0
  187.1386   22.7199   43.3272 H   0  0  0  0  0  0  0  0  0  0  0  0
  185.9818   21.3475   42.9816 H   0  0  0  0  0  0  0  0  0  0  0  0
  1  2  1  0
  2  3  2  0
  3  4  1  0
  4  5  2  0
  5  6  1  0
  6  7  1  0
  7  8  1  0
  8  9  2  0
  9 10  1  0
 10 11  2  0
 11 12  1  0
 12 13  1  0
 12 14  2  0
 14 15  1  0
 15 16  2  0
 15 17  1  0
 17 18  1  0
  5 19  1  0
 19 20  2  0
 20 21  1  0
 21 22  1  0
 20  2  1  0
 17  6  2  0
 14  8  1  0
  1 23  1  0
  1 24  1  0
  1 25  1  0
  3 26  1  0
  4 27  1  0
  9 28  1  0
 10 29  1  0
 11 30  1  0
 13 31  1  0
 18 32  1  0
 19 33  1  0
 21 34  1  0
 21 35  1  0
M  END
>  <meeko>  (7) 
{"is_sidechain": [false], "free_energy": -5.417, "intermolecular_energy": -6.682, "internal_energy": 0.087}

$$$$
cand_045_out
     RDKit          3D

 35 37  0  0  0  0  0  0  0  0999 V2000
  175.6140   23.4840   49.7210 C   0  0  0  0  0  0  0  0  0  0  0  0
  176.6260   22.7160   48.9150 C   0  0  0  0  0  0  0  0  0  0  0  0
  177.5490   23.4170   48.1270 C   0  0  0  0  0  0  0  0  0  0  0  0
  178.5040   22.7380   47.3640 C   0  0  0  0  0  0  0  0  0  0  0  0
  178.5550   21.3410   47.3610 C   0  0  0  0  0  0  0  0  0  0  0  0
  179.5700   20.5990   46.5830 C   0  0  0  0  0  0  0  0  0  0  0  0
  179.1490   19.3230   46.2240 O   0  0  0  0  0  0  0  0  0  0  0  0
  179.9920   18.5270   45.4930 C   0  0  0  0  0  0  0  0  0  0  0  0
  179.5310   17.2520   45.1620 C   0  0  0  0  0  0  0  0  0  0  0  0
  180.3400   16.3900   44.4180 C   0  0  0  0  0  0  0  0  0  0  0  0
  181.6090   16.8030   44.0060 C   0  0  0  0  0  0  0  0  0  0  0  0
  182.0660   18.0760   44.3370 C   0  0  0  0  0  0  0  0  0  0  0  0
  183.3170   18.4160   43.9010 O   0  0  0  0  0  0  0  0  0  0  0  0
  181.2560   18.9380   45.0810 C   0  0  0  0  0  0  0  0  0  0  0  0
  181.6970   20.2840   45.4500 C   0  0  0  0  0  0  0  0  0  0  0  0
  182.7970   20.7220   45.1190 O   0  0  0  0  0  0  0  0  0  0  0  0
  180.7650   21.1170   46.2440 C   0  0  0  0  0  0  0  0  0  0  0  0
  181.1860   22.3930   46.5730 O   0  0  0  0  0  0  0  0  0  0  0  0
  177.6370   20.6400   48.1590 C   0  0  0  0  0  0  0  0  0  0  0  0
  176.6710   21.3080   48.9350 C   0  0  0  0  0  0  0  0  0  0  0  0
  175.7050   20.5000   49.7660 C   0  0  0  0  0  0  0  0  0  0  0  0
  174.8950   19.6870   49.0290 F   0  0  0  0  0  0  0  0  0  0  0  0
  175.8099   23.3353   50.7931 H   0  0  0  0  0  0  0  0  0  0  0  0
  175.6890   24.5546   49.4796 H   0  0  0  0  0  0  0  0  0  0  0  0
  174.6031   23.1236   49.4796 H   0  0  0  0  0  0  0  0  0  0  0  0
  177.5218   24.5165   48.1085 H   0  0  0  0  0  0  0  0  0  0  0  0
  179.2234   23.3096   46.7592 H   0  0  0  0  0  0  0  0  0  0  0  0
  178.5317   16.9263   45.4866 H   0  0  0  0  0  0  0  0  0  0  0  0
  179.9773   15.3850   44.1563 H   0  0  0  0  0  0  0  0  0  0  0  0
  182.2464   16.1237   43.4210 H   0  0  0  0  0  0  0  0  0  0  0  0
  183.9430   18.7690   44.5020 H   0  0  0  0  0  0  0  0  0  0  0  0
  182.0150   22.7050   46.2690 H   0  0  0  0  0  0  0  0  0  0  0  0
  177.6735   19.5408   48.1784 H   0  0  0  0  0  0  0  0  0  0  0  0
  176.2839   19.8750   50.4619 H   0  0  0  0  0  0  0  0  0  0  0  0
  175.0530   21.2158   50.2880 H   0  0  0  0  0  0  0  0  0  0  0  0
  1  2  1  0
  2  3  2  0
  3  4  1  0
  4  5  2  0
  5  6  1  0
  6  7  1  0
  7  8  1  0
  8  9  2  0
  9 10  1  0
 10 11  2  0
 11 12  1  0
 12 13  1  0
 12 14  2  0
 14 15  1  0
 15 16  2  0
 15 17  1  0
 17 18  1  0
  5 19  1  0
 19 20  2  0
 20 21  1  0
 21 22  1  0
 20  2  1  0
 17  6  2  0
 14  8  1  0
  1 23  1  0
  1 24  1  0
  1 25  1  0
  3 26  1  0
  4 27  1  0
  9 28  1  0
 10 29  1  0
 11 30  1  0
 13 31  1  0
 18 32  1  0
 19 33  1  0
 21 34  1  0
 21 35  1  0
M  END
>  <meeko>  (8) 
{"is_sidechain": [false], "free_energy": -5.289, "intermolecular_energy": -6.518, "internal_energy": 0.073}

$$$$
