cand_036_out
     RDKit          3D

 35 37  0  0  0  0  0  0  0  0999 V2000
  182.0020   15.0390   42.7600 C   0  0  0  0  0  0  0  0  0  0  0  0
  181.3180   16.0360   43.6550 C   0  0  0  0  0  0  0  0  0  0  0  0
  181.6350   17.3960   43.5370 C   0  0  0  0  0  0  0  0  0  0  0  0
  181.0190   18.3490   44.3520 C   0  0  0  0  0  0  0  0  0  0  0  0
  180.0760   17.9680   45.3110 C   0  0  0  0  0  0  0  0  0  0  0  0
  179.3910   18.9600   46.1670 C   0  0  0  0  0  0  0  0  0  0  0  0
  178.0080   18.8260   46.1470 O   0  0  0  0  0  0  0  0  0  0  0  0
  177.2460   19.6840   46.8990 C   0  0  0  0  0  0  0  0  0  0  0  0
  175.8620   19.5240   46.8370 C   0  0  0  0  0  0  0  0  0  0  0  0
  175.0290   20.3640   47.5800 C   0  0  0  0  0  0  0  0  0  0  0  0
  175.5810   21.3630   48.3840 C   0  0  0  0  0  0  0  0  0  0  0  0
  176.9630   21.5210   48.4440 C   0  0  0  0  0  0  0  0  0  0  0  0
  177.4370   22.5190   49.2510 O   0  0  0  0  0  0  0  0  0  0  0  0
  177.7960   20.6810   47.7000 C   0  0  0  0  0  0  0  0  0  0  0  0
  179.2540   20.8130   47.7340 C   0  0  0  0  0  0  0  0  0  0  0  0
  179.8130   21.6640   48.4220 O   0  0  0  0  0  0  0  0  0  0  0  0
  180.0460   19.8780   46.9020 C   0  0  0  0  0  0  0  0  0  0  0  0
  181.4210   20.0040   46.9520 O   0  0  0  0  0  0  0  0  0  0  0  0
  179.7530   16.6070   45.4210 C   0  0  0  0  0  0  0  0  0  0  0  0
  180.3620   15.6350   44.6080 C   0  0  0  0  0  0  0  0  0  0  0  0
  179.9820   14.1900   44.7770 C   0  0  0  0  0  0  0  0  0  0  0  0
  182.5178   14.2872   43.3754 H   0  0  0  0  0  0  0  0  0  0  0  0
  181.2536   14.5423   42.1251 H   0  0  0  0  0  0  0  0  0  0  0  0
  182.7348   15.5585   42.1251 H   0  0  0  0  0  0  0  0  0  0  0  0
  182.3786   17.7174   42.7929 H   0  0  0  0  0  0  0  0  0  0  0  0
  181.2791   19.4117   44.2377 H   0  0  0  0  0  0  0  0  0  0  0  0
  175.4267   18.7371   46.2036 H   0  0  0  0  0  0  0  0  0  0  0  0
  173.9373   20.2382   47.5315 H   0  0  0  0  0  0  0  0  0  0  0  0
  174.9250   22.0243   48.9692 H   0  0  0  0  0  0  0  0  0  0  0  0
  178.3410   22.7620   49.2150 H   0  0  0  0  0  0  0  0  0  0  0  0
  181.9640   19.2410   46.9040 H   0  0  0  0  0  0  0  0  0  0  0  0
  179.0039   16.2924   46.1625 H   0  0  0  0  0  0  0  0  0  0  0  0
  179.9190   13.9504   45.8487 H   0  0  0  0  0  0  0  0  0  0  0  0
  179.0059   14.0097   44.3030 H   0  0  0  0  0  0  0  0  0  0  0  0
  180.7431   13.5528   44.3030 H   0  0  0  0  0  0  0  0  0  0  0  0
  1  2  1  0
  2  3  2  0
  3  4  1  0
  4  5  2  0
  5  6  1  0
  6  7  1  0
  7  8  1  0
  8  9  2  0
  9 10  1  0
 10 11  2  0
 11 12  1  0
 12 13  1  0
 12 14  2  0
 14 15  1  0
 15 16  2  0
 15 17  1  0
 17 18  1  0
  5 19  1  0
 19 20  2  0
 20 21  1  0
 20  2  1  0
 17  6  2  0
 14  8  1  0
  1 22  1  0
  1 23  1  0
  1 24  1  0
  3 25  1  0
  4 26  1  0
  9 27  1  0
 10 28  1  0
 11 29  1  0
 13 30  1  0
 18 31  1  0
 19 32  1  0
 21 33  1  0
 21 34  1  0
 21 35  1  0
M  END
>  <meeko>  (1) 
{"is_sidechain": [false], "free_energy": -7.718, "intermolecular_energy": -8.62, "internal_energy": -0.106}

$$$$
cand_036_out
     RDKit          3D

 35 37  0  0  0  0  0  0  0  0999 V2000
  171.7870   24.9020   49.4650 C   0  0  0  0  0  0  0  0  0  0  0  0
  173.1890   24.3660   49.5530 C   0  0  0  0  0  0  0  0  0  0  0  0
  173.4250   23.0100   49.2900 C   0  0  0  0  0  0  0  0  0  0  0  0
  174.7140   22.4780   49.3630 C   0  0  0  0  0  0  0  0  0  0  0  0
  175.8020   23.2860   49.7070 C   0  0  0  0  0  0  0  0  0  0  0  0
  177.1800   22.7530   49.7650 C   0  0  0  0  0  0  0  0  0  0  0  0
  177.6080   22.2310   48.5500 O   0  0  0  0  0  0  0  0  0  0  0  0
  178.8710   21.7020   48.4620 C   0  0  0  0  0  0  0  0  0  0  0  0
  179.2530   21.1750   47.2280 C   0  0  0  0  0  0  0  0  0  0  0  0
  180.5260   20.6230   47.0710 C   0  0  0  0  0  0  0  0  0  0  0  0
  181.4170   20.5990   48.1460 C   0  0  0  0  0  0  0  0  0  0  0  0
  181.0330   21.1260   49.3770 C   0  0  0  0  0  0  0  0  0  0  0  0
  181.9530   21.0700   50.3870 O   0  0  0  0  0  0  0  0  0  0  0  0
  179.7580   21.6770   49.5340 C   0  0  0  0  0  0  0  0  0  0  0  0
  179.3140   22.2410   50.8100 C   0  0  0  0  0  0  0  0  0  0  0  0
  180.0430   22.2620   51.8000 O   0  0  0  0  0  0  0  0  0  0  0  0
  177.9410   22.7940   50.8740 C   0  0  0  0  0  0  0  0  0  0  0  0
  177.5380   23.3360   52.0800 O   0  0  0  0  0  0  0  0  0  0  0  0
  175.5670   24.6460   49.9610 C   0  0  0  0  0  0  0  0  0  0  0  0
  174.2750   25.1970   49.8900 C   0  0  0  0  0  0  0  0  0  0  0  0
  174.0820   26.6600   50.1800 C   0  0  0  0  0  0  0  0  0  0  0  0
  171.3884   25.0544   50.4789 H   0  0  0  0  0  0  0  0  0  0  0  0
  171.7942   25.8608   48.9259 H   0  0  0  0  0  0  0  0  0  0  0  0
  171.1527   24.1830   48.9259 H   0  0  0  0  0  0  0  0  0  0  0  0
  172.5827   22.3552   49.0222 H   0  0  0  0  0  0  0  0  0  0  0  0
  174.8752   21.4114   49.1475 H   0  0  0  0  0  0  0  0  0  0  0  0
  178.5525   21.1943   46.3801 H   0  0  0  0  0  0  0  0  0  0  0  0
  180.8275   20.2063   46.0987 H   0  0  0  0  0  0  0  0  0  0  0  0
  182.4200   20.1649   48.0210 H   0  0  0  0  0  0  0  0  0  0  0  0
  181.9350   20.3610   50.9980 H   0  0  0  0  0  0  0  0  0  0  0  0
  176.6330   23.3180   52.3230 H   0  0  0  0  0  0  0  0  0  0  0  0
  176.4143   25.2972   50.2221 H   0  0  0  0  0  0  0  0  0  0  0  0
  174.0611   26.8184   51.2683 H   0  0  0  0  0  0  0  0  0  0  0  0
  174.9123   27.2333   49.7419 H   0  0  0  0  0  0  0  0  0  0  0  0
  173.1314   26.9984   49.7419 H   0  0  0  0  0  0  0  0  0  0  0  0
  1  2  1  0
  2  3  2  0
  3  4  1  0
  4  5  2  0
  5  6  1  0
  6  7  1  0
  7  8  1  0
  8  9  2  0
  9 10  1  0
 10 11  2  0
 11 12  1  0
 12 13  1  0
 12 14  2  0
 14 15  1  0
 15 16  2  0
 15 17  1  0
 17 18  1  0
  5 19  1  0
 19 20  2  0
 20 21  1  0
 20  2  1  0
 17  6  2  0
 14  8  1  0
  1 22  1  0
  1 23  1  0
  1 24  1  0
  3 25  1  0
  4 26  1  0
  9 27  1  0
 10 28  1  0
 11 29  1  0
 13 30  1  0
 18 31  1  0
 19 32  1  0
 21 33  1  0
 21 34  1  0
 21 35  1  0
M  END
>  <meeko>  (2) 
{"is_sidechain": [false], "free_energy": -7.471, "intermolecular_energy": -8.297, "internal_energy": -0.153}

$$$$
cand_036_out
     RDKit          3D

 35 37  0  0  0  0  0  0  0  0999 V2000
  185.0570   23.4820   47.9460 C   0  0  0  0  0  0  0  0  0  0  0  0
  183.6310   23.0890   48.2180 C   0  0  0  0  0  0  0  0  0  0  0  0
  183.3610   21.8450   48.8030 C   0  0  0  0  0  0  0  0  0  0  0  0
  182.0480   21.4470   49.0690 C   0  0  0  0  0  0  0  0  0  0  0  0
  180.9710   22.2800   48.7510 C   0  0  0  0  0  0  0  0  0  0  0  0
  179.5750   21.8940   49.0470 C   0  0  0  0  0  0  0  0  0  0  0  0
  178.8590   21.5420   47.9080 O   0  0  0  0  0  0  0  0  0  0  0  0
  177.5480   21.1610   48.0390 C   0  0  0  0  0  0  0  0  0  0  0  0
  176.8640   20.8310   46.8690 C   0  0  0  0  0  0  0  0  0  0  0  0
  175.5260   20.4330   46.9320 C   0  0  0  0  0  0  0  0  0  0  0  0
  174.8740   20.3660   48.1650 C   0  0  0  0  0  0  0  0  0  0  0  0
  175.5590   20.6960   49.3320 C   0  0  0  0  0  0  0  0  0  0  0  0
  174.8610   20.6080   50.5050 O   0  0  0  0  0  0  0  0  0  0  0  0
  176.8970   21.0950   49.2680 C   0  0  0  0  0  0  0  0  0  0  0  0
  177.6540   21.4510   50.4690 C   0  0  0  0  0  0  0  0  0  0  0  0
  177.1510   21.4100   51.5900 O   0  0  0  0  0  0  0  0  0  0  0  0
  179.0640   21.8670   50.2920 C   0  0  0  0  0  0  0  0  0  0  0  0
  179.7730   22.1880   51.4340 O   0  0  0  0  0  0  0  0  0  0  0  0
  181.2440   23.5300   48.1740 C   0  0  0  0  0  0  0  0  0  0  0  0
  182.5590   23.9460   47.9020 C   0  0  0  0  0  0  0  0  0  0  0  0
  182.7900   25.2930   47.2750 C   0  0  0  0  0  0  0  0  0  0  0  0
  185.5855   23.6276   48.8997 H   0  0  0  0  0  0  0  0  0  0  0  0
  185.5529   22.6870   47.3697 H   0  0  0  0  0  0  0  0  0  0  0  0
  185.0756   24.4188   47.3697 H   0  0  0  0  0  0  0  0  0  0  0  0
  184.1937   21.1724   49.0564 H   0  0  0  0  0  0  0  0  0  0  0  0
  181.8598   20.4678   49.5336 H   0  0  0  0  0  0  0  0  0  0  0  0
  177.3774   20.8840   45.8976 H   0  0  0  0  0  0  0  0  0  0  0  0
  174.9860   20.1723   46.0098 H   0  0  0  0  0  0  0  0  0  0  0  0
  173.8206   20.0530   48.2146 H   0  0  0  0  0  0  0  0  0  0  0  0
  173.9910   20.2600   50.5070 H   0  0  0  0  0  0  0  0  0  0  0  0
  180.1110   23.0550   51.5480 H   0  0  0  0  0  0  0  0  0  0  0  0
  180.4078   24.2012   47.9284 H   0  0  0  0  0  0  0  0  0  0  0  0
  182.9194   26.0477   48.0647 H   0  0  0  0  0  0  0  0  0  0  0  0
  183.6950   25.2566   46.6508 H   0  0  0  0  0  0  0  0  0  0  0  0
  181.9246   25.5602   46.6508 H   0  0  0  0  0  0  0  0  0  0  0  0
  1  2  1  0
  2  3  2  0
  3  4  1  0
  4  5  2  0
  5  6  1  0
  6  7  1  0
  7  8  1  0
  8  9  2  0
  9 10  1  0
 10 11  2  0
 11 12  1  0
 12 13  1  0
 12 14  2  0
 14 15  1  0
 15 16  2  0
 15 17  1  0
 17 18  1  0
  5 19  1  0
 19 20  2  0
 20 21  1  0
 20  2  1  0
 17  6  2  0
 14  8  1  0
  1 22  1  0
  1 23  1  0
  1 24  1  0
  3 25  1  0
  4 26  1  0
  9 27  1  0
 10 28  1  0
 11 29  1  0
 13 30  1  0
 18 31  1  0
 19 32  1  0
 21 33  1  0
 21 34  1  0
 21 35  1  0
M  END
>  <meeko>  (3) 
{"is_sidechain": [false], "free_energy": -7.29, "intermolecular_energy": -7.98, "internal_energy": -0.268}

$$$$
cand_036_out
     RDKit          3D

 35 37  0  0  0  0  0  0  0  0999 V2000
  170.0110   25.1680   52.0240 C   0  0  0  0  0  0  0  0  0  0  0  0
  171.2110   24.6200   51.3020 C   0  0  0  0  0  0  0  0  0  0  0  0
  171.3120   24.7810   49.9140 C   0  0  0  0  0  0  0  0  0  0  0  0
  172.4120   24.2840   49.2110 C   0  0  0  0  0  0  0  0  0  0  0  0
  173.4380   23.6050   49.8770 C   0  0  0  0  0  0  0  0  0  0  0  0
  174.6250   23.0930   49.1600 C   0  0  0  0  0  0  0  0  0  0  0  0
  174.4270   21.8270   48.6230 O   0  0  0  0  0  0  0  0  0  0  0  0
  175.4500   21.2310   47.9310 C   0  0  0  0  0  0  0  0  0  0  0  0
  175.2130   19.9540   47.4220 C   0  0  0  0  0  0  0  0  0  0  0  0
  176.2120   19.2920   46.7060 C   0  0  0  0  0  0  0  0  0  0  0  0
  177.4480   19.9080   46.4970 C   0  0  0  0  0  0  0  0  0  0  0  0
  177.6830   21.1830   47.0060 C   0  0  0  0  0  0  0  0  0  0  0  0
  178.9150   21.7270   46.7660 O   0  0  0  0  0  0  0  0  0  0  0  0
  176.6820   21.8440   47.7240 C   0  0  0  0  0  0  0  0  0  0  0  0
  176.8870   23.1840   48.2760 C   0  0  0  0  0  0  0  0  0  0  0  0
  177.9450   23.7930   48.1290 O   0  0  0  0  0  0  0  0  0  0  0  0
  175.7660   23.7940   49.0280 C   0  0  0  0  0  0  0  0  0  0  0  0
  175.9670   25.0650   49.5320 O   0  0  0  0  0  0  0  0  0  0  0  0
  173.3400   23.4530   51.2690 C   0  0  0  0  0  0  0  0  0  0  0  0
  172.2410   23.9490   51.9910 C   0  0  0  0  0  0  0  0  0  0  0  0
  172.1870   23.7480   53.4800 C   0  0  0  0  0  0  0  0  0  0  0  0
  170.1713   25.0948   53.1098 H   0  0  0  0  0  0  0  0  0  0  0  0
  169.8651   26.2220   51.7452 H   0  0  0  0  0  0  0  0  0  0  0  0
  169.1189   24.5880   51.7452 H   0  0  0  0  0  0  0  0  0  0  0  0
  170.5134   25.3065   49.3698 H   0  0  0  0  0  0  0  0  0  0  0  0
  172.4722   24.4280   48.1221 H   0  0  0  0  0  0  0  0  0  0  0  0
  174.2393   19.4688   47.5847 H   0  0  0  0  0  0  0  0  0  0  0  0
  176.0256   18.2844   46.3061 H   0  0  0  0  0  0  0  0  0  0  0  0
  178.2345   19.3870   45.9313 H   0  0  0  0  0  0  0  0  0  0  0  0
  179.1070   22.0990   45.9280 H   0  0  0  0  0  0  0  0  0  0  0  0
  176.6310   25.2140   50.1760 H   0  0  0  0  0  0  0  0  0  0  0  0
  174.1444   22.9320   51.8089 H   0  0  0  0  0  0  0  0  0  0  0  0
  172.4403   24.6909   53.9867 H   0  0  0  0  0  0  0  0  0  0  0  0
  171.1732   23.4360   53.7714 H   0  0  0  0  0  0  0  0  0  0  0  0
  172.9080   22.9700   53.7714 H   0  0  0  0  0  0  0  0  0  0  0  0
  1  2  1  0
  2  3  2  0
  3  4  1  0
  4  5  2  0
  5  6  1  0
  6  7  1  0
  7  8  1  0
  8  9  2  0
  9 10  1  0
 10 11  2  0
 11 12  1  0
 12 13  1  0
 12 14  2  0
 14 15  1  0
 15 16  2  0
 15 17  1  0
 17 18  1  0
  5 19  1  0
 19 20  2  0
 20 21  1  0
 20  2  1  0
 17  6  2  0
 14  8  1  0
  1 22  1  0
  1 23  1  0
  1 24  1  0
  3 25  1  0
  4 26  1  0
  9 27  1  0
 10 28  1  0
 11 29  1  0
 13 30  1  0
 18 31  1  0
 19 32  1  0
 21 33  1  0
 21 34  1  0
 21 35  1  0
M  END
>  <meeko>  (4) 
{"is_sidechain": [false], "free_energy": -7.226, "intermolecular_energy": -7.859, "internal_energy": -0.318}

$$$$
cand_036_out
     RDKit          3D

 35 37  0  0  0  0  0  0  0  0999 V2000
  181.3890   20.7660   45.9440 C   0  0  0  0  0  0  0  0  0  0  0  0
  180.3550   21.1810   46.9550 C   0  0  0  0  0  0  0  0  0  0  0  0
  180.5970   22.2950   47.7690 C   0  0  0  0  0  0  0  0  0  0  0  0
  179.6600   22.7070   48.7190 C   0  0  0  0  0  0  0  0  0  0  0  0
  178.4570   22.0130   48.8850 C   0  0  0  0  0  0  0  0  0  0  0  0
  177.4370   22.4450   49.8640 C   0  0  0  0  0  0  0  0  0  0  0  0
  176.3100   22.9910   49.2630 O   0  0  0  0  0  0  0  0  0  0  0  0
  175.2820   23.4340   50.0560 C   0  0  0  0  0  0  0  0  0  0  0  0
  174.1760   23.9890   49.4110 C   0  0  0  0  0  0  0  0  0  0  0  0
  173.0950   24.4570   50.1610 C   0  0  0  0  0  0  0  0  0  0  0  0
  173.1190   24.3700   51.5540 C   0  0  0  0  0  0  0  0  0  0  0  0
  174.2240   23.8150   52.1960 C   0  0  0  0  0  0  0  0  0  0  0  0
  174.1830   23.7610   53.5620 O   0  0  0  0  0  0  0  0  0  0  0  0
  175.3070   23.3480   51.4450 C   0  0  0  0  0  0  0  0  0  0  0  0
  176.4870   22.7590   52.0790 C   0  0  0  0  0  0  0  0  0  0  0  0
  176.5800   22.6420   53.2990 O   0  0  0  0  0  0  0  0  0  0  0  0
  177.5830   22.3010   51.1940 C   0  0  0  0  0  0  0  0  0  0  0  0
  178.6870   21.7350   51.8030 O   0  0  0  0  0  0  0  0  0  0  0  0
  178.2120   20.9030   48.0620 C   0  0  0  0  0  0  0  0  0  0  0  0
  179.1440   20.4760   47.1000 C   0  0  0  0  0  0  0  0  0  0  0  0
  178.8300   19.2740   46.2520 C   0  0  0  0  0  0  0  0  0  0  0  0
  182.2878   20.4053   46.4656 H   0  0  0  0  0  0  0  0  0  0  0  0
  180.9831   19.9611   45.3136 H   0  0  0  0  0  0  0  0  0  0  0  0
  181.6522   21.6282   45.3136 H   0  0  0  0  0  0  0  0  0  0  0  0
  181.5384   22.8532   47.6584 H   0  0  0  0  0  0  0  0  0  0  0  0
  179.8704   23.5874   49.3439 H   0  0  0  0  0  0  0  0  0  0  0  0
  174.1557   24.0577   48.3133 H   0  0  0  0  0  0  0  0  0  0  0  0
  172.2230   24.8950   49.6532 H   0  0  0  0  0  0  0  0  0  0  0  0
  172.2670   24.7390   52.1438 H   0  0  0  0  0  0  0  0  0  0  0  0
  173.4350   23.3960   53.9940 H   0  0  0  0  0  0  0  0  0  0  0  0
  178.6870   20.8220   52.0180 H   0  0  0  0  0  0  0  0  0  0  0  0
  177.2660   20.3527   48.1725 H   0  0  0  0  0  0  0  0  0  0  0  0
  178.6057   18.4153   46.9019 H   0  0  0  0  0  0  0  0  0  0  0  0
  177.9584   19.4908   45.6170 H   0  0  0  0  0  0  0  0  0  0  0  0
  179.6963   19.0368   45.6170 H   0  0  0  0  0  0  0  0  0  0  0  0
  1  2  1  0
  2  3  2  0
  3  4  1  0
  4  5  2  0
  5  6  1  0
  6  7  1  0
  7  8  1  0
  8  9  2  0
  9 10  1  0
 10 11  2  0
 11 12  1  0
 12 13  1  0
 12 14  2  0
 14 15  1  0
 15 16  2  0
 15 17  1  0
 17 18  1  0
  5 19  1  0
 19 20  2  0
 20 21  1  0
 20  2  1  0
 17  6  2  0
 14  8  1  0
  1 22  1  0
  1 23  1  0
  1 24  1  0
  3 25  1  0
  4 26  1  0
  9 27  1  0
 10 28  1  0
 11 29  1  0
 13 30  1  0
 18 31  1  0
 19 32  1  0
 21 33  1  0
 21 34  1  0
 21 35  1  0
M  END
>  <meeko>  (5) 
{"is_sidechain": [false], "free_energy": -7.218, "intermolecular_energy": -7.895, "internal_energy": -0.273}

$$$$
cand_036_out
     RDKit          3D

 35 37  0  0  0  0  0  0  0  0999 V2000
  176.4760   18.6180   46.2290 C   0  0  0  0  0  0  0  0  0  0  0  0
  176.3620   19.6700   47.2980 C   0  0  0  0  0  0  0  0  0  0  0  0
  175.2990   19.6110   48.2100 C   0  0  0  0  0  0  0  0  0  0  0  0
  175.1610   20.5710   49.2150 C   0  0  0  0  0  0  0  0  0  0  0  0
  176.0770   21.6220   49.3300 C   0  0  0  0  0  0  0  0  0  0  0  0
  175.9690   22.6360   50.4000 C   0  0  0  0  0  0  0  0  0  0  0  0
  175.4510   23.8440   49.9490 O   0  0  0  0  0  0  0  0  0  0  0  0
  175.2970   24.8750   50.8400 C   0  0  0  0  0  0  0  0  0  0  0  0
  174.7880   26.0740   50.3400 C   0  0  0  0  0  0  0  0  0  0  0  0
  174.6040   27.1630   51.1960 C   0  0  0  0  0  0  0  0  0  0  0  0
  174.9280   27.0520   52.5490 C   0  0  0  0  0  0  0  0  0  0  0  0
  175.4360   25.8540   53.0450 C   0  0  0  0  0  0  0  0  0  0  0  0
  175.7320   25.8140   54.3800 O   0  0  0  0  0  0  0  0  0  0  0  0
  175.6200   24.7650   52.1890 C   0  0  0  0  0  0  0  0  0  0  0  0
  176.1520   23.4880   52.6690 C   0  0  0  0  0  0  0  0  0  0  0  0
  176.4540   23.3110   53.8480 O   0  0  0  0  0  0  0  0  0  0  0  0
  176.3170   22.3990   51.6790 C   0  0  0  0  0  0  0  0  0  0  0  0
  176.8060   21.1940   52.1460 O   0  0  0  0  0  0  0  0  0  0  0  0
  177.1460   21.6740   48.4210 C   0  0  0  0  0  0  0  0  0  0  0  0
  177.3000   20.7140   47.4060 C   0  0  0  0  0  0  0  0  0  0  0  0
  178.4610   20.8270   46.4560 C   0  0  0  0  0  0  0  0  0  0  0  0
  176.5832   17.6288   46.6980 H   0  0  0  0  0  0  0  0  0  0  0  0
  175.5712   18.6312   45.6036 H   0  0  0  0  0  0  0  0  0  0  0  0
  177.3570   18.8247   45.6036 H   0  0  0  0  0  0  0  0  0  0  0  0
  174.5631   18.7970   48.1330 H   0  0  0  0  0  0  0  0  0  0  0  0
  174.3229   20.4999   49.9238 H   0  0  0  0  0  0  0  0  0  0  0  0
  174.5320   26.1618   49.2738 H   0  0  0  0  0  0  0  0  0  0  0  0
  174.2033   28.1090   50.8030 H   0  0  0  0  0  0  0  0  0  0  0  0
  174.7823   27.9094   53.2225 H   0  0  0  0  0  0  0  0  0  0  0  0
  175.0580   25.9580   55.0150 H   0  0  0  0  0  0  0  0  0  0  0  0
  177.6340   20.8750   51.8430 H   0  0  0  0  0  0  0  0  0  0  0  0
  177.8820   22.4871   48.5055 H   0  0  0  0  0  0  0  0  0  0  0  0
  179.3958   20.9180   47.0286 H   0  0  0  0  0  0  0  0  0  0  0  0
  178.5051   19.9289   45.8224 H   0  0  0  0  0  0  0  0  0  0  0  0
  178.3311   21.7167   45.8224 H   0  0  0  0  0  0  0  0  0  0  0  0
  1  2  1  0
  2  3  2  0
  3  4  1  0
  4  5  2  0
  5  6  1  0
  6  7  1  0
  7  8  1  0
  8  9  2  0
  9 10  1  0
 10 11  2  0
 11 12  1  0
 12 13  1  0
 12 14  2  0
 14 15  1  0
 15 16  2  0
 15 17  1  0
 17 18  1  0
  5 19  1  0
 19 20  2  0
 20 21  1  0
 20  2  1  0
 17  6  2  0
 14  8  1  0
  1 22  1  0
  1 23  1  0
  1 24  1  0
  3 25  1  0
  4 26  1  0
  9 27  1  0
 10 28  1  0
 11 29  1  0
 13 30  1  0
 18 31  1  0
 19 32  1  0
 21 33  1  0
 21 34  1  0
 21 35  1  0
M  END
>  <meeko>  (6) 
{"is_sidechain": [false], "free_energy": -7.181, "intermolecular_energy": -7.838, "internal_energy": -0.289}

$$$$
cand_036_out
     RDKit          3D

 35 37  0  0  0  0  0  0  0  0999 V2000
  175.3720   26.9510   53.0590 C   0  0  0  0  0  0  0  0  0  0  0  0
  175.5580   25.8240   52.0810 C   0  0  0  0  0  0  0  0  0  0  0  0
  176.1640   24.6350   52.5100 C   0  0  0  0  0  0  0  0  0  0  0  0
  176.3540   23.5680   51.6290 C   0  0  0  0  0  0  0  0  0  0  0  0
  175.9490   23.6620   50.2940 C   0  0  0  0  0  0  0  0  0  0  0  0
  176.1130   22.5370   49.3490 C   0  0  0  0  0  0  0  0  0  0  0  0
  177.4230   22.3920   48.9060 O   0  0  0  0  0  0  0  0  0  0  0  0
  177.7170   21.3850   48.0230 C   0  0  0  0  0  0  0  0  0  0  0  0
  179.0410   21.2860   47.5920 C   0  0  0  0  0  0  0  0  0  0  0  0
  179.4080   20.2810   46.6950 C   0  0  0  0  0  0  0  0  0  0  0  0
  178.4530   19.3760   46.2280 C   0  0  0  0  0  0  0  0  0  0  0  0
  177.1320   19.4770   46.6590 C   0  0  0  0  0  0  0  0  0  0  0  0
  176.2480   18.5590   46.1630 O   0  0  0  0  0  0  0  0  0  0  0  0
  176.7650   20.4830   47.5570 C   0  0  0  0  0  0  0  0  0  0  0  0
  175.3890   20.6260   48.0350 C   0  0  0  0  0  0  0  0  0  0  0  0
  174.4930   19.8640   47.6750 O   0  0  0  0  0  0  0  0  0  0  0  0
  175.1020   21.7300   48.9790 C   0  0  0  0  0  0  0  0  0  0  0  0
  173.8020   21.8470   49.4340 O   0  0  0  0  0  0  0  0  0  0  0  0
  175.3330   24.8500   49.8690 C   0  0  0  0  0  0  0  0  0  0  0  0
  175.1330   25.9320   50.7430 C   0  0  0  0  0  0  0  0  0  0  0  0
  174.4760   27.1830   50.2280 C   0  0  0  0  0  0  0  0  0  0  0  0
  175.4365   26.5603   54.0853 H   0  0  0  0  0  0  0  0  0  0  0  0
  176.1579   27.7048   52.9036 H   0  0  0  0  0  0  0  0  0  0  0  0
  174.3856   27.4123   52.9036 H   0  0  0  0  0  0  0  0  0  0  0  0
  176.4945   24.5410   53.5550 H   0  0  0  0  0  0  0  0  0  0  0  0
  176.8277   22.6430   51.9896 H   0  0  0  0  0  0  0  0  0  0  0  0
  179.7942   21.9989   47.9586 H   0  0  0  0  0  0  0  0  0  0  0  0
  180.4514   20.2021   46.3557 H   0  0  0  0  0  0  0  0  0  0  0  0
  178.7430   18.5847   45.5211 H   0  0  0  0  0  0  0  0  0  0  0  0
  175.7970   18.7290   45.3590 H   0  0  0  0  0  0  0  0  0  0  0  0
  173.0910   21.8590   48.8230 H   0  0  0  0  0  0  0  0  0  0  0  0
  174.9982   24.9360   48.8247 H   0  0  0  0  0  0  0  0  0  0  0  0
  174.1507   27.8024   51.0768 H   0  0  0  0  0  0  0  0  0  0  0  0
  175.1935   27.7484   49.6152 H   0  0  0  0  0  0  0  0  0  0  0  0
  173.6032   26.9132   49.6152 H   0  0  0  0  0  0  0  0  0  0  0  0
  1  2  1  0
  2  3  2  0
  3  4  1  0
  4  5  2  0
  5  6  1  0
  6  7  1  0
  7  8  1  0
  8  9  2  0
  9 10  1  0
 10 11  2  0
 11 12  1  0
 12 13  1  0
 12 14  2  0
 14 15  1  0
 15 16  2  0
 15 17  1  0
 17 18  1  0
  5 19  1  0
 19 20  2  0
 20 21  1  0
 20  2  1  0
 17  6  2  0
 14  8  1  0
  1 22  1  0
  1 23  1  0
  1 24  1  0
  3 25  1  0
  4 26  1  0
  9 27  1  0
 10 28  1  0
 11 29  1  0
 13 30  1  0
 18 31  1  0
 19 32  1  0
 21 33  1  0
 21 34  1  0
 21 35  1  0
M  END
>  <meeko>  (7) 
{"is_sidechain": [false], "free_energy": -7.09, "intermolecular_energy": -7.742, "internal_energy": -0.283}

$$$$
cand_036_out
     RDKit          3D

 35 37  0  0  0  0  0  0  0  0999 V2000
  175.8640   21.2160   46.6670 C   0  0  0  0  0  0  0  0  0  0  0  0
  177.2870   21.4570   47.0930 C   0  0  0  0  0  0  0  0  0  0  0  0
  177.6460   22.7080   47.6110 C   0  0  0  0  0  0  0  0  0  0  0  0
  178.9580   22.9680   48.0160 C   0  0  0  0  0  0  0  0  0  0  0  0
  179.9470   21.9860   47.9050 C   0  0  0  0  0  0  0  0  0  0  0  0
  181.3370   22.2260   48.3510 C   0  0  0  0  0  0  0  0  0  0  0  0
  182.1620   22.6720   47.3260 O   0  0  0  0  0  0  0  0  0  0  0  0
  183.4800   22.9350   47.6010 C   0  0  0  0  0  0  0  0  0  0  0  0
  184.2760   23.3660   46.5390 C   0  0  0  0  0  0  0  0  0  0  0  0
  185.6270   23.6520   46.7530 C   0  0  0  0  0  0  0  0  0  0  0  0
  186.1800   23.5090   48.0270 C   0  0  0  0  0  0  0  0  0  0  0  0
  185.3830   23.0790   49.0850 C   0  0  0  0  0  0  0  0  0  0  0  0
  185.9880   22.9600   50.3060 O   0  0  0  0  0  0  0  0  0  0  0  0
  184.0320   22.7910   48.8710 C   0  0  0  0  0  0  0  0  0  0  0  0
  183.1590   22.3360   49.9550 C   0  0  0  0  0  0  0  0  0  0  0  0
  183.5710   22.1920   51.1040 O   0  0  0  0  0  0  0  0  0  0  0  0
  181.7450   22.0510   49.6210 C   0  0  0  0  0  0  0  0  0  0  0  0
  180.9270   21.6350   50.6550 O   0  0  0  0  0  0  0  0  0  0  0  0
  179.5840   20.7300   47.3950 C   0  0  0  0  0  0  0  0  0  0  0  0
  178.2680   20.4520   46.9850 C   0  0  0  0  0  0  0  0  0  0  0  0
  177.9390   19.0910   46.4370 C   0  0  0  0  0  0  0  0  0  0  0  0
  175.2278   21.1083   47.5579 H   0  0  0  0  0  0  0  0  0  0  0  0
  175.5120   22.0673   46.0659 H   0  0  0  0  0  0  0  0  0  0  0  0
  175.8120   20.2963   46.0659 H   0  0  0  0  0  0  0  0  0  0  0  0
  176.8845   23.4968   47.7002 H   0  0  0  0  0  0  0  0  0  0  0  0
  179.2153   23.9556   48.4264 H   0  0  0  0  0  0  0  0  0  0  0  0
  183.8408   23.4804   45.5352 H   0  0  0  0  0  0  0  0  0  0  0  0
  186.2558   23.9904   45.9163 H   0  0  0  0  0  0  0  0  0  0  0  0
  187.2433   23.7356   48.1948 H   0  0  0  0  0  0  0  0  0  0  0  0
  186.8880   23.1980   50.4070 H   0  0  0  0  0  0  0  0  0  0  0  0
  181.2580   21.6070   51.5320 H   0  0  0  0  0  0  0  0  0  0  0  0
  180.3483   19.9431   47.3139 H   0  0  0  0  0  0  0  0  0  0  0  0
  177.7700   18.3917   47.2691 H   0  0  0  0  0  0  0  0  0  0  0  0
  177.0302   19.1538   45.8205 H   0  0  0  0  0  0  0  0  0  0  0  0
  178.7762   18.7318   45.8205 H   0  0  0  0  0  0  0  0  0  0  0  0
  1  2  1  0
  2  3  2  0
  3  4  1  0
  4  5  2  0
  5  6  1  0
  6  7  1  0
  7  8  1  0
  8  9  2  0
  9 10  1  0
 10 11  2  0
 11 12  1  0
 12 13  1  0
 12 14  2  0
 14 15  1  0
 15 16  2  0
 15 17  1  0
 17 18  1  0
  5 19  1  0
 19 20  2  0
 20 21  1  0
 20  2  1  0
 17  6  2  0
 14  8  1  0
  1 22  1  0
  1 23  1  0
  1 24  1  0
  3 25  1  0
  4 26  1  0
  9 27  1  0
 10 28  1  0
 11 29  1  0
 13 30  1  0
 18 31  1  0
 19 32  1  0
 21 33  1  0
 21 34  1  0
 21 35  1  0
M  END
>  <meeko>  (8) 
{"is_sidechain": [false], "free_energy": -7.052, "intermolecular_energy": -7.663, "internal_energy": -0.32}

$$$$
cand_036_out
     RDKit          3D

 35 37  0  0  0  0  0  0  0  0999 V2000
  172.4650   24.9770   51.7870 C   0  0  0  0  0  0  0  0  0  0  0  0
  173.3860   24.1290   50.9530 C   0  0  0  0  0  0  0  0  0  0  0  0
  174.5750   23.6470   51.5180 C   0  0  0  0  0  0  0  0  0  0  0  0
  175.4540   22.8570   50.7730 C   0  0  0  0  0  0  0  0  0  0  0  0
  175.1730   22.5350   49.4420 C   0  0  0  0  0  0  0  0  0  0  0  0
  176.0740   21.6790   48.6400 C   0  0  0  0  0  0  0  0  0  0  0  0
  177.3680   22.1790   48.5670 O   0  0  0  0  0  0  0  0  0  0  0  0
  178.3100   21.4830   47.8530 C   0  0  0  0  0  0  0  0  0  0  0  0
  179.5930   22.0290   47.7920 C   0  0  0  0  0  0  0  0  0  0  0  0
  180.5980   21.3680   47.0830 C   0  0  0  0  0  0  0  0  0  0  0  0
  180.3220   20.1630   46.4350 C   0  0  0  0  0  0  0  0  0  0  0  0
  179.0400   19.6200   46.4970 C   0  0  0  0  0  0  0  0  0  0  0  0
  178.8380   18.4370   45.8400 O   0  0  0  0  0  0  0  0  0  0  0  0
  178.0340   20.2820   47.2060 C   0  0  0  0  0  0  0  0  0  0  0  0
  176.6750   19.7460   47.2950 C   0  0  0  0  0  0  0  0  0  0  0  0
  176.3560   18.6880   46.7570 O   0  0  0  0  0  0  0  0  0  0  0  0
  175.6800   20.5290   48.0650 C   0  0  0  0  0  0  0  0  0  0  0  0
  174.4030   20.0070   48.1540 O   0  0  0  0  0  0  0  0  0  0  0  0
  173.9770   23.0120   48.8810 C   0  0  0  0  0  0  0  0  0  0  0  0
  173.0810   23.8060   49.6170 C   0  0  0  0  0  0  0  0  0  0  0  0
  171.8190   24.2950   48.9600 C   0  0  0  0  0  0  0  0  0  0  0  0
  172.6635   24.7942   52.8534 H   0  0  0  0  0  0  0  0  0  0  0  0
  172.6374   26.0392   51.5587 H   0  0  0  0  0  0  0  0  0  0  0  0
  171.4207   24.7177   51.5587 H   0  0  0  0  0  0  0  0  0  0  0  0
  174.8191   23.8941   52.5617 H   0  0  0  0  0  0  0  0  0  0  0  0
  176.3779   22.4840   51.2391 H   0  0  0  0  0  0  0  0  0  0  0  0
  179.8122   22.9788   48.3018 H   0  0  0  0  0  0  0  0  0  0  0  0
  181.6094   21.7978   47.0350 H   0  0  0  0  0  0  0  0  0  0  0  0
  181.1145   19.6431   45.8767 H   0  0  0  0  0  0  0  0  0  0  0  0
  178.5860   18.4400   44.9370 H   0  0  0  0  0  0  0  0  0  0  0  0
  173.9520   19.7370   47.3770 H   0  0  0  0  0  0  0  0  0  0  0  0
  173.7354   22.7575   47.8385 H   0  0  0  0  0  0  0  0  0  0  0  0
  171.0891   24.5778   49.7329 H   0  0  0  0  0  0  0  0  0  0  0  0
  172.0471   25.1698   48.3334 H   0  0  0  0  0  0  0  0  0  0  0  0
  171.3981   23.4949   48.3334 H   0  0  0  0  0  0  0  0  0  0  0  0
  1  2  1  0
  2  3  2  0
  3  4  1  0
  4  5  2  0
  5  6  1  0
  6  7  1  0
  7  8  1  0
  8  9  2  0
  9 10  1  0
 10 11  2  0
 11 12  1  0
 12 13  1  0
 12 14  2  0
 14 15  1  0
 15 16  2  0
 15 17  1  0
 17 18  1  0
  5 19  1  0
 19 20  2  0
 20 21  1  0
 20  2  1  0
 17  6  2  0
 14  8  1  0
  1 22  1  0
  1 23  1  0
  1 24  1  0
  3 25  1  0
  4 26  1  0
  9 27  1  0
 10 28  1  0
 11 29  1  0
 13 30  1  0
 18 31  1  0
 19 32  1  0
 21 33  1  0
 21 34  1  0
 21 35  1  0
M  END
>  <meeko>  (9) 
{"is_sidechain": [false], "free_energy": -7.037, "intermolecular_energy": -7.858, "internal_energy": -0.108}

$$$$
