cand_042_out
     RDKit          3D

 38 40  0  0  0  0  0  0  0  0999 V2000
  181.2690   14.9640   41.3360 C   0  0  0  0  0  0  0  0  0  0  0  0
  181.9360   15.0030   42.7020 C   0  0  0  0  0  0  0  0  0  0  0  0
  181.3360   16.0660   43.5950 C   0  0  0  0  0  0  0  0  0  0  0  0
  181.7580   17.3950   43.4280 C   0  0  0  0  0  0  0  0  0  0  0  0
  181.2490   18.4190   44.2290 C   0  0  0  0  0  0  0  0  0  0  0  0
  180.2990   18.1470   45.2170 C   0  0  0  0  0  0  0  0  0  0  0  0
  179.7610   19.2070   46.0950 C   0  0  0  0  0  0  0  0  0  0  0  0
  178.3720   19.2710   46.0770 O   0  0  0  0  0  0  0  0  0  0  0  0
  177.7410   20.2120   46.8490 C   0  0  0  0  0  0  0  0  0  0  0  0
  176.3460   20.2300   46.8120 C   0  0  0  0  0  0  0  0  0  0  0  0
  175.6410   21.1650   47.5730 C   0  0  0  0  0  0  0  0  0  0  0  0
  176.3300   22.0820   48.3710 C   0  0  0  0  0  0  0  0  0  0  0  0
  177.7220   22.0600   48.4060 C   0  0  0  0  0  0  0  0  0  0  0  0
  178.3330   22.9860   49.2070 O   0  0  0  0  0  0  0  0  0  0  0  0
  178.4280   21.1240   47.6440 C   0  0  0  0  0  0  0  0  0  0  0  0
  179.8890   21.0690   47.6520 C   0  0  0  0  0  0  0  0  0  0  0  0
  180.5670   21.8460   48.3230 O   0  0  0  0  0  0  0  0  0  0  0  0
  180.5400   20.0340   46.8160 C   0  0  0  0  0  0  0  0  0  0  0  0
  181.9230   20.0000   46.8220 O   0  0  0  0  0  0  0  0  0  0  0  0
  179.8880   16.8160   45.3950 C   0  0  0  0  0  0  0  0  0  0  0  0
  180.3970   15.7710   44.6020 C   0  0  0  0  0  0  0  0  0  0  0  0
  179.8960   14.3720   44.8380 C   0  0  0  0  0  0  0  0  0  0  0  0
  180.1781   14.9002   41.4623 H   0  0  0  0  0  0  0  0  0  0  0  0
  181.5208   15.8784   40.7788 H   0  0  0  0  0  0  0  0  0  0  0  0
  181.6256   14.0852   40.7788 H   0  0  0  0  0  0  0  0  0  0  0  0
  181.8134   14.0225   43.1853 H   0  0  0  0  0  0  0  0  0  0  0  0
  182.9992   15.2435   42.5544 H   0  0  0  0  0  0  0  0  0  0  0  0
  182.5018   17.6331   42.6534 H   0  0  0  0  0  0  0  0  0  0  0  0
  181.5996   19.4510   44.0807 H   0  0  0  0  0  0  0  0  0  0  0  0
  175.8024   19.5086   46.1842 H   0  0  0  0  0  0  0  0  0  0  0  0
  174.5415   21.1796   47.5441 H   0  0  0  0  0  0  0  0  0  0  0  0
  175.7746   22.8190   48.9697 H   0  0  0  0  0  0  0  0  0  0  0  0
  178.1030   23.0470   50.1130 H   0  0  0  0  0  0  0  0  0  0  0  0
  182.4100   20.7720   47.0270 H   0  0  0  0  0  0  0  0  0  0  0  0
  179.1482   16.5841   46.1754 H   0  0  0  0  0  0  0  0  0  0  0  0
  179.8287   14.1842   45.9198 H   0  0  0  0  0  0  0  0  0  0  0  0
  178.9009   14.2573   44.3834 H   0  0  0  0  0  0  0  0  0  0  0  0
  180.5920   13.6517   44.3834 H   0  0  0  0  0  0  0  0  0  0  0  0
  1  2  1  0
  2  3  1  0
  3  4  2  0
  4  5  1  0
  5  6  2  0
  6  7  1  0
  7  8  1  0
  8  9  1  0
  9 10  2  0
 10 11  1  0
 11 12  2  0
 12 13  1  0
 13 14  1  0
 13 15  2  0
 15 16  1  0
 16 17  2  0
 16 18  1  0
 18 19  1  0
  6 20  1  0
 20 21  2  0
 21 22  1  0
 21  3  1  0
 18  7  2  0
 15  9  1  0
  1 23  1  0
  1 24  1  0
  1 25  1  0
  2 26  1  0
  2 27  1  0
  4 28  1  0
  5 29  1  0
 10 30  1  0
 11 31  1  0
 12 32  1  0
 14 33  1  0
 19 34  1  0
 20 35  1  0
 22 36  1  0
 22 37  1  0
 22 38  1  0
M  END
>  <meeko>  (1) 
{"is_sidechain": [false], "free_energy": -8.618, "intermolecular_energy": -10.13, "internal_energy": -0.263}

$$$$
cand_042_out
     RDKit          3D

 38 40  0  0  0  0  0  0  0  0999 V2000
  176.8590   23.8380   48.7200 C   0  0  0  0  0  0  0  0  0  0  0  0
  176.3550   22.4140   48.9000 C   0  0  0  0  0  0  0  0  0  0  0  0
  177.1590   21.4220   48.0900 C   0  0  0  0  0  0  0  0  0  0  0  0
  178.5600   21.5150   48.1200 C   0  0  0  0  0  0  0  0  0  0  0  0
  179.3570   20.6340   47.3850 C   0  0  0  0  0  0  0  0  0  0  0  0
  178.7770   19.6320   46.6030 C   0  0  0  0  0  0  0  0  0  0  0  0
  179.5950   18.7010   45.7960 C   0  0  0  0  0  0  0  0  0  0  0  0
  179.1050   17.4010   45.8090 O   0  0  0  0  0  0  0  0  0  0  0  0
  179.7700   16.4350   45.1000 C   0  0  0  0  0  0  0  0  0  0  0  0
  179.2350   15.1460   45.1290 C   0  0  0  0  0  0  0  0  0  0  0  0
  179.8640   14.1140   44.4280 C   0  0  0  0  0  0  0  0  0  0  0  0
  181.0280   14.3700   43.7000 C   0  0  0  0  0  0  0  0  0  0  0  0
  181.5590   15.6570   43.6720 C   0  0  0  0  0  0  0  0  0  0  0  0
  182.7010   15.8380   42.9400 O   0  0  0  0  0  0  0  0  0  0  0  0
  180.9290   16.6900   44.3720 C   0  0  0  0  0  0  0  0  0  0  0  0
  181.4540   18.0550   44.3700 C   0  0  0  0  0  0  0  0  0  0  0  0
  182.4770   18.3580   43.7580 O   0  0  0  0  0  0  0  0  0  0  0  0
  180.7070   19.0780   45.1370 C   0  0  0  0  0  0  0  0  0  0  0  0
  181.2200   20.3620   45.1380 O   0  0  0  0  0  0  0  0  0  0  0  0
  177.3760   19.5480   46.5600 C   0  0  0  0  0  0  0  0  0  0  0  0
  176.5580   20.4320   47.2880 C   0  0  0  0  0  0  0  0  0  0  0  0
  175.0650   20.2710   47.2080 C   0  0  0  0  0  0  0  0  0  0  0  0
  177.0214   24.2969   49.7064 H   0  0  0  0  0  0  0  0  0  0  0  0
  177.8067   23.8237   48.1617 H   0  0  0  0  0  0  0  0  0  0  0  0
  176.1133   24.4231   48.1617 H   0  0  0  0  0  0  0  0  0  0  0  0
  176.4258   22.1440   49.9640 H   0  0  0  0  0  0  0  0  0  0  0  0
  175.3135   22.3751   48.5482 H   0  0  0  0  0  0  0  0  0  0  0  0
  179.0375   22.2942   48.7322 H   0  0  0  0  0  0  0  0  0  0  0  0
  180.4521   20.7302   47.4223 H   0  0  0  0  0  0  0  0  0  0  0  0
  178.3190   14.9429   45.7032 H   0  0  0  0  0  0  0  0  0  0  0  0
  179.4418   13.0985   44.4495 H   0  0  0  0  0  0  0  0  0  0  0  0
  181.5242   13.5568   43.1500 H   0  0  0  0  0  0  0  0  0  0  0  0
  182.9480   16.6980   42.6620 H   0  0  0  0  0  0  0  0  0  0  0  0
  181.7860   20.6400   45.8290 H   0  0  0  0  0  0  0  0  0  0  0  0
  176.9052   18.7703   45.9406 H   0  0  0  0  0  0  0  0  0  0  0  0
  174.6461   20.2258   48.2241 H   0  0  0  0  0  0  0  0  0  0  0  0
  174.6321   21.1277   46.6707 H   0  0  0  0  0  0  0  0  0  0  0  0
  174.8247   19.3417   46.6707 H   0  0  0  0  0  0  0  0  0  0  0  0
  1  2  1  0
  2  3  1  0
  3  4  2  0
  4  5  1  0
  5  6  2  0
  6  7  1  0
  7  8  1  0
  8  9  1  0
  9 10  2  0
 10 11  1  0
 11 12  2  0
 12 13  1  0
 13 14  1  0
 13 15  2  0
 15 16  1  0
 16 17  2  0
 16 18  1  0
 18 19  1  0
  6 20  1  0
 20 21  2  0
 21 22  1  0
 21  3  1  0
 18  7  2  0
 15  9  1  0
  1 23  1  0
  1 24  1  0
  1 25  1  0
  2 26  1  0
  2 27  1  0
  4 28  1  0
  5 29  1  0
 10 30  1  0
 11 31  1  0
 12 32  1  0
 14 33  1  0
 19 34  1  0
 20 35  1  0
 22 36  1  0
 22 37  1  0
 22 38  1  0
M  END
>  <meeko>  (2) 
{"is_sidechain": [false], "free_energy": -7.375, "intermolecular_energy": -8.844, "internal_energy": -0.087}

$$$$
cand_042_out
     RDKit          3D

 38 40  0  0  0  0  0  0  0  0999 V2000
  181.1010   16.6300   42.1660 C   0  0  0  0  0  0  0  0  0  0  0  0
  181.7480   16.7770   43.5350 C   0  0  0  0  0  0  0  0  0  0  0  0
  181.0040   17.7600   44.4100 C   0  0  0  0  0  0  0  0  0  0  0  0
  181.3840   19.1110   44.3690 C   0  0  0  0  0  0  0  0  0  0  0  0
  180.7420   20.0650   45.1620 C   0  0  0  0  0  0  0  0  0  0  0  0
  179.6980   19.6970   46.0150 C   0  0  0  0  0  0  0  0  0  0  0  0
  179.0170   20.6810   46.8830 C   0  0  0  0  0  0  0  0  0  0  0  0
  177.6370   20.5160   46.9080 O   0  0  0  0  0  0  0  0  0  0  0  0
  176.8810   21.3640   47.6750 C   0  0  0  0  0  0  0  0  0  0  0  0
  175.5010   21.1530   47.6810 C   0  0  0  0  0  0  0  0  0  0  0  0
  174.6730   21.9820   48.4410 C   0  0  0  0  0  0  0  0  0  0  0  0
  175.2230   23.0220   49.1940 C   0  0  0  0  0  0  0  0  0  0  0  0
  176.6000   23.2290   49.1860 C   0  0  0  0  0  0  0  0  0  0  0  0
  177.0720   24.2660   49.9440 O   0  0  0  0  0  0  0  0  0  0  0  0
  177.4290   22.3990   48.4260 C   0  0  0  0  0  0  0  0  0  0  0  0
  178.8800   22.5830   48.3900 C   0  0  0  0  0  0  0  0  0  0  0  0
  179.4380   23.4800   49.0190 O   0  0  0  0  0  0  0  0  0  0  0  0
  179.6690   21.6450   47.5590 C   0  0  0  0  0  0  0  0  0  0  0  0
  181.0380   21.8370   47.5230 O   0  0  0  0  0  0  0  0  0  0  0  0
  179.3280   18.3430   46.0680 C   0  0  0  0  0  0  0  0  0  0  0  0
  179.9700   17.3680   45.2820 C   0  0  0  0  0  0  0  0  0  0  0  0
  179.5070   15.9400   45.3780 C   0  0  0  0  0  0  0  0  0  0  0  0
  180.0350   16.3878   42.2884 H   0  0  0  0  0  0  0  0  0  0  0  0
  181.2011   17.5738   41.6099 H   0  0  0  0  0  0  0  0  0  0  0  0
  181.5991   15.8221   41.6099 H   0  0  0  0  0  0  0  0  0  0  0  0
  181.7563   15.7953   44.0312 H   0  0  0  0  0  0  0  0  0  0  0  0
  182.7697   17.1575   43.3890 H   0  0  0  0  0  0  0  0  0  0  0  0
  182.2006   19.4233   43.7015 H   0  0  0  0  0  0  0  0  0  0  0  0
  181.0614   21.1165   45.1146 H   0  0  0  0  0  0  0  0  0  0  0  0
  175.0664   20.3349   47.0879 H   0  0  0  0  0  0  0  0  0  0  0  0
  173.5857   21.8156   48.4466 H   0  0  0  0  0  0  0  0  0  0  0  0
  174.5704   23.6755   49.7915 H   0  0  0  0  0  0  0  0  0  0  0  0
  176.7260   24.4150   50.8010 H   0  0  0  0  0  0  0  0  0  0  0  0
  181.6130   21.1000   47.4710 H   0  0  0  0  0  0  0  0  0  0  0  0
  178.5145   18.0365   46.7420 H   0  0  0  0  0  0  0  0  0  0  0  0
  179.4146   15.6549   46.4364 H   0  0  0  0  0  0  0  0  0  0  0  0
  178.5296   15.8374   44.8839 H   0  0  0  0  0  0  0  0  0  0  0  0
  180.2383   15.2834   44.8839 H   0  0  0  0  0  0  0  0  0  0  0  0
  1  2  1  0
  2  3  1  0
  3  4  2  0
  4  5  1  0
  5  6  2  0
  6  7  1  0
  7  8  1  0
  8  9  1  0
  9 10  2  0
 10 11  1  0
 11 12  2  0
 12 13  1  0
 13 14  1  0
 13 15  2  0
 15 16  1  0
 16 17  2  0
 16 18  1  0
 18 19  1  0
  6 20  1  0
 20 21  2  0
 21 22  1  0
 21  3  1  0
 18  7  2  0
 15  9  1  0
  1 23  1  0
  1 24  1  0
  1 25  1  0
  2 26  1  0
  2 27  1  0
  4 28  1  0
  5 29  1  0
 10 30  1  0
 11 31  1  0
 12 32  1  0
 14 33  1  0
 19 34  1  0
 20 35  1  0
 22 36  1  0
 22 37  1  0
 22 38  1  0
M  END
>  <meeko>  (3) 
{"is_sidechain": [false], "free_energy": -7.328, "intermolecular_energy": -8.77, "internal_energy": -0.106}

$$$$
cand_042_out
     RDKit          3D

 38 40  0  0  0  0  0  0  0  0999 V2000
  181.4300   15.4840   42.1320 C   0  0  0  0  0  0  0  0  0  0  0  0
  181.9480   15.8540   43.5140 C   0  0  0  0  0  0  0  0  0  0  0  0
  180.9950   16.7690   44.2500 C   0  0  0  0  0  0  0  0  0  0  0  0
  181.1780   18.1560   44.1340 C   0  0  0  0  0  0  0  0  0  0  0  0
  180.3370   19.0520   44.7980 C   0  0  0  0  0  0  0  0  0  0  0  0
  179.2840   18.5880   45.5910 C   0  0  0  0  0  0  0  0  0  0  0  0
  178.3940   19.5130   46.3240 C   0  0  0  0  0  0  0  0  0  0  0  0
  179.0400   20.6710   46.7380 O   0  0  0  0  0  0  0  0  0  0  0  0
  178.3280   21.6160   47.4310 C   0  0  0  0  0  0  0  0  0  0  0  0
  179.0130   22.7700   47.8140 C   0  0  0  0  0  0  0  0  0  0  0  0
  178.3470   23.7730   48.5230 C   0  0  0  0  0  0  0  0  0  0  0  0
  176.9970   23.6210   48.8500 C   0  0  0  0  0  0  0  0  0  0  0  0
  176.3170   22.4690   48.4650 C   0  0  0  0  0  0  0  0  0  0  0  0
  174.9970   22.3850   48.8180 O   0  0  0  0  0  0  0  0  0  0  0  0
  176.9830   21.4660   47.7550 C   0  0  0  0  0  0  0  0  0  0  0  0
  176.3050   20.2410   47.3320 C   0  0  0  0  0  0  0  0  0  0  0  0
  175.1200   20.0310   47.5880 O   0  0  0  0  0  0  0  0  0  0  0  0
  177.0990   19.2440   46.5780 C   0  0  0  0  0  0  0  0  0  0  0  0
  176.4510   18.0840   46.1950 O   0  0  0  0  0  0  0  0  0  0  0  0
  179.1100   17.2000   45.7200 C   0  0  0  0  0  0  0  0  0  0  0  0
  179.9530   16.2840   45.0650 C   0  0  0  0  0  0  0  0  0  0  0  0
  179.6950   14.8120   45.2340 C   0  0  0  0  0  0  0  0  0  0  0  0
  180.5387   14.8473   42.2329 H   0  0  0  0  0  0  0  0  0  0  0  0
  181.1664   16.3994   41.5820 H   0  0  0  0  0  0  0  0  0  0  0  0
  182.2105   14.9377   41.5820 H   0  0  0  0  0  0  0  0  0  0  0  0
  182.0815   14.9336   44.1014 H   0  0  0  0  0  0  0  0  0  0  0  0
  182.9017   16.3873   43.3878 H   0  0  0  0  0  0  0  0  0  0  0  0
  181.9969   18.5435   43.5101 H   0  0  0  0  0  0  0  0  0  0  0  0
  180.5053   20.1342   44.6957 H   0  0  0  0  0  0  0  0  0  0  0  0
  180.0761   22.8898   47.5580 H   0  0  0  0  0  0  0  0  0  0  0  0
  178.8861   24.6834   48.8241 H   0  0  0  0  0  0  0  0  0  0  0  0
  176.4730   24.4095   49.4101 H   0  0  0  0  0  0  0  0  0  0  0  0
  174.3760   22.9820   48.4520 H   0  0  0  0  0  0  0  0  0  0  0  0
  175.7310   18.1250   45.5980 H   0  0  0  0  0  0  0  0  0  0  0  0
  178.2927   16.8193   46.3501 H   0  0  0  0  0  0  0  0  0  0  0  0
  179.6522   14.5679   46.3057 H   0  0  0  0  0  0  0  0  0  0  0  0
  178.7374   14.5508   44.7599 H   0  0  0  0  0  0  0  0  0  0  0  0
  180.5067   14.2407   44.7599 H   0  0  0  0  0  0  0  0  0  0  0  0
  1  2  1  0
  2  3  1  0
  3  4  2  0
  4  5  1  0
  5  6  2  0
  6  7  1  0
  7  8  1  0
  8  9  1  0
  9 10  2  0
 10 11  1  0
 11 12  2  0
 12 13  1  0
 13 14  1  0
 13 15  2  0
 15 16  1  0
 16 17  2  0
 16 18  1  0
 18 19  1  0
  6 20  1  0
 20 21  2  0
 21 22  1  0
 21  3  1  0
 18  7  2  0
 15  9  1  0
  1 23  1  0
  1 24  1  0
  1 25  1  0
  2 26  1  0
  2 27  1  0
  4 28  1  0
  5 29  1  0
 10 30  1  0
 11 31  1  0
 12 32  1  0
 14 33  1  0
 19 34  1  0
 20 35  1  0
 22 36  1  0
 22 37  1  0
 22 38  1  0
M  END
>  <meeko>  (4) 
{"is_sidechain": [false], "free_energy": -6.716, "intermolecular_energy": -8.206, "internal_energy": 0.049}

$$$$
