cand_039_out
     RDKit          3D

 41 43  0  0  0  0  0  0  0  0999 V2000
  181.2910   14.8140   41.1990 C   0  0  0  0  0  0  0  0  0  0  0  0
  181.9900   14.8450   42.5510 C   0  0  0  0  0  0  0  0  0  0  0  0
  181.3500   15.8360   43.4950 C   0  0  0  0  0  0  0  0  0  0  0  0
  181.5310   17.2060   43.2380 C   0  0  0  0  0  0  0  0  0  0  0  0
  180.9620   18.1770   44.0640 C   0  0  0  0  0  0  0  0  0  0  0  0
  180.1980   17.8110   45.1760 C   0  0  0  0  0  0  0  0  0  0  0  0
  179.5860   18.8530   46.0270 C   0  0  0  0  0  0  0  0  0  0  0  0
  178.1960   18.8260   45.9980 O   0  0  0  0  0  0  0  0  0  0  0  0
  177.4990   19.7410   46.7450 C   0  0  0  0  0  0  0  0  0  0  0  0
  176.1070   19.6660   46.6990 C   0  0  0  0  0  0  0  0  0  0  0  0
  175.3360   20.5710   47.4340 C   0  0  0  0  0  0  0  0  0  0  0  0
  175.9580   21.5480   48.2140 C   0  0  0  0  0  0  0  0  0  0  0  0
  177.3480   21.6200   48.2570 C   0  0  0  0  0  0  0  0  0  0  0  0
  177.8920   22.6000   49.0410 O   0  0  0  0  0  0  0  0  0  0  0  0
  178.1190   20.7140   47.5230 C   0  0  0  0  0  0  0  0  0  0  0  0
  179.5810   20.7550   47.5400 C   0  0  0  0  0  0  0  0  0  0  0  0
  180.2010   21.5900   48.1960 O   0  0  0  0  0  0  0  0  0  0  0  0
  180.3050   19.7460   46.7320 C   0  0  0  0  0  0  0  0  0  0  0  0
  181.6860   19.8020   46.7460 O   0  0  0  0  0  0  0  0  0  0  0  0
  180.0020   16.4450   45.4240 C   0  0  0  0  0  0  0  0  0  0  0  0
  180.5630   15.4490   44.5980 C   0  0  0  0  0  0  0  0  0  0  0  0
  180.3130   14.0030   44.9650 C   0  0  0  0  0  0  0  0  0  0  0  0
  178.8360   13.6450   44.8870 C   0  0  0  0  0  0  0  0  0  0  0  0
  180.2025   14.7657   41.3500 H   0  0  0  0  0  0  0  0  0  0  0  0
  181.5429   15.7242   40.6350 H   0  0  0  0  0  0  0  0  0  0  0  0
  181.6225   13.9297   40.6350 H   0  0  0  0  0  0  0  0  0  0  0  0
  181.9392   13.8423   43.0004 H   0  0  0  0  0  0  0  0  0  0  0  0
  183.0328   15.1549   42.3880 H   0  0  0  0  0  0  0  0  0  0  0  0
  182.1315   17.5185   42.3709 H   0  0  0  0  0  0  0  0  0  0  0  0
  181.1166   19.2422   43.8373 H   0  0  0  0  0  0  0  0  0  0  0  0
  175.6168   18.8959   46.0853 H   0  0  0  0  0  0  0  0  0  0  0  0
  174.2381   20.5135   47.3979 H   0  0  0  0  0  0  0  0  0  0  0  0
  175.3512   22.2594   48.7934 H   0  0  0  0  0  0  0  0  0  0  0  0
  177.3340   23.1760   49.5260 H   0  0  0  0  0  0  0  0  0  0  0  0
  182.1240   20.4240   47.2930 H   0  0  0  0  0  0  0  0  0  0  0  0
  179.3928   16.1413   46.2881 H   0  0  0  0  0  0  0  0  0  0  0  0
  180.8723   13.3582   44.2712 H   0  0  0  0  0  0  0  0  0  0  0  0
  180.6460   13.8521   46.0025 H   0  0  0  0  0  0  0  0  0  0  0  0
  178.4285   13.5462   45.9039 H   0  0  0  0  0  0  0  0  0  0  0  0
  178.2944   14.4379   44.3503 H   0  0  0  0  0  0  0  0  0  0  0  0
  178.7175   12.6921   44.3503 H   0  0  0  0  0  0  0  0  0  0  0  0
  1  2  1  0
  2  3  1  0
  3  4  2  0
  4  5  1  0
  5  6  2  0
  6  7  1  0
  7  8  1  0
  8  9  1  0
  9 10  2  0
 10 11  1  0
 11 12  2  0
 12 13  1  0
 13 14  1  0
 13 15  2  0
 15 16  1  0
 16 17  2  0
 16 18  1  0
 18 19  1  0
  6 20  1  0
 20 21  2  0
 21 22  1  0
 22 23  1  0
 21  3  1  0
 18  7  2  0
 15  9  1  0
  1 24  1  0
  1 25  1  0
  1 26  1  0
  2 27  1  0
  2 28  1  0
  4 29  1  0
  5 30  1  0
 10 31  1  0
 11 32  1  0
 12 33  1  0
 14 34  1  0
 19 35  1  0
 20 36  1  0
 22 37  1  0
 22 38  1  0
 23 39  1  0
 23 40  1  0
 23 41  1  0
M  END
>  <meeko>  (1) 
{"is_sidechain": [false], "free_energy": -7.943, "intermolecular_energy": -9.801, "internal_energy": -0.542}

$$$$
cand_039_out
     RDKit          3D

 41 43  0  0  0  0  0  0  0  0999 V2000
  181.1100   14.9250   40.4440 C   0  0  0  0  0  0  0  0  0  0  0  0
  181.1960   14.4330   41.8820 C   0  0  0  0  0  0  0  0  0  0  0  0
  180.9960   15.5550   42.8750 C   0  0  0  0  0  0  0  0  0  0  0  0
  181.1620   16.8750   42.4220 C   0  0  0  0  0  0  0  0  0  0  0  0
  180.9850   17.9610   43.2820 C   0  0  0  0  0  0  0  0  0  0  0  0
  180.6420   17.7620   44.6220 C   0  0  0  0  0  0  0  0  0  0  0  0
  180.4380   18.9250   45.5120 C   0  0  0  0  0  0  0  0  0  0  0  0
  181.5740   19.7180   45.6330 O   0  0  0  0  0  0  0  0  0  0  0  0
  181.5240   20.8320   46.4310 C   0  0  0  0  0  0  0  0  0  0  0  0
  182.6810   21.6070   46.5110 C   0  0  0  0  0  0  0  0  0  0  0  0
  182.6980   22.7540   47.3080 C   0  0  0  0  0  0  0  0  0  0  0  0
  181.5580   23.1250   48.0240 C   0  0  0  0  0  0  0  0  0  0  0  0
  180.4050   22.3500   47.9430 C   0  0  0  0  0  0  0  0  0  0  0  0
  179.3250   22.7700   48.6700 O   0  0  0  0  0  0  0  0  0  0  0  0
  180.3880   21.2020   47.1440 C   0  0  0  0  0  0  0  0  0  0  0  0
  179.1970   20.3600   47.0310 C   0  0  0  0  0  0  0  0  0  0  0  0
  178.1580   20.6170   47.6360 O   0  0  0  0  0  0  0  0  0  0  0  0
  179.2800   19.1700   46.1520 C   0  0  0  0  0  0  0  0  0  0  0  0
  178.1540   18.3740   46.0640 O   0  0  0  0  0  0  0  0  0  0  0  0
  180.4580   16.4470   45.0710 C   0  0  0  0  0  0  0  0  0  0  0  0
  180.6260   15.3370   44.2160 C   0  0  0  0  0  0  0  0  0  0  0  0
  180.4290   13.9570   44.8030 C   0  0  0  0  0  0  0  0  0  0  0  0
  178.9620   13.6630   45.0810 C   0  0  0  0  0  0  0  0  0  0  0  0
  180.9206   16.0086   40.4379 H   0  0  0  0  0  0  0  0  0  0  0  0
  182.0584   14.7156   39.9275 H   0  0  0  0  0  0  0  0  0  0  0  0
  180.2889   14.4063   39.9275 H   0  0  0  0  0  0  0  0  0  0  0  0
  180.4188   13.6717   42.0444 H   0  0  0  0  0  0  0  0  0  0  0  0
  182.2008   14.0140   42.0392 H   0  0  0  0  0  0  0  0  0  0  0  0
  181.4360   17.0558   41.3721 H   0  0  0  0  0  0  0  0  0  0  0  0
  181.1170   18.9842   42.9004 H   0  0  0  0  0  0  0  0  0  0  0  0
  183.5792   21.3152   45.9470 H   0  0  0  0  0  0  0  0  0  0  0  0
  183.6101   23.3655   47.3717 H   0  0  0  0  0  0  0  0  0  0  0  0
  181.5713   24.0286   48.6512 H   0  0  0  0  0  0  0  0  0  0  0  0
  178.8610   22.1640   49.2130 H   0  0  0  0  0  0  0  0  0  0  0  0
  177.4770   18.4450   46.7080 H   0  0  0  0  0  0  0  0  0  0  0  0
  180.1745   16.2754   46.1199 H   0  0  0  0  0  0  0  0  0  0  0  0
  180.8130   13.2101   44.0925 H   0  0  0  0  0  0  0  0  0  0  0  0
  180.9728   13.9119   45.7581 H   0  0  0  0  0  0  0  0  0  0  0  0
  178.7943   13.6294   46.1676 H   0  0  0  0  0  0  0  0  0  0  0  0
  178.3392   14.4542   44.6382 H   0  0  0  0  0  0  0  0  0  0  0  0
  178.6921   12.6929   44.6382 H   0  0  0  0  0  0  0  0  0  0  0  0
  1  2  1  0
  2  3  1  0
  3  4  2  0
  4  5  1  0
  5  6  2  0
  6  7  1  0
  7  8  1  0
  8  9  1  0
  9 10  2  0
 10 11  1  0
 11 12  2  0
 12 13  1  0
 13 14  1  0
 13 15  2  0
 15 16  1  0
 16 17  2  0
 16 18  1  0
 18 19  1  0
  6 20  1  0
 20 21  2  0
 21 22  1  0
 22 23  1  0
 21  3  1  0
 18  7  2  0
 15  9  1  0
  1 24  1  0
  1 25  1  0
  1 26  1  0
  2 27  1  0
  2 28  1  0
  4 29  1  0
  5 30  1  0
 10 31  1  0
 11 32  1  0
 12 33  1  0
 14 34  1  0
 19 35  1  0
 20 36  1  0
 22 37  1  0
 22 38  1  0
 23 39  1  0
 23 40  1  0
 23 41  1  0
M  END
>  <meeko>  (2) 
{"is_sidechain": [false], "free_energy": -7.512, "intermolecular_energy": -9.355, "internal_energy": -0.456}

$$$$
cand_039_out
     RDKit          3D

 41 43  0  0  0  0  0  0  0  0999 V2000
  181.0210   19.4550   45.8600 C   0  0  0  0  0  0  0  0  0  0  0  0
  179.7640   20.1680   45.3820 C   0  0  0  0  0  0  0  0  0  0  0  0
  178.9450   20.7020   46.5340 C   0  0  0  0  0  0  0  0  0  0  0  0
  179.4330   21.8210   47.2300 C   0  0  0  0  0  0  0  0  0  0  0  0
  178.7250   22.3730   48.3000 C   0  0  0  0  0  0  0  0  0  0  0  0
  177.5090   21.8200   48.7110 C   0  0  0  0  0  0  0  0  0  0  0  0
  176.7620   22.4310   49.8320 C   0  0  0  0  0  0  0  0  0  0  0  0
  175.6900   23.2070   49.4070 O   0  0  0  0  0  0  0  0  0  0  0  0
  174.9110   23.8330   50.3460 C   0  0  0  0  0  0  0  0  0  0  0  0
  173.8360   24.5890   49.8760 C   0  0  0  0  0  0  0  0  0  0  0  0
  173.0040   25.2540   50.7800 C   0  0  0  0  0  0  0  0  0  0  0  0
  173.2470   25.1630   52.1520 C   0  0  0  0  0  0  0  0  0  0  0  0
  174.3200   24.4090   52.6180 C   0  0  0  0  0  0  0  0  0  0  0  0
  174.5000   24.3620   53.9730 O   0  0  0  0  0  0  0  0  0  0  0  0
  175.1520   23.7420   51.7140 C   0  0  0  0  0  0  0  0  0  0  0  0
  176.2900   22.9390   52.1610 C   0  0  0  0  0  0  0  0  0  0  0  0
  176.5720   22.8170   53.3510 O   0  0  0  0  0  0  0  0  0  0  0  0
  177.1050   22.2670   51.1230 C   0  0  0  0  0  0  0  0  0  0  0  0
  178.1850   21.5210   51.5560 O   0  0  0  0  0  0  0  0  0  0  0  0
  177.0110   20.7150   48.0070 C   0  0  0  0  0  0  0  0  0  0  0  0
  177.7080   20.1480   46.9200 C   0  0  0  0  0  0  0  0  0  0  0  0
  177.0990   18.9410   46.2420 C   0  0  0  0  0  0  0  0  0  0  0  0
  175.7450   18.5800   46.8350 C   0  0  0  0  0  0  0  0  0  0  0  0
  181.0405   19.4439   46.9598 H   0  0  0  0  0  0  0  0  0  0  0  0
  181.0223   18.4217   45.4828 H   0  0  0  0  0  0  0  0  0  0  0  0
  181.9086   19.9841   45.4828 H   0  0  0  0  0  0  0  0  0  0  0  0
  180.0563   21.0078   44.7344 H   0  0  0  0  0  0  0  0  0  0  0  0
  179.1472   19.4401   44.8345 H   0  0  0  0  0  0  0  0  0  0  0  0
  180.3901   22.2704   46.9266 H   0  0  0  0  0  0  0  0  0  0  0  0
  179.1285   23.2517   48.8244 H   0  0  0  0  0  0  0  0  0  0  0  0
  173.6441   24.6611   48.7953 H   0  0  0  0  0  0  0  0  0  0  0  0
  172.1565   25.8500   50.4105 H   0  0  0  0  0  0  0  0  0  0  0  0
  172.5914   25.6864   52.8634 H   0  0  0  0  0  0  0  0  0  0  0  0
  175.2930   24.0100   54.3280 H   0  0  0  0  0  0  0  0  0  0  0  0
  178.0730   20.6180   51.7790 H   0  0  0  0  0  0  0  0  0  0  0  0
  176.0487   20.2774   48.3112 H   0  0  0  0  0  0  0  0  0  0  0  0
  176.9713   19.1610   45.1718 H   0  0  0  0  0  0  0  0  0  0  0  0
  177.7760   18.0873   46.3934 H   0  0  0  0  0  0  0  0  0  0  0  0
  175.8093   18.5971   47.9330 H   0  0  0  0  0  0  0  0  0  0  0  0
  174.9921   19.3088   46.5003 H   0  0  0  0  0  0  0  0  0  0  0  0
  175.4548   17.5731   46.5003 H   0  0  0  0  0  0  0  0  0  0  0  0
  1  2  1  0
  2  3  1  0
  3  4  2  0
  4  5  1  0
  5  6  2  0
  6  7  1  0
  7  8  1  0
  8  9  1  0
  9 10  2  0
 10 11  1  0
 11 12  2  0
 12 13  1  0
 13 14  1  0
 13 15  2  0
 15 16  1  0
 16 17  2  0
 16 18  1  0
 18 19  1  0
  6 20  1  0
 20 21  2  0
 21 22  1  0
 22 23  1  0
 21  3  1  0
 18  7  2  0
 15  9  1  0
  1 24  1  0
  1 25  1  0
  1 26  1  0
  2 27  1  0
  2 28  1  0
  4 29  1  0
  5 30  1  0
 10 31  1  0
 11 32  1  0
 12 33  1  0
 14 34  1  0
 19 35  1  0
 20 36  1  0
 22 37  1  0
 22 38  1  0
 23 39  1  0
 23 40  1  0
 23 41  1  0
M  END
>  <meeko>  (3) 
{"is_sidechain": [false], "free_energy": -7.268, "intermolecular_energy": -8.91, "internal_energy": -0.599}

$$$$
cand_039_out
     RDKit          3D

 41 43  0  0  0  0  0  0  0  0999 V2000
  178.9690   20.0990   46.9000 C   0  0  0  0  0  0  0  0  0  0  0  0
  177.7900   20.8890   46.3530 C   0  0  0  0  0  0  0  0  0  0  0  0
  176.9500   21.4880   47.4580 C   0  0  0  0  0  0  0  0  0  0  0  0
  175.9850   20.6710   48.0700 C   0  0  0  0  0  0  0  0  0  0  0  0
  175.1790   21.1560   49.1030 C   0  0  0  0  0  0  0  0  0  0  0  0
  175.3090   22.4730   49.5520 C   0  0  0  0  0  0  0  0  0  0  0  0
  174.4620   22.9610   50.6610 C   0  0  0  0  0  0  0  0  0  0  0  0
  175.1980   23.3220   51.7840 O   0  0  0  0  0  0  0  0  0  0  0  0
  174.5350   23.7940   52.8890 C   0  0  0  0  0  0  0  0  0  0  0  0
  175.3140   24.1590   53.9870 C   0  0  0  0  0  0  0  0  0  0  0  0
  174.7010   24.6450   55.1450 C   0  0  0  0  0  0  0  0  0  0  0  0
  173.3110   24.7650   55.2030 C   0  0  0  0  0  0  0  0  0  0  0  0
  172.5370   24.4000   54.1060 C   0  0  0  0  0  0  0  0  0  0  0  0
  171.1820   24.5430   54.2300 O   0  0  0  0  0  0  0  0  0  0  0  0
  173.1500   23.9150   52.9470 C   0  0  0  0  0  0  0  0  0  0  0  0
  172.3730   23.5200   51.7720 C   0  0  0  0  0  0  0  0  0  0  0  0
  171.1460   23.5900   51.7490 O   0  0  0  0  0  0  0  0  0  0  0  0
  173.1190   23.0250   50.5910 C   0  0  0  0  0  0  0  0  0  0  0  0
  172.3740   22.6420   49.4920 O   0  0  0  0  0  0  0  0  0  0  0  0
  176.2840   23.2830   48.9550 C   0  0  0  0  0  0  0  0  0  0  0  0
  177.1120   22.8110   47.9150 C   0  0  0  0  0  0  0  0  0  0  0  0
  178.1160   23.7720   47.3190 C   0  0  0  0  0  0  0  0  0  0  0  0
  179.4370   23.7540   48.0760 C   0  0  0  0  0  0  0  0  0  0  0  0
  178.9434   20.1162   47.9996 H   0  0  0  0  0  0  0  0  0  0  0  0
  178.9082   19.0586   46.5480 H   0  0  0  0  0  0  0  0  0  0  0  0
  179.9081   20.5509   46.5480 H   0  0  0  0  0  0  0  0  0  0  0  0
  178.1710   21.7010   45.7162 H   0  0  0  0  0  0  0  0  0  0  0  0
  177.1548   20.1987   45.7786 H   0  0  0  0  0  0  0  0  0  0  0  0
  175.8619   19.6320   47.7303 H   0  0  0  0  0  0  0  0  0  0  0  0
  174.4338   20.4939   49.5681 H   0  0  0  0  0  0  0  0  0  0  0  0
  176.4090   24.0645   53.9415 H   0  0  0  0  0  0  0  0  0  0  0  0
  175.3141   24.9333   56.0116 H   0  0  0  0  0  0  0  0  0  0  0  0
  172.8287   25.1475   56.1146 H   0  0  0  0  0  0  0  0  0  0  0  0
  170.7440   25.2470   53.7950 H   0  0  0  0  0  0  0  0  0  0  0  0
  171.5020   22.3200   49.6060 H   0  0  0  0  0  0  0  0  0  0  0  0
  176.4074   24.3176   49.3077 H   0  0  0  0  0  0  0  0  0  0  0  0
  178.3018   23.4886   46.2725 H   0  0  0  0  0  0  0  0  0  0  0  0
  177.6980   24.7873   47.3864 H   0  0  0  0  0  0  0  0  0  0  0  0
  179.2395   23.7567   49.1581 H   0  0  0  0  0  0  0  0  0  0  0  0
  180.0007   22.8481   47.8084 H   0  0  0  0  0  0  0  0  0  0  0  0
  180.0251   24.6442   47.8084 H   0  0  0  0  0  0  0  0  0  0  0  0
  1  2  1  0
  2  3  1  0
  3  4  2  0
  4  5  1  0
  5  6  2  0
  6  7  1  0
  7  8  1  0
  8  9  1  0
  9 10  2  0
 10 11  1  0
 11 12  2  0
 12 13  1  0
 13 14  1  0
 13 15  2  0
 15 16  1  0
 16 17  2  0
 16 18  1  0
 18 19  1  0
  6 20  1  0
 20 21  2  0
 21 22  1  0
 22 23  1  0
 21  3  1  0
 18  7  2  0
 15  9  1  0
  1 24  1  0
  1 25  1  0
  1 26  1  0
  2 27  1  0
  2 28  1  0
  4 29  1  0
  5 30  1  0
 10 31  1  0
 11 32  1  0
 12 33  1  0
 14 34  1  0
 19 35  1  0
 20 36  1  0
 22 37  1  0
 22 38  1  0
 23 39  1  0
 23 40  1  0
 23 41  1  0
M  END
>  <meeko>  (4) 
{"is_sidechain": [false], "free_energy": -7.209, "intermolecular_energy": -8.867, "internal_energy": -0.569}

$$$$
cand_039_out
     RDKit          3D

 41 43  0  0  0  0  0  0  0  0999 V2000
  179.1850   20.8400   46.8190 C   0  0  0  0  0  0  0  0  0  0  0  0
  177.7090   20.8130   46.4470 C   0  0  0  0  0  0  0  0  0  0  0  0
  176.8320   21.2890   47.5810 C   0  0  0  0  0  0  0  0  0  0  0  0
  176.8120   22.6650   47.8680 C   0  0  0  0  0  0  0  0  0  0  0  0
  176.0180   23.1770   48.8970 C   0  0  0  0  0  0  0  0  0  0  0  0
  175.2230   22.3300   49.6740 C   0  0  0  0  0  0  0  0  0  0  0  0
  174.3730   22.8930   50.7450 C   0  0  0  0  0  0  0  0  0  0  0  0
  175.0950   23.2350   51.8830 O   0  0  0  0  0  0  0  0  0  0  0  0
  174.4280   23.7700   52.9560 C   0  0  0  0  0  0  0  0  0  0  0  0
  175.1940   24.1140   54.0700 C   0  0  0  0  0  0  0  0  0  0  0  0
  174.5760   24.6610   55.1980 C   0  0  0  0  0  0  0  0  0  0  0  0
  173.1950   24.8640   55.2100 C   0  0  0  0  0  0  0  0  0  0  0  0
  172.4330   24.5200   54.0960 C   0  0  0  0  0  0  0  0  0  0  0  0
  171.0870   24.7450   54.1750 O   0  0  0  0  0  0  0  0  0  0  0  0
  173.0520   23.9730   52.9680 C   0  0  0  0  0  0  0  0  0  0  0  0
  172.2890   23.5980   51.7770 C   0  0  0  0  0  0  0  0  0  0  0  0
  171.0690   23.7390   51.7150 O   0  0  0  0  0  0  0  0  0  0  0  0
  173.0400   23.0340   50.6320 C   0  0  0  0  0  0  0  0  0  0  0  0
  172.3070   22.6700   49.5170 O   0  0  0  0  0  0  0  0  0  0  0  0
  175.2280   20.9600   49.3780 C   0  0  0  0  0  0  0  0  0  0  0  0
  176.0170   20.4250   48.3390 C   0  0  0  0  0  0  0  0  0  0  0  0
  175.9710   18.9300   48.1150 C   0  0  0  0  0  0  0  0  0  0  0  0
  175.2170   18.5700   46.8430 C   0  0  0  0  0  0  0  0  0  0  0  0
  179.2871   20.8419   47.9142 H   0  0  0  0  0  0  0  0  0  0  0  0
  179.6836   19.9508   46.4058 H   0  0  0  0  0  0  0  0  0  0  0  0
  179.6508   21.7468   46.4058 H   0  0  0  0  0  0  0  0  0  0  0  0
  177.5499   21.4663   45.5764 H   0  0  0  0  0  0  0  0  0  0  0  0
  177.4347   19.7726   46.2184 H   0  0  0  0  0  0  0  0  0  0  0  0
  177.4324   23.3505   47.2719 H   0  0  0  0  0  0  0  0  0  0  0  0
  176.0185   24.2585   49.0979 H   0  0  0  0  0  0  0  0  0  0  0  0
  176.2824   23.9550   54.0607 H   0  0  0  0  0  0  0  0  0  0  0  0
  175.1787   24.9319   56.0774 H   0  0  0  0  0  0  0  0  0  0  0  0
  172.7093   25.2950   56.0979 H   0  0  0  0  0  0  0  0  0  0  0  0
  170.4940   24.2240   53.6690 H   0  0  0  0  0  0  0  0  0  0  0  0
  172.4530   23.1020   48.6990 H   0  0  0  0  0  0  0  0  0  0  0  0
  174.5982   20.2826   49.9734 H   0  0  0  0  0  0  0  0  0  0  0  0
  177.0004   18.5501   48.0379 H   0  0  0  0  0  0  0  0  0  0  0  0
  175.4428   18.4739   48.9652 H   0  0  0  0  0  0  0  0  0  0  0  0
  174.2531   18.1098   47.1059 H   0  0  0  0  0  0  0  0  0  0  0  0
  175.0395   19.4805   46.2518 H   0  0  0  0  0  0  0  0  0  0  0  0
  175.8134   17.8595   46.2518 H   0  0  0  0  0  0  0  0  0  0  0  0
  1  2  1  0
  2  3  1  0
  3  4  2  0
  4  5  1  0
  5  6  2  0
  6  7  1  0
  7  8  1  0
  8  9  1  0
  9 10  2  0
 10 11  1  0
 11 12  2  0
 12 13  1  0
 13 14  1  0
 13 15  2  0
 15 16  1  0
 16 17  2  0
 16 18  1  0
 18 19  1  0
  6 20  1  0
 20 21  2  0
 21 22  1  0
 22 23  1  0
 21  3  1  0
 18  7  2  0
 15  9  1  0
  1 24  1  0
  1 25  1  0
  1 26  1  0
  2 27  1  0
  2 28  1  0
  4 29  1  0
  5 30  1  0
 10 31  1  0
 11 32  1  0
 12 33  1  0
 14 34  1  0
 19 35  1  0
 20 36  1  0
 22 37  1  0
 22 38  1  0
 23 39  1  0
 23 40  1  0
 23 41  1  0
M  END
>  <meeko>  (5) 
{"is_sidechain": [false], "free_energy": -7.166, "intermolecular_energy": -8.926, "internal_energy": -0.458}

$$$$
cand_039_out
     RDKit          3D

 41 43  0  0  0  0  0  0  0  0999 V2000
  175.4750   17.8230   46.4480 C   0  0  0  0  0  0  0  0  0  0  0  0
  176.5580   18.8830   46.2980 C   0  0  0  0  0  0  0  0  0  0  0  0
  176.4630   19.9430   47.3700 C   0  0  0  0  0  0  0  0  0  0  0  0
  175.3740   19.8900   48.2570 C   0  0  0  0  0  0  0  0  0  0  0  0
  175.2270   20.8330   49.2770 C   0  0  0  0  0  0  0  0  0  0  0  0
  176.1610   21.8600   49.4400 C   0  0  0  0  0  0  0  0  0  0  0  0
  176.0000   22.8360   50.5390 C   0  0  0  0  0  0  0  0  0  0  0  0
  175.5150   24.0630   50.1030 O   0  0  0  0  0  0  0  0  0  0  0  0
  175.3180   25.0630   51.0220 C   0  0  0  0  0  0  0  0  0  0  0  0
  174.8140   26.2730   50.5440 C   0  0  0  0  0  0  0  0  0  0  0  0
  174.5930   27.3330   51.4270 C   0  0  0  0  0  0  0  0  0  0  0  0
  174.8750   27.1820   52.7860 C   0  0  0  0  0  0  0  0  0  0  0  0
  175.3770   25.9740   53.2600 C   0  0  0  0  0  0  0  0  0  0  0  0
  175.6310   25.8940   54.6020 O   0  0  0  0  0  0  0  0  0  0  0  0
  175.5980   24.9130   52.3770 C   0  0  0  0  0  0  0  0  0  0  0  0
  176.1250   23.6260   52.8340 C   0  0  0  0  0  0  0  0  0  0  0  0
  176.4040   23.4200   54.0130 O   0  0  0  0  0  0  0  0  0  0  0  0
  176.3150   22.5640   51.8190 C   0  0  0  0  0  0  0  0  0  0  0  0
  176.8250   21.3580   52.2600 O   0  0  0  0  0  0  0  0  0  0  0  0
  177.2570   21.9030   48.5670 C   0  0  0  0  0  0  0  0  0  0  0  0
  177.4270   20.9580   47.5350 C   0  0  0  0  0  0  0  0  0  0  0  0
  178.6300   21.1060   46.6310 C   0  0  0  0  0  0  0  0  0  0  0  0
  179.8730   20.4630   47.2310 C   0  0  0  0  0  0  0  0  0  0  0  0
  175.2873   17.6392   47.5162 H   0  0  0  0  0  0  0  0  0  0  0  0
  174.5495   18.1739   45.9681 H   0  0  0  0  0  0  0  0  0  0  0  0
  175.8060   16.8902   45.9681 H   0  0  0  0  0  0  0  0  0  0  0  0
  177.5426   18.3971   46.3650 H   0  0  0  0  0  0  0  0  0  0  0  0
  176.4222   19.3726   45.3224 H   0  0  0  0  0  0  0  0  0  0  0  0
  174.6247   19.0923   48.1461 H   0  0  0  0  0  0  0  0  0  0  0  0
  174.3668   20.7666   49.9594 H   0  0  0  0  0  0  0  0  0  0  0  0
  174.5909   26.3923   49.4735 H   0  0  0  0  0  0  0  0  0  0  0  0
  174.1964   28.2876   51.0510 H   0  0  0  0  0  0  0  0  0  0  0  0
  174.7006   28.0167   53.4809 H   0  0  0  0  0  0  0  0  0  0  0  0
  176.5100   25.7790   54.9060 H   0  0  0  0  0  0  0  0  0  0  0  0
  176.6690   20.5750   51.7690 H   0  0  0  0  0  0  0  0  0  0  0  0
  178.0069   22.6981   48.6911 H   0  0  0  0  0  0  0  0  0  0  0  0
  178.4112   20.6251   45.6662 H   0  0  0  0  0  0  0  0  0  0  0  0
  178.8299   22.1800   46.5022 H   0  0  0  0  0  0  0  0  0  0  0  0
  179.8093   20.4959   48.3287 H   0  0  0  0  0  0  0  0  0  0  0  0
  179.9411   19.4165   46.8989 H   0  0  0  0  0  0  0  0  0  0  0  0
  180.7665   21.0120   46.8989 H   0  0  0  0  0  0  0  0  0  0  0  0
  1  2  1  0
  2  3  1  0
  3  4  2  0
  4  5  1  0
  5  6  2  0
  6  7  1  0
  7  8  1  0
  8  9  1  0
  9 10  2  0
 10 11  1  0
 11 12  2  0
 12 13  1  0
 13 14  1  0
 13 15  2  0
 15 16  1  0
 16 17  2  0
 16 18  1  0
 18 19  1  0
  6 20  1  0
 20 21  2  0
 21 22  1  0
 22 23  1  0
 21  3  1  0
 18  7  2  0
 15  9  1  0
  1 24  1  0
  1 25  1  0
  1 26  1  0
  2 27  1  0
  2 28  1  0
  4 29  1  0
  5 30  1  0
 10 31  1  0
 11 32  1  0
 12 33  1  0
 14 34  1  0
 19 35  1  0
 20 36  1  0
 22 37  1  0
 22 38  1  0
 23 39  1  0
 23 40  1  0
 23 41  1  0
M  END
>  <meeko>  (6) 
{"is_sidechain": [false], "free_energy": -7.162, "intermolecular_energy": -8.778, "internal_energy": -0.6}

$$$$
cand_039_out
     RDKit          3D

 41 43  0  0  0  0  0  0  0  0999 V2000
  180.5020   18.5710   45.4640 C   0  0  0  0  0  0  0  0  0  0  0  0
  180.1310   20.0230   45.1950 C   0  0  0  0  0  0  0  0  0  0  0  0
  179.3670   20.6330   46.3470 C   0  0  0  0  0  0  0  0  0  0  0  0
  177.9960   20.3430   46.4580 C   0  0  0  0  0  0  0  0  0  0  0  0
  177.2290   20.8660   47.5010 C   0  0  0  0  0  0  0  0  0  0  0  0
  177.8070   21.6990   48.4640 C   0  0  0  0  0  0  0  0  0  0  0  0
  176.9840   22.2260   49.5730 C   0  0  0  0  0  0  0  0  0  0  0  0
  175.8720   22.9330   49.1320 O   0  0  0  0  0  0  0  0  0  0  0  0
  175.0200   23.4780   50.0590 C   0  0  0  0  0  0  0  0  0  0  0  0
  173.9090   24.1650   49.5720 C   0  0  0  0  0  0  0  0  0  0  0  0
  173.0030   24.7460   50.4630 C   0  0  0  0  0  0  0  0  0  0  0  0
  173.2100   24.6390   51.8400 C   0  0  0  0  0  0  0  0  0  0  0  0
  174.3200   23.9530   52.3230 C   0  0  0  0  0  0  0  0  0  0  0  0
  174.4620   23.8860   53.6820 O   0  0  0  0  0  0  0  0  0  0  0  0
  175.2260   23.3700   51.4310 C   0  0  0  0  0  0  0  0  0  0  0  0
  176.4050   22.6410   51.8970 C   0  0  0  0  0  0  0  0  0  0  0  0
  176.6590   22.5100   53.0930 O   0  0  0  0  0  0  0  0  0  0  0  0
  177.2990   22.0550   50.8710 C   0  0  0  0  0  0  0  0  0  0  0  0
  178.4170   21.3790   51.3220 O   0  0  0  0  0  0  0  0  0  0  0  0
  179.1780   21.9740   48.3650 C   0  0  0  0  0  0  0  0  0  0  0  0
  179.9700   21.4510   47.3220 C   0  0  0  0  0  0  0  0  0  0  0  0
  181.4350   21.8280   47.2900 C   0  0  0  0  0  0  0  0  0  0  0  0
  182.2850   20.8730   48.1170 C   0  0  0  0  0  0  0  0  0  0  0  0
  180.5460   18.3989   46.5496 H   0  0  0  0  0  0  0  0  0  0  0  0
  179.7438   17.9102   45.0184 H   0  0  0  0  0  0  0  0  0  0  0  0
  181.4842   18.3549   45.0184 H   0  0  0  0  0  0  0  0  0  0  0  0
  181.0527   20.6014   45.0338 H   0  0  0  0  0  0  0  0  0  0  0  0
  179.4846   20.0501   44.3054 H   0  0  0  0  0  0  0  0  0  0  0  0
  177.5190   19.6926   45.7100 H   0  0  0  0  0  0  0  0  0  0  0  0
  176.1588   20.6201   47.5658 H   0  0  0  0  0  0  0  0  0  0  0  0
  173.7458   24.2496   48.4875 H   0  0  0  0  0  0  0  0  0  0  0  0
  172.1260   25.2881   50.0796 H   0  0  0  0  0  0  0  0  0  0  0  0
  172.4967   25.0963   52.5415 H   0  0  0  0  0  0  0  0  0  0  0  0
  174.8140   24.6160   54.1530 H   0  0  0  0  0  0  0  0  0  0  0  0
  178.9580   21.7600   51.9850 H   0  0  0  0  0  0  0  0  0  0  0  0
  179.6498   22.6165   49.1230 H   0  0  0  0  0  0  0  0  0  0  0  0
  181.7856   21.8045   46.2476 H   0  0  0  0  0  0  0  0  0  0  0  0
  181.5374   22.8352   47.7201 H   0  0  0  0  0  0  0  0  0  0  0  0
  182.1152   21.0638   49.1869 H   0  0  0  0  0  0  0  0  0  0  0  0
  182.0060   19.8355   47.8808 H   0  0  0  0  0  0  0  0  0  0  0  0
  183.3478   21.0298   47.8808 H   0  0  0  0  0  0  0  0  0  0  0  0
  1  2  1  0
  2  3  1  0
  3  4  2  0
  4  5  1  0
  5  6  2  0
  6  7  1  0
  7  8  1  0
  8  9  1  0
  9 10  2  0
 10 11  1  0
 11 12  2  0
 12 13  1  0
 13 14  1  0
 13 15  2  0
 15 16  1  0
 16 17  2  0
 16 18  1  0
 18 19  1  0
  6 20  1  0
 20 21  2  0
 21 22  1  0
 22 23  1  0
 21  3  1  0
 18  7  2  0
 15  9  1  0
  1 24  1  0
  1 25  1  0
  1 26  1  0
  2 27  1  0
  2 28  1  0
  4 29  1  0
  5 30  1  0
 10 31  1  0
 11 32  1  0
 12 33  1  0
 14 34  1  0
 19 35  1  0
 20 36  1  0
 22 37  1  0
 22 38  1  0
 23 39  1  0
 23 40  1  0
 23 41  1  0
M  END
>  <meeko>  (7) 
{"is_sidechain": [false], "free_energy": -7.127, "intermolecular_energy": -8.843, "internal_energy": -0.493}

$$$$
cand_039_out
     RDKit          3D

 41 43  0  0  0  0  0  0  0  0999 V2000
  175.8960   18.9070   47.1670 C   0  0  0  0  0  0  0  0  0  0  0  0
  176.6020   19.8240   46.1780 C   0  0  0  0  0  0  0  0  0  0  0  0
  177.8790   20.3950   46.7500 C   0  0  0  0  0  0  0  0  0  0  0  0
  179.0660   19.6640   46.5710 C   0  0  0  0  0  0  0  0  0  0  0  0
  180.2850   20.1350   47.0660 C   0  0  0  0  0  0  0  0  0  0  0  0
  180.3540   21.3470   47.7570 C   0  0  0  0  0  0  0  0  0  0  0  0
  181.6560   21.8400   48.2550 C   0  0  0  0  0  0  0  0  0  0  0  0
  182.4560   22.3640   47.2460 O   0  0  0  0  0  0  0  0  0  0  0  0
  183.6940   22.8580   47.5690 C   0  0  0  0  0  0  0  0  0  0  0  0
  184.4560   23.3890   46.5290 C   0  0  0  0  0  0  0  0  0  0  0  0
  185.7270   23.9060   46.7900 C   0  0  0  0  0  0  0  0  0  0  0  0
  186.2350   23.8920   48.0900 C   0  0  0  0  0  0  0  0  0  0  0  0
  185.4730   23.3610   49.1270 C   0  0  0  0  0  0  0  0  0  0  0  0
  186.0300   23.3790   50.3760 O   0  0  0  0  0  0  0  0  0  0  0  0
  184.2000   22.8450   48.8660 C   0  0  0  0  0  0  0  0  0  0  0  0
  183.3660   22.2780   49.9260 C   0  0  0  0  0  0  0  0  0  0  0  0
  183.7460   22.2230   51.0940 O   0  0  0  0  0  0  0  0  0  0  0  0
  182.0300   21.7640   49.5460 C   0  0  0  0  0  0  0  0  0  0  0  0
  181.2560   21.2180   50.5530 O   0  0  0  0  0  0  0  0  0  0  0  0
  179.1730   22.0860   47.9200 C   0  0  0  0  0  0  0  0  0  0  0  0
  177.9350   21.6310   47.4230 C   0  0  0  0  0  0  0  0  0  0  0  0
  176.7150   22.4890   47.6720 C   0  0  0  0  0  0  0  0  0  0  0  0
  177.0630   23.7670   48.4220 C   0  0  0  0  0  0  0  0  0  0  0  0
  176.1370   19.2200   48.1936 H   0  0  0  0  0  0  0  0  0  0  0  0
  174.8088   18.9671   47.0110 H   0  0  0  0  0  0  0  0  0  0  0  0
  176.2321   17.8713   47.0110 H   0  0  0  0  0  0  0  0  0  0  0  0
  176.8441   19.2499   45.2715 H   0  0  0  0  0  0  0  0  0  0  0  0
  175.9270   20.6618   45.9490 H   0  0  0  0  0  0  0  0  0  0  0  0
  179.0349   18.7054   46.0324 H   0  0  0  0  0  0  0  0  0  0  0  0
  181.2001   19.5449   46.9098 H   0  0  0  0  0  0  0  0  0  0  0  0
  184.0566   23.4007   45.5041 H   0  0  0  0  0  0  0  0  0  0  0  0
  186.3286   24.3248   45.9698 H   0  0  0  0  0  0  0  0  0  0  0  0
  187.2358   24.2999   48.2948 H   0  0  0  0  0  0  0  0  0  0  0  0
  186.1700   24.1950   50.8150 H   0  0  0  0  0  0  0  0  0  0  0  0
  180.3790   20.9430   50.3730 H   0  0  0  0  0  0  0  0  0  0  0  0
  179.2142   23.0484   48.4510 H   0  0  0  0  0  0  0  0  0  0  0  0
  176.2645   22.7559   46.7046 H   0  0  0  0  0  0  0  0  0  0  0  0
  176.0126   21.9113   48.2908 H   0  0  0  0  0  0  0  0  0  0  0  0
  177.0126   23.5818   49.5051 H   0  0  0  0  0  0  0  0  0  0  0  0
  178.0806   24.0854   48.1514 H   0  0  0  0  0  0  0  0  0  0  0  0
  176.3474   24.5574   48.1514 H   0  0  0  0  0  0  0  0  0  0  0  0
  1  2  1  0
  2  3  1  0
  3  4  2  0
  4  5  1  0
  5  6  2  0
  6  7  1  0
  7  8  1  0
  8  9  1  0
  9 10  2  0
 10 11  1  0
 11 12  2  0
 12 13  1  0
 13 14  1  0
 13 15  2  0
 15 16  1  0
 16 17  2  0
 16 18  1  0
 18 19  1  0
  6 20  1  0
 20 21  2  0
 21 22  1  0
 22 23  1  0
 21  3  1  0
 18  7  2  0
 15  9  1  0
  1 24  1  0
  1 25  1  0
  1 26  1  0
  2 27  1  0
  2 28  1  0
  4 29  1  0
  5 30  1  0
 10 31  1  0
 11 32  1  0
 12 33  1  0
 14 34  1  0
 19 35  1  0
 20 36  1  0
 22 37  1  0
 22 38  1  0
 23 39  1  0
 23 40  1  0
 23 41  1  0
M  END
>  <meeko>  (8) 
{"is_sidechain": [false], "free_energy": -7.085, "intermolecular_energy": -8.665, "internal_energy": -0.618}

$$$$
cand_039_out
     RDKit          3D

 41 43  0  0  0  0  0  0  0  0999 V2000
  176.0560   21.0000   46.6020 C   0  0  0  0  0  0  0  0  0  0  0  0
  177.1890   20.0780   46.1750 C   0  0  0  0  0  0  0  0  0  0  0  0
  178.5310   20.5680   46.6660 C   0  0  0  0  0  0  0  0  0  0  0  0
  178.5800   21.8050   47.3310 C   0  0  0  0  0  0  0  0  0  0  0  0
  179.7840   22.3160   47.8190 C   0  0  0  0  0  0  0  0  0  0  0  0
  180.9790   21.6100   47.6530 C   0  0  0  0  0  0  0  0  0  0  0  0
  182.2410   22.1560   48.1950 C   0  0  0  0  0  0  0  0  0  0  0  0
  182.9210   22.9530   47.2810 O   0  0  0  0  0  0  0  0  0  0  0  0
  184.1100   23.5250   47.6540 C   0  0  0  0  0  0  0  0  0  0  0  0
  184.7490   24.3300   46.7110 C   0  0  0  0  0  0  0  0  0  0  0  0
  185.9660   24.9410   47.0260 C   0  0  0  0  0  0  0  0  0  0  0  0
  186.5410   24.7470   48.2840 C   0  0  0  0  0  0  0  0  0  0  0  0
  185.9000   23.9430   49.2230 C   0  0  0  0  0  0  0  0  0  0  0  0
  186.5180   23.7960   50.4340 O   0  0  0  0  0  0  0  0  0  0  0  0
  184.6830   23.3330   48.9080 C   0  0  0  0  0  0  0  0  0  0  0  0
  183.9770   22.4810   49.8650 C   0  0  0  0  0  0  0  0  0  0  0  0
  184.4230   22.2570   50.9890 O   0  0  0  0  0  0  0  0  0  0  0  0
  182.6900   21.8870   49.4350 C   0  0  0  0  0  0  0  0  0  0  0  0
  182.0380   21.0740   50.3430 O   0  0  0  0  0  0  0  0  0  0  0  0
  180.9290   20.3670   47.0060 C   0  0  0  0  0  0  0  0  0  0  0  0
  179.7220   19.8310   46.5120 C   0  0  0  0  0  0  0  0  0  0  0  0
  179.7780   18.4950   45.8060 C   0  0  0  0  0  0  0  0  0  0  0  0
  180.8710   18.4580   44.7470 C   0  0  0  0  0  0  0  0  0  0  0  0
  176.0087   21.0385   47.7003 H   0  0  0  0  0  0  0  0  0  0  0  0
  176.2371   22.0106   46.2072 H   0  0  0  0  0  0  0  0  0  0  0  0
  175.1033   20.6173   46.2072 H   0  0  0  0  0  0  0  0  0  0  0  0
  177.0048   19.0745   46.5863 H   0  0  0  0  0  0  0  0  0  0  0  0
  177.2154   20.0578   45.0755 H   0  0  0  0  0  0  0  0  0  0  0  0
  177.6531   22.3809   47.4695 H   0  0  0  0  0  0  0  0  0  0  0  0
  179.7924   23.2848   48.3399 H   0  0  0  0  0  0  0  0  0  0  0  0
  184.2957   24.4838   45.7206 H   0  0  0  0  0  0  0  0  0  0  0  0
  186.4713   25.5751   46.2826 H   0  0  0  0  0  0  0  0  0  0  0  0
  187.4983   25.2284   48.5325 H   0  0  0  0  0  0  0  0  0  0  0  0
  186.0110   23.6040   51.1990 H   0  0  0  0  0  0  0  0  0  0  0  0
  182.5280   20.4730   50.8700 H   0  0  0  0  0  0  0  0  0  0  0  0
  181.8589   19.7930   46.8801 H   0  0  0  0  0  0  0  0  0  0  0  0
  179.9758   17.7082   46.5489 H   0  0  0  0  0  0  0  0  0  0  0  0
  178.8122   18.3335   45.3049 H   0  0  0  0  0  0  0  0  0  0  0  0
  181.8553   18.4247   45.2370 H   0  0  0  0  0  0  0  0  0  0  0  0
  180.7434   17.5637   44.1194 H   0  0  0  0  0  0  0  0  0  0  0  0
  180.8041   19.3589   44.1194 H   0  0  0  0  0  0  0  0  0  0  0  0
  1  2  1  0
  2  3  1  0
  3  4  2  0
  4  5  1  0
  5  6  2  0
  6  7  1  0
  7  8  1  0
  8  9  1  0
  9 10  2  0
 10 11  1  0
 11 12  2  0
 12 13  1  0
 13 14  1  0
 13 15  2  0
 15 16  1  0
 16 17  2  0
 16 18  1  0
 18 19  1  0
  6 20  1  0
 20 21  2  0
 21 22  1  0
 22 23  1  0
 21  3  1  0
 18  7  2  0
 15  9  1  0
  1 24  1  0
  1 25  1  0
  1 26  1  0
  2 27  1  0
  2 28  1  0
  4 29  1  0
  5 30  1  0
 10 31  1  0
 11 32  1  0
 12 33  1  0
 14 34  1  0
 19 35  1  0
 20 36  1  0
 22 37  1  0
 22 38  1  0
 23 39  1  0
 23 40  1  0
 23 41  1  0
M  END
>  <meeko>  (9) 
{"is_sidechain": [false], "free_energy": -7.079, "intermolecular_energy": -8.648, "internal_energy": -0.628}

$$$$
