cand_010_out
     RDKit          3D

 35 37  0  0  0  0  0  0  0  0999 V2000
  180.7840   22.2330   48.3650 O   0  0  0  0  0  0  0  0  0  0  0  0
  180.1050   21.4440   47.7110 C   0  0  0  0  0  0  0  0  0  0  0  0
  180.7550   20.4010   46.8840 C   0  0  0  0  0  0  0  0  0  0  0  0
  182.1370   20.3540   46.8990 O   0  0  0  0  0  0  0  0  0  0  0  0
  179.9750   19.5560   46.1860 C   0  0  0  0  0  0  0  0  0  0  0  0
  180.5140   18.4710   45.3380 C   0  0  0  0  0  0  0  0  0  0  0  0
  181.4870   18.7130   44.3640 C   0  0  0  0  0  0  0  0  0  0  0  0
  181.9640   17.6780   43.5550 C   0  0  0  0  0  0  0  0  0  0  0  0
  181.4720   16.3710   43.6920 C   0  0  0  0  0  0  0  0  0  0  0  0
  182.0190   15.2780   42.8030 C   0  0  0  0  0  0  0  0  0  0  0  0
  181.3880   15.1980   41.5950 F   0  0  0  0  0  0  0  0  0  0  0  0
  180.4870   16.1080   44.6690 C   0  0  0  0  0  0  0  0  0  0  0  0
  179.9200   14.7200   44.8580 C   0  0  0  0  0  0  0  0  0  0  0  0
  179.5580   14.1080   43.6960 F   0  0  0  0  0  0  0  0  0  0  0  0
  180.8040   13.8780   45.4620 F   0  0  0  0  0  0  0  0  0  0  0  0
  178.8070   14.7150   45.6430 F   0  0  0  0  0  0  0  0  0  0  0  0
  180.0160   17.1660   45.4730 C   0  0  0  0  0  0  0  0  0  0  0  0
  178.5850   19.5910   46.2000 O   0  0  0  0  0  0  0  0  0  0  0  0
  177.9550   20.5510   46.9490 C   0  0  0  0  0  0  0  0  0  0  0  0
  176.5600   20.5600   46.9230 C   0  0  0  0  0  0  0  0  0  0  0  0
  175.8560   21.5110   47.6650 C   0  0  0  0  0  0  0  0  0  0  0  0
  176.5460   22.4520   48.4310 C   0  0  0  0  0  0  0  0  0  0  0  0
  177.9380   22.4420   48.4550 C   0  0  0  0  0  0  0  0  0  0  0  0
  178.5500   23.3910   49.2280 O   0  0  0  0  0  0  0  0  0  0  0  0
  178.6420   21.4900   47.7130 C   0  0  0  0  0  0  0  0  0  0  0  0
  182.6110   20.7310   47.6160 H   0  0  0  0  0  0  0  0  0  0  0  0
  181.8823   19.7311   44.2326 H   0  0  0  0  0  0  0  0  0  0  0  0
  182.7357   17.8908   42.8005 H   0  0  0  0  0  0  0  0  0  0  0  0
  183.0871   15.4731   42.6267 H   0  0  0  0  0  0  0  0  0  0  0  0
  181.8523   14.3223   43.3216 H   0  0  0  0  0  0  0  0  0  0  0  0
  179.2389   16.9635   46.2247 H   0  0  0  0  0  0  0  0  0  0  0  0
  176.0155   19.8192   46.3190 H   0  0  0  0  0  0  0  0  0  0  0  0
  174.7562   21.5185   47.6457 H   0  0  0  0  0  0  0  0  0  0  0  0
  175.9906   23.2006   49.0150 H   0  0  0  0  0  0  0  0  0  0  0  0
  178.0690   23.8220   49.9070 H   0  0  0  0  0  0  0  0  0  0  0  0
  1  2  2  0
  2  3  1  0
  3  4  1  0
  3  5  2  0
  5  6  1  0
  6  7  2  0
  7  8  1  0
  8  9  2  0
  9 10  1  0
 10 11  1  0
  9 12  1  0
 12 13  1  0
 13 14  1  0
 13 15  1  0
 13 16  1  0
 12 17  2  0
  5 18  1  0
 18 19  1  0
 19 20  2  0
 20 21  1  0
 21 22  2  0
 22 23  1  0
 23 24  1  0
 23 25  2  0
 25  2  1  0
 17  6  1  0
 25 19  1  0
  4 26  1  0
  7 27  1  0
  8 28  1  0
 10 29  1  0
 10 30  1  0
 17 31  1  0
 20 32  1  0
 21 33  1  0
 22 34  1  0
 24 35  1  0
M  END
>  <meeko>  (1) 
{"is_sidechain": [false], "free_energy": -8.832, "intermolecular_energy": -10.897, "internal_energy": -0.255}

$$$$
cand_010_out
     RDKit          3D

 35 37  0  0  0  0  0  0  0  0999 V2000
  182.5350   18.3030   43.6760 O   0  0  0  0  0  0  0  0  0  0  0  0
  181.5300   18.0200   44.3250 C   0  0  0  0  0  0  0  0  0  0  0  0
  180.8330   19.0560   45.1220 C   0  0  0  0  0  0  0  0  0  0  0  0
  181.3550   20.3360   45.0860 O   0  0  0  0  0  0  0  0  0  0  0  0
  179.7340   18.7030   45.8140 C   0  0  0  0  0  0  0  0  0  0  0  0
  178.9540   19.6550   46.6330 C   0  0  0  0  0  0  0  0  0  0  0  0
  179.5720   20.6720   47.3680 C   0  0  0  0  0  0  0  0  0  0  0  0
  178.8170   21.5450   48.1570 C   0  0  0  0  0  0  0  0  0  0  0  0
  177.4230   21.4190   48.2390 C   0  0  0  0  0  0  0  0  0  0  0  0
  176.6420   22.3880   49.0970 C   0  0  0  0  0  0  0  0  0  0  0  0
  176.3010   23.5350   48.4420 F   0  0  0  0  0  0  0  0  0  0  0  0
  176.7810   20.3970   47.5060 C   0  0  0  0  0  0  0  0  0  0  0  0
  175.2820   20.2130   47.5600 C   0  0  0  0  0  0  0  0  0  0  0  0
  174.7920   20.0420   48.8190 F   0  0  0  0  0  0  0  0  0  0  0  0
  174.6120   21.2790   47.0420 F   0  0  0  0  0  0  0  0  0  0  0  0
  174.8640   19.1300   46.8480 F   0  0  0  0  0  0  0  0  0  0  0  0
  177.5600   19.5230   46.7180 C   0  0  0  0  0  0  0  0  0  0  0  0
  179.1990   17.4200   45.8200 O   0  0  0  0  0  0  0  0  0  0  0  0
  179.8280   16.4370   45.0990 C   0  0  0  0  0  0  0  0  0  0  0  0
  179.2650   15.1610   45.1450 C   0  0  0  0  0  0  0  0  0  0  0  0
  179.8550   14.1150   44.4320 C   0  0  0  0  0  0  0  0  0  0  0  0
  181.0050   14.3440   43.6740 C   0  0  0  0  0  0  0  0  0  0  0  0
  181.5650   15.6180   43.6310 C   0  0  0  0  0  0  0  0  0  0  0  0
  182.6900   15.7740   42.8680 O   0  0  0  0  0  0  0  0  0  0  0  0
  180.9750   16.6660   44.3440 C   0  0  0  0  0  0  0  0  0  0  0  0
  182.2540   20.4690   44.8540 H   0  0  0  0  0  0  0  0  0  0  0  0
  180.6652   20.7863   47.3247 H   0  0  0  0  0  0  0  0  0  0  0  0
  179.3237   22.3418   48.7213 H   0  0  0  0  0  0  0  0  0  0  0  0
  175.7203   21.8912   49.4341 H   0  0  0  0  0  0  0  0  0  0  0  0
  177.2904   22.6738   49.9384 H   0  0  0  0  0  0  0  0  0  0  0  0
  177.0620   18.7187   46.1568 H   0  0  0  0  0  0  0  0  0  0  0  0
  178.3587   14.9794   45.7414 H   0  0  0  0  0  0  0  0  0  0  0  0
  179.4127   13.1085   44.4677 H   0  0  0  0  0  0  0  0  0  0  0  0
  181.4677   13.5194   43.1119 H   0  0  0  0  0  0  0  0  0  0  0  0
  183.4850   16.0740   43.2640 H   0  0  0  0  0  0  0  0  0  0  0  0
  1  2  2  0
  2  3  1  0
  3  4  1  0
  3  5  2  0
  5  6  1  0
  6  7  2  0
  7  8  1  0
  8  9  2  0
  9 10  1  0
 10 11  1  0
  9 12  1  0
 12 13  1  0
 13 14  1  0
 13 15  1  0
 13 16  1  0
 12 17  2  0
  5 18  1  0
 18 19  1  0
 19 20  2  0
 20 21  1  0
 21 22  2  0
 22 23  1  0
 23 24  1  0
 23 25  2  0
 25  2  1  0
 17  6  1  0
 25 19  1  0
  4 26  1  0
  7 27  1  0
  8 28  1  0
 10 29  1  0
 10 30  1  0
 17 31  1  0
 20 32  1  0
 21 33  1  0
 22 34  1  0
 24 35  1  0
M  END
>  <meeko>  (2) 
{"is_sidechain": [false], "free_energy": -7.962, "intermolecular_energy": -9.94, "internal_energy": -0.14}

$$$$
cand_010_out
     RDKit          3D

 35 37  0  0  0  0  0  0  0  0999 V2000
  175.5180   19.8060   47.5870 O   0  0  0  0  0  0  0  0  0  0  0  0
  176.6770   20.0610   47.2680 C   0  0  0  0  0  0  0  0  0  0  0  0
  177.4910   19.0660   46.5330 C   0  0  0  0  0  0  0  0  0  0  0  0
  176.8840   17.8630   46.2190 O   0  0  0  0  0  0  0  0  0  0  0  0
  178.7550   19.3880   46.2010 C   0  0  0  0  0  0  0  0  0  0  0  0
  179.6530   18.4780   45.4580 C   0  0  0  0  0  0  0  0  0  0  0  0
  180.6850   18.9610   44.6490 C   0  0  0  0  0  0  0  0  0  0  0  0
  181.5060   18.0830   43.9350 C   0  0  0  0  0  0  0  0  0  0  0  0
  181.3100   16.6960   44.0030 C   0  0  0  0  0  0  0  0  0  0  0  0
  182.2230   15.7800   43.2220 C   0  0  0  0  0  0  0  0  0  0  0  0
  181.7250   15.4370   41.9990 F   0  0  0  0  0  0  0  0  0  0  0  0
  180.2700   16.1890   44.8140 C   0  0  0  0  0  0  0  0  0  0  0  0
  180.0120   14.7040   44.9240 C   0  0  0  0  0  0  0  0  0  0  0  0
  181.0550   13.9990   45.4440 F   0  0  0  0  0  0  0  0  0  0  0  0
  178.9410   14.4230   45.7160 F   0  0  0  0  0  0  0  0  0  0  0  0
  179.7420   14.1330   43.7180 F   0  0  0  0  0  0  0  0  0  0  0  0
  179.4500   17.0910   45.5250 C   0  0  0  0  0  0  0  0  0  0  0  0
  179.3470   20.6110   46.4940 O   0  0  0  0  0  0  0  0  0  0  0  0
  178.6210   21.5500   47.1820 C   0  0  0  0  0  0  0  0  0  0  0  0
  179.2590   22.7570   47.4690 C   0  0  0  0  0  0  0  0  0  0  0  0
  178.5760   23.7570   48.1650 C   0  0  0  0  0  0  0  0  0  0  0  0
  177.2570   23.5490   48.5740 C   0  0  0  0  0  0  0  0  0  0  0  0
  176.6230   22.3430   48.2870 C   0  0  0  0  0  0  0  0  0  0  0  0
  175.3310   22.2070   48.7160 O   0  0  0  0  0  0  0  0  0  0  0  0
  177.3060   21.3430   47.5910 C   0  0  0  0  0  0  0  0  0  0  0  0
  175.9940   17.7080   46.4700 H   0  0  0  0  0  0  0  0  0  0  0  0
  180.8535   20.0454   44.5730 H   0  0  0  0  0  0  0  0  0  0  0  0
  182.3173   18.4859   43.3110 H   0  0  0  0  0  0  0  0  0  0  0  0
  183.1871   16.2892   43.0762 H   0  0  0  0  0  0  0  0  0  0  0  0
  182.3284   14.8519   43.8030 H   0  0  0  0  0  0  0  0  0  0  0  0
  178.6322   16.6975   46.1466 H   0  0  0  0  0  0  0  0  0  0  0  0
  180.2982   22.9209   47.1477 H   0  0  0  0  0  0  0  0  0  0  0  0
  179.0776   24.7095   48.3912 H   0  0  0  0  0  0  0  0  0  0  0  0
  176.7196   24.3369   49.1222 H   0  0  0  0  0  0  0  0  0  0  0  0
  174.9940   22.7810   49.3750 H   0  0  0  0  0  0  0  0  0  0  0  0
  1  2  2  0
  2  3  1  0
  3  4  1  0
  3  5  2  0
  5  6  1  0
  6  7  2  0
  7  8  1  0
  8  9  2  0
  9 10  1  0
 10 11  1  0
  9 12  1  0
 12 13  1  0
 13 14  1  0
 13 15  1  0
 13 16  1  0
 12 17  2  0
  5 18  1  0
 18 19  1  0
 19 20  2  0
 20 21  1  0
 21 22  2  0
 22 23  1  0
 23 24  1  0
 23 25  2  0
 25  2  1  0
 17  6  1  0
 25 19  1  0
  4 26  1  0
  7 27  1  0
  8 28  1  0
 10 29  1  0
 10 30  1  0
 17 31  1  0
 20 32  1  0
 21 33  1  0
 22 34  1  0
 24 35  1  0
M  END
>  <meeko>  (3) 
{"is_sidechain": [false], "free_energy": -7.215, "intermolecular_energy": -9.206, "internal_energy": 0.048}

$$$$
cand_010_out
     RDKit          3D

 35 37  0  0  0  0  0  0  0  0999 V2000
  182.3090   18.4850   43.8540 O   0  0  0  0  0  0  0  0  0  0  0  0
  181.2890   18.1290   44.4410 C   0  0  0  0  0  0  0  0  0  0  0  0
  180.4470   19.1190   45.1520 C   0  0  0  0  0  0  0  0  0  0  0  0
  180.8540   20.4400   45.1080 O   0  0  0  0  0  0  0  0  0  0  0  0
  179.3380   18.6870   45.7780 C   0  0  0  0  0  0  0  0  0  0  0  0
  178.4190   19.5870   46.5080 C   0  0  0  0  0  0  0  0  0  0  0  0
  177.1650   19.1550   46.9520 C   0  0  0  0  0  0  0  0  0  0  0  0
  176.3010   20.0300   47.6170 C   0  0  0  0  0  0  0  0  0  0  0  0
  176.6650   21.3660   47.8490 C   0  0  0  0  0  0  0  0  0  0  0  0
  175.7060   22.2780   48.5780 C   0  0  0  0  0  0  0  0  0  0  0  0
  174.3970   21.9320   48.4080 F   0  0  0  0  0  0  0  0  0  0  0  0
  177.9270   21.8190   47.4050 C   0  0  0  0  0  0  0  0  0  0  0  0
  178.3690   23.2480   47.6250 C   0  0  0  0  0  0  0  0  0  0  0  0
  178.6670   23.5410   48.9210 F   0  0  0  0  0  0  0  0  0  0  0  0
  179.4830   23.5600   46.9070 F   0  0  0  0  0  0  0  0  0  0  0  0
  177.4210   24.1500   47.2490 F   0  0  0  0  0  0  0  0  0  0  0  0
  178.7830   20.9230   46.7330 C   0  0  0  0  0  0  0  0  0  0  0  0
  178.9200   17.3610   45.7910 O   0  0  0  0  0  0  0  0  0  0  0  0
  179.6840   16.4200   45.1500 C   0  0  0  0  0  0  0  0  0  0  0  0
  179.2360   15.1000   45.2000 C   0  0  0  0  0  0  0  0  0  0  0  0
  179.9660   14.0920   44.5660 C   0  0  0  0  0  0  0  0  0  0  0  0
  181.1420   14.4050   43.8820 C   0  0  0  0  0  0  0  0  0  0  0  0
  181.5880   15.7230   43.8330 C   0  0  0  0  0  0  0  0  0  0  0  0
  182.7470   15.9590   43.1450 O   0  0  0  0  0  0  0  0  0  0  0  0
  180.8570   16.7310   44.4680 C   0  0  0  0  0  0  0  0  0  0  0  0
  180.3640   21.0650   44.6090 H   0  0  0  0  0  0  0  0  0  0  0  0
  176.8549   18.1144   46.7758 H   0  0  0  0  0  0  0  0  0  0  0  0
  175.3222   19.6667   47.9634 H   0  0  0  0  0  0  0  0  0  0  0  0
  175.9396   22.2432   49.6523 H   0  0  0  0  0  0  0  0  0  0  0  0
  175.8333   23.2868   48.1585 H   0  0  0  0  0  0  0  0  0  0  0  0
  179.7604   21.2802   46.3763 H   0  0  0  0  0  0  0  0  0  0  0  0
  178.3089   14.8532   45.7381 H   0  0  0  0  0  0  0  0  0  0  0  0
  179.6140   13.0506   44.6057 H   0  0  0  0  0  0  0  0  0  0  0  0
  181.7159   13.6108   43.3821 H   0  0  0  0  0  0  0  0  0  0  0  0
  183.2810   15.2410   42.8680 H   0  0  0  0  0  0  0  0  0  0  0  0
  1  2  2  0
  2  3  1  0
  3  4  1  0
  3  5  2  0
  5  6  1  0
  6  7  2  0
  7  8  1  0
  8  9  2  0
  9 10  1  0
 10 11  1  0
  9 12  1  0
 12 13  1  0
 13 14  1  0
 13 15  1  0
 13 16  1  0
 12 17  2  0
  5 18  1  0
 18 19  1  0
 19 20  2  0
 20 21  1  0
 21 22  2  0
 22 23  1  0
 23 24  1  0
 23 25  2  0
 25  2  1  0
 17  6  1  0
 25 19  1  0
  4 26  1  0
  7 27  1  0
  8 28  1  0
 10 29  1  0
 10 30  1  0
 17 31  1  0
 20 32  1  0
 21 33  1  0
 22 34  1  0
 24 35  1  0
M  END
>  <meeko>  (4) 
{"is_sidechain": [false], "free_energy": -7.03, "intermolecular_energy": -9.251, "internal_energy": 0.321}

$$$$
cand_010_out
     RDKit          3D

 35 37  0  0  0  0  0  0  0  0999 V2000
  181.0470   22.0180   48.2060 O   0  0  0  0  0  0  0  0  0  0  0  0
  180.1460   21.3340   47.7240 C   0  0  0  0  0  0  0  0  0  0  0  0
  180.4590   20.0750   47.0090 C   0  0  0  0  0  0  0  0  0  0  0  0
  181.7900   19.7100   46.9260 O   0  0  0  0  0  0  0  0  0  0  0  0
  179.4410   19.3560   46.5000 C   0  0  0  0  0  0  0  0  0  0  0  0
  179.6350   18.0800   45.7780 C   0  0  0  0  0  0  0  0  0  0  0  0
  178.8640   16.9490   46.0620 C   0  0  0  0  0  0  0  0  0  0  0  0
  179.0820   15.7450   45.3860 C   0  0  0  0  0  0  0  0  0  0  0  0
  180.0860   15.6370   44.4110 C   0  0  0  0  0  0  0  0  0  0  0  0
  180.2850   14.3200   43.6970 C   0  0  0  0  0  0  0  0  0  0  0  0
  180.0170   14.3850   42.3610 F   0  0  0  0  0  0  0  0  0  0  0  0
  180.8760   16.7690   44.1130 C   0  0  0  0  0  0  0  0  0  0  0  0
  181.9730   16.7080   43.0740 C   0  0  0  0  0  0  0  0  0  0  0  0
  181.5240   16.7900   41.7910 F   0  0  0  0  0  0  0  0  0  0  0  0
  182.8760   17.7180   43.2170 F   0  0  0  0  0  0  0  0  0  0  0  0
  182.6920   15.5540   43.1430 F   0  0  0  0  0  0  0  0  0  0  0  0
  180.6430   17.9740   44.8080 C   0  0  0  0  0  0  0  0  0  0  0  0
  178.1030   19.7150   46.6130 O   0  0  0  0  0  0  0  0  0  0  0  0
  177.7830   20.8800   47.2620 C   0  0  0  0  0  0  0  0  0  0  0  0
  176.4300   21.2090   47.3410 C   0  0  0  0  0  0  0  0  0  0  0  0
  176.0350   22.3810   47.9900 C   0  0  0  0  0  0  0  0  0  0  0  0
  176.9930   23.2230   48.5590 C   0  0  0  0  0  0  0  0  0  0  0  0
  178.3430   22.8920   48.4790 C   0  0  0  0  0  0  0  0  0  0  0  0
  179.2280   23.7600   49.0590 O   0  0  0  0  0  0  0  0  0  0  0  0
  178.7380   21.7190   47.8300 C   0  0  0  0  0  0  0  0  0  0  0  0
  182.3600   19.8510   47.6570 H   0  0  0  0  0  0  0  0  0  0  0  0
  178.0758   17.0072   46.8271 H   0  0  0  0  0  0  0  0  0  0  0  0
  178.4581   14.8701   45.6214 H   0  0  0  0  0  0  0  0  0  0  0  0
  181.3310   14.0061   43.8285 H   0  0  0  0  0  0  0  0  0  0  0  0
  179.5782   13.6008   44.1366 H   0  0  0  0  0  0  0  0  0  0  0  0
  181.2668   18.8519   44.5841 H   0  0  0  0  0  0  0  0  0  0  0  0
  175.6750   20.5464   46.8928 H   0  0  0  0  0  0  0  0  0  0  0  0
  174.9681   22.6412   48.0530 H   0  0  0  0  0  0  0  0  0  0  0  0
  176.6815   24.1462   49.0695 H   0  0  0  0  0  0  0  0  0  0  0  0
  179.2880   24.6420   48.7500 H   0  0  0  0  0  0  0  0  0  0  0  0
  1  2  2  0
  2  3  1  0
  3  4  1  0
  3  5  2  0
  5  6  1  0
  6  7  2  0
  7  8  1  0
  8  9  2  0
  9 10  1  0
 10 11  1  0
  9 12  1  0
 12 13  1  0
 13 14  1  0
 13 15  1  0
 13 16  1  0
 12 17  2  0
  5 18  1  0
 18 19  1  0
 19 20  2  0
 20 21  1  0
 21 22  2  0
 22 23  1  0
 23 24  1  0
 23 25  2  0
 25  2  1  0
 17  6  1  0
 25 19  1  0
  4 26  1  0
  7 27  1  0
  8 28  1  0
 10 29  1  0
 10 30  1  0
 17 31  1  0
 20 32  1  0
 21 33  1  0
 22 34  1  0
 24 35  1  0
M  END
>  <meeko>  (5) 
{"is_sidechain": [false], "free_energy": -6.064, "intermolecular_energy": -7.72, "internal_energy": -0.017}

$$$$
cand_010_out
     RDKit          3D

 35 37  0  0  0  0  0  0  0  0999 V2000
  182.8830   20.7660   45.1520 O   0  0  0  0  0  0  0  0  0  0  0  0
  181.7800   20.3180   45.4630 C   0  0  0  0  0  0  0  0  0  0  0  0
  180.8440   21.1280   46.2760 C   0  0  0  0  0  0  0  0  0  0  0  0
  181.2610   22.3930   46.6460 O   0  0  0  0  0  0  0  0  0  0  0  0
  179.6460   20.6010   46.5910 C   0  0  0  0  0  0  0  0  0  0  0  0
  178.6300   21.3210   47.3870 C   0  0  0  0  0  0  0  0  0  0  0  0
  178.8150   22.6470   47.7900 C   0  0  0  0  0  0  0  0  0  0  0  0
  177.8530   23.3020   48.5650 C   0  0  0  0  0  0  0  0  0  0  0  0
  176.6810   22.6430   48.9670 C   0  0  0  0  0  0  0  0  0  0  0  0
  175.6620   23.3870   49.7980 C   0  0  0  0  0  0  0  0  0  0  0  0
  174.8420   24.1870   49.0560 F   0  0  0  0  0  0  0  0  0  0  0  0
  176.4780   21.3020   48.5710 C   0  0  0  0  0  0  0  0  0  0  0  0
  175.2350   20.5430   48.9770 C   0  0  0  0  0  0  0  0  0  0  0  0
  175.0460   20.4740   50.3250 F   0  0  0  0  0  0  0  0  0  0  0  0
  174.1010   21.1010   48.4710 F   0  0  0  0  0  0  0  0  0  0  0  0
  175.2450   19.2550   48.5370 F   0  0  0  0  0  0  0  0  0  0  0  0
  177.4620   20.6580   47.7920 C   0  0  0  0  0  0  0  0  0  0  0  0
  179.2230   19.3390   46.1890 O   0  0  0  0  0  0  0  0  0  0  0  0
  180.0730   18.5620   45.4430 C   0  0  0  0  0  0  0  0  0  0  0  0
  179.6140   17.2980   45.0740 C   0  0  0  0  0  0  0  0  0  0  0  0
  180.4280   16.4570   44.3120 C   0  0  0  0  0  0  0  0  0  0  0  0
  181.7000   16.8800   43.9200 C   0  0  0  0  0  0  0  0  0  0  0  0
  182.1560   18.1430   44.2910 C   0  0  0  0  0  0  0  0  0  0  0  0
  183.4100   18.4940   43.8730 O   0  0  0  0  0  0  0  0  0  0  0  0
  181.3410   18.9840   45.0530 C   0  0  0  0  0  0  0  0  0  0  0  0
  182.1520   22.6500   46.5130 H   0  0  0  0  0  0  0  0  0  0  0  0
  179.7293   23.1819   47.4935 H   0  0  0  0  0  0  0  0  0  0  0  0
  178.0170   24.3479   48.8636 H   0  0  0  0  0  0  0  0  0  0  0  0
  175.0426   22.6514   50.3321 H   0  0  0  0  0  0  0  0  0  0  0  0
  176.2173   24.0394   50.4880 H   0  0  0  0  0  0  0  0  0  0  0  0
  177.3097   19.6099   47.4947 H   0  0  0  0  0  0  0  0  0  0  0  0
  178.6124   16.9639   45.3826 H   0  0  0  0  0  0  0  0  0  0  0  0
  180.0667   15.4599   44.0201 H   0  0  0  0  0  0  0  0  0  0  0  0
  182.3405   16.2172   43.3195 H   0  0  0  0  0  0  0  0  0  0  0  0
  183.8380   17.9940   43.2070 H   0  0  0  0  0  0  0  0  0  0  0  0
  1  2  2  0
  2  3  1  0
  3  4  1  0
  3  5  2  0
  5  6  1  0
  6  7  2  0
  7  8  1  0
  8  9  2  0
  9 10  1  0
 10 11  1  0
  9 12  1  0
 12 13  1  0
 13 14  1  0
 13 15  1  0
 13 16  1  0
 12 17  2  0
  5 18  1  0
 18 19  1  0
 19 20  2  0
 20 21  1  0
 21 22  2  0
 22 23  1  0
 23 24  1  0
 23 25  2  0
 25  2  1  0
 17  6  1  0
 25 19  1  0
  4 26  1  0
  7 27  1  0
  8 28  1  0
 10 29  1  0
 10 30  1  0
 17 31  1  0
 20 32  1  0
 21 33  1  0
 22 34  1  0
 24 35  1  0
M  END
>  <meeko>  (6) 
{"is_sidechain": [false], "free_energy": -5.942, "intermolecular_energy": -7.711, "internal_energy": 0.124}

$$$$
cand_010_out
     RDKit          3D

 35 37  0  0  0  0  0  0  0  0999 V2000
  180.5770   13.8740   44.0110 O   0  0  0  0  0  0  0  0  0  0  0  0
  180.6320   15.0670   43.7200 C   0  0  0  0  0  0  0  0  0  0  0  0
  180.3590   16.1030   44.7420 C   0  0  0  0  0  0  0  0  0  0  0  0
  180.0600   15.6650   46.0190 O   0  0  0  0  0  0  0  0  0  0  0  0
  180.4330   17.3970   44.3810 C   0  0  0  0  0  0  0  0  0  0  0  0
  180.1910   18.5140   45.3200 C   0  0  0  0  0  0  0  0  0  0  0  0
  181.2430   19.2570   45.8650 C   0  0  0  0  0  0  0  0  0  0  0  0
  180.9930   20.2920   46.7720 C   0  0  0  0  0  0  0  0  0  0  0  0
  179.6840   20.6050   47.1660 C   0  0  0  0  0  0  0  0  0  0  0  0
  179.4550   21.7350   48.1430 C   0  0  0  0  0  0  0  0  0  0  0  0
  179.2040   22.9310   47.5350 F   0  0  0  0  0  0  0  0  0  0  0  0
  178.6090   19.8630   46.6280 C   0  0  0  0  0  0  0  0  0  0  0  0
  177.1790   20.1550   47.0190 C   0  0  0  0  0  0  0  0  0  0  0  0
  176.9540   20.1110   48.3620 F   0  0  0  0  0  0  0  0  0  0  0  0
  176.7750   21.3900   46.6140 F   0  0  0  0  0  0  0  0  0  0  0  0
  176.2980   19.2760   46.4660 F   0  0  0  0  0  0  0  0  0  0  0  0
  178.8810   18.8210   45.7170 C   0  0  0  0  0  0  0  0  0  0  0  0
  180.7640   17.8290   43.1020 O   0  0  0  0  0  0  0  0  0  0  0  0
  181.0130   16.8930   42.1310 C   0  0  0  0  0  0  0  0  0  0  0  0
  181.3270   17.3690   40.8580 C   0  0  0  0  0  0  0  0  0  0  0  0
  181.5940   16.4690   39.8240 C   0  0  0  0  0  0  0  0  0  0  0  0
  181.5460   15.0940   40.0630 C   0  0  0  0  0  0  0  0  0  0  0  0
  181.2320   14.6210   41.3340 C   0  0  0  0  0  0  0  0  0  0  0  0
  181.2050   13.2630   41.4990 O   0  0  0  0  0  0  0  0  0  0  0  0
  180.9650   15.5220   42.3690 C   0  0  0  0  0  0  0  0  0  0  0  0
  180.7040   15.2000   46.5180 H   0  0  0  0  0  0  0  0  0  0  0  0
  182.2789   19.0248   45.5771 H   0  0  0  0  0  0  0  0  0  0  0  0
  181.8352   20.8687   47.1821 H   0  0  0  0  0  0  0  0  0  0  0  0
  178.5942   21.4786   48.7781 H   0  0  0  0  0  0  0  0  0  0  0  0
  180.3797   21.8537   48.7269 H   0  0  0  0  0  0  0  0  0  0  0  0
  178.0452   18.2346   45.3077 H   0  0  0  0  0  0  0  0  0  0  0  0
  181.3643   18.4520   40.6688 H   0  0  0  0  0  0  0  0  0  0  0  0
  181.8424   16.8437   38.8201 H   0  0  0  0  0  0  0  0  0  0  0  0
  181.7560   14.3857   39.2481 H   0  0  0  0  0  0  0  0  0  0  0  0
  181.9710   12.7550   41.3220 H   0  0  0  0  0  0  0  0  0  0  0  0
  1  2  2  0
  2  3  1  0
  3  4  1  0
  3  5  2  0
  5  6  1  0
  6  7  2  0
  7  8  1  0
  8  9  2  0
  9 10  1  0
 10 11  1  0
  9 12  1  0
 12 13  1  0
 13 14  1  0
 13 15  1  0
 13 16  1  0
 12 17  2  0
  5 18  1  0
 18 19  1  0
 19 20  2  0
 20 21  1  0
 21 22  2  0
 22 23  1  0
 23 24  1  0
 23 25  2  0
 25  2  1  0
 17  6  1  0
 25 19  1  0
  4 26  1  0
  7 27  1  0
  8 28  1  0
 10 29  1  0
 10 30  1  0
 17 31  1  0
 20 32  1  0
 21 33  1  0
 22 34  1  0
 24 35  1  0
M  END
>  <meeko>  (7) 
{"is_sidechain": [false], "free_energy": -5.892, "intermolecular_energy": -7.02, "internal_energy": -0.505}

$$$$
