cand_011_out
     RDKit          3D

 35 37  0  0  0  0  0  0  0  0999 V2000
  182.0520   15.2770   42.8110 C   0  0  0  0  0  0  0  0  0  0  0  0
  181.3160   16.2260   43.7190 C   0  0  0  0  0  0  0  0  0  0  0  0
  181.5460   17.6040   43.5980 C   0  0  0  0  0  0  0  0  0  0  0  0
  180.8780   18.5150   44.4190 C   0  0  0  0  0  0  0  0  0  0  0  0
  179.9650   18.0760   45.3840 C   0  0  0  0  0  0  0  0  0  0  0  0
  179.2560   19.0600   46.2290 C   0  0  0  0  0  0  0  0  0  0  0  0
  177.8770   18.8900   46.2160 O   0  0  0  0  0  0  0  0  0  0  0  0
  177.0980   19.7400   46.9600 C   0  0  0  0  0  0  0  0  0  0  0  0
  175.7190   19.5250   46.9300 C   0  0  0  0  0  0  0  0  0  0  0  0
  174.8690   20.3550   47.6640 C   0  0  0  0  0  0  0  0  0  0  0  0
  175.3970   21.4000   48.4260 C   0  0  0  0  0  0  0  0  0  0  0  0
  176.7720   21.6120   48.4540 C   0  0  0  0  0  0  0  0  0  0  0  0
  177.2210   22.6530   49.2200 O   0  0  0  0  0  0  0  0  0  0  0  0
  177.6230   20.7810   47.7200 C   0  0  0  0  0  0  0  0  0  0  0  0
  179.0740   20.9700   47.7220 C   0  0  0  0  0  0  0  0  0  0  0  0
  179.6140   21.8710   48.3610 O   0  0  0  0  0  0  0  0  0  0  0  0
  179.8880   20.0290   46.9180 C   0  0  0  0  0  0  0  0  0  0  0  0
  181.2570   20.2220   46.9140 O   0  0  0  0  0  0  0  0  0  0  0  0
  179.7220   16.6990   45.4930 C   0  0  0  0  0  0  0  0  0  0  0  0
  180.3850   15.7630   44.6730 C   0  0  0  0  0  0  0  0  0  0  0  0
  180.0880   14.2890   44.8430 C   0  0  0  0  0  0  0  0  0  0  0  0
  178.9150   14.0630   45.5000 F   0  0  0  0  0  0  0  0  0  0  0  0
  179.9850   13.6100   43.6650 F   0  0  0  0  0  0  0  0  0  0  0  0
  181.0480   13.6350   45.5560 F   0  0  0  0  0  0  0  0  0  0  0  0
  182.6146   14.5516   43.4171 H   0  0  0  0  0  0  0  0  0  0  0  0
  181.3299   14.7426   42.1762 H   0  0  0  0  0  0  0  0  0  0  0  0
  182.7493   15.8434   42.1762 H   0  0  0  0  0  0  0  0  0  0  0  0
  182.2611   17.9717   42.8474 H   0  0  0  0  0  0  0  0  0  0  0  0
  181.0722   19.5918   44.3055 H   0  0  0  0  0  0  0  0  0  0  0  0
  175.3026   18.7031   46.3291 H   0  0  0  0  0  0  0  0  0  0  0  0
  173.7823   20.1857   47.6421 H   0  0  0  0  0  0  0  0  0  0  0  0
  174.7269   22.0543   49.0030 H   0  0  0  0  0  0  0  0  0  0  0  0
  178.0640   22.6070   49.6250 H   0  0  0  0  0  0  0  0  0  0  0  0
  181.7760   19.9090   47.6280 H   0  0  0  0  0  0  0  0  0  0  0  0
  178.9957   16.3401   46.2371 H   0  0  0  0  0  0  0  0  0  0  0  0
  1  2  1  0
  2  3  2  0
  3  4  1  0
  4  5  2  0
  5  6  1  0
  6  7  1  0
  7  8  1  0
  8  9  2  0
  9 10  1  0
 10 11  2  0
 11 12  1  0
 12 13  1  0
 12 14  2  0
 14 15  1  0
 15 16  2  0
 15 17  1  0
 17 18  1  0
  5 19  1  0
 19 20  2  0
 20 21  1  0
 21 22  1  0
 21 23  1  0
 21 24  1  0
 20  2  1  0
 17  6  2  0
 14  8  1  0
  1 25  1  0
  1 26  1  0
  1 27  1  0
  3 28  1  0
  4 29  1  0
  9 30  1  0
 10 31  1  0
 11 32  1  0
 13 33  1  0
 18 34  1  0
 19 35  1  0
M  END
>  <meeko>  (1) 
{"is_sidechain": [false], "free_energy": -8.572, "intermolecular_energy": -10.076, "internal_energy": -0.07}

$$$$
cand_011_out
     RDKit          3D

 35 37  0  0  0  0  0  0  0  0999 V2000
  182.1810   21.1240   46.1820 C   0  0  0  0  0  0  0  0  0  0  0  0
  181.0410   21.4400   47.1130 C   0  0  0  0  0  0  0  0  0  0  0  0
  181.2050   22.4440   48.0780 C   0  0  0  0  0  0  0  0  0  0  0  0
  180.1690   22.7680   48.9560 C   0  0  0  0  0  0  0  0  0  0  0  0
  178.9420   22.0980   48.8980 C   0  0  0  0  0  0  0  0  0  0  0  0
  177.8540   22.4710   49.8250 C   0  0  0  0  0  0  0  0  0  0  0  0
  176.8160   23.1480   49.1970 O   0  0  0  0  0  0  0  0  0  0  0  0
  175.7400   23.5530   49.9450 C   0  0  0  0  0  0  0  0  0  0  0  0
  174.7130   24.2170   49.2720 C   0  0  0  0  0  0  0  0  0  0  0  0
  173.5890   24.6570   49.9750 C   0  0  0  0  0  0  0  0  0  0  0  0
  173.4930   24.4340   51.3500 C   0  0  0  0  0  0  0  0  0  0  0  0
  174.5180   23.7710   52.0200 C   0  0  0  0  0  0  0  0  0  0  0  0
  174.3590   23.5880   53.3660 O   0  0  0  0  0  0  0  0  0  0  0  0
  175.6420   23.3300   51.3160 C   0  0  0  0  0  0  0  0  0  0  0  0
  176.7420   22.6310   51.9810 C   0  0  0  0  0  0  0  0  0  0  0  0
  176.7340   22.4030   53.1890 O   0  0  0  0  0  0  0  0  0  0  0  0
  177.8830   22.1970   51.1430 C   0  0  0  0  0  0  0  0  0  0  0  0
  178.9240   21.5480   51.7810 O   0  0  0  0  0  0  0  0  0  0  0  0
  178.7730   21.1050   47.9220 C   0  0  0  0  0  0  0  0  0  0  0  0
  179.8060   20.7630   47.0250 C   0  0  0  0  0  0  0  0  0  0  0  0
  179.5670   19.6770   45.9990 C   0  0  0  0  0  0  0  0  0  0  0  0
  179.6760   20.1330   44.7190 F   0  0  0  0  0  0  0  0  0  0  0  0
  180.4370   18.6320   46.0920 F   0  0  0  0  0  0  0  0  0  0  0  0
  178.3240   19.1250   46.0950 F   0  0  0  0  0  0  0  0  0  0  0  0
  183.0767   20.8757   46.7702 H   0  0  0  0  0  0  0  0  0  0  0  0
  181.9097   20.2672   45.5477 H   0  0  0  0  0  0  0  0  0  0  0  0
  182.3895   21.9982   45.5477 H   0  0  0  0  0  0  0  0  0  0  0  0
  182.1616   22.9830   48.1441 H   0  0  0  0  0  0  0  0  0  0  0  0
  180.3194   23.5608   49.7036 H   0  0  0  0  0  0  0  0  0  0  0  0
  174.7888   24.3936   48.1889 H   0  0  0  0  0  0  0  0  0  0  0  0
  172.7790   25.1795   49.4450 H   0  0  0  0  0  0  0  0  0  0  0  0
  172.6083   24.7818   51.9036 H   0  0  0  0  0  0  0  0  0  0  0  0
  174.9910   23.9350   53.9630 H   0  0  0  0  0  0  0  0  0  0  0  0
  179.2510   20.7390   51.4390 H   0  0  0  0  0  0  0  0  0  0  0  0
  177.8092   20.5791   47.8544 H   0  0  0  0  0  0  0  0  0  0  0  0
  1  2  1  0
  2  3  2  0
  3  4  1  0
  4  5  2  0
  5  6  1  0
  6  7  1  0
  7  8  1  0
  8  9  2  0
  9 10  1  0
 10 11  2  0
 11 12  1  0
 12 13  1  0
 12 14  2  0
 14 15  1  0
 15 16  2  0
 15 17  1  0
 17 18  1  0
  5 19  1  0
 19 20  2  0
 20 21  1  0
 21 22  1  0
 21 23  1  0
 21 24  1  0
 20  2  1  0
 17  6  2  0
 14  8  1  0
  1 25  1  0
  1 26  1  0
  1 27  1  0
  3 28  1  0
  4 29  1  0
  9 30  1  0
 10 31  1  0
 11 32  1  0
 13 33  1  0
 18 34  1  0
 19 35  1  0
M  END
>  <meeko>  (2) 
{"is_sidechain": [false], "free_energy": -8.043, "intermolecular_energy": -9.146, "internal_energy": -0.377}

$$$$
cand_011_out
     RDKit          3D

 35 37  0  0  0  0  0  0  0  0999 V2000
  176.5040   18.5060   46.3040 C   0  0  0  0  0  0  0  0  0  0  0  0
  176.4050   19.5810   47.3530 C   0  0  0  0  0  0  0  0  0  0  0  0
  175.2890   19.6080   48.2010 C   0  0  0  0  0  0  0  0  0  0  0  0
  175.1650   20.5880   49.1890 C   0  0  0  0  0  0  0  0  0  0  0  0
  176.1490   21.5680   49.3550 C   0  0  0  0  0  0  0  0  0  0  0  0
  176.0050   22.5840   50.4200 C   0  0  0  0  0  0  0  0  0  0  0  0
  175.5240   23.7990   49.9470 O   0  0  0  0  0  0  0  0  0  0  0  0
  175.3440   24.8300   50.8330 C   0  0  0  0  0  0  0  0  0  0  0  0
  174.8460   26.0280   50.3190 C   0  0  0  0  0  0  0  0  0  0  0  0
  174.6400   27.1180   51.1680 C   0  0  0  0  0  0  0  0  0  0  0  0
  174.9340   27.0110   52.5290 C   0  0  0  0  0  0  0  0  0  0  0  0
  175.4310   25.8150   53.0390 C   0  0  0  0  0  0  0  0  0  0  0  0
  175.6990   25.7790   54.3800 O   0  0  0  0  0  0  0  0  0  0  0  0
  175.6360   24.7230   52.1900 C   0  0  0  0  0  0  0  0  0  0  0  0
  176.1570   23.4490   52.6860 C   0  0  0  0  0  0  0  0  0  0  0  0
  176.4470   23.2780   53.8680 O   0  0  0  0  0  0  0  0  0  0  0  0
  176.3290   22.3520   51.7060 C   0  0  0  0  0  0  0  0  0  0  0  0
  176.8340   21.1560   52.1790 O   0  0  0  0  0  0  0  0  0  0  0  0
  177.2730   21.5310   48.5180 C   0  0  0  0  0  0  0  0  0  0  0  0
  177.4180   20.5500   47.5150 C   0  0  0  0  0  0  0  0  0  0  0  0
  178.6500   20.5660   46.6360 C   0  0  0  0  0  0  0  0  0  0  0  0
  179.4370   19.4690   46.8170 F   0  0  0  0  0  0  0  0  0  0  0  0
  178.3730   20.6030   45.3010 F   0  0  0  0  0  0  0  0  0  0  0  0
  179.4510   21.6440   46.8700 F   0  0  0  0  0  0  0  0  0  0  0  0
  176.5944   17.5245   46.7923 H   0  0  0  0  0  0  0  0  0  0  0  0
  175.6006   18.5216   45.6766 H   0  0  0  0  0  0  0  0  0  0  0  0
  177.3893   18.6863   45.6766 H   0  0  0  0  0  0  0  0  0  0  0  0
  174.5015   18.8485   48.0871 H   0  0  0  0  0  0  0  0  0  0  0  0
  174.2819   20.5889   49.8449 H   0  0  0  0  0  0  0  0  0  0  0  0
  174.6160   26.1139   49.2468 H   0  0  0  0  0  0  0  0  0  0  0  0
  174.2456   28.0620   50.7639 H   0  0  0  0  0  0  0  0  0  0  0  0
  174.7731   27.8702   53.1967 H   0  0  0  0  0  0  0  0  0  0  0  0
  176.5680   25.9420   54.6890 H   0  0  0  0  0  0  0  0  0  0  0  0
  176.4630   20.7610   52.9430 H   0  0  0  0  0  0  0  0  0  0  0  0
  178.0621   22.2864   48.6468 H   0  0  0  0  0  0  0  0  0  0  0  0
  1  2  1  0
  2  3  2  0
  3  4  1  0
  4  5  2  0
  5  6  1  0
  6  7  1  0
  7  8  1  0
  8  9  2  0
  9 10  1  0
 10 11  2  0
 11 12  1  0
 12 13  1  0
 12 14  2  0
 14 15  1  0
 15 16  2  0
 15 17  1  0
 17 18  1  0
  5 19  1  0
 19 20  2  0
 20 21  1  0
 21 22  1  0
 21 23  1  0
 21 24  1  0
 20  2  1  0
 17  6  2  0
 14  8  1  0
  1 25  1  0
  1 26  1  0
  1 27  1  0
  3 28  1  0
  4 29  1  0
  9 30  1  0
 10 31  1  0
 11 32  1  0
 13 33  1  0
 18 34  1  0
 19 35  1  0
M  END
>  <meeko>  (3) 
{"is_sidechain": [false], "free_energy": -8.007, "intermolecular_energy": -9.051, "internal_energy": -0.43}

$$$$
cand_011_out
     RDKit          3D

 35 37  0  0  0  0  0  0  0  0999 V2000
  176.7700   22.3160   49.1180 C   0  0  0  0  0  0  0  0  0  0  0  0
  177.4960   21.3360   48.2360 C   0  0  0  0  0  0  0  0  0  0  0  0
  178.8940   21.4000   48.1470 C   0  0  0  0  0  0  0  0  0  0  0  0
  179.6020   20.5050   47.3430 C   0  0  0  0  0  0  0  0  0  0  0  0
  178.9350   19.5230   46.6030 C   0  0  0  0  0  0  0  0  0  0  0  0
  179.7070   18.5740   45.7730 C   0  0  0  0  0  0  0  0  0  0  0  0
  179.2090   17.2780   45.8280 O   0  0  0  0  0  0  0  0  0  0  0  0
  179.8350   16.2960   45.1030 C   0  0  0  0  0  0  0  0  0  0  0  0
  179.2940   15.0120   45.1760 C   0  0  0  0  0  0  0  0  0  0  0  0
  179.8840   13.9660   44.4620 C   0  0  0  0  0  0  0  0  0  0  0  0
  181.0140   14.2040   43.6770 C   0  0  0  0  0  0  0  0  0  0  0  0
  181.5520   15.4870   43.6060 C   0  0  0  0  0  0  0  0  0  0  0  0
  182.6590   15.6490   42.8190 O   0  0  0  0  0  0  0  0  0  0  0  0
  180.9610   16.5330   44.3190 C   0  0  0  0  0  0  0  0  0  0  0  0
  181.4940   17.8950   44.2720 C   0  0  0  0  0  0  0  0  0  0  0  0
  182.4900   18.1830   43.6110 O   0  0  0  0  0  0  0  0  0  0  0  0
  180.7900   18.9340   45.0580 C   0  0  0  0  0  0  0  0  0  0  0  0
  181.3070   20.2150   45.0190 O   0  0  0  0  0  0  0  0  0  0  0  0
  177.5380   19.4480   46.7040 C   0  0  0  0  0  0  0  0  0  0  0  0
  176.8040   20.3420   47.5110 C   0  0  0  0  0  0  0  0  0  0  0  0
  175.2980   20.2160   47.5740 C   0  0  0  0  0  0  0  0  0  0  0  0
  174.8230   19.2060   46.7920 F   0  0  0  0  0  0  0  0  0  0  0  0
  174.8190   19.9670   48.8260 F   0  0  0  0  0  0  0  0  0  0  0  0
  174.6560   21.3450   47.1570 F   0  0  0  0  0  0  0  0  0  0  0  0
  176.9549   22.0664   50.1732 H   0  0  0  0  0  0  0  0  0  0  0  0
  177.1339   23.3335   48.9127 H   0  0  0  0  0  0  0  0  0  0  0  0
  175.6906   22.2643   48.9127 H   0  0  0  0  0  0  0  0  0  0  0  0
  179.4398   22.1654   48.7182 H   0  0  0  0  0  0  0  0  0  0  0  0
  180.6987   20.5728   47.2907 H   0  0  0  0  0  0  0  0  0  0  0  0
  178.4043   14.8235   45.7948 H   0  0  0  0  0  0  0  0  0  0  0  0
  179.4577   12.9535   44.5183 H   0  0  0  0  0  0  0  0  0  0  0  0
  181.4785   13.3799   43.1157 H   0  0  0  0  0  0  0  0  0  0  0  0
  183.4930   15.3410   43.1160 H   0  0  0  0  0  0  0  0  0  0  0  0
  180.9050   20.8660   44.4780 H   0  0  0  0  0  0  0  0  0  0  0  0
  177.0009   18.6718   46.1391 H   0  0  0  0  0  0  0  0  0  0  0  0
  1  2  1  0
  2  3  2  0
  3  4  1  0
  4  5  2  0
  5  6  1  0
  6  7  1  0
  7  8  1  0
  8  9  2  0
  9 10  1  0
 10 11  2  0
 11 12  1  0
 12 13  1  0
 12 14  2  0
 14 15  1  0
 15 16  2  0
 15 17  1  0
 17 18  1  0
  5 19  1  0
 19 20  2  0
 20 21  1  0
 21 22  1  0
 21 23  1  0
 21 24  1  0
 20  2  1  0
 17  6  2  0
 14  8  1  0
  1 25  1  0
  1 26  1  0
  1 27  1  0
  3 28  1  0
  4 29  1  0
  9 30  1  0
 10 31  1  0
 11 32  1  0
 13 33  1  0
 18 34  1  0
 19 35  1  0
M  END
>  <meeko>  (4) 
{"is_sidechain": [false], "free_energy": -7.992, "intermolecular_energy": -9.433, "internal_energy": -0.03}

$$$$
cand_011_out
     RDKit          3D

 35 37  0  0  0  0  0  0  0  0999 V2000
  180.7670   19.2980   45.1320 C   0  0  0  0  0  0  0  0  0  0  0  0
  179.9020   19.9420   46.1830 C   0  0  0  0  0  0  0  0  0  0  0  0
  178.5770   19.5120   46.3360 C   0  0  0  0  0  0  0  0  0  0  0  0
  177.7470   20.0830   47.3030 C   0  0  0  0  0  0  0  0  0  0  0  0
  178.2160   21.0990   48.1420 C   0  0  0  0  0  0  0  0  0  0  0  0
  177.3250   21.6760   49.1710 C   0  0  0  0  0  0  0  0  0  0  0  0
  176.0730   22.0170   48.6730 O   0  0  0  0  0  0  0  0  0  0  0  0
  175.1480   22.5650   49.5250 C   0  0  0  0  0  0  0  0  0  0  0  0
  173.8990   22.8800   48.9880 C   0  0  0  0  0  0  0  0  0  0  0  0
  172.9110   23.4410   49.8010 C   0  0  0  0  0  0  0  0  0  0  0  0
  173.1730   23.6870   51.1510 C   0  0  0  0  0  0  0  0  0  0  0  0
  174.4200   23.3710   51.6850 C   0  0  0  0  0  0  0  0  0  0  0  0
  174.6090   23.6400   53.0130 O   0  0  0  0  0  0  0  0  0  0  0  0
  175.4080   22.8090   50.8710 C   0  0  0  0  0  0  0  0  0  0  0  0
  176.7300   22.4640   51.3920 C   0  0  0  0  0  0  0  0  0  0  0  0
  177.0400   22.6570   52.5660 O   0  0  0  0  0  0  0  0  0  0  0  0
  177.7030   21.8650   50.4490 C   0  0  0  0  0  0  0  0  0  0  0  0
  178.9540   21.5530   50.9450 O   0  0  0  0  0  0  0  0  0  0  0  0
  179.5470   21.5180   48.0010 C   0  0  0  0  0  0  0  0  0  0  0  0
  180.4020   20.9540   47.0310 C   0  0  0  0  0  0  0  0  0  0  0  0
  181.8260   21.4520   46.9200 C   0  0  0  0  0  0  0  0  0  0  0  0
  182.7070   20.6810   47.6170 F   0  0  0  0  0  0  0  0  0  0  0  0
  182.2990   21.4850   45.6420 F   0  0  0  0  0  0  0  0  0  0  0  0
  181.9800   22.7200   47.3970 F   0  0  0  0  0  0  0  0  0  0  0  0
  181.5582   18.7089   45.6188 H   0  0  0  0  0  0  0  0  0  0  0  0
  180.1510   18.6369   44.5047 H   0  0  0  0  0  0  0  0  0  0  0  0
  181.2237   20.0777   44.5047 H   0  0  0  0  0  0  0  0  0  0  0  0
  178.1860   18.7150   45.6865 H   0  0  0  0  0  0  0  0  0  0  0  0
  176.7106   19.7290   47.4062 H   0  0  0  0  0  0  0  0  0  0  0  0
  173.6925   22.6867   47.9250 H   0  0  0  0  0  0  0  0  0  0  0  0
  171.9264   23.6891   49.3780 H   0  0  0  0  0  0  0  0  0  0  0  0
  172.3957   24.1296   51.7913 H   0  0  0  0  0  0  0  0  0  0  0  0
  174.2870   23.0450   53.6610 H   0  0  0  0  0  0  0  0  0  0  0  0
  179.4460   20.8500   50.5680 H   0  0  0  0  0  0  0  0  0  0  0  0
  179.9340   22.3063   48.6635 H   0  0  0  0  0  0  0  0  0  0  0  0
  1  2  1  0
  2  3  2  0
  3  4  1  0
  4  5  2  0
  5  6  1  0
  6  7  1  0
  7  8  1  0
  8  9  2  0
  9 10  1  0
 10 11  2  0
 11 12  1  0
 12 13  1  0
 12 14  2  0
 14 15  1  0
 15 16  2  0
 15 17  1  0
 17 18  1  0
  5 19  1  0
 19 20  2  0
 20 21  1  0
 21 22  1  0
 21 23  1  0
 21 24  1  0
 20  2  1  0
 17  6  2  0
 14  8  1  0
  1 25  1  0
  1 26  1  0
  1 27  1  0
  3 28  1  0
  4 29  1  0
  9 30  1  0
 10 31  1  0
 11 32  1  0
 13 33  1  0
 18 34  1  0
 19 35  1  0
M  END
>  <meeko>  (5) 
{"is_sidechain": [false], "free_energy": -7.63, "intermolecular_energy": -9.1, "internal_energy": 0.062}

$$$$
cand_011_out
     RDKit          3D

 35 37  0  0  0  0  0  0  0  0999 V2000
  170.2620   25.1400   52.0090 C   0  0  0  0  0  0  0  0  0  0  0  0
  171.4490   24.5630   51.2850 C   0  0  0  0  0  0  0  0  0  0  0  0
  171.4560   24.5510   49.8830 C   0  0  0  0  0  0  0  0  0  0  0  0
  172.5420   24.0290   49.1780 C   0  0  0  0  0  0  0  0  0  0  0  0
  173.6490   23.5020   49.8510 C   0  0  0  0  0  0  0  0  0  0  0  0
  174.7960   22.9720   49.0830 C   0  0  0  0  0  0  0  0  0  0  0  0
  174.5750   21.6880   48.5990 O   0  0  0  0  0  0  0  0  0  0  0  0
  175.5620   21.0770   47.8680 C   0  0  0  0  0  0  0  0  0  0  0  0
  175.2930   19.7940   47.3880 C   0  0  0  0  0  0  0  0  0  0  0  0
  176.2560   19.1150   46.6380 C   0  0  0  0  0  0  0  0  0  0  0  0
  177.4870   19.7190   46.3680 C   0  0  0  0  0  0  0  0  0  0  0  0
  177.7520   20.9990   46.8480 C   0  0  0  0  0  0  0  0  0  0  0  0
  178.9770   21.5290   46.5490 O   0  0  0  0  0  0  0  0  0  0  0  0
  176.7880   21.6780   47.5980 C   0  0  0  0  0  0  0  0  0  0  0  0
  177.0270   23.0240   48.1210 C   0  0  0  0  0  0  0  0  0  0  0  0
  178.0870   23.6180   47.9340 O   0  0  0  0  0  0  0  0  0  0  0  0
  175.9380   23.6600   48.8970 C   0  0  0  0  0  0  0  0  0  0  0  0
  176.1750   24.9260   49.3990 O   0  0  0  0  0  0  0  0  0  0  0  0
  173.6500   23.5300   51.2540 C   0  0  0  0  0  0  0  0  0  0  0  0
  172.5630   24.0530   51.9850 C   0  0  0  0  0  0  0  0  0  0  0  0
  172.6180   24.0480   53.4970 C   0  0  0  0  0  0  0  0  0  0  0  0
  173.8120   23.6000   53.9770 F   0  0  0  0  0  0  0  0  0  0  0  0
  172.4350   25.2770   54.0580 F   0  0  0  0  0  0  0  0  0  0  0  0
  171.6660   23.2490   54.0570 F   0  0  0  0  0  0  0  0  0  0  0  0
  170.4215   25.0625   53.0946 H   0  0  0  0  0  0  0  0  0  0  0  0
  170.1412   26.1973   51.7307 H   0  0  0  0  0  0  0  0  0  0  0  0
  169.3559   24.5818   51.7307 H   0  0  0  0  0  0  0  0  0  0  0  0
  170.5953   24.9578   49.3319 H   0  0  0  0  0  0  0  0  0  0  0  0
  172.5269   24.0322   48.0781 H   0  0  0  0  0  0  0  0  0  0  0  0
  174.3240   19.3185   47.6001 H   0  0  0  0  0  0  0  0  0  0  0  0
  176.0453   18.1039   46.2595 H   0  0  0  0  0  0  0  0  0  0  0  0
  178.2453   19.1842   45.7773 H   0  0  0  0  0  0  0  0  0  0  0  0
  179.0470   22.2220   45.9230 H   0  0  0  0  0  0  0  0  0  0  0  0
  177.0400   25.1690   49.6660 H   0  0  0  0  0  0  0  0  0  0  0  0
  174.5206   23.1340   51.7975 H   0  0  0  0  0  0  0  0  0  0  0  0
  1  2  1  0
  2  3  2  0
  3  4  1  0
  4  5  2  0
  5  6  1  0
  6  7  1  0
  7  8  1  0
  8  9  2  0
  9 10  1  0
 10 11  2  0
 11 12  1  0
 12 13  1  0
 12 14  2  0
 14 15  1  0
 15 16  2  0
 15 17  1  0
 17 18  1  0
  5 19  1  0
 19 20  2  0
 20 21  1  0
 21 22  1  0
 21 23  1  0
 21 24  1  0
 20  2  1  0
 17  6  2  0
 14  8  1  0
  1 25  1  0
  1 26  1  0
  1 27  1  0
  3 28  1  0
  4 29  1  0
  9 30  1  0
 10 31  1  0
 11 32  1  0
 13 33  1  0
 18 34  1  0
 19 35  1  0
M  END
>  <meeko>  (6) 
{"is_sidechain": [false], "free_energy": -7.627, "intermolecular_energy": -8.612, "internal_energy": -0.422}

$$$$
cand_011_out
     RDKit          3D

 35 37  0  0  0  0  0  0  0  0999 V2000
  176.5670   18.9580   46.2020 C   0  0  0  0  0  0  0  0  0  0  0  0
  177.6420   19.7610   46.8840 C   0  0  0  0  0  0  0  0  0  0  0  0
  178.9430   19.7450   46.3590 C   0  0  0  0  0  0  0  0  0  0  0  0
  179.9650   20.4810   46.9620 C   0  0  0  0  0  0  0  0  0  0  0  0
  179.7200   21.2490   48.1050 C   0  0  0  0  0  0  0  0  0  0  0  0
  180.8130   22.0340   48.7150 C   0  0  0  0  0  0  0  0  0  0  0  0
  180.9370   23.3060   48.1670 O   0  0  0  0  0  0  0  0  0  0  0  0
  181.9170   24.1400   48.6440 C   0  0  0  0  0  0  0  0  0  0  0  0
  181.9960   25.4120   48.0760 C   0  0  0  0  0  0  0  0  0  0  0  0
  182.9720   26.3110   48.5150 C   0  0  0  0  0  0  0  0  0  0  0  0
  183.8670   25.9360   49.5200 C   0  0  0  0  0  0  0  0  0  0  0  0
  183.7850   24.6660   50.0850 C   0  0  0  0  0  0  0  0  0  0  0  0
  184.6930   24.3650   51.0620 O   0  0  0  0  0  0  0  0  0  0  0  0
  182.8080   23.7670   49.6460 C   0  0  0  0  0  0  0  0  0  0  0  0
  182.6880   22.4230   50.2120 C   0  0  0  0  0  0  0  0  0  0  0  0
  183.4430   22.0170   51.0940 O   0  0  0  0  0  0  0  0  0  0  0  0
  181.6140   21.5520   49.6830 C   0  0  0  0  0  0  0  0  0  0  0  0
  181.5150   20.2790   50.2140 O   0  0  0  0  0  0  0  0  0  0  0  0
  178.4150   21.2780   48.6200 C   0  0  0  0  0  0  0  0  0  0  0  0
  177.3680   20.5430   48.0260 C   0  0  0  0  0  0  0  0  0  0  0  0
  175.9830   20.6070   48.6310 C   0  0  0  0  0  0  0  0  0  0  0  0
  175.0560   21.1080   47.7670 F   0  0  0  0  0  0  0  0  0  0  0  0
  175.4990   19.3950   49.0260 F   0  0  0  0  0  0  0  0  0  0  0  0
  175.9270   21.3990   49.7390 F   0  0  0  0  0  0  0  0  0  0  0  0
  175.9287   18.4812   46.9604 H   0  0  0  0  0  0  0  0  0  0  0  0
  175.9559   19.6226   45.5736 H   0  0  0  0  0  0  0  0  0  0  0  0
  177.0309   18.1834   45.5736 H   0  0  0  0  0  0  0  0  0  0  0  0
  179.1603   19.1460   45.4624 H   0  0  0  0  0  0  0  0  0  0  0  0
  180.9772   20.4564   46.5320 H   0  0  0  0  0  0  0  0  0  0  0  0
  181.2915   25.7067   47.2843 H   0  0  0  0  0  0  0  0  0  0  0  0
  183.0355   27.3145   48.0689 H   0  0  0  0  0  0  0  0  0  0  0  0
  184.6357   26.6433   49.8646 H   0  0  0  0  0  0  0  0  0  0  0  0
  184.9180   25.0080   51.7060 H   0  0  0  0  0  0  0  0  0  0  0  0
  181.4730   20.1610   51.1430 H   0  0  0  0  0  0  0  0  0  0  0  0
  178.2032   21.8895   49.5095 H   0  0  0  0  0  0  0  0  0  0  0  0
  1  2  1  0
  2  3  2  0
  3  4  1  0
  4  5  2  0
  5  6  1  0
  6  7  1  0
  7  8  1  0
  8  9  2  0
  9 10  1  0
 10 11  2  0
 11 12  1  0
 12 13  1  0
 12 14  2  0
 14 15  1  0
 15 16  2  0
 15 17  1  0
 17 18  1  0
  5 19  1  0
 19 20  2  0
 20 21  1  0
 21 22  1  0
 21 23  1  0
 21 24  1  0
 20  2  1  0
 17  6  2  0
 14  8  1  0
  1 25  1  0
  1 26  1  0
  1 27  1  0
  3 28  1  0
  4 29  1  0
  9 30  1  0
 10 31  1  0
 11 32  1  0
 13 33  1  0
 18 34  1  0
 19 35  1  0
M  END
>  <meeko>  (7) 
{"is_sidechain": [false], "free_energy": -7.602, "intermolecular_energy": -8.547, "internal_energy": -0.458}

$$$$
cand_011_out
     RDKit          3D

 35 37  0  0  0  0  0  0  0  0999 V2000
  180.4710   20.6760   47.9590 C   0  0  0  0  0  0  0  0  0  0  0  0
  179.1560   21.3430   48.2620 C   0  0  0  0  0  0  0  0  0  0  0  0
  179.0400   22.1390   49.4110 C   0  0  0  0  0  0  0  0  0  0  0  0
  177.8380   22.7770   49.7210 C   0  0  0  0  0  0  0  0  0  0  0  0
  176.7170   22.6370   48.8960 C   0  0  0  0  0  0  0  0  0  0  0  0
  175.4600   23.3370   49.2350 C   0  0  0  0  0  0  0  0  0  0  0  0
  175.6620   24.6610   49.6080 O   0  0  0  0  0  0  0  0  0  0  0  0
  174.5750   25.4260   49.9490 C   0  0  0  0  0  0  0  0  0  0  0  0
  174.8210   26.7530   50.3030 C   0  0  0  0  0  0  0  0  0  0  0  0
  173.7590   27.5870   50.6620 C   0  0  0  0  0  0  0  0  0  0  0  0
  172.4520   27.0920   50.6680 C   0  0  0  0  0  0  0  0  0  0  0  0
  172.2100   25.7670   50.3140 C   0  0  0  0  0  0  0  0  0  0  0  0
  170.9080   25.3490   50.3430 O   0  0  0  0  0  0  0  0  0  0  0  0
  173.2730   24.9340   49.9540 C   0  0  0  0  0  0  0  0  0  0  0  0
  173.0620   23.5360   49.5770 C   0  0  0  0  0  0  0  0  0  0  0  0
  171.9440   23.0250   49.5650 O   0  0  0  0  0  0  0  0  0  0  0  0
  174.2540   22.7400   49.2040 C   0  0  0  0  0  0  0  0  0  0  0  0
  174.0480   21.4170   48.8600 O   0  0  0  0  0  0  0  0  0  0  0  0
  176.8370   21.8550   47.7370 C   0  0  0  0  0  0  0  0  0  0  0  0
  178.0430   21.2030   47.4050 C   0  0  0  0  0  0  0  0  0  0  0  0
  178.1090   20.3660   46.1460 C   0  0  0  0  0  0  0  0  0  0  0  0
  176.9430   20.3870   45.4410 F   0  0  0  0  0  0  0  0  0  0  0  0
  179.0740   20.7670   45.2700 F   0  0  0  0  0  0  0  0  0  0  0  0
  178.3700   19.0530   46.3990 F   0  0  0  0  0  0  0  0  0  0  0  0
  180.9775   20.4191   48.9011 H   0  0  0  0  0  0  0  0  0  0  0  0
  180.2919   19.7597   47.3773 H   0  0  0  0  0  0  0  0  0  0  0  0
  181.1045   21.3617   47.3773 H   0  0  0  0  0  0  0  0  0  0  0  0
  179.9074   22.2620   50.0762 H   0  0  0  0  0  0  0  0  0  0  0  0
  177.7712   23.3983   50.6263 H   0  0  0  0  0  0  0  0  0  0  0  0
  175.8499   27.1422   50.2995 H   0  0  0  0  0  0  0  0  0  0  0  0
  173.9517   28.6337   50.9400 H   0  0  0  0  0  0  0  0  0  0  0  0
  171.6158   27.7479   50.9519 H   0  0  0  0  0  0  0  0  0  0  0  0
  170.3310   25.6590   51.0130 H   0  0  0  0  0  0  0  0  0  0  0  0
  173.4420   20.8960   49.3490 H   0  0  0  0  0  0  0  0  0  0  0  0
  175.9686   21.7477   47.0705 H   0  0  0  0  0  0  0  0  0  0  0  0
  1  2  1  0
  2  3  2  0
  3  4  1  0
  4  5  2  0
  5  6  1  0
  6  7  1  0
  7  8  1  0
  8  9  2  0
  9 10  1  0
 10 11  2  0
 11 12  1  0
 12 13  1  0
 12 14  2  0
 14 15  1  0
 15 16  2  0
 15 17  1  0
 17 18  1  0
  5 19  1  0
 19 20  2  0
 20 21  1  0
 21 22  1  0
 21 23  1  0
 21 24  1  0
 20  2  1  0
 17  6  2  0
 14  8  1  0
  1 25  1  0
  1 26  1  0
  1 27  1  0
  3 28  1  0
  4 29  1  0
  9 30  1  0
 10 31  1  0
 11 32  1  0
 13 33  1  0
 18 34  1  0
 19 35  1  0
M  END
>  <meeko>  (8) 
{"is_sidechain": [false], "free_energy": -7.567, "intermolecular_energy": -8.793, "internal_energy": -0.171}

$$$$
cand_011_out
     RDKit          3D

 35 37  0  0  0  0  0  0  0  0999 V2000
  171.8240   24.5590   49.4550 C   0  0  0  0  0  0  0  0  0  0  0  0
  173.2560   24.1050   49.5550 C   0  0  0  0  0  0  0  0  0  0  0  0
  173.5850   22.7920   49.1910 C   0  0  0  0  0  0  0  0  0  0  0  0
  174.9030   22.3370   49.2660 C   0  0  0  0  0  0  0  0  0  0  0  0
  175.9280   23.1780   49.7100 C   0  0  0  0  0  0  0  0  0  0  0  0
  177.3190   22.6810   49.7630 C   0  0  0  0  0  0  0  0  0  0  0  0
  177.7140   22.0510   48.5890 O   0  0  0  0  0  0  0  0  0  0  0  0
  178.9850   21.5410   48.5060 C   0  0  0  0  0  0  0  0  0  0  0  0
  179.3450   20.9300   47.3040 C   0  0  0  0  0  0  0  0  0  0  0  0
  180.6240   20.3900   47.1530 C   0  0  0  0  0  0  0  0  0  0  0  0
  181.5420   20.4590   48.2040 C   0  0  0  0  0  0  0  0  0  0  0  0
  181.1800   21.0690   49.4020 C   0  0  0  0  0  0  0  0  0  0  0  0
  182.1260   21.1010   50.3890 O   0  0  0  0  0  0  0  0  0  0  0  0
  179.9000   21.6110   49.5520 C   0  0  0  0  0  0  0  0  0  0  0  0
  179.4790   22.2600   50.7950 C   0  0  0  0  0  0  0  0  0  0  0  0
  180.2260   22.3540   51.7670 O   0  0  0  0  0  0  0  0  0  0  0  0
  178.1050   22.8100   50.8480 C   0  0  0  0  0  0  0  0  0  0  0  0
  177.7110   23.4100   52.0290 O   0  0  0  0  0  0  0  0  0  0  0  0
  175.6030   24.4980   50.0580 C   0  0  0  0  0  0  0  0  0  0  0  0
  174.2780   24.9770   49.9890 C   0  0  0  0  0  0  0  0  0  0  0  0
  173.9870   26.4080   50.3860 C   0  0  0  0  0  0  0  0  0  0  0  0
  175.0970   27.1980   50.3500 F   0  0  0  0  0  0  0  0  0  0  0  0
  173.0710   27.0250   49.5860 F   0  0  0  0  0  0  0  0  0  0  0  0
  173.4930   26.5140   51.6520 F   0  0  0  0  0  0  0  0  0  0  0  0
  171.4096   24.6904   50.4654 H   0  0  0  0  0  0  0  0  0  0  0  0
  171.7795   25.5153   48.9132 H   0  0  0  0  0  0  0  0  0  0  0  0
  171.2367   23.8030   48.9132 H   0  0  0  0  0  0  0  0  0  0  0  0
  172.7947   22.1112   48.8418 H   0  0  0  0  0  0  0  0  0  0  0  0
  175.1380   21.3034   48.9719 H   0  0  0  0  0  0  0  0  0  0  0  0
  178.6223   20.8738   46.4766 H   0  0  0  0  0  0  0  0  0  0  0  0
  180.9091   19.9097   46.2053 H   0  0  0  0  0  0  0  0  0  0  0  0
  182.5488   20.0322   48.0852 H   0  0  0  0  0  0  0  0  0  0  0  0
  181.9070   20.8230   51.2570 H   0  0  0  0  0  0  0  0  0  0  0  0
  176.8350   23.2960   52.3430 H   0  0  0  0  0  0  0  0  0  0  0  0
  176.4016   25.1763   50.3930 H   0  0  0  0  0  0  0  0  0  0  0  0
  1  2  1  0
  2  3  2  0
  3  4  1  0
  4  5  2  0
  5  6  1  0
  6  7  1  0
  7  8  1  0
  8  9  2  0
  9 10  1  0
 10 11  2  0
 11 12  1  0
 12 13  1  0
 12 14  2  0
 14 15  1  0
 15 16  2  0
 15 17  1  0
 17 18  1  0
  5 19  1  0
 19 20  2  0
 20 21  1  0
 21 22  1  0
 21 23  1  0
 21 24  1  0
 20  2  1  0
 17  6  2  0
 14  8  1  0
  1 25  1  0
  1 26  1  0
  1 27  1  0
  3 28  1  0
  4 29  1  0
  9 30  1  0
 10 31  1  0
 11 32  1  0
 13 33  1  0
 18 34  1  0
 19 35  1  0
M  END
>  <meeko>  (9) 
{"is_sidechain": [false], "free_energy": -7.532, "intermolecular_energy": -8.855, "internal_energy": -0.068}

$$$$
