cand_037_out
     RDKit          3D

 35 37  0  0  0  0  0  0  0  0999 V2000
  179.9840   14.1090   44.7770 C   0  0  0  0  0  0  0  0  0  0  0  0
  180.3810   15.5460   44.5770 C   0  0  0  0  0  0  0  0  0  0  0  0
  179.7850   16.5360   45.3810 C   0  0  0  0  0  0  0  0  0  0  0  0
  180.1110   17.8930   45.2410 C   0  0  0  0  0  0  0  0  0  0  0  0
  179.4460   18.9020   46.0930 C   0  0  0  0  0  0  0  0  0  0  0  0
  178.0610   18.7840   46.0900 O   0  0  0  0  0  0  0  0  0  0  0  0
  177.3190   19.6580   46.8410 C   0  0  0  0  0  0  0  0  0  0  0  0
  175.9300   19.5120   46.7980 C   0  0  0  0  0  0  0  0  0  0  0  0
  175.1170   20.3700   47.5400 C   0  0  0  0  0  0  0  0  0  0  0  0
  175.6890   21.3720   48.3270 C   0  0  0  0  0  0  0  0  0  0  0  0
  177.0730   21.5150   48.3710 C   0  0  0  0  0  0  0  0  0  0  0  0
  177.5660   22.5160   49.1620 O   0  0  0  0  0  0  0  0  0  0  0  0
  177.8880   20.6580   47.6250 C   0  0  0  0  0  0  0  0  0  0  0  0
  179.3470   20.7740   47.6420 C   0  0  0  0  0  0  0  0  0  0  0  0
  179.9250   21.6240   48.3140 O   0  0  0  0  0  0  0  0  0  0  0  0
  180.1190   19.8200   46.8110 C   0  0  0  0  0  0  0  0  0  0  0  0
  181.4970   19.9300   46.8440 O   0  0  0  0  0  0  0  0  0  0  0  0
  181.0350   18.2560   44.2570 C   0  0  0  0  0  0  0  0  0  0  0  0
  181.6270   17.2870   43.4420 C   0  0  0  0  0  0  0  0  0  0  0  0
  181.3020   15.9290   43.5810 C   0  0  0  0  0  0  0  0  0  0  0  0
  181.9810   14.9180   42.6920 C   0  0  0  0  0  0  0  0  0  0  0  0
  181.1860   14.4670   41.6800 F   0  0  0  0  0  0  0  0  0  0  0  0
  179.9239   13.8916   45.8536 H   0  0  0  0  0  0  0  0  0  0  0  0
  179.0031   13.9314   44.3118 H   0  0  0  0  0  0  0  0  0  0  0  0
  180.7346   13.4531   44.3118 H   0  0  0  0  0  0  0  0  0  0  0  0
  179.0449   16.2378   46.1382 H   0  0  0  0  0  0  0  0  0  0  0  0
  175.4780   18.7220   46.1803 H   0  0  0  0  0  0  0  0  0  0  0  0
  174.0234   20.2568   47.5049 H   0  0  0  0  0  0  0  0  0  0  0  0
  175.0467   22.0473   48.9113 H   0  0  0  0  0  0  0  0  0  0  0  0
  177.0360   23.2630   49.3580 H   0  0  0  0  0  0  0  0  0  0  0  0
  181.9170   20.6710   46.4530 H   0  0  0  0  0  0  0  0  0  0  0  0
  181.2990   19.3154   44.1226 H   0  0  0  0  0  0  0  0  0  0  0  0
  182.3588   17.5936   42.6801 H   0  0  0  0  0  0  0  0  0  0  0  0
  182.8746   15.3849   42.2520 H   0  0  0  0  0  0  0  0  0  0  0  0
  182.2320   14.0501   43.3195 H   0  0  0  0  0  0  0  0  0  0  0  0
  1  2  1  0
  2  3  2  0
  3  4  1  0
  4  5  1  0
  5  6  1  0
  6  7  1  0
  7  8  2  0
  8  9  1  0
  9 10  2  0
 10 11  1  0
 11 12  1  0
 11 13  2  0
 13 14  1  0
 14 15  2  0
 14 16  1  0
 16 17  1  0
  4 18  2  0
 18 19  1  0
 19 20  2  0
 20 21  1  0
 21 22  1  0
 20  2  1  0
 16  5  2  0
 13  7  1  0
  1 23  1  0
  1 24  1  0
  1 25  1  0
  3 26  1  0
  8 27  1  0
  9 28  1  0
 10 29  1  0
 12 30  1  0
 17 31  1  0
 18 32  1  0
 19 33  1  0
 21 34  1  0
 21 35  1  0
M  END
>  <meeko>  (1) 
{"is_sidechain": [false], "free_energy": -7.735, "intermolecular_energy": -9.092, "internal_energy": -0.229}

$$$$
cand_037_out
     RDKit          3D

 35 37  0  0  0  0  0  0  0  0999 V2000
  174.2730   26.4180   50.1210 C   0  0  0  0  0  0  0  0  0  0  0  0
  174.5350   24.9570   49.8790 C   0  0  0  0  0  0  0  0  0  0  0  0
  175.8550   24.4770   49.9700 C   0  0  0  0  0  0  0  0  0  0  0  0
  176.1640   23.1260   49.7520 C   0  0  0  0  0  0  0  0  0  0  0  0
  177.5680   22.6680   49.8380 C   0  0  0  0  0  0  0  0  0  0  0  0
  177.9790   21.9730   48.7070 O   0  0  0  0  0  0  0  0  0  0  0  0
  179.2620   21.4910   48.6540 C   0  0  0  0  0  0  0  0  0  0  0  0
  179.6280   20.7860   47.5050 C   0  0  0  0  0  0  0  0  0  0  0  0
  180.9200   20.2710   47.3880 C   0  0  0  0  0  0  0  0  0  0  0  0
  181.8460   20.4600   48.4150 C   0  0  0  0  0  0  0  0  0  0  0  0
  181.4800   21.1650   49.5590 C   0  0  0  0  0  0  0  0  0  0  0  0
  182.4360   21.3130   50.5260 O   0  0  0  0  0  0  0  0  0  0  0  0
  180.1860   21.6790   49.6780 C   0  0  0  0  0  0  0  0  0  0  0  0
  179.7590   22.4250   50.8630 C   0  0  0  0  0  0  0  0  0  0  0  0
  180.5170   22.6390   51.8050 O   0  0  0  0  0  0  0  0  0  0  0  0
  178.3630   22.9220   50.8940 C   0  0  0  0  0  0  0  0  0  0  0  0
  177.9750   23.6370   52.0120 O   0  0  0  0  0  0  0  0  0  0  0  0
  175.1250   22.2530   49.4150 C   0  0  0  0  0  0  0  0  0  0  0  0
  173.8110   22.7160   49.3090 C   0  0  0  0  0  0  0  0  0  0  0  0
  173.5010   24.0670   49.5260 C   0  0  0  0  0  0  0  0  0  0  0  0
  172.0650   24.5160   49.4200 C   0  0  0  0  0  0  0  0  0  0  0  0
  171.4790   24.1800   48.2350 F   0  0  0  0  0  0  0  0  0  0  0  0
  174.2386   26.6099   51.2036 H   0  0  0  0  0  0  0  0  0  0  0  0
  175.0784   27.0149   49.6682 H   0  0  0  0  0  0  0  0  0  0  0  0
  173.3103   26.6978   49.6682 H   0  0  0  0  0  0  0  0  0  0  0  0
  176.6648   25.1789   50.2183 H   0  0  0  0  0  0  0  0  0  0  0  0
  178.8997   20.6370   46.6942 H   0  0  0  0  0  0  0  0  0  0  0  0
  181.2091   19.7148   46.4841 H   0  0  0  0  0  0  0  0  0  0  0  0
  182.8635   20.0527   48.3210 H   0  0  0  0  0  0  0  0  0  0  0  0
  182.4570   22.0910   51.0480 H   0  0  0  0  0  0  0  0  0  0  0  0
  177.6920   24.5260   51.9240 H   0  0  0  0  0  0  0  0  0  0  0  0
  175.3444   21.1908   49.2315 H   0  0  0  0  0  0  0  0  0  0  0  0
  173.0073   22.0105   49.0515 H   0  0  0  0  0  0  0  0  0  0  0  0
  171.4929   24.0508   50.2363 H   0  0  0  0  0  0  0  0  0  0  0  0
  172.0623   25.6141   49.4841 H   0  0  0  0  0  0  0  0  0  0  0  0
  1  2  1  0
  2  3  2  0
  3  4  1  0
  4  5  1  0
  5  6  1  0
  6  7  1  0
  7  8  2  0
  8  9  1  0
  9 10  2  0
 10 11  1  0
 11 12  1  0
 11 13  2  0
 13 14  1  0
 14 15  2  0
 14 16  1  0
 16 17  1  0
  4 18  2  0
 18 19  1  0
 19 20  2  0
 20 21  1  0
 21 22  1  0
 20  2  1  0
 16  5  2  0
 13  7  1  0
  1 23  1  0
  1 24  1  0
  1 25  1  0
  3 26  1  0
  8 27  1  0
  9 28  1  0
 10 29  1  0
 12 30  1  0
 17 31  1  0
 18 32  1  0
 19 33  1  0
 21 34  1  0
 21 35  1  0
M  END
>  <meeko>  (2) 
{"is_sidechain": [false], "free_energy": -7.375, "intermolecular_energy": -8.751, "internal_energy": -0.147}

$$$$
cand_037_out
     RDKit          3D

 35 37  0  0  0  0  0  0  0  0999 V2000
  179.6500   14.0070   45.0820 C   0  0  0  0  0  0  0  0  0  0  0  0
  180.2110   15.2950   44.5440 C   0  0  0  0  0  0  0  0  0  0  0  0
  180.0650   16.4710   45.3030 C   0  0  0  0  0  0  0  0  0  0  0  0
  180.5640   17.7030   44.8550 C   0  0  0  0  0  0  0  0  0  0  0  0
  180.3700   18.9190   45.6750 C   0  0  0  0  0  0  0  0  0  0  0  0
  181.5260   19.6840   45.7870 O   0  0  0  0  0  0  0  0  0  0  0  0
  181.4860   20.8420   46.5200 C   0  0  0  0  0  0  0  0  0  0  0  0
  182.6720   21.5720   46.6180 C   0  0  0  0  0  0  0  0  0  0  0  0
  182.7000   22.7600   47.3490 C   0  0  0  0  0  0  0  0  0  0  0  0
  181.5430   23.2210   47.9820 C   0  0  0  0  0  0  0  0  0  0  0  0
  180.3610   22.4930   47.8820 C   0  0  0  0  0  0  0  0  0  0  0  0
  179.2660   23.0010   48.5250 O   0  0  0  0  0  0  0  0  0  0  0  0
  180.3340   21.3010   47.1510 C   0  0  0  0  0  0  0  0  0  0  0  0
  179.1120   20.5040   47.0220 C   0  0  0  0  0  0  0  0  0  0  0  0
  178.0540   20.8460   47.5430 O   0  0  0  0  0  0  0  0  0  0  0  0
  179.1910   19.2530   46.2310 C   0  0  0  0  0  0  0  0  0  0  0  0
  178.0290   18.5160   46.1040 O   0  0  0  0  0  0  0  0  0  0  0  0
  181.2000   17.7490   43.6100 C   0  0  0  0  0  0  0  0  0  0  0  0
  181.3430   16.5920   42.8390 C   0  0  0  0  0  0  0  0  0  0  0  0
  180.8440   15.3590   43.2870 C   0  0  0  0  0  0  0  0  0  0  0  0
  181.0390   14.1350   42.4280 C   0  0  0  0  0  0  0  0  0  0  0  0
  181.4160   14.4240   41.1500 F   0  0  0  0  0  0  0  0  0  0  0  0
  179.6614   14.0331   46.1816 H   0  0  0  0  0  0  0  0  0  0  0  0
  178.6158   13.8817   44.7289 H   0  0  0  0  0  0  0  0  0  0  0  0
  180.2626   13.1644   44.7289 H   0  0  0  0  0  0  0  0  0  0  0  0
  179.5465   16.4229   46.2720 H   0  0  0  0  0  0  0  0  0  0  0  0
  183.5835   21.2108   46.1193 H   0  0  0  0  0  0  0  0  0  0  0  0
  183.6347   23.3347   47.4271 H   0  0  0  0  0  0  0  0  0  0  0  0
  181.5662   24.1576   48.5584 H   0  0  0  0  0  0  0  0  0  0  0  0
  179.1720   22.8900   49.4510 H   0  0  0  0  0  0  0  0  0  0  0  0
  178.0750   17.5950   45.9380 H   0  0  0  0  0  0  0  0  0  0  0  0
  181.5916   18.7056   43.2338 H   0  0  0  0  0  0  0  0  0  0  0  0
  181.8542   16.6486   41.8667 H   0  0  0  0  0  0  0  0  0  0  0  0
  181.8168   13.5072   42.8873 H   0  0  0  0  0  0  0  0  0  0  0  0
  180.0684   13.6204   42.3714 H   0  0  0  0  0  0  0  0  0  0  0  0
  1  2  1  0
  2  3  2  0
  3  4  1  0
  4  5  1  0
  5  6  1  0
  6  7  1  0
  7  8  2  0
  8  9  1  0
  9 10  2  0
 10 11  1  0
 11 12  1  0
 11 13  2  0
 13 14  1  0
 14 15  2  0
 14 16  1  0
 16 17  1  0
  4 18  2  0
 18 19  1  0
 19 20  2  0
 20 21  1  0
 21 22  1  0
 20  2  1  0
 16  5  2  0
 13  7  1  0
  1 23  1  0
  1 24  1  0
  1 25  1  0
  3 26  1  0
  8 27  1  0
  9 28  1  0
 10 29  1  0
 12 30  1  0
 17 31  1  0
 18 32  1  0
 19 33  1  0
 21 34  1  0
 21 35  1  0
M  END
>  <meeko>  (3) 
{"is_sidechain": [false], "free_energy": -7.184, "intermolecular_energy": -8.601, "internal_energy": -0.073}

$$$$
cand_037_out
     RDKit          3D

 35 37  0  0  0  0  0  0  0  0999 V2000
  178.5880   20.8330   46.5100 C   0  0  0  0  0  0  0  0  0  0  0  0
  177.4250   20.6660   47.4500 C   0  0  0  0  0  0  0  0  0  0  0  0
  177.2270   21.6190   48.4660 C   0  0  0  0  0  0  0  0  0  0  0  0
  176.1640   21.5170   49.3750 C   0  0  0  0  0  0  0  0  0  0  0  0
  176.0050   22.5300   50.4410 C   0  0  0  0  0  0  0  0  0  0  0  0
  175.4540   23.7190   49.9780 O   0  0  0  0  0  0  0  0  0  0  0  0
  175.2510   24.7450   50.8650 C   0  0  0  0  0  0  0  0  0  0  0  0
  174.7080   25.9260   50.3540 C   0  0  0  0  0  0  0  0  0  0  0  0
  174.4750   27.0090   51.2040 C   0  0  0  0  0  0  0  0  0  0  0  0
  174.7820   26.9130   52.5620 C   0  0  0  0  0  0  0  0  0  0  0  0
  175.3220   25.7340   53.0700 C   0  0  0  0  0  0  0  0  0  0  0  0
  175.5990   25.7070   54.4090 O   0  0  0  0  0  0  0  0  0  0  0  0
  175.5570   24.6500   52.2190 C   0  0  0  0  0  0  0  0  0  0  0  0
  176.1240   23.3930   52.7110 C   0  0  0  0  0  0  0  0  0  0  0  0
  176.4140   23.2280   53.8930 O   0  0  0  0  0  0  0  0  0  0  0  0
  176.3410   22.3080   51.7260 C   0  0  0  0  0  0  0  0  0  0  0  0
  176.8630   21.1200   52.2030 O   0  0  0  0  0  0  0  0  0  0  0  0
  175.3010   20.4220   49.2670 C   0  0  0  0  0  0  0  0  0  0  0  0
  175.4890   19.4610   48.2700 C   0  0  0  0  0  0  0  0  0  0  0  0
  176.5540   19.5620   47.3610 C   0  0  0  0  0  0  0  0  0  0  0  0
  176.7050   18.5100   46.2910 C   0  0  0  0  0  0  0  0  0  0  0  0
  175.7290   17.5590   46.3240 F   0  0  0  0  0  0  0  0  0  0  0  0
  179.5127   20.9658   47.0907 H   0  0  0  0  0  0  0  0  0  0  0  0
  178.6784   19.9386   45.8760 H   0  0  0  0  0  0  0  0  0  0  0  0
  178.4231   21.7167   45.8760 H   0  0  0  0  0  0  0  0  0  0  0  0
  177.9240   22.4659   48.5495 H   0  0  0  0  0  0  0  0  0  0  0  0
  174.4644   26.0028   49.2841 H   0  0  0  0  0  0  0  0  0  0  0  0
  174.0485   27.9400   50.8023 H   0  0  0  0  0  0  0  0  0  0  0  0
  174.5977   27.7672   53.2301 H   0  0  0  0  0  0  0  0  0  0  0  0
  174.9000   25.6600   55.0310 H   0  0  0  0  0  0  0  0  0  0  0  0
  177.2630   20.5130   51.6120 H   0  0  0  0  0  0  0  0  0  0  0  0
  174.4653   20.3160   49.9743 H   0  0  0  0  0  0  0  0  0  0  0  0
  174.7923   18.6130   48.1964 H   0  0  0  0  0  0  0  0  0  0  0  0
  176.6762   19.0050   45.3091 H   0  0  0  0  0  0  0  0  0  0  0  0
  177.6621   17.9988   46.4716 H   0  0  0  0  0  0  0  0  0  0  0  0
  1  2  1  0
  2  3  2  0
  3  4  1  0
  4  5  1  0
  5  6  1  0
  6  7  1  0
  7  8  2  0
  8  9  1  0
  9 10  2  0
 10 11  1  0
 11 12  1  0
 11 13  2  0
 13 14  1  0
 14 15  2  0
 14 16  1  0
 16 17  1  0
  4 18  2  0
 18 19  1  0
 19 20  2  0
 20 21  1  0
 21 22  1  0
 20  2  1  0
 16  5  2  0
 13  7  1  0
  1 23  1  0
  1 24  1  0
  1 25  1  0
  3 26  1  0
  8 27  1  0
  9 28  1  0
 10 29  1  0
 12 30  1  0
 17 31  1  0
 18 32  1  0
 19 33  1  0
 21 34  1  0
 21 35  1  0
M  END
>  <meeko>  (4) 
{"is_sidechain": [false], "free_energy": -7.183, "intermolecular_energy": -8.309, "internal_energy": -0.363}

$$$$
cand_037_out
     RDKit          3D

 35 37  0  0  0  0  0  0  0  0999 V2000
  182.8320   25.2920   47.3250 C   0  0  0  0  0  0  0  0  0  0  0  0
  182.5770   23.9270   47.9020 C   0  0  0  0  0  0  0  0  0  0  0  0
  181.2530   23.5420   48.1840 C   0  0  0  0  0  0  0  0  0  0  0  0
  180.9510   22.2840   48.7250 C   0  0  0  0  0  0  0  0  0  0  0  0
  179.5470   21.9280   49.0250 C   0  0  0  0  0  0  0  0  0  0  0  0
  178.8130   21.6180   47.8860 O   0  0  0  0  0  0  0  0  0  0  0  0
  177.4940   21.2690   48.0210 C   0  0  0  0  0  0  0  0  0  0  0  0
  176.7910   20.9800   46.8500 C   0  0  0  0  0  0  0  0  0  0  0  0
  175.4450   20.6160   46.9180 C   0  0  0  0  0  0  0  0  0  0  0  0
  174.8020   20.5400   48.1550 C   0  0  0  0  0  0  0  0  0  0  0  0
  175.5050   20.8270   49.3220 C   0  0  0  0  0  0  0  0  0  0  0  0
  174.8140   20.7320   50.4990 O   0  0  0  0  0  0  0  0  0  0  0  0
  176.8520   21.1930   49.2540 C   0  0  0  0  0  0  0  0  0  0  0  0
  177.6280   21.5040   50.4560 C   0  0  0  0  0  0  0  0  0  0  0  0
  177.1350   21.4520   51.5800 O   0  0  0  0  0  0  0  0  0  0  0  0
  179.0470   21.8880   50.2750 C   0  0  0  0  0  0  0  0  0  0  0  0
  179.7740   22.1660   51.4170 O   0  0  0  0  0  0  0  0  0  0  0  0
  182.0070   21.4110   49.0060 C   0  0  0  0  0  0  0  0  0  0  0  0
  183.3280   21.7820   48.7420 C   0  0  0  0  0  0  0  0  0  0  0  0
  183.6310   23.0410   48.2010 C   0  0  0  0  0  0  0  0  0  0  0  0
  185.0710   23.3890   47.9170 C   0  0  0  0  0  0  0  0  0  0  0  0
  185.3970   23.3040   46.5960 F   0  0  0  0  0  0  0  0  0  0  0  0
  182.9673   26.0160   48.1420 H   0  0  0  0  0  0  0  0  0  0  0  0
  183.7405   25.2643   46.7055 H   0  0  0  0  0  0  0  0  0  0  0  0
  181.9748   25.5942   46.7055 H   0  0  0  0  0  0  0  0  0  0  0  0
  180.4341   24.2459   47.9747 H   0  0  0  0  0  0  0  0  0  0  0  0
  177.2970   21.0390   45.8751 H   0  0  0  0  0  0  0  0  0  0  0  0
  174.8902   20.3887   45.9957 H   0  0  0  0  0  0  0  0  0  0  0  0
  173.7412   20.2537   48.2075 H   0  0  0  0  0  0  0  0  0  0  0  0
  173.9200   20.4510   50.4960 H   0  0  0  0  0  0  0  0  0  0  0  0
  179.3340   22.4450   52.1960 H   0  0  0  0  0  0  0  0  0  0  0  0
  181.7954   20.4223   49.4392 H   0  0  0  0  0  0  0  0  0  0  0  0
  184.1429   21.0765   48.9616 H   0  0  0  0  0  0  0  0  0  0  0  0
  185.2544   24.4193   48.2560 H   0  0  0  0  0  0  0  0  0  0  0  0
  185.6941   22.6583   48.4535 H   0  0  0  0  0  0  0  0  0  0  0  0
  1  2  1  0
  2  3  2  0
  3  4  1  0
  4  5  1  0
  5  6  1  0
  6  7  1  0
  7  8  2  0
  8  9  1  0
  9 10  2  0
 10 11  1  0
 11 12  1  0
 11 13  2  0
 13 14  1  0
 14 15  2  0
 14 16  1  0
 16 17  1  0
  4 18  2  0
 18 19  1  0
 19 20  2  0
 20 21  1  0
 21 22  1  0
 20  2  1  0
 16  5  2  0
 13  7  1  0
  1 23  1  0
  1 24  1  0
  1 25  1  0
  3 26  1  0
  8 27  1  0
  9 28  1  0
 10 29  1  0
 12 30  1  0
 17 31  1  0
 18 32  1  0
 19 33  1  0
 21 34  1  0
 21 35  1  0
M  END
>  <meeko>  (5) 
{"is_sidechain": [false], "free_energy": -7.09, "intermolecular_energy": -8.174, "internal_energy": -0.389}

$$$$
cand_037_out
     RDKit          3D

 35 37  0  0  0  0  0  0  0  0999 V2000
  177.9680   23.7530   47.3510 C   0  0  0  0  0  0  0  0  0  0  0  0
  177.0370   22.7820   48.0250 C   0  0  0  0  0  0  0  0  0  0  0  0
  176.1750   23.2510   49.0330 C   0  0  0  0  0  0  0  0  0  0  0  0
  175.2870   22.3950   49.7010 C   0  0  0  0  0  0  0  0  0  0  0  0
  174.4130   22.9260   50.7690 C   0  0  0  0  0  0  0  0  0  0  0  0
  175.1200   23.3210   51.8990 O   0  0  0  0  0  0  0  0  0  0  0  0
  174.4310   23.8350   52.9670 C   0  0  0  0  0  0  0  0  0  0  0  0
  175.1790   24.2050   54.0860 C   0  0  0  0  0  0  0  0  0  0  0  0
  174.5380   24.7360   55.2060 C   0  0  0  0  0  0  0  0  0  0  0  0
  173.1520   24.8990   55.2100 C   0  0  0  0  0  0  0  0  0  0  0  0
  172.4070   24.5300   54.0920 C   0  0  0  0  0  0  0  0  0  0  0  0
  171.0540   24.7170   54.1620 O   0  0  0  0  0  0  0  0  0  0  0  0
  173.0480   23.9970   52.9710 C   0  0  0  0  0  0  0  0  0  0  0  0
  172.3040   23.5960   51.7760 C   0  0  0  0  0  0  0  0  0  0  0  0
  171.0840   23.7140   51.6990 O   0  0  0  0  0  0  0  0  0  0  0  0
  173.0770   23.0340   50.6430 C   0  0  0  0  0  0  0  0  0  0  0  0
  172.3660   22.6720   49.5140 O   0  0  0  0  0  0  0  0  0  0  0  0
  175.2880   21.0390   49.3580 C   0  0  0  0  0  0  0  0  0  0  0  0
  176.1450   20.5540   48.3660 C   0  0  0  0  0  0  0  0  0  0  0  0
  177.0350   21.4110   47.6980 C   0  0  0  0  0  0  0  0  0  0  0  0
  177.9270   20.8450   46.6230 C   0  0  0  0  0  0  0  0  0  0  0  0
  177.2540   20.4900   45.4910 F   0  0  0  0  0  0  0  0  0  0  0  0
  178.5164   24.3250   48.1140 H   0  0  0  0  0  0  0  0  0  0  0  0
  178.6824   23.2004   46.7231 H   0  0  0  0  0  0  0  0  0  0  0  0
  177.3858   24.4436   46.7231 H   0  0  0  0  0  0  0  0  0  0  0  0
  176.1980   24.3167   49.3044 H   0  0  0  0  0  0  0  0  0  0  0  0
  176.2717   24.0782   54.0849 H   0  0  0  0  0  0  0  0  0  0  0  0
  175.1269   25.0270   56.0883 H   0  0  0  0  0  0  0  0  0  0  0  0
  172.6488   25.3179   56.0939 H   0  0  0  0  0  0  0  0  0  0  0  0
  170.7070   25.4860   54.5690 H   0  0  0  0  0  0  0  0  0  0  0  0
  172.6330   22.9840   48.6720 H   0  0  0  0  0  0  0  0  0  0  0  0
  174.6069   20.3467   49.8746 H   0  0  0  0  0  0  0  0  0  0  0  0
  176.1221   19.4857   48.1047 H   0  0  0  0  0  0  0  0  0  0  0  0
  178.6783   21.6036   46.3584 H   0  0  0  0  0  0  0  0  0  0  0  0
  178.3840   19.9305   47.0289 H   0  0  0  0  0  0  0  0  0  0  0  0
  1  2  1  0
  2  3  2  0
  3  4  1  0
  4  5  1  0
  5  6  1  0
  6  7  1  0
  7  8  2  0
  8  9  1  0
  9 10  2  0
 10 11  1  0
 11 12  1  0
 11 13  2  0
 13 14  1  0
 14 15  2  0
 14 16  1  0
 16 17  1  0
  4 18  2  0
 18 19  1  0
 19 20  2  0
 20 21  1  0
 21 22  1  0
 20  2  1  0
 16  5  2  0
 13  7  1  0
  1 23  1  0
  1 24  1  0
  1 25  1  0
  3 26  1  0
  8 27  1  0
  9 28  1  0
 10 29  1  0
 12 30  1  0
 17 31  1  0
 18 32  1  0
 19 33  1  0
 21 34  1  0
 21 35  1  0
M  END
>  <meeko>  (6) 
{"is_sidechain": [false], "free_energy": -7.063, "intermolecular_energy": -8.159, "internal_energy": -0.371}

$$$$
cand_037_out
     RDKit          3D

 35 37  0  0  0  0  0  0  0  0999 V2000
  179.0020   19.3590   46.2840 C   0  0  0  0  0  0  0  0  0  0  0  0
  179.2860   20.5800   47.1160 C   0  0  0  0  0  0  0  0  0  0  0  0
  178.3420   20.9830   48.0790 C   0  0  0  0  0  0  0  0  0  0  0  0
  178.5470   22.1130   48.8840 C   0  0  0  0  0  0  0  0  0  0  0  0
  177.5200   22.5120   49.8700 C   0  0  0  0  0  0  0  0  0  0  0  0
  176.3990   23.0860   49.2800 O   0  0  0  0  0  0  0  0  0  0  0  0
  175.3670   23.5020   50.0810 C   0  0  0  0  0  0  0  0  0  0  0  0
  174.2680   24.0850   49.4480 C   0  0  0  0  0  0  0  0  0  0  0  0
  173.1830   24.5290   50.2060 C   0  0  0  0  0  0  0  0  0  0  0  0
  173.1940   24.3890   51.5950 C   0  0  0  0  0  0  0  0  0  0  0  0
  174.2900   23.8050   52.2240 C   0  0  0  0  0  0  0  0  0  0  0  0
  174.2360   23.6990   53.5870 O   0  0  0  0  0  0  0  0  0  0  0  0
  175.3780   23.3630   51.4660 C   0  0  0  0  0  0  0  0  0  0  0  0
  176.5510   22.7450   52.0870 C   0  0  0  0  0  0  0  0  0  0  0  0
  176.6330   22.5800   53.3020 O   0  0  0  0  0  0  0  0  0  0  0  0
  177.6530   22.3170   51.1950 C   0  0  0  0  0  0  0  0  0  0  0  0
  178.7500   21.7220   51.7910 O   0  0  0  0  0  0  0  0  0  0  0  0
  179.7140   22.8600   48.6950 C   0  0  0  0  0  0  0  0  0  0  0  0
  180.6560   22.4800   47.7350 C   0  0  0  0  0  0  0  0  0  0  0  0
  180.4520   21.3490   46.9290 C   0  0  0  0  0  0  0  0  0  0  0  0
  181.5060   20.9680   45.9200 C   0  0  0  0  0  0  0  0  0  0  0  0
  182.7120   21.5630   46.1460 F   0  0  0  0  0  0  0  0  0  0  0  0
  178.8029   18.5029   46.9453 H   0  0  0  0  0  0  0  0  0  0  0  0
  178.1230   19.5442   45.6492 H   0  0  0  0  0  0  0  0  0  0  0  0
  179.8725   19.1373   45.6492 H   0  0  0  0  0  0  0  0  0  0  0  0
  177.4197   20.3966   48.2035 H   0  0  0  0  0  0  0  0  0  0  0  0
  174.2569   24.1944   48.3535 H   0  0  0  0  0  0  0  0  0  0  0  0
  172.3175   24.9902   49.7077 H   0  0  0  0  0  0  0  0  0  0  0  0
  172.3385   24.7394   52.1911 H   0  0  0  0  0  0  0  0  0  0  0  0
  174.7430   24.2760   54.1230 H   0  0  0  0  0  0  0  0  0  0  0  0
  179.5680   22.1770   51.8260 H   0  0  0  0  0  0  0  0  0  0  0  0
  179.8924   23.7557   49.3081 H   0  0  0  0  0  0  0  0  0  0  0  0
  181.5716   23.0765   47.6091 H   0  0  0  0  0  0  0  0  0  0  0  0
  181.6434   19.8772   45.9543 H   0  0  0  0  0  0  0  0  0  0  0  0
  181.1534   21.3118   44.9364 H   0  0  0  0  0  0  0  0  0  0  0  0
  1  2  1  0
  2  3  2  0
  3  4  1  0
  4  5  1  0
  5  6  1  0
  6  7  1  0
  7  8  2  0
  8  9  1  0
  9 10  2  0
 10 11  1  0
 11 12  1  0
 11 13  2  0
 13 14  1  0
 14 15  2  0
 14 16  1  0
 16 17  1  0
  4 18  2  0
 18 19  1  0
 19 20  2  0
 20 21  1  0
 21 22  1  0
 20  2  1  0
 16  5  2  0
 13  7  1  0
  1 23  1  0
  1 24  1  0
  1 25  1  0
  3 26  1  0
  8 27  1  0
  9 28  1  0
 10 29  1  0
 12 30  1  0
 17 31  1  0
 18 32  1  0
 19 33  1  0
 21 34  1  0
 21 35  1  0
M  END
>  <meeko>  (7) 
{"is_sidechain": [false], "free_energy": -7.048, "intermolecular_energy": -8.137, "internal_energy": -0.377}

$$$$
cand_037_out
     RDKit          3D

 35 37  0  0  0  0  0  0  0  0999 V2000
  179.6710   18.5960   45.8380 C   0  0  0  0  0  0  0  0  0  0  0  0
  179.6510   19.9480   46.4970 C   0  0  0  0  0  0  0  0  0  0  0  0
  180.8470   20.4670   47.0250 C   0  0  0  0  0  0  0  0  0  0  0  0
  180.8920   21.7200   47.6540 C   0  0  0  0  0  0  0  0  0  0  0  0
  182.1670   22.2190   48.2130 C   0  0  0  0  0  0  0  0  0  0  0  0
  182.8500   23.0550   47.3370 O   0  0  0  0  0  0  0  0  0  0  0  0
  184.0500   23.5910   47.7300 C   0  0  0  0  0  0  0  0  0  0  0  0
  184.7080   24.4140   46.8140 C   0  0  0  0  0  0  0  0  0  0  0  0
  185.9320   24.9910   47.1520 C   0  0  0  0  0  0  0  0  0  0  0  0
  186.5000   24.7490   48.4050 C   0  0  0  0  0  0  0  0  0  0  0  0
  185.8420   23.9290   49.3180 C   0  0  0  0  0  0  0  0  0  0  0  0
  186.4530   23.7340   50.5260 O   0  0  0  0  0  0  0  0  0  0  0  0
  184.6160   23.3490   48.9780 C   0  0  0  0  0  0  0  0  0  0  0  0
  183.8910   22.4800   49.9070 C   0  0  0  0  0  0  0  0  0  0  0  0
  184.3210   22.2250   51.0290 O   0  0  0  0  0  0  0  0  0  0  0  0
  182.6030   21.9090   49.4480 C   0  0  0  0  0  0  0  0  0  0  0  0
  181.9200   21.1020   50.3390 O   0  0  0  0  0  0  0  0  0  0  0  0
  179.7040   22.4470   47.7710 C   0  0  0  0  0  0  0  0  0  0  0  0
  178.5040   21.9410   47.2630 C   0  0  0  0  0  0  0  0  0  0  0  0
  178.4590   20.6870   46.6330 C   0  0  0  0  0  0  0  0  0  0  0  0
  177.1450   20.1910   46.0840 C   0  0  0  0  0  0  0  0  0  0  0  0
  176.1420   21.1100   46.1660 F   0  0  0  0  0  0  0  0  0  0  0  0
  179.6826   17.8121   46.6096 H   0  0  0  0  0  0  0  0  0  0  0  0
  178.7745   18.4803   45.2112 H   0  0  0  0  0  0  0  0  0  0  0  0
  180.5706   18.5069   45.2112 H   0  0  0  0  0  0  0  0  0  0  0  0
  181.7706   19.8752   46.9426 H   0  0  0  0  0  0  0  0  0  0  0  0
  184.2618   24.6071   45.8273 H   0  0  0  0  0  0  0  0  0  0  0  0
  186.4514   25.6383   46.4300 H   0  0  0  0  0  0  0  0  0  0  0  0
  187.4652   25.2053   48.6700 H   0  0  0  0  0  0  0  0  0  0  0  0
  185.9410   23.7030   51.3100 H   0  0  0  0  0  0  0  0  0  0  0  0
  182.3840   20.6700   51.0290 H   0  0  0  0  0  0  0  0  0  0  0  0
  179.7134   23.4281   48.2683 H   0  0  0  0  0  0  0  0  0  0  0  0
  177.5821   22.5335   47.3581 H   0  0  0  0  0  0  0  0  0  0  0  0
  177.2876   19.9241   45.0264 H   0  0  0  0  0  0  0  0  0  0  0  0
  176.8439   19.3268   46.6943 H   0  0  0  0  0  0  0  0  0  0  0  0
  1  2  1  0
  2  3  2  0
  3  4  1  0
  4  5  1  0
  5  6  1  0
  6  7  1  0
  7  8  2  0
  8  9  1  0
  9 10  2  0
 10 11  1  0
 11 12  1  0
 11 13  2  0
 13 14  1  0
 14 15  2  0
 14 16  1  0
 16 17  1  0
  4 18  2  0
 18 19  1  0
 19 20  2  0
 20 21  1  0
 21 22  1  0
 20  2  1  0
 16  5  2  0
 13  7  1  0
  1 23  1  0
  1 24  1  0
  1 25  1  0
  3 26  1  0
  8 27  1  0
  9 28  1  0
 10 29  1  0
 12 30  1  0
 17 31  1  0
 18 32  1  0
 19 33  1  0
 21 34  1  0
 21 35  1  0
M  END
>  <meeko>  (8) 
{"is_sidechain": [false], "free_energy": -6.869, "intermolecular_energy": -7.903, "internal_energy": -0.4}

$$$$
cand_037_out
     RDKit          3D

 35 37  0  0  0  0  0  0  0  0999 V2000
  174.5000   27.1640   50.2710 C   0  0  0  0  0  0  0  0  0  0  0  0
  175.1650   25.9160   50.7830 C   0  0  0  0  0  0  0  0  0  0  0  0
  175.3510   24.8330   49.9030 C   0  0  0  0  0  0  0  0  0  0  0  0
  175.9620   23.6410   50.3210 C   0  0  0  0  0  0  0  0  0  0  0  0
  176.1200   22.5210   49.3690 C   0  0  0  0  0  0  0  0  0  0  0  0
  177.4330   22.3510   48.9470 O   0  0  0  0  0  0  0  0  0  0  0  0
  177.7210   21.3440   48.0620 C   0  0  0  0  0  0  0  0  0  0  0  0
  179.0510   21.2190   47.6540 C   0  0  0  0  0  0  0  0  0  0  0  0
  179.4110   20.2140   46.7550 C   0  0  0  0  0  0  0  0  0  0  0  0
  178.4450   19.3330   46.2640 C   0  0  0  0  0  0  0  0  0  0  0  0
  177.1200   19.4590   46.6730 C   0  0  0  0  0  0  0  0  0  0  0  0
  176.2250   18.5630   46.1540 O   0  0  0  0  0  0  0  0  0  0  0  0
  176.7580   20.4660   47.5720 C   0  0  0  0  0  0  0  0  0  0  0  0
  175.3770   20.6340   48.0270 C   0  0  0  0  0  0  0  0  0  0  0  0
  174.4720   19.8960   47.6460 O   0  0  0  0  0  0  0  0  0  0  0  0
  175.0980   21.7380   48.9750 C   0  0  0  0  0  0  0  0  0  0  0  0
  173.7920   21.8790   49.4090 O   0  0  0  0  0  0  0  0  0  0  0  0
  176.3700   23.5360   51.6540 C   0  0  0  0  0  0  0  0  0  0  0  0
  176.1820   24.5980   52.5440 C   0  0  0  0  0  0  0  0  0  0  0  0
  175.5700   25.7900   52.1270 C   0  0  0  0  0  0  0  0  0  0  0  0
  175.4070   26.9150   53.1170 C   0  0  0  0  0  0  0  0  0  0  0  0
  175.0750   26.4900   54.3700 F   0  0  0  0  0  0  0  0  0  0  0  0
  174.1718   27.7799   51.1213 H   0  0  0  0  0  0  0  0  0  0  0  0
  175.2135   27.7348   49.6586 H   0  0  0  0  0  0  0  0  0  0  0  0
  173.6282   26.8901   49.6586 H   0  0  0  0  0  0  0  0  0  0  0  0
  175.0087   24.9235   48.8615 H   0  0  0  0  0  0  0  0  0  0  0  0
  179.8133   21.9114   48.0406 H   0  0  0  0  0  0  0  0  0  0  0  0
  180.4580   20.1156   46.4324 H   0  0  0  0  0  0  0  0  0  0  0  0
  178.7303   18.5412   45.5557 H   0  0  0  0  0  0  0  0  0  0  0  0
  175.4300   18.8680   45.7650 H   0  0  0  0  0  0  0  0  0  0  0  0
  173.5990   21.8550   50.3250 H   0  0  0  0  0  0  0  0  0  0  0  0
  176.8440   22.6080   52.0065 H   0  0  0  0  0  0  0  0  0  0  0  0
  176.5188   24.4976   53.5863 H   0  0  0  0  0  0  0  0  0  0  0  0
  176.3563   27.4676   53.1763 H   0  0  0  0  0  0  0  0  0  0  0  0
  174.5804   27.5460   52.7584 H   0  0  0  0  0  0  0  0  0  0  0  0
  1  2  1  0
  2  3  2  0
  3  4  1  0
  4  5  1  0
  5  6  1  0
  6  7  1  0
  7  8  2  0
  8  9  1  0
  9 10  2  0
 10 11  1  0
 11 12  1  0
 11 13  2  0
 13 14  1  0
 14 15  2  0
 14 16  1  0
 16 17  1  0
  4 18  2  0
 18 19  1  0
 19 20  2  0
 20 21  1  0
 21 22  1  0
 20  2  1  0
 16  5  2  0
 13  7  1  0
  1 23  1  0
  1 24  1  0
  1 25  1  0
  3 26  1  0
  8 27  1  0
  9 28  1  0
 10 29  1  0
 12 30  1  0
 17 31  1  0
 18 32  1  0
 19 33  1  0
 21 34  1  0
 21 35  1  0
M  END
>  <meeko>  (9) 
{"is_sidechain": [false], "free_energy": -6.828, "intermolecular_energy": -7.895, "internal_energy": -0.36}

$$$$
