cand_006_out
     RDKit          3D

 47 50  0  0  0  0  0  0  0  0999 V2000
  183.1610   18.4340   43.9780 C   0  0  0  0  0  0  0  0  0  0  0  0
  181.8980   18.8820   44.6620 C   0  0  0  0  0  0  0  0  0  0  0  0
  181.7950   20.1950   45.1410 C   0  0  0  0  0  0  0  0  0  0  0  0
  180.6310   20.6310   45.7750 C   0  0  0  0  0  0  0  0  0  0  0  0
  179.5410   19.7690   45.9400 C   0  0  0  0  0  0  0  0  0  0  0  0
  178.3260   20.2430   46.6370 C   0  0  0  0  0  0  0  0  0  0  0  0
  178.4710   21.5220   47.1650 O   0  0  0  0  0  0  0  0  0  0  0  0
  177.4170   22.0850   47.8380 C   0  0  0  0  0  0  0  0  0  0  0  0
  177.6120   23.3640   48.3640 C   0  0  0  0  0  0  0  0  0  0  0  0
  176.5790   23.9950   49.0600 C   0  0  0  0  0  0  0  0  0  0  0  0
  175.3520   23.3500   49.2290 C   0  0  0  0  0  0  0  0  0  0  0  0
  175.1600   22.0750   48.7030 C   0  0  0  0  0  0  0  0  0  0  0  0
  173.9350   21.5020   48.9050 O   0  0  0  0  0  0  0  0  0  0  0  0
  176.1950   21.4420   48.0080 C   0  0  0  0  0  0  0  0  0  0  0  0
  176.0350   20.1030   47.4390 C   0  0  0  0  0  0  0  0  0  0  0  0
  174.9840   19.4740   47.5400 O   0  0  0  0  0  0  0  0  0  0  0  0
  177.1960   19.5190   46.7270 C   0  0  0  0  0  0  0  0  0  0  0  0
  177.0280   18.2580   46.1840 O   0  0  0  0  0  0  0  0  0  0  0  0
  179.6530   18.4530   45.4700 C   0  0  0  0  0  0  0  0  0  0  0  0
  180.8170   17.9940   44.8260 C   0  0  0  0  0  0  0  0  0  0  0  0
  180.9330   16.6720   44.3360 N   0  0  0  0  0  0  0  0  0  0  0  0
  180.8270   16.6120   42.8680 C   0  0  0  0  0  0  0  0  0  0  0  0
  181.1920   15.2030   42.4000 C   0  0  0  0  0  0  0  0  0  0  0  0
  180.3250   14.1500   43.0910 C   0  0  0  0  0  0  0  0  0  0  0  0
  180.3830   14.3070   44.6100 C   0  0  0  0  0  0  0  0  0  0  0  0
  180.0360   15.7360   45.0310 C   0  0  0  0  0  0  0  0  0  0  0  0
  183.9131   18.1672   44.7350 H   0  0  0  0  0  0  0  0  0  0  0  0
  182.9464   17.5572   43.3494 H   0  0  0  0  0  0  0  0  0  0  0  0
  183.5469   19.2501   43.3494 H   0  0  0  0  0  0  0  0  0  0  0  0
  182.6397   20.8884   45.0160 H   0  0  0  0  0  0  0  0  0  0  0  0
  180.5695   21.6636   46.1492 H   0  0  0  0  0  0  0  0  0  0  0  0
  178.5777   23.8734   48.2302 H   0  0  0  0  0  0  0  0  0  0  0  0
  176.7320   25.0018   49.4759 H   0  0  0  0  0  0  0  0  0  0  0  0
  174.5385   23.8483   49.7767 H   0  0  0  0  0  0  0  0  0  0  0  0
  173.8130   20.5880   48.7410 H   0  0  0  0  0  0  0  0  0  0  0  0
  177.6330   17.5740   46.3920 H   0  0  0  0  0  0  0  0  0  0  0  0
  178.8090   17.7612   45.6082 H   0  0  0  0  0  0  0  0  0  0  0  0
  179.7966   16.8467   42.5627 H   0  0  0  0  0  0  0  0  0  0  0  0
  181.5129   17.3433   42.4156 H   0  0  0  0  0  0  0  0  0  0  0  0
  181.0405   15.1354   41.3126 H   0  0  0  0  0  0  0  0  0  0  0  0
  182.2443   15.0118   42.6571 H   0  0  0  0  0  0  0  0  0  0  0  0
  179.2834   14.2652   42.7566 H   0  0  0  0  0  0  0  0  0  0  0  0
  180.7056   13.1525   42.8260 H   0  0  0  0  0  0  0  0  0  0  0  0
  179.6647   13.6127   45.0704 H   0  0  0  0  0  0  0  0  0  0  0  0
  181.4067   14.0836   44.9449 H   0  0  0  0  0  0  0  0  0  0  0  0
  178.9926   15.9566   44.7616 H   0  0  0  0  0  0  0  0  0  0  0  0
  180.1587   15.8427   46.1189 H   0  0  0  0  0  0  0  0  0  0  0  0
  1  2  1  0
  2  3  2  0
  3  4  1  0
  4  5  2  0
  5  6  1  0
  6  7  1  0
  7  8  1  0
  8  9  2  0
  9 10  1  0
 10 11  2  0
 11 12  1  0
 12 13  1  0
 12 14  2  0
 14 15  1  0
 15 16  2  0
 15 17  1  0
 17 18  1  0
  5 19  1  0
 19 20  2  0
 20 21  1  0
 21 22  1  0
 22 23  1  0
 23 24  1  0
 24 25  1  0
 25 26  1  0
 20  2  1  0
 26 21  1  0
 17  6  2  0
 14  8  1  0
  1 27  1  0
  1 28  1  0
  1 29  1  0
  3 30  1  0
  4 31  1  0
  9 32  1  0
 10 33  1  0
 11 34  1  0
 13 35  1  0
 18 36  1  0
 19 37  1  0
 22 38  1  0
 22 39  1  0
 23 40  1  0
 23 41  1  0
 24 42  1  0
 24 43  1  0
 25 44  1  0
 25 45  1  0
 26 46  1  0
 26 47  1  0
M  END
>  <meeko>  (1) 
{"is_sidechain": [false], "free_energy": -7.406, "intermolecular_energy": -8.705, "internal_energy": 0.205}

$$$$
cand_006_out
     RDKit          3D

 47 50  0  0  0  0  0  0  0  0999 V2000
  179.8460   21.8160   48.0020 C   0  0  0  0  0  0  0  0  0  0  0  0
  179.9990   20.6620   47.0490 C   0  0  0  0  0  0  0  0  0  0  0  0
  181.2520   20.3890   46.4830 C   0  0  0  0  0  0  0  0  0  0  0  0
  181.4160   19.3220   45.5990 C   0  0  0  0  0  0  0  0  0  0  0  0
  180.3350   18.4980   45.2650 C   0  0  0  0  0  0  0  0  0  0  0  0
  180.5250   17.3880   44.3080 C   0  0  0  0  0  0  0  0  0  0  0  0
  180.8340   17.8270   43.0250 O   0  0  0  0  0  0  0  0  0  0  0  0
  181.0370   16.8990   42.0360 C   0  0  0  0  0  0  0  0  0  0  0  0
  181.3300   17.3850   40.7610 C   0  0  0  0  0  0  0  0  0  0  0  0
  181.5490   16.4940   39.7090 C   0  0  0  0  0  0  0  0  0  0  0  0
  181.4760   15.1170   39.9320 C   0  0  0  0  0  0  0  0  0  0  0  0
  181.1840   14.6340   41.2040 C   0  0  0  0  0  0  0  0  0  0  0  0
  181.1290   13.2760   41.3520 O   0  0  0  0  0  0  0  0  0  0  0  0
  180.9630   15.5280   42.2570 C   0  0  0  0  0  0  0  0  0  0  0  0
  180.6540   15.0620   43.6090 C   0  0  0  0  0  0  0  0  0  0  0  0
  180.5790   13.8660   43.8860 O   0  0  0  0  0  0  0  0  0  0  0  0
  180.4300   16.0900   44.6530 C   0  0  0  0  0  0  0  0  0  0  0  0
  180.1510   15.6380   45.9300 O   0  0  0  0  0  0  0  0  0  0  0  0
  179.0810   18.7810   45.8250 C   0  0  0  0  0  0  0  0  0  0  0  0
  178.8950   19.8510   46.7200 C   0  0  0  0  0  0  0  0  0  0  0  0
  177.6370   20.1360   47.3000 N   0  0  0  0  0  0  0  0  0  0  0  0
  176.7580   18.9550   47.3270 C   0  0  0  0  0  0  0  0  0  0  0  0
  175.5210   19.2740   48.1670 C   0  0  0  0  0  0  0  0  0  0  0  0
  174.8060   20.5210   47.6470 C   0  0  0  0  0  0  0  0  0  0  0  0
  175.7740   21.6990   47.5390 C   0  0  0  0  0  0  0  0  0  0  0  0
  177.0060   21.3280   46.7120 C   0  0  0  0  0  0  0  0  0  0  0  0
  179.8950   21.4460   49.0367 H   0  0  0  0  0  0  0  0  0  0  0  0
  180.6559   22.5409   47.8330 H   0  0  0  0  0  0  0  0  0  0  0  0
  178.8752   22.3048   47.8330 H   0  0  0  0  0  0  0  0  0  0  0  0
  182.1145   21.0222   46.7383 H   0  0  0  0  0  0  0  0  0  0  0  0
  182.4054   19.1263   45.1599 H   0  0  0  0  0  0  0  0  0  0  0  0
  181.3883   18.4693   40.5852 H   0  0  0  0  0  0  0  0  0  0  0  0
  181.7792   16.8765   38.7037 H   0  0  0  0  0  0  0  0  0  0  0  0
  181.6492   14.4151   39.1029 H   0  0  0  0  0  0  0  0  0  0  0  0
  180.5800   12.7660   40.7910 H   0  0  0  0  0  0  0  0  0  0  0  0
  179.8620   16.2400   46.5870 H   0  0  0  0  0  0  0  0  0  0  0  0
  178.2203   18.1503   45.5578 H   0  0  0  0  0  0  0  0  0  0  0  0
  176.4518   18.6997   46.3018 H   0  0  0  0  0  0  0  0  0  0  0  0
  177.2955   18.1017   47.7663 H   0  0  0  0  0  0  0  0  0  0  0  0
  174.8290   18.4200   48.1252 H   0  0  0  0  0  0  0  0  0  0  0  0
  175.8421   19.4628   49.2020 H   0  0  0  0  0  0  0  0  0  0  0  0
  174.3862   20.3074   46.6529 H   0  0  0  0  0  0  0  0  0  0  0  0
  174.0054   20.7873   48.3527 H   0  0  0  0  0  0  0  0  0  0  0  0
  175.2593   22.5434   47.0572 H   0  0  0  0  0  0  0  0  0  0  0  0
  176.1039   21.9730   48.5520 H   0  0  0  0  0  0  0  0  0  0  0  0
  176.7037   21.1123   45.6766 H   0  0  0  0  0  0  0  0  0  0  0  0
  177.7199   22.1649   46.7131 H   0  0  0  0  0  0  0  0  0  0  0  0
  1  2  1  0
  2  3  2  0
  3  4  1  0
  4  5  2  0
  5  6  1  0
  6  7  1  0
  7  8  1  0
  8  9  2  0
  9 10  1  0
 10 11  2  0
 11 12  1  0
 12 13  1  0
 12 14  2  0
 14 15  1  0
 15 16  2  0
 15 17  1  0
 17 18  1  0
  5 19  1  0
 19 20  2  0
 20 21  1  0
 21 22  1  0
 22 23  1  0
 23 24  1  0
 24 25  1  0
 25 26  1  0
 20  2  1  0
 26 21  1  0
 17  6  2  0
 14  8  1  0
  1 27  1  0
  1 28  1  0
  1 29  1  0
  3 30  1  0
  4 31  1  0
  9 32  1  0
 10 33  1  0
 11 34  1  0
 13 35  1  0
 18 36  1  0
 19 37  1  0
 22 38  1  0
 22 39  1  0
 23 40  1  0
 23 41  1  0
 24 42  1  0
 24 43  1  0
 25 44  1  0
 25 45  1  0
 26 46  1  0
 26 47  1  0
M  END
>  <meeko>  (2) 
{"is_sidechain": [false], "free_energy": -6.825, "intermolecular_energy": -7.458, "internal_energy": -0.359}

$$$$
cand_006_out
     RDKit          3D

 47 50  0  0  0  0  0  0  0  0999 V2000
  187.2680   24.3310   45.4200 C   0  0  0  0  0  0  0  0  0  0  0  0
  185.9590   23.6010   45.5550 C   0  0  0  0  0  0  0  0  0  0  0  0
  185.1290   23.8610   46.6540 C   0  0  0  0  0  0  0  0  0  0  0  0
  183.9090   23.1990   46.7970 C   0  0  0  0  0  0  0  0  0  0  0  0
  183.4860   22.2660   45.8420 C   0  0  0  0  0  0  0  0  0  0  0  0
  182.2020   21.5570   46.0250 C   0  0  0  0  0  0  0  0  0  0  0  0
  181.2780   22.2920   46.7600 O   0  0  0  0  0  0  0  0  0  0  0  0
  180.0420   21.7510   47.0030 C   0  0  0  0  0  0  0  0  0  0  0  0
  179.1520   22.5180   47.7580 C   0  0  0  0  0  0  0  0  0  0  0  0
  177.8770   22.0260   48.0420 C   0  0  0  0  0  0  0  0  0  0  0  0
  177.4900   20.7700   47.5700 C   0  0  0  0  0  0  0  0  0  0  0  0
  178.3790   20.0070   46.8170 C   0  0  0  0  0  0  0  0  0  0  0  0
  177.9350   18.7870   46.3860 O   0  0  0  0  0  0  0  0  0  0  0  0
  179.6570   20.4990   46.5350 C   0  0  0  0  0  0  0  0  0  0  0  0
  180.6210   19.7300   45.7470 C   0  0  0  0  0  0  0  0  0  0  0  0
  180.3530   18.6210   45.2910 O   0  0  0  0  0  0  0  0  0  0  0  0
  181.9510   20.3380   45.5110 C   0  0  0  0  0  0  0  0  0  0  0  0
  182.8500   19.6080   44.7540 O   0  0  0  0  0  0  0  0  0  0  0  0
  184.3250   22.0010   44.7500 C   0  0  0  0  0  0  0  0  0  0  0  0
  185.5570   22.6600   44.5870 C   0  0  0  0  0  0  0  0  0  0  0  0
  186.4030   22.4080   43.4820 N   0  0  0  0  0  0  0  0  0  0  0  0
  185.8410   22.9260   42.2230 C   0  0  0  0  0  0  0  0  0  0  0  0
  186.9020   22.8270   41.1260 C   0  0  0  0  0  0  0  0  0  0  0  0
  187.4230   21.3960   40.9880 C   0  0  0  0  0  0  0  0  0  0  0  0
  187.9050   20.8590   42.3350 C   0  0  0  0  0  0  0  0  0  0  0  0
  186.8230   21.0000   43.4060 C   0  0  0  0  0  0  0  0  0  0  0  0
  187.6682   24.5542   46.4200 H   0  0  0  0  0  0  0  0  0  0  0  0
  187.9838   23.7018   44.8706 H   0  0  0  0  0  0  0  0  0  0  0  0
  187.1089   25.2706   44.8706 H   0  0  0  0  0  0  0  0  0  0  0  0
  185.4425   24.5944   47.4115 H   0  0  0  0  0  0  0  0  0  0  0  0
  183.2729   23.4121   47.6688 H   0  0  0  0  0  0  0  0  0  0  0  0
  179.4553   23.5084   48.1283 H   0  0  0  0  0  0  0  0  0  0  0  0
  177.1761   22.6285   48.6384 H   0  0  0  0  0  0  0  0  0  0  0  0
  176.4844   20.3838   47.7927 H   0  0  0  0  0  0  0  0  0  0  0  0
  177.2100   18.3760   46.8120 H   0  0  0  0  0  0  0  0  0  0  0  0
  183.1170   19.9220   43.9130 H   0  0  0  0  0  0  0  0  0  0  0  0
  184.0115   21.2585   44.0014 H   0  0  0  0  0  0  0  0  0  0  0  0
  184.9607   22.3304   41.9395 H   0  0  0  0  0  0  0  0  0  0  0  0
  185.5396   23.9757   42.3547 H   0  0  0  0  0  0  0  0  0  0  0  0
  186.4594   23.1415   40.1693 H   0  0  0  0  0  0  0  0  0  0  0  0
  187.7448   23.4799   41.3967 H   0  0  0  0  0  0  0  0  0  0  0  0
  186.6136   20.7526   40.6126 H   0  0  0  0  0  0  0  0  0  0  0  0
  188.2702   21.3965   40.2863 H   0  0  0  0  0  0  0  0  0  0  0  0
  188.1647   19.7957   42.2252 H   0  0  0  0  0  0  0  0  0  0  0  0
  188.7832   21.4425   42.6484 H   0  0  0  0  0  0  0  0  0  0  0  0
  185.9595   20.3715   43.1425 H   0  0  0  0  0  0  0  0  0  0  0  0
  187.2207   20.6783   44.3798 H   0  0  0  0  0  0  0  0  0  0  0  0
  1  2  1  0
  2  3  2  0
  3  4  1  0
  4  5  2  0
  5  6  1  0
  6  7  1  0
  7  8  1  0
  8  9  2  0
  9 10  1  0
 10 11  2  0
 11 12  1  0
 12 13  1  0
 12 14  2  0
 14 15  1  0
 15 16  2  0
 15 17  1  0
 17 18  1  0
  5 19  1  0
 19 20  2  0
 20 21  1  0
 21 22  1  0
 22 23  1  0
 23 24  1  0
 24 25  1  0
 25 26  1  0
 20  2  1  0
 26 21  1  0
 17  6  2  0
 14  8  1  0
  1 27  1  0
  1 28  1  0
  1 29  1  0
  3 30  1  0
  4 31  1  0
  9 32  1  0
 10 33  1  0
 11 34  1  0
 13 35  1  0
 18 36  1  0
 19 37  1  0
 22 38  1  0
 22 39  1  0
 23 40  1  0
 23 41  1  0
 24 42  1  0
 24 43  1  0
 25 44  1  0
 25 45  1  0
 26 46  1  0
 26 47  1  0
M  END
>  <meeko>  (3) 
{"is_sidechain": [false], "free_energy": -6.585, "intermolecular_energy": -7.281, "internal_energy": -0.254}

$$$$
cand_006_out
     RDKit          3D

 47 50  0  0  0  0  0  0  0  0999 V2000
  183.0720   17.8090   43.5900 C   0  0  0  0  0  0  0  0  0  0  0  0
  182.0250   18.4920   44.4280 C   0  0  0  0  0  0  0  0  0  0  0  0
  182.3300   19.6960   45.0770 C   0  0  0  0  0  0  0  0  0  0  0  0
  181.3740   20.3470   45.8560 C   0  0  0  0  0  0  0  0  0  0  0  0
  180.0870   19.8150   46.0010 C   0  0  0  0  0  0  0  0  0  0  0  0
  179.0950   20.5070   46.8510 C   0  0  0  0  0  0  0  0  0  0  0  0
  177.8220   19.9560   46.7550 O   0  0  0  0  0  0  0  0  0  0  0  0
  176.8050   20.5030   47.4940 C   0  0  0  0  0  0  0  0  0  0  0  0
  175.5410   19.9270   47.3540 C   0  0  0  0  0  0  0  0  0  0  0  0
  174.4600   20.4340   48.0790 C   0  0  0  0  0  0  0  0  0  0  0  0
  174.6440   21.5160   48.9430 C   0  0  0  0  0  0  0  0  0  0  0  0
  175.9060   22.0890   49.0800 C   0  0  0  0  0  0  0  0  0  0  0  0
  176.0140   23.1440   49.9430 O   0  0  0  0  0  0  0  0  0  0  0  0
  176.9860   21.5810   48.3530 C   0  0  0  0  0  0  0  0  0  0  0  0
  178.3280   22.1530   48.4680 C   0  0  0  0  0  0  0  0  0  0  0  0
  178.5710   23.1010   49.2120 O   0  0  0  0  0  0  0  0  0  0  0  0
  179.4040   21.5460   47.6490 C   0  0  0  0  0  0  0  0  0  0  0  0
  180.6700   22.0870   47.7760 O   0  0  0  0  0  0  0  0  0  0  0  0
  179.7890   18.6040   45.3590 C   0  0  0  0  0  0  0  0  0  0  0  0
  180.7390   17.9330   44.5670 C   0  0  0  0  0  0  0  0  0  0  0  0
  180.4430   16.7190   43.9050 N   0  0  0  0  0  0  0  0  0  0  0  0
  180.8020   15.5430   44.7160 C   0  0  0  0  0  0  0  0  0  0  0  0
  180.2450   14.2870   44.0450 C   0  0  0  0  0  0  0  0  0  0  0  0
  180.7330   14.1700   42.6000 C   0  0  0  0  0  0  0  0  0  0  0  0
  180.4310   15.4480   41.8180 C   0  0  0  0  0  0  0  0  0  0  0  0
  180.9830   16.6790   42.5370 C   0  0  0  0  0  0  0  0  0  0  0  0
  183.8108   17.3271   44.2473 H   0  0  0  0  0  0  0  0  0  0  0  0
  182.5946   17.0481   42.9551 H   0  0  0  0  0  0  0  0  0  0  0  0
  183.5760   18.5526   42.9551 H   0  0  0  0  0  0  0  0  0  0  0  0
  183.3342   20.1322   44.9708 H   0  0  0  0  0  0  0  0  0  0  0  0
  181.6338   21.2885   46.3620 H   0  0  0  0  0  0  0  0  0  0  0  0
  175.3965   19.0749   46.6735 H   0  0  0  0  0  0  0  0  0  0  0  0
  173.4636   19.9810   47.9695 H   0  0  0  0  0  0  0  0  0  0  0  0
  173.7931   21.9151   49.5146 H   0  0  0  0  0  0  0  0  0  0  0  0
  176.8470   23.3670   50.3090 H   0  0  0  0  0  0  0  0  0  0  0  0
  180.8300   22.9710   47.5120 H   0  0  0  0  0  0  0  0  0  0  0  0
  178.7864   18.1674   45.4778 H   0  0  0  0  0  0  0  0  0  0  0  0
  181.8968   15.4667   44.7906 H   0  0  0  0  0  0  0  0  0  0  0  0
  180.3777   15.6443   45.7258 H   0  0  0  0  0  0  0  0  0  0  0  0
  180.5761   13.4022   44.6084 H   0  0  0  0  0  0  0  0  0  0  0  0
  179.1470   14.3533   44.0379 H   0  0  0  0  0  0  0  0  0  0  0  0
  181.8191   13.9955   42.5995 H   0  0  0  0  0  0  0  0  0  0  0  0
  180.2092   13.3310   42.1186 H   0  0  0  0  0  0  0  0  0  0  0  0
  180.8927   15.3769   40.8221 H   0  0  0  0  0  0  0  0  0  0  0  0
  179.3395   15.5546   41.7325 H   0  0  0  0  0  0  0  0  0  0  0  0
  182.0808   16.6217   42.5757 H   0  0  0  0  0  0  0  0  0  0  0  0
  180.6871   17.5891   41.9946 H   0  0  0  0  0  0  0  0  0  0  0  0
  1  2  1  0
  2  3  2  0
  3  4  1  0
  4  5  2  0
  5  6  1  0
  6  7  1  0
  7  8  1  0
  8  9  2  0
  9 10  1  0
 10 11  2  0
 11 12  1  0
 12 13  1  0
 12 14  2  0
 14 15  1  0
 15 16  2  0
 15 17  1  0
 17 18  1  0
  5 19  1  0
 19 20  2  0
 20 21  1  0
 21 22  1  0
 22 23  1  0
 23 24  1  0
 24 25  1  0
 25 26  1  0
 20  2  1  0
 26 21  1  0
 17  6  2  0
 14  8  1  0
  1 27  1  0
  1 28  1  0
  1 29  1  0
  3 30  1  0
  4 31  1  0
  9 32  1  0
 10 33  1  0
 11 34  1  0
 13 35  1  0
 18 36  1  0
 19 37  1  0
 22 38  1  0
 22 39  1  0
 23 40  1  0
 23 41  1  0
 24 42  1  0
 24 43  1  0
 25 44  1  0
 25 45  1  0
 26 46  1  0
 26 47  1  0
M  END
>  <meeko>  (4) 
{"is_sidechain": [false], "free_energy": -6.37, "intermolecular_energy": -8.532, "internal_energy": 1.249}

$$$$
cand_006_out
     RDKit          3D

 47 50  0  0  0  0  0  0  0  0999 V2000
  178.9690   19.2210   46.1850 C   0  0  0  0  0  0  0  0  0  0  0  0
  180.1710   20.1270   46.2000 C   0  0  0  0  0  0  0  0  0  0  0  0
  181.3900   19.6720   45.6790 C   0  0  0  0  0  0  0  0  0  0  0  0
  182.5160   20.4960   45.6800 C   0  0  0  0  0  0  0  0  0  0  0  0
  182.4490   21.7970   46.1940 C   0  0  0  0  0  0  0  0  0  0  0  0
  183.6590   22.6450   46.2080 C   0  0  0  0  0  0  0  0  0  0  0  0
  183.8430   23.3050   47.4180 O   0  0  0  0  0  0  0  0  0  0  0  0
  184.9310   24.1260   47.5690 C   0  0  0  0  0  0  0  0  0  0  0  0
  185.0660   24.7800   48.7950 C   0  0  0  0  0  0  0  0  0  0  0  0
  186.1510   25.6300   49.0150 C   0  0  0  0  0  0  0  0  0  0  0  0
  187.1010   25.8270   48.0100 C   0  0  0  0  0  0  0  0  0  0  0  0
  186.9640   25.1740   46.7870 C   0  0  0  0  0  0  0  0  0  0  0  0
  187.9290   25.4110   45.8490 O   0  0  0  0  0  0  0  0  0  0  0  0
  185.8760   24.3240   46.5680 C   0  0  0  0  0  0  0  0  0  0  0  0
  185.6940   23.6180   45.2990 C   0  0  0  0  0  0  0  0  0  0  0  0
  186.4900   23.7340   44.3690 O   0  0  0  0  0  0  0  0  0  0  0  0
  184.5040   22.7460   45.1640 C   0  0  0  0  0  0  0  0  0  0  0  0
  184.3490   22.0750   43.9650 O   0  0  0  0  0  0  0  0  0  0  0  0
  181.2300   22.2440   46.7230 C   0  0  0  0  0  0  0  0  0  0  0  0
  180.0830   21.4290   46.7300 C   0  0  0  0  0  0  0  0  0  0  0  0
  178.8460   21.8760   47.2500 N   0  0  0  0  0  0  0  0  0  0  0  0
  178.7680   23.3460   47.3100 C   0  0  0  0  0  0  0  0  0  0  0  0
  177.3360   23.7540   47.6570 C   0  0  0  0  0  0  0  0  0  0  0  0
  176.8710   23.0910   48.9540 C   0  0  0  0  0  0  0  0  0  0  0  0
  177.0600   21.5760   48.8900 C   0  0  0  0  0  0  0  0  0  0  0  0
  178.4980   21.2140   48.5170 C   0  0  0  0  0  0  0  0  0  0  0  0
  178.6680   18.9941   47.2184 H   0  0  0  0  0  0  0  0  0  0  0  0
  178.1397   19.7206   45.6628 H   0  0  0  0  0  0  0  0  0  0  0  0
  179.2209   18.2862   45.6628 H   0  0  0  0  0  0  0  0  0  0  0  0
  181.4597   18.6552   45.2652 H   0  0  0  0  0  0  0  0  0  0  0  0
  183.4661   20.1198   45.2729 H   0  0  0  0  0  0  0  0  0  0  0  0
  184.3181   24.6256   49.5867 H   0  0  0  0  0  0  0  0  0  0  0  0
  186.2581   26.1453   49.9809 H   0  0  0  0  0  0  0  0  0  0  0  0
  187.9561   26.4968   48.1840 H   0  0  0  0  0  0  0  0  0  0  0  0
  187.9810   26.2470   45.4310 H   0  0  0  0  0  0  0  0  0  0  0  0
  183.8290   22.4500   43.2820 H   0  0  0  0  0  0  0  0  0  0  0  0
  181.1686   23.2585   47.1436 H   0  0  0  0  0  0  0  0  0  0  0  0
  179.4558   23.7207   48.0823 H   0  0  0  0  0  0  0  0  0  0  0  0
  179.0511   23.7735   46.3368 H   0  0  0  0  0  0  0  0  0  0  0  0
  177.2933   24.8466   47.7772 H   0  0  0  0  0  0  0  0  0  0  0  0
  176.6735   23.4273   46.8419 H   0  0  0  0  0  0  0  0  0  0  0  0
  177.4575   23.4920   49.7938 H   0  0  0  0  0  0  0  0  0  0  0  0
  175.8015   23.3062   49.0949 H   0  0  0  0  0  0  0  0  0  0  0  0
  176.8245   21.1431   49.8734 H   0  0  0  0  0  0  0  0  0  0  0  0
  176.3877   21.1732   48.1181 H   0  0  0  0  0  0  0  0  0  0  0  0
  179.1810   21.5530   49.3098 H   0  0  0  0  0  0  0  0  0  0  0  0
  178.5890   20.1237   48.4035 H   0  0  0  0  0  0  0  0  0  0  0  0
  1  2  1  0
  2  3  2  0
  3  4  1  0
  4  5  2  0
  5  6  1  0
  6  7  1  0
  7  8  1  0
  8  9  2  0
  9 10  1  0
 10 11  2  0
 11 12  1  0
 12 13  1  0
 12 14  2  0
 14 15  1  0
 15 16  2  0
 15 17  1  0
 17 18  1  0
  5 19  1  0
 19 20  2  0
 20 21  1  0
 21 22  1  0
 22 23  1  0
 23 24  1  0
 24 25  1  0
 25 26  1  0
 20  2  1  0
 26 21  1  0
 17  6  2  0
 14  8  1  0
  1 27  1  0
  1 28  1  0
  1 29  1  0
  3 30  1  0
  4 31  1  0
  9 32  1  0
 10 33  1  0
 11 34  1  0
 13 35  1  0
 18 36  1  0
 19 37  1  0
 22 38  1  0
 22 39  1  0
 23 40  1  0
 23 41  1  0
 24 42  1  0
 24 43  1  0
 25 44  1  0
 25 45  1  0
 26 46  1  0
 26 47  1  0
M  END
>  <meeko>  (5) 
{"is_sidechain": [false], "free_energy": -6.196, "intermolecular_energy": -7.062, "internal_energy": -0.015}

$$$$
cand_006_out
     RDKit          3D

 47 50  0  0  0  0  0  0  0  0999 V2000
  178.8020   23.2340   48.7790 C   0  0  0  0  0  0  0  0  0  0  0  0
  179.2550   22.0630   47.9490 C   0  0  0  0  0  0  0  0  0  0  0  0
  180.6130   21.9170   47.6360 C   0  0  0  0  0  0  0  0  0  0  0  0
  181.0560   20.8370   46.8720 C   0  0  0  0  0  0  0  0  0  0  0  0
  180.1540   19.8730   46.4080 C   0  0  0  0  0  0  0  0  0  0  0  0
  180.6390   18.7490   45.5790 C   0  0  0  0  0  0  0  0  0  0  0  0
  179.8390   17.6170   45.6810 O   0  0  0  0  0  0  0  0  0  0  0  0
  180.1740   16.4990   44.9610 C   0  0  0  0  0  0  0  0  0  0  0  0
  179.3520   15.3810   45.1070 C   0  0  0  0  0  0  0  0  0  0  0  0
  179.6370   14.2100   44.4020 C   0  0  0  0  0  0  0  0  0  0  0  0
  180.7430   14.1570   43.5510 C   0  0  0  0  0  0  0  0  0  0  0  0
  181.5620   15.2740   43.4070 C   0  0  0  0  0  0  0  0  0  0  0  0
  182.6270   15.1540   42.5570 O   0  0  0  0  0  0  0  0  0  0  0  0
  181.2770   16.4460   44.1150 C   0  0  0  0  0  0  0  0  0  0  0  0
  182.1120   17.6410   43.9920 C   0  0  0  0  0  0  0  0  0  0  0  0
  183.0980   17.6760   43.2590 O   0  0  0  0  0  0  0  0  0  0  0  0
  181.7280   18.8290   44.7910 C   0  0  0  0  0  0  0  0  0  0  0  0
  182.5170   19.9570   44.6570 O   0  0  0  0  0  0  0  0  0  0  0  0
  178.7940   20.0280   46.7150 C   0  0  0  0  0  0  0  0  0  0  0  0
  178.3280   21.1090   47.4860 C   0  0  0  0  0  0  0  0  0  0  0  0
  176.9610   21.2660   47.8110 N   0  0  0  0  0  0  0  0  0  0  0  0
  176.6330   20.6930   49.1270 C   0  0  0  0  0  0  0  0  0  0  0  0
  175.2100   21.1010   49.5080 C   0  0  0  0  0  0  0  0  0  0  0  0
  174.2090   20.6910   48.4270 C   0  0  0  0  0  0  0  0  0  0  0  0
  174.6360   21.2210   47.0590 C   0  0  0  0  0  0  0  0  0  0  0  0
  176.0720   20.8100   46.7310 C   0  0  0  0  0  0  0  0  0  0  0  0
  178.8980   22.9859   49.8463 H   0  0  0  0  0  0  0  0  0  0  0  0
  179.4261   24.1100   48.5486 H   0  0  0  0  0  0  0  0  0  0  0  0
  177.7508   23.4619   48.5486 H   0  0  0  0  0  0  0  0  0  0  0  0
  181.3376   22.6620   47.9966 H   0  0  0  0  0  0  0  0  0  0  0  0
  182.1253   20.7423   46.6319 H   0  0  0  0  0  0  0  0  0  0  0  0
  178.4804   15.4221   45.7768 H   0  0  0  0  0  0  0  0  0  0  0  0
  178.9896   13.3282   44.5170 H   0  0  0  0  0  0  0  0  0  0  0  0
  180.9669   13.2344   42.9953 H   0  0  0  0  0  0  0  0  0  0  0  0
  183.4310   14.7860   42.8640 H   0  0  0  0  0  0  0  0  0  0  0  0
  183.1180   20.0260   43.9430 H   0  0  0  0  0  0  0  0  0  0  0  0
  178.0730   19.2851   46.3433 H   0  0  0  0  0  0  0  0  0  0  0  0
  176.7016   19.5962   49.0789 H   0  0  0  0  0  0  0  0  0  0  0  0
  177.3409   21.0668   49.8814 H   0  0  0  0  0  0  0  0  0  0  0  0
  174.9373   20.6106   50.4541 H   0  0  0  0  0  0  0  0  0  0  0  0
  175.1783   22.1953   49.6151 H   0  0  0  0  0  0  0  0  0  0  0  0
  174.1525   19.5932   48.3863 H   0  0  0  0  0  0  0  0  0  0  0  0
  173.2265   21.1173   48.6780 H   0  0  0  0  0  0  0  0  0  0  0  0
  173.9620   20.8149   46.2904 H   0  0  0  0  0  0  0  0  0  0  0  0
  174.5838   22.3196   47.0790 H   0  0  0  0  0  0  0  0  0  0  0  0
  176.1309   19.7151   46.6428 H   0  0  0  0  0  0  0  0  0  0  0  0
  176.3803   21.2668   45.7790 H   0  0  0  0  0  0  0  0  0  0  0  0
  1  2  1  0
  2  3  2  0
  3  4  1  0
  4  5  2  0
  5  6  1  0
  6  7  1  0
  7  8  1  0
  8  9  2  0
  9 10  1  0
 10 11  2  0
 11 12  1  0
 12 13  1  0
 12 14  2  0
 14 15  1  0
 15 16  2  0
 15 17  1  0
 17 18  1  0
  5 19  1  0
 19 20  2  0
 20 21  1  0
 21 22  1  0
 22 23  1  0
 23 24  1  0
 24 25  1  0
 25 26  1  0
 20  2  1  0
 26 21  1  0
 17  6  2  0
 14  8  1  0
  1 27  1  0
  1 28  1  0
  1 29  1  0
  3 30  1  0
  4 31  1  0
  9 32  1  0
 10 33  1  0
 11 34  1  0
 13 35  1  0
 18 36  1  0
 19 37  1  0
 22 38  1  0
 22 39  1  0
 23 40  1  0
 23 41  1  0
 24 42  1  0
 24 43  1  0
 25 44  1  0
 25 45  1  0
 26 46  1  0
 26 47  1  0
M  END
>  <meeko>  (6) 
{"is_sidechain": [false], "free_energy": -6.153, "intermolecular_energy": -6.972, "internal_energy": -0.055}

$$$$
cand_006_out
     RDKit          3D

 47 50  0  0  0  0  0  0  0  0999 V2000
  178.7020   19.0800   46.2340 C   0  0  0  0  0  0  0  0  0  0  0  0
  179.9470   19.9200   46.1390 C   0  0  0  0  0  0  0  0  0  0  0  0
  181.1060   19.3820   45.5650 C   0  0  0  0  0  0  0  0  0  0  0  0
  182.2700   20.1450   45.4640 C   0  0  0  0  0  0  0  0  0  0  0  0
  182.3010   21.4650   45.9270 C   0  0  0  0  0  0  0  0  0  0  0  0
  183.5520   22.2490   45.8330 C   0  0  0  0  0  0  0  0  0  0  0  0
  184.1760   22.1240   44.5970 O   0  0  0  0  0  0  0  0  0  0  0  0
  185.3480   22.8020   44.3740 C   0  0  0  0  0  0  0  0  0  0  0  0
  185.9470   22.6350   43.1240 C   0  0  0  0  0  0  0  0  0  0  0  0
  187.1410   23.2970   42.8310 C   0  0  0  0  0  0  0  0  0  0  0  0
  187.7350   24.1250   43.7860 C   0  0  0  0  0  0  0  0  0  0  0  0
  187.1350   24.2900   45.0320 C   0  0  0  0  0  0  0  0  0  0  0  0
  187.7690   25.1150   45.9190 O   0  0  0  0  0  0  0  0  0  0  0  0
  185.9400   23.6250   45.3250 C   0  0  0  0  0  0  0  0  0  0  0  0
  185.2770   23.7710   46.6210 C   0  0  0  0  0  0  0  0  0  0  0  0
  185.7330   24.4870   47.5110 O   0  0  0  0  0  0  0  0  0  0  0  0
  184.0180   23.0180   46.8350 C   0  0  0  0  0  0  0  0  0  0  0  0
  183.3940   23.1740   48.0590 O   0  0  0  0  0  0  0  0  0  0  0  0
  181.1420   21.9960   46.5110 C   0  0  0  0  0  0  0  0  0  0  0  0
  179.9580   21.2440   46.6200 C   0  0  0  0  0  0  0  0  0  0  0  0
  178.7800   21.7750   47.1960 N   0  0  0  0  0  0  0  0  0  0  0  0
  178.8050   23.2470   47.2520 C   0  0  0  0  0  0  0  0  0  0  0  0
  177.4220   23.7520   47.6640 C   0  0  0  0  0  0  0  0  0  0  0  0
  176.9750   23.1260   48.9840 C   0  0  0  0  0  0  0  0  0  0  0  0
  177.0580   21.6010   48.9200 C   0  0  0  0  0  0  0  0  0  0  0  0
  178.4490   21.1410   48.4810 C   0  0  0  0  0  0  0  0  0  0  0  0
  178.4529   18.9120   47.2922 H   0  0  0  0  0  0  0  0  0  0  0  0
  177.8692   19.6016   45.7396 H   0  0  0  0  0  0  0  0  0  0  0  0
  178.8738   18.1125   45.7396 H   0  0  0  0  0  0  0  0  0  0  0  0
  181.0985   18.3479   45.1902 H   0  0  0  0  0  0  0  0  0  0  0  0
  183.1726   19.7041   45.0157 H   0  0  0  0  0  0  0  0  0  0  0  0
  185.4793   21.9832   42.3714 H   0  0  0  0  0  0  0  0  0  0  0  0
  187.6144   23.1662   41.8467 H   0  0  0  0  0  0  0  0  0  0  0  0
  188.6756   24.6462   43.5544 H   0  0  0  0  0  0  0  0  0  0  0  0
  187.3550   25.3400   46.7270 H   0  0  0  0  0  0  0  0  0  0  0  0
  183.8790   23.4880   48.7960 H   0  0  0  0  0  0  0  0  0  0  0  0
  181.1590   23.0271   46.8938 H   0  0  0  0  0  0  0  0  0  0  0  0
  179.5525   23.5756   47.9891 H   0  0  0  0  0  0  0  0  0  0  0  0
  179.0701   23.6524   46.2644 H   0  0  0  0  0  0  0  0  0  0  0  0
  177.4593   24.8452   47.7800 H   0  0  0  0  0  0  0  0  0  0  0  0
  176.7012   23.4688   46.8828 H   0  0  0  0  0  0  0  0  0  0  0  0
  177.6260   23.4885   49.7932 H   0  0  0  0  0  0  0  0  0  0  0  0
  175.9303   23.4135   49.1735 H   0  0  0  0  0  0  0  0  0  0  0  0
  176.8411   21.1877   49.9161 H   0  0  0  0  0  0  0  0  0  0  0  0
  176.3239   21.2427   48.1833 H   0  0  0  0  0  0  0  0  0  0  0  0
  179.1905   21.4343   49.2387 H   0  0  0  0  0  0  0  0  0  0  0  0
  178.4603   20.0468   48.3691 H   0  0  0  0  0  0  0  0  0  0  0  0
  1  2  1  0
  2  3  2  0
  3  4  1  0
  4  5  2  0
  5  6  1  0
  6  7  1  0
  7  8  1  0
  8  9  2  0
  9 10  1  0
 10 11  2  0
 11 12  1  0
 12 13  1  0
 12 14  2  0
 14 15  1  0
 15 16  2  0
 15 17  1  0
 17 18  1  0
  5 19  1  0
 19 20  2  0
 20 21  1  0
 21 22  1  0
 22 23  1  0
 23 24  1  0
 24 25  1  0
 25 26  1  0
 20  2  1  0
 26 21  1  0
 17  6  2  0
 14  8  1  0
  1 27  1  0
  1 28  1  0
  1 29  1  0
  3 30  1  0
  4 31  1  0
  9 32  1  0
 10 33  1  0
 11 34  1  0
 13 35  1  0
 18 36  1  0
 19 37  1  0
 22 38  1  0
 22 39  1  0
 23 40  1  0
 23 41  1  0
 24 42  1  0
 24 43  1  0
 25 44  1  0
 25 45  1  0
 26 46  1  0
 26 47  1  0
M  END
>  <meeko>  (7) 
{"is_sidechain": [false], "free_energy": -6.138, "intermolecular_energy": -7.041, "internal_energy": 0.031}

$$$$
cand_006_out
     RDKit          3D

 47 50  0  0  0  0  0  0  0  0999 V2000
  187.3110   24.2590   45.0370 C   0  0  0  0  0  0  0  0  0  0  0  0
  186.0040   23.5700   45.3260 C   0  0  0  0  0  0  0  0  0  0  0  0
  185.4120   22.7640   44.3450 C   0  0  0  0  0  0  0  0  0  0  0  0
  184.2020   22.1140   44.5920 C   0  0  0  0  0  0  0  0  0  0  0  0
  183.5590   22.2480   45.8280 C   0  0  0  0  0  0  0  0  0  0  0  0
  182.2660   21.5710   46.0620 C   0  0  0  0  0  0  0  0  0  0  0  0
  181.3920   22.3280   46.8350 O   0  0  0  0  0  0  0  0  0  0  0  0
  180.1530   21.8190   47.1270 C   0  0  0  0  0  0  0  0  0  0  0  0
  179.3150   22.6060   47.9180 C   0  0  0  0  0  0  0  0  0  0  0  0
  178.0390   22.1470   48.2530 C   0  0  0  0  0  0  0  0  0  0  0  0
  177.6020   20.9020   47.7960 C   0  0  0  0  0  0  0  0  0  0  0  0
  178.4400   20.1180   47.0070 C   0  0  0  0  0  0  0  0  0  0  0  0
  177.9480   18.9110   46.5940 O   0  0  0  0  0  0  0  0  0  0  0  0
  179.7170   20.5780   46.6740 C   0  0  0  0  0  0  0  0  0  0  0  0
  180.6290   19.7860   45.8470 C   0  0  0  0  0  0  0  0  0  0  0  0
  180.3150   18.6840   45.4020 O   0  0  0  0  0  0  0  0  0  0  0  0
  181.9640   20.3610   45.5580 C   0  0  0  0  0  0  0  0  0  0  0  0
  182.8120   19.6090   44.7650 O   0  0  0  0  0  0  0  0  0  0  0  0
  184.1500   23.0650   46.8040 C   0  0  0  0  0  0  0  0  0  0  0  0
  185.3700   23.7270   46.5740 C   0  0  0  0  0  0  0  0  0  0  0  0
  185.9800   24.5410   47.5570 N   0  0  0  0  0  0  0  0  0  0  0  0
  186.6460   23.7460   48.6020 C   0  0  0  0  0  0  0  0  0  0  0  0
  187.4700   24.6800   49.4890 C   0  0  0  0  0  0  0  0  0  0  0  0
  186.6040   25.7980   50.0690 C   0  0  0  0  0  0  0  0  0  0  0  0
  185.8510   26.5360   48.9620 C   0  0  0  0  0  0  0  0  0  0  0  0
  185.0620   25.5620   48.0870 C   0  0  0  0  0  0  0  0  0  0  0  0
  187.8054   24.5196   45.9844 H   0  0  0  0  0  0  0  0  0  0  0  0
  187.9601   23.5859   44.4577 H   0  0  0  0  0  0  0  0  0  0  0  0
  187.1224   25.1749   44.4577 H   0  0  0  0  0  0  0  0  0  0  0  0
  185.9061   22.6422   43.3698 H   0  0  0  0  0  0  0  0  0  0  0  0
  183.7490   21.4901   43.8074 H   0  0  0  0  0  0  0  0  0  0  0  0
  179.6590   23.5871   48.2774 H   0  0  0  0  0  0  0  0  0  0  0  0
  177.3781   22.7665   48.8771 H   0  0  0  0  0  0  0  0  0  0  0  0
  176.5968   20.5408   48.0590 H   0  0  0  0  0  0  0  0  0  0  0  0
  177.1390   18.8700   46.1240 H   0  0  0  0  0  0  0  0  0  0  0  0
  183.6660   19.3840   45.0760 H   0  0  0  0  0  0  0  0  0  0  0  0
  183.6465   23.1911   47.7738 H   0  0  0  0  0  0  0  0  0  0  0  0
  185.8893   23.2307   49.2118 H   0  0  0  0  0  0  0  0  0  0  0  0
  187.3050   22.9982   48.1366 H   0  0  0  0  0  0  0  0  0  0  0  0
  187.9059   24.0986   50.3148 H   0  0  0  0  0  0  0  0  0  0  0  0
  188.2613   25.1351   48.8752 H   0  0  0  0  0  0  0  0  0  0  0  0
  185.8770   25.3630   50.7707 H   0  0  0  0  0  0  0  0  0  0  0  0
  187.2574   26.5151   50.5875 H   0  0  0  0  0  0  0  0  0  0  0  0
  185.1537   27.2536   49.4190 H   0  0  0  0  0  0  0  0  0  0  0  0
  186.5843   27.0575   48.3293 H   0  0  0  0  0  0  0  0  0  0  0  0
  184.2791   25.0771   48.6887 H   0  0  0  0  0  0  0  0  0  0  0  0
  184.5927   26.1072   47.2548 H   0  0  0  0  0  0  0  0  0  0  0  0
  1  2  1  0
  2  3  2  0
  3  4  1  0
  4  5  2  0
  5  6  1  0
  6  7  1  0
  7  8  1  0
  8  9  2  0
  9 10  1  0
 10 11  2  0
 11 12  1  0
 12 13  1  0
 12 14  2  0
 14 15  1  0
 15 16  2  0
 15 17  1  0
 17 18  1  0
  5 19  1  0
 19 20  2  0
 20 21  1  0
 21 22  1  0
 22 23  1  0
 23 24  1  0
 24 25  1  0
 25 26  1  0
 20  2  1  0
 26 21  1  0
 17  6  2  0
 14  8  1  0
  1 27  1  0
  1 28  1  0
  1 29  1  0
  3 30  1  0
  4 31  1  0
  9 32  1  0
 10 33  1  0
 11 34  1  0
 13 35  1  0
 18 36  1  0
 19 37  1  0
 22 38  1  0
 22 39  1  0
 23 40  1  0
 23 41  1  0
 24 42  1  0
 24 43  1  0
 25 44  1  0
 25 45  1  0
 26 46  1  0
 26 47  1  0
M  END
>  <meeko>  (8) 
{"is_sidechain": [false], "free_energy": -6.091, "intermolecular_energy": -6.645, "internal_energy": -0.309}

$$$$
cand_006_out
     RDKit          3D

 47 50  0  0  0  0  0  0  0  0999 V2000
  177.9630   18.4230   46.1060 C   0  0  0  0  0  0  0  0  0  0  0  0
  179.1980   19.2820   46.1450 C   0  0  0  0  0  0  0  0  0  0  0  0
  179.2060   20.4530   46.9150 C   0  0  0  0  0  0  0  0  0  0  0  0
  180.3420   21.2620   46.9680 C   0  0  0  0  0  0  0  0  0  0  0  0
  181.4980   20.9180   46.2580 C   0  0  0  0  0  0  0  0  0  0  0  0
  182.6820   21.8010   46.3070 C   0  0  0  0  0  0  0  0  0  0  0  0
  183.3720   21.8470   45.1000 O   0  0  0  0  0  0  0  0  0  0  0  0
  184.4930   22.6320   45.0060 C   0  0  0  0  0  0  0  0  0  0  0  0
  185.1620   22.6360   43.7810 C   0  0  0  0  0  0  0  0  0  0  0  0
  186.3100   23.4140   43.6170 C   0  0  0  0  0  0  0  0  0  0  0  0
  186.7880   24.1880   44.6770 C   0  0  0  0  0  0  0  0  0  0  0  0
  186.1180   24.1830   45.8980 C   0  0  0  0  0  0  0  0  0  0  0  0
  186.6400   24.9640   46.8920 O   0  0  0  0  0  0  0  0  0  0  0  0
  184.9700   23.4020   46.0610 C   0  0  0  0  0  0  0  0  0  0  0  0
  184.2360   23.3680   47.3270 C   0  0  0  0  0  0  0  0  0  0  0  0
  184.5900   24.0270   48.3030 O   0  0  0  0  0  0  0  0  0  0  0  0
  183.0360   22.5030   47.4000 C   0  0  0  0  0  0  0  0  0  0  0  0
  182.3430   22.4890   48.5970 O   0  0  0  0  0  0  0  0  0  0  0  0
  181.4810   19.7510   45.4790 C   0  0  0  0  0  0  0  0  0  0  0  0
  180.3470   18.9210   45.4140 C   0  0  0  0  0  0  0  0  0  0  0  0
  180.3260   17.7370   44.6420 N   0  0  0  0  0  0  0  0  0  0  0  0
  180.2600   16.5280   45.4810 C   0  0  0  0  0  0  0  0  0  0  0  0
  180.0080   15.3140   44.5870 C   0  0  0  0  0  0  0  0  0  0  0  0
  181.0670   15.2060   43.4890 C   0  0  0  0  0  0  0  0  0  0  0  0
  181.1750   16.5130   42.7050 C   0  0  0  0  0  0  0  0  0  0  0  0
  181.4020   17.7010   43.6400 C   0  0  0  0  0  0  0  0  0  0  0  0
  177.6400   18.1984   47.1332 H   0  0  0  0  0  0  0  0  0  0  0  0
  177.1603   18.9587   45.5781 H   0  0  0  0  0  0  0  0  0  0  0  0
  178.1860   17.4840   45.5781 H   0  0  0  0  0  0  0  0  0  0  0  0
  178.3080   20.7373   47.4832 H   0  0  0  0  0  0  0  0  0  0  0  0
  180.3286   22.1798   47.5742 H   0  0  0  0  0  0  0  0  0  0  0  0
  184.7854   22.0271   42.9459 H   0  0  0  0  0  0  0  0  0  0  0  0
  186.8383   23.4173   42.6522 H   0  0  0  0  0  0  0  0  0  0  0  0
  187.6924   24.8007   44.5476 H   0  0  0  0  0  0  0  0  0  0  0  0
  187.0950   25.7530   46.6770 H   0  0  0  0  0  0  0  0  0  0  0  0
  182.7790   22.7240   49.3920 H   0  0  0  0  0  0  0  0  0  0  0  0
  182.3781   19.4779   44.9040 H   0  0  0  0  0  0  0  0  0  0  0  0
  181.2115   16.3994   46.0178 H   0  0  0  0  0  0  0  0  0  0  0  0
  179.4435   16.6271   46.2114 H   0  0  0  0  0  0  0  0  0  0  0  0
  180.0356   14.4030   45.2029 H   0  0  0  0  0  0  0  0  0  0  0  0
  179.0233   15.4307   44.1108 H   0  0  0  0  0  0  0  0  0  0  0  0
  182.0406   14.9803   43.9486 H   0  0  0  0  0  0  0  0  0  0  0  0
  180.7740   14.4037   42.7959 H   0  0  0  0  0  0  0  0  0  0  0  0
  182.0193   16.4420   42.0035 H   0  0  0  0  0  0  0  0  0  0  0  0
  180.2319   16.6724   42.1617 H   0  0  0  0  0  0  0  0  0  0  0  0
  182.3727   17.5916   44.1456 H   0  0  0  0  0  0  0  0  0  0  0  0
  181.3993   18.6354   43.0595 H   0  0  0  0  0  0  0  0  0  0  0  0
  1  2  1  0
  2  3  2  0
  3  4  1  0
  4  5  2  0
  5  6  1  0
  6  7  1  0
  7  8  1  0
  8  9  2  0
  9 10  1  0
 10 11  2  0
 11 12  1  0
 12 13  1  0
 12 14  2  0
 14 15  1  0
 15 16  2  0
 15 17  1  0
 17 18  1  0
  5 19  1  0
 19 20  2  0
 20 21  1  0
 21 22  1  0
 22 23  1  0
 23 24  1  0
 24 25  1  0
 25 26  1  0
 20  2  1  0
 26 21  1  0
 17  6  2  0
 14  8  1  0
  1 27  1  0
  1 28  1  0
  1 29  1  0
  3 30  1  0
  4 31  1  0
  9 32  1  0
 10 33  1  0
 11 34  1  0
 13 35  1  0
 18 36  1  0
 19 37  1  0
 22 38  1  0
 22 39  1  0
 23 40  1  0
 23 41  1  0
 24 42  1  0
 24 43  1  0
 25 44  1  0
 25 45  1  0
 26 46  1  0
 26 47  1  0
M  END
>  <meeko>  (9) 
{"is_sidechain": [false], "free_energy": -5.163, "intermolecular_energy": -6.042, "internal_energy": 0.179}

$$$$
