cand_035_out
     RDKit          3D

 36 38  0  0  0  0  0  0  0  0999 V2000
  178.9890   13.6490   45.1300 C   0  0  0  0  0  0  0  0  0  0  0  0
  180.2210   13.9940   44.7390 C   0  0  0  0  0  0  0  0  0  0  0  0
  180.5840   15.3880   44.4650 C   0  0  0  0  0  0  0  0  0  0  0  0
  180.0070   16.3860   45.2680 C   0  0  0  0  0  0  0  0  0  0  0  0
  180.3020   17.7440   45.0700 C   0  0  0  0  0  0  0  0  0  0  0  0
  179.6550   18.7680   45.9160 C   0  0  0  0  0  0  0  0  0  0  0  0
  178.2680   18.6730   45.9140 O   0  0  0  0  0  0  0  0  0  0  0  0
  177.5410   19.5650   46.6590 C   0  0  0  0  0  0  0  0  0  0  0  0
  176.1510   19.4420   46.6170 C   0  0  0  0  0  0  0  0  0  0  0  0
  175.3520   20.3180   47.3550 C   0  0  0  0  0  0  0  0  0  0  0  0
  175.9420   21.3160   48.1350 C   0  0  0  0  0  0  0  0  0  0  0  0
  177.3290   21.4360   48.1740 C   0  0  0  0  0  0  0  0  0  0  0  0
  177.8390   22.4340   48.9590 O   0  0  0  0  0  0  0  0  0  0  0  0
  178.1280   20.5600   47.4360 C   0  0  0  0  0  0  0  0  0  0  0  0
  179.5890   20.6520   47.4510 C   0  0  0  0  0  0  0  0  0  0  0  0
  180.1810   21.4970   48.1170 O   0  0  0  0  0  0  0  0  0  0  0  0
  180.3440   19.6790   46.6280 C   0  0  0  0  0  0  0  0  0  0  0  0
  181.7230   19.7640   46.6590 O   0  0  0  0  0  0  0  0  0  0  0  0
  181.1790   18.0890   44.0360 C   0  0  0  0  0  0  0  0  0  0  0  0
  181.7590   17.1040   43.2320 C   0  0  0  0  0  0  0  0  0  0  0  0
  181.4720   15.7460   43.4360 C   0  0  0  0  0  0  0  0  0  0  0  0
  182.1130   14.7080   42.5490 C   0  0  0  0  0  0  0  0  0  0  0  0
  181.2470   14.1490   41.6540 F   0  0  0  0  0  0  0  0  0  0  0  0
  178.7499   12.5936   45.3273 H   0  0  0  0  0  0  0  0  0  0  0  0
  178.2151   14.4207   45.2542 H   0  0  0  0  0  0  0  0  0  0  0  0
  180.9831   13.2098   44.6197 H   0  0  0  0  0  0  0  0  0  0  0  0
  179.3098   16.0973   46.0683 H   0  0  0  0  0  0  0  0  0  0  0  0
  175.6858   18.6563   46.0036 H   0  0  0  0  0  0  0  0  0  0  0  0
  174.2567   20.2222   47.3222 H   0  0  0  0  0  0  0  0  0  0  0  0
  175.3124   22.0053   48.7169 H   0  0  0  0  0  0  0  0  0  0  0  0
  177.3770   22.7110   49.7260 H   0  0  0  0  0  0  0  0  0  0  0  0
  182.2350   19.0070   46.8680 H   0  0  0  0  0  0  0  0  0  0  0  0
  181.4148   19.1479   43.8537 H   0  0  0  0  0  0  0  0  0  0  0  0
  182.4501   17.3975   42.4281 H   0  0  0  0  0  0  0  0  0  0  0  0
  182.9320   15.1847   41.9904 H   0  0  0  0  0  0  0  0  0  0  0  0
  182.4708   13.8990   43.2028 H   0  0  0  0  0  0  0  0  0  0  0  0
  1  2  2  0
  2  3  1  0
  3  4  2  0
  4  5  1  0
  5  6  1  0
  6  7  1  0
  7  8  1  0
  8  9  2  0
  9 10  1  0
 10 11  2  0
 11 12  1  0
 12 13  1  0
 12 14  2  0
 14 15  1  0
 15 16  2  0
 15 17  1  0
 17 18  1  0
  5 19  2  0
 19 20  1  0
 20 21  2  0
 21 22  1  0
 22 23  1  0
 21  3  1  0
 17  6  2  0
 14  8  1  0
  1 24  1  0
  1 25  1  0
  2 26  1  0
  4 27  1  0
  9 28  1  0
 10 29  1  0
 11 30  1  0
 13 31  1  0
 18 32  1  0
 19 33  1  0
 20 34  1  0
 22 35  1  0
 22 36  1  0
M  END
>  <meeko>  (1) 
{"is_sidechain": [false], "free_energy": -7.741, "intermolecular_energy": -9.552, "internal_energy": -0.417}

$$$$
cand_035_out
     RDKit          3D

 36 38  0  0  0  0  0  0  0  0999 V2000
  179.0470   13.5860   45.1230 C   0  0  0  0  0  0  0  0  0  0  0  0
  180.3000   13.9820   44.8710 C   0  0  0  0  0  0  0  0  0  0  0  0
  180.5940   15.2830   44.2630 C   0  0  0  0  0  0  0  0  0  0  0  0
  180.4800   16.4260   45.0720 C   0  0  0  0  0  0  0  0  0  0  0  0
  180.7430   17.7080   44.5660 C   0  0  0  0  0  0  0  0  0  0  0  0
  180.5870   18.8900   45.4390 C   0  0  0  0  0  0  0  0  0  0  0  0
  181.7180   19.6990   45.4600 O   0  0  0  0  0  0  0  0  0  0  0  0
  181.7080   20.8320   46.2310 C   0  0  0  0  0  0  0  0  0  0  0  0
  182.8680   21.6080   46.2330 C   0  0  0  0  0  0  0  0  0  0  0  0
  182.9240   22.7760   46.9970 C   0  0  0  0  0  0  0  0  0  0  0  0
  181.8200   23.1690   47.7570 C   0  0  0  0  0  0  0  0  0  0  0  0
  180.6640   22.3930   47.7530 C   0  0  0  0  0  0  0  0  0  0  0  0
  179.6200   22.8370   48.5180 O   0  0  0  0  0  0  0  0  0  0  0  0
  180.6080   21.2240   46.9890 C   0  0  0  0  0  0  0  0  0  0  0  0
  179.4120   20.3810   46.9570 C   0  0  0  0  0  0  0  0  0  0  0  0
  178.3990   20.6640   47.5920 O   0  0  0  0  0  0  0  0  0  0  0  0
  179.4590   19.1590   46.1210 C   0  0  0  0  0  0  0  0  0  0  0  0
  178.3200   18.3770   46.0850 O   0  0  0  0  0  0  0  0  0  0  0  0
  181.1090   17.8290   43.2210 C   0  0  0  0  0  0  0  0  0  0  0  0
  181.2250   16.6980   42.4070 C   0  0  0  0  0  0  0  0  0  0  0  0
  180.9720   15.4150   42.9160 C   0  0  0  0  0  0  0  0  0  0  0  0
  181.1050   14.2160   42.0110 C   0  0  0  0  0  0  0  0  0  0  0  0
  181.1560   14.5400   40.6850 F   0  0  0  0  0  0  0  0  0  0  0  0
  178.8624   12.6028   45.5803 H   0  0  0  0  0  0  0  0  0  0  0  0
  178.2015   14.2437   44.8728 H   0  0  0  0  0  0  0  0  0  0  0  0
  181.1337   13.3118   45.1275 H   0  0  0  0  0  0  0  0  0  0  0  0
  180.1783   16.3135   46.1238 H   0  0  0  0  0  0  0  0  0  0  0  0
  183.7374   21.3001   45.6335 H   0  0  0  0  0  0  0  0  0  0  0  0
  183.8387   23.3870   47.0001 H   0  0  0  0  0  0  0  0  0  0  0  0
  181.8638   24.0896   48.3574 H   0  0  0  0  0  0  0  0  0  0  0  0
  178.7690   22.9370   48.1390 H   0  0  0  0  0  0  0  0  0  0  0  0
  178.2590   17.6120   46.6230 H   0  0  0  0  0  0  0  0  0  0  0  0
  181.3077   18.8252   42.7991 H   0  0  0  0  0  0  0  0  0  0  0  0
  181.5186   16.8156   41.3534 H   0  0  0  0  0  0  0  0  0  0  0  0
  182.0290   13.6808   42.2749 H   0  0  0  0  0  0  0  0  0  0  0  0
  180.2085   13.5961   42.1595 H   0  0  0  0  0  0  0  0  0  0  0  0
  1  2  2  0
  2  3  1  0
  3  4  2  0
  4  5  1  0
  5  6  1  0
  6  7  1  0
  7  8  1  0
  8  9  2  0
  9 10  1  0
 10 11  2  0
 11 12  1  0
 12 13  1  0
 12 14  2  0
 14 15  1  0
 15 16  2  0
 15 17  1  0
 17 18  1  0
  5 19  2  0
 19 20  1  0
 20 21  2  0
 21 22  1  0
 22 23  1  0
 21  3  1  0
 17  6  2  0
 14  8  1  0
  1 24  1  0
  1 25  1  0
  2 26  1  0
  4 27  1  0
  9 28  1  0
 10 29  1  0
 11 30  1  0
 13 31  1  0
 18 32  1  0
 19 33  1  0
 20 34  1  0
 22 35  1  0
 22 36  1  0
M  END
>  <meeko>  (2) 
{"is_sidechain": [false], "free_energy": -7.255, "intermolecular_energy": -9.075, "internal_energy": -0.293}

$$$$
cand_035_out
     RDKit          3D

 36 38  0  0  0  0  0  0  0  0999 V2000
  179.7260   20.7100   46.7960 C   0  0  0  0  0  0  0  0  0  0  0  0
  178.4500   20.8720   46.4290 C   0  0  0  0  0  0  0  0  0  0  0  0
  177.3420   20.6650   47.3660 C   0  0  0  0  0  0  0  0  0  0  0  0
  177.1520   21.6200   48.3790 C   0  0  0  0  0  0  0  0  0  0  0  0
  176.1150   21.4940   49.3160 C   0  0  0  0  0  0  0  0  0  0  0  0
  175.9630   22.5030   50.3850 C   0  0  0  0  0  0  0  0  0  0  0  0
  175.3620   23.6750   49.9380 O   0  0  0  0  0  0  0  0  0  0  0  0
  175.1600   24.6980   50.8300 C   0  0  0  0  0  0  0  0  0  0  0  0
  174.5670   25.8610   50.3370 C   0  0  0  0  0  0  0  0  0  0  0  0
  174.3310   26.9390   51.1920 C   0  0  0  0  0  0  0  0  0  0  0  0
  174.6870   26.8540   52.5400 C   0  0  0  0  0  0  0  0  0  0  0  0
  175.2790   25.6920   53.0290 C   0  0  0  0  0  0  0  0  0  0  0  0
  175.6020   25.6770   54.3590 O   0  0  0  0  0  0  0  0  0  0  0  0
  175.5150   24.6140   52.1730 C   0  0  0  0  0  0  0  0  0  0  0  0
  176.1350   23.3750   52.6470 C   0  0  0  0  0  0  0  0  0  0  0  0
  176.4690   23.2210   53.8190 O   0  0  0  0  0  0  0  0  0  0  0  0
  176.3480   22.2940   51.6570 C   0  0  0  0  0  0  0  0  0  0  0  0
  176.9190   21.1230   52.1170 O   0  0  0  0  0  0  0  0  0  0  0  0
  175.2740   20.3790   49.2310 C   0  0  0  0  0  0  0  0  0  0  0  0
  175.4540   19.4230   48.2270 C   0  0  0  0  0  0  0  0  0  0  0  0
  176.4840   19.5540   47.2840 C   0  0  0  0  0  0  0  0  0  0  0  0
  176.6520   18.5050   46.2140 C   0  0  0  0  0  0  0  0  0  0  0  0
  175.6250   17.6060   46.1700 F   0  0  0  0  0  0  0  0  0  0  0  0
  180.5331   20.8737   46.0667 H   0  0  0  0  0  0  0  0  0  0  0  0
  179.9683   20.4131   47.8271 H   0  0  0  0  0  0  0  0  0  0  0  0
  178.2256   21.1692   45.3939 H   0  0  0  0  0  0  0  0  0  0  0  0
  177.8300   22.4841   48.4388 H   0  0  0  0  0  0  0  0  0  0  0  0
  174.2858   25.9283   49.2757 H   0  0  0  0  0  0  0  0  0  0  0  0
  173.8642   27.8563   50.8038 H   0  0  0  0  0  0  0  0  0  0  0  0
  174.5002   27.7030   53.2140 H   0  0  0  0  0  0  0  0  0  0  0  0
  176.1180   24.9770   54.7080 H   0  0  0  0  0  0  0  0  0  0  0  0
  177.8350   20.9670   51.9900 H   0  0  0  0  0  0  0  0  0  0  0  0
  174.4621   20.2532   49.9624 H   0  0  0  0  0  0  0  0  0  0  0  0
  174.7786   18.5562   48.1759 H   0  0  0  0  0  0  0  0  0  0  0  0
  176.7161   19.0091   45.2384 H   0  0  0  0  0  0  0  0  0  0  0  0
  177.5665   17.9420   46.4519 H   0  0  0  0  0  0  0  0  0  0  0  0
  1  2  2  0
  2  3  1  0
  3  4  2  0
  4  5  1  0
  5  6  1  0
  6  7  1  0
  7  8  1  0
  8  9  2  0
  9 10  1  0
 10 11  2  0
 11 12  1  0
 12 13  1  0
 12 14  2  0
 14 15  1  0
 15 16  2  0
 15 17  1  0
 17 18  1  0
  5 19  2  0
 19 20  1  0
 20 21  2  0
 21 22  1  0
 22 23  1  0
 21  3  1  0
 17  6  2  0
 14  8  1  0
  1 24  1  0
  1 25  1  0
  2 26  1  0
  4 27  1  0
  9 28  1  0
 10 29  1  0
 11 30  1  0
 13 31  1  0
 18 32  1  0
 19 33  1  0
 20 34  1  0
 22 35  1  0
 22 36  1  0
M  END
>  <meeko>  (3) 
{"is_sidechain": [false], "free_energy": -7.219, "intermolecular_energy": -8.817, "internal_energy": -0.507}

$$$$
cand_035_out
     RDKit          3D

 36 38  0  0  0  0  0  0  0  0999 V2000
  175.5510   18.4790   46.9490 C   0  0  0  0  0  0  0  0  0  0  0  0
  176.6970   18.9750   46.4690 C   0  0  0  0  0  0  0  0  0  0  0  0
  177.4620   19.9960   47.1920 C   0  0  0  0  0  0  0  0  0  0  0  0
  176.8150   20.6900   48.2270 C   0  0  0  0  0  0  0  0  0  0  0  0
  177.4770   21.6820   48.9670 C   0  0  0  0  0  0  0  0  0  0  0  0
  176.7560   22.4110   50.0310 C   0  0  0  0  0  0  0  0  0  0  0  0
  175.7090   23.1850   49.5410 O   0  0  0  0  0  0  0  0  0  0  0  0
  174.9550   23.9150   50.4240 C   0  0  0  0  0  0  0  0  0  0  0  0
  173.9240   24.6880   49.8890 C   0  0  0  0  0  0  0  0  0  0  0  0
  173.1170   25.4540   50.7330 C   0  0  0  0  0  0  0  0  0  0  0  0
  173.3410   25.4460   52.1120 C   0  0  0  0  0  0  0  0  0  0  0  0
  174.3710   24.6740   52.6430 C   0  0  0  0  0  0  0  0  0  0  0  0
  174.5330   24.7120   54.0010 O   0  0  0  0  0  0  0  0  0  0  0  0
  175.1780   23.9070   51.7980 C   0  0  0  0  0  0  0  0  0  0  0  0
  176.2700   23.0820   52.3160 C   0  0  0  0  0  0  0  0  0  0  0  0
  176.5250   23.0170   53.5160 O   0  0  0  0  0  0  0  0  0  0  0  0
  177.0710   22.3140   51.3350 C   0  0  0  0  0  0  0  0  0  0  0  0
  178.0910   21.5260   51.8350 O   0  0  0  0  0  0  0  0  0  0  0  0
  178.8040   21.9810   48.6380 C   0  0  0  0  0  0  0  0  0  0  0  0
  179.4570   21.2960   47.6100 C   0  0  0  0  0  0  0  0  0  0  0  0
  178.7990   20.2970   46.8770 C   0  0  0  0  0  0  0  0  0  0  0  0
  179.5320   19.5780   45.7730 C   0  0  0  0  0  0  0  0  0  0  0  0
  179.8220   20.3770   44.7040 F   0  0  0  0  0  0  0  0  0  0  0  0
  175.0021   17.7137   46.3807 H   0  0  0  0  0  0  0  0  0  0  0  0
  175.1576   18.8365   47.9120 H   0  0  0  0  0  0  0  0  0  0  0  0
  177.0763   18.6064   45.5045 H   0  0  0  0  0  0  0  0  0  0  0  0
  175.7674   20.4513   48.4628 H   0  0  0  0  0  0  0  0  0  0  0  0
  173.7469   24.6941   48.8034 H   0  0  0  0  0  0  0  0  0  0  0  0
  172.3044   26.0641   50.3117 H   0  0  0  0  0  0  0  0  0  0  0  0
  172.7048   26.0485   52.7771 H   0  0  0  0  0  0  0  0  0  0  0  0
  175.2790   24.3040   54.3960 H   0  0  0  0  0  0  0  0  0  0  0  0
  178.6910   21.1090   51.2480 H   0  0  0  0  0  0  0  0  0  0  0  0
  179.3391   22.7642   49.1950 H   0  0  0  0  0  0  0  0  0  0  0  0
  180.5020   21.5436   47.3720 H   0  0  0  0  0  0  0  0  0  0  0  0
  180.4750   19.1840   46.1797 H   0  0  0  0  0  0  0  0  0  0  0  0
  178.8691   18.7786   45.4103 H   0  0  0  0  0  0  0  0  0  0  0  0
  1  2  2  0
  2  3  1  0
  3  4  2  0
  4  5  1  0
  5  6  1  0
  6  7  1  0
  7  8  1  0
  8  9  2  0
  9 10  1  0
 10 11  2  0
 11 12  1  0
 12 13  1  0
 12 14  2  0
 14 15  1  0
 15 16  2  0
 15 17  1  0
 17 18  1  0
  5 19  2  0
 19 20  1  0
 20 21  2  0
 21 22  1  0
 22 23  1  0
 21  3  1  0
 17  6  2  0
 14  8  1  0
  1 24  1  0
  1 25  1  0
  2 26  1  0
  4 27  1  0
  9 28  1  0
 10 29  1  0
 11 30  1  0
 13 31  1  0
 18 32  1  0
 19 33  1  0
 20 34  1  0
 22 35  1  0
 22 36  1  0
M  END
>  <meeko>  (4) 
{"is_sidechain": [false], "free_energy": -7.197, "intermolecular_energy": -8.817, "internal_energy": -0.479}

$$$$
cand_035_out
     RDKit          3D

 36 38  0  0  0  0  0  0  0  0999 V2000
  174.3420   26.9290   51.4300 C   0  0  0  0  0  0  0  0  0  0  0  0
  174.3430   26.4460   50.1820 C   0  0  0  0  0  0  0  0  0  0  0  0
  174.5620   25.0240   49.9030 C   0  0  0  0  0  0  0  0  0  0  0  0
  175.8730   24.5290   50.0030 C   0  0  0  0  0  0  0  0  0  0  0  0
  176.1660   23.1800   49.7510 C   0  0  0  0  0  0  0  0  0  0  0  0
  177.5610   22.7010   49.8400 C   0  0  0  0  0  0  0  0  0  0  0  0
  177.9670   22.0080   48.7050 O   0  0  0  0  0  0  0  0  0  0  0  0
  179.2420   21.5070   48.6550 C   0  0  0  0  0  0  0  0  0  0  0  0
  179.6030   20.8060   47.5030 C   0  0  0  0  0  0  0  0  0  0  0  0
  180.8880   20.2720   47.3870 C   0  0  0  0  0  0  0  0  0  0  0  0
  181.8120   20.4380   48.4210 C   0  0  0  0  0  0  0  0  0  0  0  0
  181.4490   21.1380   49.5690 C   0  0  0  0  0  0  0  0  0  0  0  0
  182.4020   21.2640   50.5420 O   0  0  0  0  0  0  0  0  0  0  0  0
  180.1630   21.6720   49.6850 C   0  0  0  0  0  0  0  0  0  0  0  0
  179.7420   22.4140   50.8750 C   0  0  0  0  0  0  0  0  0  0  0  0
  180.4990   22.6100   51.8230 O   0  0  0  0  0  0  0  0  0  0  0  0
  178.3550   22.9340   50.9010 C   0  0  0  0  0  0  0  0  0  0  0  0
  177.9710   23.6460   52.0220 O   0  0  0  0  0  0  0  0  0  0  0  0
  175.1180   22.3320   49.3790 C   0  0  0  0  0  0  0  0  0  0  0  0
  173.8100   22.8130   49.2760 C   0  0  0  0  0  0  0  0  0  0  0  0
  173.5150   24.1590   49.5380 C   0  0  0  0  0  0  0  0  0  0  0  0
  172.0940   24.6480   49.4170 C   0  0  0  0  0  0  0  0  0  0  0  0
  171.3570   23.9530   48.5000 F   0  0  0  0  0  0  0  0  0  0  0  0
  174.1744   28.0021   51.6043 H   0  0  0  0  0  0  0  0  0  0  0  0
  174.5087   26.2529   52.2815 H   0  0  0  0  0  0  0  0  0  0  0  0
  174.1747   27.1358   49.3418 H   0  0  0  0  0  0  0  0  0  0  0  0
  176.6869   25.2133   50.2847 H   0  0  0  0  0  0  0  0  0  0  0  0
  178.8762   20.6745   46.6878 H   0  0  0  0  0  0  0  0  0  0  0  0
  181.1730   19.7195   46.4795 H   0  0  0  0  0  0  0  0  0  0  0  0
  182.8240   20.0169   48.3289 H   0  0  0  0  0  0  0  0  0  0  0  0
  182.6910   22.1150   50.8080 H   0  0  0  0  0  0  0  0  0  0  0  0
  177.1810   24.1510   52.0090 H   0  0  0  0  0  0  0  0  0  0  0  0
  175.3259   21.2733   49.1648 H   0  0  0  0  0  0  0  0  0  0  0  0
  173.0008   22.1268   48.9855 H   0  0  0  0  0  0  0  0  0  0  0  0
  171.6078   24.5531   50.3992 H   0  0  0  0  0  0  0  0  0  0  0  0
  172.1381   25.6922   49.0739 H   0  0  0  0  0  0  0  0  0  0  0  0
  1  2  2  0
  2  3  1  0
  3  4  2  0
  4  5  1  0
  5  6  1  0
  6  7  1  0
  7  8  1  0
  8  9  2  0
  9 10  1  0
 10 11  2  0
 11 12  1  0
 12 13  1  0
 12 14  2  0
 14 15  1  0
 15 16  2  0
 15 17  1  0
 17 18  1  0
  5 19  2  0
 19 20  1  0
 20 21  2  0
 21 22  1  0
 22 23  1  0
 21  3  1  0
 17  6  2  0
 14  8  1  0
  1 24  1  0
  1 25  1  0
  2 26  1  0
  4 27  1  0
  9 28  1  0
 10 29  1  0
 11 30  1  0
 13 31  1  0
 18 32  1  0
 19 33  1  0
 20 34  1  0
 22 35  1  0
 22 36  1  0
M  END
>  <meeko>  (5) 
{"is_sidechain": [false], "free_energy": -7.117, "intermolecular_energy": -8.937, "internal_energy": -0.261}

$$$$
cand_035_out
     RDKit          3D

 36 38  0  0  0  0  0  0  0  0999 V2000
  175.1420   18.5800   47.0390 C   0  0  0  0  0  0  0  0  0  0  0  0
  175.9100   19.0480   48.0300 C   0  0  0  0  0  0  0  0  0  0  0  0
  176.0280   20.4820   48.3070 C   0  0  0  0  0  0  0  0  0  0  0  0
  175.2270   21.0220   49.3280 C   0  0  0  0  0  0  0  0  0  0  0  0
  175.2800   22.3850   49.6540 C   0  0  0  0  0  0  0  0  0  0  0  0
  174.4030   22.9220   50.7150 C   0  0  0  0  0  0  0  0  0  0  0  0
  175.1040   23.2940   51.8580 O   0  0  0  0  0  0  0  0  0  0  0  0
  174.4110   23.8090   52.9220 C   0  0  0  0  0  0  0  0  0  0  0  0
  175.1520   24.1560   54.0530 C   0  0  0  0  0  0  0  0  0  0  0  0
  174.5070   24.6890   55.1720 C   0  0  0  0  0  0  0  0  0  0  0  0
  173.1230   24.8740   55.1600 C   0  0  0  0  0  0  0  0  0  0  0  0
  172.3860   24.5270   54.0300 C   0  0  0  0  0  0  0  0  0  0  0  0
  171.0350   24.7370   54.0860 O   0  0  0  0  0  0  0  0  0  0  0  0
  173.0320   23.9940   52.9110 C   0  0  0  0  0  0  0  0  0  0  0  0
  172.2940   23.6170   51.7040 C   0  0  0  0  0  0  0  0  0  0  0  0
  171.0770   23.7580   51.6130 O   0  0  0  0  0  0  0  0  0  0  0  0
  173.0720   23.0550   50.5760 C   0  0  0  0  0  0  0  0  0  0  0  0
  172.3690   22.7150   49.4340 O   0  0  0  0  0  0  0  0  0  0  0  0
  176.1430   23.2090   48.9240 C   0  0  0  0  0  0  0  0  0  0  0  0
  176.9440   22.6840   47.9070 C   0  0  0  0  0  0  0  0  0  0  0  0
  176.8990   21.3180   47.5870 C   0  0  0  0  0  0  0  0  0  0  0  0
  177.7750   20.7830   46.4830 C   0  0  0  0  0  0  0  0  0  0  0  0
  177.0980   20.5420   45.3210 F   0  0  0  0  0  0  0  0  0  0  0  0
  175.0763   17.4969   46.8587 H   0  0  0  0  0  0  0  0  0  0  0  0
  174.5764   19.2785   46.4047 H   0  0  0  0  0  0  0  0  0  0  0  0
  176.4688   18.3356   48.6546 H   0  0  0  0  0  0  0  0  0  0  0  0
  174.5443   20.3617   49.8829 H   0  0  0  0  0  0  0  0  0  0  0  0
  176.2422   24.0100   54.0633 H   0  0  0  0  0  0  0  0  0  0  0  0
  175.0902   24.9632   56.0635 H   0  0  0  0  0  0  0  0  0  0  0  0
  172.6155   25.2931   56.0414 H   0  0  0  0  0  0  0  0  0  0  0  0
  170.4940   24.1750   54.6050 H   0  0  0  0  0  0  0  0  0  0  0  0
  172.8040   22.2750   48.7300 H   0  0  0  0  0  0  0  0  0  0  0  0
  176.1915   24.2837   49.1536 H   0  0  0  0  0  0  0  0  0  0  0  0
  177.6190   23.3500   47.3495 H   0  0  0  0  0  0  0  0  0  0  0  0
  178.5669   21.5187   46.2789 H   0  0  0  0  0  0  0  0  0  0  0  0
  178.1803   19.8203   46.8280 H   0  0  0  0  0  0  0  0  0  0  0  0
  1  2  2  0
  2  3  1  0
  3  4  2  0
  4  5  1  0
  5  6  1  0
  6  7  1  0
  7  8  1  0
  8  9  2  0
  9 10  1  0
 10 11  2  0
 11 12  1  0
 12 13  1  0
 12 14  2  0
 14 15  1  0
 15 16  2  0
 15 17  1  0
 17 18  1  0
  5 19  2  0
 19 20  1  0
 20 21  2  0
 21 22  1  0
 22 23  1  0
 21  3  1  0
 17  6  2  0
 14  8  1  0
  1 24  1  0
  1 25  1  0
  2 26  1  0
  4 27  1  0
  9 28  1  0
 10 29  1  0
 11 30  1  0
 13 31  1  0
 18 32  1  0
 19 33  1  0
 20 34  1  0
 22 35  1  0
 22 36  1  0
M  END
>  <meeko>  (6) 
{"is_sidechain": [false], "free_energy": -7.114, "intermolecular_energy": -8.747, "internal_energy": -0.447}

$$$$
cand_035_out
     RDKit          3D

 36 38  0  0  0  0  0  0  0  0999 V2000
  178.9900   24.0470   47.9010 C   0  0  0  0  0  0  0  0  0  0  0  0
  177.8280   23.7000   47.3350 C   0  0  0  0  0  0  0  0  0  0  0  0
  176.9100   22.7520   47.9720 C   0  0  0  0  0  0  0  0  0  0  0  0
  176.0680   23.2360   48.9890 C   0  0  0  0  0  0  0  0  0  0  0  0
  175.1610   22.3930   49.6480 C   0  0  0  0  0  0  0  0  0  0  0  0
  174.3110   22.9300   50.7310 C   0  0  0  0  0  0  0  0  0  0  0  0
  175.0390   23.2940   51.8580 O   0  0  0  0  0  0  0  0  0  0  0  0
  174.3720   23.8090   52.9400 C   0  0  0  0  0  0  0  0  0  0  0  0
  175.1400   24.1490   54.0550 C   0  0  0  0  0  0  0  0  0  0  0  0
  174.5230   24.6800   55.1900 C   0  0  0  0  0  0  0  0  0  0  0  0
  173.1390   24.8720   55.2100 C   0  0  0  0  0  0  0  0  0  0  0  0
  172.3760   24.5320   54.0950 C   0  0  0  0  0  0  0  0  0  0  0  0
  171.0280   24.7480   54.1820 O   0  0  0  0  0  0  0  0  0  0  0  0
  172.9940   24.0000   52.9600 C   0  0  0  0  0  0  0  0  0  0  0  0
  172.2280   23.6310   51.7690 C   0  0  0  0  0  0  0  0  0  0  0  0
  171.0100   23.7770   51.7060 O   0  0  0  0  0  0  0  0  0  0  0  0
  172.9770   23.0690   50.6210 C   0  0  0  0  0  0  0  0  0  0  0  0
  172.2480   22.7370   49.4950 O   0  0  0  0  0  0  0  0  0  0  0  0
  175.1220   21.0430   49.2820 C   0  0  0  0  0  0  0  0  0  0  0  0
  175.9540   20.5510   48.2720 C   0  0  0  0  0  0  0  0  0  0  0  0
  176.8540   21.3960   47.6050 C   0  0  0  0  0  0  0  0  0  0  0  0
  177.7390   20.8340   46.5220 C   0  0  0  0  0  0  0  0  0  0  0  0
  177.0530   20.4510   45.4050 F   0  0  0  0  0  0  0  0  0  0  0  0
  179.6562   24.7617   47.3956 H   0  0  0  0  0  0  0  0  0  0  0  0
  179.2789   23.6175   48.8716 H   0  0  0  0  0  0  0  0  0  0  0  0
  177.5543   24.1388   46.3642 H   0  0  0  0  0  0  0  0  0  0  0  0
  176.1217   24.2972   49.2735 H   0  0  0  0  0  0  0  0  0  0  0  0
  176.2296   23.9989   54.0398 H   0  0  0  0  0  0  0  0  0  0  0  0
  175.1274   24.9474   56.0693 H   0  0  0  0  0  0  0  0  0  0  0  0
  172.6532   25.2905   56.1038 H   0  0  0  0  0  0  0  0  0  0  0  0
  170.7030   25.5880   54.4400 H   0  0  0  0  0  0  0  0  0  0  0  0
  172.2230   23.3220   48.7630 H   0  0  0  0  0  0  0  0  0  0  0  0
  174.4284   20.3607   49.7951 H   0  0  0  0  0  0  0  0  0  0  0  0
  175.9024   19.4873   47.9965 H   0  0  0  0  0  0  0  0  0  0  0  0
  178.4705   21.6038   46.2350 H   0  0  0  0  0  0  0  0  0  0  0  0
  178.2212   19.9340   46.9313 H   0  0  0  0  0  0  0  0  0  0  0  0
  1  2  2  0
  2  3  1  0
  3  4  2  0
  4  5  1  0
  5  6  1  0
  6  7  1  0
  7  8  1  0
  8  9  2  0
  9 10  1  0
 10 11  2  0
 11 12  1  0
 12 13  1  0
 12 14  2  0
 14 15  1  0
 15 16  2  0
 15 17  1  0
 17 18  1  0
  5 19  2  0
 19 20  1  0
 20 21  2  0
 21 22  1  0
 22 23  1  0
 21  3  1  0
 17  6  2  0
 14  8  1  0
  1 24  1  0
  1 25  1  0
  2 26  1  0
  4 27  1  0
  9 28  1  0
 10 29  1  0
 11 30  1  0
 13 31  1  0
 18 32  1  0
 19 33  1  0
 20 34  1  0
 22 35  1  0
 22 36  1  0
M  END
>  <meeko>  (7) 
{"is_sidechain": [false], "free_energy": -7.069, "intermolecular_energy": -8.633, "internal_energy": -0.505}

$$$$
cand_035_out
     RDKit          3D

 36 38  0  0  0  0  0  0  0  0999 V2000
  182.1930   21.2240   48.1650 C   0  0  0  0  0  0  0  0  0  0  0  0
  181.2530   21.6140   47.2970 C   0  0  0  0  0  0  0  0  0  0  0  0
  179.8510   21.2070   47.4390 C   0  0  0  0  0  0  0  0  0  0  0  0
  179.0840   21.8340   48.4350 C   0  0  0  0  0  0  0  0  0  0  0  0
  177.7360   21.5010   48.6350 C   0  0  0  0  0  0  0  0  0  0  0  0
  176.9660   22.1610   49.7100 C   0  0  0  0  0  0  0  0  0  0  0  0
  175.9030   22.9160   49.2280 O   0  0  0  0  0  0  0  0  0  0  0  0
  175.1050   23.5840   50.1200 C   0  0  0  0  0  0  0  0  0  0  0  0
  174.0570   24.3400   49.5920 C   0  0  0  0  0  0  0  0  0  0  0  0
  173.2060   25.0430   50.4470 C   0  0  0  0  0  0  0  0  0  0  0  0
  173.4010   24.9900   51.8290 C   0  0  0  0  0  0  0  0  0  0  0  0
  174.4470   24.2340   52.3530 C   0  0  0  0  0  0  0  0  0  0  0  0
  174.5790   24.2250   53.7150 O   0  0  0  0  0  0  0  0  0  0  0  0
  175.2990   23.5310   51.4970 C   0  0  0  0  0  0  0  0  0  0  0  0
  176.4090   22.7250   52.0080 C   0  0  0  0  0  0  0  0  0  0  0  0
  176.6400   22.6220   53.2100 O   0  0  0  0  0  0  0  0  0  0  0  0
  177.2580   22.0250   51.0170 C   0  0  0  0  0  0  0  0  0  0  0  0
  178.2950   21.2540   51.5080 O   0  0  0  0  0  0  0  0  0  0  0  0
  177.1690   20.5100   47.8260 C   0  0  0  0  0  0  0  0  0  0  0  0
  177.9240   19.8800   46.8330 C   0  0  0  0  0  0  0  0  0  0  0  0
  179.2690   20.2200   46.6250 C   0  0  0  0  0  0  0  0  0  0  0  0
  180.0550   19.5210   45.5450 C   0  0  0  0  0  0  0  0  0  0  0  0
  180.1290   20.2300   44.3810 F   0  0  0  0  0  0  0  0  0  0  0  0
  183.2355   21.5476   48.0290 H   0  0  0  0  0  0  0  0  0  0  0  0
  181.9235   20.5797   49.0149 H   0  0  0  0  0  0  0  0  0  0  0  0
  181.5395   22.2583   46.4527 H   0  0  0  0  0  0  0  0  0  0  0  0
  179.5497   22.6014   49.0708 H   0  0  0  0  0  0  0  0  0  0  0  0
  173.9019   24.3818   48.5038 H   0  0  0  0  0  0  0  0  0  0  0  0
  172.3805   25.6396   50.0315 H   0  0  0  0  0  0  0  0  0  0  0  0
  172.7301   25.5440   52.5021 H   0  0  0  0  0  0  0  0  0  0  0  0
  175.3870   23.9570   54.1060 H   0  0  0  0  0  0  0  0  0  0  0  0
  179.0850   21.6640   51.8030 H   0  0  0  0  0  0  0  0  0  0  0  0
  176.1172   20.2236   47.9733 H   0  0  0  0  0  0  0  0  0  0  0  0
  177.4570   19.1065   46.2056 H   0  0  0  0  0  0  0  0  0  0  0  0
  181.0770   19.3492   45.9138 H   0  0  0  0  0  0  0  0  0  0  0  0
  179.5300   18.5812   45.3190 H   0  0  0  0  0  0  0  0  0  0  0  0
  1  2  2  0
  2  3  1  0
  3  4  2  0
  4  5  1  0
  5  6  1  0
  6  7  1  0
  7  8  1  0
  8  9  2  0
  9 10  1  0
 10 11  2  0
 11 12  1  0
 12 13  1  0
 12 14  2  0
 14 15  1  0
 15 16  2  0
 15 17  1  0
 17 18  1  0
  5 19  2  0
 19 20  1  0
 20 21  2  0
 21 22  1  0
 22 23  1  0
 21  3  1  0
 17  6  2  0
 14  8  1  0
  1 24  1  0
  1 25  1  0
  2 26  1  0
  4 27  1  0
  9 28  1  0
 10 29  1  0
 11 30  1  0
 13 31  1  0
 18 32  1  0
 19 33  1  0
 20 34  1  0
 22 35  1  0
 22 36  1  0
M  END
>  <meeko>  (8) 
{"is_sidechain": [false], "free_energy": -6.988, "intermolecular_energy": -8.572, "internal_energy": -0.466}

$$$$
cand_035_out
     RDKit          3D

 36 38  0  0  0  0  0  0  0  0999 V2000
  177.4610   23.8570   47.7580 C   0  0  0  0  0  0  0  0  0  0  0  0
  177.3270   22.5540   47.4840 C   0  0  0  0  0  0  0  0  0  0  0  0
  178.4890   21.6810   47.2910 C   0  0  0  0  0  0  0  0  0  0  0  0
  179.7350   22.1340   47.7560 C   0  0  0  0  0  0  0  0  0  0  0  0
  180.8950   21.3580   47.6090 C   0  0  0  0  0  0  0  0  0  0  0  0
  182.1930   21.8780   48.0860 C   0  0  0  0  0  0  0  0  0  0  0  0
  182.9040   22.5450   47.0940 O   0  0  0  0  0  0  0  0  0  0  0  0
  184.1290   23.0790   47.4020 C   0  0  0  0  0  0  0  0  0  0  0  0
  184.8150   23.7280   46.3750 C   0  0  0  0  0  0  0  0  0  0  0  0
  186.0670   24.2950   46.6220 C   0  0  0  0  0  0  0  0  0  0  0  0
  186.6320   24.2150   47.8970 C   0  0  0  0  0  0  0  0  0  0  0  0
  185.9460   23.5660   48.9200 C   0  0  0  0  0  0  0  0  0  0  0  0
  186.5570   23.5260   50.1440 O   0  0  0  0  0  0  0  0  0  0  0  0
  184.6930   22.9990   48.6720 C   0  0  0  0  0  0  0  0  0  0  0  0
  183.9390   22.3090   49.7210 C   0  0  0  0  0  0  0  0  0  0  0  0
  184.3660   22.2040   50.8680 O   0  0  0  0  0  0  0  0  0  0  0  0
  182.6240   21.7360   49.3520 C   0  0  0  0  0  0  0  0  0  0  0  0
  181.9120   21.1000   50.3520 O   0  0  0  0  0  0  0  0  0  0  0  0
  180.7880   20.1190   46.9680 C   0  0  0  0  0  0  0  0  0  0  0  0
  179.5540   19.6590   46.5010 C   0  0  0  0  0  0  0  0  0  0  0  0
  178.3920   20.4290   46.6580 C   0  0  0  0  0  0  0  0  0  0  0  0
  177.0760   19.9050   46.1420 C   0  0  0  0  0  0  0  0  0  0  0  0
  176.9660   18.5460   46.2180 F   0  0  0  0  0  0  0  0  0  0  0  0
  176.5683   24.4844   47.8971 H   0  0  0  0  0  0  0  0  0  0  0  0
  178.4639   24.3006   47.8441 H   0  0  0  0  0  0  0  0  0  0  0  0
  176.3170   22.1261   47.4013 H   0  0  0  0  0  0  0  0  0  0  0  0
  179.8027   23.1169   48.2452 H   0  0  0  0  0  0  0  0  0  0  0  0
  184.3699   23.7930   45.3712 H   0  0  0  0  0  0  0  0  0  0  0  0
  186.6088   24.8051   45.8119 H   0  0  0  0  0  0  0  0  0  0  0  0
  187.6170   24.6639   48.0924 H   0  0  0  0  0  0  0  0  0  0  0  0
  187.4880   23.6190   50.2070 H   0  0  0  0  0  0  0  0  0  0  0  0
  181.1990   20.5330   50.1320 H   0  0  0  0  0  0  0  0  0  0  0  0
  181.6863   19.4994   46.8300 H   0  0  0  0  0  0  0  0  0  0  0  0
  179.4929   18.6798   46.0035 H   0  0  0  0  0  0  0  0  0  0  0  0
  176.2654   20.3541   46.7346 H   0  0  0  0  0  0  0  0  0  0  0  0
  177.0130   20.1769   45.0780 H   0  0  0  0  0  0  0  0  0  0  0  0
  1  2  2  0
  2  3  1  0
  3  4  2  0
  4  5  1  0
  5  6  1  0
  6  7  1  0
  7  8  1  0
  8  9  2  0
  9 10  1  0
 10 11  2  0
 11 12  1  0
 12 13  1  0
 12 14  2  0
 14 15  1  0
 15 16  2  0
 15 17  1  0
 17 18  1  0
  5 19  2  0
 19 20  1  0
 20 21  2  0
 21 22  1  0
 22 23  1  0
 21  3  1  0
 17  6  2  0
 14  8  1  0
  1 24  1  0
  1 25  1  0
  2 26  1  0
  4 27  1  0
  9 28  1  0
 10 29  1  0
 11 30  1  0
 13 31  1  0
 18 32  1  0
 19 33  1  0
 20 34  1  0
 22 35  1  0
 22 36  1  0
M  END
>  <meeko>  (9) 
{"is_sidechain": [false], "free_energy": -6.986, "intermolecular_energy": -8.492, "internal_energy": -0.545}

$$$$
