cand_053_out
     RDKit          3D

 44 46  0  0  0  0  0  0  0  0999 V2000
  181.1720   15.2000   40.3570 C   0  0  0  0  0  0  0  0  0  0  0  0
  181.1800   14.4100   41.6560 C   0  0  0  0  0  0  0  0  0  0  0  0
  182.1340   15.0300   42.6790 C   0  0  0  0  0  0  0  0  0  0  0  0
  181.4180   15.9910   43.6030 C   0  0  0  0  0  0  0  0  0  0  0  0
  181.5800   17.3700   43.3780 C   0  0  0  0  0  0  0  0  0  0  0  0
  180.9370   18.3130   44.1840 C   0  0  0  0  0  0  0  0  0  0  0  0
  180.1070   17.9080   45.2330 C   0  0  0  0  0  0  0  0  0  0  0  0
  179.4600   18.9210   46.0930 C   0  0  0  0  0  0  0  0  0  0  0  0
  178.0740   18.8110   46.1090 O   0  0  0  0  0  0  0  0  0  0  0  0
  177.3470   19.6920   46.8690 C   0  0  0  0  0  0  0  0  0  0  0  0
  175.9590   19.5540   46.8420 C   0  0  0  0  0  0  0  0  0  0  0  0
  175.1580   20.4170   47.5950 C   0  0  0  0  0  0  0  0  0  0  0  0
  175.7470   21.4160   48.3740 C   0  0  0  0  0  0  0  0  0  0  0  0
  177.1330   21.5510   48.3970 C   0  0  0  0  0  0  0  0  0  0  0  0
  177.6430   22.5500   49.1810 O   0  0  0  0  0  0  0  0  0  0  0  0
  177.9330   20.6870   47.6430 C   0  0  0  0  0  0  0  0  0  0  0  0
  179.3920   20.7940   47.6400 C   0  0  0  0  0  0  0  0  0  0  0  0
  179.9840   21.6420   48.3060 O   0  0  0  0  0  0  0  0  0  0  0  0
  180.1480   19.8360   46.8010 C   0  0  0  0  0  0  0  0  0  0  0  0
  181.5270   19.9380   46.8170 O   0  0  0  0  0  0  0  0  0  0  0  0
  179.9470   16.5340   45.4600 C   0  0  0  0  0  0  0  0  0  0  0  0
  180.5810   15.5660   44.6530 C   0  0  0  0  0  0  0  0  0  0  0  0
  180.3480   14.1090   44.9830 C   0  0  0  0  0  0  0  0  0  0  0  0
  178.9060   13.6930   44.7380 C   0  0  0  0  0  0  0  0  0  0  0  0
  181.1611   16.2766   40.5826 H   0  0  0  0  0  0  0  0  0  0  0  0
  182.0727   14.9566   39.7743 H   0  0  0  0  0  0  0  0  0  0  0  0
  180.2765   14.9384   39.7743 H   0  0  0  0  0  0  0  0  0  0  0  0
  180.1630   14.3995   42.0751 H   0  0  0  0  0  0  0  0  0  0  0  0
  181.5221   13.3875   41.4380 H   0  0  0  0  0  0  0  0  0  0  0  0
  182.5834   14.2258   43.2801 H   0  0  0  0  0  0  0  0  0  0  0  0
  182.9052   15.5917   42.1315 H   0  0  0  0  0  0  0  0  0  0  0  0
  182.2235   17.7117   42.5539 H   0  0  0  0  0  0  0  0  0  0  0  0
  181.0856   19.3857   43.9908 H   0  0  0  0  0  0  0  0  0  0  0  0
  175.4956   18.7670   46.2289 H   0  0  0  0  0  0  0  0  0  0  0  0
  174.0635   20.3096   47.5743 H   0  0  0  0  0  0  0  0  0  0  0  0
  175.1173   22.0947   48.9681 H   0  0  0  0  0  0  0  0  0  0  0  0
  178.1630   22.3370   49.9310 H   0  0  0  0  0  0  0  0  0  0  0  0
  182.0540   19.1760   46.6810 H   0  0  0  0  0  0  0  0  0  0  0  0
  179.3086   16.2009   46.2915 H   0  0  0  0  0  0  0  0  0  0  0  0
  181.0072   13.4926   44.3541 H   0  0  0  0  0  0  0  0  0  0  0  0
  180.5669   13.9633   46.0511 H   0  0  0  0  0  0  0  0  0  0  0  0
  178.3978   13.5464   45.7025 H   0  0  0  0  0  0  0  0  0  0  0  0
  178.3896   14.4788   44.1672 H   0  0  0  0  0  0  0  0  0  0  0  0
  178.8875   12.7529   44.1672 H   0  0  0  0  0  0  0  0  0  0  0  0
  1  2  1  0
  2  3  1  0
  3  4  1  0
  4  5  2  0
  5  6  1  0
  6  7  2  0
  7  8  1  0
  8  9  1  0
  9 10  1  0
 10 11  2  0
 11 12  1  0
 12 13  2  0
 13 14  1  0
 14 15  1  0
 14 16  2  0
 16 17  1  0
 17 18  2  0
 17 19  1  0
 19 20  1  0
  7 21  1  0
 21 22  2  0
 22 23  1  0
 23 24  1  0
 22  4  1  0
 19  8  2  0
 16 10  1  0
  1 25  1  0
  1 26  1  0
  1 27  1  0
  2 28  1  0
  2 29  1  0
  3 30  1  0
  3 31  1  0
  5 32  1  0
  6 33  1  0
 11 34  1  0
 12 35  1  0
 13 36  1  0
 15 37  1  0
 20 38  1  0
 21 39  1  0
 23 40  1  0
 23 41  1  0
 24 42  1  0
 24 43  1  0
 24 44  1  0
M  END
>  <meeko>  (1) 
{"is_sidechain": [false], "free_energy": -8.286, "intermolecular_energy": -10.708, "internal_energy": -0.584}

$$$$
cand_053_out
     RDKit          3D

 44 46  0  0  0  0  0  0  0  0999 V2000
  175.6140   19.5840   48.7080 C   0  0  0  0  0  0  0  0  0  0  0  0
  175.9390   19.2160   47.2690 C   0  0  0  0  0  0  0  0  0  0  0  0
  176.4350   20.4300   46.4820 C   0  0  0  0  0  0  0  0  0  0  0  0
  177.7830   20.9080   46.9770 C   0  0  0  0  0  0  0  0  0  0  0  0
  178.8750   20.0300   46.8710 C   0  0  0  0  0  0  0  0  0  0  0  0
  180.1510   20.4090   47.2950 C   0  0  0  0  0  0  0  0  0  0  0  0
  180.3750   21.6800   47.8310 C   0  0  0  0  0  0  0  0  0  0  0  0
  181.7260   22.0520   48.3040 C   0  0  0  0  0  0  0  0  0  0  0  0
  182.5460   22.5200   47.2830 O   0  0  0  0  0  0  0  0  0  0  0  0
  183.8290   22.9000   47.5830 C   0  0  0  0  0  0  0  0  0  0  0  0
  184.6200   23.3480   46.5240 C   0  0  0  0  0  0  0  0  0  0  0  0
  185.9360   23.7530   46.7610 C   0  0  0  0  0  0  0  0  0  0  0  0
  186.4590   23.7090   48.0560 C   0  0  0  0  0  0  0  0  0  0  0  0
  185.6660   23.2610   49.1090 C   0  0  0  0  0  0  0  0  0  0  0  0
  186.2410   23.2440   50.3510 O   0  0  0  0  0  0  0  0  0  0  0  0
  184.3500   22.8560   48.8710 C   0  0  0  0  0  0  0  0  0  0  0  0
  183.4840   22.3790   49.9500 C   0  0  0  0  0  0  0  0  0  0  0  0
  183.8700   22.3200   51.1160 O   0  0  0  0  0  0  0  0  0  0  0  0
  182.1080   21.9660   49.5910 C   0  0  0  0  0  0  0  0  0  0  0  0
  181.2940   21.5290   50.6210 O   0  0  0  0  0  0  0  0  0  0  0  0
  179.2870   22.5560   47.9410 C   0  0  0  0  0  0  0  0  0  0  0  0
  177.9930   22.1950   47.5100 C   0  0  0  0  0  0  0  0  0  0  0  0
  176.8840   23.2090   47.6760 C   0  0  0  0  0  0  0  0  0  0  0  0
  176.3930   23.2870   49.1140 C   0  0  0  0  0  0  0  0  0  0  0  0
  176.1854   18.9370   49.3899 H   0  0  0  0  0  0  0  0  0  0  0  0
  175.8840   20.6351   48.8876 H   0  0  0  0  0  0  0  0  0  0  0  0
  174.5376   19.4461   48.8876 H   0  0  0  0  0  0  0  0  0  0  0  0
  176.7213   18.4427   47.2651 H   0  0  0  0  0  0  0  0  0  0  0  0
  175.0210   18.8442   46.7905 H   0  0  0  0  0  0  0  0  0  0  0  0
  176.5226   20.1548   45.4206 H   0  0  0  0  0  0  0  0  0  0  0  0
  175.7108   21.2463   46.6202 H   0  0  0  0  0  0  0  0  0  0  0  0
  178.7224   19.0267   46.4467 H   0  0  0  0  0  0  0  0  0  0  0  0
  180.9874   19.7002   47.2061 H   0  0  0  0  0  0  0  0  0  0  0  0
  184.2081   23.3822   45.5046 H   0  0  0  0  0  0  0  0  0  0  0  0
  186.5608   24.1067   45.9276 H   0  0  0  0  0  0  0  0  0  0  0  0
  187.4951   24.0277   48.2431 H   0  0  0  0  0  0  0  0  0  0  0  0
  186.5690   22.4410   50.7040 H   0  0  0  0  0  0  0  0  0  0  0  0
  180.3910   21.3410   50.4570 H   0  0  0  0  0  0  0  0  0  0  0  0
  179.4463   23.5538   48.3759 H   0  0  0  0  0  0  0  0  0  0  0  0
  177.2593   24.1982   47.3748 H   0  0  0  0  0  0  0  0  0  0  0  0
  176.0393   22.8947   47.0453 H   0  0  0  0  0  0  0  0  0  0  0  0
  177.2427   23.1520   49.7994 H   0  0  0  0  0  0  0  0  0  0  0  0
  175.9316   24.2697   49.2911 H   0  0  0  0  0  0  0  0  0  0  0  0
  175.6498   22.4957   49.2911 H   0  0  0  0  0  0  0  0  0  0  0  0
  1  2  1  0
  2  3  1  0
  3  4  1  0
  4  5  2  0
  5  6  1  0
  6  7  2  0
  7  8  1  0
  8  9  1  0
  9 10  1  0
 10 11  2  0
 11 12  1  0
 12 13  2  0
 13 14  1  0
 14 15  1  0
 14 16  2  0
 16 17  1  0
 17 18  2  0
 17 19  1  0
 19 20  1  0
  7 21  1  0
 21 22  2  0
 22 23  1  0
 23 24  1  0
 22  4  1  0
 19  8  2  0
 16 10  1  0
  1 25  1  0
  1 26  1  0
  1 27  1  0
  2 28  1  0
  2 29  1  0
  3 30  1  0
  3 31  1  0
  5 32  1  0
  6 33  1  0
 11 34  1  0
 12 35  1  0
 13 36  1  0
 15 37  1  0
 20 38  1  0
 21 39  1  0
 23 40  1  0
 23 41  1  0
 24 42  1  0
 24 43  1  0
 24 44  1  0
M  END
>  <meeko>  (2) 
{"is_sidechain": [false], "free_energy": -7.418, "intermolecular_energy": -9.156, "internal_energy": -1.015}

$$$$
cand_053_out
     RDKit          3D

 44 46  0  0  0  0  0  0  0  0999 V2000
  179.7230   20.0900   46.9710 C   0  0  0  0  0  0  0  0  0  0  0  0
  178.3090   19.6600   46.6120 C   0  0  0  0  0  0  0  0  0  0  0  0
  177.4590   20.8530   46.1710 C   0  0  0  0  0  0  0  0  0  0  0  0
  176.6810   21.4450   47.3260 C   0  0  0  0  0  0  0  0  0  0  0  0
  175.6430   20.6790   47.8860 C   0  0  0  0  0  0  0  0  0  0  0  0
  174.8930   21.1560   48.9620 C   0  0  0  0  0  0  0  0  0  0  0  0
  175.1620   22.4100   49.5190 C   0  0  0  0  0  0  0  0  0  0  0  0
  174.3360   22.9110   50.6380 C   0  0  0  0  0  0  0  0  0  0  0  0
  175.0940   23.2900   51.7410 O   0  0  0  0  0  0  0  0  0  0  0  0
  174.4530   23.7730   52.8530 C   0  0  0  0  0  0  0  0  0  0  0  0
  175.2520   24.1260   53.9410 C   0  0  0  0  0  0  0  0  0  0  0  0
  174.6630   24.6280   55.1040 C   0  0  0  0  0  0  0  0  0  0  0  0
  173.2760   24.7770   55.1770 C   0  0  0  0  0  0  0  0  0  0  0  0
  172.4820   24.4240   54.0890 C   0  0  0  0  0  0  0  0  0  0  0  0
  171.1320   24.5960   54.2290 O   0  0  0  0  0  0  0  0  0  0  0  0
  173.0720   23.9220   52.9270 C   0  0  0  0  0  0  0  0  0  0  0  0
  172.2740   23.5390   51.7610 C   0  0  0  0  0  0  0  0  0  0  0  0
  171.0490   23.6490   51.7460 O   0  0  0  0  0  0  0  0  0  0  0  0
  172.9950   23.0100   50.5810 C   0  0  0  0  0  0  0  0  0  0  0  0
  172.2320   22.6640   49.4800 O   0  0  0  0  0  0  0  0  0  0  0  0
  176.1930   23.1770   48.9600 C   0  0  0  0  0  0  0  0  0  0  0  0
  176.9680   22.7090   47.8780 C   0  0  0  0  0  0  0  0  0  0  0  0
  178.0560   23.6130   47.3440 C   0  0  0  0  0  0  0  0  0  0  0  0
  179.3120   23.5610   48.2010 C   0  0  0  0  0  0  0  0  0  0  0  0
  179.8297   20.1224   48.0653 H   0  0  0  0  0  0  0  0  0  0  0  0
  180.4423   19.3700   46.5537 H   0  0  0  0  0  0  0  0  0  0  0  0
  179.9197   21.0886   46.5537 H   0  0  0  0  0  0  0  0  0  0  0  0
  178.3545   18.9296   45.7907 H   0  0  0  0  0  0  0  0  0  0  0  0
  177.8450   19.2147   47.5044 H   0  0  0  0  0  0  0  0  0  0  0  0
  178.1202   21.6265   45.7532 H   0  0  0  0  0  0  0  0  0  0  0  0
  176.7387   20.5005   45.4180 H   0  0  0  0  0  0  0  0  0  0  0  0
  175.4183   19.6864   47.4686 H   0  0  0  0  0  0  0  0  0  0  0  0
  174.0819   20.5391   49.3762 H   0  0  0  0  0  0  0  0  0  0  0  0
  176.3442   24.0092   53.8831 H   0  0  0  0  0  0  0  0  0  0  0  0
  175.2917   24.9061   55.9627 H   0  0  0  0  0  0  0  0  0  0  0  0
  172.8118   25.1725   56.0925 H   0  0  0  0  0  0  0  0  0  0  0  0
  170.7870   24.9770   55.0120 H   0  0  0  0  0  0  0  0  0  0  0  0
  171.5730   23.2500   49.1650 H   0  0  0  0  0  0  0  0  0  0  0  0
  176.4041   24.1728   49.3769 H   0  0  0  0  0  0  0  0  0  0  0  0
  178.3104   23.2969   46.3216 H   0  0  0  0  0  0  0  0  0  0  0  0
  177.6773   24.6456   47.3586 H   0  0  0  0  0  0  0  0  0  0  0  0
  179.0310   23.5726   49.2644 H   0  0  0  0  0  0  0  0  0  0  0  0
  179.8694   22.6390   47.9791 H   0  0  0  0  0  0  0  0  0  0  0  0
  179.9437   24.4338   47.9791 H   0  0  0  0  0  0  0  0  0  0  0  0
  1  2  1  0
  2  3  1  0
  3  4  1  0
  4  5  2  0
  5  6  1  0
  6  7  2  0
  7  8  1  0
  8  9  1  0
  9 10  1  0
 10 11  2  0
 11 12  1  0
 12 13  2  0
 13 14  1  0
 14 15  1  0
 14 16  2  0
 16 17  1  0
 17 18  2  0
 17 19  1  0
 19 20  1  0
  7 21  1  0
 21 22  2  0
 22 23  1  0
 23 24  1  0
 22  4  1  0
 19  8  2  0
 16 10  1  0
  1 25  1  0
  1 26  1  0
  1 27  1  0
  2 28  1  0
  2 29  1  0
  3 30  1  0
  3 31  1  0
  5 32  1  0
  6 33  1  0
 11 34  1  0
 12 35  1  0
 13 36  1  0
 15 37  1  0
 20 38  1  0
 21 39  1  0
 23 40  1  0
 23 41  1  0
 24 42  1  0
 24 43  1  0
 24 44  1  0
M  END
>  <meeko>  (3) 
{"is_sidechain": [false], "free_energy": -7.386, "intermolecular_energy": -9.375, "internal_energy": -0.755}

$$$$
cand_053_out
     RDKit          3D

 44 46  0  0  0  0  0  0  0  0999 V2000
  175.9620   19.2780   47.9150 C   0  0  0  0  0  0  0  0  0  0  0  0
  176.0590   20.4830   46.9930 C   0  0  0  0  0  0  0  0  0  0  0  0
  177.1900   20.3180   45.9770 C   0  0  0  0  0  0  0  0  0  0  0  0
  178.5240   20.7520   46.5480 C   0  0  0  0  0  0  0  0  0  0  0  0
  178.5970   22.0080   47.1750 C   0  0  0  0  0  0  0  0  0  0  0  0
  179.7910   22.4660   47.7360 C   0  0  0  0  0  0  0  0  0  0  0  0
  180.9460   21.6790   47.6960 C   0  0  0  0  0  0  0  0  0  0  0  0
  182.2080   22.1950   48.2670 C   0  0  0  0  0  0  0  0  0  0  0  0
  182.8740   23.0650   47.4100 O   0  0  0  0  0  0  0  0  0  0  0  0
  184.0620   23.6170   47.8160 C   0  0  0  0  0  0  0  0  0  0  0  0
  184.7020   24.4710   46.9170 C   0  0  0  0  0  0  0  0  0  0  0  0
  185.9150   25.0700   47.2690 C   0  0  0  0  0  0  0  0  0  0  0  0
  186.4860   24.8130   48.5170 C   0  0  0  0  0  0  0  0  0  0  0  0
  185.8440   23.9590   49.4110 C   0  0  0  0  0  0  0  0  0  0  0  0
  186.4580   23.7530   50.6160 O   0  0  0  0  0  0  0  0  0  0  0  0
  184.6310   23.3610   49.0590 C   0  0  0  0  0  0  0  0  0  0  0  0
  183.9240   22.4590   49.9680 C   0  0  0  0  0  0  0  0  0  0  0  0
  184.3590   22.1910   51.0870 O   0  0  0  0  0  0  0  0  0  0  0  0
  182.6500   21.8700   49.4960 C   0  0  0  0  0  0  0  0  0  0  0  0
  181.9840   21.0290   50.3700 O   0  0  0  0  0  0  0  0  0  0  0  0
  180.8750   20.4290   47.0680 C   0  0  0  0  0  0  0  0  0  0  0  0
  179.6770   19.9440   46.5030 C   0  0  0  0  0  0  0  0  0  0  0  0
  179.7050   18.5830   45.8450 C   0  0  0  0  0  0  0  0  0  0  0  0
  180.8320   18.4650   44.8300 C   0  0  0  0  0  0  0  0  0  0  0  0
  175.9891   19.6143   48.9620 H   0  0  0  0  0  0  0  0  0  0  0  0
  175.0181   18.7460   47.7250 H   0  0  0  0  0  0  0  0  0  0  0  0
  176.8086   18.6019   47.7250 H   0  0  0  0  0  0  0  0  0  0  0  0
  175.1073   20.5986   46.4536 H   0  0  0  0  0  0  0  0  0  0  0  0
  176.2706   21.3718   47.6056 H   0  0  0  0  0  0  0  0  0  0  0  0
  177.2548   19.2596   45.6846 H   0  0  0  0  0  0  0  0  0  0  0  0
  176.9658   20.9542   45.1081 H   0  0  0  0  0  0  0  0  0  0  0  0
  177.6985   22.6407   47.2246 H   0  0  0  0  0  0  0  0  0  0  0  0
  179.8232   23.4561   48.2143 H   0  0  0  0  0  0  0  0  0  0  0  0
  184.2529   24.6725   45.9333 H   0  0  0  0  0  0  0  0  0  0  0  0
  186.4202   25.7445   46.5621 H   0  0  0  0  0  0  0  0  0  0  0  0
  187.4408   25.2839   48.7937 H   0  0  0  0  0  0  0  0  0  0  0  0
  186.9010   24.4600   51.0430 H   0  0  0  0  0  0  0  0  0  0  0  0
  181.6490   20.2090   50.0660 H   0  0  0  0  0  0  0  0  0  0  0  0
  181.7806   19.8069   47.0138 H   0  0  0  0  0  0  0  0  0  0  0  0
  179.8440   17.8159   46.6211 H   0  0  0  0  0  0  0  0  0  0  0  0
  178.7523   18.4424   45.3134 H   0  0  0  0  0  0  0  0  0  0  0  0
  181.7918   18.3645   45.3579 H   0  0  0  0  0  0  0  0  0  0  0  0
  180.6660   17.5793   44.1991 H   0  0  0  0  0  0  0  0  0  0  0  0
  180.8531   19.3658   44.1991 H   0  0  0  0  0  0  0  0  0  0  0  0
  1  2  1  0
  2  3  1  0
  3  4  1  0
  4  5  2  0
  5  6  1  0
  6  7  2  0
  7  8  1  0
  8  9  1  0
  9 10  1  0
 10 11  2  0
 11 12  1  0
 12 13  2  0
 13 14  1  0
 14 15  1  0
 14 16  2  0
 16 17  1  0
 17 18  2  0
 17 19  1  0
 19 20  1  0
  7 21  1  0
 21 22  2  0
 22 23  1  0
 23 24  1  0
 22  4  1  0
 19  8  2  0
 16 10  1  0
  1 25  1  0
  1 26  1  0
  1 27  1  0
  2 28  1  0
  2 29  1  0
  3 30  1  0
  3 31  1  0
  5 32  1  0
  6 33  1  0
 11 34  1  0
 12 35  1  0
 13 36  1  0
 15 37  1  0
 20 38  1  0
 21 39  1  0
 23 40  1  0
 23 41  1  0
 24 42  1  0
 24 43  1  0
 24 44  1  0
M  END
>  <meeko>  (4) 
{"is_sidechain": [false], "free_energy": -7.37, "intermolecular_energy": -9.236, "internal_energy": -0.872}

$$$$
cand_053_out
     RDKit          3D

 44 46  0  0  0  0  0  0  0  0999 V2000
  180.4510   17.8560   45.1640 C   0  0  0  0  0  0  0  0  0  0  0  0
  180.6970   19.2390   45.7470 C   0  0  0  0  0  0  0  0  0  0  0  0
  179.6400   20.2390   45.2740 C   0  0  0  0  0  0  0  0  0  0  0  0
  178.8280   20.7850   46.4280 C   0  0  0  0  0  0  0  0  0  0  0  0
  179.2990   21.9370   47.0820 C   0  0  0  0  0  0  0  0  0  0  0  0
  178.5940   22.5030   48.1460 C   0  0  0  0  0  0  0  0  0  0  0  0
  177.3910   21.9410   48.5840 C   0  0  0  0  0  0  0  0  0  0  0  0
  176.6750   22.5360   49.7320 C   0  0  0  0  0  0  0  0  0  0  0  0
  175.5870   23.3120   49.3460 O   0  0  0  0  0  0  0  0  0  0  0  0
  174.8330   23.9260   50.3140 C   0  0  0  0  0  0  0  0  0  0  0  0
  173.7610   24.7070   49.8800 C   0  0  0  0  0  0  0  0  0  0  0  0
  172.9510   25.3580   50.8140 C   0  0  0  0  0  0  0  0  0  0  0  0
  173.2130   25.2260   52.1790 C   0  0  0  0  0  0  0  0  0  0  0  0
  174.2840   24.4460   52.6080 C   0  0  0  0  0  0  0  0  0  0  0  0
  174.4830   24.3610   53.9590 O   0  0  0  0  0  0  0  0  0  0  0  0
  175.0940   23.7960   51.6740 C   0  0  0  0  0  0  0  0  0  0  0  0
  176.2290   22.9670   52.0820 C   0  0  0  0  0  0  0  0  0  0  0  0
  176.5180   22.7970   53.2650 O   0  0  0  0  0  0  0  0  0  0  0  0
  177.0300   22.3280   51.0130 C   0  0  0  0  0  0  0  0  0  0  0  0
  178.0920   21.5360   51.4110 O   0  0  0  0  0  0  0  0  0  0  0  0
  176.9220   20.7910   47.9360 C   0  0  0  0  0  0  0  0  0  0  0  0
  177.6150   20.2080   46.8540 C   0  0  0  0  0  0  0  0  0  0  0  0
  177.0280   18.9650   46.2240 C   0  0  0  0  0  0  0  0  0  0  0  0
  175.6900   18.5920   46.8440 C   0  0  0  0  0  0  0  0  0  0  0  0
  180.3221   17.1312   45.9813 H   0  0  0  0  0  0  0  0  0  0  0  0
  179.5422   17.8756   44.5445 H   0  0  0  0  0  0  0  0  0  0  0  0
  181.3108   17.5610   44.5445 H   0  0  0  0  0  0  0  0  0  0  0  0
  180.6644   19.1759   46.8447 H   0  0  0  0  0  0  0  0  0  0  0  0
  181.6825   19.5888   45.4058 H   0  0  0  0  0  0  0  0  0  0  0  0
  180.1427   21.0748   44.7653 H   0  0  0  0  0  0  0  0  0  0  0  0
  178.9549   19.7155   44.5909 H   0  0  0  0  0  0  0  0  0  0  0  0
  180.2395   22.4006   46.7496 H   0  0  0  0  0  0  0  0  0  0  0  0
  178.9891   23.4003   48.6448 H   0  0  0  0  0  0  0  0  0  0  0  0
  173.5541   24.8099   48.8046 H   0  0  0  0  0  0  0  0  0  0  0  0
  172.1063   25.9749   50.4736 H   0  0  0  0  0  0  0  0  0  0  0  0
  172.5745   25.7373   52.9144 H   0  0  0  0  0  0  0  0  0  0  0  0
  174.7310   25.1230   54.4450 H   0  0  0  0  0  0  0  0  0  0  0  0
  178.2670   21.4110   52.3230 H   0  0  0  0  0  0  0  0  0  0  0  0
  175.9854   20.3286   48.2810 H   0  0  0  0  0  0  0  0  0  0  0  0
  176.8835   19.1458   45.1486 H   0  0  0  0  0  0  0  0  0  0  0  0
  177.7269   18.1332   46.3961 H   0  0  0  0  0  0  0  0  0  0  0  0
  175.7747   18.6156   47.9405 H   0  0  0  0  0  0  0  0  0  0  0  0
  174.9227   19.3105   46.5199 H   0  0  0  0  0  0  0  0  0  0  0  0
  175.4051   17.5802   46.5199 H   0  0  0  0  0  0  0  0  0  0  0  0
  1  2  1  0
  2  3  1  0
  3  4  1  0
  4  5  2  0
  5  6  1  0
  6  7  2  0
  7  8  1  0
  8  9  1  0
  9 10  1  0
 10 11  2  0
 11 12  1  0
 12 13  2  0
 13 14  1  0
 14 15  1  0
 14 16  2  0
 16 17  1  0
 17 18  2  0
 17 19  1  0
 19 20  1  0
  7 21  1  0
 21 22  2  0
 22 23  1  0
 23 24  1  0
 22  4  1  0
 19  8  2  0
 16 10  1  0
  1 25  1  0
  1 26  1  0
  1 27  1  0
  2 28  1  0
  2 29  1  0
  3 30  1  0
  3 31  1  0
  5 32  1  0
  6 33  1  0
 11 34  1  0
 12 35  1  0
 13 36  1  0
 15 37  1  0
 20 38  1  0
 21 39  1  0
 23 40  1  0
 23 41  1  0
 24 42  1  0
 24 43  1  0
 24 44  1  0
M  END
>  <meeko>  (5) 
{"is_sidechain": [false], "free_energy": -7.363, "intermolecular_energy": -9.302, "internal_energy": -0.797}

$$$$
cand_053_out
     RDKit          3D

 44 46  0  0  0  0  0  0  0  0999 V2000
  181.0990   17.9070   44.2450 C   0  0  0  0  0  0  0  0  0  0  0  0
  180.3820   18.5260   45.4350 C   0  0  0  0  0  0  0  0  0  0  0  0
  180.0530   19.9980   45.1830 C   0  0  0  0  0  0  0  0  0  0  0  0
  179.3210   20.6180   46.3540 C   0  0  0  0  0  0  0  0  0  0  0  0
  177.9450   20.3590   46.4860 C   0  0  0  0  0  0  0  0  0  0  0  0
  177.2100   20.8860   47.5490 C   0  0  0  0  0  0  0  0  0  0  0  0
  177.8280   21.6810   48.5190 C   0  0  0  0  0  0  0  0  0  0  0  0
  177.0260   22.2560   49.6200 C   0  0  0  0  0  0  0  0  0  0  0  0
  175.9310   22.9830   49.1680 O   0  0  0  0  0  0  0  0  0  0  0  0
  175.1010   23.5740   50.0870 C   0  0  0  0  0  0  0  0  0  0  0  0
  174.0240   24.3070   49.5870 C   0  0  0  0  0  0  0  0  0  0  0  0
  173.1380   24.9320   50.4690 C   0  0  0  0  0  0  0  0  0  0  0  0
  173.3300   24.8220   51.8480 C   0  0  0  0  0  0  0  0  0  0  0  0
  174.4060   24.0890   52.3430 C   0  0  0  0  0  0  0  0  0  0  0  0
  174.5340   24.0230   53.7030 O   0  0  0  0  0  0  0  0  0  0  0  0
  175.2920   23.4650   51.4600 C   0  0  0  0  0  0  0  0  0  0  0  0
  176.4350   22.6860   51.9380 C   0  0  0  0  0  0  0  0  0  0  0  0
  176.6650   22.5370   53.1370 O   0  0  0  0  0  0  0  0  0  0  0  0
  177.3180   22.0720   50.9210 C   0  0  0  0  0  0  0  0  0  0  0  0
  178.3880   21.3270   51.3850 O   0  0  0  0  0  0  0  0  0  0  0  0
  179.1980   21.9420   48.3880 C   0  0  0  0  0  0  0  0  0  0  0  0
  179.9600   21.4120   47.3260 C   0  0  0  0  0  0  0  0  0  0  0  0
  181.4320   21.7560   47.2710 C   0  0  0  0  0  0  0  0  0  0  0  0
  182.2760   20.7710   48.0640 C   0  0  0  0  0  0  0  0  0  0  0  0
  181.8860   17.2275   44.6040 H   0  0  0  0  0  0  0  0  0  0  0  0
  180.3778   17.3431   43.6352 H   0  0  0  0  0  0  0  0  0  0  0  0
  181.5517   18.7027   43.6352 H   0  0  0  0  0  0  0  0  0  0  0  0
  179.4467   17.9758   45.6153 H   0  0  0  0  0  0  0  0  0  0  0  0
  181.0456   18.4641   46.3101 H   0  0  0  0  0  0  0  0  0  0  0  0
  180.9903   20.5491   45.0167 H   0  0  0  0  0  0  0  0  0  0  0  0
  179.3987   20.0563   44.3007 H   0  0  0  0  0  0  0  0  0  0  0  0
  177.4393   19.7302   45.7385 H   0  0  0  0  0  0  0  0  0  0  0  0
  176.1333   20.6737   47.6244 H   0  0  0  0  0  0  0  0  0  0  0  0
  173.8726   24.3928   48.5009 H   0  0  0  0  0  0  0  0  0  0  0  0
  172.2889   25.5109   50.0768 H   0  0  0  0  0  0  0  0  0  0  0  0
  172.6325   25.3135   52.5422 H   0  0  0  0  0  0  0  0  0  0  0  0
  174.6050   23.1900   54.1270 H   0  0  0  0  0  0  0  0  0  0  0  0
  178.2590   20.4370   51.6480 H   0  0  0  0  0  0  0  0  0  0  0  0
  179.6940   22.5789   49.1352 H   0  0  0  0  0  0  0  0  0  0  0  0
  181.7613   21.7417   46.2215 H   0  0  0  0  0  0  0  0  0  0  0  0
  181.5652   22.7533   47.7157 H   0  0  0  0  0  0  0  0  0  0  0  0
  182.1276   20.9442   49.1401 H   0  0  0  0  0  0  0  0  0  0  0  0
  181.9735   19.7437   47.8128 H   0  0  0  0  0  0  0  0  0  0  0  0
  183.3376   20.9124   47.8128 H   0  0  0  0  0  0  0  0  0  0  0  0
  1  2  1  0
  2  3  1  0
  3  4  1  0
  4  5  2  0
  5  6  1  0
  6  7  2  0
  7  8  1  0
  8  9  1  0
  9 10  1  0
 10 11  2  0
 11 12  1  0
 12 13  2  0
 13 14  1  0
 14 15  1  0
 14 16  2  0
 16 17  1  0
 17 18  2  0
 17 19  1  0
 19 20  1  0
  7 21  1  0
 21 22  2  0
 22 23  1  0
 23 24  1  0
 22  4  1  0
 19  8  2  0
 16 10  1  0
  1 25  1  0
  1 26  1  0
  1 27  1  0
  2 28  1  0
  2 29  1  0
  3 30  1  0
  3 31  1  0
  5 32  1  0
  6 33  1  0
 11 34  1  0
 12 35  1  0
 13 36  1  0
 15 37  1  0
 20 38  1  0
 21 39  1  0
 23 40  1  0
 23 41  1  0
 24 42  1  0
 24 43  1  0
 24 44  1  0
M  END
>  <meeko>  (6) 
{"is_sidechain": [false], "free_energy": -7.267, "intermolecular_energy": -9.342, "internal_energy": -0.633}

$$$$
cand_053_out
     RDKit          3D

 44 46  0  0  0  0  0  0  0  0999 V2000
  175.4570   18.1980   46.9000 C   0  0  0  0  0  0  0  0  0  0  0  0
  176.6920   18.7670   46.2190 C   0  0  0  0  0  0  0  0  0  0  0  0
  176.6610   20.2960   46.1970 C   0  0  0  0  0  0  0  0  0  0  0  0
  177.7310   20.8910   47.0860 C   0  0  0  0  0  0  0  0  0  0  0  0
  179.0480   20.9330   46.5980 C   0  0  0  0  0  0  0  0  0  0  0  0
  180.0830   21.4810   47.3590 C   0  0  0  0  0  0  0  0  0  0  0  0
  179.8320   22.0120   48.6280 C   0  0  0  0  0  0  0  0  0  0  0  0
  180.9450   22.5590   49.4310 C   0  0  0  0  0  0  0  0  0  0  0  0
  180.8970   23.9440   49.5480 O   0  0  0  0  0  0  0  0  0  0  0  0
  181.8740   24.5840   50.2680 C   0  0  0  0  0  0  0  0  0  0  0  0
  181.7940   25.9750   50.3460 C   0  0  0  0  0  0  0  0  0  0  0  0
  182.7560   26.6880   51.0660 C   0  0  0  0  0  0  0  0  0  0  0  0
  183.7950   26.0100   51.7080 C   0  0  0  0  0  0  0  0  0  0  0  0
  183.8710   24.6220   51.6280 C   0  0  0  0  0  0  0  0  0  0  0  0
  184.9130   24.0230   52.2800 O   0  0  0  0  0  0  0  0  0  0  0  0
  182.9090   23.9090   50.9070 C   0  0  0  0  0  0  0  0  0  0  0  0
  182.9520   22.4510   50.7980 C   0  0  0  0  0  0  0  0  0  0  0  0
  183.8300   21.7830   51.3420 O   0  0  0  0  0  0  0  0  0  0  0  0
  181.8900   21.7910   50.0040 C   0  0  0  0  0  0  0  0  0  0  0  0
  181.9330   20.4110   49.9200 O   0  0  0  0  0  0  0  0  0  0  0  0
  178.5190   21.9680   49.1170 C   0  0  0  0  0  0  0  0  0  0  0  0
  177.4590   21.4270   48.3610 C   0  0  0  0  0  0  0  0  0  0  0  0
  176.0790   21.4220   48.9790 C   0  0  0  0  0  0  0  0  0  0  0  0
  175.8810   20.2430   49.9190 C   0  0  0  0  0  0  0  0  0  0  0  0
  175.5810   18.2551   47.9915 H   0  0  0  0  0  0  0  0  0  0  0  0
  174.5725   18.7794   46.6005 H   0  0  0  0  0  0  0  0  0  0  0  0
  175.3242   17.1479   46.6005 H   0  0  0  0  0  0  0  0  0  0  0  0
  177.5872   18.4348   46.7651 H   0  0  0  0  0  0  0  0  0  0  0  0
  176.7127   18.4056   45.1803 H   0  0  0  0  0  0  0  0  0  0  0  0
  176.8227   20.6409   45.1651 H   0  0  0  0  0  0  0  0  0  0  0  0
  175.6810   20.6242   46.5737 H   0  0  0  0  0  0  0  0  0  0  0  0
  179.2676   20.5273   45.5994 H   0  0  0  0  0  0  0  0  0  0  0  0
  181.1064   21.4950   46.9559 H   0  0  0  0  0  0  0  0  0  0  0  0
  180.9752   26.5091   49.8416 H   0  0  0  0  0  0  0  0  0  0  0  0
  182.6951   27.7846   51.1274 H   0  0  0  0  0  0  0  0  0  0  0  0
  184.5516   26.5715   52.2756 H   0  0  0  0  0  0  0  0  0  0  0  0
  185.5820   23.5840   51.7910 H   0  0  0  0  0  0  0  0  0  0  0  0
  181.8110   19.9890   49.0930 H   0  0  0  0  0  0  0  0  0  0  0  0
  178.3095   22.3674   50.1203 H   0  0  0  0  0  0  0  0  0  0  0  0
  175.9397   22.3549   49.5449 H   0  0  0  0  0  0  0  0  0  0  0  0
  175.3426   21.3365   48.1663 H   0  0  0  0  0  0  0  0  0  0  0  0
  175.9394   20.5909   50.9609 H   0  0  0  0  0  0  0  0  0  0  0  0
  174.8944   19.7914   49.7380 H   0  0  0  0  0  0  0  0  0  0  0  0
  176.6659   19.4939   49.7380 H   0  0  0  0  0  0  0  0  0  0  0  0
  1  2  1  0
  2  3  1  0
  3  4  1  0
  4  5  2  0
  5  6  1  0
  6  7  2  0
  7  8  1  0
  8  9  1  0
  9 10  1  0
 10 11  2  0
 11 12  1  0
 12 13  2  0
 13 14  1  0
 14 15  1  0
 14 16  2  0
 16 17  1  0
 17 18  2  0
 17 19  1  0
 19 20  1  0
  7 21  1  0
 21 22  2  0
 22 23  1  0
 23 24  1  0
 22  4  1  0
 19  8  2  0
 16 10  1  0
  1 25  1  0
  1 26  1  0
  1 27  1  0
  2 28  1  0
  2 29  1  0
  3 30  1  0
  3 31  1  0
  5 32  1  0
  6 33  1  0
 11 34  1  0
 12 35  1  0
 13 36  1  0
 15 37  1  0
 20 38  1  0
 21 39  1  0
 23 40  1  0
 23 41  1  0
 24 42  1  0
 24 43  1  0
 24 44  1  0
M  END
>  <meeko>  (7) 
{"is_sidechain": [false], "free_energy": -7.063, "intermolecular_energy": -8.821, "internal_energy": -0.89}

$$$$
cand_053_out
     RDKit          3D

 44 46  0  0  0  0  0  0  0  0999 V2000
  172.5870   24.1120   52.4440 C   0  0  0  0  0  0  0  0  0  0  0  0
  172.0210   23.3320   51.2670 C   0  0  0  0  0  0  0  0  0  0  0  0
  172.5100   23.9040   49.9350 C   0  0  0  0  0  0  0  0  0  0  0  0
  173.9360   23.4930   49.6380 C   0  0  0  0  0  0  0  0  0  0  0  0
  174.1790   22.1530   49.2900 C   0  0  0  0  0  0  0  0  0  0  0  0
  175.4680   21.7070   48.9900 C   0  0  0  0  0  0  0  0  0  0  0  0
  176.5530   22.5890   49.0200 C   0  0  0  0  0  0  0  0  0  0  0  0
  177.9140   22.0910   48.7300 C   0  0  0  0  0  0  0  0  0  0  0  0
  178.0550   21.6330   47.4250 O   0  0  0  0  0  0  0  0  0  0  0  0
  179.2710   21.1420   47.0210 C   0  0  0  0  0  0  0  0  0  0  0  0
  179.3610   20.6790   45.7080 C   0  0  0  0  0  0  0  0  0  0  0  0
  180.5710   20.1670   45.2320 C   0  0  0  0  0  0  0  0  0  0  0  0
  181.6890   20.1210   46.0690 C   0  0  0  0  0  0  0  0  0  0  0  0
  181.5940   20.5840   47.3780 C   0  0  0  0  0  0  0  0  0  0  0  0
  182.7260   20.5090   48.1430 O   0  0  0  0  0  0  0  0  0  0  0  0
  180.3830   21.0940   47.8540 C   0  0  0  0  0  0  0  0  0  0  0  0
  180.2410   21.5910   49.2230 C   0  0  0  0  0  0  0  0  0  0  0  0
  181.1810   21.5910   50.0160 O   0  0  0  0  0  0  0  0  0  0  0  0
  178.9130   22.1040   49.6310 C   0  0  0  0  0  0  0  0  0  0  0  0
  178.7950   22.5840   50.9240 O   0  0  0  0  0  0  0  0  0  0  0  0
  176.3130   23.9240   49.3700 C   0  0  0  0  0  0  0  0  0  0  0  0
  175.0170   24.3960   49.6680 C   0  0  0  0  0  0  0  0  0  0  0  0
  174.8630   25.8540   50.0390 C   0  0  0  0  0  0  0  0  0  0  0  0
  175.5360   26.1780   51.3640 C   0  0  0  0  0  0  0  0  0  0  0  0
  172.2522   23.6506   53.3847 H   0  0  0  0  0  0  0  0  0  0  0  0
  173.6860   24.0972   52.3992 H   0  0  0  0  0  0  0  0  0  0  0  0
  172.2322   25.1522   52.3992 H   0  0  0  0  0  0  0  0  0  0  0  0
  172.3409   22.2825   51.3454 H   0  0  0  0  0  0  0  0  0  0  0  0
  170.9240   23.4073   51.2956 H   0  0  0  0  0  0  0  0  0  0  0  0
  171.8581   23.5367   49.1287 H   0  0  0  0  0  0  0  0  0  0  0  0
  172.4765   25.0015   50.0006 H   0  0  0  0  0  0  0  0  0  0  0  0
  173.3393   21.4433   49.2533 H   0  0  0  0  0  0  0  0  0  0  0  0
  175.6316   20.6514   48.7275 H   0  0  0  0  0  0  0  0  0  0  0  0
  178.4812   20.7169   45.0488 H   0  0  0  0  0  0  0  0  0  0  0  0
  180.6434   19.7999   44.1976 H   0  0  0  0  0  0  0  0  0  0  0  0
  182.6421   19.7197   45.6941 H   0  0  0  0  0  0  0  0  0  0  0  0
  183.5270   20.2020   47.7650 H   0  0  0  0  0  0  0  0  0  0  0  0
  178.1570   22.2150   51.5030 H   0  0  0  0  0  0  0  0  0  0  0  0
  177.1596   24.6249   49.4138 H   0  0  0  0  0  0  0  0  0  0  0  0
  175.3168   26.4713   49.2497 H   0  0  0  0  0  0  0  0  0  0  0  0
  173.7888   26.0672   50.1420 H   0  0  0  0  0  0  0  0  0  0  0  0
  174.8842   25.8642   52.1927 H   0  0  0  0  0  0  0  0  0  0  0  0
  176.4948   25.6428   51.4288 H   0  0  0  0  0  0  0  0  0  0  0  0
  175.7156   27.2613   51.4288 H   0  0  0  0  0  0  0  0  0  0  0  0
  1  2  1  0
  2  3  1  0
  3  4  1  0
  4  5  2  0
  5  6  1  0
  6  7  2  0
  7  8  1  0
  8  9  1  0
  9 10  1  0
 10 11  2  0
 11 12  1  0
 12 13  2  0
 13 14  1  0
 14 15  1  0
 14 16  2  0
 16 17  1  0
 17 18  2  0
 17 19  1  0
 19 20  1  0
  7 21  1  0
 21 22  2  0
 22 23  1  0
 23 24  1  0
 22  4  1  0
 19  8  2  0
 16 10  1  0
  1 25  1  0
  1 26  1  0
  1 27  1  0
  2 28  1  0
  2 29  1  0
  3 30  1  0
  3 31  1  0
  5 32  1  0
  6 33  1  0
 11 34  1  0
 12 35  1  0
 13 36  1  0
 15 37  1  0
 20 38  1  0
 21 39  1  0
 23 40  1  0
 23 41  1  0
 24 42  1  0
 24 43  1  0
 24 44  1  0
M  END
>  <meeko>  (8) 
{"is_sidechain": [false], "free_energy": -6.989, "intermolecular_energy": -8.759, "internal_energy": -0.857}

$$$$
