cand_047_out
     RDKit          3D

 38 40  0  0  0  0  0  0  0  0999 V2000
  179.9510   14.3500   44.8520 C   0  0  0  0  0  0  0  0  0  0  0  0
  180.4160   15.7620   44.6220 C   0  0  0  0  0  0  0  0  0  0  0  0
  179.9220   16.7820   45.4600 C   0  0  0  0  0  0  0  0  0  0  0  0
  180.3090   18.1200   45.2980 C   0  0  0  0  0  0  0  0  0  0  0  0
  179.7750   19.1940   46.1620 C   0  0  0  0  0  0  0  0  0  0  0  0
  178.3850   19.2350   46.1770 O   0  0  0  0  0  0  0  0  0  0  0  0
  177.7580   20.1850   46.9420 C   0  0  0  0  0  0  0  0  0  0  0  0
  176.3630   20.1800   46.9390 C   0  0  0  0  0  0  0  0  0  0  0  0
  175.6610   21.1220   47.6950 C   0  0  0  0  0  0  0  0  0  0  0  0
  176.3550   22.0700   48.4510 C   0  0  0  0  0  0  0  0  0  0  0  0
  177.7470   22.0730   48.4510 C   0  0  0  0  0  0  0  0  0  0  0  0
  178.3630   23.0280   49.2110 O   0  0  0  0  0  0  0  0  0  0  0  0
  178.4480   21.1290   47.6950 C   0  0  0  0  0  0  0  0  0  0  0  0
  179.9120   21.0980   47.6670 C   0  0  0  0  0  0  0  0  0  0  0  0
  180.5930   21.9030   48.2990 O   0  0  0  0  0  0  0  0  0  0  0  0
  180.5590   20.0520   46.8410 C   0  0  0  0  0  0  0  0  0  0  0  0
  181.9410   20.0390   46.8110 O   0  0  0  0  0  0  0  0  0  0  0  0
  181.1920   18.4360   44.2620 C   0  0  0  0  0  0  0  0  0  0  0  0
  181.6880   17.4380   43.4180 C   0  0  0  0  0  0  0  0  0  0  0  0
  181.3050   16.0970   43.5830 C   0  0  0  0  0  0  0  0  0  0  0  0
  181.8940   15.0610   42.6530 C   0  0  0  0  0  0  0  0  0  0  0  0
  181.3080   15.1490   41.2530 C   0  0  0  0  0  0  0  0  0  0  0  0
  179.9800   15.4350   41.3540 F   0  0  0  0  0  0  0  0  0  0  0  0
  179.8873   14.1564   45.9330 H   0  0  0  0  0  0  0  0  0  0  0  0
  178.9598   14.2115   44.3956 H   0  0  0  0  0  0  0  0  0  0  0  0
  180.6659   13.6496   44.3956 H   0  0  0  0  0  0  0  0  0  0  0  0
  179.2149   16.5218   46.2614 H   0  0  0  0  0  0  0  0  0  0  0  0
  175.8164   19.4352   46.3420 H   0  0  0  0  0  0  0  0  0  0  0  0
  174.5610   21.1173   47.6950 H   0  0  0  0  0  0  0  0  0  0  0  0
  175.8024   22.8127   49.0452 H   0  0  0  0  0  0  0  0  0  0  0  0
  179.2940   23.1320   49.1690 H   0  0  0  0  0  0  0  0  0  0  0  0
  182.4270   20.5170   47.4540 H   0  0  0  0  0  0  0  0  0  0  0  0
  181.5000   19.4809   44.1090 H   0  0  0  0  0  0  0  0  0  0  0  0
  182.3881   17.7069   42.6133 H   0  0  0  0  0  0  0  0  0  0  0  0
  182.9813   15.2161   42.5926 H   0  0  0  0  0  0  0  0  0  0  0  0
  181.6541   14.0670   43.0584 H   0  0  0  0  0  0  0  0  0  0  0  0
  181.8163   15.9443   40.6880 H   0  0  0  0  0  0  0  0  0  0  0  0
  181.4472   14.1930   40.7270 H   0  0  0  0  0  0  0  0  0  0  0  0
  1  2  1  0
  2  3  2  0
  3  4  1  0
  4  5  1  0
  5  6  1  0
  6  7  1  0
  7  8  2  0
  8  9  1  0
  9 10  2  0
 10 11  1  0
 11 12  1  0
 11 13  2  0
 13 14  1  0
 14 15  2  0
 14 16  1  0
 16 17  1  0
  4 18  2  0
 18 19  1  0
 19 20  2  0
 20 21  1  0
 21 22  1  0
 22 23  1  0
 20  2  1  0
 16  5  2  0
 13  7  1  0
  1 24  1  0
  1 25  1  0
  1 26  1  0
  3 27  1  0
  8 28  1  0
  9 29  1  0
 10 30  1  0
 12 31  1  0
 17 32  1  0
 18 33  1  0
 19 34  1  0
 21 35  1  0
 21 36  1  0
 22 37  1  0
 22 38  1  0
M  END
>  <meeko>  (1) 
{"is_sidechain": [false], "free_energy": -8.518, "intermolecular_energy": -10.51, "internal_energy": -0.432}

$$$$
cand_047_out
     RDKit          3D

 38 40  0  0  0  0  0  0  0  0999 V2000
  175.1850   20.7700   46.9610 C   0  0  0  0  0  0  0  0  0  0  0  0
  176.6680   20.7070   47.2040 C   0  0  0  0  0  0  0  0  0  0  0  0
  177.4440   19.8280   46.4230 C   0  0  0  0  0  0  0  0  0  0  0  0
  178.8310   19.7150   46.6010 C   0  0  0  0  0  0  0  0  0  0  0  0
  179.6440   18.7770   45.7970 C   0  0  0  0  0  0  0  0  0  0  0  0
  179.1480   17.4790   45.8150 O   0  0  0  0  0  0  0  0  0  0  0  0
  179.8080   16.5070   45.1080 C   0  0  0  0  0  0  0  0  0  0  0  0
  179.2670   15.2210   45.1420 C   0  0  0  0  0  0  0  0  0  0  0  0
  179.8900   14.1840   44.4440 C   0  0  0  0  0  0  0  0  0  0  0  0
  181.0550   14.4320   43.7160 C   0  0  0  0  0  0  0  0  0  0  0  0
  181.5940   15.7160   43.6840 C   0  0  0  0  0  0  0  0  0  0  0  0
  182.7360   15.8890   42.9520 O   0  0  0  0  0  0  0  0  0  0  0  0
  180.9680   16.7530   44.3810 C   0  0  0  0  0  0  0  0  0  0  0  0
  181.5010   18.1170   44.3750 C   0  0  0  0  0  0  0  0  0  0  0  0
  182.5260   18.4130   43.7630 O   0  0  0  0  0  0  0  0  0  0  0  0
  180.7590   19.1460   45.1390 C   0  0  0  0  0  0  0  0  0  0  0  0
  181.2780   20.4280   45.1370 O   0  0  0  0  0  0  0  0  0  0  0  0
  179.4390   20.4850   47.5960 C   0  0  0  0  0  0  0  0  0  0  0  0
  178.6830   21.3580   48.3830 C   0  0  0  0  0  0  0  0  0  0  0  0
  177.2950   21.4760   48.2020 C   0  0  0  0  0  0  0  0  0  0  0  0
  176.5380   22.4540   49.0700 C   0  0  0  0  0  0  0  0  0  0  0  0
  176.9160   23.8970   48.7750 C   0  0  0  0  0  0  0  0  0  0  0  0
  177.1650   24.0170   47.4410 F   0  0  0  0  0  0  0  0  0  0  0  0
  174.6561   20.7925   47.9252 H   0  0  0  0  0  0  0  0  0  0  0  0
  174.9453   21.6791   46.3900 H   0  0  0  0  0  0  0  0  0  0  0  0
  174.8691   19.8845   46.3900 H   0  0  0  0  0  0  0  0  0  0  0  0
  176.9502   19.2151   45.6546 H   0  0  0  0  0  0  0  0  0  0  0  0
  178.3507   15.0243   45.7180 H   0  0  0  0  0  0  0  0  0  0  0  0
  179.4622   13.1709   44.4679 H   0  0  0  0  0  0  0  0  0  0  0  0
  181.5467   13.6145   43.1683 H   0  0  0  0  0  0  0  0  0  0  0  0
  183.5520   15.5580   43.2730 H   0  0  0  0  0  0  0  0  0  0  0  0
  180.7240   21.1570   45.3370 H   0  0  0  0  0  0  0  0  0  0  0  0
  180.5234   20.4032   47.7614 H   0  0  0  0  0  0  0  0  0  0  0  0
  179.1821   21.9615   49.1554 H   0  0  0  0  0  0  0  0  0  0  0  0
  175.4603   22.3264   48.8902 H   0  0  0  0  0  0  0  0  0  0  0  0
  176.7969   22.2450   50.1185 H   0  0  0  0  0  0  0  0  0  0  0  0
  176.0874   24.5626   49.0587 H   0  0  0  0  0  0  0  0  0  0  0  0
  177.8106   24.1764   49.3509 H   0  0  0  0  0  0  0  0  0  0  0  0
  1  2  1  0
  2  3  2  0
  3  4  1  0
  4  5  1  0
  5  6  1  0
  6  7  1  0
  7  8  2  0
  8  9  1  0
  9 10  2  0
 10 11  1  0
 11 12  1  0
 11 13  2  0
 13 14  1  0
 14 15  2  0
 14 16  1  0
 16 17  1  0
  4 18  2  0
 18 19  1  0
 19 20  2  0
 20 21  1  0
 21 22  1  0
 22 23  1  0
 20  2  1  0
 16  5  2  0
 13  7  1  0
  1 24  1  0
  1 25  1  0
  1 26  1  0
  3 27  1  0
  8 28  1  0
  9 29  1  0
 10 30  1  0
 12 31  1  0
 17 32  1  0
 18 33  1  0
 19 34  1  0
 21 35  1  0
 21 36  1  0
 22 37  1  0
 22 38  1  0
M  END
>  <meeko>  (2) 
{"is_sidechain": [false], "free_energy": -7.311, "intermolecular_energy": -9.081, "internal_energy": -0.372}

$$$$
cand_047_out
     RDKit          3D

 38 40  0  0  0  0  0  0  0  0999 V2000
  179.8110   14.7340   45.1240 C   0  0  0  0  0  0  0  0  0  0  0  0
  180.0410   16.2150   44.9920 C   0  0  0  0  0  0  0  0  0  0  0  0
  179.2000   17.0950   45.7000 C   0  0  0  0  0  0  0  0  0  0  0  0
  179.3540   18.4860   45.6180 C   0  0  0  0  0  0  0  0  0  0  0  0
  178.4590   19.4130   46.3440 C   0  0  0  0  0  0  0  0  0  0  0  0
  179.1050   20.5680   46.7680 O   0  0  0  0  0  0  0  0  0  0  0  0
  178.3880   21.5150   47.4530 C   0  0  0  0  0  0  0  0  0  0  0  0
  179.0730   22.6650   47.8470 C   0  0  0  0  0  0  0  0  0  0  0  0
  178.4020   23.6690   48.5500 C   0  0  0  0  0  0  0  0  0  0  0  0
  177.0490   23.5200   48.8620 C   0  0  0  0  0  0  0  0  0  0  0  0
  176.3680   22.3710   48.4690 C   0  0  0  0  0  0  0  0  0  0  0  0
  175.0460   22.2890   48.8080 O   0  0  0  0  0  0  0  0  0  0  0  0
  177.0400   21.3680   47.7640 C   0  0  0  0  0  0  0  0  0  0  0  0
  176.3620   20.1440   47.3330 C   0  0  0  0  0  0  0  0  0  0  0  0
  175.1750   19.9370   47.5760 O   0  0  0  0  0  0  0  0  0  0  0  0
  177.1610   19.1460   46.5840 C   0  0  0  0  0  0  0  0  0  0  0  0
  176.5150   17.9880   46.1920 O   0  0  0  0  0  0  0  0  0  0  0  0
  180.3590   18.9960   44.7910 C   0  0  0  0  0  0  0  0  0  0  0  0
  181.1980   18.1370   44.0760 C   0  0  0  0  0  0  0  0  0  0  0  0
  181.0480   16.7440   44.1630 C   0  0  0  0  0  0  0  0  0  0  0  0
  182.0020   15.8680   43.3830 C   0  0  0  0  0  0  0  0  0  0  0  0
  181.4290   15.4510   42.0380 C   0  0  0  0  0  0  0  0  0  0  0  0
  181.1960   14.1100   42.0610 F   0  0  0  0  0  0  0  0  0  0  0  0
  179.7689   14.4630   46.1893 H   0  0  0  0  0  0  0  0  0  0  0  0
  178.8605   14.4659   44.6396 H   0  0  0  0  0  0  0  0  0  0  0  0
  180.6355   14.1903   44.6396 H   0  0  0  0  0  0  0  0  0  0  0  0
  178.4020   16.6805   46.3335 H   0  0  0  0  0  0  0  0  0  0  0  0
  180.1397   22.7810   47.6045 H   0  0  0  0  0  0  0  0  0  0  0  0
  178.9400   24.5777   48.8580 H   0  0  0  0  0  0  0  0  0  0  0  0
  176.5219   24.3096   49.4176 H   0  0  0  0  0  0  0  0  0  0  0  0
  174.3890   22.3310   48.1400 H   0  0  0  0  0  0  0  0  0  0  0  0
  176.3170   17.3260   46.8250 H   0  0  0  0  0  0  0  0  0  0  0  0
  180.4908   20.0845   44.7021 H   0  0  0  0  0  0  0  0  0  0  0  0
  181.9871   18.5584   43.4360 H   0  0  0  0  0  0  0  0  0  0  0  0
  182.9356   16.4244   43.2132 H   0  0  0  0  0  0  0  0  0  0  0  0
  182.1810   14.9560   43.9714 H   0  0  0  0  0  0  0  0  0  0  0  0
  180.4865   15.9876   41.8545 H   0  0  0  0  0  0  0  0  0  0  0  0
  182.1404   15.6946   41.2352 H   0  0  0  0  0  0  0  0  0  0  0  0
  1  2  1  0
  2  3  2  0
  3  4  1  0
  4  5  1  0
  5  6  1  0
  6  7  1  0
  7  8  2  0
  8  9  1  0
  9 10  2  0
 10 11  1  0
 11 12  1  0
 11 13  2  0
 13 14  1  0
 14 15  2  0
 14 16  1  0
 16 17  1  0
  4 18  2  0
 18 19  1  0
 19 20  2  0
 20 21  1  0
 21 22  1  0
 22 23  1  0
 20  2  1  0
 16  5  2  0
 13  7  1  0
  1 24  1  0
  1 25  1  0
  1 26  1  0
  3 27  1  0
  8 28  1  0
  9 29  1  0
 10 30  1  0
 12 31  1  0
 17 32  1  0
 18 33  1  0
 19 34  1  0
 21 35  1  0
 21 36  1  0
 22 37  1  0
 22 38  1  0
M  END
>  <meeko>  (3) 
{"is_sidechain": [false], "free_energy": -6.855, "intermolecular_energy": -8.853, "internal_energy": -0.037}

$$$$
cand_047_out
     RDKit          3D

 38 40  0  0  0  0  0  0  0  0999 V2000
  182.4910   18.4700   43.9830 C   0  0  0  0  0  0  0  0  0  0  0  0
  181.1910   18.2700   44.7150 C   0  0  0  0  0  0  0  0  0  0  0  0
  180.6490   19.3510   45.4370 C   0  0  0  0  0  0  0  0  0  0  0  0
  179.4450   19.2330   46.1460 C   0  0  0  0  0  0  0  0  0  0  0  0
  178.8860   20.3600   46.9220 C   0  0  0  0  0  0  0  0  0  0  0  0
  177.5030   20.2970   47.0480 O   0  0  0  0  0  0  0  0  0  0  0  0
  176.8550   21.2810   47.7480 C   0  0  0  0  0  0  0  0  0  0  0  0
  175.4680   21.1700   47.8620 C   0  0  0  0  0  0  0  0  0  0  0  0
  174.7460   22.1410   48.5600 C   0  0  0  0  0  0  0  0  0  0  0  0
  175.4100   23.2230   49.1420 C   0  0  0  0  0  0  0  0  0  0  0  0
  176.7930   23.3330   49.0260 C   0  0  0  0  0  0  0  0  0  0  0  0
  177.3790   24.4170   49.6180 O   0  0  0  0  0  0  0  0  0  0  0  0
  177.5150   22.3590   48.3280 C   0  0  0  0  0  0  0  0  0  0  0  0
  178.9700   22.4370   48.1820 C   0  0  0  0  0  0  0  0  0  0  0  0
  179.6240   23.3620   48.6590 O   0  0  0  0  0  0  0  0  0  0  0  0
  179.6420   21.3520   47.4310 C   0  0  0  0  0  0  0  0  0  0  0  0
  181.0140   21.4410   47.2880 O   0  0  0  0  0  0  0  0  0  0  0  0
  178.7900   17.9980   46.1430 C   0  0  0  0  0  0  0  0  0  0  0  0
  179.3170   16.9140   45.4360 C   0  0  0  0  0  0  0  0  0  0  0  0
  180.5200   17.0330   44.7210 C   0  0  0  0  0  0  0  0  0  0  0  0
  181.0250   15.8300   43.9590 C   0  0  0  0  0  0  0  0  0  0  0  0
  180.3800   14.5380   44.4320 C   0  0  0  0  0  0  0  0  0  0  0  0
  181.1490   14.0040   45.4210 F   0  0  0  0  0  0  0  0  0  0  0  0
  183.3061   18.5954   44.7109 H   0  0  0  0  0  0  0  0  0  0  0  0
  182.6950   17.5927   43.3516 H   0  0  0  0  0  0  0  0  0  0  0  0
  182.4219   19.3681   43.3516 H   0  0  0  0  0  0  0  0  0  0  0  0
  181.1838   20.3122   45.4449 H   0  0  0  0  0  0  0  0  0  0  0  0
  174.9442   20.3187   47.4026 H   0  0  0  0  0  0  0  0  0  0  0  0
  173.6533   22.0533   48.6513 H   0  0  0  0  0  0  0  0  0  0  0  0
  174.8410   23.9874   49.6914 H   0  0  0  0  0  0  0  0  0  0  0  0
  176.8550   25.1510   49.8720 H   0  0  0  0  0  0  0  0  0  0  0  0
  181.5130   20.6770   47.0750 H   0  0  0  0  0  0  0  0  0  0  0  0
  177.8506   17.8784   46.7026 H   0  0  0  0  0  0  0  0  0  0  0  0
  178.7816   15.9531   45.4395 H   0  0  0  0  0  0  0  0  0  0  0  0
  180.8006   15.9675   42.8910 H   0  0  0  0  0  0  0  0  0  0  0  0
  182.1081   15.7501   44.1338 H   0  0  0  0  0  0  0  0  0  0  0  0
  179.3718   14.7474   44.8189 H   0  0  0  0  0  0  0  0  0  0  0  0
  180.3007   13.8295   43.5943 H   0  0  0  0  0  0  0  0  0  0  0  0
  1  2  1  0
  2  3  2  0
  3  4  1  0
  4  5  1  0
  5  6  1  0
  6  7  1  0
  7  8  2  0
  8  9  1  0
  9 10  2  0
 10 11  1  0
 11 12  1  0
 11 13  2  0
 13 14  1  0
 14 15  2  0
 14 16  1  0
 16 17  1  0
  4 18  2  0
 18 19  1  0
 19 20  2  0
 20 21  1  0
 21 22  1  0
 22 23  1  0
 20  2  1  0
 16  5  2  0
 13  7  1  0
  1 24  1  0
  1 25  1  0
  1 26  1  0
  3 27  1  0
  8 28  1  0
  9 29  1  0
 10 30  1  0
 12 31  1  0
 17 32  1  0
 18 33  1  0
 19 34  1  0
 21 35  1  0
 21 36  1  0
 22 37  1  0
 22 38  1  0
M  END
>  <meeko>  (4) 
{"is_sidechain": [false], "free_energy": -6.102, "intermolecular_energy": -7.983, "internal_energy": 0.022}

$$$$
