cand_035_out
     RDKit          3D

 36 38  0  0  0  0  0  0  0  0999 V2000
  178.9520   14.0530   44.1310 C   0  0  0  0  0  0  0  0  0  0  0  0
  180.0510   14.4990   44.7500 C   0  0  0  0  0  0  0  0  0  0  0  0
  180.5380   15.8700   44.5690 C   0  0  0  0  0  0  0  0  0  0  0  0
  180.0010   16.8710   45.3960 C   0  0  0  0  0  0  0  0  0  0  0  0
  180.4140   18.2080   45.2860 C   0  0  0  0  0  0  0  0  0  0  0  0
  179.8080   19.2390   46.1540 C   0  0  0  0  0  0  0  0  0  0  0  0
  178.4180   19.1820   46.1710 O   0  0  0  0  0  0  0  0  0  0  0  0
  177.7270   20.0840   46.9380 C   0  0  0  0  0  0  0  0  0  0  0  0
  176.3340   20.0000   46.9150 C   0  0  0  0  0  0  0  0  0  0  0  0
  175.5700   20.8880   47.6750 C   0  0  0  0  0  0  0  0  0  0  0  0
  176.1980   21.8590   48.4580 C   0  0  0  0  0  0  0  0  0  0  0  0
  177.5880   21.9400   48.4790 C   0  0  0  0  0  0  0  0  0  0  0  0
  178.1370   22.9140   49.2690 O   0  0  0  0  0  0  0  0  0  0  0  0
  178.3530   21.0520   47.7180 C   0  0  0  0  0  0  0  0  0  0  0  0
  179.8150   21.1040   47.7130 C   0  0  0  0  0  0  0  0  0  0  0  0
  180.4400   21.9230   48.3810 O   0  0  0  0  0  0  0  0  0  0  0  0
  180.5310   20.1220   46.8670 C   0  0  0  0  0  0  0  0  0  0  0  0
  181.9130   20.1680   46.8790 O   0  0  0  0  0  0  0  0  0  0  0  0
  181.3680   18.5310   44.3150 C   0  0  0  0  0  0  0  0  0  0  0  0
  181.9080   17.5430   43.4870 C   0  0  0  0  0  0  0  0  0  0  0  0
  181.5040   16.2050   43.6040 C   0  0  0  0  0  0  0  0  0  0  0  0
  182.1050   15.1630   42.6950 C   0  0  0  0  0  0  0  0  0  0  0  0
  181.2540   14.7430   41.7120 F   0  0  0  0  0  0  0  0  0  0  0  0
  178.6136   13.0183   44.2886 H   0  0  0  0  0  0  0  0  0  0  0  0
  178.3868   14.7210   43.4644 H   0  0  0  0  0  0  0  0  0  0  0  0
  180.6046   13.8181   45.4132 H   0  0  0  0  0  0  0  0  0  0  0  0
  179.2416   16.6014   46.1448 H   0  0  0  0  0  0  0  0  0  0  0  0
  175.8386   19.2352   46.2989 H   0  0  0  0  0  0  0  0  0  0  0  0
  174.4721   20.8226   47.6569 H   0  0  0  0  0  0  0  0  0  0  0  0
  175.5960   22.5583   49.0568 H   0  0  0  0  0  0  0  0  0  0  0  0
  177.5880   23.5600   49.6680 H   0  0  0  0  0  0  0  0  0  0  0  0
  182.3570   20.7280   47.4850 H   0  0  0  0  0  0  0  0  0  0  0  0
  181.6969   19.5746   44.2019 H   0  0  0  0  0  0  0  0  0  0  0  0
  182.6602   17.8186   42.7332 H   0  0  0  0  0  0  0  0  0  0  0  0
  183.0015   15.5893   42.2211 H   0  0  0  0  0  0  0  0  0  0  0  0
  182.3396   14.2866   43.3170 H   0  0  0  0  0  0  0  0  0  0  0  0
  1  2  2  0
  2  3  1  0
  3  4  2  0
  4  5  1  0
  5  6  1  0
  6  7  1  0
  7  8  1  0
  8  9  2  0
  9 10  1  0
 10 11  2  0
 11 12  1  0
 12 13  1  0
 12 14  2  0
 14 15  1  0
 15 16  2  0
 15 17  1  0
 17 18  1  0
  5 19  2  0
 19 20  1  0
 20 21  2  0
 21 22  1  0
 22 23  1  0
 21  3  1  0
 17  6  2  0
 14  8  1  0
  1 24  1  0
  1 25  1  0
  2 26  1  0
  4 27  1  0
  9 28  1  0
 10 29  1  0
 11 30  1  0
 13 31  1  0
 18 32  1  0
 19 33  1  0
 20 34  1  0
 22 35  1  0
 22 36  1  0
M  END
>  <meeko>  (1) 
{"is_sidechain": [false], "free_energy": -7.689, "intermolecular_energy": -9.488, "internal_energy": -0.383}

$$$$
cand_035_out
     RDKit          3D

 36 38  0  0  0  0  0  0  0  0999 V2000
  174.7240   19.9250   47.3050 C   0  0  0  0  0  0  0  0  0  0  0  0
  175.5360   20.9190   46.9260 C   0  0  0  0  0  0  0  0  0  0  0  0
  176.9830   20.8650   47.1510 C   0  0  0  0  0  0  0  0  0  0  0  0
  177.7300   19.9440   46.3960 C   0  0  0  0  0  0  0  0  0  0  0  0
  179.1200   19.8300   46.5520 C   0  0  0  0  0  0  0  0  0  0  0  0
  179.8690   18.8320   45.7600 C   0  0  0  0  0  0  0  0  0  0  0  0
  179.2750   17.5750   45.7740 O   0  0  0  0  0  0  0  0  0  0  0  0
  179.8680   16.5530   45.0780 C   0  0  0  0  0  0  0  0  0  0  0  0
  179.2450   15.3060   45.1300 C   0  0  0  0  0  0  0  0  0  0  0  0
  179.7970   14.2220   44.4420 C   0  0  0  0  0  0  0  0  0  0  0  0
  180.9700   14.3870   43.7030 C   0  0  0  0  0  0  0  0  0  0  0  0
  181.5890   15.6330   43.6530 C   0  0  0  0  0  0  0  0  0  0  0  0
  182.7340   15.7240   42.9090 O   0  0  0  0  0  0  0  0  0  0  0  0
  181.0370   16.7170   44.3410 C   0  0  0  0  0  0  0  0  0  0  0  0
  181.6570   18.0430   44.3140 C   0  0  0  0  0  0  0  0  0  0  0  0
  182.6840   18.2690   43.6800 O   0  0  0  0  0  0  0  0  0  0  0  0
  180.9960   19.1220   45.0840 C   0  0  0  0  0  0  0  0  0  0  0  0
  181.5790   20.3740   45.0410 O   0  0  0  0  0  0  0  0  0  0  0  0
  179.7520   20.6480   47.4950 C   0  0  0  0  0  0  0  0  0  0  0  0
  179.0190   21.5670   48.2510 C   0  0  0  0  0  0  0  0  0  0  0  0
  177.6310   21.6880   48.0880 C   0  0  0  0  0  0  0  0  0  0  0  0
  176.8690   22.6880   48.9200 C   0  0  0  0  0  0  0  0  0  0  0  0
  176.5950   23.8500   48.2570 F   0  0  0  0  0  0  0  0  0  0  0  0
  173.6420   19.9981   47.1206 H   0  0  0  0  0  0  0  0  0  0  0  0
  175.1386   19.0349   47.8009 H   0  0  0  0  0  0  0  0  0  0  0  0
  175.1048   21.8019   46.4314 H   0  0  0  0  0  0  0  0  0  0  0  0
  177.2147   19.2998   45.6684 H   0  0  0  0  0  0  0  0  0  0  0  0
  178.3205   15.1760   45.7117 H   0  0  0  0  0  0  0  0  0  0  0  0
  179.3069   13.2380   44.4827 H   0  0  0  0  0  0  0  0  0  0  0  0
  181.4044   13.5339   43.1612 H   0  0  0  0  0  0  0  0  0  0  0  0
  183.4460   16.2550   43.2070 H   0  0  0  0  0  0  0  0  0  0  0  0
  181.5230   20.9440   45.7830 H   0  0  0  0  0  0  0  0  0  0  0  0
  180.8389   20.5668   47.6431 H   0  0  0  0  0  0  0  0  0  0  0  0
  179.5372   22.2036   48.9833 H   0  0  0  0  0  0  0  0  0  0  0  0
  175.9176   22.2308   49.2296 H   0  0  0  0  0  0  0  0  0  0  0  0
  177.5055   22.9471   49.7789 H   0  0  0  0  0  0  0  0  0  0  0  0
  1  2  2  0
  2  3  1  0
  3  4  2  0
  4  5  1  0
  5  6  1  0
  6  7  1  0
  7  8  1  0
  8  9  2  0
  9 10  1  0
 10 11  2  0
 11 12  1  0
 12 13  1  0
 12 14  2  0
 14 15  1  0
 15 16  2  0
 15 17  1  0
 17 18  1  0
  5 19  2  0
 19 20  1  0
 20 21  2  0
 21 22  1  0
 22 23  1  0
 21  3  1  0
 17  6  2  0
 14  8  1  0
  1 24  1  0
  1 25  1  0
  2 26  1  0
  4 27  1  0
  9 28  1  0
 10 29  1  0
 11 30  1  0
 13 31  1  0
 18 32  1  0
 19 33  1  0
 20 34  1  0
 22 35  1  0
 22 36  1  0
M  END
>  <meeko>  (2) 
{"is_sidechain": [false], "free_energy": -7.302, "intermolecular_energy": -9.037, "internal_energy": -0.357}

$$$$
cand_035_out
     RDKit          3D

 36 38  0  0  0  0  0  0  0  0999 V2000
  181.0130   16.5540   40.3380 C   0  0  0  0  0  0  0  0  0  0  0  0
  181.6980   16.8310   41.4530 C   0  0  0  0  0  0  0  0  0  0  0  0
  181.1320   16.6040   42.7860 C   0  0  0  0  0  0  0  0  0  0  0  0
  180.8520   17.7290   43.5800 C   0  0  0  0  0  0  0  0  0  0  0  0
  180.3100   17.5960   44.8680 C   0  0  0  0  0  0  0  0  0  0  0  0
  180.0540   18.8000   45.6850 C   0  0  0  0  0  0  0  0  0  0  0  0
  178.7570   18.8480   46.1840 O   0  0  0  0  0  0  0  0  0  0  0  0
  178.3840   19.9150   46.9610 C   0  0  0  0  0  0  0  0  0  0  0  0
  177.0690   19.9300   47.4290 C   0  0  0  0  0  0  0  0  0  0  0  0
  176.6260   20.9870   48.2270 C   0  0  0  0  0  0  0  0  0  0  0  0
  177.4970   22.0270   48.5570 C   0  0  0  0  0  0  0  0  0  0  0  0
  178.8080   22.0100   48.0890 C   0  0  0  0  0  0  0  0  0  0  0  0
  179.6070   23.0600   48.4520 O   0  0  0  0  0  0  0  0  0  0  0  0
  179.2520   20.9520   47.2900 C   0  0  0  0  0  0  0  0  0  0  0  0
  180.6220   20.8960   46.7780 C   0  0  0  0  0  0  0  0  0  0  0  0
  181.4480   21.7690   47.0310 O   0  0  0  0  0  0  0  0  0  0  0  0
  180.9890   19.7350   45.9340 C   0  0  0  0  0  0  0  0  0  0  0  0
  182.2890   19.6830   45.4670 O   0  0  0  0  0  0  0  0  0  0  0  0
  180.0660   16.3080   45.3560 C   0  0  0  0  0  0  0  0  0  0  0  0
  180.3400   15.1830   44.5750 C   0  0  0  0  0  0  0  0  0  0  0  0
  180.8730   15.3150   43.2830 C   0  0  0  0  0  0  0  0  0  0  0  0
  181.1590   14.0800   42.4660 C   0  0  0  0  0  0  0  0  0  0  0  0
  182.3990   14.0840   41.8930 F   0  0  0  0  0  0  0  0  0  0  0  0
  181.4680   16.7366   39.3533 H   0  0  0  0  0  0  0  0  0  0  0  0
  179.9947   16.1436   40.4058 H   0  0  0  0  0  0  0  0  0  0  0  0
  182.7152   17.2409   41.3672 H   0  0  0  0  0  0  0  0  0  0  0  0
  181.0617   18.7338   43.1844 H   0  0  0  0  0  0  0  0  0  0  0  0
  176.3827   19.1104   47.1696 H   0  0  0  0  0  0  0  0  0  0  0  0
  175.5898   21.0002   48.5959 H   0  0  0  0  0  0  0  0  0  0  0  0
  177.1477   22.8590   49.1861 H   0  0  0  0  0  0  0  0  0  0  0  0
  180.3980   22.9040   48.9290 H   0  0  0  0  0  0  0  0  0  0  0  0
  183.0040   19.6560   46.0730 H   0  0  0  0  0  0  0  0  0  0  0  0
  179.6532   16.1796   46.3675 H   0  0  0  0  0  0  0  0  0  0  0  0
  180.1354   14.1800   44.9777 H   0  0  0  0  0  0  0  0  0  0  0  0
  181.0814   13.2014   43.1233 H   0  0  0  0  0  0  0  0  0  0  0  0
  180.4235   14.0538   41.6485 H   0  0  0  0  0  0  0  0  0  0  0  0
  1  2  2  0
  2  3  1  0
  3  4  2  0
  4  5  1  0
  5  6  1  0
  6  7  1  0
  7  8  1  0
  8  9  2  0
  9 10  1  0
 10 11  2  0
 11 12  1  0
 12 13  1  0
 12 14  2  0
 14 15  1  0
 15 16  2  0
 15 17  1  0
 17 18  1  0
  5 19  2  0
 19 20  1  0
 20 21  2  0
 21 22  1  0
 22 23  1  0
 21  3  1  0
 17  6  2  0
 14  8  1  0
  1 24  1  0
  1 25  1  0
  2 26  1  0
  4 27  1  0
  9 28  1  0
 10 29  1  0
 11 30  1  0
 13 31  1  0
 18 32  1  0
 19 33  1  0
 20 34  1  0
 22 35  1  0
 22 36  1  0
M  END
>  <meeko>  (3) 
{"is_sidechain": [false], "free_energy": -6.452, "intermolecular_energy": -8.499, "internal_energy": 0.154}

$$$$
cand_035_out
     RDKit          3D

 36 38  0  0  0  0  0  0  0  0999 V2000
  179.4060   14.3250   44.1350 C   0  0  0  0  0  0  0  0  0  0  0  0
  179.8390   15.0620   45.1640 C   0  0  0  0  0  0  0  0  0  0  0  0
  179.9970   16.5160   45.0630 C   0  0  0  0  0  0  0  0  0  0  0  0
  179.0930   17.3250   45.7710 C   0  0  0  0  0  0  0  0  0  0  0  0
  179.1760   18.7250   45.7260 C   0  0  0  0  0  0  0  0  0  0  0  0
  178.1920   19.5450   46.4630 C   0  0  0  0  0  0  0  0  0  0  0  0
  178.7170   20.7560   46.9000 O   0  0  0  0  0  0  0  0  0  0  0  0
  177.9090   21.6150   47.5990 C   0  0  0  0  0  0  0  0  0  0  0  0
  178.4800   22.8130   48.0310 C   0  0  0  0  0  0  0  0  0  0  0  0
  177.7110   23.7340   48.7460 C   0  0  0  0  0  0  0  0  0  0  0  0
  176.3720   23.4570   49.0290 C   0  0  0  0  0  0  0  0  0  0  0  0
  175.8040   22.2610   48.5970 C   0  0  0  0  0  0  0  0  0  0  0  0
  174.4870   22.0550   48.9070 O   0  0  0  0  0  0  0  0  0  0  0  0
  176.5740   21.3400   47.8810 C   0  0  0  0  0  0  0  0  0  0  0  0
  176.0150   20.0720   47.4090 C   0  0  0  0  0  0  0  0  0  0  0  0
  174.8450   19.7600   47.6110 O   0  0  0  0  0  0  0  0  0  0  0  0
  176.9180   19.1620   46.6650 C   0  0  0  0  0  0  0  0  0  0  0  0
  176.3780   17.9740   46.2100 O   0  0  0  0  0  0  0  0  0  0  0  0
  180.1780   19.3060   44.9400 C   0  0  0  0  0  0  0  0  0  0  0  0
  181.0820   18.5110   44.2310 C   0  0  0  0  0  0  0  0  0  0  0  0
  181.0060   17.1110   44.2840 C   0  0  0  0  0  0  0  0  0  0  0  0
  181.9960   16.2810   43.5070 C   0  0  0  0  0  0  0  0  0  0  0  0
  181.5680   15.9620   42.2500 F   0  0  0  0  0  0  0  0  0  0  0  0
  179.2989   13.2358   44.2452 H   0  0  0  0  0  0  0  0  0  0  0  0
  179.1570   14.8082   43.1787 H   0  0  0  0  0  0  0  0  0  0  0  0
  180.0835   14.5627   46.1132 H   0  0  0  0  0  0  0  0  0  0  0  0
  178.3037   16.8513   46.3732 H   0  0  0  0  0  0  0  0  0  0  0  0
  179.5348   23.0317   47.8086 H   0  0  0  0  0  0  0  0  0  0  0  0
  178.1606   24.6784   49.0865 H   0  0  0  0  0  0  0  0  0  0  0  0
  175.7666   24.1824   49.5923 H   0  0  0  0  0  0  0  0  0  0  0  0
  174.2290   21.9360   49.7990 H   0  0  0  0  0  0  0  0  0  0  0  0
  176.0570   17.9110   45.3320 H   0  0  0  0  0  0  0  0  0  0  0  0
  180.2546   20.4017   44.8798 H   0  0  0  0  0  0  0  0  0  0  0  0
  181.8640   18.9892   43.6229 H   0  0  0  0  0  0  0  0  0  0  0  0
  182.9352   16.8473   43.4223 H   0  0  0  0  0  0  0  0  0  0  0  0
  182.1281   15.3362   44.0546 H   0  0  0  0  0  0  0  0  0  0  0  0
  1  2  2  0
  2  3  1  0
  3  4  2  0
  4  5  1  0
  5  6  1  0
  6  7  1  0
  7  8  1  0
  8  9  2  0
  9 10  1  0
 10 11  2  0
 11 12  1  0
 12 13  1  0
 12 14  2  0
 14 15  1  0
 15 16  2  0
 15 17  1  0
 17 18  1  0
  5 19  2  0
 19 20  1  0
 20 21  2  0
 21 22  1  0
 22 23  1  0
 21  3  1  0
 17  6  2  0
 14  8  1  0
  1 24  1  0
  1 25  1  0
  2 26  1  0
  4 27  1  0
  9 28  1  0
 10 29  1  0
 11 30  1  0
 13 31  1  0
 18 32  1  0
 19 33  1  0
 20 34  1  0
 22 35  1  0
 22 36  1  0
M  END
>  <meeko>  (4) 
{"is_sidechain": [false], "free_energy": -6.274, "intermolecular_energy": -8.232, "internal_energy": 0.108}

$$$$
cand_035_out
     RDKit          3D

 36 38  0  0  0  0  0  0  0  0999 V2000
  176.3500   20.6610   46.5380 C   0  0  0  0  0  0  0  0  0  0  0  0
  177.2870   20.0130   47.2400 C   0  0  0  0  0  0  0  0  0  0  0  0
  178.6570   19.8580   46.7430 C   0  0  0  0  0  0  0  0  0  0  0  0
  178.9140   18.8120   45.8400 C   0  0  0  0  0  0  0  0  0  0  0  0
  180.1980   18.5960   45.3190 C   0  0  0  0  0  0  0  0  0  0  0  0
  180.4360   17.4690   44.3930 C   0  0  0  0  0  0  0  0  0  0  0  0
  180.7580   17.8870   43.1060 O   0  0  0  0  0  0  0  0  0  0  0  0
  181.0050   16.9420   42.1440 C   0  0  0  0  0  0  0  0  0  0  0  0
  181.3100   17.4050   40.8630 C   0  0  0  0  0  0  0  0  0  0  0  0
  181.5740   16.4940   39.8380 C   0  0  0  0  0  0  0  0  0  0  0  0
  181.5320   15.1220   40.0930 C   0  0  0  0  0  0  0  0  0  0  0  0
  181.2260   14.6620   41.3710 C   0  0  0  0  0  0  0  0  0  0  0  0
  181.2040   13.3060   41.5510 O   0  0  0  0  0  0  0  0  0  0  0  0
  180.9630   15.5740   42.3980 C   0  0  0  0  0  0  0  0  0  0  0  0
  180.6380   15.1320   43.7550 C   0  0  0  0  0  0  0  0  0  0  0  0
  180.5900   13.9430   44.0590 O   0  0  0  0  0  0  0  0  0  0  0  0
  180.3680   16.1790   44.7680 C   0  0  0  0  0  0  0  0  0  0  0  0
  180.0770   15.7540   46.0500 O   0  0  0  0  0  0  0  0  0  0  0  0
  181.2340   19.4410   45.7330 C   0  0  0  0  0  0  0  0  0  0  0  0
  180.9900   20.4840   46.6300 C   0  0  0  0  0  0  0  0  0  0  0  0
  179.7040   20.7070   47.1440 C   0  0  0  0  0  0  0  0  0  0  0  0
  179.4740   21.8410   48.1110 C   0  0  0  0  0  0  0  0  0  0  0  0
  179.0180   22.9810   47.5130 F   0  0  0  0  0  0  0  0  0  0  0  0
  175.3310   20.7593   46.9404 H   0  0  0  0  0  0  0  0  0  0  0  0
  176.5988   21.0954   45.5585 H   0  0  0  0  0  0  0  0  0  0  0  0
  177.0215   19.5846   48.2177 H   0  0  0  0  0  0  0  0  0  0  0  0
  178.0908   18.1489   45.5356 H   0  0  0  0  0  0  0  0  0  0  0  0
  181.3423   18.4858   40.6612 H   0  0  0  0  0  0  0  0  0  0  0  0
  181.8154   16.8579   38.8284 H   0  0  0  0  0  0  0  0  0  0  0  0
  181.7404   14.4052   39.2851 H   0  0  0  0  0  0  0  0  0  0  0  0
  180.4350   12.8900   41.8880 H   0  0  0  0  0  0  0  0  0  0  0  0
  179.4010   15.1200   46.1920 H   0  0  0  0  0  0  0  0  0  0  0  0
  182.2520   19.2821   45.3478 H   0  0  0  0  0  0  0  0  0  0  0  0
  181.8181   21.1396   46.9375 H   0  0  0  0  0  0  0  0  0  0  0  0
  178.7326   21.5181   48.8567 H   0  0  0  0  0  0  0  0  0  0  0  0
  180.4460   22.0805   48.5669 H   0  0  0  0  0  0  0  0  0  0  0  0
  1  2  2  0
  2  3  1  0
  3  4  2  0
  4  5  1  0
  5  6  1  0
  6  7  1  0
  7  8  1  0
  8  9  2  0
  9 10  1  0
 10 11  2  0
 11 12  1  0
 12 13  1  0
 12 14  2  0
 14 15  1  0
 15 16  2  0
 15 17  1  0
 17 18  1  0
  5 19  2  0
 19 20  1  0
 20 21  2  0
 21 22  1  0
 22 23  1  0
 21  3  1  0
 17  6  2  0
 14  8  1  0
  1 24  1  0
  1 25  1  0
  2 26  1  0
  4 27  1  0
  9 28  1  0
 10 29  1  0
 11 30  1  0
 13 31  1  0
 18 32  1  0
 19 33  1  0
 20 34  1  0
 22 35  1  0
 22 36  1  0
M  END
>  <meeko>  (5) 
{"is_sidechain": [false], "free_energy": -5.35, "intermolecular_energy": -6.453, "internal_energy": -0.532}

$$$$
cand_035_out
     RDKit          3D

 36 38  0  0  0  0  0  0  0  0999 V2000
  182.8770   21.7150   45.8900 C   0  0  0  0  0  0  0  0  0  0  0  0
  182.6940   20.6340   45.1220 C   0  0  0  0  0  0  0  0  0  0  0  0
  181.4980   19.7950   45.2390 C   0  0  0  0  0  0  0  0  0  0  0  0
  180.3820   20.3310   45.9050 C   0  0  0  0  0  0  0  0  0  0  0  0
  179.2000   19.5920   46.0600 C   0  0  0  0  0  0  0  0  0  0  0  0
  178.0560   20.1780   46.7900 C   0  0  0  0  0  0  0  0  0  0  0  0
  178.3270   21.4480   47.2870 O   0  0  0  0  0  0  0  0  0  0  0  0
  177.3500   22.1080   47.9870 C   0  0  0  0  0  0  0  0  0  0  0  0
  177.6680   23.3740   48.4790 C   0  0  0  0  0  0  0  0  0  0  0  0
  176.7170   24.1010   49.1990 C   0  0  0  0  0  0  0  0  0  0  0  0
  175.4490   23.5620   49.4250 C   0  0  0  0  0  0  0  0  0  0  0  0
  175.1340   22.2980   48.9330 C   0  0  0  0  0  0  0  0  0  0  0  0
  173.8730   21.8320   49.1900 O   0  0  0  0  0  0  0  0  0  0  0  0
  176.0860   21.5710   48.2130 C   0  0  0  0  0  0  0  0  0  0  0  0
  175.7940   20.2400   47.6780 C   0  0  0  0  0  0  0  0  0  0  0  0
  174.7000   19.7020   47.8290 O   0  0  0  0  0  0  0  0  0  0  0  0
  176.8750   19.5510   46.9350 C   0  0  0  0  0  0  0  0  0  0  0  0
  176.5870   18.3000   46.4210 O   0  0  0  0  0  0  0  0  0  0  0  0
  179.1580   18.2910   45.5470 C   0  0  0  0  0  0  0  0  0  0  0  0
  180.2610   17.7480   44.8830 C   0  0  0  0  0  0  0  0  0  0  0  0
  181.4400   18.4900   44.7190 C   0  0  0  0  0  0  0  0  0  0  0  0
  182.6130   17.8750   43.9990 C   0  0  0  0  0  0  0  0  0  0  0  0
  182.3830   16.5960   43.5790 F   0  0  0  0  0  0  0  0  0  0  0  0
  183.7866   22.3230   45.7762 H   0  0  0  0  0  0  0  0  0  0  0  0
  182.1178   21.9953   46.6350 H   0  0  0  0  0  0  0  0  0  0  0  0
  183.4632   20.3678   44.3820 H   0  0  0  0  0  0  0  0  0  0  0  0
  180.4369   21.3511   46.3130 H   0  0  0  0  0  0  0  0  0  0  0  0
  178.6665   23.7994   48.3002 H   0  0  0  0  0  0  0  0  0  0  0  0
  176.9673   25.0989   49.5882 H   0  0  0  0  0  0  0  0  0  0  0  0
  174.6998   24.1351   49.9910 H   0  0  0  0  0  0  0  0  0  0  0  0
  173.6260   21.6050   50.0650 H   0  0  0  0  0  0  0  0  0  0  0  0
  177.0510   17.9840   45.6710 H   0  0  0  0  0  0  0  0  0  0  0  0
  178.2457   17.6884   45.6679 H   0  0  0  0  0  0  0  0  0  0  0  0
  180.2040   16.7247   44.4834 H   0  0  0  0  0  0  0  0  0  0  0  0
  182.8457   18.4939   43.1199 H   0  0  0  0  0  0  0  0  0  0  0  0
  183.4482   17.8363   44.7139 H   0  0  0  0  0  0  0  0  0  0  0  0
  1  2  2  0
  2  3  1  0
  3  4  2  0
  4  5  1  0
  5  6  1  0
  6  7  1  0
  7  8  1  0
  8  9  2  0
  9 10  1  0
 10 11  2  0
 11 12  1  0
 12 13  1  0
 12 14  2  0
 14 15  1  0
 15 16  2  0
 15 17  1  0
 17 18  1  0
  5 19  2  0
 19 20  1  0
 20 21  2  0
 21 22  1  0
 22 23  1  0
 21  3  1  0
 17  6  2  0
 14  8  1  0
  1 24  1  0
  1 25  1  0
  2 26  1  0
  4 27  1  0
  9 28  1  0
 10 29  1  0
 11 30  1  0
 13 31  1  0
 18 32  1  0
 19 33  1  0
 20 34  1  0
 22 35  1  0
 22 36  1  0
M  END
>  <meeko>  (6) 
{"is_sidechain": [false], "free_energy": -5.301, "intermolecular_energy": -7.03, "internal_energy": 0.106}

$$$$
cand_035_out
     RDKit          3D

 36 38  0  0  0  0  0  0  0  0999 V2000
  178.5330   22.7160   47.5830 C   0  0  0  0  0  0  0  0  0  0  0  0
  179.2760   21.6340   47.8440 C   0  0  0  0  0  0  0  0  0  0  0  0
  180.4120   21.2530   46.9990 C   0  0  0  0  0  0  0  0  0  0  0  0
  181.5310   22.1020   46.9810 C   0  0  0  0  0  0  0  0  0  0  0  0
  182.6580   21.8090   46.1990 C   0  0  0  0  0  0  0  0  0  0  0  0
  183.8060   22.7390   46.1840 C   0  0  0  0  0  0  0  0  0  0  0  0
  184.0590   23.3040   47.4290 O   0  0  0  0  0  0  0  0  0  0  0  0
  185.0990   24.1870   47.5570 C   0  0  0  0  0  0  0  0  0  0  0  0
  185.3100   24.7410   48.8210 C   0  0  0  0  0  0  0  0  0  0  0  0
  186.3540   25.6470   49.0200 C   0  0  0  0  0  0  0  0  0  0  0  0
  187.1870   25.9990   47.9570 C   0  0  0  0  0  0  0  0  0  0  0  0
  186.9750   25.4450   46.6960 C   0  0  0  0  0  0  0  0  0  0  0  0
  187.8290   25.8330   45.7000 O   0  0  0  0  0  0  0  0  0  0  0  0
  185.9300   24.5390   46.4970 C   0  0  0  0  0  0  0  0  0  0  0  0
  185.6740   23.9350   45.1890 C   0  0  0  0  0  0  0  0  0  0  0  0
  186.3670   24.1880   44.2070 O   0  0  0  0  0  0  0  0  0  0  0  0
  184.5360   22.9920   45.0830 C   0  0  0  0  0  0  0  0  0  0  0  0
  184.3100   22.4140   43.8470 O   0  0  0  0  0  0  0  0  0  0  0  0
  182.6390   20.6500   45.4150 C   0  0  0  0  0  0  0  0  0  0  0  0
  181.5310   19.7980   45.4250 C   0  0  0  0  0  0  0  0  0  0  0  0
  180.4080   20.0850   46.2150 C   0  0  0  0  0  0  0  0  0  0  0  0
  179.2280   19.1460   46.2020 C   0  0  0  0  0  0  0  0  0  0  0  0
  179.5330   17.8970   45.7420 F   0  0  0  0  0  0  0  0  0  0  0  0
  177.6873   22.9734   48.2376 H   0  0  0  0  0  0  0  0  0  0  0  0
  178.7680   23.3479   46.7138 H   0  0  0  0  0  0  0  0  0  0  0  0
  179.0274   21.0129   48.7172 H   0  0  0  0  0  0  0  0  0  0  0  0
  181.5233   23.0159   47.5931 H   0  0  0  0  0  0  0  0  0  0  0  0
  184.6543   24.4640   49.6597 H   0  0  0  0  0  0  0  0  0  0  0  0
  186.5200   26.0837   50.0159 H   0  0  0  0  0  0  0  0  0  0  0  0
  188.0094   26.7124   48.1142 H   0  0  0  0  0  0  0  0  0  0  0  0
  188.7390   25.6130   45.7500 H   0  0  0  0  0  0  0  0  0  0  0  0
  184.9820   22.4290   43.1930 H   0  0  0  0  0  0  0  0  0  0  0  0
  183.5062   20.4066   44.7835 H   0  0  0  0  0  0  0  0  0  0  0  0
  181.5398   18.8897   44.8046 H   0  0  0  0  0  0  0  0  0  0  0  0
  178.8436   19.0551   47.2286 H   0  0  0  0  0  0  0  0  0  0  0  0
  178.4822   19.5717   45.5145 H   0  0  0  0  0  0  0  0  0  0  0  0
  1  2  2  0
  2  3  1  0
  3  4  2  0
  4  5  1  0
  5  6  1  0
  6  7  1  0
  7  8  1  0
  8  9  2  0
  9 10  1  0
 10 11  2  0
 11 12  1  0
 12 13  1  0
 12 14  2  0
 14 15  1  0
 15 16  2  0
 15 17  1  0
 17 18  1  0
  5 19  2  0
 19 20  1  0
 20 21  2  0
 21 22  1  0
 22 23  1  0
 21  3  1  0
 17  6  2  0
 14  8  1  0
  1 24  1  0
  1 25  1  0
  2 26  1  0
  4 27  1  0
  9 28  1  0
 10 29  1  0
 11 30  1  0
 13 31  1  0
 18 32  1  0
 19 33  1  0
 20 34  1  0
 22 35  1  0
 22 36  1  0
M  END
>  <meeko>  (7) 
{"is_sidechain": [false], "free_energy": -5.235, "intermolecular_energy": -6.723, "internal_energy": -0.119}

$$$$
cand_035_out
     RDKit          3D

 36 38  0  0  0  0  0  0  0  0999 V2000
  186.8680   21.3840   43.0410 C   0  0  0  0  0  0  0  0  0  0  0  0
  186.1300   22.4840   43.2320 C   0  0  0  0  0  0  0  0  0  0  0  0
  185.4250   22.7330   44.4930 C   0  0  0  0  0  0  0  0  0  0  0  0
  184.2030   22.0720   44.7030 C   0  0  0  0  0  0  0  0  0  0  0  0
  183.4660   22.2580   45.8830 C   0  0  0  0  0  0  0  0  0  0  0  0
  182.1710   21.5680   46.0580 C   0  0  0  0  0  0  0  0  0  0  0  0
  181.2530   22.3190   46.7830 O   0  0  0  0  0  0  0  0  0  0  0  0
  180.0080   21.7960   47.0190 C   0  0  0  0  0  0  0  0  0  0  0  0
  179.1220   22.5770   47.7620 C   0  0  0  0  0  0  0  0  0  0  0  0
  177.8370   22.1040   48.0370 C   0  0  0  0  0  0  0  0  0  0  0  0
  177.4380   20.8500   47.5690 C   0  0  0  0  0  0  0  0  0  0  0  0
  178.3240   20.0720   46.8280 C   0  0  0  0  0  0  0  0  0  0  0  0
  177.8670   18.8560   46.3990 O   0  0  0  0  0  0  0  0  0  0  0  0
  179.6100   20.5460   46.5530 C   0  0  0  0  0  0  0  0  0  0  0  0
  180.5700   19.7600   45.7770 C   0  0  0  0  0  0  0  0  0  0  0  0
  180.2920   18.6520   45.3250 O   0  0  0  0  0  0  0  0  0  0  0  0
  181.9100   20.3500   45.5480 C   0  0  0  0  0  0  0  0  0  0  0  0
  182.8060   19.6070   44.8020 O   0  0  0  0  0  0  0  0  0  0  0  0
  183.9700   23.1350   46.8490 C   0  0  0  0  0  0  0  0  0  0  0  0
  185.1840   23.7980   46.6500 C   0  0  0  0  0  0  0  0  0  0  0  0
  185.9260   23.6050   45.4760 C   0  0  0  0  0  0  0  0  0  0  0  0
  187.2320   24.3350   45.2910 C   0  0  0  0  0  0  0  0  0  0  0  0
  187.1310   25.4350   44.4880 F   0  0  0  0  0  0  0  0  0  0  0  0
  187.3843   21.2277   42.0824 H   0  0  0  0  0  0  0  0  0  0  0  0
  186.9582   20.6362   43.8426 H   0  0  0  0  0  0  0  0  0  0  0  0
  186.0502   23.2219   42.4201 H   0  0  0  0  0  0  0  0  0  0  0  0
  183.8161   21.3951   43.9270 H   0  0  0  0  0  0  0  0  0  0  0  0
  179.4355   23.5647   48.1310 H   0  0  0  0  0  0  0  0  0  0  0  0
  177.1385   22.7197   48.6227 H   0  0  0  0  0  0  0  0  0  0  0  0
  176.4258   20.4776   47.7853 H   0  0  0  0  0  0  0  0  0  0  0  0
  176.9520   18.7260   46.2460 H   0  0  0  0  0  0  0  0  0  0  0  0
  183.0200   19.8710   43.9280 H   0  0  0  0  0  0  0  0  0  0  0  0
  183.4039   23.3049   47.7767 H   0  0  0  0  0  0  0  0  0  0  0  0
  185.5627   24.4806   47.4250 H   0  0  0  0  0  0  0  0  0  0  0  0
  187.5943   24.6567   46.2786 H   0  0  0  0  0  0  0  0  0  0  0  0
  187.9263   23.6376   44.7995 H   0  0  0  0  0  0  0  0  0  0  0  0
  1  2  2  0
  2  3  1  0
  3  4  2  0
  4  5  1  0
  5  6  1  0
  6  7  1  0
  7  8  1  0
  8  9  2  0
  9 10  1  0
 10 11  2  0
 11 12  1  0
 12 13  1  0
 12 14  2  0
 14 15  1  0
 15 16  2  0
 15 17  1  0
 17 18  1  0
  5 19  2  0
 19 20  1  0
 20 21  2  0
 21 22  1  0
 22 23  1  0
 21  3  1  0
 17  6  2  0
 14  8  1  0
  1 24  1  0
  1 25  1  0
  2 26  1  0
  4 27  1  0
  9 28  1  0
 10 29  1  0
 11 30  1  0
 13 31  1  0
 18 32  1  0
 19 33  1  0
 20 34  1  0
 22 35  1  0
 22 36  1  0
M  END
>  <meeko>  (8) 
{"is_sidechain": [false], "free_energy": -5.223, "intermolecular_energy": -6.733, "internal_energy": -0.094}

$$$$
cand_035_out
     RDKit          3D

 36 38  0  0  0  0  0  0  0  0999 V2000
  178.5480   22.9980   47.3430 C   0  0  0  0  0  0  0  0  0  0  0  0
  179.2660   21.9530   47.7720 C   0  0  0  0  0  0  0  0  0  0  0  0
  180.2860   21.3180   46.9320 C   0  0  0  0  0  0  0  0  0  0  0  0
  181.4830   22.0190   46.7100 C   0  0  0  0  0  0  0  0  0  0  0  0
  182.5080   21.4810   45.9180 C   0  0  0  0  0  0  0  0  0  0  0  0
  183.7430   22.2580   45.6840 C   0  0  0  0  0  0  0  0  0  0  0  0
  184.3070   22.0130   44.4370 O   0  0  0  0  0  0  0  0  0  0  0  0
  185.4600   22.6710   44.0900 C   0  0  0  0  0  0  0  0  0  0  0  0
  185.9990   22.3850   42.8350 C   0  0  0  0  0  0  0  0  0  0  0  0
  187.1710   23.0220   42.4190 C   0  0  0  0  0  0  0  0  0  0  0  0
  187.8020   23.9440   43.2570 C   0  0  0  0  0  0  0  0  0  0  0  0
  187.2610   24.2260   44.5090 C   0  0  0  0  0  0  0  0  0  0  0  0
  187.9300   25.1400   45.2780 O   0  0  0  0  0  0  0  0  0  0  0  0
  186.0890   23.5890   44.9250 C   0  0  0  0  0  0  0  0  0  0  0  0
  185.4890   23.8590   46.2320 C   0  0  0  0  0  0  0  0  0  0  0  0
  185.9800   24.6610   47.0220 O   0  0  0  0  0  0  0  0  0  0  0  0
  184.2500   23.1250   46.5800 C   0  0  0  0  0  0  0  0  0  0  0  0
  183.6820   23.3960   47.8100 O   0  0  0  0  0  0  0  0  0  0  0  0
  182.3060   20.2260   45.3330 C   0  0  0  0  0  0  0  0  0  0  0  0
  181.1190   19.5200   45.5460 C   0  0  0  0  0  0  0  0  0  0  0  0
  180.0980   20.0530   46.3470 C   0  0  0  0  0  0  0  0  0  0  0  0
  178.8290   19.2670   46.5570 C   0  0  0  0  0  0  0  0  0  0  0  0
  177.7530   19.7870   45.8960 F   0  0  0  0  0  0  0  0  0  0  0  0
  177.7902   23.4511   47.9990 H   0  0  0  0  0  0  0  0  0  0  0  0
  178.7158   23.4037   46.3344 H   0  0  0  0  0  0  0  0  0  0  0  0
  179.0857   21.5596   48.7833 H   0  0  0  0  0  0  0  0  0  0  0  0
  181.6193   23.0104   47.1668 H   0  0  0  0  0  0  0  0  0  0  0  0
  185.5021   21.6593   42.1743 H   0  0  0  0  0  0  0  0  0  0  0  0
  187.5972   22.7970   41.4302 H   0  0  0  0  0  0  0  0  0  0  0  0
  188.7240   24.4462   42.9290 H   0  0  0  0  0  0  0  0  0  0  0  0
  188.5290   24.8490   45.9370 H   0  0  0  0  0  0  0  0  0  0  0  0
  182.8920   22.9620   48.0680 H   0  0  0  0  0  0  0  0  0  0  0  0
  183.0911   19.7899   44.6978 H   0  0  0  0  0  0  0  0  0  0  0  0
  180.9834   18.5332   45.0794 H   0  0  0  0  0  0  0  0  0  0  0  0
  178.9929   18.2389   46.2018 H   0  0  0  0  0  0  0  0  0  0  0  0
  178.5985   19.3038   47.6319 H   0  0  0  0  0  0  0  0  0  0  0  0
  1  2  2  0
  2  3  1  0
  3  4  2  0
  4  5  1  0
  5  6  1  0
  6  7  1  0
  7  8  1  0
  8  9  2  0
  9 10  1  0
 10 11  2  0
 11 12  1  0
 12 13  1  0
 12 14  2  0
 14 15  1  0
 15 16  2  0
 15 17  1  0
 17 18  1  0
  5 19  2  0
 19 20  1  0
 20 21  2  0
 21 22  1  0
 22 23  1  0
 21  3  1  0
 17  6  2  0
 14  8  1  0
  1 24  1  0
  1 25  1  0
  2 26  1  0
  4 27  1  0
  9 28  1  0
 10 29  1  0
 11 30  1  0
 13 31  1  0
 18 32  1  0
 19 33  1  0
 20 34  1  0
 22 35  1  0
 22 36  1  0
M  END
>  <meeko>  (9) 
{"is_sidechain": [false], "free_energy": -5.176, "intermolecular_energy": -6.665, "internal_energy": -0.105}

$$$$
