cand_023_out
     RDKit          3D

 47 50  0  0  0  0  0  0  0  0999 V2000
  179.3300   16.0350   45.4470 C   0  0  0  0  0  0  0  0  0  0  0  0
  179.7800   17.4630   45.2930 C   0  0  0  0  0  0  0  0  0  0  0  0
  179.2300   18.4560   46.1240 C   0  0  0  0  0  0  0  0  0  0  0  0
  179.6240   19.7990   46.0200 C   0  0  0  0  0  0  0  0  0  0  0  0
  179.0030   20.8180   46.8910 C   0  0  0  0  0  0  0  0  0  0  0  0
  177.6190   20.7020   46.9570 O   0  0  0  0  0  0  0  0  0  0  0  0
  176.9140   21.5850   47.7330 C   0  0  0  0  0  0  0  0  0  0  0  0
  175.5270   21.4400   47.7590 C   0  0  0  0  0  0  0  0  0  0  0  0
  174.7500   22.3060   48.5320 C   0  0  0  0  0  0  0  0  0  0  0  0
  175.3600   23.3160   49.2780 C   0  0  0  0  0  0  0  0  0  0  0  0
  176.7450   23.4600   49.2500 C   0  0  0  0  0  0  0  0  0  0  0  0
  177.2770   24.4700   50.0040 O   0  0  0  0  0  0  0  0  0  0  0  0
  177.5220   22.5930   48.4770 C   0  0  0  0  0  0  0  0  0  0  0  0
  178.9800   22.7080   48.4200 C   0  0  0  0  0  0  0  0  0  0  0  0
  179.5900   23.5670   49.0540 O   0  0  0  0  0  0  0  0  0  0  0  0
  179.7100   21.7440   47.5650 C   0  0  0  0  0  0  0  0  0  0  0  0
  181.0890   21.8540   47.5300 O   0  0  0  0  0  0  0  0  0  0  0  0
  180.5750   20.1370   45.0520 C   0  0  0  0  0  0  0  0  0  0  0  0
  181.1310   19.1570   44.2230 C   0  0  0  0  0  0  0  0  0  0  0  0
  180.7430   17.8130   44.3270 C   0  0  0  0  0  0  0  0  0  0  0  0
  181.2990   16.8030   43.5120 N   0  0  0  0  0  0  0  0  0  0  0  0
  181.2040   15.4570   44.0980 C   0  0  0  0  0  0  0  0  0  0  0  0
  182.0370   14.4880   43.2580 C   0  0  0  0  0  0  0  0  0  0  0  0
  181.6000   14.5140   41.7940 C   0  0  0  0  0  0  0  0  0  0  0  0
  181.6120   15.9410   41.2460 C   0  0  0  0  0  0  0  0  0  0  0  0
  180.7950   16.8830   42.1310 C   0  0  0  0  0  0  0  0  0  0  0  0
  179.2523   15.7883   46.5162 H   0  0  0  0  0  0  0  0  0  0  0  0
  178.3478   15.9065   44.9687 H   0  0  0  0  0  0  0  0  0  0  0  0
  180.0610   15.3666   44.9687 H   0  0  0  0  0  0  0  0  0  0  0  0
  178.4744   18.1736   46.8719 H   0  0  0  0  0  0  0  0  0  0  0  0
  175.0455   20.6445   47.1714 H   0  0  0  0  0  0  0  0  0  0  0  0
  173.6561   22.1920   48.5529 H   0  0  0  0  0  0  0  0  0  0  0  0
  174.7476   23.9972   49.8871 H   0  0  0  0  0  0  0  0  0  0  0  0
  177.3140   25.3400   49.6610 H   0  0  0  0  0  0  0  0  0  0  0  0
  181.6120   21.1070   47.3160 H   0  0  0  0  0  0  0  0  0  0  0  0
  180.8894   21.1853   44.9412 H   0  0  0  0  0  0  0  0  0  0  0  0
  181.8857   19.4453   43.4765 H   0  0  0  0  0  0  0  0  0  0  0  0
  181.5880   15.4756   45.1286 H   0  0  0  0  0  0  0  0  0  0  0  0
  180.1537   15.1302   44.1097 H   0  0  0  0  0  0  0  0  0  0  0  0
  183.0966   14.7764   43.3219 H   0  0  0  0  0  0  0  0  0  0  0  0
  181.8893   13.4705   43.6489 H   0  0  0  0  0  0  0  0  0  0  0  0
  182.2896   13.8949   41.2014 H   0  0  0  0  0  0  0  0  0  0  0  0
  180.5751   14.1203   41.7263 H   0  0  0  0  0  0  0  0  0  0  0  0
  182.6509   16.3000   41.2040 H   0  0  0  0  0  0  0  0  0  0  0  0
  181.1627   15.9311   40.2420 H   0  0  0  0  0  0  0  0  0  0  0  0
  180.8943   17.9144   41.7616 H   0  0  0  0  0  0  0  0  0  0  0  0
  179.7350   16.5901   42.1053 H   0  0  0  0  0  0  0  0  0  0  0  0
  1  2  1  0
  2  3  2  0
  3  4  1  0
  4  5  1  0
  5  6  1  0
  6  7  1  0
  7  8  2  0
  8  9  1  0
  9 10  2  0
 10 11  1  0
 11 12  1  0
 11 13  2  0
 13 14  1  0
 14 15  2  0
 14 16  1  0
 16 17  1  0
  4 18  2  0
 18 19  1  0
 19 20  2  0
 20 21  1  0
 21 22  1  0
 22 23  1  0
 23 24  1  0
 24 25  1  0
 25 26  1  0
 20  2  1  0
 26 21  1  0
 16  5  2  0
 13  7  1  0
  1 27  1  0
  1 28  1  0
  1 29  1  0
  3 30  1  0
  8 31  1  0
  9 32  1  0
 10 33  1  0
 12 34  1  0
 17 35  1  0
 18 36  1  0
 19 37  1  0
 22 38  1  0
 22 39  1  0
 23 40  1  0
 23 41  1  0
 24 42  1  0
 24 43  1  0
 25 44  1  0
 25 45  1  0
 26 46  1  0
 26 47  1  0
M  END
>  <meeko>  (1) 
{"is_sidechain": [false], "free_energy": -8.074, "intermolecular_energy": -9.49, "internal_energy": 1.182}

$$$$
cand_023_out
     RDKit          3D

 47 50  0  0  0  0  0  0  0  0999 V2000
  182.4590   18.9770   44.3630 C   0  0  0  0  0  0  0  0  0  0  0  0
  181.1060   18.8000   44.9990 C   0  0  0  0  0  0  0  0  0  0  0  0
  180.5470   19.8550   45.7430 C   0  0  0  0  0  0  0  0  0  0  0  0
  179.2870   19.7360   46.3490 C   0  0  0  0  0  0  0  0  0  0  0  0
  178.7440   20.8560   47.1460 C   0  0  0  0  0  0  0  0  0  0  0  0
  177.3610   20.8080   47.2740 O   0  0  0  0  0  0  0  0  0  0  0  0
  176.7260   21.7870   47.9920 C   0  0  0  0  0  0  0  0  0  0  0  0
  175.3360   21.7070   48.0840 C   0  0  0  0  0  0  0  0  0  0  0  0
  174.6280   22.6720   48.8020 C   0  0  0  0  0  0  0  0  0  0  0  0
  175.3080   23.7180   49.4300 C   0  0  0  0  0  0  0  0  0  0  0  0
  176.6960   23.7960   49.3370 C   0  0  0  0  0  0  0  0  0  0  0  0
  177.2990   24.8450   49.9760 O   0  0  0  0  0  0  0  0  0  0  0  0
  177.4040   22.8300   48.6170 C   0  0  0  0  0  0  0  0  0  0  0  0
  178.8620   22.8740   48.4960 C   0  0  0  0  0  0  0  0  0  0  0  0
  179.5330   23.7590   49.0260 O   0  0  0  0  0  0  0  0  0  0  0  0
  179.5160   21.8070   47.7060 C   0  0  0  0  0  0  0  0  0  0  0  0
  180.8960   21.8520   47.6090 O   0  0  0  0  0  0  0  0  0  0  0  0
  178.5950   18.5280   46.2080 C   0  0  0  0  0  0  0  0  0  0  0  0
  179.1400   17.4740   45.4680 C   0  0  0  0  0  0  0  0  0  0  0  0
  180.3980   17.5900   44.8570 C   0  0  0  0  0  0  0  0  0  0  0  0
  180.9640   16.5470   44.0930 N   0  0  0  0  0  0  0  0  0  0  0  0
  180.4560   15.2140   44.4550 C   0  0  0  0  0  0  0  0  0  0  0  0
  181.2970   14.1520   43.7450 C   0  0  0  0  0  0  0  0  0  0  0  0
  181.3060   14.3780   42.2340 C   0  0  0  0  0  0  0  0  0  0  0  0
  181.7390   15.8040   41.8970 C   0  0  0  0  0  0  0  0  0  0  0  0
  180.8960   16.8330   42.6510 C   0  0  0  0  0  0  0  0  0  0  0  0
  183.2230   19.0769   45.1481 H   0  0  0  0  0  0  0  0  0  0  0  0
  182.6878   18.1011   43.7381 H   0  0  0  0  0  0  0  0  0  0  0  0
  182.4548   19.8822   43.7381 H   0  0  0  0  0  0  0  0  0  0  0  0
  181.1099   20.7937   45.8521 H   0  0  0  0  0  0  0  0  0  0  0  0
  174.7984   20.8837   47.5908 H   0  0  0  0  0  0  0  0  0  0  0  0
  173.5322   22.6086   48.8734 H   0  0  0  0  0  0  0  0  0  0  0  0
  174.7494   24.4778   49.9963 H   0  0  0  0  0  0  0  0  0  0  0  0
  177.1920   24.9550   50.8990 H   0  0  0  0  0  0  0  0  0  0  0  0
  181.3030   22.4450   47.0090 H   0  0  0  0  0  0  0  0  0  0  0  0
  177.6112   18.4061   46.6847 H   0  0  0  0  0  0  0  0  0  0  0  0
  178.5726   16.5375   45.3630 H   0  0  0  0  0  0  0  0  0  0  0  0
  180.5283   15.0747   45.5438 H   0  0  0  0  0  0  0  0  0  0  0  0
  179.4036   15.1211   44.1487 H   0  0  0  0  0  0  0  0  0  0  0  0
  182.3294   14.2001   44.1217 H   0  0  0  0  0  0  0  0  0  0  0  0
  180.8573   13.1644   43.9482 H   0  0  0  0  0  0  0  0  0  0  0  0
  182.0069   13.6695   41.7683 H   0  0  0  0  0  0  0  0  0  0  0  0
  180.2874   14.2206   41.8497 H   0  0  0  0  0  0  0  0  0  0  0  0
  182.7954   15.9330   42.1752 H   0  0  0  0  0  0  0  0  0  0  0  0
  181.5987   15.9637   40.8177 H   0  0  0  0  0  0  0  0  0  0  0  0
  181.2867   17.8428   42.4568 H   0  0  0  0  0  0  0  0  0  0  0  0
  179.8514   16.7774   42.3108 H   0  0  0  0  0  0  0  0  0  0  0  0
  1  2  1  0
  2  3  2  0
  3  4  1  0
  4  5  1  0
  5  6  1  0
  6  7  1  0
  7  8  2  0
  8  9  1  0
  9 10  2  0
 10 11  1  0
 11 12  1  0
 11 13  2  0
 13 14  1  0
 14 15  2  0
 14 16  1  0
 16 17  1  0
  4 18  2  0
 18 19  1  0
 19 20  2  0
 20 21  1  0
 21 22  1  0
 22 23  1  0
 23 24  1  0
 24 25  1  0
 25 26  1  0
 20  2  1  0
 26 21  1  0
 16  5  2  0
 13  7  1  0
  1 27  1  0
  1 28  1  0
  1 29  1  0
  3 30  1  0
  8 31  1  0
  9 32  1  0
 10 33  1  0
 12 34  1  0
 17 35  1  0
 18 36  1  0
 19 37  1  0
 22 38  1  0
 22 39  1  0
 23 40  1  0
 23 41  1  0
 24 42  1  0
 24 43  1  0
 25 44  1  0
 25 45  1  0
 26 46  1  0
 26 47  1  0
M  END
>  <meeko>  (2) 
{"is_sidechain": [false], "free_energy": -8.0, "intermolecular_energy": -8.462, "internal_energy": 0.242}

$$$$
cand_023_out
     RDKit          3D

 47 50  0  0  0  0  0  0  0  0999 V2000
  175.7720   20.7600   46.5830 C   0  0  0  0  0  0  0  0  0  0  0  0
  177.2310   20.5440   46.8850 C   0  0  0  0  0  0  0  0  0  0  0  0
  177.9740   19.6400   46.1050 C   0  0  0  0  0  0  0  0  0  0  0  0
  179.3370   19.4120   46.3470 C   0  0  0  0  0  0  0  0  0  0  0  0
  180.0770   18.4330   45.5230 C   0  0  0  0  0  0  0  0  0  0  0  0
  179.4650   17.1860   45.4840 O   0  0  0  0  0  0  0  0  0  0  0  0
  180.0460   16.1830   44.7530 C   0  0  0  0  0  0  0  0  0  0  0  0
  179.4040   14.9440   44.7530 C   0  0  0  0  0  0  0  0  0  0  0  0
  179.9420   13.8800   44.0270 C   0  0  0  0  0  0  0  0  0  0  0  0
  181.1220   14.0540   43.3000 C   0  0  0  0  0  0  0  0  0  0  0  0
  181.7620   15.2910   43.3020 C   0  0  0  0  0  0  0  0  0  0  0  0
  182.9130   15.3930   42.5700 O   0  0  0  0  0  0  0  0  0  0  0  0
  181.2220   16.3560   44.0290 C   0  0  0  0  0  0  0  0  0  0  0  0
  181.8610   17.6720   44.0570 C   0  0  0  0  0  0  0  0  0  0  0  0
  182.8980   17.9060   43.4380 O   0  0  0  0  0  0  0  0  0  0  0  0
  181.2130   18.7310   44.8640 C   0  0  0  0  0  0  0  0  0  0  0  0
  181.8190   19.9750   44.8720 O   0  0  0  0  0  0  0  0  0  0  0  0
  179.9470   20.0980   47.4020 C   0  0  0  0  0  0  0  0  0  0  0  0
  179.2180   21.0020   48.1830 C   0  0  0  0  0  0  0  0  0  0  0  0
  177.8560   21.2360   47.9410 C   0  0  0  0  0  0  0  0  0  0  0  0
  177.1020   22.1530   48.7050 N   0  0  0  0  0  0  0  0  0  0  0  0
  177.1140   23.5190   48.1600 C   0  0  0  0  0  0  0  0  0  0  0  0
  176.4770   24.4670   49.1770 C   0  0  0  0  0  0  0  0  0  0  0  0
  175.0700   24.0050   49.5530 C   0  0  0  0  0  0  0  0  0  0  0  0
  175.0780   22.5490   50.0180 C   0  0  0  0  0  0  0  0  0  0  0  0
  175.7520   21.6410   48.9880 C   0  0  0  0  0  0  0  0  0  0  0  0
  175.2109   20.8431   47.5255 H   0  0  0  0  0  0  0  0  0  0  0  0
  175.6511   21.6858   46.0014 H   0  0  0  0  0  0  0  0  0  0  0  0
  175.3880   19.9089   46.0014 H   0  0  0  0  0  0  0  0  0  0  0  0
  177.4754   19.0996   45.2869 H   0  0  0  0  0  0  0  0  0  0  0  0
  178.4745   14.8058   45.3248 H   0  0  0  0  0  0  0  0  0  0  0  0
  179.4361   12.9033   44.0274 H   0  0  0  0  0  0  0  0  0  0  0  0
  181.5449   13.2157   42.7270 H   0  0  0  0  0  0  0  0  0  0  0  0
  183.1450   16.2090   42.1730 H   0  0  0  0  0  0  0  0  0  0  0  0
  181.7050   20.5460   45.6070 H   0  0  0  0  0  0  0  0  0  0  0  0
  181.0112   19.9252   47.6203 H   0  0  0  0  0  0  0  0  0  0  0  0
  179.7216   21.5384   49.0007 H   0  0  0  0  0  0  0  0  0  0  0  0
  178.1513   23.8294   47.9659 H   0  0  0  0  0  0  0  0  0  0  0  0
  176.5460   23.5482   47.2185 H   0  0  0  0  0  0  0  0  0  0  0  0
  177.1005   24.4938   50.0828 H   0  0  0  0  0  0  0  0  0  0  0  0
  176.4074   25.4679   48.7260 H   0  0  0  0  0  0  0  0  0  0  0  0
  174.6879   24.6402   50.3658 H   0  0  0  0  0  0  0  0  0  0  0  0
  174.4254   24.0861   48.6653 H   0  0  0  0  0  0  0  0  0  0  0  0
  175.6254   22.4796   50.9696 H   0  0  0  0  0  0  0  0  0  0  0  0
  174.0363   22.2186   50.1436 H   0  0  0  0  0  0  0  0  0  0  0  0
  175.8221   20.6187   49.3881 H   0  0  0  0  0  0  0  0  0  0  0  0
  175.1591   21.6275   48.0616 H   0  0  0  0  0  0  0  0  0  0  0  0
  1  2  1  0
  2  3  2  0
  3  4  1  0
  4  5  1  0
  5  6  1  0
  6  7  1  0
  7  8  2  0
  8  9  1  0
  9 10  2  0
 10 11  1  0
 11 12  1  0
 11 13  2  0
 13 14  1  0
 14 15  2  0
 14 16  1  0
 16 17  1  0
  4 18  2  0
 18 19  1  0
 19 20  2  0
 20 21  1  0
 21 22  1  0
 22 23  1  0
 23 24  1  0
 24 25  1  0
 25 26  1  0
 20  2  1  0
 26 21  1  0
 16  5  2  0
 13  7  1  0
  1 27  1  0
  1 28  1  0
  1 29  1  0
  3 30  1  0
  8 31  1  0
  9 32  1  0
 10 33  1  0
 12 34  1  0
 17 35  1  0
 18 36  1  0
 19 37  1  0
 22 38  1  0
 22 39  1  0
 23 40  1  0
 23 41  1  0
 24 42  1  0
 24 43  1  0
 25 44  1  0
 25 45  1  0
 26 46  1  0
 26 47  1  0
M  END
>  <meeko>  (3) 
{"is_sidechain": [false], "free_energy": -6.527, "intermolecular_energy": -7.308, "internal_energy": 0.818}

$$$$
cand_023_out
     RDKit          3D

 47 50  0  0  0  0  0  0  0  0999 V2000
  180.0700   18.5190   45.8410 C   0  0  0  0  0  0  0  0  0  0  0  0
  180.3870   19.8960   46.3570 C   0  0  0  0  0  0  0  0  0  0  0  0
  181.6330   20.4770   46.0610 C   0  0  0  0  0  0  0  0  0  0  0  0
  181.9700   21.7610   46.5180 C   0  0  0  0  0  0  0  0  0  0  0  0
  183.3000   22.3270   46.2100 C   0  0  0  0  0  0  0  0  0  0  0  0
  183.6730   23.3390   47.0870 O   0  0  0  0  0  0  0  0  0  0  0  0
  184.8870   23.9510   46.9180 C   0  0  0  0  0  0  0  0  0  0  0  0
  185.2140   24.9710   47.8130 C   0  0  0  0  0  0  0  0  0  0  0  0
  186.4370   25.6340   47.6960 C   0  0  0  0  0  0  0  0  0  0  0  0
  187.3330   25.2800   46.6860 C   0  0  0  0  0  0  0  0  0  0  0  0
  187.0040   24.2630   45.7930 C   0  0  0  0  0  0  0  0  0  0  0  0
  187.9270   23.9650   44.8270 O   0  0  0  0  0  0  0  0  0  0  0  0
  185.7800   23.5980   45.9100 C   0  0  0  0  0  0  0  0  0  0  0  0
  185.3950   22.5240   44.9940 C   0  0  0  0  0  0  0  0  0  0  0  0
  186.1330   22.1500   44.0830 O   0  0  0  0  0  0  0  0  0  0  0  0
  184.0740   21.8890   45.1990 C   0  0  0  0  0  0  0  0  0  0  0  0
  183.7270   20.8650   44.3350 O   0  0  0  0  0  0  0  0  0  0  0  0
  181.0350   22.4540   47.2940 C   0  0  0  0  0  0  0  0  0  0  0  0
  179.7920   21.8870   47.5920 C   0  0  0  0  0  0  0  0  0  0  0  0
  179.4500   20.6050   47.1340 C   0  0  0  0  0  0  0  0  0  0  0  0
  178.1970   20.0170   47.4090 N   0  0  0  0  0  0  0  0  0  0  0  0
  177.4760   20.6630   48.5170 C   0  0  0  0  0  0  0  0  0  0  0  0
  176.2600   19.8110   48.8830 C   0  0  0  0  0  0  0  0  0  0  0  0
  175.3650   19.5790   47.6670 C   0  0  0  0  0  0  0  0  0  0  0  0
  176.1660   19.0040   46.5000 C   0  0  0  0  0  0  0  0  0  0  0  0
  177.3900   19.8660   46.1880 C   0  0  0  0  0  0  0  0  0  0  0  0
  179.9129   17.8367   46.6894 H   0  0  0  0  0  0  0  0  0  0  0  0
  179.1574   18.5582   45.2281 H   0  0  0  0  0  0  0  0  0  0  0  0
  180.9079   18.1552   45.2281 H   0  0  0  0  0  0  0  0  0  0  0  0
  182.3597   19.9129   45.4580 H   0  0  0  0  0  0  0  0  0  0  0  0
  184.5091   25.2520   48.6093 H   0  0  0  0  0  0  0  0  0  0  0  0
  186.6952   26.4374   48.4016 H   0  0  0  0  0  0  0  0  0  0  0  0
  188.2965   25.8029   46.5955 H   0  0  0  0  0  0  0  0  0  0  0  0
  188.8410   24.0010   45.0270 H   0  0  0  0  0  0  0  0  0  0  0  0
  182.8330   20.7540   44.0770 H   0  0  0  0  0  0  0  0  0  0  0  0
  181.2804   23.4566   47.6742 H   0  0  0  0  0  0  0  0  0  0  0  0
  179.0695   22.4556   48.1959 H   0  0  0  0  0  0  0  0  0  0  0  0
  178.1411   20.7503   49.3888 H   0  0  0  0  0  0  0  0  0  0  0  0
  177.1478   21.6675   48.2115 H   0  0  0  0  0  0  0  0  0  0  0  0
  176.6045   18.8391   49.2662 H   0  0  0  0  0  0  0  0  0  0  0  0
  175.6776   20.3441   49.6489 H   0  0  0  0  0  0  0  0  0  0  0  0
  174.5662   18.8729   47.9377 H   0  0  0  0  0  0  0  0  0  0  0  0
  174.9374   20.5439   47.3571 H   0  0  0  0  0  0  0  0  0  0  0  0
  176.4997   17.9887   46.7602 H   0  0  0  0  0  0  0  0  0  0  0  0
  175.5189   18.9850   45.6107 H   0  0  0  0  0  0  0  0  0  0  0  0
  177.9925   19.3807   45.4060 H   0  0  0  0  0  0  0  0  0  0  0  0
  177.0655   20.8556   45.8337 H   0  0  0  0  0  0  0  0  0  0  0  0
  1  2  1  0
  2  3  2  0
  3  4  1  0
  4  5  1  0
  5  6  1  0
  6  7  1  0
  7  8  2  0
  8  9  1  0
  9 10  2  0
 10 11  1  0
 11 12  1  0
 11 13  2  0
 13 14  1  0
 14 15  2  0
 14 16  1  0
 16 17  1  0
  4 18  2  0
 18 19  1  0
 19 20  2  0
 20 21  1  0
 21 22  1  0
 22 23  1  0
 23 24  1  0
 24 25  1  0
 25 26  1  0
 20  2  1  0
 26 21  1  0
 16  5  2  0
 13  7  1  0
  1 27  1  0
  1 28  1  0
  1 29  1  0
  3 30  1  0
  8 31  1  0
  9 32  1  0
 10 33  1  0
 12 34  1  0
 17 35  1  0
 18 36  1  0
 19 37  1  0
 22 38  1  0
 22 39  1  0
 23 40  1  0
 23 41  1  0
 24 42  1  0
 24 43  1  0
 25 44  1  0
 25 45  1  0
 26 46  1  0
 26 47  1  0
M  END
>  <meeko>  (4) 
{"is_sidechain": [false], "free_energy": -6.427, "intermolecular_energy": -6.788, "internal_energy": 0.416}

$$$$
cand_023_out
     RDKit          3D

 47 50  0  0  0  0  0  0  0  0999 V2000
  180.3170   18.5160   45.8350 C   0  0  0  0  0  0  0  0  0  0  0  0
  180.5500   19.9290   46.2980 C   0  0  0  0  0  0  0  0  0  0  0  0
  181.7910   20.5430   46.0520 C   0  0  0  0  0  0  0  0  0  0  0  0
  182.0500   21.8600   46.4620 C   0  0  0  0  0  0  0  0  0  0  0  0
  183.3760   22.4620   46.2100 C   0  0  0  0  0  0  0  0  0  0  0  0
  183.8250   22.2570   44.9110 O   0  0  0  0  0  0  0  0  0  0  0  0
  185.0430   22.7650   44.5400 C   0  0  0  0  0  0  0  0  0  0  0  0
  185.4600   22.5230   43.2300 C   0  0  0  0  0  0  0  0  0  0  0  0
  186.6890   23.0150   42.7880 C   0  0  0  0  0  0  0  0  0  0  0  0
  187.5030   23.7480   43.6550 C   0  0  0  0  0  0  0  0  0  0  0  0
  187.0850   23.9880   44.9620 C   0  0  0  0  0  0  0  0  0  0  0  0
  187.9300   24.7130   45.7570 O   0  0  0  0  0  0  0  0  0  0  0  0
  185.8540   23.4950   45.4040 C   0  0  0  0  0  0  0  0  0  0  0  0
  185.3770   23.7250   46.7680 C   0  0  0  0  0  0  0  0  0  0  0  0
  186.0330   24.3670   47.5870 O   0  0  0  0  0  0  0  0  0  0  0  0
  184.0620   23.1550   47.1390 C   0  0  0  0  0  0  0  0  0  0  0  0
  183.6150   23.3900   48.4270 O   0  0  0  0  0  0  0  0  0  0  0  0
  181.0420   22.5540   47.1400 C   0  0  0  0  0  0  0  0  0  0  0  0
  179.8040   21.9530   47.3870 C   0  0  0  0  0  0  0  0  0  0  0  0
  179.5390   20.6380   46.9760 C   0  0  0  0  0  0  0  0  0  0  0  0
  178.2930   20.0150   47.2000 N   0  0  0  0  0  0  0  0  0  0  0  0
  177.5260   20.6180   48.3010 C   0  0  0  0  0  0  0  0  0  0  0  0
  176.3200   19.7310   48.6130 C   0  0  0  0  0  0  0  0  0  0  0  0
  175.4660   19.5070   47.3660 C   0  0  0  0  0  0  0  0  0  0  0  0
  176.3130   18.9770   46.2100 C   0  0  0  0  0  0  0  0  0  0  0  0
  177.5250   19.8740   45.9530 C   0  0  0  0  0  0  0  0  0  0  0  0
  180.2083   17.8570   46.7090 H   0  0  0  0  0  0  0  0  0  0  0  0
  179.4000   18.4753   45.2288 H   0  0  0  0  0  0  0  0  0  0  0  0
  181.1724   18.1830   45.2288 H   0  0  0  0  0  0  0  0  0  0  0  0
  182.5758   19.9788   45.5268 H   0  0  0  0  0  0  0  0  0  0  0  0
  184.8205   21.9450   42.5466 H   0  0  0  0  0  0  0  0  0  0  0  0
  187.0172   22.8253   41.7554 H   0  0  0  0  0  0  0  0  0  0  0  0
  188.4719   24.1348   43.3064 H   0  0  0  0  0  0  0  0  0  0  0  0
  188.4400   25.4060   45.3890 H   0  0  0  0  0  0  0  0  0  0  0  0
  184.1840   23.7930   49.0530 H   0  0  0  0  0  0  0  0  0  0  0  0
  181.2254   23.5832   47.4823 H   0  0  0  0  0  0  0  0  0  0  0  0
  179.0233   22.5217   47.9133 H   0  0  0  0  0  0  0  0  0  0  0  0
  178.1641   20.6998   49.1933 H   0  0  0  0  0  0  0  0  0  0  0  0
  177.1831   21.6215   48.0086 H   0  0  0  0  0  0  0  0  0  0  0  0
  176.6755   18.7586   48.9846 H   0  0  0  0  0  0  0  0  0  0  0  0
  175.7038   20.2331   49.3734 H   0  0  0  0  0  0  0  0  0  0  0  0
  174.6762   18.7772   47.5973 H   0  0  0  0  0  0  0  0  0  0  0  0
  175.0257   20.4692   47.0654 H   0  0  0  0  0  0  0  0  0  0  0  0
  176.6629   17.9638   46.4571 H   0  0  0  0  0  0  0  0  0  0  0  0
  175.6921   18.9633   45.3021 H   0  0  0  0  0  0  0  0  0  0  0  0
  178.1608   19.4209   45.1781 H   0  0  0  0  0  0  0  0  0  0  0  0
  177.1876   20.8638   45.6118 H   0  0  0  0  0  0  0  0  0  0  0  0
  1  2  1  0
  2  3  2  0
  3  4  1  0
  4  5  1  0
  5  6  1  0
  6  7  1  0
  7  8  2  0
  8  9  1  0
  9 10  2  0
 10 11  1  0
 11 12  1  0
 11 13  2  0
 13 14  1  0
 14 15  2  0
 14 16  1  0
 16 17  1  0
  4 18  2  0
 18 19  1  0
 19 20  2  0
 20 21  1  0
 21 22  1  0
 22 23  1  0
 23 24  1  0
 24 25  1  0
 25 26  1  0
 20  2  1  0
 26 21  1  0
 16  5  2  0
 13  7  1  0
  1 27  1  0
  1 28  1  0
  1 29  1  0
  3 30  1  0
  8 31  1  0
  9 32  1  0
 10 33  1  0
 12 34  1  0
 17 35  1  0
 18 36  1  0
 19 37  1  0
 22 38  1  0
 22 39  1  0
 23 40  1  0
 23 41  1  0
 24 42  1  0
 24 43  1  0
 25 44  1  0
 25 45  1  0
 26 46  1  0
 26 47  1  0
M  END
>  <meeko>  (5) 
{"is_sidechain": [false], "free_energy": -6.185, "intermolecular_energy": -6.093, "internal_energy": 0.005}

$$$$
cand_023_out
     RDKit          3D

 47 50  0  0  0  0  0  0  0  0999 V2000
  185.1850   22.0780   43.9520 C   0  0  0  0  0  0  0  0  0  0  0  0
  184.2750   22.2750   45.1350 C   0  0  0  0  0  0  0  0  0  0  0  0
  183.0610   21.5680   45.2000 C   0  0  0  0  0  0  0  0  0  0  0  0
  182.1850   21.7170   46.2860 C   0  0  0  0  0  0  0  0  0  0  0  0
  180.9050   20.9790   46.3070 C   0  0  0  0  0  0  0  0  0  0  0  0
  179.8420   21.7520   46.7580 O   0  0  0  0  0  0  0  0  0  0  0  0
  178.5930   21.1910   46.8260 C   0  0  0  0  0  0  0  0  0  0  0  0
  177.5590   21.9990   47.2980 C   0  0  0  0  0  0  0  0  0  0  0  0
  176.2620   21.4890   47.3900 C   0  0  0  0  0  0  0  0  0  0  0  0
  176.0000   20.1710   47.0110 C   0  0  0  0  0  0  0  0  0  0  0  0
  177.0340   19.3650   46.5410 C   0  0  0  0  0  0  0  0  0  0  0  0
  176.7080   18.0850   46.1870 O   0  0  0  0  0  0  0  0  0  0  0  0
  178.3320   19.8760   46.4490 C   0  0  0  0  0  0  0  0  0  0  0  0
  179.4470   19.0650   45.9600 C   0  0  0  0  0  0  0  0  0  0  0  0
  179.2950   17.8980   45.6010 O   0  0  0  0  0  0  0  0  0  0  0  0
  180.7840   19.6980   45.9070 C   0  0  0  0  0  0  0  0  0  0  0  0
  181.8280   18.9260   45.4310 O   0  0  0  0  0  0  0  0  0  0  0  0
  182.5400   22.6050   47.3080 C   0  0  0  0  0  0  0  0  0  0  0  0
  183.7470   23.3110   47.2530 C   0  0  0  0  0  0  0  0  0  0  0  0
  184.6270   23.1610   46.1710 C   0  0  0  0  0  0  0  0  0  0  0  0
  185.8570   23.8510   46.1000 N   0  0  0  0  0  0  0  0  0  0  0  0
  185.7790   25.1120   45.3460 C   0  0  0  0  0  0  0  0  0  0  0  0
  187.1940   25.6500   45.1280 C   0  0  0  0  0  0  0  0  0  0  0  0
  187.9300   25.8140   46.4570 C   0  0  0  0  0  0  0  0  0  0  0  0
  187.9030   24.5150   47.2610 C   0  0  0  0  0  0  0  0  0  0  0  0
  186.4750   23.9940   47.4280 C   0  0  0  0  0  0  0  0  0  0  0  0
  186.2031   21.8576   44.3053 H   0  0  0  0  0  0  0  0  0  0  0  0
  184.8184   21.2384   43.3432 H   0  0  0  0  0  0  0  0  0  0  0  0
  185.1984   22.9940   43.3432 H   0  0  0  0  0  0  0  0  0  0  0  0
  182.7924   20.8835   44.3819 H   0  0  0  0  0  0  0  0  0  0  0  0
  177.7647   23.0372   47.5976 H   0  0  0  0  0  0  0  0  0  0  0  0
  175.4461   22.1264   47.7614 H   0  0  0  0  0  0  0  0  0  0  0  0
  174.9784   19.7698   47.0835 H   0  0  0  0  0  0  0  0  0  0  0  0
  175.8110   17.8150   46.1770 H   0  0  0  0  0  0  0  0  0  0  0  0
  181.6820   18.0270   45.2100 H   0  0  0  0  0  0  0  0  0  0  0  0
  181.8633   22.7494   48.1631 H   0  0  0  0  0  0  0  0  0  0  0  0
  184.0103   23.9957   48.0727 H   0  0  0  0  0  0  0  0  0  0  0  0
  185.2993   24.9308   44.3728 H   0  0  0  0  0  0  0  0  0  0  0  0
  185.1850   25.8462   45.9100 H   0  0  0  0  0  0  0  0  0  0  0  0
  187.7520   24.9466   44.4925 H   0  0  0  0  0  0  0  0  0  0  0  0
  187.1229   26.6351   44.6437 H   0  0  0  0  0  0  0  0  0  0  0  0
  188.9754   26.0920   46.2575 H   0  0  0  0  0  0  0  0  0  0  0  0
  187.4277   26.5988   47.0416 H   0  0  0  0  0  0  0  0  0  0  0  0
  188.5021   23.7563   46.7361 H   0  0  0  0  0  0  0  0  0  0  0  0
  188.3180   24.7163   48.2596 H   0  0  0  0  0  0  0  0  0  0  0  0
  186.4960   23.0164   47.9319 H   0  0  0  0  0  0  0  0  0  0  0  0
  185.8907   24.7013   48.0348 H   0  0  0  0  0  0  0  0  0  0  0  0
  1  2  1  0
  2  3  2  0
  3  4  1  0
  4  5  1  0
  5  6  1  0
  6  7  1  0
  7  8  2  0
  8  9  1  0
  9 10  2  0
 10 11  1  0
 11 12  1  0
 11 13  2  0
 13 14  1  0
 14 15  2  0
 14 16  1  0
 16 17  1  0
  4 18  2  0
 18 19  1  0
 19 20  2  0
 20 21  1  0
 21 22  1  0
 22 23  1  0
 23 24  1  0
 24 25  1  0
 25 26  1  0
 20  2  1  0
 26 21  1  0
 16  5  2  0
 13  7  1  0
  1 27  1  0
  1 28  1  0
  1 29  1  0
  3 30  1  0
  8 31  1  0
  9 32  1  0
 10 33  1  0
 12 34  1  0
 17 35  1  0
 18 36  1  0
 19 37  1  0
 22 38  1  0
 22 39  1  0
 23 40  1  0
 23 41  1  0
 24 42  1  0
 24 43  1  0
 25 44  1  0
 25 45  1  0
 26 46  1  0
 26 47  1  0
M  END
>  <meeko>  (6) 
{"is_sidechain": [false], "free_energy": -5.962, "intermolecular_energy": -5.654, "internal_energy": -0.171}

$$$$
cand_023_out
     RDKit          3D

 47 50  0  0  0  0  0  0  0  0999 V2000
  175.6960   19.8390   49.2070 C   0  0  0  0  0  0  0  0  0  0  0  0
  175.9000   21.3260   49.0890 C   0  0  0  0  0  0  0  0  0  0  0  0
  174.9710   22.2020   49.6810 C   0  0  0  0  0  0  0  0  0  0  0  0
  175.1240   23.5940   49.6010 C   0  0  0  0  0  0  0  0  0  0  0  0
  174.1130   24.4820   50.2110 C   0  0  0  0  0  0  0  0  0  0  0  0
  174.4080   24.8140   51.5280 O   0  0  0  0  0  0  0  0  0  0  0  0
  173.5530   25.6350   52.2150 C   0  0  0  0  0  0  0  0  0  0  0  0
  173.8820   25.9300   53.5390 C   0  0  0  0  0  0  0  0  0  0  0  0
  173.0540   26.7620   54.2940 C   0  0  0  0  0  0  0  0  0  0  0  0
  171.8970   27.3000   53.7270 C   0  0  0  0  0  0  0  0  0  0  0  0
  171.5690   27.0040   52.4060 C   0  0  0  0  0  0  0  0  0  0  0  0
  170.4230   27.5640   51.9130 O   0  0  0  0  0  0  0  0  0  0  0  0
  172.3990   26.1700   51.6500 C   0  0  0  0  0  0  0  0  0  0  0  0
  172.0930   25.8350   50.2590 C   0  0  0  0  0  0  0  0  0  0  0  0
  171.0960   26.2740   49.6880 O   0  0  0  0  0  0  0  0  0  0  0  0
  173.0320   24.9380   49.5480 C   0  0  0  0  0  0  0  0  0  0  0  0
  172.7400   24.6380   48.2300 O   0  0  0  0  0  0  0  0  0  0  0  0
  176.2240   24.1010   48.9000 C   0  0  0  0  0  0  0  0  0  0  0  0
  177.1550   23.2390   48.3110 C   0  0  0  0  0  0  0  0  0  0  0  0
  177.0070   21.8460   48.3920 C   0  0  0  0  0  0  0  0  0  0  0  0
  177.9400   20.9560   47.8190 N   0  0  0  0  0  0  0  0  0  0  0  0
  177.5620   20.4980   46.4720 C   0  0  0  0  0  0  0  0  0  0  0  0
  178.5030   19.3690   46.0480 C   0  0  0  0  0  0  0  0  0  0  0  0
  179.9630   19.8150   46.1200 C   0  0  0  0  0  0  0  0  0  0  0  0
  180.2950   20.3800   47.5010 C   0  0  0  0  0  0  0  0  0  0  0  0
  179.3120   21.4810   47.9000 C   0  0  0  0  0  0  0  0  0  0  0  0
  175.6574   19.5574   50.2696 H   0  0  0  0  0  0  0  0  0  0  0  0
  174.7510   19.5587   48.7188 H   0  0  0  0  0  0  0  0  0  0  0  0
  176.5306   19.3145   48.7188 H   0  0  0  0  0  0  0  0  0  0  0  0
  174.1060   21.7859   50.2182 H   0  0  0  0  0  0  0  0  0  0  0  0
  174.7932   25.5070   53.9870 H   0  0  0  0  0  0  0  0  0  0  0  0
  173.3133   26.9943   55.3375 H   0  0  0  0  0  0  0  0  0  0  0  0
  171.2456   27.9565   54.3225 H   0  0  0  0  0  0  0  0  0  0  0  0
  169.7910   27.9310   52.4990 H   0  0  0  0  0  0  0  0  0  0  0  0
  171.8640   24.4140   47.9840 H   0  0  0  0  0  0  0  0  0  0  0  0
  176.3580   25.1892   48.8112 H   0  0  0  0  0  0  0  0  0  0  0  0
  178.0182   23.6605   47.7750 H   0  0  0  0  0  0  0  0  0  0  0  0
  176.5258   20.1292   46.4851 H   0  0  0  0  0  0  0  0  0  0  0  0
  177.6388   21.3331   45.7602 H   0  0  0  0  0  0  0  0  0  0  0  0
  178.3566   18.5085   46.7174 H   0  0  0  0  0  0  0  0  0  0  0  0
  178.2723   19.0931   45.0085 H   0  0  0  0  0  0  0  0  0  0  0  0
  180.6135   18.9511   45.9188 H   0  0  0  0  0  0  0  0  0  0  0  0
  180.1264   20.6030   45.3701 H   0  0  0  0  0  0  0  0  0  0  0  0
  180.2447   19.5686   48.2420 H   0  0  0  0  0  0  0  0  0  0  0  0
  181.3060   20.8121   47.4662 H   0  0  0  0  0  0  0  0  0  0  0  0
  179.5215   21.8060   48.9298 H   0  0  0  0  0  0  0  0  0  0  0  0
  179.4208   22.3384   47.2196 H   0  0  0  0  0  0  0  0  0  0  0  0
  1  2  1  0
  2  3  2  0
  3  4  1  0
  4  5  1  0
  5  6  1  0
  6  7  1  0
  7  8  2  0
  8  9  1  0
  9 10  2  0
 10 11  1  0
 11 12  1  0
 11 13  2  0
 13 14  1  0
 14 15  2  0
 14 16  1  0
 16 17  1  0
  4 18  2  0
 18 19  1  0
 19 20  2  0
 20 21  1  0
 21 22  1  0
 22 23  1  0
 23 24  1  0
 24 25  1  0
 25 26  1  0
 20  2  1  0
 26 21  1  0
 16  5  2  0
 13  7  1  0
  1 27  1  0
  1 28  1  0
  1 29  1  0
  3 30  1  0
  8 31  1  0
  9 32  1  0
 10 33  1  0
 12 34  1  0
 17 35  1  0
 18 36  1  0
 19 37  1  0
 22 38  1  0
 22 39  1  0
 23 40  1  0
 23 41  1  0
 24 42  1  0
 24 43  1  0
 25 44  1  0
 25 45  1  0
 26 46  1  0
 26 47  1  0
M  END
>  <meeko>  (7) 
{"is_sidechain": [false], "free_energy": -5.838, "intermolecular_energy": -5.117, "internal_energy": -0.563}

$$$$
cand_023_out
     RDKit          3D

 47 50  0  0  0  0  0  0  0  0999 V2000
  184.5140   24.0120   46.8780 C   0  0  0  0  0  0  0  0  0  0  0  0
  183.6910   22.9160   46.2540 C   0  0  0  0  0  0  0  0  0  0  0  0
  182.4300   22.6050   46.7940 C   0  0  0  0  0  0  0  0  0  0  0  0
  181.6260   21.5960   46.2430 C   0  0  0  0  0  0  0  0  0  0  0  0
  180.3190   21.2790   46.8550 C   0  0  0  0  0  0  0  0  0  0  0  0
  179.6180   20.3030   46.1570 O   0  0  0  0  0  0  0  0  0  0  0  0
  178.3880   19.9100   46.6160 C   0  0  0  0  0  0  0  0  0  0  0  0
  177.7140   18.9380   45.8770 C   0  0  0  0  0  0  0  0  0  0  0  0
  176.4580   18.4930   46.2920 C   0  0  0  0  0  0  0  0  0  0  0  0
  175.8740   19.0190   47.4460 C   0  0  0  0  0  0  0  0  0  0  0  0
  176.5480   19.9910   48.1820 C   0  0  0  0  0  0  0  0  0  0  0  0
  175.9190   20.4640   49.3020 O   0  0  0  0  0  0  0  0  0  0  0  0
  177.8060   20.4360   47.7660 C   0  0  0  0  0  0  0  0  0  0  0  0
  178.5480   21.4540   48.5110 C   0  0  0  0  0  0  0  0  0  0  0  0
  178.1040   21.9610   49.5400 O   0  0  0  0  0  0  0  0  0  0  0  0
  179.8700   21.8620   47.9830 C   0  0  0  0  0  0  0  0  0  0  0  0
  180.5680   22.8150   48.7020 O   0  0  0  0  0  0  0  0  0  0  0  0
  182.1160   20.8870   45.1410 C   0  0  0  0  0  0  0  0  0  0  0  0
  183.3670   21.1900   44.5940 C   0  0  0  0  0  0  0  0  0  0  0  0
  184.1720   22.2010   45.1410 C   0  0  0  0  0  0  0  0  0  0  0  0
  185.4320   22.5360   44.5990 N   0  0  0  0  0  0  0  0  0  0  0  0
  186.0600   21.4350   43.8520 C   0  0  0  0  0  0  0  0  0  0  0  0
  187.5020   21.8190   43.5180 C   0  0  0  0  0  0  0  0  0  0  0  0
  187.5560   23.1420   42.7550 C   0  0  0  0  0  0  0  0  0  0  0  0
  186.8060   24.2390   43.5100 C   0  0  0  0  0  0  0  0  0  0  0  0
  185.3820   23.8030   43.8520 C   0  0  0  0  0  0  0  0  0  0  0  0
  184.4564   23.9352   47.9738 H   0  0  0  0  0  0  0  0  0  0  0  0
  185.5616   23.9113   46.5580 H   0  0  0  0  0  0  0  0  0  0  0  0
  184.1252   24.9900   46.5580 H   0  0  0  0  0  0  0  0  0  0  0  0
  182.0661   23.1654   47.6678 H   0  0  0  0  0  0  0  0  0  0  0  0
  178.1722   18.5223   44.9675 H   0  0  0  0  0  0  0  0  0  0  0  0
  175.9270   17.7263   45.7087 H   0  0  0  0  0  0  0  0  0  0  0  0
  174.8845   18.6669   47.7731 H   0  0  0  0  0  0  0  0  0  0  0  0
  176.3770   21.0290   49.8920 H   0  0  0  0  0  0  0  0  0  0  0  0
  180.8680   23.5940   48.2770 H   0  0  0  0  0  0  0  0  0  0  0  0
  181.5103   20.0818   44.6996 H   0  0  0  0  0  0  0  0  0  0  0  0
  183.7260   20.6263   43.7203 H   0  0  0  0  0  0  0  0  0  0  0  0
  186.0541   20.5223   44.4659 H   0  0  0  0  0  0  0  0  0  0  0  0
  185.5003   21.2490   42.9235 H   0  0  0  0  0  0  0  0  0  0  0  0
  188.0727   21.9198   44.4529 H   0  0  0  0  0  0  0  0  0  0  0  0
  187.9354   21.0317   42.8837 H   0  0  0  0  0  0  0  0  0  0  0  0
  188.6066   23.4437   42.6315 H   0  0  0  0  0  0  0  0  0  0  0  0
  187.0784   23.0014   41.7741 H   0  0  0  0  0  0  0  0  0  0  0  0
  187.3450   24.4656   44.4418 H   0  0  0  0  0  0  0  0  0  0  0  0
  186.7515   25.1290   42.8659 H   0  0  0  0  0  0  0  0  0  0  0  0
  184.8985   24.5751   44.4685 H   0  0  0  0  0  0  0  0  0  0  0  0
  184.8046   23.6644   42.9260 H   0  0  0  0  0  0  0  0  0  0  0  0
  1  2  1  0
  2  3  2  0
  3  4  1  0
  4  5  1  0
  5  6  1  0
  6  7  1  0
  7  8  2  0
  8  9  1  0
  9 10  2  0
 10 11  1  0
 11 12  1  0
 11 13  2  0
 13 14  1  0
 14 15  2  0
 14 16  1  0
 16 17  1  0
  4 18  2  0
 18 19  1  0
 19 20  2  0
 20 21  1  0
 21 22  1  0
 22 23  1  0
 23 24  1  0
 24 25  1  0
 25 26  1  0
 20  2  1  0
 26 21  1  0
 16  5  2  0
 13  7  1  0
  1 27  1  0
  1 28  1  0
  1 29  1  0
  3 30  1  0
  8 31  1  0
  9 32  1  0
 10 33  1  0
 12 34  1  0
 17 35  1  0
 18 36  1  0
 19 37  1  0
 22 38  1  0
 22 39  1  0
 23 40  1  0
 23 41  1  0
 24 42  1  0
 24 43  1  0
 25 44  1  0
 25 45  1  0
 26 46  1  0
 26 47  1  0
M  END
>  <meeko>  (8) 
{"is_sidechain": [false], "free_energy": -5.623, "intermolecular_energy": -5.78, "internal_energy": 0.353}

$$$$
cand_023_out
     RDKit          3D

 47 50  0  0  0  0  0  0  0  0999 V2000
  171.4830   26.4030   49.5880 C   0  0  0  0  0  0  0  0  0  0  0  0
  172.5820   25.6590   50.2970 C   0  0  0  0  0  0  0  0  0  0  0  0
  173.4980   24.8980   49.5470 C   0  0  0  0  0  0  0  0  0  0  0  0
  174.5420   24.1920   50.1650 C   0  0  0  0  0  0  0  0  0  0  0  0
  175.4680   23.3810   49.3470 C   0  0  0  0  0  0  0  0  0  0  0  0
  174.8740   22.2320   48.8380 O   0  0  0  0  0  0  0  0  0  0  0  0
  175.6210   21.3880   48.0580 C   0  0  0  0  0  0  0  0  0  0  0  0
  174.9880   20.2390   47.5800 C   0  0  0  0  0  0  0  0  0  0  0  0
  175.6920   19.3390   46.7790 C   0  0  0  0  0  0  0  0  0  0  0  0
  177.0280   19.5850   46.4550 C   0  0  0  0  0  0  0  0  0  0  0  0
  177.6580   20.7310   46.9340 C   0  0  0  0  0  0  0  0  0  0  0  0
  178.9670   20.9110   46.5790 O   0  0  0  0  0  0  0  0  0  0  0  0
  176.9530   21.6330   47.7360 C   0  0  0  0  0  0  0  0  0  0  0  0
  177.5760   22.8490   48.2590 C   0  0  0  0  0  0  0  0  0  0  0  0
  178.7450   23.1390   48.0130 O   0  0  0  0  0  0  0  0  0  0  0  0
  176.7440   23.7350   49.1060 C   0  0  0  0  0  0  0  0  0  0  0  0
  177.3400   24.8890   49.5830 O   0  0  0  0  0  0  0  0  0  0  0  0
  174.6470   24.2500   51.5590 C   0  0  0  0  0  0  0  0  0  0  0  0
  173.7430   25.0050   52.3130 C   0  0  0  0  0  0  0  0  0  0  0  0
  172.7010   25.7160   51.6990 C   0  0  0  0  0  0  0  0  0  0  0  0
  171.7850   26.4970   52.4360 N   0  0  0  0  0  0  0  0  0  0  0  0
  171.0490   25.7320   53.4550 C   0  0  0  0  0  0  0  0  0  0  0  0
  169.9300   26.6070   54.0220 C   0  0  0  0  0  0  0  0  0  0  0  0
  170.4840   27.9200   54.5720 C   0  0  0  0  0  0  0  0  0  0  0  0
  171.3290   28.6400   53.5210 C   0  0  0  0  0  0  0  0  0  0  0  0
  172.4140   27.7220   52.9570 C   0  0  0  0  0  0  0  0  0  0  0  0
  170.8105   26.8583   50.3300 H   0  0  0  0  0  0  0  0  0  0  0  0
  171.9210   27.1911   48.9579 H   0  0  0  0  0  0  0  0  0  0  0  0
  170.9140   25.7036   48.9579 H   0  0  0  0  0  0  0  0  0  0  0  0
  173.3935   24.8555   48.4528 H   0  0  0  0  0  0  0  0  0  0  0  0
  173.9359   20.0435   47.8345 H   0  0  0  0  0  0  0  0  0  0  0  0
  175.1936   18.4338   46.4019 H   0  0  0  0  0  0  0  0  0  0  0  0
  177.5815   18.8751   45.8228 H   0  0  0  0  0  0  0  0  0  0  0  0
  179.1800   21.4060   45.8130 H   0  0  0  0  0  0  0  0  0  0  0  0
  178.2710   24.9280   49.6800 H   0  0  0  0  0  0  0  0  0  0  0  0
  175.4495   23.6956   52.0675 H   0  0  0  0  0  0  0  0  0  0  0  0
  173.8509   25.0420   53.4071 H   0  0  0  0  0  0  0  0  0  0  0  0
  170.6162   24.8299   52.9979 H   0  0  0  0  0  0  0  0  0  0  0  0
  171.7336   25.4341   54.2628 H   0  0  0  0  0  0  0  0  0  0  0  0
  169.2073   26.8287   53.2229 H   0  0  0  0  0  0  0  0  0  0  0  0
  169.4425   26.0619   54.8437 H   0  0  0  0  0  0  0  0  0  0  0  0
  169.6460   28.5690   54.8663 H   0  0  0  0  0  0  0  0  0  0  0  0
  171.1206   27.6957   55.4405 H   0  0  0  0  0  0  0  0  0  0  0  0
  170.6754   28.9691   52.6997 H   0  0  0  0  0  0  0  0  0  0  0  0
  171.8173   29.5021   53.9989 H   0  0  0  0  0  0  0  0  0  0  0  0
  172.9465   28.2372   52.1440 H   0  0  0  0  0  0  0  0  0  0  0  0
  173.1297   27.4625   53.7510 H   0  0  0  0  0  0  0  0  0  0  0  0
  1  2  1  0
  2  3  2  0
  3  4  1  0
  4  5  1  0
  5  6  1  0
  6  7  1  0
  7  8  2  0
  8  9  1  0
  9 10  2  0
 10 11  1  0
 11 12  1  0
 11 13  2  0
 13 14  1  0
 14 15  2  0
 14 16  1  0
 16 17  1  0
  4 18  2  0
 18 19  1  0
 19 20  2  0
 20 21  1  0
 21 22  1  0
 22 23  1  0
 23 24  1  0
 24 25  1  0
 25 26  1  0
 20  2  1  0
 26 21  1  0
 16  5  2  0
 13  7  1  0
  1 27  1  0
  1 28  1  0
  1 29  1  0
  3 30  1  0
  8 31  1  0
  9 32  1  0
 10 33  1  0
 12 34  1  0
 17 35  1  0
 18 36  1  0
 19 37  1  0
 22 38  1  0
 22 39  1  0
 23 40  1  0
 23 41  1  0
 24 42  1  0
 24 43  1  0
 25 44  1  0
 25 45  1  0
 26 46  1  0
 26 47  1  0
M  END
>  <meeko>  (9) 
{"is_sidechain": [false], "free_energy": -5.61, "intermolecular_energy": -4.733, "internal_energy": -0.679}

$$$$
