cand_008_out
     RDKit          3D

 35 37  0  0  0  0  0  0  0  0999 V2000
  180.6610   21.6600   47.9580 O   0  0  0  0  0  0  0  0  0  0  0  0
  179.9650   20.8080   47.4100 C   0  0  0  0  0  0  0  0  0  0  0  0
  180.5790   19.7880   46.5280 C   0  0  0  0  0  0  0  0  0  0  0  0
  181.9500   19.8550   46.3480 O   0  0  0  0  0  0  0  0  0  0  0  0
  179.7810   18.8750   45.9460 C   0  0  0  0  0  0  0  0  0  0  0  0
  180.2830   17.8210   45.0390 C   0  0  0  0  0  0  0  0  0  0  0  0
  181.1510   18.1110   43.9820 C   0  0  0  0  0  0  0  0  0  0  0  0
  181.6310   17.0970   43.1500 C   0  0  0  0  0  0  0  0  0  0  0  0
  181.2590   15.7590   43.3570 C   0  0  0  0  0  0  0  0  0  0  0  0
  181.7990   14.6820   42.4420 C   0  0  0  0  0  0  0  0  0  0  0  0
  183.1390   14.7950   42.2130 F   0  0  0  0  0  0  0  0  0  0  0  0
  181.2180   14.7160   41.2100 F   0  0  0  0  0  0  0  0  0  0  0  0
  180.4010   15.4450   44.4350 C   0  0  0  0  0  0  0  0  0  0  0  0
  179.9710   14.0210   44.7070 C   0  0  0  0  0  0  0  0  0  0  0  0
  180.6170   13.4870   45.7820 F   0  0  0  0  0  0  0  0  0  0  0  0
  178.6430   13.9080   44.9950 F   0  0  0  0  0  0  0  0  0  0  0  0
  179.9210   16.4830   45.2580 C   0  0  0  0  0  0  0  0  0  0  0  0
  178.4010   18.8340   46.1110 O   0  0  0  0  0  0  0  0  0  0  0  0
  177.8040   19.7610   46.9270 C   0  0  0  0  0  0  0  0  0  0  0  0
  176.4180   19.6750   47.0740 C   0  0  0  0  0  0  0  0  0  0  0  0
  175.7470   20.5880   47.8890 C   0  0  0  0  0  0  0  0  0  0  0  0
  176.4600   21.5860   48.5580 C   0  0  0  0  0  0  0  0  0  0  0  0
  177.8420   21.6700   48.4100 C   0  0  0  0  0  0  0  0  0  0  0  0
  178.4770   22.6700   49.0910 O   0  0  0  0  0  0  0  0  0  0  0  0
  178.5140   20.7550   47.5940 C   0  0  0  0  0  0  0  0  0  0  0  0
  182.5030   20.1110   47.0590 H   0  0  0  0  0  0  0  0  0  0  0  0
  181.4600   19.1515   43.8033 H   0  0  0  0  0  0  0  0  0  0  0  0
  182.3093   17.3499   42.3218 H   0  0  0  0  0  0  0  0  0  0  0  0
  181.5720   13.7469   42.9750 H   0  0  0  0  0  0  0  0  0  0  0  0
  180.2160   13.4902   43.7752 H   0  0  0  0  0  0  0  0  0  0  0  0
  179.2465   16.2388   46.0919 H   0  0  0  0  0  0  0  0  0  0  0  0
  175.8560   18.8890   46.5483 H   0  0  0  0  0  0  0  0  0  0  0  0
  174.6551   20.5217   48.0048 H   0  0  0  0  0  0  0  0  0  0  0  0
  175.9303   22.3045   49.2008 H   0  0  0  0  0  0  0  0  0  0  0  0
  178.6530   23.4870   48.6670 H   0  0  0  0  0  0  0  0  0  0  0  0
  1  2  2  0
  2  3  1  0
  3  4  1  0
  3  5  2  0
  5  6  1  0
  6  7  2  0
  7  8  1  0
  8  9  2  0
  9 10  1  0
 10 11  1  0
 10 12  1  0
  9 13  1  0
 13 14  1  0
 14 15  1  0
 14 16  1  0
 13 17  2  0
  5 18  1  0
 18 19  1  0
 19 20  2  0
 20 21  1  0
 21 22  2  0
 22 23  1  0
 23 24  1  0
 23 25  2  0
 25  2  1  0
 17  6  1  0
 25 19  1  0
  4 26  1  0
  7 27  1  0
  8 28  1  0
 10 29  1  0
 14 30  1  0
 17 31  1  0
 20 32  1  0
 21 33  1  0
 22 34  1  0
 24 35  1  0
M  END
>  <meeko>  (1) 
{"is_sidechain": [false], "free_energy": -8.265, "intermolecular_energy": -10.198, "internal_energy": -0.375}

$$$$
cand_008_out
     RDKit          3D

 35 37  0  0  0  0  0  0  0  0999 V2000
  177.6480   20.6610   47.7060 O   0  0  0  0  0  0  0  0  0  0  0  0
  178.7630   20.2710   47.3660 C   0  0  0  0  0  0  0  0  0  0  0  0
  178.9070   19.2030   46.3490 C   0  0  0  0  0  0  0  0  0  0  0  0
  177.7420   18.6690   45.8260 O   0  0  0  0  0  0  0  0  0  0  0  0
  180.1450   18.8040   46.0060 C   0  0  0  0  0  0  0  0  0  0  0  0
  180.4080   17.7400   45.0140 C   0  0  0  0  0  0  0  0  0  0  0  0
  181.0270   18.0110   43.7890 C   0  0  0  0  0  0  0  0  0  0  0  0
  181.2860   16.9870   42.8750 C   0  0  0  0  0  0  0  0  0  0  0  0
  180.9360   15.6580   43.1630 C   0  0  0  0  0  0  0  0  0  0  0  0
  181.2330   14.5710   42.1540 C   0  0  0  0  0  0  0  0  0  0  0  0
  182.5590   14.4680   41.8530 F   0  0  0  0  0  0  0  0  0  0  0  0
  180.6080   14.7900   40.9630 F   0  0  0  0  0  0  0  0  0  0  0  0
  180.3320   15.3630   44.4050 C   0  0  0  0  0  0  0  0  0  0  0  0
  179.9370   13.9490   44.7700 C   0  0  0  0  0  0  0  0  0  0  0  0
  180.7070   13.4460   45.7770 F   0  0  0  0  0  0  0  0  0  0  0  0
  178.6530   13.8490   45.2160 F   0  0  0  0  0  0  0  0  0  0  0  0
  180.0710   16.4100   45.3110 C   0  0  0  0  0  0  0  0  0  0  0  0
  181.3090   19.3260   46.5580 O   0  0  0  0  0  0  0  0  0  0  0  0
  181.2080   20.3220   47.4970 C   0  0  0  0  0  0  0  0  0  0  0  0
  182.4020   20.8250   48.0160 C   0  0  0  0  0  0  0  0  0  0  0  0
  182.3700   21.8380   48.9760 C   0  0  0  0  0  0  0  0  0  0  0  0
  181.1460   22.3480   49.4170 C   0  0  0  0  0  0  0  0  0  0  0  0
  179.9570   21.8440   48.8970 C   0  0  0  0  0  0  0  0  0  0  0  0
  178.7960   22.3860   49.3730 O   0  0  0  0  0  0  0  0  0  0  0  0
  179.9890   20.8290   47.9360 C   0  0  0  0  0  0  0  0  0  0  0  0
  177.6160   17.7420   45.8150 H   0  0  0  0  0  0  0  0  0  0  0  0
  181.3135   19.0440   43.5424 H   0  0  0  0  0  0  0  0  0  0  0  0
  181.7707   17.2249   41.9166 H   0  0  0  0  0  0  0  0  0  0  0  0
  180.8709   13.6540   42.6418 H   0  0  0  0  0  0  0  0  0  0  0  0
  180.0694   13.3889   43.8325 H   0  0  0  0  0  0  0  0  0  0  0  0
  179.5918   16.1798   46.2740 H   0  0  0  0  0  0  0  0  0  0  0  0
  183.3659   20.4242   47.6694 H   0  0  0  0  0  0  0  0  0  0  0  0
  183.3101   22.2355   49.3861 H   0  0  0  0  0  0  0  0  0  0  0  0
  181.1220   23.1462   50.1736 H   0  0  0  0  0  0  0  0  0  0  0  0
  178.8240   23.0360   50.0470 H   0  0  0  0  0  0  0  0  0  0  0  0
  1  2  2  0
  2  3  1  0
  3  4  1  0
  3  5  2  0
  5  6  1  0
  6  7  2  0
  7  8  1  0
  8  9  2  0
  9 10  1  0
 10 11  1  0
 10 12  1  0
  9 13  1  0
 13 14  1  0
 14 15  1  0
 14 16  1  0
 13 17  2  0
  5 18  1  0
 18 19  1  0
 19 20  2  0
 20 21  1  0
 21 22  2  0
 22 23  1  0
 23 24  1  0
 23 25  2  0
 25  2  1  0
 17  6  1  0
 25 19  1  0
  4 26  1  0
  7 27  1  0
  8 28  1  0
 10 29  1  0
 14 30  1  0
 17 31  1  0
 20 32  1  0
 21 33  1  0
 22 34  1  0
 24 35  1  0
M  END
>  <meeko>  (2) 
{"is_sidechain": [false], "free_energy": -7.934, "intermolecular_energy": -9.621, "internal_energy": -0.542}

$$$$
cand_008_out
     RDKit          3D

 35 37  0  0  0  0  0  0  0  0999 V2000
  171.0370   23.7920   51.6510 O   0  0  0  0  0  0  0  0  0  0  0  0
  172.2580   23.6770   51.7250 C   0  0  0  0  0  0  0  0  0  0  0  0
  173.0340   23.1480   50.5790 C   0  0  0  0  0  0  0  0  0  0  0  0
  172.3210   22.7840   49.4500 O   0  0  0  0  0  0  0  0  0  0  0  0
  174.3690   23.0360   50.7020 C   0  0  0  0  0  0  0  0  0  0  0  0
  175.2400   22.5110   49.6290 C   0  0  0  0  0  0  0  0  0  0  0  0
  176.1530   23.3280   48.9550 C   0  0  0  0  0  0  0  0  0  0  0  0
  176.9830   22.8060   47.9600 C   0  0  0  0  0  0  0  0  0  0  0  0
  176.9250   21.4470   47.6130 C   0  0  0  0  0  0  0  0  0  0  0  0
  177.8400   20.9100   46.5350 C   0  0  0  0  0  0  0  0  0  0  0  0
  178.8410   21.7750   46.2010 F   0  0  0  0  0  0  0  0  0  0  0  0
  177.1730   20.6640   45.3720 F   0  0  0  0  0  0  0  0  0  0  0  0
  176.0260   20.6020   48.3020 C   0  0  0  0  0  0  0  0  0  0  0  0
  175.9250   19.1290   47.9730 C   0  0  0  0  0  0  0  0  0  0  0  0
  175.7870   18.3620   49.0920 F   0  0  0  0  0  0  0  0  0  0  0  0
  174.8460   18.8260   47.1960 F   0  0  0  0  0  0  0  0  0  0  0  0
  175.1920   21.1480   49.2960 C   0  0  0  0  0  0  0  0  0  0  0  0
  175.0730   23.3780   51.8510 O   0  0  0  0  0  0  0  0  0  0  0  0
  174.3830   23.8780   52.9260 C   0  0  0  0  0  0  0  0  0  0  0  0
  175.1310   24.2190   54.0540 C   0  0  0  0  0  0  0  0  0  0  0  0
  174.4910   24.7320   55.1840 C   0  0  0  0  0  0  0  0  0  0  0  0
  173.1050   24.9040   55.1860 C   0  0  0  0  0  0  0  0  0  0  0  0
  172.3610   24.5630   54.0600 C   0  0  0  0  0  0  0  0  0  0  0  0
  171.0100   24.7560   54.1300 O   0  0  0  0  0  0  0  0  0  0  0  0
  173.0020   24.0500   52.9280 C   0  0  0  0  0  0  0  0  0  0  0  0
  172.6960   22.1920   48.8300 H   0  0  0  0  0  0  0  0  0  0  0  0
  176.2185   24.3956   49.2116 H   0  0  0  0  0  0  0  0  0  0  0  0
  177.6915   23.4687   47.4415 H   0  0  0  0  0  0  0  0  0  0  0  0
  178.2509   19.9889   46.9739 H   0  0  0  0  0  0  0  0  0  0  0  0
  176.8633   18.9141   47.4407 H   0  0  0  0  0  0  0  0  0  0  0  0
  174.4857   20.4909   49.8245 H   0  0  0  0  0  0  0  0  0  0  0  0
  176.2227   24.0839   54.0528 H   0  0  0  0  0  0  0  0  0  0  0  0
  175.0792   25.0010   56.0738 H   0  0  0  0  0  0  0  0  0  0  0  0
  172.6018   25.3086   56.0766 H   0  0  0  0  0  0  0  0  0  0  0  0
  170.4270   24.0330   54.0060 H   0  0  0  0  0  0  0  0  0  0  0  0
  1  2  2  0
  2  3  1  0
  3  4  1  0
  3  5  2  0
  5  6  1  0
  6  7  2  0
  7  8  1  0
  8  9  2  0
  9 10  1  0
 10 11  1  0
 10 12  1  0
  9 13  1  0
 13 14  1  0
 14 15  1  0
 14 16  1  0
 13 17  2  0
  5 18  1  0
 18 19  1  0
 19 20  2  0
 20 21  1  0
 21 22  2  0
 22 23  1  0
 23 24  1  0
 23 25  2  0
 25  2  1  0
 17  6  1  0
 25 19  1  0
  4 26  1  0
  7 27  1  0
  8 28  1  0
 10 29  1  0
 14 30  1  0
 17 31  1  0
 20 32  1  0
 21 33  1  0
 22 34  1  0
 24 35  1  0
M  END
>  <meeko>  (3) 
{"is_sidechain": [false], "free_energy": -7.778, "intermolecular_energy": -9.361, "internal_energy": -0.611}

$$$$
cand_008_out
     RDKit          3D

 35 37  0  0  0  0  0  0  0  0999 V2000
  176.3780   23.3490   53.9580 O   0  0  0  0  0  0  0  0  0  0  0  0
  176.1120   23.5350   52.7730 C   0  0  0  0  0  0  0  0  0  0  0  0
  176.2960   22.4490   51.7820 C   0  0  0  0  0  0  0  0  0  0  0  0
  176.7880   21.2440   52.2520 O   0  0  0  0  0  0  0  0  0  0  0  0
  175.9950   22.6950   50.4940 C   0  0  0  0  0  0  0  0  0  0  0  0
  176.1510   21.6920   49.4200 C   0  0  0  0  0  0  0  0  0  0  0  0
  175.2130   20.6740   49.2210 C   0  0  0  0  0  0  0  0  0  0  0  0
  175.3690   19.7480   48.1860 C   0  0  0  0  0  0  0  0  0  0  0  0
  176.4680   19.8190   47.3150 C   0  0  0  0  0  0  0  0  0  0  0  0
  176.6060   18.8060   46.2000 C   0  0  0  0  0  0  0  0  0  0  0  0
  175.6740   17.8110   46.2620 F   0  0  0  0  0  0  0  0  0  0  0  0
  177.8120   18.1730   46.2280 F   0  0  0  0  0  0  0  0  0  0  0  0
  177.4120   20.8560   47.4860 C   0  0  0  0  0  0  0  0  0  0  0  0
  178.6120   20.9830   46.5750 C   0  0  0  0  0  0  0  0  0  0  0  0
  179.0790   22.2630   46.5170 F   0  0  0  0  0  0  0  0  0  0  0  0
  179.6760   20.2320   46.9820 F   0  0  0  0  0  0  0  0  0  0  0  0
  177.2430   21.7740   48.5410 C   0  0  0  0  0  0  0  0  0  0  0  0
  175.5290   23.9180   50.0270 O   0  0  0  0  0  0  0  0  0  0  0  0
  175.3410   24.9410   50.9220 C   0  0  0  0  0  0  0  0  0  0  0  0
  174.8600   26.1480   50.4110 C   0  0  0  0  0  0  0  0  0  0  0  0
  174.6470   27.2300   51.2670 C   0  0  0  0  0  0  0  0  0  0  0  0
  174.9150   27.1060   52.6330 C   0  0  0  0  0  0  0  0  0  0  0  0
  175.3950   25.9020   53.1390 C   0  0  0  0  0  0  0  0  0  0  0  0
  175.6380   25.8490   54.4840 O   0  0  0  0  0  0  0  0  0  0  0  0
  175.6080   24.8180   52.2820 C   0  0  0  0  0  0  0  0  0  0  0  0
  176.1980   20.5870   52.5620 H   0  0  0  0  0  0  0  0  0  0  0  0
  174.3411   20.6012   49.8878 H   0  0  0  0  0  0  0  0  0  0  0  0
  174.6208   18.9529   48.0519 H   0  0  0  0  0  0  0  0  0  0  0  0
  176.4794   19.4032   45.2849 H   0  0  0  0  0  0  0  0  0  0  0  0
  178.2387   20.6374   45.5997 H   0  0  0  0  0  0  0  0  0  0  0  0
  177.9845   22.5746   48.6796 H   0  0  0  0  0  0  0  0  0  0  0  0
  174.6493   26.2462   49.3359 H   0  0  0  0  0  0  0  0  0  0  0  0
  174.2677   28.1814   50.8658 H   0  0  0  0  0  0  0  0  0  0  0  0
  174.7467   27.9588   53.3070 H   0  0  0  0  0  0  0  0  0  0  0  0
  176.0290   26.5820   54.9170 H   0  0  0  0  0  0  0  0  0  0  0  0
  1  2  2  0
  2  3  1  0
  3  4  1  0
  3  5  2  0
  5  6  1  0
  6  7  2  0
  7  8  1  0
  8  9  2  0
  9 10  1  0
 10 11  1  0
 10 12  1  0
  9 13  1  0
 13 14  1  0
 14 15  1  0
 14 16  1  0
 13 17  2  0
  5 18  1  0
 18 19  1  0
 19 20  2  0
 20 21  1  0
 21 22  2  0
 22 23  1  0
 23 24  1  0
 23 25  2  0
 25  2  1  0
 17  6  1  0
 25 19  1  0
  4 26  1  0
  7 27  1  0
  8 28  1  0
 10 29  1  0
 14 30  1  0
 17 31  1  0
 20 32  1  0
 21 33  1  0
 22 34  1  0
 24 35  1  0
M  END
>  <meeko>  (4) 
{"is_sidechain": [false], "free_energy": -7.561, "intermolecular_energy": -9.187, "internal_energy": -0.517}

$$$$
cand_008_out
     RDKit          3D

 35 37  0  0  0  0  0  0  0  0999 V2000
  176.6460   22.6510   53.2410 O   0  0  0  0  0  0  0  0  0  0  0  0
  176.4120   22.6910   52.0350 C   0  0  0  0  0  0  0  0  0  0  0  0
  177.2980   21.9940   51.0740 C   0  0  0  0  0  0  0  0  0  0  0  0
  178.3900   21.3230   51.5960 O   0  0  0  0  0  0  0  0  0  0  0  0
  177.0070   22.0650   49.7620 C   0  0  0  0  0  0  0  0  0  0  0  0
  177.8270   21.4200   48.7140 C   0  0  0  0  0  0  0  0  0  0  0  0
  177.2990   20.4480   47.8600 C   0  0  0  0  0  0  0  0  0  0  0  0
  178.0850   19.8670   46.8620 C   0  0  0  0  0  0  0  0  0  0  0  0
  179.4250   20.2470   46.6880 C   0  0  0  0  0  0  0  0  0  0  0  0
  180.2500   19.6030   45.5960 C   0  0  0  0  0  0  0  0  0  0  0  0
  180.0520   20.1690   44.3700 F   0  0  0  0  0  0  0  0  0  0  0  0
  179.9500   18.2830   45.4360 F   0  0  0  0  0  0  0  0  0  0  0  0
  179.9680   21.2450   47.5270 C   0  0  0  0  0  0  0  0  0  0  0  0
  181.4050   21.6970   47.3820 C   0  0  0  0  0  0  0  0  0  0  0  0
  181.6270   22.9000   47.9840 F   0  0  0  0  0  0  0  0  0  0  0  0
  182.2970   20.8390   47.9550 F   0  0  0  0  0  0  0  0  0  0  0  0
  179.1620   21.8130   48.5330 C   0  0  0  0  0  0  0  0  0  0  0  0
  175.9240   22.7660   49.2450 O   0  0  0  0  0  0  0  0  0  0  0  0
  175.0810   23.4150   50.1100 C   0  0  0  0  0  0  0  0  0  0  0  0
  174.0000   24.0970   49.5490 C   0  0  0  0  0  0  0  0  0  0  0  0
  173.1040   24.7790   50.3730 C   0  0  0  0  0  0  0  0  0  0  0  0
  173.2880   24.7810   51.7580 C   0  0  0  0  0  0  0  0  0  0  0  0
  174.3670   24.1010   52.3150 C   0  0  0  0  0  0  0  0  0  0  0  0
  174.4890   24.1440   53.6770 O   0  0  0  0  0  0  0  0  0  0  0  0
  175.2640   23.4170   51.4900 C   0  0  0  0  0  0  0  0  0  0  0  0
  178.4680   21.2060   52.5220 H   0  0  0  0  0  0  0  0  0  0  0  0
  176.2504   20.1362   47.9752 H   0  0  0  0  0  0  0  0  0  0  0  0
  177.6481   19.1016   46.2038 H   0  0  0  0  0  0  0  0  0  0  0  0
  181.2877   19.7488   45.9307 H   0  0  0  0  0  0  0  0  0  0  0  0
  181.5558   21.7486   46.2936 H   0  0  0  0  0  0  0  0  0  0  0  0
  179.5892   22.5829   49.1924 H   0  0  0  0  0  0  0  0  0  0  0  0
  173.8547   24.0968   48.4586 H   0  0  0  0  0  0  0  0  0  0  0  0
  172.2515   25.3159   49.9315 H   0  0  0  0  0  0  0  0  0  0  0  0
  172.5813   25.3190   52.4070 H   0  0  0  0  0  0  0  0  0  0  0  0
  174.0090   24.7810   54.1690 H   0  0  0  0  0  0  0  0  0  0  0  0
  1  2  2  0
  2  3  1  0
  3  4  1  0
  3  5  2  0
  5  6  1  0
  6  7  2  0
  7  8  1  0
  8  9  2  0
  9 10  1  0
 10 11  1  0
 10 12  1  0
  9 13  1  0
 13 14  1  0
 14 15  1  0
 14 16  1  0
 13 17  2  0
  5 18  1  0
 18 19  1  0
 19 20  2  0
 20 21  1  0
 21 22  2  0
 22 23  1  0
 23 24  1  0
 23 25  2  0
 25  2  1  0
 17  6  1  0
 25 19  1  0
  4 26  1  0
  7 27  1  0
  8 28  1  0
 10 29  1  0
 14 30  1  0
 17 31  1  0
 20 32  1  0
 21 33  1  0
 22 34  1  0
 24 35  1  0
M  END
>  <meeko>  (5) 
{"is_sidechain": [false], "free_energy": -7.523, "intermolecular_energy": -9.139, "internal_energy": -0.518}

$$$$
cand_008_out
     RDKit          3D

 35 37  0  0  0  0  0  0  0  0999 V2000
  180.3620   22.6370   51.8400 O   0  0  0  0  0  0  0  0  0  0  0  0
  179.6280   22.4570   50.8700 C   0  0  0  0  0  0  0  0  0  0  0  0
  178.2400   22.9760   50.8720 C   0  0  0  0  0  0  0  0  0  0  0  0
  177.8200   23.6460   52.0080 O   0  0  0  0  0  0  0  0  0  0  0  0
  177.4690   22.7550   49.7920 C   0  0  0  0  0  0  0  0  0  0  0  0
  176.0680   23.2150   49.6890 C   0  0  0  0  0  0  0  0  0  0  0  0
  175.0340   22.3480   49.3230 C   0  0  0  0  0  0  0  0  0  0  0  0
  173.7130   22.7980   49.2530 C   0  0  0  0  0  0  0  0  0  0  0  0
  173.3880   24.1300   49.5540 C   0  0  0  0  0  0  0  0  0  0  0  0
  171.9480   24.5860   49.4740 C   0  0  0  0  0  0  0  0  0  0  0  0
  171.2530   24.3700   50.6280 F   0  0  0  0  0  0  0  0  0  0  0  0
  171.2540   23.9270   48.5050 F   0  0  0  0  0  0  0  0  0  0  0  0
  174.4180   25.0130   49.9500 C   0  0  0  0  0  0  0  0  0  0  0  0
  174.1260   26.4580   50.2900 C   0  0  0  0  0  0  0  0  0  0  0  0
  173.6160   26.5950   51.5470 F   0  0  0  0  0  0  0  0  0  0  0  0
  175.2360   27.2490   50.2640 F   0  0  0  0  0  0  0  0  0  0  0  0
  175.7450   24.5430   50.0060 C   0  0  0  0  0  0  0  0  0  0  0  0
  177.8920   22.0550   48.6680 O   0  0  0  0  0  0  0  0  0  0  0  0
  179.1750   21.5690   48.6330 C   0  0  0  0  0  0  0  0  0  0  0  0
  179.5600   20.8830   47.4800 C   0  0  0  0  0  0  0  0  0  0  0  0
  180.8520   20.3620   47.3810 C   0  0  0  0  0  0  0  0  0  0  0  0
  181.7570   20.5260   48.4320 C   0  0  0  0  0  0  0  0  0  0  0  0
  181.3690   21.2110   49.5810 C   0  0  0  0  0  0  0  0  0  0  0  0
  182.3030   21.3340   50.5710 O   0  0  0  0  0  0  0  0  0  0  0  0
  180.0760   21.7330   49.6810 C   0  0  0  0  0  0  0  0  0  0  0  0
  176.9440   23.5370   52.3180 H   0  0  0  0  0  0  0  0  0  0  0  0
  175.2633   21.2983   49.0872 H   0  0  0  0  0  0  0  0  0  0  0  0
  172.9167   22.0988   48.9579 H   0  0  0  0  0  0  0  0  0  0  0  0
  172.0244   25.6624   49.2604 H   0  0  0  0  0  0  0  0  0  0  0  0
  173.4061   26.7700   49.5190 H   0  0  0  0  0  0  0  0  0  0  0  0
  176.5470   25.2338   50.3054 H   0  0  0  0  0  0  0  0  0  0  0  0
  178.8479   20.7531   46.6517 H   0  0  0  0  0  0  0  0  0  0  0  0
  181.1575   19.8212   46.4731 H   0  0  0  0  0  0  0  0  0  0  0  0
  182.7742   20.1150   48.3525 H   0  0  0  0  0  0  0  0  0  0  0  0
  182.3410   20.7010   51.2610 H   0  0  0  0  0  0  0  0  0  0  0  0
  1  2  2  0
  2  3  1  0
  3  4  1  0
  3  5  2  0
  5  6  1  0
  6  7  2  0
  7  8  1  0
  8  9  2  0
  9 10  1  0
 10 11  1  0
 10 12  1  0
  9 13  1  0
 13 14  1  0
 14 15  1  0
 14 16  1  0
 13 17  2  0
  5 18  1  0
 18 19  1  0
 19 20  2  0
 20 21  1  0
 21 22  2  0
 22 23  1  0
 23 24  1  0
 23 25  2  0
 25  2  1  0
 17  6  1  0
 25 19  1  0
  4 26  1  0
  7 27  1  0
  8 28  1  0
 10 29  1  0
 14 30  1  0
 17 31  1  0
 20 32  1  0
 21 33  1  0
 22 34  1  0
 24 35  1  0
M  END
>  <meeko>  (6) 
{"is_sidechain": [false], "free_energy": -7.513, "intermolecular_energy": -9.243, "internal_energy": -0.402}

$$$$
cand_008_out
     RDKit          3D

 35 37  0  0  0  0  0  0  0  0999 V2000
  176.3230   23.3710   53.9970 O   0  0  0  0  0  0  0  0  0  0  0  0
  175.9710   23.4500   52.8220 C   0  0  0  0  0  0  0  0  0  0  0  0
  176.6380   22.6330   51.7820 C   0  0  0  0  0  0  0  0  0  0  0  0
  177.6670   21.8050   52.1940 O   0  0  0  0  0  0  0  0  0  0  0  0
  176.2240   22.7520   50.5070 C   0  0  0  0  0  0  0  0  0  0  0  0
  176.8240   21.9960   49.3870 C   0  0  0  0  0  0  0  0  0  0  0  0
  178.1510   22.1940   48.9930 C   0  0  0  0  0  0  0  0  0  0  0  0
  178.7050   21.4530   47.9460 C   0  0  0  0  0  0  0  0  0  0  0  0
  177.9460   20.4890   47.2640 C   0  0  0  0  0  0  0  0  0  0  0  0
  178.5750   19.7000   46.1380 C   0  0  0  0  0  0  0  0  0  0  0  0
  179.6420   18.9490   46.5390 F   0  0  0  0  0  0  0  0  0  0  0  0
  179.0540   20.5070   45.1500 F   0  0  0  0  0  0  0  0  0  0  0  0
  176.6110   20.2600   47.6660 C   0  0  0  0  0  0  0  0  0  0  0  0
  175.7480   19.2300   46.9700 C   0  0  0  0  0  0  0  0  0  0  0  0
  175.6510   18.0740   47.6870 F   0  0  0  0  0  0  0  0  0  0  0  0
  174.4620   19.6460   46.7840 F   0  0  0  0  0  0  0  0  0  0  0  0
  176.0670   21.0220   48.7180 C   0  0  0  0  0  0  0  0  0  0  0  0
  175.2080   23.6080   50.0980 O   0  0  0  0  0  0  0  0  0  0  0  0
  174.5670   24.3720   51.0400 C   0  0  0  0  0  0  0  0  0  0  0  0
  173.5450   25.2090   50.5870 C   0  0  0  0  0  0  0  0  0  0  0  0
  172.8530   26.0140   51.4940 C   0  0  0  0  0  0  0  0  0  0  0  0
  173.1800   25.9830   52.8510 C   0  0  0  0  0  0  0  0  0  0  0  0
  174.1990   25.1470   53.3000 C   0  0  0  0  0  0  0  0  0  0  0  0
  174.4690   25.1670   54.6400 O   0  0  0  0  0  0  0  0  0  0  0  0
  174.8930   24.3410   52.3920 C   0  0  0  0  0  0  0  0  0  0  0  0
  177.7430   21.5670   53.0970 H   0  0  0  0  0  0  0  0  0  0  0  0
  178.7664   22.9424   49.5138 H   0  0  0  0  0  0  0  0  0  0  0  0
  179.7505   21.6275   47.6520 H   0  0  0  0  0  0  0  0  0  0  0  0
  177.7572   19.0570   45.7806 H   0  0  0  0  0  0  0  0  0  0  0  0
  176.2519   19.0733   46.0048 H   0  0  0  0  0  0  0  0  0  0  0  0
  175.0241   20.8496   49.0225 H   0  0  0  0  0  0  0  0  0  0  0  0
  173.2858   25.2340   49.5183 H   0  0  0  0  0  0  0  0  0  0  0  0
  172.0482   26.6743   51.1385 H   0  0  0  0  0  0  0  0  0  0  0  0
  172.6336   26.6178   53.5641 H   0  0  0  0  0  0  0  0  0  0  0  0
  175.2590   25.5610   54.9530 H   0  0  0  0  0  0  0  0  0  0  0  0
  1  2  2  0
  2  3  1  0
  3  4  1  0
  3  5  2  0
  5  6  1  0
  6  7  2  0
  7  8  1  0
  8  9  2  0
  9 10  1  0
 10 11  1  0
 10 12  1  0
  9 13  1  0
 13 14  1  0
 14 15  1  0
 14 16  1  0
 13 17  2  0
  5 18  1  0
 18 19  1  0
 19 20  2  0
 20 21  1  0
 21 22  2  0
 22 23  1  0
 23 24  1  0
 23 25  2  0
 25  2  1  0
 17  6  1  0
 25 19  1  0
  4 26  1  0
  7 27  1  0
  8 28  1  0
 10 29  1  0
 14 30  1  0
 17 31  1  0
 20 32  1  0
 21 33  1  0
 22 34  1  0
 24 35  1  0
M  END
>  <meeko>  (7) 
{"is_sidechain": [false], "free_energy": -7.49, "intermolecular_energy": -9.069, "internal_energy": -0.547}

$$$$
cand_008_out
     RDKit          3D

 35 37  0  0  0  0  0  0  0  0999 V2000
  176.6750   22.6270   53.3410 O   0  0  0  0  0  0  0  0  0  0  0  0
  176.5990   22.8450   52.1330 C   0  0  0  0  0  0  0  0  0  0  0  0
  177.6430   22.3400   51.2110 C   0  0  0  0  0  0  0  0  0  0  0  0
  178.6930   21.6350   51.7740 O   0  0  0  0  0  0  0  0  0  0  0  0
  177.5230   22.6030   49.8970 C   0  0  0  0  0  0  0  0  0  0  0  0
  178.5090   22.1600   48.8890 C   0  0  0  0  0  0  0  0  0  0  0  0
  179.8270   22.6270   48.8930 C   0  0  0  0  0  0  0  0  0  0  0  0
  180.7500   22.1780   47.9440 C   0  0  0  0  0  0  0  0  0  0  0  0
  180.3790   21.2430   46.9650 C   0  0  0  0  0  0  0  0  0  0  0  0
  181.4010   20.7720   45.9550 C   0  0  0  0  0  0  0  0  0  0  0  0
  181.8320   19.4980   46.1810 F   0  0  0  0  0  0  0  0  0  0  0  0
  182.5260   21.5410   45.9660 F   0  0  0  0  0  0  0  0  0  0  0  0
  179.0570   20.7420   46.9620 C   0  0  0  0  0  0  0  0  0  0  0  0
  178.6040   19.7300   45.9330 C   0  0  0  0  0  0  0  0  0  0  0  0
  179.0490   18.4740   46.2200 F   0  0  0  0  0  0  0  0  0  0  0  0
  177.2470   19.6210   45.8510 F   0  0  0  0  0  0  0  0  0  0  0  0
  178.1400   21.2130   47.9210 C   0  0  0  0  0  0  0  0  0  0  0  0
  176.4790   23.3360   49.3460 O   0  0  0  0  0  0  0  0  0  0  0  0
  175.4930   23.8120   50.1730 C   0  0  0  0  0  0  0  0  0  0  0  0
  174.4580   24.5330   49.5750 C   0  0  0  0  0  0  0  0  0  0  0  0
  173.4240   25.0460   50.3610 C   0  0  0  0  0  0  0  0  0  0  0  0
  173.4240   24.8380   51.7420 C   0  0  0  0  0  0  0  0  0  0  0  0
  174.4580   24.1190   52.3360 C   0  0  0  0  0  0  0  0  0  0  0  0
  174.3970   23.9540   53.6920 O   0  0  0  0  0  0  0  0  0  0  0  0
  175.4940   23.6050   51.5490 C   0  0  0  0  0  0  0  0  0  0  0  0
  178.8470   21.6830   52.6960 H   0  0  0  0  0  0  0  0  0  0  0  0
  180.1417   23.3574   49.6530 H   0  0  0  0  0  0  0  0  0  0  0  0
  181.7804   22.5624   47.9647 H   0  0  0  0  0  0  0  0  0  0  0  0
  180.8695   20.8386   44.9943 H   0  0  0  0  0  0  0  0  0  0  0  0
  179.0234   20.1078   44.9889 H   0  0  0  0  0  0  0  0  0  0  0  0
  177.1091   20.8294   47.9114 H   0  0  0  0  0  0  0  0  0  0  0  0
  174.4569   24.6967   48.4872 H   0  0  0  0  0  0  0  0  0  0  0  0
  172.6080   25.6150   49.8915 H   0  0  0  0  0  0  0  0  0  0  0  0
  172.6082   25.2416   52.3597 H   0  0  0  0  0  0  0  0  0  0  0  0
  174.5680   24.6800   54.2590 H   0  0  0  0  0  0  0  0  0  0  0  0
  1  2  2  0
  2  3  1  0
  3  4  1  0
  3  5  2  0
  5  6  1  0
  6  7  2  0
  7  8  1  0
  8  9  2  0
  9 10  1  0
 10 11  1  0
 10 12  1  0
  9 13  1  0
 13 14  1  0
 14 15  1  0
 14 16  1  0
 13 17  2  0
  5 18  1  0
 18 19  1  0
 19 20  2  0
 20 21  1  0
 21 22  2  0
 22 23  1  0
 23 24  1  0
 23 25  2  0
 25  2  1  0
 17  6  1  0
 25 19  1  0
  4 26  1  0
  7 27  1  0
  8 28  1  0
 10 29  1  0
 14 30  1  0
 17 31  1  0
 20 32  1  0
 21 33  1  0
 22 34  1  0
 24 35  1  0
M  END
>  <meeko>  (8) 
{"is_sidechain": [false], "free_energy": -7.48, "intermolecular_energy": -9.016, "internal_energy": -0.588}

$$$$
cand_008_out
     RDKit          3D

 35 37  0  0  0  0  0  0  0  0999 V2000
  184.5720   22.3080   51.0940 O   0  0  0  0  0  0  0  0  0  0  0  0
  184.1770   22.4980   49.9450 C   0  0  0  0  0  0  0  0  0  0  0  0
  182.8960   21.9130   49.4850 C   0  0  0  0  0  0  0  0  0  0  0  0
  182.1920   21.1440   50.3950 O   0  0  0  0  0  0  0  0  0  0  0  0
  182.5010   22.1430   48.2200 C   0  0  0  0  0  0  0  0  0  0  0  0
  181.2500   21.6000   47.6500 C   0  0  0  0  0  0  0  0  0  0  0  0
  180.0050   22.1740   47.9270 C   0  0  0  0  0  0  0  0  0  0  0  0
  178.8360   21.6580   47.3600 C   0  0  0  0  0  0  0  0  0  0  0  0
  178.8810   20.5540   46.4950 C   0  0  0  0  0  0  0  0  0  0  0  0
  177.6000   20.0210   45.8940 C   0  0  0  0  0  0  0  0  0  0  0  0
  176.5600   20.8990   45.9850 F   0  0  0  0  0  0  0  0  0  0  0  0
  177.1710   18.8880   46.5190 F   0  0  0  0  0  0  0  0  0  0  0  0
  180.1340   19.9770   46.1860 C   0  0  0  0  0  0  0  0  0  0  0  0
  180.2420   18.7880   45.2570 C   0  0  0  0  0  0  0  0  0  0  0  0
  181.5070   18.6290   44.7740 F   0  0  0  0  0  0  0  0  0  0  0  0
  179.9380   17.6050   45.8630 F   0  0  0  0  0  0  0  0  0  0  0  0
  181.2990   20.5050   46.7740 C   0  0  0  0  0  0  0  0  0  0  0  0
  183.2300   22.8930   47.3040 O   0  0  0  0  0  0  0  0  0  0  0  0
  184.4170   23.4540   47.7030 C   0  0  0  0  0  0  0  0  0  0  0  0
  185.1100   24.2090   46.7550 C   0  0  0  0  0  0  0  0  0  0  0  0
  186.3250   24.8060   47.0950 C   0  0  0  0  0  0  0  0  0  0  0  0
  186.8470   24.6500   48.3820 C   0  0  0  0  0  0  0  0  0  0  0  0
  186.1530   23.8970   49.3250 C   0  0  0  0  0  0  0  0  0  0  0  0
  186.7200   23.7840   50.5640 O   0  0  0  0  0  0  0  0  0  0  0  0
  184.9360   23.2990   48.9850 C   0  0  0  0  0  0  0  0  0  0  0  0
  181.5620   20.5210   50.0930 H   0  0  0  0  0  0  0  0  0  0  0  0
  179.9449   23.0424   48.5995 H   0  0  0  0  0  0  0  0  0  0  0  0
  177.8676   22.1238   47.5952 H   0  0  0  0  0  0  0  0  0  0  0  0
  177.8621   19.8329   44.8424 H   0  0  0  0  0  0  0  0  0  0  0  0
  179.5220   19.0133   44.4565 H   0  0  0  0  0  0  0  0  0  0  0  0
  182.2719   20.0478   46.5409 H   0  0  0  0  0  0  0  0  0  0  0  0
  184.6993   24.3332   45.7421 H   0  0  0  0  0  0  0  0  0  0  0  0
  186.8726   25.4003   46.3487 H   0  0  0  0  0  0  0  0  0  0  0  0
  187.8043   25.1213   48.6493 H   0  0  0  0  0  0  0  0  0  0  0  0
  186.7810   22.9450   50.9760 H   0  0  0  0  0  0  0  0  0  0  0  0
  1  2  2  0
  2  3  1  0
  3  4  1  0
  3  5  2  0
  5  6  1  0
  6  7  2  0
  7  8  1  0
  8  9  2  0
  9 10  1  0
 10 11  1  0
 10 12  1  0
  9 13  1  0
 13 14  1  0
 14 15  1  0
 14 16  1  0
 13 17  2  0
  5 18  1  0
 18 19  1  0
 19 20  2  0
 20 21  1  0
 21 22  2  0
 22 23  1  0
 23 24  1  0
 23 25  2  0
 25  2  1  0
 17  6  1  0
 25 19  1  0
  4 26  1  0
  7 27  1  0
  8 28  1  0
 10 29  1  0
 14 30  1  0
 17 31  1  0
 20 32  1  0
 21 33  1  0
 22 34  1  0
 24 35  1  0
M  END
>  <meeko>  (9) 
{"is_sidechain": [false], "free_energy": -7.47, "intermolecular_energy": -8.885, "internal_energy": -0.707}

$$$$
