cand_054_out
     RDKit          3D

 46 48  0  0  0  0  0  0  0  0999 V2000
  179.0670   24.1780   47.4740 C   0  0  0  0  0  0  0  0  0  0  0  0
  179.8240   23.3180   48.4760 C   0  0  0  0  0  0  0  0  0  0  0  0
  178.9410   22.3140   49.1050 N   0  0  0  0  0  0  0  0  0  0  0  0
  179.5410   21.5890   50.2420 C   0  0  0  0  0  0  0  0  0  0  0  0
  178.5760   21.5690   51.4200 C   0  0  0  0  0  0  0  0  0  0  0  0
  178.3840   21.3930   48.1780 C   0  0  0  0  0  0  0  0  0  0  0  0
  179.1840   20.4810   47.4620 C   0  0  0  0  0  0  0  0  0  0  0  0
  178.6260   19.5600   46.5630 C   0  0  0  0  0  0  0  0  0  0  0  0
  179.4680   18.6200   45.7930 C   0  0  0  0  0  0  0  0  0  0  0  0
  179.0240   17.3050   45.8770 O   0  0  0  0  0  0  0  0  0  0  0  0
  179.7140   16.3280   45.2080 C   0  0  0  0  0  0  0  0  0  0  0  0
  179.2250   15.0250   45.3090 C   0  0  0  0  0  0  0  0  0  0  0  0
  179.8820   13.9820   44.6520 C   0  0  0  0  0  0  0  0  0  0  0  0
  181.0290   14.2420   43.8980 C   0  0  0  0  0  0  0  0  0  0  0  0
  181.5150   15.5430   43.8000 C   0  0  0  0  0  0  0  0  0  0  0  0
  182.6410   15.7260   43.0460 O   0  0  0  0  0  0  0  0  0  0  0  0
  180.8560   16.5860   44.4560 C   0  0  0  0  0  0  0  0  0  0  0  0
  181.3330   17.9670   44.3790 C   0  0  0  0  0  0  0  0  0  0  0  0
  182.3380   18.2750   43.7400 O   0  0  0  0  0  0  0  0  0  0  0  0
  180.5590   19.0010   45.1030 C   0  0  0  0  0  0  0  0  0  0  0  0
  181.0270   20.3010   45.0340 O   0  0  0  0  0  0  0  0  0  0  0  0
  177.2390   19.5670   46.3740 C   0  0  0  0  0  0  0  0  0  0  0  0
  176.4280   20.4570   47.0820 C   0  0  0  0  0  0  0  0  0  0  0  0
  176.9870   21.3670   47.9890 C   0  0  0  0  0  0  0  0  0  0  0  0
  176.0890   22.3090   48.7450 C   0  0  0  0  0  0  0  0  0  0  0  0
  178.4335   24.8977   48.0133 H   0  0  0  0  0  0  0  0  0  0  0  0
  179.7844   24.7224   46.8423 H   0  0  0  0  0  0  0  0  0  0  0  0
  178.4360   23.5355   46.8423 H   0  0  0  0  0  0  0  0  0  0  0  0
  180.6417   22.7984   47.9550 H   0  0  0  0  0  0  0  0  0  0  0  0
  180.2174   23.9745   49.2661 H   0  0  0  0  0  0  0  0  0  0  0  0
  179.7642   20.5559   49.9373 H   0  0  0  0  0  0  0  0  0  0  0  0
  180.4673   22.0992   50.5449 H   0  0  0  0  0  0  0  0  0  0  0  0
  179.1457   21.5808   52.3609 H   0  0  0  0  0  0  0  0  0  0  0  0
  177.9240   22.4538   51.3750 H   0  0  0  0  0  0  0  0  0  0  0  0
  177.9613   20.6579   51.3750 H   0  0  0  0  0  0  0  0  0  0  0  0
  180.2737   20.4913   47.6116 H   0  0  0  0  0  0  0  0  0  0  0  0
  178.3236   14.8195   45.9050 H   0  0  0  0  0  0  0  0  0  0  0  0
  179.4959   12.9548   44.7284 H   0  0  0  0  0  0  0  0  0  0  0  0
  181.5474   13.4201   43.3825 H   0  0  0  0  0  0  0  0  0  0  0  0
  182.5880   16.1780   42.2250 H   0  0  0  0  0  0  0  0  0  0  0  0
  180.6570   20.9620   45.5850 H   0  0  0  0  0  0  0  0  0  0  0  0
  176.7832   18.8645   45.6607 H   0  0  0  0  0  0  0  0  0  0  0  0
  175.3392   20.4433   46.9259 H   0  0  0  0  0  0  0  0  0  0  0  0
  176.2297   22.1614   49.8259 H   0  0  0  0  0  0  0  0  0  0  0  0
  176.3406   23.3467   48.4808 H   0  0  0  0  0  0  0  0  0  0  0  0
  175.0404   22.1073   48.4808 H   0  0  0  0  0  0  0  0  0  0  0  0
  1  2  1  0
  2  3  1  0
  3  4  1  0
  4  5  1  0
  3  6  1  0
  6  7  2  0
  7  8  1  0
  8  9  1  0
  9 10  1  0
 10 11  1  0
 11 12  2  0
 12 13  1  0
 13 14  2  0
 14 15  1  0
 15 16  1  0
 15 17  2  0
 17 18  1  0
 18 19  2  0
 18 20  1  0
 20 21  1  0
  8 22  2  0
 22 23  1  0
 23 24  2  0
 24 25  1  0
 24  6  1  0
 20  9  2  0
 17 11  1  0
  1 26  1  0
  1 27  1  0
  1 28  1  0
  2 29  1  0
  2 30  1  0
  4 31  1  0
  4 32  1  0
  5 33  1  0
  5 34  1  0
  5 35  1  0
  7 36  1  0
 12 37  1  0
 13 38  1  0
 14 39  1  0
 16 40  1  0
 21 41  1  0
 22 42  1  0
 23 43  1  0
 25 44  1  0
 25 45  1  0
 25 46  1  0
M  END
>  <meeko>  (1) 
{"is_sidechain": [false], "free_energy": -7.041, "intermolecular_energy": -9.099, "internal_energy": -0.705}

$$$$
cand_054_out
     RDKit          3D

 46 48  0  0  0  0  0  0  0  0999 V2000
  176.3380   23.7720   49.1540 C   0  0  0  0  0  0  0  0  0  0  0  0
  176.6930   23.0280   47.8730 C   0  0  0  0  0  0  0  0  0  0  0  0
  176.9180   21.5900   48.1270 N   0  0  0  0  0  0  0  0  0  0  0  0
  176.6640   21.1610   49.5170 C   0  0  0  0  0  0  0  0  0  0  0  0
  175.5600   20.1140   49.5500 C   0  0  0  0  0  0  0  0  0  0  0  0
  178.1950   21.1350   47.7020 C   0  0  0  0  0  0  0  0  0  0  0  0
  179.3880   21.6950   48.1980 C   0  0  0  0  0  0  0  0  0  0  0  0
  180.6460   21.2270   47.7890 C   0  0  0  0  0  0  0  0  0  0  0  0
  181.8990   21.8320   48.2900 C   0  0  0  0  0  0  0  0  0  0  0  0
  182.5120   22.6560   47.3530 O   0  0  0  0  0  0  0  0  0  0  0  0
  183.6850   23.2830   47.6870 C   0  0  0  0  0  0  0  0  0  0  0  0
  184.2580   24.1110   46.7220 C   0  0  0  0  0  0  0  0  0  0  0  0
  185.4540   24.7790   46.9980 C   0  0  0  0  0  0  0  0  0  0  0  0
  186.0760   24.6150   48.2370 C   0  0  0  0  0  0  0  0  0  0  0  0
  185.5020   23.7870   49.1980 C   0  0  0  0  0  0  0  0  0  0  0  0
  186.1650   23.6730   50.3900 O   0  0  0  0  0  0  0  0  0  0  0  0
  184.3050   23.1210   48.9220 C   0  0  0  0  0  0  0  0  0  0  0  0
  183.6690   22.2420   49.9040 C   0  0  0  0  0  0  0  0  0  0  0  0
  184.1590   22.0430   51.0140 O   0  0  0  0  0  0  0  0  0  0  0  0
  182.3980   21.5890   49.5160 C   0  0  0  0  0  0  0  0  0  0  0  0
  181.8120   20.7510   50.4470 O   0  0  0  0  0  0  0  0  0  0  0  0
  180.7010   20.1860   46.8550 C   0  0  0  0  0  0  0  0  0  0  0  0
  179.5280   19.6120   46.3600 C   0  0  0  0  0  0  0  0  0  0  0  0
  178.2740   20.0720   46.7800 C   0  0  0  0  0  0  0  0  0  0  0  0
  177.0260   19.4290   46.2360 C   0  0  0  0  0  0  0  0  0  0  0  0
  176.6281   23.1640   50.0236 H   0  0  0  0  0  0  0  0  0  0  0  0
  176.8754   24.7314   49.1817 H   0  0  0  0  0  0  0  0  0  0  0  0
  175.2542   23.9579   49.1817 H   0  0  0  0  0  0  0  0  0  0  0  0
  175.8675   23.1392   47.1545 H   0  0  0  0  0  0  0  0  0  0  0  0
  177.6225   23.4571   47.4708 H   0  0  0  0  0  0  0  0  0  0  0  0
  177.5847   20.7317   49.9389 H   0  0  0  0  0  0  0  0  0  0  0  0
  176.3502   22.0326   50.1102 H   0  0  0  0  0  0  0  0  0  0  0  0
  175.3103   19.8772   50.5948 H   0  0  0  0  0  0  0  0  0  0  0  0
  174.6678   20.5057   49.0395 H   0  0  0  0  0  0  0  0  0  0  0  0
  175.9039   19.2023   49.0395 H   0  0  0  0  0  0  0  0  0  0  0  0
  179.3324   22.5196   48.9239 H   0  0  0  0  0  0  0  0  0  0  0  0
  183.7691   24.2381   45.7448 H   0  0  0  0  0  0  0  0  0  0  0  0
  185.9055   25.4343   46.2386 H   0  0  0  0  0  0  0  0  0  0  0  0
  187.0184   25.1393   48.4538 H   0  0  0  0  0  0  0  0  0  0  0  0
  187.0650   23.4090   50.4030 H   0  0  0  0  0  0  0  0  0  0  0  0
  181.2610   21.1060   51.1160 H   0  0  0  0  0  0  0  0  0  0  0  0
  181.6772   19.8166   46.5076 H   0  0  0  0  0  0  0  0  0  0  0  0
  179.5899   18.7895   45.6322 H   0  0  0  0  0  0  0  0  0  0  0  0
  176.3890   19.1008   47.0706 H   0  0  0  0  0  0  0  0  0  0  0  0
  176.4773   20.1566   45.6200 H   0  0  0  0  0  0  0  0  0  0  0  0
  177.3000   18.5598   45.6200 H   0  0  0  0  0  0  0  0  0  0  0  0
  1  2  1  0
  2  3  1  0
  3  4  1  0
  4  5  1  0
  3  6  1  0
  6  7  2  0
  7  8  1  0
  8  9  1  0
  9 10  1  0
 10 11  1  0
 11 12  2  0
 12 13  1  0
 13 14  2  0
 14 15  1  0
 15 16  1  0
 15 17  2  0
 17 18  1  0
 18 19  2  0
 18 20  1  0
 20 21  1  0
  8 22  2  0
 22 23  1  0
 23 24  2  0
 24 25  1  0
 24  6  1  0
 20  9  2  0
 17 11  1  0
  1 26  1  0
  1 27  1  0
  1 28  1  0
  2 29  1  0
  2 30  1  0
  4 31  1  0
  4 32  1  0
  5 33  1  0
  5 34  1  0
  5 35  1  0
  7 36  1  0
 12 37  1  0
 13 38  1  0
 14 39  1  0
 16 40  1  0
 21 41  1  0
 22 42  1  0
 23 43  1  0
 25 44  1  0
 25 45  1  0
 25 46  1  0
M  END
>  <meeko>  (2) 
{"is_sidechain": [false], "free_energy": -6.893, "intermolecular_energy": -8.724, "internal_energy": -0.889}

$$$$
cand_054_out
     RDKit          3D

 46 48  0  0  0  0  0  0  0  0999 V2000
  184.5170   22.3090   49.5180 C   0  0  0  0  0  0  0  0  0  0  0  0
  183.2630   23.1730   49.5510 C   0  0  0  0  0  0  0  0  0  0  0  0
  182.6090   23.2260   48.2280 N   0  0  0  0  0  0  0  0  0  0  0  0
  182.4630   24.5840   47.6650 C   0  0  0  0  0  0  0  0  0  0  0  0
  183.6530   24.9120   46.7740 C   0  0  0  0  0  0  0  0  0  0  0  0
  181.3630   22.5460   48.1870 C   0  0  0  0  0  0  0  0  0  0  0  0
  180.2980   22.8870   49.0430 C   0  0  0  0  0  0  0  0  0  0  0  0
  179.0630   22.2250   48.9840 C   0  0  0  0  0  0  0  0  0  0  0  0
  177.9540   22.5670   49.9010 C   0  0  0  0  0  0  0  0  0  0  0  0
  176.9460   23.2940   49.2790 O   0  0  0  0  0  0  0  0  0  0  0  0
  175.8540   23.6780   50.0150 C   0  0  0  0  0  0  0  0  0  0  0  0
  174.8600   24.3930   49.3480 C   0  0  0  0  0  0  0  0  0  0  0  0
  173.7220   24.8150   50.0390 C   0  0  0  0  0  0  0  0  0  0  0  0
  173.5810   24.5230   51.3980 C   0  0  0  0  0  0  0  0  0  0  0  0
  174.5760   23.8090   52.0610 C   0  0  0  0  0  0  0  0  0  0  0  0
  174.3730   23.5580   53.3910 O   0  0  0  0  0  0  0  0  0  0  0  0
  175.7130   23.3860   51.3680 C   0  0  0  0  0  0  0  0  0  0  0  0
  176.7810   22.6340   52.0270 C   0  0  0  0  0  0  0  0  0  0  0  0
  176.7330   22.3440   53.2210 O   0  0  0  0  0  0  0  0  0  0  0  0
  177.9410   22.2250   51.2020 C   0  0  0  0  0  0  0  0  0  0  0  0
  178.9500   21.5250   51.8390 O   0  0  0  0  0  0  0  0  0  0  0  0
  178.9030   21.1920   48.0530 C   0  0  0  0  0  0  0  0  0  0  0  0
  179.9440   20.8460   47.1880 C   0  0  0  0  0  0  0  0  0  0  0  0
  181.1710   21.5180   47.2400 C   0  0  0  0  0  0  0  0  0  0  0  0
  182.2730   21.1290   46.2920 C   0  0  0  0  0  0  0  0  0  0  0  0
  184.8374   22.0883   50.5469 H   0  0  0  0  0  0  0  0  0  0  0  0
  184.3000   21.3678   48.9916 H   0  0  0  0  0  0  0  0  0  0  0  0
  185.3192   22.8470   48.9916 H   0  0  0  0  0  0  0  0  0  0  0  0
  182.5574   22.7516   50.2822 H   0  0  0  0  0  0  0  0  0  0  0  0
  183.5548   24.1952   49.8336 H   0  0  0  0  0  0  0  0  0  0  0  0
  181.5388   24.6339   47.0706 H   0  0  0  0  0  0  0  0  0  0  0  0
  182.4184   25.3121   48.4884 H   0  0  0  0  0  0  0  0  0  0  0  0
  184.5248   25.1523   47.4003 H   0  0  0  0  0  0  0  0  0  0  0  0
  183.8857   24.0445   46.1389 H   0  0  0  0  0  0  0  0  0  0  0  0
  183.4084   25.7762   46.1389 H   0  0  0  0  0  0  0  0  0  0  0  0
  180.4385   23.6939   49.7773 H   0  0  0  0  0  0  0  0  0  0  0  0
  174.9720   24.6245   48.2785 H   0  0  0  0  0  0  0  0  0  0  0  0
  172.9365   25.3775   49.5131 H   0  0  0  0  0  0  0  0  0  0  0  0
  172.6857   24.8564   51.9433 H   0  0  0  0  0  0  0  0  0  0  0  0
  175.0380   23.7740   54.0160 H   0  0  0  0  0  0  0  0  0  0  0  0
  178.9820   21.4970   52.7740 H   0  0  0  0  0  0  0  0  0  0  0  0
  177.9486   20.6475   48.0020 H   0  0  0  0  0  0  0  0  0  0  0  0
  179.7979   20.0364   46.4578 H   0  0  0  0  0  0  0  0  0  0  0  0
  183.1576   20.8167   46.8664 H   0  0  0  0  0  0  0  0  0  0  0  0
  181.9345   20.2960   45.6583 H   0  0  0  0  0  0  0  0  0  0  0  0
  182.5324   21.9899   45.6583 H   0  0  0  0  0  0  0  0  0  0  0  0
  1  2  1  0
  2  3  1  0
  3  4  1  0
  4  5  1  0
  3  6  1  0
  6  7  2  0
  7  8  1  0
  8  9  1  0
  9 10  1  0
 10 11  1  0
 11 12  2  0
 12 13  1  0
 13 14  2  0
 14 15  1  0
 15 16  1  0
 15 17  2  0
 17 18  1  0
 18 19  2  0
 18 20  1  0
 20 21  1  0
  8 22  2  0
 22 23  1  0
 23 24  2  0
 24 25  1  0
 24  6  1  0
 20  9  2  0
 17 11  1  0
  1 26  1  0
  1 27  1  0
  1 28  1  0
  2 29  1  0
  2 30  1  0
  4 31  1  0
  4 32  1  0
  5 33  1  0
  5 34  1  0
  5 35  1  0
  7 36  1  0
 12 37  1  0
 13 38  1  0
 14 39  1  0
 16 40  1  0
 21 41  1  0
 22 42  1  0
 23 43  1  0
 25 44  1  0
 25 45  1  0
 25 46  1  0
M  END
>  <meeko>  (3) 
{"is_sidechain": [false], "free_energy": -6.733, "intermolecular_energy": -8.509, "internal_energy": -0.897}

$$$$
cand_054_out
     RDKit          3D

 46 48  0  0  0  0  0  0  0  0999 V2000
  183.6780   25.3580   51.9580 C   0  0  0  0  0  0  0  0  0  0  0  0
  182.7870   26.0180   50.9150 C   0  0  0  0  0  0  0  0  0  0  0  0
  183.0770   25.5130   49.5580 N   0  0  0  0  0  0  0  0  0  0  0  0
  182.5450   26.3470   48.4620 C   0  0  0  0  0  0  0  0  0  0  0  0
  181.9450   27.6290   49.0220 C   0  0  0  0  0  0  0  0  0  0  0  0
  182.6980   24.1570   49.3670 C   0  0  0  0  0  0  0  0  0  0  0  0
  181.3630   23.7300   49.5000 C   0  0  0  0  0  0  0  0  0  0  0  0
  180.9920   22.3940   49.2900 C   0  0  0  0  0  0  0  0  0  0  0  0
  179.5940   21.9410   49.4550 C   0  0  0  0  0  0  0  0  0  0  0  0
  178.9320   21.7830   48.2430 O   0  0  0  0  0  0  0  0  0  0  0  0
  177.6260   21.3660   48.2490 C   0  0  0  0  0  0  0  0  0  0  0  0
  177.0060   21.2070   47.0100 C   0  0  0  0  0  0  0  0  0  0  0  0
  175.6750   20.7860   46.9470 C   0  0  0  0  0  0  0  0  0  0  0  0
  174.9660   20.5260   48.1220 C   0  0  0  0  0  0  0  0  0  0  0  0
  175.5880   20.6870   49.3570 C   0  0  0  0  0  0  0  0  0  0  0  0
  174.8360   20.4160   50.4670 O   0  0  0  0  0  0  0  0  0  0  0  0
  176.9200   21.1070   49.4200 C   0  0  0  0  0  0  0  0  0  0  0  0
  177.6110   21.2880   50.6970 C   0  0  0  0  0  0  0  0  0  0  0  0
  177.0530   21.0860   51.7740 O   0  0  0  0  0  0  0  0  0  0  0  0
  179.0240   21.7280   50.6550 C   0  0  0  0  0  0  0  0  0  0  0  0
  179.6630   21.9080   51.8690 O   0  0  0  0  0  0  0  0  0  0  0  0
  181.9880   21.4700   48.9520 C   0  0  0  0  0  0  0  0  0  0  0  0
  183.3160   21.8760   48.8050 C   0  0  0  0  0  0  0  0  0  0  0  0
  183.6810   23.2140   49.0030 C   0  0  0  0  0  0  0  0  0  0  0  0
  185.1180   23.6250   48.8310 C   0  0  0  0  0  0  0  0  0  0  0  0
  183.3216   25.6220   52.9646 H   0  0  0  0  0  0  0  0  0  0  0  0
  183.6435   24.2658   51.8315 H   0  0  0  0  0  0  0  0  0  0  0  0
  184.7127   25.7093   51.8315 H   0  0  0  0  0  0  0  0  0  0  0  0
  181.7352   25.8065   51.1579 H   0  0  0  0  0  0  0  0  0  0  0  0
  182.9821   27.1005   50.9295 H   0  0  0  0  0  0  0  0  0  0  0  0
  183.3608   26.5999   47.7688 H   0  0  0  0  0  0  0  0  0  0  0  0
  181.7620   25.7858   47.9310 H   0  0  0  0  0  0  0  0  0  0  0  0
  181.9622   27.5922   50.1213 H   0  0  0  0  0  0  0  0  0  0  0  0
  182.5331   28.4913   48.6747 H   0  0  0  0  0  0  0  0  0  0  0  0
  180.9062   27.7299   48.6747 H   0  0  0  0  0  0  0  0  0  0  0  0
  180.5909   24.4634   49.7758 H   0  0  0  0  0  0  0  0  0  0  0  0
  177.5635   21.4125   46.0843 H   0  0  0  0  0  0  0  0  0  0  0  0
  175.1848   20.6592   45.9704 H   0  0  0  0  0  0  0  0  0  0  0  0
  173.9183   20.1947   48.0716 H   0  0  0  0  0  0  0  0  0  0  0  0
  173.9620   20.0890   50.3730 H   0  0  0  0  0  0  0  0  0  0  0  0
  180.2010   22.6620   52.0080 H   0  0  0  0  0  0  0  0  0  0  0  0
  181.7218   20.4135   48.8007 H   0  0  0  0  0  0  0  0  0  0  0  0
  184.0837   21.1374   48.5308 H   0  0  0  0  0  0  0  0  0  0  0  0
  185.5822   23.7578   49.8194 H   0  0  0  0  0  0  0  0  0  0  0  0
  185.6582   22.8453   48.2739 H   0  0  0  0  0  0  0  0  0  0  0  0
  185.1642   24.5724   48.2739 H   0  0  0  0  0  0  0  0  0  0  0  0
  1  2  1  0
  2  3  1  0
  3  4  1  0
  4  5  1  0
  3  6  1  0
  6  7  2  0
  7  8  1  0
  8  9  1  0
  9 10  1  0
 10 11  1  0
 11 12  2  0
 12 13  1  0
 13 14  2  0
 14 15  1  0
 15 16  1  0
 15 17  2  0
 17 18  1  0
 18 19  2  0
 18 20  1  0
 20 21  1  0
  8 22  2  0
 22 23  1  0
 23 24  2  0
 24 25  1  0
 24  6  1  0
 20  9  2  0
 17 11  1  0
  1 26  1  0
  1 27  1  0
  1 28  1  0
  2 29  1  0
  2 30  1  0
  4 31  1  0
  4 32  1  0
  5 33  1  0
  5 34  1  0
  5 35  1  0
  7 36  1  0
 12 37  1  0
 13 38  1  0
 14 39  1  0
 16 40  1  0
 21 41  1  0
 22 42  1  0
 23 43  1  0
 25 44  1  0
 25 45  1  0
 25 46  1  0
M  END
>  <meeko>  (4) 
{"is_sidechain": [false], "free_energy": -6.659, "intermolecular_energy": -8.374, "internal_energy": -0.936}

$$$$
cand_054_out
     RDKit          3D

 46 48  0  0  0  0  0  0  0  0999 V2000
  180.4040   20.7050   47.6920 C   0  0  0  0  0  0  0  0  0  0  0  0
  179.5240   21.7000   48.4370 C   0  0  0  0  0  0  0  0  0  0  0  0
  178.5240   22.3150   47.5400 N   0  0  0  0  0  0  0  0  0  0  0  0
  178.6360   23.7810   47.4030 C   0  0  0  0  0  0  0  0  0  0  0  0
  179.7240   24.3130   48.3260 C   0  0  0  0  0  0  0  0  0  0  0  0
  177.1870   21.9550   47.8550 C   0  0  0  0  0  0  0  0  0  0  0  0
  176.4950   22.5340   48.9360 C   0  0  0  0  0  0  0  0  0  0  0  0
  175.1670   22.1890   49.2300 C   0  0  0  0  0  0  0  0  0  0  0  0
  174.4490   22.7780   50.3800 C   0  0  0  0  0  0  0  0  0  0  0  0
  175.2780   23.0080   51.4730 O   0  0  0  0  0  0  0  0  0  0  0  0
  174.7400   23.5530   52.6100 C   0  0  0  0  0  0  0  0  0  0  0  0
  175.6110   23.7800   53.6760 C   0  0  0  0  0  0  0  0  0  0  0  0
  175.1270   24.3320   54.8650 C   0  0  0  0  0  0  0  0  0  0  0  0
  173.7730   24.6530   54.9870 C   0  0  0  0  0  0  0  0  0  0  0  0
  172.9070   24.4250   53.9220 C   0  0  0  0  0  0  0  0  0  0  0  0
  171.5950   24.7630   54.1090 O   0  0  0  0  0  0  0  0  0  0  0  0
  173.3920   23.8740   52.7320 C   0  0  0  0  0  0  0  0  0  0  0  0
  172.5160   23.6180   51.5890 C   0  0  0  0  0  0  0  0  0  0  0  0
  171.3120   23.8690   51.6210 O   0  0  0  0  0  0  0  0  0  0  0  0
  173.1290   23.0400   50.3720 C   0  0  0  0  0  0  0  0  0  0  0  0
  172.2880   22.7900   49.3020 O   0  0  0  0  0  0  0  0  0  0  0  0
  174.5310   21.2350   48.4270 C   0  0  0  0  0  0  0  0  0  0  0  0
  175.1980   20.6580   47.3440 C   0  0  0  0  0  0  0  0  0  0  0  0
  176.5190   21.0140   47.0450 C   0  0  0  0  0  0  0  0  0  0  0  0
  177.2110   20.3820   45.8670 C   0  0  0  0  0  0  0  0  0  0  0  0
  180.9520   20.0854   48.4172 H   0  0  0  0  0  0  0  0  0  0  0  0
  179.7751   20.0604   47.0604 H   0  0  0  0  0  0  0  0  0  0  0  0
  181.1206   21.2505   47.0604 H   0  0  0  0  0  0  0  0  0  0  0  0
  179.0005   21.1756   49.2500 H   0  0  0  0  0  0  0  0  0  0  0  0
  180.1669   22.4982   48.8365 H   0  0  0  0  0  0  0  0  0  0  0  0
  178.8885   24.0305   46.3619 H   0  0  0  0  0  0  0  0  0  0  0  0
  177.6755   24.2419   47.6769 H   0  0  0  0  0  0  0  0  0  0  0  0
  179.4212   24.1650   49.3731 H   0  0  0  0  0  0  0  0  0  0  0  0
  180.6629   23.7723   48.1358 H   0  0  0  0  0  0  0  0  0  0  0  0
  179.8738   25.3860   48.1358 H   0  0  0  0  0  0  0  0  0  0  0  0
  177.0083   23.2754   49.5659 H   0  0  0  0  0  0  0  0  0  0  0  0
  176.6768   23.5249   53.5807 H   0  0  0  0  0  0  0  0  0  0  0  0
  175.8128   24.5139   55.7056 H   0  0  0  0  0  0  0  0  0  0  0  0
  173.3918   25.0855   55.9238 H   0  0  0  0  0  0  0  0  0  0  0  0
  171.1790   25.3690   53.5270 H   0  0  0  0  0  0  0  0  0  0  0  0
  171.3920   22.5640   49.4530 H   0  0  0  0  0  0  0  0  0  0  0  0
  173.4961   20.9369   48.6510 H   0  0  0  0  0  0  0  0  0  0  0  0
  174.6800   19.9157   46.7190 H   0  0  0  0  0  0  0  0  0  0  0  0
  177.9788   19.6807   46.2257 H   0  0  0  0  0  0  0  0  0  0  0  0
  176.4742   19.8385   45.2572 H   0  0  0  0  0  0  0  0  0  0  0  0
  177.6856   21.1649   45.2572 H   0  0  0  0  0  0  0  0  0  0  0  0
  1  2  1  0
  2  3  1  0
  3  4  1  0
  4  5  1  0
  3  6  1  0
  6  7  2  0
  7  8  1  0
  8  9  1  0
  9 10  1  0
 10 11  1  0
 11 12  2  0
 12 13  1  0
 13 14  2  0
 14 15  1  0
 15 16  1  0
 15 17  2  0
 17 18  1  0
 18 19  2  0
 18 20  1  0
 20 21  1  0
  8 22  2  0
 22 23  1  0
 23 24  2  0
 24 25  1  0
 24  6  1  0
 20  9  2  0
 17 11  1  0
  1 26  1  0
  1 27  1  0
  1 28  1  0
  2 29  1  0
  2 30  1  0
  4 31  1  0
  4 32  1  0
  5 33  1  0
  5 34  1  0
  5 35  1  0
  7 36  1  0
 12 37  1  0
 13 38  1  0
 14 39  1  0
 16 40  1  0
 21 41  1  0
 22 42  1  0
 23 43  1  0
 25 44  1  0
 25 45  1  0
 25 46  1  0
M  END
>  <meeko>  (5) 
{"is_sidechain": [false], "free_energy": -6.643, "intermolecular_energy": -8.864, "internal_energy": -0.426}

$$$$
cand_054_out
     RDKit          3D

 46 48  0  0  0  0  0  0  0  0999 V2000
  172.0250   24.2320   48.9280 C   0  0  0  0  0  0  0  0  0  0  0  0
  172.9420   23.3720   49.7880 C   0  0  0  0  0  0  0  0  0  0  0  0
  174.0440   24.1670   50.3670 N   0  0  0  0  0  0  0  0  0  0  0  0
  174.4090   25.3710   49.5940 C   0  0  0  0  0  0  0  0  0  0  0  0
  174.7970   26.5020   50.5370 C   0  0  0  0  0  0  0  0  0  0  0  0
  175.2040   23.3990   50.6520 C   0  0  0  0  0  0  0  0  0  0  0  0
  176.0040   22.8510   49.6310 C   0  0  0  0  0  0  0  0  0  0  0  0
  177.1600   22.1100   49.9180 C   0  0  0  0  0  0  0  0  0  0  0  0
  177.9850   21.5130   48.8470 C   0  0  0  0  0  0  0  0  0  0  0  0
  179.2560   22.0710   48.7700 O   0  0  0  0  0  0  0  0  0  0  0  0
  180.1280   21.6080   47.8180 C   0  0  0  0  0  0  0  0  0  0  0  0
  181.3970   22.1870   47.7870 C   0  0  0  0  0  0  0  0  0  0  0  0
  182.3330   21.7620   46.8410 C   0  0  0  0  0  0  0  0  0  0  0  0
  181.9980   20.7610   45.9260 C   0  0  0  0  0  0  0  0  0  0  0  0
  180.7310   20.1860   45.9600 C   0  0  0  0  0  0  0  0  0  0  0  0
  180.4700   19.2110   45.0360 O   0  0  0  0  0  0  0  0  0  0  0  0
  179.7950   20.6110   46.9080 C   0  0  0  0  0  0  0  0  0  0  0  0
  178.4530   20.0330   46.9770 C   0  0  0  0  0  0  0  0  0  0  0  0
  178.0810   19.1520   46.2030 O   0  0  0  0  0  0  0  0  0  0  0  0
  177.5390   20.5460   48.0230 C   0  0  0  0  0  0  0  0  0  0  0  0
  176.2690   20.0020   48.0710 O   0  0  0  0  0  0  0  0  0  0  0  0
  177.5090   21.9100   51.2590 C   0  0  0  0  0  0  0  0  0  0  0  0
  176.7340   22.4550   52.2860 C   0  0  0  0  0  0  0  0  0  0  0  0
  175.5870   23.2050   51.9950 C   0  0  0  0  0  0  0  0  0  0  0  0
  174.7750   23.7870   53.1200 C   0  0  0  0  0  0  0  0  0  0  0  0
  171.3771   24.8396   49.5770 H   0  0  0  0  0  0  0  0  0  0  0  0
  172.6322   24.8939   48.2930 H   0  0  0  0  0  0  0  0  0  0  0  0
  171.4034   23.5836   48.2930 H   0  0  0  0  0  0  0  0  0  0  0  0
  172.3537   22.9285   50.6048 H   0  0  0  0  0  0  0  0  0  0  0  0
  173.3791   22.5894   49.1505 H   0  0  0  0  0  0  0  0  0  0  0  0
  175.2598   25.1373   48.9371 H   0  0  0  0  0  0  0  0  0  0  0  0
  173.5451   25.6864   48.9906 H   0  0  0  0  0  0  0  0  0  0  0  0
  174.6820   26.1669   51.5784 H   0  0  0  0  0  0  0  0  0  0  0  0
  175.8442   26.7866   50.3569 H   0  0  0  0  0  0  0  0  0  0  0  0
  174.1451   27.3695   50.3569 H   0  0  0  0  0  0  0  0  0  0  0  0
  175.7150   23.0080   48.5813 H   0  0  0  0  0  0  0  0  0  0  0  0
  181.6600   22.9767   48.5061 H   0  0  0  0  0  0  0  0  0  0  0  0
  183.3346   22.2160   46.8166 H   0  0  0  0  0  0  0  0  0  0  0  0
  182.7344   20.4278   45.1799 H   0  0  0  0  0  0  0  0  0  0  0  0
  180.6780   19.3530   44.1320 H   0  0  0  0  0  0  0  0  0  0  0  0
  175.5210   20.5420   47.9120 H   0  0  0  0  0  0  0  0  0  0  0  0
  178.4023   21.3178   51.5066 H   0  0  0  0  0  0  0  0  0  0  0  0
  177.0275   22.2935   53.3338 H   0  0  0  0  0  0  0  0  0  0  0  0
  175.2074   23.4771   54.0828 H   0  0  0  0  0  0  0  0  0  0  0  0
  174.7852   24.8847   53.0498 H   0  0  0  0  0  0  0  0  0  0  0  0
  173.7387   23.4247   53.0498 H   0  0  0  0  0  0  0  0  0  0  0  0
  1  2  1  0
  2  3  1  0
  3  4  1  0
  4  5  1  0
  3  6  1  0
  6  7  2  0
  7  8  1  0
  8  9  1  0
  9 10  1  0
 10 11  1  0
 11 12  2  0
 12 13  1  0
 13 14  2  0
 14 15  1  0
 15 16  1  0
 15 17  2  0
 17 18  1  0
 18 19  2  0
 18 20  1  0
 20 21  1  0
  8 22  2  0
 22 23  1  0
 23 24  2  0
 24 25  1  0
 24  6  1  0
 20  9  2  0
 17 11  1  0
  1 26  1  0
  1 27  1  0
  1 28  1  0
  2 29  1  0
  2 30  1  0
  4 31  1  0
  4 32  1  0
  5 33  1  0
  5 34  1  0
  5 35  1  0
  7 36  1  0
 12 37  1  0
 13 38  1  0
 14 39  1  0
 16 40  1  0
 21 41  1  0
 22 42  1  0
 23 43  1  0
 25 44  1  0
 25 45  1  0
 25 46  1  0
M  END
>  <meeko>  (6) 
{"is_sidechain": [false], "free_energy": -6.635, "intermolecular_energy": -8.449, "internal_energy": -0.83}

$$$$
cand_054_out
     RDKit          3D

 46 48  0  0  0  0  0  0  0  0999 V2000
  173.3200   28.3020   49.9540 C   0  0  0  0  0  0  0  0  0  0  0  0
  174.4160   27.3010   50.2950 C   0  0  0  0  0  0  0  0  0  0  0  0
  173.8690   26.1170   50.9880 N   0  0  0  0  0  0  0  0  0  0  0  0
  174.1290   26.0780   52.4420 C   0  0  0  0  0  0  0  0  0  0  0  0
  172.9240   25.5030   53.1740 C   0  0  0  0  0  0  0  0  0  0  0  0
  174.2530   24.8860   50.3910 C   0  0  0  0  0  0  0  0  0  0  0  0
  175.5780   24.4130   50.4450 C   0  0  0  0  0  0  0  0  0  0  0  0
  175.9460   23.1880   49.8710 C   0  0  0  0  0  0  0  0  0  0  0  0
  177.3430   22.7030   49.9040 C   0  0  0  0  0  0  0  0  0  0  0  0
  177.7250   22.0780   48.7230 O   0  0  0  0  0  0  0  0  0  0  0  0
  178.9990   21.5810   48.6170 C   0  0  0  0  0  0  0  0  0  0  0  0
  179.3440   20.9750   47.4090 C   0  0  0  0  0  0  0  0  0  0  0  0
  180.6260   20.4460   47.2360 C   0  0  0  0  0  0  0  0  0  0  0  0
  181.5590   20.5220   48.2730 C   0  0  0  0  0  0  0  0  0  0  0  0
  181.2110   21.1260   49.4770 C   0  0  0  0  0  0  0  0  0  0  0  0
  182.1730   21.1660   50.4490 O   0  0  0  0  0  0  0  0  0  0  0  0
  179.9290   21.6570   49.6490 C   0  0  0  0  0  0  0  0  0  0  0  0
  179.5230   22.3010   50.8980 C   0  0  0  0  0  0  0  0  0  0  0  0
  180.2860   22.4000   51.8580 O   0  0  0  0  0  0  0  0  0  0  0  0
  178.1450   22.8370   50.9760 C   0  0  0  0  0  0  0  0  0  0  0  0
  177.7690   23.4320   52.1670 O   0  0  0  0  0  0  0  0  0  0  0  0
  174.9630   22.4320   49.2210 C   0  0  0  0  0  0  0  0  0  0  0  0
  173.6410   22.8800   49.1670 C   0  0  0  0  0  0  0  0  0  0  0  0
  173.2740   24.0980   49.7520 C   0  0  0  0  0  0  0  0  0  0  0  0
  171.8410   24.5520   49.6850 C   0  0  0  0  0  0  0  0  0  0  0  0
  172.8847   28.6996   50.8827 H   0  0  0  0  0  0  0  0  0  0  0  0
  173.7476   29.1279   49.3665 H   0  0  0  0  0  0  0  0  0  0  0  0
  172.5362   27.8015   49.3665 H   0  0  0  0  0  0  0  0  0  0  0  0
  174.9061   26.9766   49.3652 H   0  0  0  0  0  0  0  0  0  0  0  0
  175.1364   27.7921   50.9657 H   0  0  0  0  0  0  0  0  0  0  0  0
  175.0085   25.4470   52.6375 H   0  0  0  0  0  0  0  0  0  0  0  0
  174.3145   27.1007   52.8020 H   0  0  0  0  0  0  0  0  0  0  0  0
  173.0838   25.5793   54.2597 H   0  0  0  0  0  0  0  0  0  0  0  0
  172.0220   26.0678   52.8956 H   0  0  0  0  0  0  0  0  0  0  0  0
  172.7956   24.4466   52.8956 H   0  0  0  0  0  0  0  0  0  0  0  0
  176.3438   25.0199   50.9503 H   0  0  0  0  0  0  0  0  0  0  0  0
  178.6081   20.9135   46.5937 H   0  0  0  0  0  0  0  0  0  0  0  0
  180.9004   19.9697   46.2832 H   0  0  0  0  0  0  0  0  0  0  0  0
  182.5678   20.1047   48.1377 H   0  0  0  0  0  0  0  0  0  0  0  0
  183.0180   20.7930   50.2880 H   0  0  0  0  0  0  0  0  0  0  0  0
  178.1620   24.2390   52.4330 H   0  0  0  0  0  0  0  0  0  0  0  0
  175.2342   21.4764   48.7485 H   0  0  0  0  0  0  0  0  0  0  0  0
  172.8800   22.2692   48.6593 H   0  0  0  0  0  0  0  0  0  0  0  0
  171.4478   24.6766   50.7047 H   0  0  0  0  0  0  0  0  0  0  0  0
  171.7851   25.5119   49.1506 H   0  0  0  0  0  0  0  0  0  0  0  0
  171.2426   23.7995   49.1506 H   0  0  0  0  0  0  0  0  0  0  0  0
  1  2  1  0
  2  3  1  0
  3  4  1  0
  4  5  1  0
  3  6  1  0
  6  7  2  0
  7  8  1  0
  8  9  1  0
  9 10  1  0
 10 11  1  0
 11 12  2  0
 12 13  1  0
 13 14  2  0
 14 15  1  0
 15 16  1  0
 15 17  2  0
 17 18  1  0
 18 19  2  0
 18 20  1  0
 20 21  1  0
  8 22  2  0
 22 23  1  0
 23 24  2  0
 24 25  1  0
 24  6  1  0
 20  9  2  0
 17 11  1  0
  1 26  1  0
  1 27  1  0
  1 28  1  0
  2 29  1  0
  2 30  1  0
  4 31  1  0
  4 32  1  0
  5 33  1  0
  5 34  1  0
  5 35  1  0
  7 36  1  0
 12 37  1  0
 13 38  1  0
 14 39  1  0
 16 40  1  0
 21 41  1  0
 22 42  1  0
 23 43  1  0
 25 44  1  0
 25 45  1  0
 25 46  1  0
M  END
>  <meeko>  (7) 
{"is_sidechain": [false], "free_energy": -6.627, "intermolecular_energy": -8.647, "internal_energy": -0.622}

$$$$
cand_054_out
     RDKit          3D

 46 48  0  0  0  0  0  0  0  0999 V2000
  170.9200   23.3190   53.6120 C   0  0  0  0  0  0  0  0  0  0  0  0
  171.5290   23.7050   52.2710 C   0  0  0  0  0  0  0  0  0  0  0  0
  172.6040   24.7050   52.4320 N   0  0  0  0  0  0  0  0  0  0  0  0
  172.5130   25.8620   51.5180 C   0  0  0  0  0  0  0  0  0  0  0  0
  171.4010   25.6420   50.5020 C   0  0  0  0  0  0  0  0  0  0  0  0
  173.9080   24.1440   52.3810 C   0  0  0  0  0  0  0  0  0  0  0  0
  174.4420   23.6060   51.1950 C   0  0  0  0  0  0  0  0  0  0  0  0
  175.7380   23.0720   51.1470 C   0  0  0  0  0  0  0  0  0  0  0  0
  176.2900   22.4830   49.9080 C   0  0  0  0  0  0  0  0  0  0  0  0
  175.7670   21.2250   49.6300 O   0  0  0  0  0  0  0  0  0  0  0  0
  176.1920   20.5630   48.5070 C   0  0  0  0  0  0  0  0  0  0  0  0
  175.6310   19.3100   48.2600 C   0  0  0  0  0  0  0  0  0  0  0  0
  176.0210   18.5820   47.1330 C   0  0  0  0  0  0  0  0  0  0  0  0
  176.9740   19.1060   46.2570 C   0  0  0  0  0  0  0  0  0  0  0  0
  177.5330   20.3560   46.5070 C   0  0  0  0  0  0  0  0  0  0  0  0
  178.4600   20.8100   45.6090 O   0  0  0  0  0  0  0  0  0  0  0  0
  177.1410   21.0850   47.6340 C   0  0  0  0  0  0  0  0  0  0  0  0
  177.7030   22.4020   47.9330 C   0  0  0  0  0  0  0  0  0  0  0  0
  178.5510   22.9280   47.2130 O   0  0  0  0  0  0  0  0  0  0  0  0
  177.2150   23.0960   49.1470 C   0  0  0  0  0  0  0  0  0  0  0  0
  177.7630   24.3350   49.4260 O   0  0  0  0  0  0  0  0  0  0  0  0
  176.5040   23.0710   52.3180 C   0  0  0  0  0  0  0  0  0  0  0  0
  175.9960   23.6100   53.5020 C   0  0  0  0  0  0  0  0  0  0  0  0
  174.7060   24.1540   53.5440 C   0  0  0  0  0  0  0  0  0  0  0  0
  174.1860   24.7360   54.8310 C   0  0  0  0  0  0  0  0  0  0  0  0
  171.5448   23.7150   54.4261 H   0  0  0  0  0  0  0  0  0  0  0  0
  169.9068   23.7401   53.6894 H   0  0  0  0  0  0  0  0  0  0  0  0
  170.8684   22.2229   53.6894 H   0  0  0  0  0  0  0  0  0  0  0  0
  171.9464   22.8050   51.7958 H   0  0  0  0  0  0  0  0  0  0  0  0
  170.7379   24.1464   51.6471 H   0  0  0  0  0  0  0  0  0  0  0  0
  172.2984   26.7698   52.1010 H   0  0  0  0  0  0  0  0  0  0  0  0
  173.4689   25.9754   50.9856 H   0  0  0  0  0  0  0  0  0  0  0  0
  170.4541   25.4547   51.0296 H   0  0  0  0  0  0  0  0  0  0  0  0
  171.2984   26.5372   49.8711 H   0  0  0  0  0  0  0  0  0  0  0  0
  171.6470   24.7751   49.8711 H   0  0  0  0  0  0  0  0  0  0  0  0
  173.8273   23.6043   50.2828 H   0  0  0  0  0  0  0  0  0  0  0  0
  174.8826   18.8956   48.9515 H   0  0  0  0  0  0  0  0  0  0  0  0
  175.5769   17.5952   46.9356 H   0  0  0  0  0  0  0  0  0  0  0  0
  177.2824   18.5319   45.3709 H   0  0  0  0  0  0  0  0  0  0  0  0
  178.1900   21.0780   44.7510 H   0  0  0  0  0  0  0  0  0  0  0  0
  177.2900   24.9490   49.9520 H   0  0  0  0  0  0  0  0  0  0  0  0
  177.5165   22.6413   52.3059 H   0  0  0  0  0  0  0  0  0  0  0  0
  176.6154   23.6073   54.4110 H   0  0  0  0  0  0  0  0  0  0  0  0
  174.6502   24.2165   55.6823 H   0  0  0  0  0  0  0  0  0  0  0  0
  174.4337   25.8068   54.8756 H   0  0  0  0  0  0  0  0  0  0  0  0
  173.0942   24.6100   54.8756 H   0  0  0  0  0  0  0  0  0  0  0  0
  1  2  1  0
  2  3  1  0
  3  4  1  0
  4  5  1  0
  3  6  1  0
  6  7  2  0
  7  8  1  0
  8  9  1  0
  9 10  1  0
 10 11  1  0
 11 12  2  0
 12 13  1  0
 13 14  2  0
 14 15  1  0
 15 16  1  0
 15 17  2  0
 17 18  1  0
 18 19  2  0
 18 20  1  0
 20 21  1  0
  8 22  2  0
 22 23  1  0
 23 24  2  0
 24 25  1  0
 24  6  1  0
 20  9  2  0
 17 11  1  0
  1 26  1  0
  1 27  1  0
  1 28  1  0
  2 29  1  0
  2 30  1  0
  4 31  1  0
  4 32  1  0
  5 33  1  0
  5 34  1  0
  5 35  1  0
  7 36  1  0
 12 37  1  0
 13 38  1  0
 14 39  1  0
 16 40  1  0
 21 41  1  0
 22 42  1  0
 23 43  1  0
 25 44  1  0
 25 45  1  0
 25 46  1  0
M  END
>  <meeko>  (8) 
{"is_sidechain": [false], "free_energy": -6.559, "intermolecular_energy": -8.274, "internal_energy": -0.906}

$$$$
cand_054_out
     RDKit          3D

 46 48  0  0  0  0  0  0  0  0999 V2000
  175.5120   19.9940   49.0670 C   0  0  0  0  0  0  0  0  0  0  0  0
  175.6260   21.3540   48.3920 C   0  0  0  0  0  0  0  0  0  0  0  0
  176.1160   22.3840   49.3310 N   0  0  0  0  0  0  0  0  0  0  0  0
  175.8920   23.7760   48.8920 C   0  0  0  0  0  0  0  0  0  0  0  0
  174.7760   24.4110   49.7100 C   0  0  0  0  0  0  0  0  0  0  0  0
  177.4740   22.2040   49.7080 C   0  0  0  0  0  0  0  0  0  0  0  0
  178.5190   22.2380   48.7650 C   0  0  0  0  0  0  0  0  0  0  0  0
  179.8600   22.0800   49.1470 C   0  0  0  0  0  0  0  0  0  0  0  0
  180.9560   22.0890   48.1540 C   0  0  0  0  0  0  0  0  0  0  0  0
  181.7260   23.2450   48.2110 O   0  0  0  0  0  0  0  0  0  0  0  0
  182.7780   23.3850   47.3440 C   0  0  0  0  0  0  0  0  0  0  0  0
  183.5330   24.5540   47.4470 C   0  0  0  0  0  0  0  0  0  0  0  0
  184.6190   24.7600   46.5920 C   0  0  0  0  0  0  0  0  0  0  0  0
  184.9470   23.7980   45.6340 C   0  0  0  0  0  0  0  0  0  0  0  0
  184.1920   22.6330   45.5340 C   0  0  0  0  0  0  0  0  0  0  0  0
  184.5690   21.7330   44.5740 O   0  0  0  0  0  0  0  0  0  0  0  0
  183.1070   22.4270   46.3910 C   0  0  0  0  0  0  0  0  0  0  0  0
  182.2880   21.2160   46.3180 C   0  0  0  0  0  0  0  0  0  0  0  0
  182.5090   20.3270   45.4980 O   0  0  0  0  0  0  0  0  0  0  0  0
  181.1650   21.0910   47.2760 C   0  0  0  0  0  0  0  0  0  0  0  0
  180.3900   19.9480   47.1900 O   0  0  0  0  0  0  0  0  0  0  0  0
  180.1500   21.8720   50.5000 C   0  0  0  0  0  0  0  0  0  0  0  0
  179.1270   21.8460   51.4510 C   0  0  0  0  0  0  0  0  0  0  0  0
  177.7900   22.0180   51.0690 C   0  0  0  0  0  0  0  0  0  0  0  0
  176.7090   21.9930   52.1160 C   0  0  0  0  0  0  0  0  0  0  0  0
  175.5229   20.1247   50.1592 H   0  0  0  0  0  0  0  0  0  0  0  0
  174.5703   19.5124   48.7648 H   0  0  0  0  0  0  0  0  0  0  0  0
  176.3603   19.3624   48.7648 H   0  0  0  0  0  0  0  0  0  0  0  0
  176.3273   21.2767   47.5481 H   0  0  0  0  0  0  0  0  0  0  0  0
  174.6261   21.6517   48.0435 H   0  0  0  0  0  0  0  0  0  0  0  0
  176.8177   24.3540   49.0296 H   0  0  0  0  0  0  0  0  0  0  0  0
  175.6041   23.7761   47.8303 H   0  0  0  0  0  0  0  0  0  0  0  0
  174.9915   24.2884   50.7817 H   0  0  0  0  0  0  0  0  0  0  0  0
  174.7092   25.4823   49.4697 H   0  0  0  0  0  0  0  0  0  0  0  0
  173.8209   23.9211   49.4697 H   0  0  0  0  0  0  0  0  0  0  0  0
  178.2783   22.3922   47.7028 H   0  0  0  0  0  0  0  0  0  0  0  0
  183.2736   25.3125   48.2003 H   0  0  0  0  0  0  0  0  0  0  0  0
  185.2159   25.6804   46.6735 H   0  0  0  0  0  0  0  0  0  0  0  0
  185.8007   23.9608   44.9596 H   0  0  0  0  0  0  0  0  0  0  0  0
  183.9320   21.1590   44.1930 H   0  0  0  0  0  0  0  0  0  0  0  0
  179.8230   19.7120   47.8960 H   0  0  0  0  0  0  0  0  0  0  0  0
  181.1932   21.7276   50.8178 H   0  0  0  0  0  0  0  0  0  0  0  0
  179.3739   21.6888   52.5113 H   0  0  0  0  0  0  0  0  0  0  0  0
  177.1669   22.0036   53.1161 H   0  0  0  0  0  0  0  0  0  0  0  0
  176.0643   22.8765   51.9985 H   0  0  0  0  0  0  0  0  0  0  0  0
  176.1058   21.0807   51.9985 H   0  0  0  0  0  0  0  0  0  0  0  0
  1  2  1  0
  2  3  1  0
  3  4  1  0
  4  5  1  0
  3  6  1  0
  6  7  2  0
  7  8  1  0
  8  9  1  0
  9 10  1  0
 10 11  1  0
 11 12  2  0
 12 13  1  0
 13 14  2  0
 14 15  1  0
 15 16  1  0
 15 17  2  0
 17 18  1  0
 18 19  2  0
 18 20  1  0
 20 21  1  0
  8 22  2  0
 22 23  1  0
 23 24  2  0
 24 25  1  0
 24  6  1  0
 20  9  2  0
 17 11  1  0
  1 26  1  0
  1 27  1  0
  1 28  1  0
  2 29  1  0
  2 30  1  0
  4 31  1  0
  4 32  1  0
  5 33  1  0
  5 34  1  0
  5 35  1  0
  7 36  1  0
 12 37  1  0
 13 38  1  0
 14 39  1  0
 16 40  1  0
 21 41  1  0
 22 42  1  0
 23 43  1  0
 25 44  1  0
 25 45  1  0
 25 46  1  0
M  END
>  <meeko>  (9) 
{"is_sidechain": [false], "free_energy": -6.481, "intermolecular_energy": -8.147, "internal_energy": -0.933}

$$$$
