cand_017_out
     RDKit          3D

 38 40  0  0  0  0  0  0  0  0999 V2000
  178.6040   13.9700   44.0750 C   0  0  0  0  0  0  0  0  0  0  0  0
  179.7240   14.3780   45.0220 C   0  0  0  0  0  0  0  0  0  0  0  0
  180.2420   15.7670   44.7210 C   0  0  0  0  0  0  0  0  0  0  0  0
  179.7720   16.8360   45.5120 C   0  0  0  0  0  0  0  0  0  0  0  0
  180.2050   18.1530   45.3050 C   0  0  0  0  0  0  0  0  0  0  0  0
  179.7300   19.2700   46.1500 C   0  0  0  0  0  0  0  0  0  0  0  0
  178.3440   19.3440   46.2170 O   0  0  0  0  0  0  0  0  0  0  0  0
  177.7690   20.3360   46.9700 C   0  0  0  0  0  0  0  0  0  0  0  0
  176.3740   20.3840   46.9960 C   0  0  0  0  0  0  0  0  0  0  0  0
  175.7250   21.3690   47.7450 C   0  0  0  0  0  0  0  0  0  0  0  0
  176.4700   22.3050   48.4650 C   0  0  0  0  0  0  0  0  0  0  0  0
  177.8610   22.2550   48.4370 C   0  0  0  0  0  0  0  0  0  0  0  0
  178.5280   23.2010   49.1660 O   0  0  0  0  0  0  0  0  0  0  0  0
  178.5100   21.2700   47.6880 C   0  0  0  0  0  0  0  0  0  0  0  0
  179.9700   21.1820   47.6300 C   0  0  0  0  0  0  0  0  0  0  0  0
  180.6950   21.9650   48.2430 O   0  0  0  0  0  0  0  0  0  0  0  0
  180.5590   20.1060   46.8010 C   0  0  0  0  0  0  0  0  0  0  0  0
  181.9400   20.0240   46.7640 O   0  0  0  0  0  0  0  0  0  0  0  0
  181.1430   18.3930   44.2960 C   0  0  0  0  0  0  0  0  0  0  0  0
  181.6230   17.3450   43.5060 C   0  0  0  0  0  0  0  0  0  0  0  0
  181.1870   16.0240   43.7050 C   0  0  0  0  0  0  0  0  0  0  0  0
  181.7230   14.9340   42.8060 C   0  0  0  0  0  0  0  0  0  0  0  0
  183.0380   15.0980   42.4890 F   0  0  0  0  0  0  0  0  0  0  0  0
  181.0730   14.8460   41.6090 F   0  0  0  0  0  0  0  0  0  0  0  0
  177.7281   13.6509   44.6589 H   0  0  0  0  0  0  0  0  0  0  0  0
  178.3299   14.8260   43.4409 H   0  0  0  0  0  0  0  0  0  0  0  0
  178.9447   13.1382   43.4409 H   0  0  0  0  0  0  0  0  0  0  0  0
  179.3424   14.3570   46.0535 H   0  0  0  0  0  0  0  0  0  0  0  0
  180.5551   13.6694   44.8910 H   0  0  0  0  0  0  0  0  0  0  0  0
  179.0463   16.6307   46.3127 H   0  0  0  0  0  0  0  0  0  0  0  0
  175.7867   19.6476   46.4278 H   0  0  0  0  0  0  0  0  0  0  0  0
  174.6259   21.4071   47.7674 H   0  0  0  0  0  0  0  0  0  0  0  0
  175.9585   23.0809   49.0536 H   0  0  0  0  0  0  0  0  0  0  0  0
  178.2550   24.0960   49.1330 H   0  0  0  0  0  0  0  0  0  0  0  0
  182.4030   20.2840   45.9930 H   0  0  0  0  0  0  0  0  0  0  0  0
  181.5065   19.4166   44.1225 H   0  0  0  0  0  0  0  0  0  0  0  0
  182.3557   17.5580   42.7137 H   0  0  0  0  0  0  0  0  0  0  0  0
  181.5663   14.0262   43.4072 H   0  0  0  0  0  0  0  0  0  0  0  0
  1  2  1  0
  2  3  1  0
  3  4  2  0
  4  5  1  0
  5  6  1  0
  6  7  1  0
  7  8  1  0
  8  9  2  0
  9 10  1  0
 10 11  2  0
 11 12  1  0
 12 13  1  0
 12 14  2  0
 14 15  1  0
 15 16  2  0
 15 17  1  0
 17 18  1  0
  5 19  2  0
 19 20  1  0
 20 21  2  0
 21 22  1  0
 22 23  1  0
 22 24  1  0
 21  3  1  0
 17  6  2  0
 14  8  1  0
  1 25  1  0
  1 26  1  0
  1 27  1  0
  2 28  1  0
  2 29  1  0
  4 30  1  0
  9 31  1  0
 10 32  1  0
 11 33  1  0
 13 34  1  0
 18 35  1  0
 19 36  1  0
 20 37  1  0
 22 38  1  0
M  END
>  <meeko>  (1) 
{"is_sidechain": [false], "free_energy": -7.958, "intermolecular_energy": -9.819, "internal_energy": -0.378}

$$$$
cand_017_out
     RDKit          3D

 38 40  0  0  0  0  0  0  0  0999 V2000
  174.7630   19.9760   47.3950 C   0  0  0  0  0  0  0  0  0  0  0  0
  175.5830   21.1130   46.8010 C   0  0  0  0  0  0  0  0  0  0  0  0
  177.0610   20.9530   47.0840 C   0  0  0  0  0  0  0  0  0  0  0  0
  177.7770   19.9870   46.3480 C   0  0  0  0  0  0  0  0  0  0  0  0
  179.1500   19.7780   46.5420 C   0  0  0  0  0  0  0  0  0  0  0  0
  179.9040   18.7820   45.7530 C   0  0  0  0  0  0  0  0  0  0  0  0
  179.3070   17.5270   45.7540 O   0  0  0  0  0  0  0  0  0  0  0  0
  179.9050   16.5080   45.0580 C   0  0  0  0  0  0  0  0  0  0  0  0
  179.2810   15.2600   45.1000 C   0  0  0  0  0  0  0  0  0  0  0  0
  179.8370   14.1790   44.4110 C   0  0  0  0  0  0  0  0  0  0  0  0
  181.0150   14.3460   43.6820 C   0  0  0  0  0  0  0  0  0  0  0  0
  181.6360   15.5910   43.6420 C   0  0  0  0  0  0  0  0  0  0  0  0
  182.7880   15.6840   42.9080 O   0  0  0  0  0  0  0  0  0  0  0  0
  181.0800   16.6720   44.3310 C   0  0  0  0  0  0  0  0  0  0  0  0
  181.7010   17.9980   44.3170 C   0  0  0  0  0  0  0  0  0  0  0  0
  182.7360   18.2260   43.6920 O   0  0  0  0  0  0  0  0  0  0  0  0
  181.0360   19.0740   45.0860 C   0  0  0  0  0  0  0  0  0  0  0  0
  181.6240   20.3260   45.0550 O   0  0  0  0  0  0  0  0  0  0  0  0
  179.8140   20.5710   47.4830 C   0  0  0  0  0  0  0  0  0  0  0  0
  179.1220   21.5360   48.2190 C   0  0  0  0  0  0  0  0  0  0  0  0
  177.7450   21.7440   48.0310 C   0  0  0  0  0  0  0  0  0  0  0  0
  177.0430   22.7860   48.8710 C   0  0  0  0  0  0  0  0  0  0  0  0
  175.9520   22.3010   49.5280 F   0  0  0  0  0  0  0  0  0  0  0  0
  176.5830   23.8500   48.1480 F   0  0  0  0  0  0  0  0  0  0  0  0
  174.8022   20.0304   48.4930 H   0  0  0  0  0  0  0  0  0  0  0  0
  173.7187   20.0634   47.0606 H   0  0  0  0  0  0  0  0  0  0  0  0
  175.1756   19.0127   47.0606 H   0  0  0  0  0  0  0  0  0  0  0  0
  175.4296   21.1304   45.7119 H   0  0  0  0  0  0  0  0  0  0  0  0
  175.2477   22.0525   47.2646 H   0  0  0  0  0  0  0  0  0  0  0  0
  177.2440   19.3805   45.6010 H   0  0  0  0  0  0  0  0  0  0  0  0
  178.3526   15.1277   45.6749 H   0  0  0  0  0  0  0  0  0  0  0  0
  179.3456   13.1954   44.4433 H   0  0  0  0  0  0  0  0  0  0  0  0
  181.4523   13.4948   43.1396 H   0  0  0  0  0  0  0  0  0  0  0  0
  183.1880   14.9110   42.5650 H   0  0  0  0  0  0  0  0  0  0  0  0
  182.4120   20.4850   45.5360 H   0  0  0  0  0  0  0  0  0  0  0  0
  180.8932   20.4335   47.6456 H   0  0  0  0  0  0  0  0  0  0  0  0
  179.6644   22.1435   48.9584 H   0  0  0  0  0  0  0  0  0  0  0  0
  177.8287   23.0973   49.5751 H   0  0  0  0  0  0  0  0  0  0  0  0
  1  2  1  0
  2  3  1  0
  3  4  2  0
  4  5  1  0
  5  6  1  0
  6  7  1  0
  7  8  1  0
  8  9  2  0
  9 10  1  0
 10 11  2  0
 11 12  1  0
 12 13  1  0
 12 14  2  0
 14 15  1  0
 15 16  2  0
 15 17  1  0
 17 18  1  0
  5 19  2  0
 19 20  1  0
 20 21  2  0
 21 22  1  0
 22 23  1  0
 22 24  1  0
 21  3  1  0
 17  6  2  0
 14  8  1  0
  1 25  1  0
  1 26  1  0
  1 27  1  0
  2 28  1  0
  2 29  1  0
  4 30  1  0
  9 31  1  0
 10 32  1  0
 11 33  1  0
 13 34  1  0
 18 35  1  0
 19 36  1  0
 20 37  1  0
 22 38  1  0
M  END
>  <meeko>  (2) 
{"is_sidechain": [false], "free_energy": -7.557, "intermolecular_energy": -9.372, "internal_energy": -0.33}

$$$$
cand_017_out
     RDKit          3D

 38 40  0  0  0  0  0  0  0  0999 V2000
  179.1510   14.2300   43.9820 C   0  0  0  0  0  0  0  0  0  0  0  0
  179.8940   14.8530   45.1550 C   0  0  0  0  0  0  0  0  0  0  0  0
  180.0740   16.3450   44.9840 C   0  0  0  0  0  0  0  0  0  0  0  0
  179.1950   17.2040   45.6760 C   0  0  0  0  0  0  0  0  0  0  0  0
  179.2960   18.5980   45.5780 C   0  0  0  0  0  0  0  0  0  0  0  0
  178.3890   19.4980   46.3230 C   0  0  0  0  0  0  0  0  0  0  0  0
  178.9960   20.6930   46.6910 O   0  0  0  0  0  0  0  0  0  0  0  0
  178.2650   21.6190   47.3890 C   0  0  0  0  0  0  0  0  0  0  0  0
  178.9180   22.7980   47.7530 C   0  0  0  0  0  0  0  0  0  0  0  0
  178.2310   23.7850   48.4640 C   0  0  0  0  0  0  0  0  0  0  0  0
  176.8930   23.5920   48.8120 C   0  0  0  0  0  0  0  0  0  0  0  0
  176.2440   22.4160   48.4480 C   0  0  0  0  0  0  0  0  0  0  0  0
  174.9330   22.2930   48.8210 O   0  0  0  0  0  0  0  0  0  0  0  0
  176.9310   21.4290   47.7370 C   0  0  0  0  0  0  0  0  0  0  0  0
  176.2880   20.1770   47.3370 C   0  0  0  0  0  0  0  0  0  0  0  0
  175.1100   19.9370   47.5990 O   0  0  0  0  0  0  0  0  0  0  0  0
  177.1060   19.1920   46.5920 C   0  0  0  0  0  0  0  0  0  0  0  0
  176.4840   18.0190   46.2070 O   0  0  0  0  0  0  0  0  0  0  0  0
  180.3120   19.1360   44.7830 C   0  0  0  0  0  0  0  0  0  0  0  0
  181.1950   18.3010   44.0930 C   0  0  0  0  0  0  0  0  0  0  0  0
  181.0940   16.9020   44.1830 C   0  0  0  0  0  0  0  0  0  0  0  0
  182.0620   16.0470   43.3980 C   0  0  0  0  0  0  0  0  0  0  0  0
  181.6090   15.7320   42.1510 F   0  0  0  0  0  0  0  0  0  0  0  0
  182.3390   14.8500   43.9930 F   0  0  0  0  0  0  0  0  0  0  0  0
  178.3595   13.5663   44.3601 H   0  0  0  0  0  0  0  0  0  0  0  0
  178.7012   15.0249   43.3690 H   0  0  0  0  0  0  0  0  0  0  0  0
  179.8553   13.6485   43.3690 H   0  0  0  0  0  0  0  0  0  0  0  0
  179.3223   14.6676   46.0763 H   0  0  0  0  0  0  0  0  0  0  0  0
  180.8924   14.3942   45.2070 H   0  0  0  0  0  0  0  0  0  0  0  0
  178.4089   16.7677   46.3098 H   0  0  0  0  0  0  0  0  0  0  0  0
  179.9728   22.9497   47.4801 H   0  0  0  0  0  0  0  0  0  0  0  0
  178.7447   24.7148   48.7498 H   0  0  0  0  0  0  0  0  0  0  0  0
  176.3524   24.3684   49.3732 H   0  0  0  0  0  0  0  0  0  0  0  0
  174.7010   21.7550   49.5510 H   0  0  0  0  0  0  0  0  0  0  0  0
  175.5890   17.8660   46.4390 H   0  0  0  0  0  0  0  0  0  0  0  0
  180.4176   20.2277   44.6996 H   0  0  0  0  0  0  0  0  0  0  0  0
  181.9832   18.7466   43.4683 H   0  0  0  0  0  0  0  0  0  0  0  0
  182.9605   16.6798   43.3504 H   0  0  0  0  0  0  0  0  0  0  0  0
  1  2  1  0
  2  3  1  0
  3  4  2  0
  4  5  1  0
  5  6  1  0
  6  7  1  0
  7  8  1  0
  8  9  2  0
  9 10  1  0
 10 11  2  0
 11 12  1  0
 12 13  1  0
 12 14  2  0
 14 15  1  0
 15 16  2  0
 15 17  1  0
 17 18  1  0
  5 19  2  0
 19 20  1  0
 20 21  2  0
 21 22  1  0
 22 23  1  0
 22 24  1  0
 21  3  1  0
 17  6  2  0
 14  8  1  0
  1 25  1  0
  1 26  1  0
  1 27  1  0
  2 28  1  0
  2 29  1  0
  4 30  1  0
  9 31  1  0
 10 32  1  0
 11 33  1  0
 13 34  1  0
 18 35  1  0
 19 36  1  0
 20 37  1  0
 22 38  1  0
M  END
>  <meeko>  (3) 
{"is_sidechain": [false], "free_energy": -6.46, "intermolecular_energy": -8.513, "internal_energy": 0.164}

$$$$
cand_017_out
     RDKit          3D

 38 40  0  0  0  0  0  0  0  0999 V2000
  178.5260   22.8460   47.3390 C   0  0  0  0  0  0  0  0  0  0  0  0
  179.3120   21.6760   47.9160 C   0  0  0  0  0  0  0  0  0  0  0  0
  180.3330   21.1410   46.9360 C   0  0  0  0  0  0  0  0  0  0  0  0
  181.5040   21.8960   46.7200 C   0  0  0  0  0  0  0  0  0  0  0  0
  182.5040   21.4700   45.8340 C   0  0  0  0  0  0  0  0  0  0  0  0
  183.7420   22.2500   45.6260 C   0  0  0  0  0  0  0  0  0  0  0  0
  184.3310   22.0090   44.3910 O   0  0  0  0  0  0  0  0  0  0  0  0
  185.4890   22.6690   44.0690 C   0  0  0  0  0  0  0  0  0  0  0  0
  186.0560   22.3850   42.8250 C   0  0  0  0  0  0  0  0  0  0  0  0
  187.2350   23.0250   42.4340 C   0  0  0  0  0  0  0  0  0  0  0  0
  187.8460   23.9460   43.2860 C   0  0  0  0  0  0  0  0  0  0  0  0
  187.2790   24.2280   44.5260 C   0  0  0  0  0  0  0  0  0  0  0  0
  187.9300   25.1420   45.3100 O   0  0  0  0  0  0  0  0  0  0  0  0
  186.1000   23.5880   44.9170 C   0  0  0  0  0  0  0  0  0  0  0  0
  185.4710   23.8540   46.2110 C   0  0  0  0  0  0  0  0  0  0  0  0
  185.9450   24.6580   47.0130 O   0  0  0  0  0  0  0  0  0  0  0  0
  184.2270   23.1180   46.5340 C   0  0  0  0  0  0  0  0  0  0  0  0
  183.6350   23.3860   47.7540 O   0  0  0  0  0  0  0  0  0  0  0  0
  182.3270   20.2530   45.1700 C   0  0  0  0  0  0  0  0  0  0  0  0
  181.1740   19.4890   45.3750 C   0  0  0  0  0  0  0  0  0  0  0  0
  180.1670   19.9150   46.2570 C   0  0  0  0  0  0  0  0  0  0  0  0
  178.9320   19.0600   46.4240 C   0  0  0  0  0  0  0  0  0  0  0  0
  179.0410   17.8380   45.8310 F   0  0  0  0  0  0  0  0  0  0  0  0
  177.8060   19.6200   45.8910 F   0  0  0  0  0  0  0  0  0  0  0  0
  178.1177   23.4538   48.1599 H   0  0  0  0  0  0  0  0  0  0  0  0
  179.1919   23.4655   46.7202 H   0  0  0  0  0  0  0  0  0  0  0  0
  177.7008   22.4638   46.7202 H   0  0  0  0  0  0  0  0  0  0  0  0
  179.8336   22.0120   48.8243 H   0  0  0  0  0  0  0  0  0  0  0  0
  178.6012   20.8674   48.1416 H   0  0  0  0  0  0  0  0  0  0  0  0
  181.6367   22.8446   47.2609 H   0  0  0  0  0  0  0  0  0  0  0  0
  185.5751   21.6583   42.1536 H   0  0  0  0  0  0  0  0  0  0  0  0
  187.6819   22.8027   41.4538 H   0  0  0  0  0  0  0  0  0  0  0  0
  188.7747   24.4487   42.9782 H   0  0  0  0  0  0  0  0  0  0  0  0
  188.0520   26.0180   45.0040 H   0  0  0  0  0  0  0  0  0  0  0  0
  182.7880   23.7860   47.7850 H   0  0  0  0  0  0  0  0  0  0  0  0
  183.1030   19.8924   44.4788 H   0  0  0  0  0  0  0  0  0  0  0  0
  181.0533   18.5376   44.8361 H   0  0  0  0  0  0  0  0  0  0  0  0
  178.8471   18.9678   47.5168 H   0  0  0  0  0  0  0  0  0  0  0  0
  1  2  1  0
  2  3  1  0
  3  4  2  0
  4  5  1  0
  5  6  1  0
  6  7  1  0
  7  8  1  0
  8  9  2  0
  9 10  1  0
 10 11  2  0
 11 12  1  0
 12 13  1  0
 12 14  2  0
 14 15  1  0
 15 16  2  0
 15 17  1  0
 17 18  1  0
  5 19  2  0
 19 20  1  0
 20 21  2  0
 21 22  1  0
 22 23  1  0
 22 24  1  0
 21  3  1  0
 17  6  2  0
 14  8  1  0
  1 25  1  0
  1 26  1  0
  1 27  1  0
  2 28  1  0
  2 29  1  0
  4 30  1  0
  9 31  1  0
 10 32  1  0
 11 33  1  0
 13 34  1  0
 18 35  1  0
 19 36  1  0
 20 37  1  0
 22 38  1  0
M  END
>  <meeko>  (4) 
{"is_sidechain": [false], "free_energy": -5.606, "intermolecular_energy": -7.13, "internal_energy": -0.164}

$$$$
cand_017_out
     RDKit          3D

 38 40  0  0  0  0  0  0  0  0999 V2000
  176.3380   19.0370   46.6070 C   0  0  0  0  0  0  0  0  0  0  0  0
  177.3400   19.9750   47.2650 C   0  0  0  0  0  0  0  0  0  0  0  0
  178.7410   19.7730   46.7290 C   0  0  0  0  0  0  0  0  0  0  0  0
  178.9620   18.7040   45.8350 C   0  0  0  0  0  0  0  0  0  0  0  0
  180.2270   18.4500   45.2870 C   0  0  0  0  0  0  0  0  0  0  0  0
  180.4520   17.3450   44.3320 C   0  0  0  0  0  0  0  0  0  0  0  0
  180.7630   17.7910   43.0530 O   0  0  0  0  0  0  0  0  0  0  0  0
  180.9960   16.8670   42.0670 C   0  0  0  0  0  0  0  0  0  0  0  0
  181.2890   17.3590   40.7940 C   0  0  0  0  0  0  0  0  0  0  0  0
  181.5390   16.4710   39.7440 C   0  0  0  0  0  0  0  0  0  0  0  0
  181.4950   15.0940   39.9680 C   0  0  0  0  0  0  0  0  0  0  0  0
  181.2040   14.6060   41.2380 C   0  0  0  0  0  0  0  0  0  0  0  0
  181.1790   13.2460   41.3870 O   0  0  0  0  0  0  0  0  0  0  0  0
  180.9540   15.4940   42.2880 C   0  0  0  0  0  0  0  0  0  0  0  0
  180.6420   15.0240   43.6380 C   0  0  0  0  0  0  0  0  0  0  0  0
  180.5930   13.8260   43.9160 O   0  0  0  0  0  0  0  0  0  0  0  0
  180.3850   16.0460   44.6780 C   0  0  0  0  0  0  0  0  0  0  0  0
  180.1040   15.5900   45.9540 O   0  0  0  0  0  0  0  0  0  0  0  0
  181.2820   19.3000   45.6320 C   0  0  0  0  0  0  0  0  0  0  0  0
  181.0810   20.3660   46.5120 C   0  0  0  0  0  0  0  0  0  0  0  0
  179.8160   20.6210   47.0690 C   0  0  0  0  0  0  0  0  0  0  0  0
  179.6610   21.7750   48.0330 C   0  0  0  0  0  0  0  0  0  0  0  0
  178.9980   22.8370   47.4970 F   0  0  0  0  0  0  0  0  0  0  0  0
  180.8500   22.2790   48.4760 F   0  0  0  0  0  0  0  0  0  0  0  0
  175.7693   18.5047   47.3837 H   0  0  0  0  0  0  0  0  0  0  0  0
  175.6465   19.6199   45.9809 H   0  0  0  0  0  0  0  0  0  0  0  0
  176.8741   18.3086   45.9809 H   0  0  0  0  0  0  0  0  0  0  0  0
  177.0328   21.0138   47.0739 H   0  0  0  0  0  0  0  0  0  0  0  0
  177.3534   19.7565   48.3430 H   0  0  0  0  0  0  0  0  0  0  0  0
  178.1192   18.0525   45.5607 H   0  0  0  0  0  0  0  0  0  0  0  0
  181.3231   18.4442   40.6174 H   0  0  0  0  0  0  0  0  0  0  0  0
  181.7706   16.8575   38.7405 H   0  0  0  0  0  0  0  0  0  0  0  0
  181.6902   14.3953   39.1412 H   0  0  0  0  0  0  0  0  0  0  0  0
  181.9310   12.7360   41.1610 H   0  0  0  0  0  0  0  0  0  0  0  0
  180.3490   16.1030   46.6980 H   0  0  0  0  0  0  0  0  0  0  0  0
  182.2813   19.1274   45.2058 H   0  0  0  0  0  0  0  0  0  0  0  0
  181.9278   21.0175   46.7737 H   0  0  0  0  0  0  0  0  0  0  0  0
  179.0920   21.3242   48.8595 H   0  0  0  0  0  0  0  0  0  0  0  0
  1  2  1  0
  2  3  1  0
  3  4  2  0
  4  5  1  0
  5  6  1  0
  6  7  1  0
  7  8  1  0
  8  9  2  0
  9 10  1  0
 10 11  2  0
 11 12  1  0
 12 13  1  0
 12 14  2  0
 14 15  1  0
 15 16  2  0
 15 17  1  0
 17 18  1  0
  5 19  2  0
 19 20  1  0
 20 21  2  0
 21 22  1  0
 22 23  1  0
 22 24  1  0
 21  3  1  0
 17  6  2  0
 14  8  1  0
  1 25  1  0
  1 26  1  0
  1 27  1  0
  2 28  1  0
  2 29  1  0
  4 30  1  0
  9 31  1  0
 10 32  1  0
 11 33  1  0
 13 34  1  0
 18 35  1  0
 19 36  1  0
 20 37  1  0
 22 38  1  0
M  END
>  <meeko>  (5) 
{"is_sidechain": [false], "free_energy": -5.587, "intermolecular_energy": -6.691, "internal_energy": -0.58}

$$$$
cand_017_out
     RDKit          3D

 38 40  0  0  0  0  0  0  0  0999 V2000
  178.5540   22.9940   47.4410 C   0  0  0  0  0  0  0  0  0  0  0  0
  179.3240   21.8010   47.9900 C   0  0  0  0  0  0  0  0  0  0  0  0
  180.4670   21.3990   47.0840 C   0  0  0  0  0  0  0  0  0  0  0  0
  181.5770   22.2650   46.9920 C   0  0  0  0  0  0  0  0  0  0  0  0
  182.6810   21.9660   46.1820 C   0  0  0  0  0  0  0  0  0  0  0  0
  183.8540   22.8630   46.1050 C   0  0  0  0  0  0  0  0  0  0  0  0
  184.2130   23.3900   47.3400 O   0  0  0  0  0  0  0  0  0  0  0  0
  185.2870   24.2390   47.4110 C   0  0  0  0  0  0  0  0  0  0  0  0
  185.6020   24.7580   48.6680 C   0  0  0  0  0  0  0  0  0  0  0  0
  186.6860   25.6280   48.8100 C   0  0  0  0  0  0  0  0  0  0  0  0
  187.4530   25.9780   47.6980 C   0  0  0  0  0  0  0  0  0  0  0  0
  187.1360   25.4590   46.4460 C   0  0  0  0  0  0  0  0  0  0  0  0
  187.9300   25.8440   45.3990 O   0  0  0  0  0  0  0  0  0  0  0  0
  186.0520   24.5900   46.3030 C   0  0  0  0  0  0  0  0  0  0  0  0
  185.6840   24.0220   45.0050 C   0  0  0  0  0  0  0  0  0  0  0  0
  186.3150   24.2770   43.9800 O   0  0  0  0  0  0  0  0  0  0  0  0
  184.5130   23.1170   44.9590 C   0  0  0  0  0  0  0  0  0  0  0  0
  184.1830   22.5760   43.7300 O   0  0  0  0  0  0  0  0  0  0  0  0
  182.6730   20.7650   45.4660 C   0  0  0  0  0  0  0  0  0  0  0  0
  181.5840   19.8930   45.5480 C   0  0  0  0  0  0  0  0  0  0  0  0
  180.4730   20.1910   46.3550 C   0  0  0  0  0  0  0  0  0  0  0  0
  179.3130   19.2230   46.3880 C   0  0  0  0  0  0  0  0  0  0  0  0
  179.5630   18.0620   45.7190 F   0  0  0  0  0  0  0  0  0  0  0  0
  178.1710   19.7200   45.8300 F   0  0  0  0  0  0  0  0  0  0  0  0
  178.1657   23.5956   48.2761 H   0  0  0  0  0  0  0  0  0  0  0  0
  179.2246   23.6113   46.8251 H   0  0  0  0  0  0  0  0  0  0  0  0
  177.7153   22.6372   46.8251 H   0  0  0  0  0  0  0  0  0  0  0  0
  179.7296   22.0642   48.9780 H   0  0  0  0  0  0  0  0  0  0  0  0
  178.6296   20.9507   48.0588 H   0  0  0  0  0  0  0  0  0  0  0  0
  181.5759   23.1999   47.5715 H   0  0  0  0  0  0  0  0  0  0  0  0
  184.9979   24.4825   49.5451 H   0  0  0  0  0  0  0  0  0  0  0  0
  186.9352   26.0377   49.8000 H   0  0  0  0  0  0  0  0  0  0  0  0
  188.3065   26.6627   47.8107 H   0  0  0  0  0  0  0  0  0  0  0  0
  187.6300   25.7350   44.5190 H   0  0  0  0  0  0  0  0  0  0  0  0
  184.6460   21.8290   43.4080 H   0  0  0  0  0  0  0  0  0  0  0  0
  183.5328   20.5038   44.8316 H   0  0  0  0  0  0  0  0  0  0  0  0
  181.5968   18.9568   44.9706 H   0  0  0  0  0  0  0  0  0  0  0  0
  179.1795   19.0442   47.4651 H   0  0  0  0  0  0  0  0  0  0  0  0
  1  2  1  0
  2  3  1  0
  3  4  2  0
  4  5  1  0
  5  6  1  0
  6  7  1  0
  7  8  1  0
  8  9  2  0
  9 10  1  0
 10 11  2  0
 11 12  1  0
 12 13  1  0
 12 14  2  0
 14 15  1  0
 15 16  2  0
 15 17  1  0
 17 18  1  0
  5 19  2  0
 19 20  1  0
 20 21  2  0
 21 22  1  0
 22 23  1  0
 22 24  1  0
 21  3  1  0
 17  6  2  0
 14  8  1  0
  1 25  1  0
  1 26  1  0
  1 27  1  0
  2 28  1  0
  2 29  1  0
  4 30  1  0
  9 31  1  0
 10 32  1  0
 11 33  1  0
 13 34  1  0
 18 35  1  0
 19 36  1  0
 20 37  1  0
 22 38  1  0
M  END
>  <meeko>  (6) 
{"is_sidechain": [false], "free_energy": -5.554, "intermolecular_energy": -6.926, "internal_energy": -0.305}

$$$$
cand_017_out
     RDKit          3D

 38 40  0  0  0  0  0  0  0  0999 V2000
  181.3950   17.0520   41.7620 C   0  0  0  0  0  0  0  0  0  0  0  0
  181.9160   17.3970   43.1500 C   0  0  0  0  0  0  0  0  0  0  0  0
  180.8340   17.2900   44.2030 C   0  0  0  0  0  0  0  0  0  0  0  0
  180.3850   18.4780   44.8150 C   0  0  0  0  0  0  0  0  0  0  0  0
  179.3830   18.4700   45.7960 C   0  0  0  0  0  0  0  0  0  0  0  0
  178.8950   19.7190   46.4190 C   0  0  0  0  0  0  0  0  0  0  0  0
  177.6000   19.6060   46.9110 O   0  0  0  0  0  0  0  0  0  0  0  0
  177.0240   20.6940   47.5160 C   0  0  0  0  0  0  0  0  0  0  0  0
  175.7170   20.5430   47.9810 C   0  0  0  0  0  0  0  0  0  0  0  0
  175.0720   21.6110   48.6090 C   0  0  0  0  0  0  0  0  0  0  0  0
  175.7340   22.8300   48.7700 C   0  0  0  0  0  0  0  0  0  0  0  0
  177.0370   22.9790   48.3050 C   0  0  0  0  0  0  0  0  0  0  0  0
  177.6260   24.1990   48.4970 O   0  0  0  0  0  0  0  0  0  0  0  0
  177.6820   21.9100   47.6770 C   0  0  0  0  0  0  0  0  0  0  0  0
  179.0510   22.0230   47.1730 C   0  0  0  0  0  0  0  0  0  0  0  0
  179.7030   23.0610   47.2840 O   0  0  0  0  0  0  0  0  0  0  0  0
  179.6410   20.8340   46.5160 C   0  0  0  0  0  0  0  0  0  0  0  0
  180.9400   20.9490   46.0560 O   0  0  0  0  0  0  0  0  0  0  0  0
  178.8120   17.2440   46.1500 C   0  0  0  0  0  0  0  0  0  0  0  0
  179.2420   16.0570   45.5520 C   0  0  0  0  0  0  0  0  0  0  0  0
  180.2510   16.0600   44.5730 C   0  0  0  0  0  0  0  0  0  0  0  0
  180.6930   14.7440   43.9750 C   0  0  0  0  0  0  0  0  0  0  0  0
  179.7060   13.8040   43.9570 F   0  0  0  0  0  0  0  0  0  0  0  0
  181.7300   14.1620   44.6450 F   0  0  0  0  0  0  0  0  0  0  0  0
  180.4810   16.4468   41.8534 H   0  0  0  0  0  0  0  0  0  0  0  0
  181.1679   17.9788   41.2148 H   0  0  0  0  0  0  0  0  0  0  0  0
  182.1596   16.4811   41.2148 H   0  0  0  0  0  0  0  0  0  0  0  0
  182.7309   16.7040   43.4061 H   0  0  0  0  0  0  0  0  0  0  0  0
  182.2710   18.4380   43.1313 H   0  0  0  0  0  0  0  0  0  0  0  0
  180.8327   19.4369   44.5149 H   0  0  0  0  0  0  0  0  0  0  0  0
  175.1949   19.5833   47.8530 H   0  0  0  0  0  0  0  0  0  0  0  0
  174.0422   21.4918   48.9769 H   0  0  0  0  0  0  0  0  0  0  0  0
  175.2260   23.6715   49.2638 H   0  0  0  0  0  0  0  0  0  0  0  0
  178.0660   24.6240   47.7880 H   0  0  0  0  0  0  0  0  0  0  0  0
  181.2620   21.7790   45.7640 H   0  0  0  0  0  0  0  0  0  0  0  0
  178.0153   17.2137   46.9078 H   0  0  0  0  0  0  0  0  0  0  0  0
  178.7832   15.1034   45.8523 H   0  0  0  0  0  0  0  0  0  0  0  0
  180.9925   15.0303   42.9560 H   0  0  0  0  0  0  0  0  0  0  0  0
  1  2  1  0
  2  3  1  0
  3  4  2  0
  4  5  1  0
  5  6  1  0
  6  7  1  0
  7  8  1  0
  8  9  2  0
  9 10  1  0
 10 11  2  0
 11 12  1  0
 12 13  1  0
 12 14  2  0
 14 15  1  0
 15 16  2  0
 15 17  1  0
 17 18  1  0
  5 19  2  0
 19 20  1  0
 20 21  2  0
 21 22  1  0
 22 23  1  0
 22 24  1  0
 21  3  1  0
 17  6  2  0
 14  8  1  0
  1 25  1  0
  1 26  1  0
  1 27  1  0
  2 28  1  0
  2 29  1  0
  4 30  1  0
  9 31  1  0
 10 32  1  0
 11 33  1  0
 13 34  1  0
 18 35  1  0
 19 36  1  0
 20 37  1  0
 22 38  1  0
M  END
>  <meeko>  (7) 
{"is_sidechain": [false], "free_energy": -5.513, "intermolecular_energy": -7.239, "internal_energy": 0.06}

$$$$
cand_017_out
     RDKit          3D

 38 40  0  0  0  0  0  0  0  0999 V2000
  186.9350   21.2930   43.1490 C   0  0  0  0  0  0  0  0  0  0  0  0
  186.1130   22.5740   43.1650 C   0  0  0  0  0  0  0  0  0  0  0  0
  185.3920   22.7680   44.4810 C   0  0  0  0  0  0  0  0  0  0  0  0
  184.1590   22.1080   44.6660 C   0  0  0  0  0  0  0  0  0  0  0  0
  183.4290   22.2280   45.8570 C   0  0  0  0  0  0  0  0  0  0  0  0
  182.1490   21.5160   46.0590 C   0  0  0  0  0  0  0  0  0  0  0  0
  181.2440   22.2400   46.8260 O   0  0  0  0  0  0  0  0  0  0  0  0
  180.0140   21.6940   47.0900 C   0  0  0  0  0  0  0  0  0  0  0  0
  179.1420   22.4470   47.8780 C   0  0  0  0  0  0  0  0  0  0  0  0
  177.8730   21.9500   48.1840 C   0  0  0  0  0  0  0  0  0  0  0  0
  177.4770   20.7010   47.7030 C   0  0  0  0  0  0  0  0  0  0  0  0
  178.3480   19.9510   46.9170 C   0  0  0  0  0  0  0  0  0  0  0  0
  177.8950   18.7370   46.4780 O   0  0  0  0  0  0  0  0  0  0  0  0
  179.6170   20.4490   46.6120 C   0  0  0  0  0  0  0  0  0  0  0  0
  180.5650   19.6930   45.7900 C   0  0  0  0  0  0  0  0  0  0  0  0
  180.2870   18.5900   45.3240 O   0  0  0  0  0  0  0  0  0  0  0  0
  181.8880   20.3060   45.5310 C   0  0  0  0  0  0  0  0  0  0  0  0
  182.7700   19.5890   44.7430 O   0  0  0  0  0  0  0  0  0  0  0  0
  183.9600   23.0120   46.8850 C   0  0  0  0  0  0  0  0  0  0  0  0
  185.1820   23.6710   46.7210 C   0  0  0  0  0  0  0  0  0  0  0  0
  185.9150   23.5580   45.5270 C   0  0  0  0  0  0  0  0  0  0  0  0
  187.2190   24.3100   45.3960 C   0  0  0  0  0  0  0  0  0  0  0  0
  187.9130   24.3890   46.5670 F   0  0  0  0  0  0  0  0  0  0  0  0
  187.0650   25.6010   44.9820 F   0  0  0  0  0  0  0  0  0  0  0  0
  187.1389   20.9752   44.1822 H   0  0  0  0  0  0  0  0  0  0  0  0
  186.3742   20.5040   42.6266 H   0  0  0  0  0  0  0  0  0  0  0  0
  187.8860   21.4741   42.6266 H   0  0  0  0  0  0  0  0  0  0  0  0
  186.7846   23.4291   42.9985 H   0  0  0  0  0  0  0  0  0  0  0  0
  185.3561   22.5021   42.3701 H   0  0  0  0  0  0  0  0  0  0  0  0
  183.7596   21.4825   43.8541 H   0  0  0  0  0  0  0  0  0  0  0  0
  179.4539   23.4311   48.2577 H   0  0  0  0  0  0  0  0  0  0  0  0
  177.1853   22.5433   48.8045 H   0  0  0  0  0  0  0  0  0  0  0  0
  176.4778   20.3095   47.9446 H   0  0  0  0  0  0  0  0  0  0  0  0
  177.2210   18.6950   45.8300 H   0  0  0  0  0  0  0  0  0  0  0  0
  183.1100   18.7710   45.0470 H   0  0  0  0  0  0  0  0  0  0  0  0
  183.4108   23.1115   47.8329 H   0  0  0  0  0  0  0  0  0  0  0  0
  185.5769   24.2889   47.5409 H   0  0  0  0  0  0  0  0  0  0  0  0
  187.7644   23.7184   44.6459 H   0  0  0  0  0  0  0  0  0  0  0  0
  1  2  1  0
  2  3  1  0
  3  4  2  0
  4  5  1  0
  5  6  1  0
  6  7  1  0
  7  8  1  0
  8  9  2  0
  9 10  1  0
 10 11  2  0
 11 12  1  0
 12 13  1  0
 12 14  2  0
 14 15  1  0
 15 16  2  0
 15 17  1  0
 17 18  1  0
  5 19  2  0
 19 20  1  0
 20 21  2  0
 21 22  1  0
 22 23  1  0
 22 24  1  0
 21  3  1  0
 17  6  2  0
 14  8  1  0
  1 25  1  0
  1 26  1  0
  1 27  1  0
  2 28  1  0
  2 29  1  0
  4 30  1  0
  9 31  1  0
 10 32  1  0
 11 33  1  0
 13 34  1  0
 18 35  1  0
 19 36  1  0
 20 37  1  0
 22 38  1  0
M  END
>  <meeko>  (8) 
{"is_sidechain": [false], "free_energy": -5.395, "intermolecular_energy": -6.816, "internal_energy": -0.219}

$$$$
cand_017_out
     RDKit          3D

 38 40  0  0  0  0  0  0  0  0999 V2000
  186.2050   24.1400   48.4340 C   0  0  0  0  0  0  0  0  0  0  0  0
  185.4010   24.7310   47.2850 C   0  0  0  0  0  0  0  0  0  0  0  0
  184.8670   23.6600   46.3580 C   0  0  0  0  0  0  0  0  0  0  0  0
  183.6280   23.0660   46.6740 C   0  0  0  0  0  0  0  0  0  0  0  0
  183.0580   22.0720   45.8670 C   0  0  0  0  0  0  0  0  0  0  0  0
  181.7470   21.4670   46.1860 C   0  0  0  0  0  0  0  0  0  0  0  0
  180.9160   22.3240   46.8980 O   0  0  0  0  0  0  0  0  0  0  0  0
  179.6680   21.8870   47.2600 C   0  0  0  0  0  0  0  0  0  0  0  0
  178.8730   22.7740   47.9880 C   0  0  0  0  0  0  0  0  0  0  0  0
  177.5890   22.3920   48.3860 C   0  0  0  0  0  0  0  0  0  0  0  0
  177.1020   21.1270   48.0570 C   0  0  0  0  0  0  0  0  0  0  0  0
  177.8970   20.2440   47.3310 C   0  0  0  0  0  0  0  0  0  0  0  0
  177.3570   19.0200   47.0420 O   0  0  0  0  0  0  0  0  0  0  0  0
  179.1810   20.6250   46.9330 C   0  0  0  0  0  0  0  0  0  0  0  0
  180.0500   19.7290   46.1690 C   0  0  0  0  0  0  0  0  0  0  0  0
  179.6900   18.6010   45.8350 O   0  0  0  0  0  0  0  0  0  0  0  0
  181.3960   20.2260   45.8030 C   0  0  0  0  0  0  0  0  0  0  0  0
  182.2030   19.3760   45.0700 O   0  0  0  0  0  0  0  0  0  0  0  0
  183.7420   21.6840   44.7100 C   0  0  0  0  0  0  0  0  0  0  0  0
  184.9690   22.2650   44.3790 C   0  0  0  0  0  0  0  0  0  0  0  0
  185.5460   23.2580   45.1890 C   0  0  0  0  0  0  0  0  0  0  0  0
  186.8860   23.8350   44.7940 C   0  0  0  0  0  0  0  0  0  0  0  0
  187.2080   23.6010   43.4900 F   0  0  0  0  0  0  0  0  0  0  0  0
  187.9300   23.3340   45.5170 F   0  0  0  0  0  0  0  0  0  0  0  0
  185.7678   24.4614   49.3909 H   0  0  0  0  0  0  0  0  0  0  0  0
  186.1822   23.0421   48.3708 H   0  0  0  0  0  0  0  0  0  0  0  0
  187.2461   24.4894   48.3708 H   0  0  0  0  0  0  0  0  0  0  0  0
  184.5537   25.2976   47.6987 H   0  0  0  0  0  0  0  0  0  0  0  0
  186.0686   25.3830   46.7026 H   0  0  0  0  0  0  0  0  0  0  0  0
  183.0940   23.3917   47.5789 H   0  0  0  0  0  0  0  0  0  0  0  0
  179.2565   23.7717   48.2479 H   0  0  0  0  0  0  0  0  0  0  0  0
  176.9614   23.0900   48.9596 H   0  0  0  0  0  0  0  0  0  0  0  0
  176.0912   20.8274   48.3707 H   0  0  0  0  0  0  0  0  0  0  0  0
  177.1530   18.7960   46.1560 H   0  0  0  0  0  0  0  0  0  0  0  0
  182.2730   18.4730   45.3110 H   0  0  0  0  0  0  0  0  0  0  0  0
  183.3096   20.9139   44.0543 H   0  0  0  0  0  0  0  0  0  0  0  0
  185.4926   21.9393   43.4681 H   0  0  0  0  0  0  0  0  0  0  0  0
  186.7525   24.9096   44.9872 H   0  0  0  0  0  0  0  0  0  0  0  0
  1  2  1  0
  2  3  1  0
  3  4  2  0
  4  5  1  0
  5  6  1  0
  6  7  1  0
  7  8  1  0
  8  9  2  0
  9 10  1  0
 10 11  2  0
 11 12  1  0
 12 13  1  0
 12 14  2  0
 14 15  1  0
 15 16  2  0
 15 17  1  0
 17 18  1  0
  5 19  2  0
 19 20  1  0
 20 21  2  0
 21 22  1  0
 22 23  1  0
 22 24  1  0
 21  3  1  0
 17  6  2  0
 14  8  1  0
  1 25  1  0
  1 26  1  0
  1 27  1  0
  2 28  1  0
  2 29  1  0
  4 30  1  0
  9 31  1  0
 10 32  1  0
 11 33  1  0
 13 34  1  0
 18 35  1  0
 19 36  1  0
 20 37  1  0
 22 38  1  0
M  END
>  <meeko>  (9) 
{"is_sidechain": [false], "free_energy": -5.224, "intermolecular_energy": -6.638, "internal_energy": -0.186}

$$$$
