DTQ_out
     RDKit          3D

 37 39  0  0  0  0  0  0  0  0999 V2000
   54.1990  152.8250   24.4900 C   0  0  0  0  0  0  0  0  0  0  0  0
   53.1000  153.7240   24.3780 O   0  0  0  0  0  0  0  0  0  0  0  0
   52.9090  154.5760   25.4360 C   0  0  0  0  0  0  0  0  0  0  0  0
   52.3710  153.9500   26.5690 C   0  0  0  0  0  0  0  0  0  0  0  0
   52.1120  154.6350   27.7470 C   0  0  0  0  0  0  0  0  0  0  0  0
   51.5700  153.9680   28.7720 N   0  0  0  0  0  0  0  0  0  0  0  0
   51.3100  154.6700   29.8800 C   0  0  0  0  0  0  0  0  0  0  0  0
   51.5610  155.9680   30.0680 N   0  0  0  0  0  0  0  0  0  0  0  0
   52.1380  156.6150   29.0400 C   0  0  0  0  0  0  0  0  0  0  0  0
   52.4130  157.9780   29.2910 N   0  0  0  0  0  0  0  0  0  0  0  0
   51.5660  158.8890   29.9760 C   0  0  0  0  0  0  0  0  0  0  0  0
   50.1760  158.7220   30.0560 C   0  0  0  0  0  0  0  0  0  0  0  0
   49.3820  159.6720   30.7040 C   0  0  0  0  0  0  0  0  0  0  0  0
   49.9660  160.8070   31.2600 C   0  0  0  0  0  0  0  0  0  0  0  0
   51.3390  160.9910   31.1550 C   0  0  0  0  0  0  0  0  0  0  0  0
   51.8700  162.1220   31.7020 O   0  0  0  0  0  0  0  0  0  0  0  0
   52.1390  160.0510   30.5100 C   0  0  0  0  0  0  0  0  0  0  0  0
   52.4220  155.9950   27.8080 C   0  0  0  0  0  0  0  0  0  0  0  0
   52.9680  156.6370   26.6620 C   0  0  0  0  0  0  0  0  0  0  0  0
   53.2410  155.9330   25.4860 C   0  0  0  0  0  0  0  0  0  0  0  0
   53.8220  156.4990   24.3840 O   0  0  0  0  0  0  0  0  0  0  0  0
   55.2390  156.6360   24.3840 C   0  0  0  0  0  0  0  0  0  0  0  0
   54.4188  152.6452   25.5527 H   0  0  0  0  0  0  0  0  0  0  0  0
   53.9448  151.8726   24.0019 H   0  0  0  0  0  0  0  0  0  0  0  0
   55.0822  153.2629   24.0019 H   0  0  0  0  0  0  0  0  0  0  0  0
   52.1456  152.8744   26.5221 H   0  0  0  0  0  0  0  0  0  0  0  0
   50.8452  154.1267   30.7159 H   0  0  0  0  0  0  0  0  0  0  0  0
   53.2720  158.3290   28.9630 H   0  0  0  0  0  0  0  0  0  0  0  0
   49.7065  157.8355   29.6047 H   0  0  0  0  0  0  0  0  0  0  0  0
   48.2945  159.5229   30.7749 H   0  0  0  0  0  0  0  0  0  0  0  0
   49.3450  161.5524   31.7785 H   0  0  0  0  0  0  0  0  0  0  0  0
   51.3050  162.7990   32.0190 H   0  0  0  0  0  0  0  0  0  0  0  0
   53.2220  160.2209   30.4196 H   0  0  0  0  0  0  0  0  0  0  0  0
   53.1808  157.7154   26.7025 H   0  0  0  0  0  0  0  0  0  0  0  0
   55.6040  156.6713   25.4211 H   0  0  0  0  0  0  0  0  0  0  0  0
   55.6904  155.7773   23.8655 H   0  0  0  0  0  0  0  0  0  0  0  0
   55.5175  157.5653   23.8655 H   0  0  0  0  0  0  0  0  0  0  0  0
  1  2  1  0
  2  3  1  0
  3  4  2  0
  4  5  1  0
  5  6  2  0
  6  7  1  0
  7  8  2  0
  8  9  1  0
  9 10  1  0
 10 11  1  0
 11 12  2  0
 12 13  1  0
 13 14  2  0
 14 15  1  0
 15 16  1  0
 15 17  2  0
  9 18  2  0
 18 19  1  0
 19 20  2  0
 20 21  1  0
 21 22  1  0
 20  3  1  0
 18  5  1  0
 17 11  1  0
  1 23  1  0
  1 24  1  0
  1 25  1  0
  4 26  1  0
  7 27  1  0
 10 28  1  0
 12 29  1  0
 13 30  1  0
 14 31  1  0
 16 32  1  0
 17 33  1  0
 19 34  1  0
 22 35  1  0
 22 36  1  0
 22 37  1  0
M  END
>  <meeko>  (1) 
{"is_sidechain": [false], "free_energy": -9.014, "intermolecular_energy": -11.385, "internal_energy": -0.275}

$$$$
DTQ_out
     RDKit          3D

 37 39  0  0  0  0  0  0  0  0999 V2000
   54.1410  153.0430   24.2730 C   0  0  0  0  0  0  0  0  0  0  0  0
   53.0420  153.9470   24.2290 O   0  0  0  0  0  0  0  0  0  0  0  0
   52.8640  154.7330   25.3380 C   0  0  0  0  0  0  0  0  0  0  0  0
   52.3280  154.0420   26.4350 C   0  0  0  0  0  0  0  0  0  0  0  0
   52.0820  154.6550   27.6540 C   0  0  0  0  0  0  0  0  0  0  0  0
   51.5410  153.9310   28.6400 N   0  0  0  0  0  0  0  0  0  0  0  0
   51.2940  154.5650   29.7910 C   0  0  0  0  0  0  0  0  0  0  0  0
   51.5560  155.8470   30.0570 N   0  0  0  0  0  0  0  0  0  0  0  0
   52.1310  156.5510   29.0670 C   0  0  0  0  0  0  0  0  0  0  0  0
   52.4190  157.8950   29.4000 N   0  0  0  0  0  0  0  0  0  0  0  0
   51.5070  158.8310   29.9560 C   0  0  0  0  0  0  0  0  0  0  0  0
   51.9060  160.0860   30.4390 C   0  0  0  0  0  0  0  0  0  0  0  0
   50.9750  160.9520   31.0180 C   0  0  0  0  0  0  0  0  0  0  0  0
   49.6430  160.5660   31.1370 C   0  0  0  0  0  0  0  0  0  0  0  0
   49.2500  159.3110   30.6880 C   0  0  0  0  0  0  0  0  0  0  0  0
   47.9390  158.9670   30.8350 O   0  0  0  0  0  0  0  0  0  0  0  0
   50.1710  158.4390   30.1120 C   0  0  0  0  0  0  0  0  0  0  0  0
   52.4030  156.0070   27.7970 C   0  0  0  0  0  0  0  0  0  0  0  0
   52.9470  156.7140   26.6890 C   0  0  0  0  0  0  0  0  0  0  0  0
   53.2070  156.0820   25.4700 C   0  0  0  0  0  0  0  0  0  0  0  0
   53.7860  156.7110   24.4010 O   0  0  0  0  0  0  0  0  0  0  0  0
   55.2080  156.7090   24.3270 C   0  0  0  0  0  0  0  0  0  0  0  0
   54.3993  152.8305   25.3209 H   0  0  0  0  0  0  0  0  0  0  0  0
   53.8659  152.1064   23.7660 H   0  0  0  0  0  0  0  0  0  0  0  0
   55.0070  153.4936   23.7660 H   0  0  0  0  0  0  0  0  0  0  0  0
   52.0940  152.9730   26.3237 H   0  0  0  0  0  0  0  0  0  0  0  0
   50.8310  153.9743   30.5952 H   0  0  0  0  0  0  0  0  0  0  0  0
   53.3360  158.2100   29.2320 H   0  0  0  0  0  0  0  0  0  0  0  0
   52.9601  160.3907   30.3613 H   0  0  0  0  0  0  0  0  0  0  0  0
   51.2950  161.9401   31.3803 H   0  0  0  0  0  0  0  0  0  0  0  0
   48.9062  161.2499   31.5836 H   0  0  0  0  0  0  0  0  0  0  0  0
   47.3790  159.4800   31.3840 H   0  0  0  0  0  0  0  0  0  0  0  0
   49.8489  157.4413   29.7792 H   0  0  0  0  0  0  0  0  0  0  0  0
   53.1688  157.7862   26.7944 H   0  0  0  0  0  0  0  0  0  0  0  0
   55.6281  156.7084   25.3436 H   0  0  0  0  0  0  0  0  0  0  0  0
   55.5460  155.8104   23.7901 H   0  0  0  0  0  0  0  0  0  0  0  0
   55.5485  157.6067   23.7901 H   0  0  0  0  0  0  0  0  0  0  0  0
  1  2  1  0
  2  3  1  0
  3  4  2  0
  4  5  1  0
  5  6  2  0
  6  7  1  0
  7  8  2  0
  8  9  1  0
  9 10  1  0
 10 11  1  0
 11 12  2  0
 12 13  1  0
 13 14  2  0
 14 15  1  0
 15 16  1  0
 15 17  2  0
  9 18  2  0
 18 19  1  0
 19 20  2  0
 20 21  1  0
 21 22  1  0
 20  3  1  0
 18  5  1  0
 17 11  1  0
  1 23  1  0
  1 24  1  0
  1 25  1  0
  4 26  1  0
  7 27  1  0
 10 28  1  0
 12 29  1  0
 13 30  1  0
 14 31  1  0
 16 32  1  0
 17 33  1  0
 19 34  1  0
 22 35  1  0
 22 36  1  0
 22 37  1  0
M  END
>  <meeko>  (2) 
{"is_sidechain": [false], "free_energy": -8.899, "intermolecular_energy": -11.367, "internal_energy": -0.149}

$$$$
DTQ_out
     RDKit          3D

 37 39  0  0  0  0  0  0  0  0999 V2000
   48.2100  160.6190   32.3120 C   0  0  0  0  0  0  0  0  0  0  0  0
   49.3110  160.9860   31.4880 O   0  0  0  0  0  0  0  0  0  0  0  0
   49.9760  159.9540   30.8760 C   0  0  0  0  0  0  0  0  0  0  0  0
   49.1820  158.8150   30.6810 C   0  0  0  0  0  0  0  0  0  0  0  0
   49.6640  157.6670   30.0700 C   0  0  0  0  0  0  0  0  0  0  0  0
   48.8500  156.6130   29.9490 N   0  0  0  0  0  0  0  0  0  0  0  0
   49.3600  155.5170   29.3790 C   0  0  0  0  0  0  0  0  0  0  0  0
   50.5990  155.3810   28.8990 N   0  0  0  0  0  0  0  0  0  0  0  0
   51.3930  156.4620   28.9970 C   0  0  0  0  0  0  0  0  0  0  0  0
   52.6850  156.2860   28.4500 N   0  0  0  0  0  0  0  0  0  0  0  0
   53.0050  155.5310   27.2900 C   0  0  0  0  0  0  0  0  0  0  0  0
   53.2050  156.1170   26.0320 C   0  0  0  0  0  0  0  0  0  0  0  0
   53.4750  155.3240   24.9140 C   0  0  0  0  0  0  0  0  0  0  0  0
   53.5280  153.9380   25.0380 C   0  0  0  0  0  0  0  0  0  0  0  0
   53.3000  153.3520   26.2770 C   0  0  0  0  0  0  0  0  0  0  0  0
   53.3490  151.9920   26.3530 O   0  0  0  0  0  0  0  0  0  0  0  0
   53.0280  154.1330   27.3970 C   0  0  0  0  0  0  0  0  0  0  0  0
   50.9850  157.6600   29.6130 C   0  0  0  0  0  0  0  0  0  0  0  0
   51.7940  158.8120   29.8080 C   0  0  0  0  0  0  0  0  0  0  0  0
   51.2940  159.9700   30.4090 C   0  0  0  0  0  0  0  0  0  0  0  0
   52.0210  161.1190   30.5600 O   0  0  0  0  0  0  0  0  0  0  0  0
   51.8360  161.8630   31.7600 C   0  0  0  0  0  0  0  0  0  0  0  0
   48.4960  160.7143   33.3699 H   0  0  0  0  0  0  0  0  0  0  0  0
   47.3576  161.2816   32.1015 H   0  0  0  0  0  0  0  0  0  0  0  0
   47.9256  159.5775   32.1015 H   0  0  0  0  0  0  0  0  0  0  0  0
   48.1375  158.8326   31.0256 H   0  0  0  0  0  0  0  0  0  0  0  0
   48.6961  154.6437   29.2974 H   0  0  0  0  0  0  0  0  0  0  0  0
   53.4310  156.7280   28.9150 H   0  0  0  0  0  0  0  0  0  0  0  0
   53.1488  157.2103   25.9245 H   0  0  0  0  0  0  0  0  0  0  0  0
   53.6459  155.7949   23.9347 H   0  0  0  0  0  0  0  0  0  0  0  0
   53.7488  153.3115   24.1612 H   0  0  0  0  0  0  0  0  0  0  0  0
   52.8750  151.5430   27.0260 H   0  0  0  0  0  0  0  0  0  0  0  0
   52.8309  153.6529   28.3669 H   0  0  0  0  0  0  0  0  0  0  0  0
   52.8427  158.7914   29.4767 H   0  0  0  0  0  0  0  0  0  0  0  0
   51.9993  161.2064   32.6273 H   0  0  0  0  0  0  0  0  0  0  0  0
   52.5545  162.6954   31.7898 H   0  0  0  0  0  0  0  0  0  0  0  0
   50.8113  162.2619   31.7898 H   0  0  0  0  0  0  0  0  0  0  0  0
  1  2  1  0
  2  3  1  0
  3  4  2  0
  4  5  1  0
  5  6  2  0
  6  7  1  0
  7  8  2  0
  8  9  1  0
  9 10  1  0
 10 11  1  0
 11 12  2  0
 12 13  1  0
 13 14  2  0
 14 15  1  0
 15 16  1  0
 15 17  2  0
  9 18  2  0
 18 19  1  0
 19 20  2  0
 20 21  1  0
 21 22  1  0
 20  3  1  0
 18  5  1  0
 17 11  1  0
  1 23  1  0
  1 24  1  0
  1 25  1  0
  4 26  1  0
  7 27  1  0
 10 28  1  0
 12 29  1  0
 13 30  1  0
 14 31  1  0
 16 32  1  0
 17 33  1  0
 19 34  1  0
 22 35  1  0
 22 36  1  0
 22 37  1  0
M  END
>  <meeko>  (3) 
{"is_sidechain": [false], "free_energy": -7.245, "intermolecular_energy": -9.869, "internal_energy": 0.443}

$$$$
DTQ_out
     RDKit          3D

 37 39  0  0  0  0  0  0  0  0999 V2000
   54.3220  152.9660   23.0640 C   0  0  0  0  0  0  0  0  0  0  0  0
   54.5830  154.2840   23.5350 O   0  0  0  0  0  0  0  0  0  0  0  0
   54.0690  154.5970   24.7680 C   0  0  0  0  0  0  0  0  0  0  0  0
   53.4140  153.5240   25.3900 C   0  0  0  0  0  0  0  0  0  0  0  0
   52.8350  153.6310   26.6450 C   0  0  0  0  0  0  0  0  0  0  0  0
   52.2040  152.5680   27.1540 N   0  0  0  0  0  0  0  0  0  0  0  0
   51.6350  152.7200   28.3550 C   0  0  0  0  0  0  0  0  0  0  0  0
   51.6560  153.8260   29.1030 N   0  0  0  0  0  0  0  0  0  0  0  0
   52.3250  154.8740   28.5910 C   0  0  0  0  0  0  0  0  0  0  0  0
   52.3480  156.0130   29.4280 N   0  0  0  0  0  0  0  0  0  0  0  0
   51.2520  156.8760   29.6950 C   0  0  0  0  0  0  0  0  0  0  0  0
   49.9280  156.4210   29.7780 C   0  0  0  0  0  0  0  0  0  0  0  0
   48.8810  157.3200   29.9990 C   0  0  0  0  0  0  0  0  0  0  0  0
   49.1440  158.6810   30.1190 C   0  0  0  0  0  0  0  0  0  0  0  0
   50.4500  159.1390   30.0060 C   0  0  0  0  0  0  0  0  0  0  0  0
   50.6640  160.4810   30.1170 O   0  0  0  0  0  0  0  0  0  0  0  0
   51.5010  158.2520   29.7840 C   0  0  0  0  0  0  0  0  0  0  0  0
   52.9300  154.8510   27.3200 C   0  0  0  0  0  0  0  0  0  0  0  0
   53.5920  155.9420   26.6950 C   0  0  0  0  0  0  0  0  0  0  0  0
   54.1880  155.8180   25.4370 C   0  0  0  0  0  0  0  0  0  0  0  0
   54.8860  156.8250   24.8290 O   0  0  0  0  0  0  0  0  0  0  0  0
   54.2740  157.4760   23.7200 C   0  0  0  0  0  0  0  0  0  0  0  0
   54.1881  152.2900   23.9214 H   0  0  0  0  0  0  0  0  0  0  0  0
   53.4071  152.9693   22.4534 H   0  0  0  0  0  0  0  0  0  0  0  0
   55.1691  152.6204   22.4534 H   0  0  0  0  0  0  0  0  0  0  0  0
   53.3576  152.5608   24.8618 H   0  0  0  0  0  0  0  0  0  0  0  0
   51.0989  151.8516   28.7654 H   0  0  0  0  0  0  0  0  0  0  0  0
   53.2020  156.2280   29.8670 H   0  0  0  0  0  0  0  0  0  0  0  0
   49.7119  155.3480   29.6683 H   0  0  0  0  0  0  0  0  0  0  0  0
   47.8477  156.9511   30.0782 H   0  0  0  0  0  0  0  0  0  0  0  0
   48.3228  159.3895   30.3022 H   0  0  0  0  0  0  0  0  0  0  0  0
   51.1390  160.8210   30.8500 H   0  0  0  0  0  0  0  0  0  0  0  0
   52.5277  158.6323   29.6784 H   0  0  0  0  0  0  0  0  0  0  0  0
   53.6366  156.9101   27.2153 H   0  0  0  0  0  0  0  0  0  0  0  0
   53.5633  158.2320   24.0851 H   0  0  0  0  0  0  0  0  0  0  0  0
   55.0474  157.9646   23.1091 H   0  0  0  0  0  0  0  0  0  0  0  0
   53.7386  156.7342   23.1091 H   0  0  0  0  0  0  0  0  0  0  0  0
  1  2  1  0
  2  3  1  0
  3  4  2  0
  4  5  1  0
  5  6  2  0
  6  7  1  0
  7  8  2  0
  8  9  1  0
  9 10  1  0
 10 11  1  0
 11 12  2  0
 12 13  1  0
 13 14  2  0
 14 15  1  0
 15 16  1  0
 15 17  2  0
  9 18  2  0
 18 19  1  0
 19 20  2  0
 20 21  1  0
 21 22  1  0
 20  3  1  0
 18  5  1  0
 17 11  1  0
  1 23  1  0
  1 24  1  0
  1 25  1  0
  4 26  1  0
  7 27  1  0
 10 28  1  0
 12 29  1  0
 13 30  1  0
 14 31  1  0
 16 32  1  0
 17 33  1  0
 19 34  1  0
 22 35  1  0
 22 36  1  0
 22 37  1  0
M  END
>  <meeko>  (4) 
{"is_sidechain": [false], "free_energy": -6.902, "intermolecular_energy": -8.707, "internal_energy": -0.287}

$$$$
DTQ_out
     RDKit          3D

 37 39  0  0  0  0  0  0  0  0999 V2000
   54.0640  151.8940   24.1400 C   0  0  0  0  0  0  0  0  0  0  0  0
   53.2990  151.5710   25.2960 O   0  0  0  0  0  0  0  0  0  0  0  0
   53.0110  152.6140   26.1380 C   0  0  0  0  0  0  0  0  0  0  0  0
   53.4640  153.8550   25.6690 C   0  0  0  0  0  0  0  0  0  0  0  0
   53.2630  155.0350   26.3680 C   0  0  0  0  0  0  0  0  0  0  0  0
   53.7550  156.1730   25.8650 N   0  0  0  0  0  0  0  0  0  0  0  0
   53.5630  157.2840   26.5820 C   0  0  0  0  0  0  0  0  0  0  0  0
   52.9100  157.3710   27.7440 N   0  0  0  0  0  0  0  0  0  0  0  0
   52.3920  156.2240   28.2180 C   0  0  0  0  0  0  0  0  0  0  0  0
   51.6840  156.3650   29.4330 N   0  0  0  0  0  0  0  0  0  0  0  0
   50.9680  157.5170   29.8540 C   0  0  0  0  0  0  0  0  0  0  0  0
   49.5840  157.5120   30.0810 C   0  0  0  0  0  0  0  0  0  0  0  0
   48.9210  158.6850   30.4510 C   0  0  0  0  0  0  0  0  0  0  0  0
   49.6290  159.8770   30.5800 C   0  0  0  0  0  0  0  0  0  0  0  0
   50.9950  159.8920   30.3260 C   0  0  0  0  0  0  0  0  0  0  0  0
   51.6500  161.0810   30.4510 O   0  0  0  0  0  0  0  0  0  0  0  0
   51.6660  158.7290   29.9540 C   0  0  0  0  0  0  0  0  0  0  0  0
   52.5620  154.9830   27.5760 C   0  0  0  0  0  0  0  0  0  0  0  0
   52.0990  153.7280   28.0570 C   0  0  0  0  0  0  0  0  0  0  0  0
   52.2920  152.5470   27.3360 C   0  0  0  0  0  0  0  0  0  0  0  0
   51.8100  151.3300   27.7340 O   0  0  0  0  0  0  0  0  0  0  0  0
   51.1020  151.2740   28.9690 C   0  0  0  0  0  0  0  0  0  0  0  0
   55.0370  152.3048   24.4473 H   0  0  0  0  0  0  0  0  0  0  0  0
   54.2224  150.9860   23.5397 H   0  0  0  0  0  0  0  0  0  0  0  0
   53.5237  152.6408   23.5397 H   0  0  0  0  0  0  0  0  0  0  0  0
   53.9997  153.8939   24.7091 H   0  0  0  0  0  0  0  0  0  0  0  0
   53.9829  158.2163   26.1765 H   0  0  0  0  0  0  0  0  0  0  0  0
   51.6850  155.5930   30.0440 H   0  0  0  0  0  0  0  0  0  0  0  0
   49.0158  156.5770   29.9668 H   0  0  0  0  0  0  0  0  0  0  0  0
   47.8376  158.6667   30.6407 H   0  0  0  0  0  0  0  0  0  0  0  0
   49.1110  160.7996   30.8806 H   0  0  0  0  0  0  0  0  0  0  0  0
   52.5570  161.0940   30.6850 H   0  0  0  0  0  0  0  0  0  0  0  0
   52.7442  158.7616   29.7386 H   0  0  0  0  0  0  0  0  0  0  0  0
   51.5746  153.6856   29.0230 H   0  0  0  0  0  0  0  0  0  0  0  0
   51.8160  151.3305   29.8039 H   0  0  0  0  0  0  0  0  0  0  0  0
   50.4008  152.1195   29.0284 H   0  0  0  0  0  0  0  0  0  0  0  0
   50.5425  150.3288   29.0284 H   0  0  0  0  0  0  0  0  0  0  0  0
  1  2  1  0
  2  3  1  0
  3  4  2  0
  4  5  1  0
  5  6  2  0
  6  7  1  0
  7  8  2  0
  8  9  1  0
  9 10  1  0
 10 11  1  0
 11 12  2  0
 12 13  1  0
 13 14  2  0
 14 15  1  0
 15 16  1  0
 15 17  2  0
  9 18  2  0
 18 19  1  0
 19 20  2  0
 20 21  1  0
 21 22  1  0
 20  3  1  0
 18  5  1  0
 17 11  1  0
  1 23  1  0
  1 24  1  0
  1 25  1  0
  4 26  1  0
  7 27  1  0
 10 28  1  0
 12 29  1  0
 13 30  1  0
 14 31  1  0
 16 32  1  0
 17 33  1  0
 19 34  1  0
 22 35  1  0
 22 36  1  0
 22 37  1  0
M  END
>  <meeko>  (5) 
{"is_sidechain": [false], "free_energy": -6.716, "intermolecular_energy": -8.806, "internal_energy": 0.048}

$$$$
DTQ_out
     RDKit          3D

 37 39  0  0  0  0  0  0  0  0999 V2000
   49.5940  161.4620   33.2450 C   0  0  0  0  0  0  0  0  0  0  0  0
   49.2670  161.3510   31.8640 O   0  0  0  0  0  0  0  0  0  0  0  0
   49.6460  160.1870   31.2470 C   0  0  0  0  0  0  0  0  0  0  0  0
   50.9630  160.2120   30.7650 C   0  0  0  0  0  0  0  0  0  0  0  0
   51.5400  159.1300   30.1190 C   0  0  0  0  0  0  0  0  0  0  0  0
   52.7920  159.2480   29.6630 N   0  0  0  0  0  0  0  0  0  0  0  0
   53.3040  158.1920   29.0220 C   0  0  0  0  0  0  0  0  0  0  0  0
   52.6920  157.0230   28.8120 N   0  0  0  0  0  0  0  0  0  0  0  0
   51.4470  156.9110   29.3070 C   0  0  0  0  0  0  0  0  0  0  0  0
   50.8470  155.6490   29.0890 N   0  0  0  0  0  0  0  0  0  0  0  0
   51.3520  154.6170   28.2550 C   0  0  0  0  0  0  0  0  0  0  0  0
   51.6160  153.3210   28.7240 C   0  0  0  0  0  0  0  0  0  0  0  0
   52.1550  152.3540   27.8710 C   0  0  0  0  0  0  0  0  0  0  0  0
   52.4520  152.6760   26.5500 C   0  0  0  0  0  0  0  0  0  0  0  0
   52.2210  153.9670   26.0910 C   0  0  0  0  0  0  0  0  0  0  0  0
   52.5380  154.2450   24.7950 O   0  0  0  0  0  0  0  0  0  0  0  0
   51.6860  154.9390   26.9330 C   0  0  0  0  0  0  0  0  0  0  0  0
   50.7850  157.9650   29.9640 C   0  0  0  0  0  0  0  0  0  0  0  0
   49.4500  157.9320   30.4510 C   0  0  0  0  0  0  0  0  0  0  0  0
   48.8820  159.0230   31.1160 C   0  0  0  0  0  0  0  0  0  0  0  0
   47.6240  159.0100   31.6530 O   0  0  0  0  0  0  0  0  0  0  0  0
   46.7110  160.0110   31.2150 C   0  0  0  0  0  0  0  0  0  0  0  0
   48.7255  161.1672   33.8523 H   0  0  0  0  0  0  0  0  0  0  0  0
   50.4433  160.8018   33.4749 H   0  0  0  0  0  0  0  0  0  0  0  0
   49.8659  162.5028   33.4749 H   0  0  0  0  0  0  0  0  0  0  0  0
   51.5605  161.1249   30.9050 H   0  0  0  0  0  0  0  0  0  0  0  0
   54.3266  158.2956   28.6302 H   0  0  0  0  0  0  0  0  0  0  0  0
   50.0020  155.4690   29.5600 H   0  0  0  0  0  0  0  0  0  0  0  0
   51.3970  153.0643   29.7710 H   0  0  0  0  0  0  0  0  0  0  0  0
   52.3448  151.3368   28.2443 H   0  0  0  0  0  0  0  0  0  0  0  0
   52.8667  151.9138   25.8740 H   0  0  0  0  0  0  0  0  0  0  0  0
   52.0570  154.8980   24.3250 H   0  0  0  0  0  0  0  0  0  0  0  0
   51.5255  155.9611   26.5594 H   0  0  0  0  0  0  0  0  0  0  0  0
   48.8476  157.0239   30.3007 H   0  0  0  0  0  0  0  0  0  0  0  0
   46.2609  160.5045   32.0890 H   0  0  0  0  0  0  0  0  0  0  0  0
   47.2470  160.7562   30.6088 H   0  0  0  0  0  0  0  0  0  0  0  0
   45.9198  159.5457   30.6088 H   0  0  0  0  0  0  0  0  0  0  0  0
  1  2  1  0
  2  3  1  0
  3  4  2  0
  4  5  1  0
  5  6  2  0
  6  7  1  0
  7  8  2  0
  8  9  1  0
  9 10  1  0
 10 11  1  0
 11 12  2  0
 12 13  1  0
 13 14  2  0
 14 15  1  0
 15 16  1  0
 15 17  2  0
  9 18  2  0
 18 19  1  0
 19 20  2  0
 20 21  1  0
 21 22  1  0
 20  3  1  0
 18  5  1  0
 17 11  1  0
  1 23  1  0
  1 24  1  0
  1 25  1  0
  4 26  1  0
  7 27  1  0
 10 28  1  0
 12 29  1  0
 13 30  1  0
 14 31  1  0
 16 32  1  0
 17 33  1  0
 19 34  1  0
 22 35  1  0
 22 36  1  0
 22 37  1  0
M  END
>  <meeko>  (6) 
{"is_sidechain": [false], "free_energy": -6.662, "intermolecular_energy": -8.917, "internal_energy": 0.227}

$$$$
