kaempferol_maoa_out
     RDKit          3D

 31 33  0  0  0  0  0  0  0  0999 V2000
   52.5610  160.4290   30.3580 O   0  0  0  0  0  0  0  0  0  0  0  0
   51.7800  159.4980   30.1760 C   0  0  0  0  0  0  0  0  0  0  0  0
   52.2450  158.2340   29.5620 C   0  0  0  0  0  0  0  0  0  0  0  0
   53.5840  158.1550   29.2230 O   0  0  0  0  0  0  0  0  0  0  0  0
   51.3560  157.2390   29.3830 C   0  0  0  0  0  0  0  0  0  0  0  0
   51.7100  155.9290   28.7940 C   0  0  0  0  0  0  0  0  0  0  0  0
   51.5210  154.7280   29.4960 C   0  0  0  0  0  0  0  0  0  0  0  0
   51.8840  153.5020   28.9300 C   0  0  0  0  0  0  0  0  0  0  0  0
   52.4450  153.4750   27.6580 C   0  0  0  0  0  0  0  0  0  0  0  0
   52.8120  152.3020   27.0680 O   0  0  0  0  0  0  0  0  0  0  0  0
   52.6510  154.6490   26.9490 C   0  0  0  0  0  0  0  0  0  0  0  0
   52.2870  155.8740   27.5160 C   0  0  0  0  0  0  0  0  0  0  0  0
   50.0180  157.3220   29.7530 O   0  0  0  0  0  0  0  0  0  0  0  0
   49.5550  158.4820   30.3180 C   0  0  0  0  0  0  0  0  0  0  0  0
   48.2040  158.5270   30.6620 C   0  0  0  0  0  0  0  0  0  0  0  0
   47.6820  159.6800   31.2410 C   0  0  0  0  0  0  0  0  0  0  0  0
   46.3570  159.6810   31.5630 O   0  0  0  0  0  0  0  0  0  0  0  0
   48.4850  160.7920   31.4800 C   0  0  0  0  0  0  0  0  0  0  0  0
   49.8330  160.7420   31.1340 C   0  0  0  0  0  0  0  0  0  0  0  0
   50.5770  161.8620   31.3910 O   0  0  0  0  0  0  0  0  0  0  0  0
   50.3680  159.5870   30.5530 C   0  0  0  0  0  0  0  0  0  0  0  0
   53.9980  157.3180   29.1440 H   0  0  0  0  0  0  0  0  0  0  0  0
   51.0817  154.7517   30.5042 H   0  0  0  0  0  0  0  0  0  0  0  0
   51.7270  152.5663   29.4866 H   0  0  0  0  0  0  0  0  0  0  0  0
   52.2940  151.9440   26.3730 H   0  0  0  0  0  0  0  0  0  0  0  0
   53.0989  154.6165   25.9448 H   0  0  0  0  0  0  0  0  0  0  0  0
   52.4547  156.8048   26.9543 H   0  0  0  0  0  0  0  0  0  0  0  0
   47.5559  157.6576   30.4770 H   0  0  0  0  0  0  0  0  0  0  0  0
   45.8620  158.8870   31.5110 H   0  0  0  0  0  0  0  0  0  0  0  0
   48.0602  161.6983   31.9362 H   0  0  0  0  0  0  0  0  0  0  0  0
   50.3000  162.6940   31.0620 H   0  0  0  0  0  0  0  0  0  0  0  0
  1  2  2  0
  2  3  1  0
  3  4  1  0
  3  5  2  0
  5  6  1  0
  6  7  2  0
  7  8  1  0
  8  9  2  0
  9 10  1  0
  9 11  1  0
 11 12  2  0
  5 13  1  0
 13 14  1  0
 14 15  2  0
 15 16  1  0
 16 17  1  0
 16 18  2  0
 18 19  1  0
 19 20  1  0
 19 21  2  0
 21  2  1  0
 12  6  1  0
 21 14  1  0
  4 22  1  0
  7 23  1  0
  8 24  1  0
 10 25  1  0
 11 26  1  0
 12 27  1  0
 15 28  1  0
 17 29  1  0
 18 30  1  0
 20 31  1  0
M  END
>  <meeko>  (1) 
{"is_sidechain": [false], "free_energy": -9.711, "intermolecular_energy": -11.414, "internal_energy": -0.094}

$$$$
kaempferol_maoa_out
     RDKit          3D

 31 33  0  0  0  0  0  0  0  0999 V2000
   52.2480  152.8650   28.8260 O   0  0  0  0  0  0  0  0  0  0  0  0
   52.3230  154.0320   28.4480 C   0  0  0  0  0  0  0  0  0  0  0  0
   51.7250  155.1230   29.2500 C   0  0  0  0  0  0  0  0  0  0  0  0
   51.1010  154.7670   30.4310 O   0  0  0  0  0  0  0  0  0  0  0  0
   51.8340  156.3870   28.7990 C   0  0  0  0  0  0  0  0  0  0  0  0
   51.2890  157.5570   29.5200 C   0  0  0  0  0  0  0  0  0  0  0  0
   49.9830  157.5650   30.0370 C   0  0  0  0  0  0  0  0  0  0  0  0
   49.4790  158.6910   30.6950 C   0  0  0  0  0  0  0  0  0  0  0  0
   50.2790  159.8190   30.8330 C   0  0  0  0  0  0  0  0  0  0  0  0
   49.8290  160.9370   31.4680 O   0  0  0  0  0  0  0  0  0  0  0  0
   51.5690  159.8390   30.3220 C   0  0  0  0  0  0  0  0  0  0  0  0
   52.0720  158.7130   29.6640 C   0  0  0  0  0  0  0  0  0  0  0  0
   52.4870  156.7350   27.6210 O   0  0  0  0  0  0  0  0  0  0  0  0
   53.0450  155.7450   26.8530 C   0  0  0  0  0  0  0  0  0  0  0  0
   53.6800  156.1370   25.6750 C   0  0  0  0  0  0  0  0  0  0  0  0
   54.2650  155.1730   24.8580 C   0  0  0  0  0  0  0  0  0  0  0  0
   54.8760  155.5990   23.7160 O   0  0  0  0  0  0  0  0  0  0  0  0
   54.2260  153.8230   25.1980 C   0  0  0  0  0  0  0  0  0  0  0  0
   53.5900  153.4380   26.3750 C   0  0  0  0  0  0  0  0  0  0  0  0
   53.5820  152.0990   26.6600 O   0  0  0  0  0  0  0  0  0  0  0  0
   53.0000  154.3990   27.2030 C   0  0  0  0  0  0  0  0  0  0  0  0
   50.9790  153.8620   30.6410 H   0  0  0  0  0  0  0  0  0  0  0  0
   49.3485  156.6738   29.9227 H   0  0  0  0  0  0  0  0  0  0  0  0
   48.4565  158.6841   31.1006 H   0  0  0  0  0  0  0  0  0  0  0  0
   50.4110  161.6550   31.6230 H   0  0  0  0  0  0  0  0  0  0  0  0
   52.1934  160.7376   30.4343 H   0  0  0  0  0  0  0  0  0  0  0  0
   53.0927  158.7331   29.2545 H   0  0  0  0  0  0  0  0  0  0  0  0
   53.7185  157.1996   25.3933 H   0  0  0  0  0  0  0  0  0  0  0  0
   55.1460  154.9760   23.0700 H   0  0  0  0  0  0  0  0  0  0  0  0
   54.6918  153.0705   24.5448 H   0  0  0  0  0  0  0  0  0  0  0  0
   54.2550  151.5430   26.3210 H   0  0  0  0  0  0  0  0  0  0  0  0
  1  2  2  0
  2  3  1  0
  3  4  1  0
  3  5  2  0
  5  6  1  0
  6  7  2  0
  7  8  1  0
  8  9  2  0
  9 10  1  0
  9 11  1  0
 11 12  2  0
  5 13  1  0
 13 14  1  0
 14 15  2  0
 15 16  1  0
 16 17  1  0
 16 18  2  0
 18 19  1  0
 19 20  1  0
 19 21  2  0
 21  2  1  0
 12  6  1  0
 21 14  1  0
  4 22  1  0
  7 23  1  0
  8 24  1  0
 10 25  1  0
 11 26  1  0
 12 27  1  0
 15 28  1  0
 17 29  1  0
 18 30  1  0
 20 31  1  0
M  END
>  <meeko>  (2) 
{"is_sidechain": [false], "free_energy": -9.696, "intermolecular_energy": -11.471, "internal_energy": -0.019}

$$$$
kaempferol_maoa_out
     RDKit          3D

 31 33  0  0  0  0  0  0  0  0999 V2000
   47.6030  158.3550   30.4690 O   0  0  0  0  0  0  0  0  0  0  0  0
   48.8210  158.3350   30.3030 C   0  0  0  0  0  0  0  0  0  0  0  0
   49.4800  157.1550   29.6990 C   0  0  0  0  0  0  0  0  0  0  0  0
   48.6640  156.1020   29.3260 O   0  0  0  0  0  0  0  0  0  0  0  0
   50.8150  157.1790   29.5340 C   0  0  0  0  0  0  0  0  0  0  0  0
   51.5790  156.0660   28.9300 C   0  0  0  0  0  0  0  0  0  0  0  0
   52.3570  156.2440   27.7750 C   0  0  0  0  0  0  0  0  0  0  0  0
   53.0530  155.1730   27.2060 C   0  0  0  0  0  0  0  0  0  0  0  0
   52.9650  153.9130   27.7880 C   0  0  0  0  0  0  0  0  0  0  0  0
   53.6270  152.8420   27.2670 O   0  0  0  0  0  0  0  0  0  0  0  0
   52.1940  153.7090   28.9230 C   0  0  0  0  0  0  0  0  0  0  0  0
   51.4990  154.7810   29.4910 C   0  0  0  0  0  0  0  0  0  0  0  0
   51.6210  158.2550   29.8900 O   0  0  0  0  0  0  0  0  0  0  0  0
   51.0400  159.3600   30.4580 C   0  0  0  0  0  0  0  0  0  0  0  0
   51.8850  160.4120   30.8100 C   0  0  0  0  0  0  0  0  0  0  0  0
   51.3490  161.5580   31.3890 C   0  0  0  0  0  0  0  0  0  0  0  0
   52.2100  162.5630   31.7180 O   0  0  0  0  0  0  0  0  0  0  0  0
   49.9810  161.6730   31.6240 C   0  0  0  0  0  0  0  0  0  0  0  0
   49.1420  160.6190   31.2720 C   0  0  0  0  0  0  0  0  0  0  0  0
   47.8070  160.7840   31.5250 O   0  0  0  0  0  0  0  0  0  0  0  0
   49.6710  159.4630   30.6880 C   0  0  0  0  0  0  0  0  0  0  0  0
   48.9480  155.5030   28.6640 H   0  0  0  0  0  0  0  0  0  0  0  0
   52.4199  157.2395   27.3114 H   0  0  0  0  0  0  0  0  0  0  0  0
   53.6654  155.3259   26.3051 H   0  0  0  0  0  0  0  0  0  0  0  0
   54.5000  152.9430   26.9410 H   0  0  0  0  0  0  0  0  0  0  0  0
   52.1297  152.7079   29.3743 H   0  0  0  0  0  0  0  0  0  0  0  0
   50.8828  154.6161   30.3871 H   0  0  0  0  0  0  0  0  0  0  0  0
   52.9677  160.3363   30.6312 H   0  0  0  0  0  0  0  0  0  0  0  0
   52.5590  163.1180   31.0480 H   0  0  0  0  0  0  0  0  0  0  0  0
   49.5689  162.5844   32.0816 H   0  0  0  0  0  0  0  0  0  0  0  0
   47.5290  161.2660   32.2780 H   0  0  0  0  0  0  0  0  0  0  0  0
  1  2  2  0
  2  3  1  0
  3  4  1  0
  3  5  2  0
  5  6  1  0
  6  7  2  0
  7  8  1  0
  8  9  2  0
  9 10  1  0
  9 11  1  0
 11 12  2  0
  5 13  1  0
 13 14  1  0
 14 15  2  0
 15 16  1  0
 16 17  1  0
 16 18  2  0
 18 19  1  0
 19 20  1  0
 19 21  2  0
 21  2  1  0
 12  6  1  0
 21 14  1  0
  4 22  1  0
  7 23  1  0
  8 24  1  0
 10 25  1  0
 11 26  1  0
 12 27  1  0
 15 28  1  0
 17 29  1  0
 18 30  1  0
 20 31  1  0
M  END
>  <meeko>  (3) 
{"is_sidechain": [false], "free_energy": -8.463, "intermolecular_energy": -9.947, "internal_energy": -0.094}

$$$$
kaempferol_maoa_out
     RDKit          3D

 31 33  0  0  0  0  0  0  0  0999 V2000
   47.5690  158.3760   30.4620 O   0  0  0  0  0  0  0  0  0  0  0  0
   48.7860  158.3340   30.2940 C   0  0  0  0  0  0  0  0  0  0  0  0
   49.4220  157.1390   29.6940 C   0  0  0  0  0  0  0  0  0  0  0  0
   48.5880  156.0990   29.3270 O   0  0  0  0  0  0  0  0  0  0  0  0
   50.7580  157.1380   29.5260 C   0  0  0  0  0  0  0  0  0  0  0  0
   51.5000  156.0090   28.9250 C   0  0  0  0  0  0  0  0  0  0  0  0
   51.4810  154.7250   29.4940 C   0  0  0  0  0  0  0  0  0  0  0  0
   52.2090  153.6770   28.9240 C   0  0  0  0  0  0  0  0  0  0  0  0
   52.9670  153.9110   27.7830 C   0  0  0  0  0  0  0  0  0  0  0  0
   53.6910  152.9180   27.1940 O   0  0  0  0  0  0  0  0  0  0  0  0
   53.0110  155.1730   27.2080 C   0  0  0  0  0  0  0  0  0  0  0  0
   52.2820  156.2210   27.7790 C   0  0  0  0  0  0  0  0  0  0  0  0
   51.5830  158.2020   29.8750 O   0  0  0  0  0  0  0  0  0  0  0  0
   51.0240  159.3190   30.4400 C   0  0  0  0  0  0  0  0  0  0  0  0
   51.8880  160.3580   30.7850 C   0  0  0  0  0  0  0  0  0  0  0  0
   51.3740  161.5160   31.3600 C   0  0  0  0  0  0  0  0  0  0  0  0
   52.2530  162.5070   31.6820 O   0  0  0  0  0  0  0  0  0  0  0  0
   50.0080  161.6560   31.5980 C   0  0  0  0  0  0  0  0  0  0  0  0
   49.1500  160.6160   31.2510 C   0  0  0  0  0  0  0  0  0  0  0  0
   47.8180  160.8060   31.5060 O   0  0  0  0  0  0  0  0  0  0  0  0
   49.6570  159.4470   30.6720 C   0  0  0  0  0  0  0  0  0  0  0  0
   47.9930  155.7340   29.9530 H   0  0  0  0  0  0  0  0  0  0  0  0
   50.8852  154.5418   30.4003 H   0  0  0  0  0  0  0  0  0  0  0  0
   52.1822  152.6742   29.3753 H   0  0  0  0  0  0  0  0  0  0  0  0
   54.5040  152.6430   27.5720 H   0  0  0  0  0  0  0  0  0  0  0  0
   53.6168  155.3485   26.3068 H   0  0  0  0  0  0  0  0  0  0  0  0
   52.3219  157.2222   27.3251 H   0  0  0  0  0  0  0  0  0  0  0  0
   52.9688  160.2626   30.6037 H   0  0  0  0  0  0  0  0  0  0  0  0
   52.9210  162.3500   32.3200 H   0  0  0  0  0  0  0  0  0  0  0  0
   49.6130  162.5759   32.0539 H   0  0  0  0  0  0  0  0  0  0  0  0
   47.5210  161.6170   31.8680 H   0  0  0  0  0  0  0  0  0  0  0  0
  1  2  2  0
  2  3  1  0
  3  4  1  0
  3  5  2  0
  5  6  1  0
  6  7  2  0
  7  8  1  0
  8  9  2  0
  9 10  1  0
  9 11  1  0
 11 12  2  0
  5 13  1  0
 13 14  1  0
 14 15  2  0
 15 16  1  0
 16 17  1  0
 16 18  2  0
 18 19  1  0
 19 20  1  0
 19 21  2  0
 21  2  1  0
 12  6  1  0
 21 14  1  0
  4 22  1  0
  7 23  1  0
  8 24  1  0
 10 25  1  0
 11 26  1  0
 12 27  1  0
 15 28  1  0
 17 29  1  0
 18 30  1  0
 20 31  1  0
M  END
>  <meeko>  (4) 
{"is_sidechain": [false], "free_energy": -8.39, "intermolecular_energy": -9.798, "internal_energy": -0.157}

$$$$
kaempferol_maoa_out
     RDKit          3D

 31 33  0  0  0  0  0  0  0  0999 V2000
   51.3950  153.2690   28.5720 O   0  0  0  0  0  0  0  0  0  0  0  0
   51.6990  154.4320   28.3150 C   0  0  0  0  0  0  0  0  0  0  0  0
   51.1740  155.5460   29.1360 C   0  0  0  0  0  0  0  0  0  0  0  0
   50.3480  155.2130   30.1940 O   0  0  0  0  0  0  0  0  0  0  0  0
   51.5360  156.8040   28.8210 C   0  0  0  0  0  0  0  0  0  0  0  0
   51.0860  157.9930   29.5760 C   0  0  0  0  0  0  0  0  0  0  0  0
   51.9640  159.0390   29.8990 C   0  0  0  0  0  0  0  0  0  0  0  0
   51.5230  160.1440   30.6350 C   0  0  0  0  0  0  0  0  0  0  0  0
   50.2000  160.2010   31.0570 C   0  0  0  0  0  0  0  0  0  0  0  0
   49.7280  161.2590   31.7750 O   0  0  0  0  0  0  0  0  0  0  0  0
   49.3150  159.1750   30.7590 C   0  0  0  0  0  0  0  0  0  0  0  0
   49.7570  158.0710   30.0230 C   0  0  0  0  0  0  0  0  0  0  0  0
   52.3890  157.1230   27.7690 O   0  0  0  0  0  0  0  0  0  0  0  0
   52.8870  156.1130   26.9870 C   0  0  0  0  0  0  0  0  0  0  0  0
   53.7290  156.4780   25.9370 C   0  0  0  0  0  0  0  0  0  0  0  0
   54.2640  155.4930   25.1120 C   0  0  0  0  0  0  0  0  0  0  0  0
   55.0820  155.8920   24.0980 O   0  0  0  0  0  0  0  0  0  0  0  0
   53.9710  154.1460   25.3170 C   0  0  0  0  0  0  0  0  0  0  0  0
   53.1290  153.7880   26.3670 C   0  0  0  0  0  0  0  0  0  0  0  0
   52.8750  152.4510   26.5230 O   0  0  0  0  0  0  0  0  0  0  0  0
   52.5870  154.7710   27.2020 C   0  0  0  0  0  0  0  0  0  0  0  0
   49.6180  154.6420   30.0560 H   0  0  0  0  0  0  0  0  0  0  0  0
   53.0123  158.9894   29.5693 H   0  0  0  0  0  0  0  0  0  0  0  0
   52.2179  160.9614   30.8778 H   0  0  0  0  0  0  0  0  0  0  0  0
   49.1490  161.8780   31.3730 H   0  0  0  0  0  0  0  0  0  0  0  0
   48.2706  159.2296   31.1000 H   0  0  0  0  0  0  0  0  0  0  0  0
   49.0563  157.2552   29.7918 H   0  0  0  0  0  0  0  0  0  0  0  0
   53.9687  157.5372   25.7620 H   0  0  0  0  0  0  0  0  0  0  0  0
   54.9900  155.5140   23.2460 H   0  0  0  0  0  0  0  0  0  0  0  0
   54.3990  153.3759   24.6583 H   0  0  0  0  0  0  0  0  0  0  0  0
   52.9310  152.0600   27.3720 H   0  0  0  0  0  0  0  0  0  0  0  0
  1  2  2  0
  2  3  1  0
  3  4  1  0
  3  5  2  0
  5  6  1  0
  6  7  2  0
  7  8  1  0
  8  9  2  0
  9 10  1  0
  9 11  1  0
 11 12  2  0
  5 13  1  0
 13 14  1  0
 14 15  2  0
 15 16  1  0
 16 17  1  0
 16 18  2  0
 18 19  1  0
 19 20  1  0
 19 21  2  0
 21  2  1  0
 12  6  1  0
 21 14  1  0
  4 22  1  0
  7 23  1  0
  8 24  1  0
 10 25  1  0
 11 26  1  0
 12 27  1  0
 15 28  1  0
 17 29  1  0
 18 30  1  0
 20 31  1  0
M  END
>  <meeko>  (5) 
{"is_sidechain": [false], "free_energy": -8.294, "intermolecular_energy": -9.944, "internal_energy": 0.101}

$$$$
kaempferol_maoa_out
     RDKit          3D

 31 33  0  0  0  0  0  0  0  0999 V2000
   48.7810  156.4270   30.1580 O   0  0  0  0  0  0  0  0  0  0  0  0
   49.8700  156.7930   29.7220 C   0  0  0  0  0  0  0  0  0  0  0  0
   50.6320  155.9370   28.7850 C   0  0  0  0  0  0  0  0  0  0  0  0
   50.0560  154.7330   28.4220 O   0  0  0  0  0  0  0  0  0  0  0  0
   51.8200  156.3790   28.3310 C   0  0  0  0  0  0  0  0  0  0  0  0
   52.6610  155.6180   27.3820 C   0  0  0  0  0  0  0  0  0  0  0  0
   53.2330  156.2230   26.2520 C   0  0  0  0  0  0  0  0  0  0  0  0
   54.0060  155.4800   25.3540 C   0  0  0  0  0  0  0  0  0  0  0  0
   54.2030  154.1230   25.5810 C   0  0  0  0  0  0  0  0  0  0  0  0
   54.9500  153.3620   24.7320 O   0  0  0  0  0  0  0  0  0  0  0  0
   53.6400  153.5000   26.6850 C   0  0  0  0  0  0  0  0  0  0  0  0
   52.8680  154.2440   27.5820 C   0  0  0  0  0  0  0  0  0  0  0  0
   52.3760  157.6040   28.6830 O   0  0  0  0  0  0  0  0  0  0  0  0
   51.6980  158.4160   29.5550 C   0  0  0  0  0  0  0  0  0  0  0  0
   52.2960  159.6300   29.8910 C   0  0  0  0  0  0  0  0  0  0  0  0
   51.6500  160.4930   30.7710 C   0  0  0  0  0  0  0  0  0  0  0  0
   52.2700  161.6700   31.0710 O   0  0  0  0  0  0  0  0  0  0  0  0
   50.4150  160.1650   31.3240 C   0  0  0  0  0  0  0  0  0  0  0  0
   49.8220  158.9510   30.9860 C   0  0  0  0  0  0  0  0  0  0  0  0
   48.6080  158.6790   31.5570 O   0  0  0  0  0  0  0  0  0  0  0  0
   50.4630  158.0760   30.1010 C   0  0  0  0  0  0  0  0  0  0  0  0
   50.5480  154.1110   27.9240 H   0  0  0  0  0  0  0  0  0  0  0  0
   53.0712  157.2958   26.0703 H   0  0  0  0  0  0  0  0  0  0  0  0
   54.4546  155.9658   24.4749 H   0  0  0  0  0  0  0  0  0  0  0  0
   54.7500  153.3460   23.8160 H   0  0  0  0  0  0  0  0  0  0  0  0
   53.8003  152.4249   26.8540 H   0  0  0  0  0  0  0  0  0  0  0  0
   52.4178  153.7474   28.4541 H   0  0  0  0  0  0  0  0  0  0  0  0
   53.2718  159.9037   29.4633 H   0  0  0  0  0  0  0  0  0  0  0  0
   52.8670  162.0540   30.4600 H   0  0  0  0  0  0  0  0  0  0  0  0
   49.9143  160.8555   32.0186 H   0  0  0  0  0  0  0  0  0  0  0  0
   47.9860  159.3670   31.6860 H   0  0  0  0  0  0  0  0  0  0  0  0
  1  2  2  0
  2  3  1  0
  3  4  1  0
  3  5  2  0
  5  6  1  0
  6  7  2  0
  7  8  1  0
  8  9  2  0
  9 10  1  0
  9 11  1  0
 11 12  2  0
  5 13  1  0
 13 14  1  0
 14 15  2  0
 15 16  1  0
 16 17  1  0
 16 18  2  0
 18 19  1  0
 19 20  1  0
 19 21  2  0
 21  2  1  0
 12  6  1  0
 21 14  1  0
  4 22  1  0
  7 23  1  0
  8 24  1  0
 10 25  1  0
 11 26  1  0
 12 27  1  0
 15 28  1  0
 17 29  1  0
 18 30  1  0
 20 31  1  0
M  END
>  <meeko>  (6) 
{"is_sidechain": [false], "free_energy": -6.911, "intermolecular_energy": -8.263, "internal_energy": 0.046}

$$$$
