quercetin_out
     RDKit          3D

 32 34  0  0  0  0  0  0  0  0999 V2000
   52.1560  152.8610   28.8320 O   0  0  0  0  0  0  0  0  0  0  0  0
   52.2790  154.0290   28.4660 C   0  0  0  0  0  0  0  0  0  0  0  0
   51.7300  155.1340   29.2840 C   0  0  0  0  0  0  0  0  0  0  0  0
   51.0720  154.7860   30.4500 O   0  0  0  0  0  0  0  0  0  0  0  0
   51.8840  156.3970   28.8440 C   0  0  0  0  0  0  0  0  0  0  0  0
   51.3610  157.5790   29.5660 C   0  0  0  0  0  0  0  0  0  0  0  0
   50.0320  157.5770   30.0320 C   0  0  0  0  0  0  0  0  0  0  0  0
   49.5000  158.6860   30.6960 C   0  0  0  0  0  0  0  0  0  0  0  0
   50.2970  159.8030   30.8900 C   0  0  0  0  0  0  0  0  0  0  0  0
   49.7800  160.8860   31.5390 O   0  0  0  0  0  0  0  0  0  0  0  0
   51.6110  159.8260   30.4310 C   0  0  0  0  0  0  0  0  0  0  0  0
   52.3410  160.9610   30.6570 O   0  0  0  0  0  0  0  0  0  0  0  0
   52.1460  158.7280   29.7660 C   0  0  0  0  0  0  0  0  0  0  0  0
   52.5260  156.7300   27.6570 O   0  0  0  0  0  0  0  0  0  0  0  0
   53.0530  155.7280   26.8820 C   0  0  0  0  0  0  0  0  0  0  0  0
   53.6990  156.1080   25.7060 C   0  0  0  0  0  0  0  0  0  0  0  0
   54.2500  155.1320   24.8800 C   0  0  0  0  0  0  0  0  0  0  0  0
   54.8710  155.5460   23.7400 O   0  0  0  0  0  0  0  0  0  0  0  0
   54.1680  153.7810   25.2100 C   0  0  0  0  0  0  0  0  0  0  0  0
   53.5230  153.4090   26.3870 C   0  0  0  0  0  0  0  0  0  0  0  0
   53.4710  152.0690   26.6620 O   0  0  0  0  0  0  0  0  0  0  0  0
   52.9650  154.3810   27.2220 C   0  0  0  0  0  0  0  0  0  0  0  0
   50.6410  155.4450   30.9580 H   0  0  0  0  0  0  0  0  0  0  0  0
   49.4030  156.6891   29.8710 H   0  0  0  0  0  0  0  0  0  0  0  0
   48.4620  158.6723   31.0599 H   0  0  0  0  0  0  0  0  0  0  0  0
   48.8540  161.0260   31.5540 H   0  0  0  0  0  0  0  0  0  0  0  0
   52.5590  161.2120   31.5330 H   0  0  0  0  0  0  0  0  0  0  0  0
   53.1818  158.7585   29.3971 H   0  0  0  0  0  0  0  0  0  0  0  0
   53.7727  157.1710   25.4330 H   0  0  0  0  0  0  0  0  0  0  0  0
   55.6150  155.0770   23.4160 H   0  0  0  0  0  0  0  0  0  0  0  0
   54.6068  153.0183   24.5498 H   0  0  0  0  0  0  0  0  0  0  0  0
   53.7300  151.7530   27.5050 H   0  0  0  0  0  0  0  0  0  0  0  0
  1  2  2  0
  2  3  1  0
  3  4  1  0
  3  5  2  0
  5  6  1  0
  6  7  2  0
  7  8  1  0
  8  9  2  0
  9 10  1  0
  9 11  1  0
 11 12  1  0
 11 13  2  0
  5 14  1  0
 14 15  1  0
 15 16  2  0
 16 17  1  0
 17 18  1  0
 17 19  2  0
 19 20  1  0
 20 21  1  0
 20 22  2  0
 22  2  1  0
 13  6  1  0
 22 15  1  0
  4 23  1  0
  7 24  1  0
  8 25  1  0
 10 26  1  0
 12 27  1  0
 13 28  1  0
 16 29  1  0
 18 30  1  0
 19 31  1  0
 21 32  1  0
M  END
>  <meeko>  (1) 
{"is_sidechain": [false], "free_energy": -10.164, "intermolecular_energy": -12.244, "internal_energy": -0.017}

$$$$
quercetin_out
     RDKit          3D

 32 34  0  0  0  0  0  0  0  0999 V2000
   52.4160  160.7160   30.4520 O   0  0  0  0  0  0  0  0  0  0  0  0
   51.6870  159.7410   30.2790 C   0  0  0  0  0  0  0  0  0  0  0  0
   52.2250  158.4980   29.6820 C   0  0  0  0  0  0  0  0  0  0  0  0
   53.5610  158.4980   29.3260 O   0  0  0  0  0  0  0  0  0  0  0  0
   51.3910  157.4560   29.5060 C   0  0  0  0  0  0  0  0  0  0  0  0
   51.8100  156.1700   28.9030 C   0  0  0  0  0  0  0  0  0  0  0  0
   51.4960  154.9620   29.5550 C   0  0  0  0  0  0  0  0  0  0  0  0
   51.8980  153.7330   29.0240 C   0  0  0  0  0  0  0  0  0  0  0  0
   52.6190  153.7110   27.8410 C   0  0  0  0  0  0  0  0  0  0  0  0
   53.0100  152.5120   27.3210 O   0  0  0  0  0  0  0  0  0  0  0  0
   52.9430  154.8950   27.1860 C   0  0  0  0  0  0  0  0  0  0  0  0
   53.6570  154.8010   26.0220 O   0  0  0  0  0  0  0  0  0  0  0  0
   52.5510  156.1230   27.7100 C   0  0  0  0  0  0  0  0  0  0  0  0
   50.0430  157.4780   29.8470 O   0  0  0  0  0  0  0  0  0  0  0  0
   49.5180  158.6140   30.4090 C   0  0  0  0  0  0  0  0  0  0  0  0
   48.1640  158.5880   30.7450 C   0  0  0  0  0  0  0  0  0  0  0  0
   47.5780  159.7140   31.3170 C   0  0  0  0  0  0  0  0  0  0  0  0
   46.2530  159.6480   31.6300 O   0  0  0  0  0  0  0  0  0  0  0  0
   48.3210  160.8670   31.5590 C   0  0  0  0  0  0  0  0  0  0  0  0
   49.6730  160.8850   31.2220 C   0  0  0  0  0  0  0  0  0  0  0  0
   50.3560  162.0430   31.4810 O   0  0  0  0  0  0  0  0  0  0  0  0
   50.2700  159.7600   30.6470 C   0  0  0  0  0  0  0  0  0  0  0  0
   54.0140  157.6870   29.2060 H   0  0  0  0  0  0  0  0  0  0  0  0
   50.9262  154.9858   30.4956 H   0  0  0  0  0  0  0  0  0  0  0  0
   51.6450  152.7946   29.5391 H   0  0  0  0  0  0  0  0  0  0  0  0
   52.3690  151.8710   27.0850 H   0  0  0  0  0  0  0  0  0  0  0  0
   53.3970  154.1900   25.3610 H   0  0  0  0  0  0  0  0  0  0  0  0
   52.8206  157.0549   27.1915 H   0  0  0  0  0  0  0  0  0  0  0  0
   47.5642  157.6848   30.5594 H   0  0  0  0  0  0  0  0  0  0  0  0
   45.7270  160.4230   31.6010 H   0  0  0  0  0  0  0  0  0  0  0  0
   47.8470  161.7513   32.0100 H   0  0  0  0  0  0  0  0  0  0  0  0
   51.2290  162.1540   31.1590 H   0  0  0  0  0  0  0  0  0  0  0  0
  1  2  2  0
  2  3  1  0
  3  4  1  0
  3  5  2  0
  5  6  1  0
  6  7  2  0
  7  8  1  0
  8  9  2  0
  9 10  1  0
  9 11  1  0
 11 12  1  0
 11 13  2  0
  5 14  1  0
 14 15  1  0
 15 16  2  0
 16 17  1  0
 17 18  1  0
 17 19  2  0
 19 20  1  0
 20 21  1  0
 20 22  2  0
 22  2  1  0
 13  6  1  0
 22 15  1  0
  4 23  1  0
  7 24  1  0
  8 25  1  0
 10 26  1  0
 12 27  1  0
 13 28  1  0
 16 29  1  0
 18 30  1  0
 19 31  1  0
 21 32  1  0
M  END
>  <meeko>  (2) 
{"is_sidechain": [false], "free_energy": -9.848, "intermolecular_energy": -11.829, "internal_energy": -0.051}

$$$$
quercetin_out
     RDKit          3D

 32 34  0  0  0  0  0  0  0  0999 V2000
   52.6280  160.2420   30.0800 O   0  0  0  0  0  0  0  0  0  0  0  0
   51.8120  159.3250   30.0240 C   0  0  0  0  0  0  0  0  0  0  0  0
   52.1850  158.0230   29.4250 C   0  0  0  0  0  0  0  0  0  0  0  0
   53.4720  157.9040   28.9320 O   0  0  0  0  0  0  0  0  0  0  0  0
   51.2590  157.0470   29.3810 C   0  0  0  0  0  0  0  0  0  0  0  0
   51.5100  155.7130   28.7900 C   0  0  0  0  0  0  0  0  0  0  0  0
   51.6040  154.5870   29.6310 C   0  0  0  0  0  0  0  0  0  0  0  0
   51.8650  153.3170   29.1080 C   0  0  0  0  0  0  0  0  0  0  0  0
   52.0350  153.1730   27.7410 C   0  0  0  0  0  0  0  0  0  0  0  0
   52.2880  151.9340   27.2280 O   0  0  0  0  0  0  0  0  0  0  0  0
   51.9510  154.2740   26.8940 C   0  0  0  0  0  0  0  0  0  0  0  0
   52.1300  154.0600   25.5540 O   0  0  0  0  0  0  0  0  0  0  0  0
   51.6970  155.5420   27.4080 C   0  0  0  0  0  0  0  0  0  0  0  0
   49.9610  157.1900   29.8590 O   0  0  0  0  0  0  0  0  0  0  0  0
   49.5890  158.3820   30.4260 C   0  0  0  0  0  0  0  0  0  0  0  0
   48.2810  158.4770   30.9020 C   0  0  0  0  0  0  0  0  0  0  0  0
   47.8480  159.6650   31.4860 C   0  0  0  0  0  0  0  0  0  0  0  0
   46.5640  159.7160   31.9370 O   0  0  0  0  0  0  0  0  0  0  0  0
   48.7000  160.7610   31.6020 C   0  0  0  0  0  0  0  0  0  0  0  0
   50.0050  160.6580   31.1250 C   0  0  0  0  0  0  0  0  0  0  0  0
   50.7990  161.7650   31.2630 O   0  0  0  0  0  0  0  0  0  0  0  0
   50.4480  159.4700   30.5370 C   0  0  0  0  0  0  0  0  0  0  0  0
   54.2050  158.0500   29.4960 H   0  0  0  0  0  0  0  0  0  0  0  0
   51.4700  154.7088   30.7160 H   0  0  0  0  0  0  0  0  0  0  0  0
   51.9344  152.4438   29.7733 H   0  0  0  0  0  0  0  0  0  0  0  0
   52.3020  151.1870   27.7920 H   0  0  0  0  0  0  0  0  0  0  0  0
   52.6610  153.3440   25.2610 H   0  0  0  0  0  0  0  0  0  0  0  0
   51.6427  156.4091   26.7334 H   0  0  0  0  0  0  0  0  0  0  0  0
   47.5967  157.6200   30.8167 H   0  0  0  0  0  0  0  0  0  0  0  0
   46.3910  159.7130   32.8580 H   0  0  0  0  0  0  0  0  0  0  0  0
   48.3473  161.6950   32.0639 H   0  0  0  0  0  0  0  0  0  0  0  0
   50.8430  162.2100   32.0870 H   0  0  0  0  0  0  0  0  0  0  0  0
  1  2  2  0
  2  3  1  0
  3  4  1  0
  3  5  2  0
  5  6  1  0
  6  7  2  0
  7  8  1  0
  8  9  2  0
  9 10  1  0
  9 11  1  0
 11 12  1  0
 11 13  2  0
  5 14  1  0
 14 15  1  0
 15 16  2  0
 16 17  1  0
 17 18  1  0
 17 19  2  0
 19 20  1  0
 20 21  1  0
 20 22  2  0
 22  2  1  0
 13  6  1  0
 22 15  1  0
  4 23  1  0
  7 24  1  0
  8 25  1  0
 10 26  1  0
 12 27  1  0
 13 28  1  0
 16 29  1  0
 18 30  1  0
 19 31  1  0
 21 32  1  0
M  END
>  <meeko>  (3) 
{"is_sidechain": [false], "free_energy": -9.836, "intermolecular_energy": -11.61, "internal_energy": -0.256}

$$$$
quercetin_out
     RDKit          3D

 32 34  0  0  0  0  0  0  0  0999 V2000
   47.5820  158.3930   30.5610 O   0  0  0  0  0  0  0  0  0  0  0  0
   48.7950  158.3670   30.3650 C   0  0  0  0  0  0  0  0  0  0  0  0
   49.4270  157.1900   29.7260 C   0  0  0  0  0  0  0  0  0  0  0  0
   48.5960  156.1400   29.3820 O   0  0  0  0  0  0  0  0  0  0  0  0
   50.7600  157.2020   29.5330 C   0  0  0  0  0  0  0  0  0  0  0  0
   51.5040  156.0770   28.9230 C   0  0  0  0  0  0  0  0  0  0  0  0
   51.4460  154.8020   29.5180 C   0  0  0  0  0  0  0  0  0  0  0  0
   52.1550  153.7240   28.9800 C   0  0  0  0  0  0  0  0  0  0  0  0
   52.9280  153.9220   27.8480 C   0  0  0  0  0  0  0  0  0  0  0  0
   53.6200  152.8710   27.3210 O   0  0  0  0  0  0  0  0  0  0  0  0
   53.0020  155.1750   27.2490 C   0  0  0  0  0  0  0  0  0  0  0  0
   53.7840  155.3000   26.1330 O   0  0  0  0  0  0  0  0  0  0  0  0
   52.3020  156.2540   27.7800 C   0  0  0  0  0  0  0  0  0  0  0  0
   51.5860  158.2560   29.9070 O   0  0  0  0  0  0  0  0  0  0  0  0
   51.0280  159.3620   30.4940 C   0  0  0  0  0  0  0  0  0  0  0  0
   51.8930  160.4000   30.8420 C   0  0  0  0  0  0  0  0  0  0  0  0
   51.3810  161.5470   31.4430 C   0  0  0  0  0  0  0  0  0  0  0  0
   52.2600  162.5370   31.7680 O   0  0  0  0  0  0  0  0  0  0  0  0
   50.0190  161.6760   31.7020 C   0  0  0  0  0  0  0  0  0  0  0  0
   49.1600  160.6360   31.3500 C   0  0  0  0  0  0  0  0  0  0  0  0
   47.8320  160.8150   31.6280 O   0  0  0  0  0  0  0  0  0  0  0  0
   49.6650  159.4800   30.7470 C   0  0  0  0  0  0  0  0  0  0  0  0
   48.5860  155.3610   29.9020 H   0  0  0  0  0  0  0  0  0  0  0  0
   50.8337  154.6521   30.4195 H   0  0  0  0  0  0  0  0  0  0  0  0
   52.0996  152.7309   29.4498 H   0  0  0  0  0  0  0  0  0  0  0  0
   53.1890  152.0520   27.1730 H   0  0  0  0  0  0  0  0  0  0  0  0
   54.1380  154.5360   25.7210 H   0  0  0  0  0  0  0  0  0  0  0  0
   52.3732  157.2440   27.3058 H   0  0  0  0  0  0  0  0  0  0  0  0
   52.9714  160.3129   30.6431 H   0  0  0  0  0  0  0  0  0  0  0  0
   51.9750  163.4290   31.7810 H   0  0  0  0  0  0  0  0  0  0  0  0
   49.6260  162.5865   32.1781 H   0  0  0  0  0  0  0  0  0  0  0  0
   47.5390  160.8430   32.5180 H   0  0  0  0  0  0  0  0  0  0  0  0
  1  2  2  0
  2  3  1  0
  3  4  1  0
  3  5  2  0
  5  6  1  0
  6  7  2  0
  7  8  1  0
  8  9  2  0
  9 10  1  0
  9 11  1  0
 11 12  1  0
 11 13  2  0
  5 14  1  0
 14 15  1  0
 15 16  2  0
 16 17  1  0
 17 18  1  0
 17 19  2  0
 19 20  1  0
 20 21  1  0
 20 22  2  0
 22  2  1  0
 13  6  1  0
 22 15  1  0
  4 23  1  0
  7 24  1  0
  8 25  1  0
 10 26  1  0
 12 27  1  0
 13 28  1  0
 16 29  1  0
 18 30  1  0
 19 31  1  0
 21 32  1  0
M  END
>  <meeko>  (4) 
{"is_sidechain": [false], "free_energy": -8.604, "intermolecular_energy": -10.24, "internal_energy": -0.141}

$$$$
quercetin_out
     RDKit          3D

 32 34  0  0  0  0  0  0  0  0999 V2000
   47.7770  158.4990   31.0330 O   0  0  0  0  0  0  0  0  0  0  0  0
   48.9580  158.5620   30.6970 C   0  0  0  0  0  0  0  0  0  0  0  0
   49.5910  157.4420   29.9640 C   0  0  0  0  0  0  0  0  0  0  0  0
   48.8000  156.3390   29.6970 O   0  0  0  0  0  0  0  0  0  0  0  0
   50.8880  157.5510   29.6190 C   0  0  0  0  0  0  0  0  0  0  0  0
   51.6310  156.4890   28.9030 C   0  0  0  0  0  0  0  0  0  0  0  0
   52.3830  156.8190   27.7590 C   0  0  0  0  0  0  0  0  0  0  0  0
   53.0770  155.8370   27.0460 C   0  0  0  0  0  0  0  0  0  0  0  0
   53.0160  154.5210   27.4750 C   0  0  0  0  0  0  0  0  0  0  0  0
   53.6940  153.5610   26.7820 O   0  0  0  0  0  0  0  0  0  0  0  0
   52.2740  154.1750   28.6010 C   0  0  0  0  0  0  0  0  0  0  0  0
   52.2570  152.8570   28.9690 O   0  0  0  0  0  0  0  0  0  0  0  0
   51.5770  155.1460   29.3130 C   0  0  0  0  0  0  0  0  0  0  0  0
   51.6770  158.6560   29.9170 O   0  0  0  0  0  0  0  0  0  0  0  0
   51.1170  159.7120   30.5880 C   0  0  0  0  0  0  0  0  0  0  0  0
   51.9420  160.8050   30.8560 C   0  0  0  0  0  0  0  0  0  0  0  0
   51.4260  161.9040   31.5350 C   0  0  0  0  0  0  0  0  0  0  0  0
   52.2660  162.9500   31.7780 O   0  0  0  0  0  0  0  0  0  0  0  0
   50.0970  161.9320   31.9540 C   0  0  0  0  0  0  0  0  0  0  0  0
   49.2780  160.8380   31.6820 C   0  0  0  0  0  0  0  0  0  0  0  0
   47.9820  160.9180   32.1150 O   0  0  0  0  0  0  0  0  0  0  0  0
   49.7880  159.7300   31.0000 C   0  0  0  0  0  0  0  0  0  0  0  0
   49.0590  155.4920   30.0020 H   0  0  0  0  0  0  0  0  0  0  0  0
   52.4249  157.8651   27.4214 H   0  0  0  0  0  0  0  0  0  0  0  0
   53.6642  156.1058   26.1555 H   0  0  0  0  0  0  0  0  0  0  0  0
   53.9120  153.6990   25.8820 H   0  0  0  0  0  0  0  0  0  0  0  0
   51.8600  152.6030   29.7790 H   0  0  0  0  0  0  0  0  0  0  0  0
   50.9846  154.8629   30.1955 H   0  0  0  0  0  0  0  0  0  0  0  0
   52.9933  160.7976   30.5325 H   0  0  0  0  0  0  0  0  0  0  0  0
   52.5690  163.4800   31.0680 H   0  0  0  0  0  0  0  0  0  0  0  0
   49.7002  162.8056   32.4919 H   0  0  0  0  0  0  0  0  0  0  0  0
   47.7910  161.2860   32.9560 H   0  0  0  0  0  0  0  0  0  0  0  0
  1  2  2  0
  2  3  1  0
  3  4  1  0
  3  5  2  0
  5  6  1  0
  6  7  2  0
  7  8  1  0
  8  9  2  0
  9 10  1  0
  9 11  1  0
 11 12  1  0
 11 13  2  0
  5 14  1  0
 14 15  1  0
 15 16  2  0
 16 17  1  0
 17 18  1  0
 17 19  2  0
 19 20  1  0
 20 21  1  0
 20 22  2  0
 22  2  1  0
 13  6  1  0
 22 15  1  0
  4 23  1  0
  7 24  1  0
  8 25  1  0
 10 26  1  0
 12 27  1  0
 13 28  1  0
 16 29  1  0
 18 30  1  0
 19 31  1  0
 21 32  1  0
M  END
>  <meeko>  (5) 
{"is_sidechain": [false], "free_energy": -8.398, "intermolecular_energy": -10.082, "internal_energy": -0.051}

$$$$
quercetin_out
     RDKit          3D

 32 34  0  0  0  0  0  0  0  0999 V2000
   48.4450  157.5100   30.8920 O   0  0  0  0  0  0  0  0  0  0  0  0
   49.5470  157.7810   30.4180 C   0  0  0  0  0  0  0  0  0  0  0  0
   50.2250  156.8320   29.5060 C   0  0  0  0  0  0  0  0  0  0  0  0
   49.5710  155.6440   29.2340 O   0  0  0  0  0  0  0  0  0  0  0  0
   51.4320  157.1660   29.0120 C   0  0  0  0  0  0  0  0  0  0  0  0
   52.2130  156.2910   28.1090 C   0  0  0  0  0  0  0  0  0  0  0  0
   52.7980  156.8350   26.9490 C   0  0  0  0  0  0  0  0  0  0  0  0
   53.5210  156.0310   26.0630 C   0  0  0  0  0  0  0  0  0  0  0  0
   53.6560  154.6800   26.3340 C   0  0  0  0  0  0  0  0  0  0  0  0
   54.3630  153.8940   25.4710 O   0  0  0  0  0  0  0  0  0  0  0  0
   53.0810  154.1230   27.4720 C   0  0  0  0  0  0  0  0  0  0  0  0
   53.2530  152.7810   27.6780 O   0  0  0  0  0  0  0  0  0  0  0  0
   52.3550  154.9150   28.3570 C   0  0  0  0  0  0  0  0  0  0  0  0
   52.0900  158.3540   29.3140 O   0  0  0  0  0  0  0  0  0  0  0  0
   51.4820  159.2560   30.1500 C   0  0  0  0  0  0  0  0  0  0  0  0
   52.1720  160.4380   30.4170 C   0  0  0  0  0  0  0  0  0  0  0  0
   51.6040  161.3890   31.2600 C   0  0  0  0  0  0  0  0  0  0  0  0
   52.3110  162.5300   31.4950 O   0  0  0  0  0  0  0  0  0  0  0  0
   50.3560  161.1790   31.8420 C   0  0  0  0  0  0  0  0  0  0  0  0
   49.6720  159.9960   31.5710 C   0  0  0  0  0  0  0  0  0  0  0  0
   48.4510  159.8410   32.1700 O   0  0  0  0  0  0  0  0  0  0  0  0
   50.2350  159.0350   30.7260 C   0  0  0  0  0  0  0  0  0  0  0  0
   48.7500  155.6540   28.7830 H   0  0  0  0  0  0  0  0  0  0  0  0
   52.6843  157.9084   26.7371 H   0  0  0  0  0  0  0  0  0  0  0  0
   53.9770  156.4664   25.1616 H   0  0  0  0  0  0  0  0  0  0  0  0
   55.2810  153.7610   25.6020 H   0  0  0  0  0  0  0  0  0  0  0  0
   52.5060  152.2240   27.7850 H   0  0  0  0  0  0  0  0  0  0  0  0
   51.8935  154.4649   29.2483 H   0  0  0  0  0  0  0  0  0  0  0  0
   53.1584  160.6177   29.9645 H   0  0  0  0  0  0  0  0  0  0  0  0
   51.9490  163.3620   31.2590 H   0  0  0  0  0  0  0  0  0  0  0  0
   49.9164  161.9372   32.5068 H   0  0  0  0  0  0  0  0  0  0  0  0
   47.8090  160.5210   32.1090 H   0  0  0  0  0  0  0  0  0  0  0  0
  1  2  2  0
  2  3  1  0
  3  4  1  0
  3  5  2  0
  5  6  1  0
  6  7  2  0
  7  8  1  0
  8  9  2  0
  9 10  1  0
  9 11  1  0
 11 12  1  0
 11 13  2  0
  5 14  1  0
 14 15  1  0
 15 16  2  0
 16 17  1  0
 17 18  1  0
 17 19  2  0
 19 20  1  0
 20 21  1  0
 20 22  2  0
 22  2  1  0
 13  6  1  0
 22 15  1  0
  4 23  1  0
  7 24  1  0
  8 25  1  0
 10 26  1  0
 12 27  1  0
 13 28  1  0
 16 29  1  0
 18 30  1  0
 19 31  1  0
 21 32  1  0
M  END
>  <meeko>  (6) 
{"is_sidechain": [false], "free_energy": -7.709, "intermolecular_energy": -9.286, "internal_energy": -0.017}

$$$$
