cand_047_out
     RDKit          3D

 38 40  0  0  0  0  0  0  0  0999 V2000
  179.9520   14.1600   44.7970 C   0  0  0  0  0  0  0  0  0  0  0  0
  180.3590   15.5970   44.6170 C   0  0  0  0  0  0  0  0  0  0  0  0
  179.7700   16.5750   45.4420 C   0  0  0  0  0  0  0  0  0  0  0  0
  180.0990   17.9340   45.3230 C   0  0  0  0  0  0  0  0  0  0  0  0
  179.4650   18.9640   46.1730 C   0  0  0  0  0  0  0  0  0  0  0  0
  178.0770   18.9070   46.1490 O   0  0  0  0  0  0  0  0  0  0  0  0
  177.3630   19.8070   46.8960 C   0  0  0  0  0  0  0  0  0  0  0  0
  175.9720   19.7040   46.8540 C   0  0  0  0  0  0  0  0  0  0  0  0
  175.1840   20.5920   47.5910 C   0  0  0  0  0  0  0  0  0  0  0  0
  175.7880   21.5830   48.3680 C   0  0  0  0  0  0  0  0  0  0  0  0
  177.1760   21.6850   48.4070 C   0  0  0  0  0  0  0  0  0  0  0  0
  177.7010   22.6790   49.1870 O   0  0  0  0  0  0  0  0  0  0  0  0
  177.9630   20.7950   47.6710 C   0  0  0  0  0  0  0  0  0  0  0  0
  179.4250   20.8680   47.6840 C   0  0  0  0  0  0  0  0  0  0  0  0
  180.0290   21.7170   48.3370 O   0  0  0  0  0  0  0  0  0  0  0  0
  180.1680   19.8730   46.8760 C   0  0  0  0  0  0  0  0  0  0  0  0
  181.5480   19.9590   46.8850 O   0  0  0  0  0  0  0  0  0  0  0  0
  181.0210   18.3110   44.3430 C   0  0  0  0  0  0  0  0  0  0  0  0
  181.6100   17.3540   43.5120 C   0  0  0  0  0  0  0  0  0  0  0  0
  181.2860   15.9940   43.6340 C   0  0  0  0  0  0  0  0  0  0  0  0
  181.9750   15.0060   42.7220 C   0  0  0  0  0  0  0  0  0  0  0  0
  181.4640   15.0910   41.2930 C   0  0  0  0  0  0  0  0  0  0  0  0
  180.1120   15.2580   41.3230 F   0  0  0  0  0  0  0  0  0  0  0  0
  179.8866   13.9291   45.8705 H   0  0  0  0  0  0  0  0  0  0  0  0
  178.9717   13.9948   44.3261 H   0  0  0  0  0  0  0  0  0  0  0  0
  180.7000   13.5053   44.3261 H   0  0  0  0  0  0  0  0  0  0  0  0
  179.0337   16.2658   46.1985 H   0  0  0  0  0  0  0  0  0  0  0  0
  175.4961   18.9243   46.2411 H   0  0  0  0  0  0  0  0  0  0  0  0
  174.0875   20.5105   47.5592 H   0  0  0  0  0  0  0  0  0  0  0  0
  175.1679   22.2820   48.9484 H   0  0  0  0  0  0  0  0  0  0  0  0
  177.3330   23.5410   49.1560 H   0  0  0  0  0  0  0  0  0  0  0  0
  182.0010   20.1090   47.6910 H   0  0  0  0  0  0  0  0  0  0  0  0
  181.2860   19.3720   44.2243 H   0  0  0  0  0  0  0  0  0  0  0  0
  182.3382   17.6715   42.7512 H   0  0  0  0  0  0  0  0  0  0  0  0
  183.0550   15.2146   42.7250 H   0  0  0  0  0  0  0  0  0  0  0  0
  181.7617   13.9943   43.0974 H   0  0  0  0  0  0  0  0  0  0  0  0
  181.9316   15.9459   40.7827 H   0  0  0  0  0  0  0  0  0  0  0  0
  181.7163   14.1690   40.7487 H   0  0  0  0  0  0  0  0  0  0  0  0
  1  2  1  0
  2  3  2  0
  3  4  1  0
  4  5  1  0
  5  6  1  0
  6  7  1  0
  7  8  2  0
  8  9  1  0
  9 10  2  0
 10 11  1  0
 11 12  1  0
 11 13  2  0
 13 14  1  0
 14 15  2  0
 14 16  1  0
 16 17  1  0
  4 18  2  0
 18 19  1  0
 19 20  2  0
 20 21  1  0
 21 22  1  0
 22 23  1  0
 20  2  1  0
 16  5  2  0
 13  7  1  0
  1 24  1  0
  1 25  1  0
  1 26  1  0
  3 27  1  0
  8 28  1  0
  9 29  1  0
 10 30  1  0
 12 31  1  0
 17 32  1  0
 18 33  1  0
 19 34  1  0
 21 35  1  0
 21 36  1  0
 22 37  1  0
 22 38  1  0
M  END
>  <meeko>  (1) 
{"is_sidechain": [false], "free_energy": -7.974, "intermolecular_energy": -9.838, "internal_energy": -0.407}

$$$$
cand_047_out
     RDKit          3D

 38 40  0  0  0  0  0  0  0  0999 V2000
  179.7610   14.0260   44.8140 C   0  0  0  0  0  0  0  0  0  0  0  0
  180.2700   15.4030   44.4880 C   0  0  0  0  0  0  0  0  0  0  0  0
  179.9970   16.4540   45.3840 C   0  0  0  0  0  0  0  0  0  0  0  0
  180.4370   17.7630   45.1400 C   0  0  0  0  0  0  0  0  0  0  0  0
  180.1330   18.8730   46.0690 C   0  0  0  0  0  0  0  0  0  0  0  0
  181.2730   19.4420   46.6240 O   0  0  0  0  0  0  0  0  0  0  0  0
  181.1330   20.4840   47.5030 C   0  0  0  0  0  0  0  0  0  0  0  0
  182.3050   21.0350   48.0240 C   0  0  0  0  0  0  0  0  0  0  0  0
  182.2330   22.0980   48.9270 C   0  0  0  0  0  0  0  0  0  0  0  0
  180.9910   22.6090   49.3100 C   0  0  0  0  0  0  0  0  0  0  0  0
  179.8240   22.0570   48.7900 C   0  0  0  0  0  0  0  0  0  0  0  0
  178.6420   22.6040   49.2080 O   0  0  0  0  0  0  0  0  0  0  0  0
  179.8970   20.9940   47.8850 C   0  0  0  0  0  0  0  0  0  0  0  0
  178.6940   20.3850   47.3150 C   0  0  0  0  0  0  0  0  0  0  0  0
  177.5650   20.7730   47.6080 O   0  0  0  0  0  0  0  0  0  0  0  0
  178.8790   19.2680   46.3580 C   0  0  0  0  0  0  0  0  0  0  0  0
  177.7360   18.6920   45.8350 O   0  0  0  0  0  0  0  0  0  0  0  0
  181.1450   18.0180   43.9620 C   0  0  0  0  0  0  0  0  0  0  0  0
  181.4190   16.9880   43.0580 C   0  0  0  0  0  0  0  0  0  0  0  0
  180.9850   15.6750   43.3060 C   0  0  0  0  0  0  0  0  0  0  0  0
  181.3330   14.6010   42.3010 C   0  0  0  0  0  0  0  0  0  0  0  0
  181.0750   15.0470   40.8710 C   0  0  0  0  0  0  0  0  0  0  0  0
  179.7960   15.5080   40.7820 F   0  0  0  0  0  0  0  0  0  0  0  0
  179.7148   13.9011   45.9059 H   0  0  0  0  0  0  0  0  0  0  0  0
  178.7555   13.8962   44.3873 H   0  0  0  0  0  0  0  0  0  0  0  0
  180.4404   13.2734   44.3873 H   0  0  0  0  0  0  0  0  0  0  0  0
  179.4239   16.2430   46.2989 H   0  0  0  0  0  0  0  0  0  0  0  0
  183.2837   20.6326   47.7238 H   0  0  0  0  0  0  0  0  0  0  0  0
  183.1561   22.5335   49.3372 H   0  0  0  0  0  0  0  0  0  0  0  0
  180.9352   23.4462   50.0213 H   0  0  0  0  0  0  0  0  0  0  0  0
  178.5800   22.9890   50.0600 H   0  0  0  0  0  0  0  0  0  0  0  0
  176.8960   18.9270   46.1750 H   0  0  0  0  0  0  0  0  0  0  0  0
  181.4899   19.0396   43.7444 H   0  0  0  0  0  0  0  0  0  0  0  0
  181.9824   17.2084   42.1393 H   0  0  0  0  0  0  0  0  0  0  0  0
  182.3985   14.3490   42.4066 H   0  0  0  0  0  0  0  0  0  0  0  0
  180.6933   13.7293   42.5033 H   0  0  0  0  0  0  0  0  0  0  0  0
  181.7774   15.8493   40.6009 H   0  0  0  0  0  0  0  0  0  0  0  0
  181.2175   14.2009   40.1827 H   0  0  0  0  0  0  0  0  0  0  0  0
  1  2  1  0
  2  3  2  0
  3  4  1  0
  4  5  1  0
  5  6  1  0
  6  7  1  0
  7  8  2  0
  8  9  1  0
  9 10  2  0
 10 11  1  0
 11 12  1  0
 11 13  2  0
 13 14  1  0
 14 15  2  0
 14 16  1  0
 16 17  1  0
  4 18  2  0
 18 19  1  0
 19 20  2  0
 20 21  1  0
 21 22  1  0
 22 23  1  0
 20  2  1  0
 16  5  2  0
 13  7  1  0
  1 24  1  0
  1 25  1  0
  1 26  1  0
  3 27  1  0
  8 28  1  0
  9 29  1  0
 10 30  1  0
 12 31  1  0
 17 32  1  0
 18 33  1  0
 19 34  1  0
 21 35  1  0
 21 36  1  0
 22 37  1  0
 22 38  1  0
M  END
>  <meeko>  (2) 
{"is_sidechain": [false], "free_energy": -7.351, "intermolecular_energy": -9.085, "internal_energy": -0.393}

$$$$
cand_047_out
     RDKit          3D

 38 40  0  0  0  0  0  0  0  0999 V2000
  175.3190   20.7120   47.0680 C   0  0  0  0  0  0  0  0  0  0  0  0
  176.8130   20.6480   47.2340 C   0  0  0  0  0  0  0  0  0  0  0  0
  177.5420   19.7320   46.4510 C   0  0  0  0  0  0  0  0  0  0  0  0
  178.9360   19.6170   46.5590 C   0  0  0  0  0  0  0  0  0  0  0  0
  179.7000   18.6400   45.7530 C   0  0  0  0  0  0  0  0  0  0  0  0
  179.1890   17.3500   45.8390 O   0  0  0  0  0  0  0  0  0  0  0  0
  179.8030   16.3460   45.1380 C   0  0  0  0  0  0  0  0  0  0  0  0
  179.2480   15.0700   45.2410 C   0  0  0  0  0  0  0  0  0  0  0  0
  179.8270   14.0000   44.5530 C   0  0  0  0  0  0  0  0  0  0  0  0
  180.9610   14.2060   43.7650 C   0  0  0  0  0  0  0  0  0  0  0  0
  181.5140   15.4800   43.6650 C   0  0  0  0  0  0  0  0  0  0  0  0
  182.6250   15.6120   42.8780 O   0  0  0  0  0  0  0  0  0  0  0  0
  180.9330   16.5500   44.3530 C   0  0  0  0  0  0  0  0  0  0  0  0
  181.4830   17.9050   44.2740 C   0  0  0  0  0  0  0  0  0  0  0  0
  182.4830   18.1640   43.6090 O   0  0  0  0  0  0  0  0  0  0  0  0
  180.7890   18.9700   45.0340 C   0  0  0  0  0  0  0  0  0  0  0  0
  181.3240   20.2440   44.9640 O   0  0  0  0  0  0  0  0  0  0  0  0
  179.6000   20.4250   47.4860 C   0  0  0  0  0  0  0  0  0  0  0  0
  178.8910   21.3350   48.2750 C   0  0  0  0  0  0  0  0  0  0  0  0
  177.4970   21.4550   48.1630 C   0  0  0  0  0  0  0  0  0  0  0  0
  176.7910   22.4740   49.0280 C   0  0  0  0  0  0  0  0  0  0  0  0
  177.1080   23.9000   48.6090 C   0  0  0  0  0  0  0  0  0  0  0  0
  177.2570   23.9340   47.2560 F   0  0  0  0  0  0  0  0  0  0  0  0
  174.8406   20.7325   48.0583 H   0  0  0  0  0  0  0  0  0  0  0  0
  175.0505   21.6225   46.5122 H   0  0  0  0  0  0  0  0  0  0  0  0
  174.9736   19.8278   46.5122 H   0  0  0  0  0  0  0  0  0  0  0  0
  177.0048   19.0906   45.7368 H   0  0  0  0  0  0  0  0  0  0  0  0
  178.3557   14.9063   45.8631 H   0  0  0  0  0  0  0  0  0  0  0  0
  179.3887   12.9942   44.6325 H   0  0  0  0  0  0  0  0  0  0  0  0
  181.4167   13.3635   43.2242 H   0  0  0  0  0  0  0  0  0  0  0  0
  182.5450   15.5710   41.9450 H   0  0  0  0  0  0  0  0  0  0  0  0
  181.3480   20.7830   45.7290 H   0  0  0  0  0  0  0  0  0  0  0  0
  180.6915   20.3439   47.5957 H   0  0  0  0  0  0  0  0  0  0  0  0
  179.4333   21.9664   48.9942 H   0  0  0  0  0  0  0  0  0  0  0  0
  175.7055   22.3145   48.9492 H   0  0  0  0  0  0  0  0  0  0  0  0
  177.1410   22.3399   50.0622 H   0  0  0  0  0  0  0  0  0  0  0  0
  176.2846   24.5654   48.9076 H   0  0  0  0  0  0  0  0  0  0  0  0
  178.0344   24.2371   49.0969 H   0  0  0  0  0  0  0  0  0  0  0  0
  1  2  1  0
  2  3  2  0
  3  4  1  0
  4  5  1  0
  5  6  1  0
  6  7  1  0
  7  8  2  0
  8  9  1  0
  9 10  2  0
 10 11  1  0
 11 12  1  0
 11 13  2  0
 13 14  1  0
 14 15  2  0
 14 16  1  0
 16 17  1  0
  4 18  2  0
 18 19  1  0
 19 20  2  0
 20 21  1  0
 21 22  1  0
 22 23  1  0
 20  2  1  0
 16  5  2  0
 13  7  1  0
  1 24  1  0
  1 25  1  0
  1 26  1  0
  3 27  1  0
  8 28  1  0
  9 29  1  0
 10 30  1  0
 12 31  1  0
 17 32  1  0
 18 33  1  0
 19 34  1  0
 21 35  1  0
 21 36  1  0
 22 37  1  0
 22 38  1  0
M  END
>  <meeko>  (3) 
{"is_sidechain": [false], "free_energy": -7.204, "intermolecular_energy": -8.922, "internal_energy": -0.374}

$$$$
cand_047_out
     RDKit          3D

 38 40  0  0  0  0  0  0  0  0999 V2000
  175.5610   18.7560   47.3590 C   0  0  0  0  0  0  0  0  0  0  0  0
  175.8380   20.1860   47.7360 C   0  0  0  0  0  0  0  0  0  0  0  0
  175.1320   20.7480   48.8180 C   0  0  0  0  0  0  0  0  0  0  0  0
  175.3370   22.0760   49.2190 C   0  0  0  0  0  0  0  0  0  0  0  0
  174.5810   22.6750   50.3400 C   0  0  0  0  0  0  0  0  0  0  0  0
  175.3770   22.9430   51.4470 O   0  0  0  0  0  0  0  0  0  0  0  0
  174.8010   23.5030   52.5580 C   0  0  0  0  0  0  0  0  0  0  0  0
  175.6410   23.7680   53.6410 C   0  0  0  0  0  0  0  0  0  0  0  0
  175.1170   24.3370   54.8060 C   0  0  0  0  0  0  0  0  0  0  0  0
  173.7560   24.6360   54.8870 C   0  0  0  0  0  0  0  0  0  0  0  0
  172.9200   24.3690   53.8060 C   0  0  0  0  0  0  0  0  0  0  0  0
  171.5980   24.6860   53.9530 O   0  0  0  0  0  0  0  0  0  0  0  0
  173.4450   23.8020   52.6410 C   0  0  0  0  0  0  0  0  0  0  0  0
  172.6020   23.5050   51.4820 C   0  0  0  0  0  0  0  0  0  0  0  0
  171.3940   23.7330   51.4790 O   0  0  0  0  0  0  0  0  0  0  0  0
  173.2560   22.9120   50.2920 C   0  0  0  0  0  0  0  0  0  0  0  0
  172.4490   22.6230   49.2070 O   0  0  0  0  0  0  0  0  0  0  0  0
  176.2530   22.8540   48.5050 C   0  0  0  0  0  0  0  0  0  0  0  0
  176.9570   22.3130   47.4260 C   0  0  0  0  0  0  0  0  0  0  0  0
  176.7580   20.9820   47.0270 C   0  0  0  0  0  0  0  0  0  0  0  0
  177.5670   20.4490   45.8670 C   0  0  0  0  0  0  0  0  0  0  0  0
  179.0550   20.4140   46.1730 C   0  0  0  0  0  0  0  0  0  0  0  0
  179.2340   19.8420   47.3960 F   0  0  0  0  0  0  0  0  0  0  0  0
  175.4441   18.1524   48.2711 H   0  0  0  0  0  0  0  0  0  0  0  0
  174.6365   18.7059   46.7651 H   0  0  0  0  0  0  0  0  0  0  0  0
  176.4000   18.3643   46.7651 H   0  0  0  0  0  0  0  0  0  0  0  0
  174.4022   20.1300   49.3615 H   0  0  0  0  0  0  0  0  0  0  0  0
  176.7130   23.5297   53.5781 H   0  0  0  0  0  0  0  0  0  0  0  0
  175.7780   24.5491   55.6593 H   0  0  0  0  0  0  0  0  0  0  0  0
  173.3442   25.0823   55.8042 H   0  0  0  0  0  0  0  0  0  0  0  0
  171.2920   25.5390   53.7150 H   0  0  0  0  0  0  0  0  0  0  0  0
  171.6050   23.0230   49.1330 H   0  0  0  0  0  0  0  0  0  0  0  0
  176.4211   23.9016   48.7952 H   0  0  0  0  0  0  0  0  0  0  0  0
  177.6782   22.9397   46.8809 H   0  0  0  0  0  0  0  0  0  0  0  0
  177.2282   19.4277   45.6384 H   0  0  0  0  0  0  0  0  0  0  0  0
  177.4141   21.1225   45.0109 H   0  0  0  0  0  0  0  0  0  0  0  0
  179.5770   19.8218   45.4070 H   0  0  0  0  0  0  0  0  0  0  0  0
  179.4627   21.4356   46.1728 H   0  0  0  0  0  0  0  0  0  0  0  0
  1  2  1  0
  2  3  2  0
  3  4  1  0
  4  5  1  0
  5  6  1  0
  6  7  1  0
  7  8  2  0
  8  9  1  0
  9 10  2  0
 10 11  1  0
 11 12  1  0
 11 13  2  0
 13 14  1  0
 14 15  2  0
 14 16  1  0
 16 17  1  0
  4 18  2  0
 18 19  1  0
 19 20  2  0
 20 21  1  0
 21 22  1  0
 22 23  1  0
 20  2  1  0
 16  5  2  0
 13  7  1  0
  1 24  1  0
  1 25  1  0
  1 26  1  0
  3 27  1  0
  8 28  1  0
  9 29  1  0
 10 30  1  0
 12 31  1  0
 17 32  1  0
 18 33  1  0
 19 34  1  0
 21 35  1  0
 21 36  1  0
 22 37  1  0
 22 38  1  0
M  END
>  <meeko>  (4) 
{"is_sidechain": [false], "free_energy": -7.126, "intermolecular_energy": -8.646, "internal_energy": -0.553}

$$$$
cand_047_out
     RDKit          3D

 38 40  0  0  0  0  0  0  0  0999 V2000
  174.8260   25.7780   49.9980 C   0  0  0  0  0  0  0  0  0  0  0  0
  175.0530   24.3240   49.6840 C   0  0  0  0  0  0  0  0  0  0  0  0
  176.3650   23.8890   49.4120 C   0  0  0  0  0  0  0  0  0  0  0  0
  176.6470   22.5490   49.1060 C   0  0  0  0  0  0  0  0  0  0  0  0
  178.0200   22.0950   48.8000 C   0  0  0  0  0  0  0  0  0  0  0  0
  178.1500   21.5990   47.5070 O   0  0  0  0  0  0  0  0  0  0  0  0
  179.3750   21.1450   47.0920 C   0  0  0  0  0  0  0  0  0  0  0  0
  179.4630   20.6700   45.7820 C   0  0  0  0  0  0  0  0  0  0  0  0
  180.6820   20.1910   45.2950 C   0  0  0  0  0  0  0  0  0  0  0  0
  181.8100   20.1830   46.1180 C   0  0  0  0  0  0  0  0  0  0  0  0
  181.7190   20.6560   47.4250 C   0  0  0  0  0  0  0  0  0  0  0  0
  182.8610   20.6200   48.1760 O   0  0  0  0  0  0  0  0  0  0  0  0
  180.4990   21.1370   47.9100 C   0  0  0  0  0  0  0  0  0  0  0  0
  180.3610   21.6430   49.2770 C   0  0  0  0  0  0  0  0  0  0  0  0
  181.3050   21.6620   50.0640 O   0  0  0  0  0  0  0  0  0  0  0  0
  179.0280   22.1380   49.6920 C   0  0  0  0  0  0  0  0  0  0  0  0
  178.9040   22.6010   50.9890 O   0  0  0  0  0  0  0  0  0  0  0  0
  175.5860   21.6410   49.0530 C   0  0  0  0  0  0  0  0  0  0  0  0
  174.2780   22.0580   49.3140 C   0  0  0  0  0  0  0  0  0  0  0  0
  173.9950   23.3970   49.6270 C   0  0  0  0  0  0  0  0  0  0  0  0
  172.5630   23.7800   49.9210 C   0  0  0  0  0  0  0  0  0  0  0  0
  172.1440   23.3970   51.3310 C   0  0  0  0  0  0  0  0  0  0  0  0
  173.2300   23.4900   52.1480 F   0  0  0  0  0  0  0  0  0  0  0  0
  174.8041   25.9185   51.0888 H   0  0  0  0  0  0  0  0  0  0  0  0
  175.6414   26.3778   49.5674 H   0  0  0  0  0  0  0  0  0  0  0  0
  173.8666   26.1007   49.5674 H   0  0  0  0  0  0  0  0  0  0  0  0
  177.1885   24.6177   49.4402 H   0  0  0  0  0  0  0  0  0  0  0  0
  178.5740   20.6728   45.1342 H   0  0  0  0  0  0  0  0  0  0  0  0
  180.7531   19.8198   44.2620 H   0  0  0  0  0  0  0  0  0  0  0  0
  182.7689   19.8038   45.7348 H   0  0  0  0  0  0  0  0  0  0  0  0
  182.9450   21.1750   48.9270 H   0  0  0  0  0  0  0  0  0  0  0  0
  178.6290   22.0190   51.6700 H   0  0  0  0  0  0  0  0  0  0  0  0
  175.7824   20.5878   48.8034 H   0  0  0  0  0  0  0  0  0  0  0  0
  173.4578   21.3261   49.2736 H   0  0  0  0  0  0  0  0  0  0  0  0
  172.4561   24.8684   49.8030 H   0  0  0  0  0  0  0  0  0  0  0  0
  171.9165   23.2355   49.2170 H   0  0  0  0  0  0  0  0  0  0  0  0
  171.3567   24.0803   51.6820 H   0  0  0  0  0  0  0  0  0  0  0  0
  171.7538   22.3686   51.3406 H   0  0  0  0  0  0  0  0  0  0  0  0
  1  2  1  0
  2  3  2  0
  3  4  1  0
  4  5  1  0
  5  6  1  0
  6  7  1  0
  7  8  2  0
  8  9  1  0
  9 10  2  0
 10 11  1  0
 11 12  1  0
 11 13  2  0
 13 14  1  0
 14 15  2  0
 14 16  1  0
 16 17  1  0
  4 18  2  0
 18 19  1  0
 19 20  2  0
 20 21  1  0
 21 22  1  0
 22 23  1  0
 20  2  1  0
 16  5  2  0
 13  7  1  0
  1 24  1  0
  1 25  1  0
  1 26  1  0
  3 27  1  0
  8 28  1  0
  9 29  1  0
 10 30  1  0
 12 31  1  0
 17 32  1  0
 18 33  1  0
 19 34  1  0
 21 35  1  0
 21 36  1  0
 22 37  1  0
 22 38  1  0
M  END
>  <meeko>  (5) 
{"is_sidechain": [false], "free_energy": -7.122, "intermolecular_energy": -8.672, "internal_energy": -0.522}

$$$$
cand_047_out
     RDKit          3D

 38 40  0  0  0  0  0  0  0  0999 V2000
  177.6100   18.9570   46.1980 C   0  0  0  0  0  0  0  0  0  0  0  0
  178.0840   20.2090   46.8840 C   0  0  0  0  0  0  0  0  0  0  0  0
  177.3180   20.7280   47.9470 C   0  0  0  0  0  0  0  0  0  0  0  0
  177.6990   21.8940   48.6270 C   0  0  0  0  0  0  0  0  0  0  0  0
  176.8850   22.4530   49.7280 C   0  0  0  0  0  0  0  0  0  0  0  0
  175.8030   23.1990   49.2770 O   0  0  0  0  0  0  0  0  0  0  0  0
  174.9640   23.7730   50.1960 C   0  0  0  0  0  0  0  0  0  0  0  0
  173.8820   24.5010   49.6990 C   0  0  0  0  0  0  0  0  0  0  0  0
  172.9890   25.1130   50.5820 C   0  0  0  0  0  0  0  0  0  0  0  0
  173.1800   25.0000   51.9600 C   0  0  0  0  0  0  0  0  0  0  0  0
  174.2610   24.2740   52.4540 C   0  0  0  0  0  0  0  0  0  0  0  0
  174.3890   24.2050   53.8140 O   0  0  0  0  0  0  0  0  0  0  0  0
  175.1530   23.6610   51.5690 C   0  0  0  0  0  0  0  0  0  0  0  0
  176.3020   22.8890   52.0470 C   0  0  0  0  0  0  0  0  0  0  0  0
  176.5410   22.7510   53.2450 O   0  0  0  0  0  0  0  0  0  0  0  0
  177.1830   22.2710   51.0290 C   0  0  0  0  0  0  0  0  0  0  0  0
  178.2720   21.5560   51.4900 O   0  0  0  0  0  0  0  0  0  0  0  0
  178.8570   22.5570   48.2130 C   0  0  0  0  0  0  0  0  0  0  0  0
  179.6250   22.0600   47.1560 C   0  0  0  0  0  0  0  0  0  0  0  0
  179.2480   20.8880   46.4790 C   0  0  0  0  0  0  0  0  0  0  0  0
  180.1330   20.3890   45.3600 C   0  0  0  0  0  0  0  0  0  0  0  0
  181.5370   20.0600   45.8420 C   0  0  0  0  0  0  0  0  0  0  0  0
  181.4440   19.2990   46.9670 F   0  0  0  0  0  0  0  0  0  0  0  0
  177.3270   18.2095   46.9538 H   0  0  0  0  0  0  0  0  0  0  0  0
  176.7382   19.1910   45.5693 H   0  0  0  0  0  0  0  0  0  0  0  0
  178.4182   18.5550   45.5693 H   0  0  0  0  0  0  0  0  0  0  0  0
  176.3987   20.2058   48.2508 H   0  0  0  0  0  0  0  0  0  0  0  0
  173.7325   24.5928   48.6131 H   0  0  0  0  0  0  0  0  0  0  0  0
  172.1344   25.6846   50.1908 H   0  0  0  0  0  0  0  0  0  0  0  0
  172.4777   25.4837   52.6549 H   0  0  0  0  0  0  0  0  0  0  0  0
  173.6290   24.2600   54.3590 H   0  0  0  0  0  0  0  0  0  0  0  0
  178.1440   20.8270   52.0640 H   0  0  0  0  0  0  0  0  0  0  0  0
  179.1677   23.4800   48.7243 H   0  0  0  0  0  0  0  0  0  0  0  0
  180.5369   22.5937   46.8501 H   0  0  0  0  0  0  0  0  0  0  0  0
  179.6838   19.4811   44.9310 H   0  0  0  0  0  0  0  0  0  0  0  0
  180.2123   21.1892   44.6094 H   0  0  0  0  0  0  0  0  0  0  0  0
  182.0755   19.5027   45.0613 H   0  0  0  0  0  0  0  0  0  0  0  0
  182.0857   20.9879   46.0609 H   0  0  0  0  0  0  0  0  0  0  0  0
  1  2  1  0
  2  3  2  0
  3  4  1  0
  4  5  1  0
  5  6  1  0
  6  7  1  0
  7  8  2  0
  8  9  1  0
  9 10  2  0
 10 11  1  0
 11 12  1  0
 11 13  2  0
 13 14  1  0
 14 15  2  0
 14 16  1  0
 16 17  1  0
  4 18  2  0
 18 19  1  0
 19 20  2  0
 20 21  1  0
 21 22  1  0
 22 23  1  0
 20  2  1  0
 16  5  2  0
 13  7  1  0
  1 24  1  0
  1 25  1  0
  1 26  1  0
  3 27  1  0
  8 28  1  0
  9 29  1  0
 10 30  1  0
 12 31  1  0
 17 32  1  0
 18 33  1  0
 19 34  1  0
 21 35  1  0
 21 36  1  0
 22 37  1  0
 22 38  1  0
M  END
>  <meeko>  (6) 
{"is_sidechain": [false], "free_energy": -7.09, "intermolecular_energy": -8.543, "internal_energy": -0.612}

$$$$
cand_047_out
     RDKit          3D

 38 40  0  0  0  0  0  0  0  0999 V2000
  176.6960   22.6540   47.7230 C   0  0  0  0  0  0  0  0  0  0  0  0
  177.8930   21.7720   47.4950 C   0  0  0  0  0  0  0  0  0  0  0  0
  179.1440   22.1910   47.9880 C   0  0  0  0  0  0  0  0  0  0  0  0
  180.3020   21.4200   47.8060 C   0  0  0  0  0  0  0  0  0  0  0  0
  181.6200   21.8680   48.3040 C   0  0  0  0  0  0  0  0  0  0  0  0
  182.4290   22.3890   47.3000 O   0  0  0  0  0  0  0  0  0  0  0  0
  183.6800   22.8440   47.6260 C   0  0  0  0  0  0  0  0  0  0  0  0
  184.4520   23.3720   46.5900 C   0  0  0  0  0  0  0  0  0  0  0  0
  185.7380   23.8510   46.8530 C   0  0  0  0  0  0  0  0  0  0  0  0
  186.2510   23.8000   48.1510 C   0  0  0  0  0  0  0  0  0  0  0  0
  185.4800   23.2710   49.1820 C   0  0  0  0  0  0  0  0  0  0  0  0
  186.0440   23.2500   50.4280 O   0  0  0  0  0  0  0  0  0  0  0  0
  184.1930   22.7930   48.9180 C   0  0  0  0  0  0  0  0  0  0  0  0
  183.3500   22.2300   49.9740 C   0  0  0  0  0  0  0  0  0  0  0  0
  183.7340   22.1430   51.1380 O   0  0  0  0  0  0  0  0  0  0  0  0
  181.9980   21.7580   49.5910 C   0  0  0  0  0  0  0  0  0  0  0  0
  181.2140   21.2160   50.5930 O   0  0  0  0  0  0  0  0  0  0  0  0
  180.1980   20.2200   47.0980 C   0  0  0  0  0  0  0  0  0  0  0  0
  178.9650   19.7930   46.5970 C   0  0  0  0  0  0  0  0  0  0  0  0
  177.8040   20.5610   46.7840 C   0  0  0  0  0  0  0  0  0  0  0  0
  176.4970   20.0330   46.2380 C   0  0  0  0  0  0  0  0  0  0  0  0
  175.9620   18.8690   47.0550 C   0  0  0  0  0  0  0  0  0  0  0  0
  176.0980   19.1650   48.3770 F   0  0  0  0  0  0  0  0  0  0  0  0
  176.5308   22.7757   48.8037 H   0  0  0  0  0  0  0  0  0  0  0  0
  176.8737   23.6387   47.2660 H   0  0  0  0  0  0  0  0  0  0  0  0
  175.8082   22.1926   47.2660 H   0  0  0  0  0  0  0  0  0  0  0  0
  179.2149   23.1461   48.5290 H   0  0  0  0  0  0  0  0  0  0  0  0
  184.0484   23.4110   45.5675 H   0  0  0  0  0  0  0  0  0  0  0  0
  186.3466   24.2685   46.0373 H   0  0  0  0  0  0  0  0  0  0  0  0
  187.2632   24.1775   48.3583 H   0  0  0  0  0  0  0  0  0  0  0  0
  186.2990   22.4340   50.8120 H   0  0  0  0  0  0  0  0  0  0  0  0
  181.4910   21.2720   51.4860 H   0  0  0  0  0  0  0  0  0  0  0  0
  181.0952   19.6053   46.9333 H   0  0  0  0  0  0  0  0  0  0  0  0
  178.9030   18.8416   46.0483 H   0  0  0  0  0  0  0  0  0  0  0  0
  175.7546   20.8446   46.2495 H   0  0  0  0  0  0  0  0  0  0  0  0
  176.6796   19.6719   45.2151 H   0  0  0  0  0  0  0  0  0  0  0  0
  174.8997   18.7083   46.8190 H   0  0  0  0  0  0  0  0  0  0  0  0
  176.5235   17.9538   46.8160 H   0  0  0  0  0  0  0  0  0  0  0  0
  1  2  1  0
  2  3  2  0
  3  4  1  0
  4  5  1  0
  5  6  1  0
  6  7  1  0
  7  8  2  0
  8  9  1  0
  9 10  2  0
 10 11  1  0
 11 12  1  0
 11 13  2  0
 13 14  1  0
 14 15  2  0
 14 16  1  0
 16 17  1  0
  4 18  2  0
 18 19  1  0
 19 20  2  0
 20 21  1  0
 21 22  1  0
 22 23  1  0
 20  2  1  0
 16  5  2  0
 13  7  1  0
  1 24  1  0
  1 25  1  0
  1 26  1  0
  3 27  1  0
  8 28  1  0
  9 29  1  0
 10 30  1  0
 12 31  1  0
 17 32  1  0
 18 33  1  0
 19 34  1  0
 21 35  1  0
 21 36  1  0
 22 37  1  0
 22 38  1  0
M  END
>  <meeko>  (7) 
{"is_sidechain": [false], "free_energy": -7.068, "intermolecular_energy": -8.489, "internal_energy": -0.639}

$$$$
cand_047_out
     RDKit          3D

 38 40  0  0  0  0  0  0  0  0999 V2000
  181.3540   21.8850   47.1210 C   0  0  0  0  0  0  0  0  0  0  0  0
  179.8990   21.5140   47.2170 C   0  0  0  0  0  0  0  0  0  0  0  0
  179.1330   22.0470   48.2730 C   0  0  0  0  0  0  0  0  0  0  0  0
  177.7740   21.7380   48.4250 C   0  0  0  0  0  0  0  0  0  0  0  0
  176.9740   22.2790   49.5440 C   0  0  0  0  0  0  0  0  0  0  0  0
  175.8690   23.0070   49.1170 O   0  0  0  0  0  0  0  0  0  0  0  0
  175.0390   23.5640   50.0550 C   0  0  0  0  0  0  0  0  0  0  0  0
  173.9340   24.2730   49.5820 C   0  0  0  0  0  0  0  0  0  0  0  0
  173.0490   24.8680   50.4850 C   0  0  0  0  0  0  0  0  0  0  0  0
  173.2710   24.7540   51.8590 C   0  0  0  0  0  0  0  0  0  0  0  0
  174.3740   24.0470   52.3290 C   0  0  0  0  0  0  0  0  0  0  0  0
  174.5320   23.9760   53.6850 O   0  0  0  0  0  0  0  0  0  0  0  0
  175.2580   23.4520   51.4240 C   0  0  0  0  0  0  0  0  0  0  0  0
  176.4310   22.7000   51.8760 C   0  0  0  0  0  0  0  0  0  0  0  0
  176.6970   22.5620   53.0680 O   0  0  0  0  0  0  0  0  0  0  0  0
  177.3010   22.1000   50.8380 C   0  0  0  0  0  0  0  0  0  0  0  0
  178.4130   21.4030   51.2740 O   0  0  0  0  0  0  0  0  0  0  0  0
  177.1850   20.8610   47.5090 C   0  0  0  0  0  0  0  0  0  0  0  0
  177.9320   20.3180   46.4600 C   0  0  0  0  0  0  0  0  0  0  0  0
  179.2910   20.6320   46.3040 C   0  0  0  0  0  0  0  0  0  0  0  0
  180.0380   20.0310   45.1350 C   0  0  0  0  0  0  0  0  0  0  0  0
  180.6620   18.6890   45.4820 C   0  0  0  0  0  0  0  0  0  0  0  0
  179.6780   17.7470   45.5180 F   0  0  0  0  0  0  0  0  0  0  0  0
  181.7727   21.9918   48.1326 H   0  0  0  0  0  0  0  0  0  0  0  0
  181.8984   21.0969   46.5801 H   0  0  0  0  0  0  0  0  0  0  0  0
  181.4546   22.8375   46.5801 H   0  0  0  0  0  0  0  0  0  0  0  0
  179.6134   22.7224   48.9962 H   0  0  0  0  0  0  0  0  0  0  0  0
  173.7599   24.3634   48.4996 H   0  0  0  0  0  0  0  0  0  0  0  0
  172.1771   25.4264   50.1134 H   0  0  0  0  0  0  0  0  0  0  0  0
  172.5744   25.2228   52.5696 H   0  0  0  0  0  0  0  0  0  0  0  0
  174.3770   24.7340   54.2150 H   0  0  0  0  0  0  0  0  0  0  0  0
  179.2110   21.8590   51.4500 H   0  0  0  0  0  0  0  0  0  0  0  0
  176.1228   20.5957   47.6151 H   0  0  0  0  0  0  0  0  0  0  0  0
  177.4480   19.6349   45.7465 H   0  0  0  0  0  0  0  0  0  0  0  0
  179.3356   19.8900   44.3003 H   0  0  0  0  0  0  0  0  0  0  0  0
  180.8501   20.7209   44.8621 H   0  0  0  0  0  0  0  0  0  0  0  0
  181.4062   18.4182   44.7186 H   0  0  0  0  0  0  0  0  0  0  0  0
  181.1603   18.7487   46.4608 H   0  0  0  0  0  0  0  0  0  0  0  0
  1  2  1  0
  2  3  2  0
  3  4  1  0
  4  5  1  0
  5  6  1  0
  6  7  1  0
  7  8  2  0
  8  9  1  0
  9 10  2  0
 10 11  1  0
 11 12  1  0
 11 13  2  0
 13 14  1  0
 14 15  2  0
 14 16  1  0
 16 17  1  0
  4 18  2  0
 18 19  1  0
 19 20  2  0
 20 21  1  0
 21 22  1  0
 22 23  1  0
 20  2  1  0
 16  5  2  0
 13  7  1  0
  1 24  1  0
  1 25  1  0
  1 26  1  0
  3 27  1  0
  8 28  1  0
  9 29  1  0
 10 30  1  0
 12 31  1  0
 17 32  1  0
 18 33  1  0
 19 34  1  0
 21 35  1  0
 21 36  1  0
 22 37  1  0
 22 38  1  0
M  END
>  <meeko>  (8) 
{"is_sidechain": [false], "free_energy": -7.004, "intermolecular_energy": -8.732, "internal_energy": -0.316}

$$$$
cand_047_out
     RDKit          3D

 38 40  0  0  0  0  0  0  0  0999 V2000
  182.7270   25.5910   47.7460 C   0  0  0  0  0  0  0  0  0  0  0  0
  182.5030   24.1450   48.0930 C   0  0  0  0  0  0  0  0  0  0  0  0
  181.1910   23.7110   48.3680 C   0  0  0  0  0  0  0  0  0  0  0  0
  180.9120   22.3780   48.7030 C   0  0  0  0  0  0  0  0  0  0  0  0
  179.5390   21.9250   49.0130 C   0  0  0  0  0  0  0  0  0  0  0  0
  178.7950   21.6340   47.8760 O   0  0  0  0  0  0  0  0  0  0  0  0
  177.5030   21.2000   48.0210 C   0  0  0  0  0  0  0  0  0  0  0  0
  176.7990   20.9050   46.8530 C   0  0  0  0  0  0  0  0  0  0  0  0
  175.4770   20.4600   46.9300 C   0  0  0  0  0  0  0  0  0  0  0  0
  174.8590   20.3130   48.1740 C   0  0  0  0  0  0  0  0  0  0  0  0
  175.5630   20.6100   49.3380 C   0  0  0  0  0  0  0  0  0  0  0  0
  174.8990   20.4460   50.5220 O   0  0  0  0  0  0  0  0  0  0  0  0
  176.8870   21.0540   49.2590 C   0  0  0  0  0  0  0  0  0  0  0  0
  177.6630   21.3770   50.4590 C   0  0  0  0  0  0  0  0  0  0  0  0
  177.1870   21.2810   51.5880 O   0  0  0  0  0  0  0  0  0  0  0  0
  179.0600   21.8310   50.2680 C   0  0  0  0  0  0  0  0  0  0  0  0
  179.7800   22.1460   51.4060 O   0  0  0  0  0  0  0  0  0  0  0  0
  181.9760   21.4750   48.7820 C   0  0  0  0  0  0  0  0  0  0  0  0
  183.2840   21.8900   48.5190 C   0  0  0  0  0  0  0  0  0  0  0  0
  183.5640   23.2230   48.1770 C   0  0  0  0  0  0  0  0  0  0  0  0
  184.9960   23.6040   47.8810 C   0  0  0  0  0  0  0  0  0  0  0  0
  185.3340   23.4620   46.4060 C   0  0  0  0  0  0  0  0  0  0  0  0
  184.2390   22.9880   45.7510 F   0  0  0  0  0  0  0  0  0  0  0  0
  182.8183   26.1800   48.6705 H   0  0  0  0  0  0  0  0  0  0  0  0
  183.6509   25.6878   47.1568 H   0  0  0  0  0  0  0  0  0  0  0  0
  181.8757   25.9628   47.1568 H   0  0  0  0  0  0  0  0  0  0  0  0
  180.3650   24.4357   48.3187 H   0  0  0  0  0  0  0  0  0  0  0  0
  177.2843   21.0227   45.8729 H   0  0  0  0  0  0  0  0  0  0  0  0
  174.9220   20.2251   46.0098 H   0  0  0  0  0  0  0  0  0  0  0  0
  173.8178   19.9632   48.2340 H   0  0  0  0  0  0  0  0  0  0  0  0
  174.9010   21.1340   51.1590 H   0  0  0  0  0  0  0  0  0  0  0  0
  180.0710   21.4640   51.9790 H   0  0  0  0  0  0  0  0  0  0  0  0
  181.7816   20.4270   49.0540 H   0  0  0  0  0  0  0  0  0  0  0  0
  184.1064   21.1621   48.5807 H   0  0  0  0  0  0  0  0  0  0  0  0
  185.1537   24.6503   48.1816 H   0  0  0  0  0  0  0  0  0  0  0  0
  185.6504   22.9229   48.4448 H   0  0  0  0  0  0  0  0  0  0  0  0
  185.6156   24.4426   45.9947 H   0  0  0  0  0  0  0  0  0  0  0  0
  186.1765   22.7661   46.2799 H   0  0  0  0  0  0  0  0  0  0  0  0
  1  2  1  0
  2  3  2  0
  3  4  1  0
  4  5  1  0
  5  6  1  0
  6  7  1  0
  7  8  2  0
  8  9  1  0
  9 10  2  0
 10 11  1  0
 11 12  1  0
 11 13  2  0
 13 14  1  0
 14 15  2  0
 14 16  1  0
 16 17  1  0
  4 18  2  0
 18 19  1  0
 19 20  2  0
 20 21  1  0
 21 22  1  0
 22 23  1  0
 20  2  1  0
 16  5  2  0
 13  7  1  0
  1 24  1  0
  1 25  1  0
  1 26  1  0
  3 27  1  0
  8 28  1  0
  9 29  1  0
 10 30  1  0
 12 31  1  0
 17 32  1  0
 18 33  1  0
 19 34  1  0
 21 35  1  0
 21 36  1  0
 22 37  1  0
 22 38  1  0
M  END
>  <meeko>  (9) 
{"is_sidechain": [false], "free_energy": -6.869, "intermolecular_energy": -8.358, "internal_energy": -0.523}

$$$$
