cand_049_out
     RDKit          3D

 47 49  0  0  0  0  0  0  0  0999 V2000
  176.9060   23.5260   48.8280 C   0  0  0  0  0  0  0  0  0  0  0  0
  177.4140   23.3330   47.4050 C   0  0  0  0  0  0  0  0  0  0  0  0
  178.4840   22.2660   47.3300 C   0  0  0  0  0  0  0  0  0  0  0  0
  179.7850   22.6080   47.7510 C   0  0  0  0  0  0  0  0  0  0  0  0
  180.8340   21.6760   47.7570 C   0  0  0  0  0  0  0  0  0  0  0  0
  182.1880   22.0940   48.1790 C   0  0  0  0  0  0  0  0  0  0  0  0
  182.8940   22.7390   47.1690 O   0  0  0  0  0  0  0  0  0  0  0  0
  184.1660   23.1800   47.4260 C   0  0  0  0  0  0  0  0  0  0  0  0
  184.8420   23.8090   46.3810 C   0  0  0  0  0  0  0  0  0  0  0  0
  186.1410   24.2830   46.5760 C   0  0  0  0  0  0  0  0  0  0  0  0
  186.7630   24.1300   47.8160 C   0  0  0  0  0  0  0  0  0  0  0  0
  186.0870   23.5020   48.8590 C   0  0  0  0  0  0  0  0  0  0  0  0
  186.7540   23.3850   50.0470 O   0  0  0  0  0  0  0  0  0  0  0  0
  184.7870   23.0260   48.6620 C   0  0  0  0  0  0  0  0  0  0  0  0
  184.0400   22.3600   49.7310 C   0  0  0  0  0  0  0  0  0  0  0  0
  184.5170   22.1940   50.8520 O   0  0  0  0  0  0  0  0  0  0  0  0
  182.6720   21.8870   49.4180 C   0  0  0  0  0  0  0  0  0  0  0  0
  181.9710   21.2710   50.4390 O   0  0  0  0  0  0  0  0  0  0  0  0
  180.5660   20.3770   47.3210 C   0  0  0  0  0  0  0  0  0  0  0  0
  179.2810   20.0170   46.9060 C   0  0  0  0  0  0  0  0  0  0  0  0
  178.2280   20.9470   46.9030 C   0  0  0  0  0  0  0  0  0  0  0  0
  176.8650   20.4850   46.4280 C   0  0  0  0  0  0  0  0  0  0  0  0
  176.0740   19.6830   47.4820 C   0  0  0  0  0  0  0  0  0  0  0  0
  174.8810   20.4680   48.0340 C   0  0  0  0  0  0  0  0  0  0  0  0
  175.5820   18.3690   46.8680 C   0  0  0  0  0  0  0  0  0  0  0  0
  177.6894   23.2284   49.5405 H   0  0  0  0  0  0  0  0  0  0  0  0
  176.6499   24.5841   48.9855 H   0  0  0  0  0  0  0  0  0  0  0  0
  176.0119   22.9049   48.9855 H   0  0  0  0  0  0  0  0  0  0  0  0
  176.5710   23.0376   46.7630 H   0  0  0  0  0  0  0  0  0  0  0  0
  177.8542   24.2829   47.0675 H   0  0  0  0  0  0  0  0  0  0  0  0
  179.9841   23.6370   48.0851 H   0  0  0  0  0  0  0  0  0  0  0  0
  184.3523   23.9317   45.4037 H   0  0  0  0  0  0  0  0  0  0  0  0
  186.6748   24.7777   45.7511 H   0  0  0  0  0  0  0  0  0  0  0  0
  187.7857   24.5049   47.9692 H   0  0  0  0  0  0  0  0  0  0  0  0
  186.5640   23.9750   50.7510 H   0  0  0  0  0  0  0  0  0  0  0  0
  181.4080   20.5460   50.2500 H   0  0  0  0  0  0  0  0  0  0  0  0
  181.3735   19.6302   47.3040 H   0  0  0  0  0  0  0  0  0  0  0  0
  179.0903   18.9854   46.5752 H   0  0  0  0  0  0  0  0  0  0  0  0
  176.2751   21.3719   46.1533 H   0  0  0  0  0  0  0  0  0  0  0  0
  177.0357   19.8106   45.5759 H   0  0  0  0  0  0  0  0  0  0  0  0
  176.7556   19.4804   48.3213 H   0  0  0  0  0  0  0  0  0  0  0  0
  174.9076   20.4505   49.1335 H   0  0  0  0  0  0  0  0  0  0  0  0
  174.9328   21.5090   47.6825 H   0  0  0  0  0  0  0  0  0  0  0  0
  173.9454   20.0085   47.6825 H   0  0  0  0  0  0  0  0  0  0  0  0
  175.3184   17.6651   47.6711 H   0  0  0  0  0  0  0  0  0  0  0  0
  174.6960   18.5640   46.2460 H   0  0  0  0  0  0  0  0  0  0  0  0
  176.3782   17.9342   46.2460 H   0  0  0  0  0  0  0  0  0  0  0  0
  1  2  1  0
  2  3  1  0
  3  4  2  0
  4  5  1  0
  5  6  1  0
  6  7  1  0
  7  8  1  0
  8  9  2  0
  9 10  1  0
 10 11  2  0
 11 12  1  0
 12 13  1  0
 12 14  2  0
 14 15  1  0
 15 16  2  0
 15 17  1  0
 17 18  1  0
  5 19  2  0
 19 20  1  0
 20 21  2  0
 21 22  1  0
 22 23  1  0
 23 24  1  0
 23 25  1  0
 21  3  1  0
 17  6  2  0
 14  8  1  0
  1 26  1  0
  1 27  1  0
  1 28  1  0
  2 29  1  0
  2 30  1  0
  4 31  1  0
  9 32  1  0
 10 33  1  0
 11 34  1  0
 13 35  1  0
 18 36  1  0
 19 37  1  0
 20 38  1  0
 22 39  1  0
 22 40  1  0
 23 41  1  0
 24 42  1  0
 24 43  1  0
 24 44  1  0
 25 45  1  0
 25 46  1  0
 25 47  1  0
M  END
>  <meeko>  (1) 
{"is_sidechain": [false], "free_energy": -7.602, "intermolecular_energy": -9.824, "internal_energy": -1.067}

$$$$
cand_049_out
     RDKit          3D

 47 49  0  0  0  0  0  0  0  0999 V2000
  180.8330   18.5040   44.8520 C   0  0  0  0  0  0  0  0  0  0  0  0
  179.6720   18.5580   45.8360 C   0  0  0  0  0  0  0  0  0  0  0  0
  179.6000   19.8900   46.5490 C   0  0  0  0  0  0  0  0  0  0  0  0
  180.7980   20.4250   47.0660 C   0  0  0  0  0  0  0  0  0  0  0  0
  180.8400   21.6720   47.7070 C   0  0  0  0  0  0  0  0  0  0  0  0
  182.1160   22.1750   48.2590 C   0  0  0  0  0  0  0  0  0  0  0  0
  182.7870   23.0210   47.3830 O   0  0  0  0  0  0  0  0  0  0  0  0
  183.9870   23.5600   47.7690 C   0  0  0  0  0  0  0  0  0  0  0  0
  184.6310   24.3920   46.8530 C   0  0  0  0  0  0  0  0  0  0  0  0
  185.8560   24.9760   47.1840 C   0  0  0  0  0  0  0  0  0  0  0  0
  186.4360   24.7280   48.4300 C   0  0  0  0  0  0  0  0  0  0  0  0
  185.7910   23.8970   49.3420 C   0  0  0  0  0  0  0  0  0  0  0  0
  186.4130   23.6970   50.5430 O   0  0  0  0  0  0  0  0  0  0  0  0
  184.5650   23.3130   49.0100 C   0  0  0  0  0  0  0  0  0  0  0  0
  183.8530   22.4330   49.9390 C   0  0  0  0  0  0  0  0  0  0  0  0
  184.2960   22.1730   51.0560 O   0  0  0  0  0  0  0  0  0  0  0  0
  182.5650   21.8590   49.4880 C   0  0  0  0  0  0  0  0  0  0  0  0
  181.8950   21.0410   50.3800 O   0  0  0  0  0  0  0  0  0  0  0  0
  179.6480   22.3880   47.8370 C   0  0  0  0  0  0  0  0  0  0  0  0
  178.4520   21.8770   47.3260 C   0  0  0  0  0  0  0  0  0  0  0  0
  178.4080   20.6300   46.6800 C   0  0  0  0  0  0  0  0  0  0  0  0
  177.0720   20.1380   46.1620 C   0  0  0  0  0  0  0  0  0  0  0  0
  176.2540   19.3410   47.1990 C   0  0  0  0  0  0  0  0  0  0  0  0
  175.1700   20.1940   47.8630 C   0  0  0  0  0  0  0  0  0  0  0  0
  175.6090   18.1270   46.5250 C   0  0  0  0  0  0  0  0  0  0  0  0
  181.7819   18.4599   45.4066 H   0  0  0  0  0  0  0  0  0  0  0  0
  180.7361   17.6094   44.2193 H   0  0  0  0  0  0  0  0  0  0  0  0
  180.8196   19.4037   44.2193 H   0  0  0  0  0  0  0  0  0  0  0  0
  178.7325   18.3970   45.2870 H   0  0  0  0  0  0  0  0  0  0  0  0
  179.8283   17.7742   46.5918 H   0  0  0  0  0  0  0  0  0  0  0  0
  181.7281   19.8467   46.9635 H   0  0  0  0  0  0  0  0  0  0  0  0
  184.1748   24.5879   45.8714 H   0  0  0  0  0  0  0  0  0  0  0  0
  186.3645   25.6321   46.4623 H   0  0  0  0  0  0  0  0  0  0  0  0
  187.4005   25.1883   48.6903 H   0  0  0  0  0  0  0  0  0  0  0  0
  187.3400   23.8140   50.6160 H   0  0  0  0  0  0  0  0  0  0  0  0
  181.4950   20.2490   50.0790 H   0  0  0  0  0  0  0  0  0  0  0  0
  179.6506   23.3630   48.3463 H   0  0  0  0  0  0  0  0  0  0  0  0
  177.5268   22.4625   47.4316 H   0  0  0  0  0  0  0  0  0  0  0  0
  176.4792   21.0104   45.8498 H   0  0  0  0  0  0  0  0  0  0  0  0
  177.2858   19.4522   45.3289 H   0  0  0  0  0  0  0  0  0  0  0  0
  176.9492   19.0150   47.9866 H   0  0  0  0  0  0  0  0  0  0  0  0
  175.2639   20.1201   48.9565 H   0  0  0  0  0  0  0  0  0  0  0  0
  175.2890   21.2432   47.5548 H   0  0  0  0  0  0  0  0  0  0  0  0
  174.1782   19.8316   47.5548 H   0  0  0  0  0  0  0  0  0  0  0  0
  175.2403   17.4331   47.2948 H   0  0  0  0  0  0  0  0  0  0  0  0
  174.7685   18.4593   45.8980 H   0  0  0  0  0  0  0  0  0  0  0  0
  176.3548   17.6164   45.8980 H   0  0  0  0  0  0  0  0  0  0  0  0
  1  2  1  0
  2  3  1  0
  3  4  2  0
  4  5  1  0
  5  6  1  0
  6  7  1  0
  7  8  1  0
  8  9  2  0
  9 10  1  0
 10 11  2  0
 11 12  1  0
 12 13  1  0
 12 14  2  0
 14 15  1  0
 15 16  2  0
 15 17  1  0
 17 18  1  0
  5 19  2  0
 19 20  1  0
 20 21  2  0
 21 22  1  0
 22 23  1  0
 23 24  1  0
 23 25  1  0
 21  3  1  0
 17  6  2  0
 14  8  1  0
  1 26  1  0
  1 27  1  0
  1 28  1  0
  2 29  1  0
  2 30  1  0
  4 31  1  0
  9 32  1  0
 10 33  1  0
 11 34  1  0
 13 35  1  0
 18 36  1  0
 19 37  1  0
 20 38  1  0
 22 39  1  0
 22 40  1  0
 23 41  1  0
 24 42  1  0
 24 43  1  0
 24 44  1  0
 25 45  1  0
 25 46  1  0
 25 47  1  0
M  END
>  <meeko>  (2) 
{"is_sidechain": [false], "free_energy": -7.558, "intermolecular_energy": -9.903, "internal_energy": -0.931}

$$$$
cand_049_out
     RDKit          3D

 47 49  0  0  0  0  0  0  0  0999 V2000
  178.9240   13.7690   44.9910 C   0  0  0  0  0  0  0  0  0  0  0  0
  180.4000   14.1430   44.9460 C   0  0  0  0  0  0  0  0  0  0  0  0
  180.6000   15.6020   44.6000 C   0  0  0  0  0  0  0  0  0  0  0  0
  179.9970   16.5640   45.4350 C   0  0  0  0  0  0  0  0  0  0  0  0
  180.1590   17.9410   45.2200 C   0  0  0  0  0  0  0  0  0  0  0  0
  179.4810   18.9100   46.1080 C   0  0  0  0  0  0  0  0  0  0  0  0
  178.0960   18.7890   46.0820 O   0  0  0  0  0  0  0  0  0  0  0  0
  177.3420   19.6280   46.8610 C   0  0  0  0  0  0  0  0  0  0  0  0
  175.9560   19.4800   46.7930 C   0  0  0  0  0  0  0  0  0  0  0  0
  175.1290   20.3020   47.5620 C   0  0  0  0  0  0  0  0  0  0  0  0
  175.6880   21.2710   48.3980 C   0  0  0  0  0  0  0  0  0  0  0  0
  177.0710   21.4170   48.4640 C   0  0  0  0  0  0  0  0  0  0  0  0
  177.5520   22.3830   49.3030 O   0  0  0  0  0  0  0  0  0  0  0  0
  177.8980   20.5940   47.6940 C   0  0  0  0  0  0  0  0  0  0  0  0
  179.3570   20.7140   47.7330 C   0  0  0  0  0  0  0  0  0  0  0  0
  179.9230   21.5370   48.4490 O   0  0  0  0  0  0  0  0  0  0  0  0
  180.1420   19.7990   46.8730 C   0  0  0  0  0  0  0  0  0  0  0  0
  181.5200   19.9120   46.9280 O   0  0  0  0  0  0  0  0  0  0  0  0
  180.9370   18.3540   44.1360 C   0  0  0  0  0  0  0  0  0  0  0  0
  181.5460   17.4150   43.3000 C   0  0  0  0  0  0  0  0  0  0  0  0
  181.3900   16.0350   43.5160 C   0  0  0  0  0  0  0  0  0  0  0  0
  182.0730   15.0780   42.5600 C   0  0  0  0  0  0  0  0  0  0  0  0
  181.2800   14.8150   41.2640 C   0  0  0  0  0  0  0  0  0  0  0  0
  179.7680   14.9250   41.4750 C   0  0  0  0  0  0  0  0  0  0  0  0
  181.7190   15.8040   40.1800 C   0  0  0  0  0  0  0  0  0  0  0  0
  178.5984   13.6865   46.0385 H   0  0  0  0  0  0  0  0  0  0  0  0
  178.3333   14.5458   44.4835 H   0  0  0  0  0  0  0  0  0  0  0  0
  178.7745   12.8046   44.4835 H   0  0  0  0  0  0  0  0  0  0  0  0
  180.8473   13.9463   45.9315 H   0  0  0  0  0  0  0  0  0  0  0  0
  180.8823   13.5373   44.1647 H   0  0  0  0  0  0  0  0  0  0  0  0
  179.3807   16.2250   46.2808 H   0  0  0  0  0  0  0  0  0  0  0  0
  175.5153   18.7169   46.1346 H   0  0  0  0  0  0  0  0  0  0  0  0
  174.0364   20.1860   47.5091 H   0  0  0  0  0  0  0  0  0  0  0  0
  175.0364   21.9181   49.0036 H   0  0  0  0  0  0  0  0  0  0  0  0
  177.7560   23.2350   48.9690 H   0  0  0  0  0  0  0  0  0  0  0  0
  182.0430   19.6230   46.2060 H   0  0  0  0  0  0  0  0  0  0  0  0
  181.0713   19.4278   43.9389 H   0  0  0  0  0  0  0  0  0  0  0  0
  182.1598   17.7626   42.4559 H   0  0  0  0  0  0  0  0  0  0  0  0
  183.0513   15.5006   42.2874 H   0  0  0  0  0  0  0  0  0  0  0  0
  182.1593   14.1136   43.0820 H   0  0  0  0  0  0  0  0  0  0  0  0
  181.4971   13.7835   40.9497 H   0  0  0  0  0  0  0  0  0  0  0  0
  179.5484   14.9410   42.5527 H   0  0  0  0  0  0  0  0  0  0  0  0
  179.3997   15.8523   41.0119 H   0  0  0  0  0  0  0  0  0  0  0  0
  179.2693   14.0608   41.0119 H   0  0  0  0  0  0  0  0  0  0  0  0
  182.1219   16.7116   40.6532 H   0  0  0  0  0  0  0  0  0  0  0  0
  182.4961   15.3409   39.5542 H   0  0  0  0  0  0  0  0  0  0  0  0
  180.8543   16.0697   39.5542 H   0  0  0  0  0  0  0  0  0  0  0  0
  1  2  1  0
  2  3  1  0
  3  4  2  0
  4  5  1  0
  5  6  1  0
  6  7  1  0
  7  8  1  0
  8  9  2  0
  9 10  1  0
 10 11  2  0
 11 12  1  0
 12 13  1  0
 12 14  2  0
 14 15  1  0
 15 16  2  0
 15 17  1  0
 17 18  1  0
  5 19  2  0
 19 20  1  0
 20 21  2  0
 21 22  1  0
 22 23  1  0
 23 24  1  0
 23 25  1  0
 21  3  1  0
 17  6  2  0
 14  8  1  0
  1 26  1  0
  1 27  1  0
  1 28  1  0
  2 29  1  0
  2 30  1  0
  4 31  1  0
  9 32  1  0
 10 33  1  0
 11 34  1  0
 13 35  1  0
 18 36  1  0
 19 37  1  0
 20 38  1  0
 22 39  1  0
 22 40  1  0
 23 41  1  0
 24 42  1  0
 24 43  1  0
 24 44  1  0
 25 45  1  0
 25 46  1  0
 25 47  1  0
M  END
>  <meeko>  (3) 
{"is_sidechain": [false], "free_energy": -7.49, "intermolecular_energy": -10.008, "internal_energy": -0.739}

$$$$
cand_049_out
     RDKit          3D

 47 49  0  0  0  0  0  0  0  0999 V2000
  175.5910   18.6040   47.3460 C   0  0  0  0  0  0  0  0  0  0  0  0
  176.8350   19.0740   46.6030 C   0  0  0  0  0  0  0  0  0  0  0  0
  177.4110   20.3330   47.2120 C   0  0  0  0  0  0  0  0  0  0  0  0
  176.7480   20.8880   48.3260 C   0  0  0  0  0  0  0  0  0  0  0  0
  177.2290   22.0300   48.9830 C   0  0  0  0  0  0  0  0  0  0  0  0
  176.4800   22.5910   50.1290 C   0  0  0  0  0  0  0  0  0  0  0  0
  175.2800   23.1840   49.7510 O   0  0  0  0  0  0  0  0  0  0  0  0
  174.4840   23.7450   50.7160 C   0  0  0  0  0  0  0  0  0  0  0  0
  173.2970   24.3420   50.2900 C   0  0  0  0  0  0  0  0  0  0  0  0
  172.4390   24.9300   51.2220 C   0  0  0  0  0  0  0  0  0  0  0  0
  172.7690   24.9210   52.5790 C   0  0  0  0  0  0  0  0  0  0  0  0
  173.9540   24.3260   53.0020 C   0  0  0  0  0  0  0  0  0  0  0  0
  174.2150   24.3520   54.3440 O   0  0  0  0  0  0  0  0  0  0  0  0
  174.8120   23.7370   52.0680 C   0  0  0  0  0  0  0  0  0  0  0  0
  176.0680   23.1010   52.4690 C   0  0  0  0  0  0  0  0  0  0  0  0
  176.4230   23.0460   53.6450 O   0  0  0  0  0  0  0  0  0  0  0  0
  176.9090   22.5130   51.4020 C   0  0  0  0  0  0  0  0  0  0  0  0
  178.0870   21.9020   51.7940 O   0  0  0  0  0  0  0  0  0  0  0  0
  178.3960   22.6280   48.5030 C   0  0  0  0  0  0  0  0  0  0  0  0
  179.0700   22.0890   47.4040 C   0  0  0  0  0  0  0  0  0  0  0  0
  178.5930   20.9430   46.7450 C   0  0  0  0  0  0  0  0  0  0  0  0
  179.3730   20.4240   45.5540 C   0  0  0  0  0  0  0  0  0  0  0  0
  180.5100   19.4500   45.9270 C   0  0  0  0  0  0  0  0  0  0  0  0
  180.4630   18.1600   45.1040 C   0  0  0  0  0  0  0  0  0  0  0  0
  181.8640   20.1370   45.7250 C   0  0  0  0  0  0  0  0  0  0  0  0
  175.7648   18.6697   48.4302 H   0  0  0  0  0  0  0  0  0  0  0  0
  174.7375   19.2417   47.0722 H   0  0  0  0  0  0  0  0  0  0  0  0
  175.3724   17.5613   47.0722 H   0  0  0  0  0  0  0  0  0  0  0  0
  177.5948   18.2795   46.6426 H   0  0  0  0  0  0  0  0  0  0  0  0
  176.5492   19.2965   45.5643 H   0  0  0  0  0  0  0  0  0  0  0  0
  175.8262   20.4111   48.6905 H   0  0  0  0  0  0  0  0  0  0  0  0
  173.0372   24.3495   49.2211 H   0  0  0  0  0  0  0  0  0  0  0  0
  171.5028   25.4005   50.8871 H   0  0  0  0  0  0  0  0  0  0  0  0
  172.0929   25.3838   53.3130 H   0  0  0  0  0  0  0  0  0  0  0  0
  173.5070   24.3770   54.9580 H   0  0  0  0  0  0  0  0  0  0  0  0
  178.5140   21.2970   51.2200 H   0  0  0  0  0  0  0  0  0  0  0  0
  178.7880   23.5309   48.9941 H   0  0  0  0  0  0  0  0  0  0  0  0
  179.9922   22.5712   47.0476 H   0  0  0  0  0  0  0  0  0  0  0  0
  178.6747   19.9008   44.8841 H   0  0  0  0  0  0  0  0  0  0  0  0
  179.8437   21.2959   45.0763 H   0  0  0  0  0  0  0  0  0  0  0  0
  180.3751   19.1750   46.9835 H   0  0  0  0  0  0  0  0  0  0  0  0
  180.4314   17.2939   45.7814 H   0  0  0  0  0  0  0  0  0  0  0  0
  179.5643   18.1623   44.4696 H   0  0  0  0  0  0  0  0  0  0  0  0
  181.3594   18.0969   44.4696 H   0  0  0  0  0  0  0  0  0  0  0  0
  182.3101   20.3633   46.7047 H   0  0  0  0  0  0  0  0  0  0  0  0
  182.5335   19.4696   45.1626 H   0  0  0  0  0  0  0  0  0  0  0  0
  181.7208   21.0715   45.1626 H   0  0  0  0  0  0  0  0  0  0  0  0
  1  2  1  0
  2  3  1  0
  3  4  2  0
  4  5  1  0
  5  6  1  0
  6  7  1  0
  7  8  1  0
  8  9  2  0
  9 10  1  0
 10 11  2  0
 11 12  1  0
 12 13  1  0
 12 14  2  0
 14 15  1  0
 15 16  2  0
 15 17  1  0
 17 18  1  0
  5 19  2  0
 19 20  1  0
 20 21  2  0
 21 22  1  0
 22 23  1  0
 23 24  1  0
 23 25  1  0
 21  3  1  0
 17  6  2  0
 14  8  1  0
  1 26  1  0
  1 27  1  0
  1 28  1  0
  2 29  1  0
  2 30  1  0
  4 31  1  0
  9 32  1  0
 10 33  1  0
 11 34  1  0
 13 35  1  0
 18 36  1  0
 19 37  1  0
 20 38  1  0
 22 39  1  0
 22 40  1  0
 23 41  1  0
 24 42  1  0
 24 43  1  0
 24 44  1  0
 25 45  1  0
 25 46  1  0
 25 47  1  0
M  END
>  <meeko>  (4) 
{"is_sidechain": [false], "free_energy": -7.473, "intermolecular_energy": -9.845, "internal_energy": -0.88}

$$$$
cand_049_out
     RDKit          3D

 47 49  0  0  0  0  0  0  0  0999 V2000
  179.2080   24.2160   48.2990 C   0  0  0  0  0  0  0  0  0  0  0  0
  178.1010   23.8130   47.3340 C   0  0  0  0  0  0  0  0  0  0  0  0
  177.1580   22.8030   47.9500 C   0  0  0  0  0  0  0  0  0  0  0  0
  176.2890   23.2490   48.9670 C   0  0  0  0  0  0  0  0  0  0  0  0
  175.3510   22.3980   49.5700 C   0  0  0  0  0  0  0  0  0  0  0  0
  174.4830   22.9070   50.6540 C   0  0  0  0  0  0  0  0  0  0  0  0
  175.1950   23.2660   51.7930 O   0  0  0  0  0  0  0  0  0  0  0  0
  174.5110   23.7550   52.8760 C   0  0  0  0  0  0  0  0  0  0  0  0
  175.2640   24.0890   54.0020 C   0  0  0  0  0  0  0  0  0  0  0  0
  174.6300   24.5950   55.1390 C   0  0  0  0  0  0  0  0  0  0  0  0
  173.2440   24.7670   55.1490 C   0  0  0  0  0  0  0  0  0  0  0  0
  172.4950   24.4330   54.0240 C   0  0  0  0  0  0  0  0  0  0  0  0
  171.1440   24.6270   54.1010 O   0  0  0  0  0  0  0  0  0  0  0  0
  173.1300   23.9270   52.8870 C   0  0  0  0  0  0  0  0  0  0  0  0
  172.3810   23.5630   51.6830 C   0  0  0  0  0  0  0  0  0  0  0  0
  171.1600   23.6920   51.6130 O   0  0  0  0  0  0  0  0  0  0  0  0
  173.1480   23.0280   50.5340 C   0  0  0  0  0  0  0  0  0  0  0  0
  172.4300   22.7010   49.3980 O   0  0  0  0  0  0  0  0  0  0  0  0
  175.2970   21.0680   49.1460 C   0  0  0  0  0  0  0  0  0  0  0  0
  176.1460   20.6090   48.1360 C   0  0  0  0  0  0  0  0  0  0  0  0
  177.0830   21.4610   47.5270 C   0  0  0  0  0  0  0  0  0  0  0  0
  177.9770   20.8870   46.4460 C   0  0  0  0  0  0  0  0  0  0  0  0
  179.0440   19.9060   46.9730 C   0  0  0  0  0  0  0  0  0  0  0  0
  179.6520   19.0540   45.8560 C   0  0  0  0  0  0  0  0  0  0  0  0
  180.1540   20.6850   47.6850 C   0  0  0  0  0  0  0  0  0  0  0  0
  178.8570   24.0882   49.3336 H   0  0  0  0  0  0  0  0  0  0  0  0
  180.0905   23.5815   48.1302 H   0  0  0  0  0  0  0  0  0  0  0  0
  179.4761   25.2694   48.1302 H   0  0  0  0  0  0  0  0  0  0  0  0
  177.5288   24.7098   47.0542 H   0  0  0  0  0  0  0  0  0  0  0  0
  178.5682   23.3506   46.4520 H   0  0  0  0  0  0  0  0  0  0  0  0
  176.3485   24.2964   49.2976 H   0  0  0  0  0  0  0  0  0  0  0  0
  176.3557   23.9540   53.9943 H   0  0  0  0  0  0  0  0  0  0  0  0
  175.2228   24.8583   56.0274 H   0  0  0  0  0  0  0  0  0  0  0  0
  172.7449   25.1658   56.0445 H   0  0  0  0  0  0  0  0  0  0  0  0
  170.5610   23.8940   54.0520 H   0  0  0  0  0  0  0  0  0  0  0  0
  172.1820   23.3710   48.7910 H   0  0  0  0  0  0  0  0  0  0  0  0
  174.5797   20.3761   49.6115 H   0  0  0  0  0  0  0  0  0  0  0  0
  176.0798   19.5602   47.8111 H   0  0  0  0  0  0  0  0  0  0  0  0
  177.3448   20.3541   45.7205 H   0  0  0  0  0  0  0  0  0  0  0  0
  178.5162   21.7331   45.9950 H   0  0  0  0  0  0  0  0  0  0  0  0
  178.5450   19.2236   47.6768 H   0  0  0  0  0  0  0  0  0  0  0  0
  180.2372   18.2339   46.2976 H   0  0  0  0  0  0  0  0  0  0  0  0
  178.8467   18.6362   45.2339 H   0  0  0  0  0  0  0  0  0  0  0  0
  180.3089   19.6796   45.2339 H   0  0  0  0  0  0  0  0  0  0  0  0
  180.0251   20.5945   48.7737 H   0  0  0  0  0  0  0  0  0  0  0  0
  181.1330   20.2748   47.3963 H   0  0  0  0  0  0  0  0  0  0  0  0
  180.1011   21.7451   47.3963 H   0  0  0  0  0  0  0  0  0  0  0  0
  1  2  1  0
  2  3  1  0
  3  4  2  0
  4  5  1  0
  5  6  1  0
  6  7  1  0
  7  8  1  0
  8  9  2  0
  9 10  1  0
 10 11  2  0
 11 12  1  0
 12 13  1  0
 12 14  2  0
 14 15  1  0
 15 16  2  0
 15 17  1  0
 17 18  1  0
  5 19  2  0
 19 20  1  0
 20 21  2  0
 21 22  1  0
 22 23  1  0
 23 24  1  0
 23 25  1  0
 21  3  1  0
 17  6  2  0
 14  8  1  0
  1 26  1  0
  1 27  1  0
  1 28  1  0
  2 29  1  0
  2 30  1  0
  4 31  1  0
  9 32  1  0
 10 33  1  0
 11 34  1  0
 13 35  1  0
 18 36  1  0
 19 37  1  0
 20 38  1  0
 22 39  1  0
 22 40  1  0
 23 41  1  0
 24 42  1  0
 24 43  1  0
 24 44  1  0
 25 45  1  0
 25 46  1  0
 25 47  1  0
M  END
>  <meeko>  (5) 
{"is_sidechain": [false], "free_energy": -7.443, "intermolecular_energy": -9.717, "internal_energy": -0.969}

$$$$
cand_049_out
     RDKit          3D

 47 49  0  0  0  0  0  0  0  0999 V2000
  174.8180   19.7310   47.3570 C   0  0  0  0  0  0  0  0  0  0  0  0
  175.6200   20.9490   46.9180 C   0  0  0  0  0  0  0  0  0  0  0  0
  177.0960   20.7850   47.2090 C   0  0  0  0  0  0  0  0  0  0  0  0
  177.8230   19.8650   46.4260 C   0  0  0  0  0  0  0  0  0  0  0  0
  179.2020   19.6730   46.5940 C   0  0  0  0  0  0  0  0  0  0  0  0
  179.9130   18.6740   45.7680 C   0  0  0  0  0  0  0  0  0  0  0  0
  179.3080   17.4220   45.7950 O   0  0  0  0  0  0  0  0  0  0  0  0
  179.8650   16.4000   45.0710 C   0  0  0  0  0  0  0  0  0  0  0  0
  179.2330   15.1580   45.1390 C   0  0  0  0  0  0  0  0  0  0  0  0
  179.7480   14.0740   44.4240 C   0  0  0  0  0  0  0  0  0  0  0  0
  180.8930   14.2330   43.6410 C   0  0  0  0  0  0  0  0  0  0  0  0
  181.5220   15.4730   43.5750 C   0  0  0  0  0  0  0  0  0  0  0  0
  182.6380   15.5590   42.7890 O   0  0  0  0  0  0  0  0  0  0  0  0
  181.0070   16.5570   44.2910 C   0  0  0  0  0  0  0  0  0  0  0  0
  181.6370   17.8780   44.2500 C   0  0  0  0  0  0  0  0  0  0  0  0
  182.6420   18.0980   43.5780 O   0  0  0  0  0  0  0  0  0  0  0  0
  181.0160   18.9580   45.0510 C   0  0  0  0  0  0  0  0  0  0  0  0
  181.6120   20.2050   44.9920 O   0  0  0  0  0  0  0  0  0  0  0  0
  179.8590   20.4180   47.5760 C   0  0  0  0  0  0  0  0  0  0  0  0
  179.1560   21.3390   48.3570 C   0  0  0  0  0  0  0  0  0  0  0  0
  177.7750   21.5360   48.1890 C   0  0  0  0  0  0  0  0  0  0  0  0
  177.0810   22.5450   49.0820 C   0  0  0  0  0  0  0  0  0  0  0  0
  176.2980   21.9120   50.2500 C   0  0  0  0  0  0  0  0  0  0  0  0
  177.1400   21.8060   51.5240 C   0  0  0  0  0  0  0  0  0  0  0  0
  175.0400   22.7380   50.5350 C   0  0  0  0  0  0  0  0  0  0  0  0
  174.7893   19.6874   48.4558 H   0  0  0  0  0  0  0  0  0  0  0  0
  173.7926   19.8068   46.9662 H   0  0  0  0  0  0  0  0  0  0  0  0
  175.2928   18.8190   46.9662 H   0  0  0  0  0  0  0  0  0  0  0  0
  175.4844   21.0935   45.8360 H   0  0  0  0  0  0  0  0  0  0  0  0
  175.2551   21.8200   47.4821 H   0  0  0  0  0  0  0  0  0  0  0  0
  177.2925   19.2801   45.6602 H   0  0  0  0  0  0  0  0  0  0  0  0
  178.3303   15.0325   45.7549 H   0  0  0  0  0  0  0  0  0  0  0  0
  179.2509   13.0942   44.4779 H   0  0  0  0  0  0  0  0  0  0  0  0
  181.2975   13.3796   43.0771 H   0  0  0  0  0  0  0  0  0  0  0  0
  183.4790   15.6880   43.1820 H   0  0  0  0  0  0  0  0  0  0  0  0
  181.2270   20.9300   45.4450 H   0  0  0  0  0  0  0  0  0  0  0  0
  180.9384   20.2786   47.7358 H   0  0  0  0  0  0  0  0  0  0  0  0
  179.6947   21.9216   49.1188 H   0  0  0  0  0  0  0  0  0  0  0  0
  177.8431   23.2186   49.5008 H   0  0  0  0  0  0  0  0  0  0  0  0
  176.3476   23.0741   48.4558 H   0  0  0  0  0  0  0  0  0  0  0  0
  176.0237   20.8906   49.9474 H   0  0  0  0  0  0  0  0  0  0  0  0
  176.4853   21.8884   52.4041 H   0  0  0  0  0  0  0  0  0  0  0  0
  177.6577   20.8356   51.5417 H   0  0  0  0  0  0  0  0  0  0  0  0
  177.8821   22.6178   51.5417 H   0  0  0  0  0  0  0  0  0  0  0  0
  174.9002   22.8298   51.6222 H   0  0  0  0  0  0  0  0  0  0  0  0
  175.1511   23.7395   50.0937 H   0  0  0  0  0  0  0  0  0  0  0  0
  174.1652   22.2379   50.0937 H   0  0  0  0  0  0  0  0  0  0  0  0
  1  2  1  0
  2  3  1  0
  3  4  2  0
  4  5  1  0
  5  6  1  0
  6  7  1  0
  7  8  1  0
  8  9  2  0
  9 10  1  0
 10 11  2  0
 11 12  1  0
 12 13  1  0
 12 14  2  0
 14 15  1  0
 15 16  2  0
 15 17  1  0
 17 18  1  0
  5 19  2  0
 19 20  1  0
 20 21  2  0
 21 22  1  0
 22 23  1  0
 23 24  1  0
 23 25  1  0
 21  3  1  0
 17  6  2  0
 14  8  1  0
  1 26  1  0
  1 27  1  0
  1 28  1  0
  2 29  1  0
  2 30  1  0
  4 31  1  0
  9 32  1  0
 10 33  1  0
 11 34  1  0
 13 35  1  0
 18 36  1  0
 19 37  1  0
 20 38  1  0
 22 39  1  0
 22 40  1  0
 23 41  1  0
 24 42  1  0
 24 43  1  0
 24 44  1  0
 25 45  1  0
 25 46  1  0
 25 47  1  0
M  END
>  <meeko>  (6) 
{"is_sidechain": [false], "free_energy": -7.153, "intermolecular_energy": -9.522, "internal_energy": -0.788}

$$$$
cand_049_out
     RDKit          3D

 47 49  0  0  0  0  0  0  0  0999 V2000
  180.7540   23.4760   48.1150 C   0  0  0  0  0  0  0  0  0  0  0  0
  179.5500   23.3290   47.1940 C   0  0  0  0  0  0  0  0  0  0  0  0
  178.4960   22.4190   47.7870 C   0  0  0  0  0  0  0  0  0  0  0  0
  177.7730   22.8900   48.9020 C   0  0  0  0  0  0  0  0  0  0  0  0
  176.7490   22.1370   49.4960 C   0  0  0  0  0  0  0  0  0  0  0  0
  176.0410   22.6630   50.6830 C   0  0  0  0  0  0  0  0  0  0  0  0
  174.7020   22.9430   50.4320 O   0  0  0  0  0  0  0  0  0  0  0  0
  173.9260   23.4380   51.4480 C   0  0  0  0  0  0  0  0  0  0  0  0
  172.5930   23.7180   51.1490 C   0  0  0  0  0  0  0  0  0  0  0  0
  171.7470   24.2220   52.1390 C   0  0  0  0  0  0  0  0  0  0  0  0
  172.2350   24.4460   53.4280 C   0  0  0  0  0  0  0  0  0  0  0  0
  173.5660   24.1660   53.7250 C   0  0  0  0  0  0  0  0  0  0  0  0
  173.9770   24.4080   55.0060 O   0  0  0  0  0  0  0  0  0  0  0  0
  174.4110   23.6620   52.7330 C   0  0  0  0  0  0  0  0  0  0  0  0
  175.8170   23.3540   53.0020 C   0  0  0  0  0  0  0  0  0  0  0  0
  176.3170   23.5170   54.1130 O   0  0  0  0  0  0  0  0  0  0  0  0
  176.6310   22.8310   51.8810 C   0  0  0  0  0  0  0  0  0  0  0  0
  177.9540   22.5300   52.1510 O   0  0  0  0  0  0  0  0  0  0  0  0
  176.4570   20.8810   48.9600 C   0  0  0  0  0  0  0  0  0  0  0  0
  177.1590   20.4000   47.8520 C   0  0  0  0  0  0  0  0  0  0  0  0
  178.1820   21.1540   47.2520 C   0  0  0  0  0  0  0  0  0  0  0  0
  178.9050   20.5600   46.0610 C   0  0  0  0  0  0  0  0  0  0  0  0
  180.0250   19.5690   46.4380 C   0  0  0  0  0  0  0  0  0  0  0  0
  179.9910   18.3000   45.5830 C   0  0  0  0  0  0  0  0  0  0  0  0
  181.3890   20.2500   46.2900 C   0  0  0  0  0  0  0  0  0  0  0  0
  180.4213   23.4354   49.1627 H   0  0  0  0  0  0  0  0  0  0  0  0
  181.4640   22.6579   47.9238 H   0  0  0  0  0  0  0  0  0  0  0  0
  181.2463   24.4409   47.9238 H   0  0  0  0  0  0  0  0  0  0  0  0
  179.1083   24.3220   47.0243 H   0  0  0  0  0  0  0  0  0  0  0  0
  179.8947   22.8827   46.2495 H   0  0  0  0  0  0  0  0  0  0  0  0
  178.0192   23.8777   49.3188 H   0  0  0  0  0  0  0  0  0  0  0  0
  172.2081   23.5419   50.1337 H   0  0  0  0  0  0  0  0  0  0  0  0
  170.6955   24.4427   51.9033 H   0  0  0  0  0  0  0  0  0  0  0  0
  171.5686   24.8432   54.2078 H   0  0  0  0  0  0  0  0  0  0  0  0
  174.8800   24.3040   55.2360 H   0  0  0  0  0  0  0  0  0  0  0  0
  178.1870   22.1350   52.9690 H   0  0  0  0  0  0  0  0  0  0  0  0
  175.6671   20.2648   49.4143 H   0  0  0  0  0  0  0  0  0  0  0  0
  176.9060   19.4115   47.4411 H   0  0  0  0  0  0  0  0  0  0  0  0
  178.1690   20.0299   45.4386 H   0  0  0  0  0  0  0  0  0  0  0  0
  179.3846   21.3957   45.5303 H   0  0  0  0  0  0  0  0  0  0  0  0
  179.8599   19.2692   47.4834 H   0  0  0  0  0  0  0  0  0  0  0  0
  179.9673   17.4169   46.2384 H   0  0  0  0  0  0  0  0  0  0  0  0
  179.0928   18.3096   44.9481 H   0  0  0  0  0  0  0  0  0  0  0  0
  180.8884   18.2615   44.9481 H   0  0  0  0  0  0  0  0  0  0  0  0
  181.8052   20.4578   47.2868 H   0  0  0  0  0  0  0  0  0  0  0  0
  182.0719   19.5871   45.7385 H   0  0  0  0  0  0  0  0  0  0  0  0
  181.2695   21.1942   45.7385 H   0  0  0  0  0  0  0  0  0  0  0  0
  1  2  1  0
  2  3  1  0
  3  4  2  0
  4  5  1  0
  5  6  1  0
  6  7  1  0
  7  8  1  0
  8  9  2  0
  9 10  1  0
 10 11  2  0
 11 12  1  0
 12 13  1  0
 12 14  2  0
 14 15  1  0
 15 16  2  0
 15 17  1  0
 17 18  1  0
  5 19  2  0
 19 20  1  0
 20 21  2  0
 21 22  1  0
 22 23  1  0
 23 24  1  0
 23 25  1  0
 21  3  1  0
 17  6  2  0
 14  8  1  0
  1 26  1  0
  1 27  1  0
  1 28  1  0
  2 29  1  0
  2 30  1  0
  4 31  1  0
  9 32  1  0
 10 33  1  0
 11 34  1  0
 13 35  1  0
 18 36  1  0
 19 37  1  0
 20 38  1  0
 22 39  1  0
 22 40  1  0
 23 41  1  0
 24 42  1  0
 24 43  1  0
 24 44  1  0
 25 45  1  0
 25 46  1  0
 25 47  1  0
M  END
>  <meeko>  (7) 
{"is_sidechain": [false], "free_energy": -7.005, "intermolecular_energy": -9.178, "internal_energy": -0.942}

$$$$
cand_049_out
     RDKit          3D

 47 49  0  0  0  0  0  0  0  0999 V2000
  180.8470   18.6080   45.0380 C   0  0  0  0  0  0  0  0  0  0  0  0
  179.6190   18.7040   45.9330 C   0  0  0  0  0  0  0  0  0  0  0  0
  179.4970   20.0680   46.5750 C   0  0  0  0  0  0  0  0  0  0  0  0
  180.6700   20.6630   47.0840 C   0  0  0  0  0  0  0  0  0  0  0  0
  180.6640   21.9420   47.6610 C   0  0  0  0  0  0  0  0  0  0  0  0
  181.9160   22.5090   48.2070 C   0  0  0  0  0  0  0  0  0  0  0  0
  181.7750   22.9730   49.5100 O   0  0  0  0  0  0  0  0  0  0  0  0
  182.8610   23.5250   50.1390 C   0  0  0  0  0  0  0  0  0  0  0  0
  182.6710   23.9890   51.4410 C   0  0  0  0  0  0  0  0  0  0  0  0
  183.7370   24.5610   52.1390 C   0  0  0  0  0  0  0  0  0  0  0  0
  184.9920   24.6680   51.5360 C   0  0  0  0  0  0  0  0  0  0  0  0
  185.1790   24.2030   50.2370 C   0  0  0  0  0  0  0  0  0  0  0  0
  186.4330   24.3380   49.7070 O   0  0  0  0  0  0  0  0  0  0  0  0
  184.1120   23.6320   49.5390 C   0  0  0  0  0  0  0  0  0  0  0  0
  184.2650   23.1310   48.1710 C   0  0  0  0  0  0  0  0  0  0  0  0
  185.3400   23.1830   47.5760 O   0  0  0  0  0  0  0  0  0  0  0  0
  183.0710   22.5500   47.5170 C   0  0  0  0  0  0  0  0  0  0  0  0
  183.2320   22.0680   46.2300 O   0  0  0  0  0  0  0  0  0  0  0  0
  179.4510   22.6290   47.7330 C   0  0  0  0  0  0  0  0  0  0  0  0
  178.2790   22.0580   47.2300 C   0  0  0  0  0  0  0  0  0  0  0  0
  178.2820   20.7790   46.6480 C   0  0  0  0  0  0  0  0  0  0  0  0
  176.9690   20.2230   46.1340 C   0  0  0  0  0  0  0  0  0  0  0  0
  176.1180   19.5270   47.2160 C   0  0  0  0  0  0  0  0  0  0  0  0
  174.9570   20.4020   47.6940 C   0  0  0  0  0  0  0  0  0  0  0  0
  175.5720   18.2040   46.6710 C   0  0  0  0  0  0  0  0  0  0  0  0
  181.7505   18.5374   45.6615 H   0  0  0  0  0  0  0  0  0  0  0  0
  180.7688   17.7132   44.4030 H   0  0  0  0  0  0  0  0  0  0  0  0
  180.9088   19.5041   44.4030 H   0  0  0  0  0  0  0  0  0  0  0  0
  178.7209   18.5142   45.3268 H   0  0  0  0  0  0  0  0  0  0  0  0
  179.7206   17.9570   46.7340 H   0  0  0  0  0  0  0  0  0  0  0  0
  181.6179   20.1078   47.0270 H   0  0  0  0  0  0  0  0  0  0  0  0
  181.6830   23.9044   51.9171 H   0  0  0  0  0  0  0  0  0  0  0  0
  183.5878   24.9278   53.1653 H   0  0  0  0  0  0  0  0  0  0  0  0
  185.8311   25.1187   52.0862 H   0  0  0  0  0  0  0  0  0  0  0  0
  186.8090   25.1900   49.6050 H   0  0  0  0  0  0  0  0  0  0  0  0
  183.5480   21.1960   46.0920 H   0  0  0  0  0  0  0  0  0  0  0  0
  179.4174   23.6291   48.1899 H   0  0  0  0  0  0  0  0  0  0  0  0
  177.3358   22.6207   47.2908 H   0  0  0  0  0  0  0  0  0  0  0  0
  176.3826   21.0530   45.7131 H   0  0  0  0  0  0  0  0  0  0  0  0
  177.2183   19.4585   45.3834 H   0  0  0  0  0  0  0  0  0  0  0  0
  176.7721   19.3423   48.0809 H   0  0  0  0  0  0  0  0  0  0  0  0
  174.9375   20.4167   48.7937 H   0  0  0  0  0  0  0  0  0  0  0  0
  175.0901   21.4264   47.3159 H   0  0  0  0  0  0  0  0  0  0  0  0
  174.0089   19.9919   47.3159 H   0  0  0  0  0  0  0  0  0  0  0  0
  175.3005   17.5461   47.5097 H   0  0  0  0  0  0  0  0  0  0  0  0
  174.6815   18.4004   46.0559 H   0  0  0  0  0  0  0  0  0  0  0  0
  176.3419   17.7152   46.0559 H   0  0  0  0  0  0  0  0  0  0  0  0
  1  2  1  0
  2  3  1  0
  3  4  2  0
  4  5  1  0
  5  6  1  0
  6  7  1  0
  7  8  1  0
  8  9  2  0
  9 10  1  0
 10 11  2  0
 11 12  1  0
 12 13  1  0
 12 14  2  0
 14 15  1  0
 15 16  2  0
 15 17  1  0
 17 18  1  0
  5 19  2  0
 19 20  1  0
 20 21  2  0
 21 22  1  0
 22 23  1  0
 23 24  1  0
 23 25  1  0
 21  3  1  0
 17  6  2  0
 14  8  1  0
  1 26  1  0
  1 27  1  0
  1 28  1  0
  2 29  1  0
  2 30  1  0
  4 31  1  0
  9 32  1  0
 10 33  1  0
 11 34  1  0
 13 35  1  0
 18 36  1  0
 19 37  1  0
 20 38  1  0
 22 39  1  0
 22 40  1  0
 23 41  1  0
 24 42  1  0
 24 43  1  0
 24 44  1  0
 25 45  1  0
 25 46  1  0
 25 47  1  0
M  END
>  <meeko>  (8) 
{"is_sidechain": [false], "free_energy": -6.781, "intermolecular_energy": -9.195, "internal_energy": -0.636}

$$$$
cand_049_out
     RDKit          3D

 47 49  0  0  0  0  0  0  0  0999 V2000
  176.6540   23.3600   48.7990 C   0  0  0  0  0  0  0  0  0  0  0  0
  177.1370   23.1160   47.3760 C   0  0  0  0  0  0  0  0  0  0  0  0
  178.3320   22.1890   47.3390 C   0  0  0  0  0  0  0  0  0  0  0  0
  179.5650   22.6870   47.8090 C   0  0  0  0  0  0  0  0  0  0  0  0
  180.7200   21.8910   47.8520 C   0  0  0  0  0  0  0  0  0  0  0  0
  181.9960   22.4700   48.3260 C   0  0  0  0  0  0  0  0  0  0  0  0
  181.9290   22.9230   49.6380 O   0  0  0  0  0  0  0  0  0  0  0  0
  183.0450   23.4840   50.2040 C   0  0  0  0  0  0  0  0  0  0  0  0
  182.9290   23.9380   51.5180 C   0  0  0  0  0  0  0  0  0  0  0  0
  184.0280   24.5180   52.1550 C   0  0  0  0  0  0  0  0  0  0  0  0
  185.2430   24.6430   51.4780 C   0  0  0  0  0  0  0  0  0  0  0  0
  185.3570   24.1890   50.1670 C   0  0  0  0  0  0  0  0  0  0  0  0
  186.5740   24.3410   49.5640 O   0  0  0  0  0  0  0  0  0  0  0  0
  184.2560   23.6090   49.5300 C   0  0  0  0  0  0  0  0  0  0  0  0
  184.3320   23.1190   48.1530 C   0  0  0  0  0  0  0  0  0  0  0  0
  185.3680   23.1870   47.4950 O   0  0  0  0  0  0  0  0  0  0  0  0
  183.1060   22.5280   47.5670 C   0  0  0  0  0  0  0  0  0  0  0  0
  183.1940   22.0560   46.2700 O   0  0  0  0  0  0  0  0  0  0  0  0
  180.6300   20.5720   47.4050 C   0  0  0  0  0  0  0  0  0  0  0  0
  179.4160   20.0590   46.9410 C   0  0  0  0  0  0  0  0  0  0  0  0
  178.2570   20.8520   46.9000 C   0  0  0  0  0  0  0  0  0  0  0  0
  176.9800   20.2290   46.3740 C   0  0  0  0  0  0  0  0  0  0  0  0
  176.3240   19.2280   47.3480 C   0  0  0  0  0  0  0  0  0  0  0  0
  175.3330   19.9050   48.2960 C   0  0  0  0  0  0  0  0  0  0  0  0
  175.6080   18.1310   46.5550 C   0  0  0  0  0  0  0  0  0  0  0  0
  177.4029   22.9817   49.5103 H   0  0  0  0  0  0  0  0  0  0  0  0
  176.5101   24.4390   48.9574 H   0  0  0  0  0  0  0  0  0  0  0  0
  175.7001   22.8357   48.9574 H   0  0  0  0  0  0  0  0  0  0  0  0
  176.3189   22.6656   46.7947 H   0  0  0  0  0  0  0  0  0  0  0  0
  177.4409   24.0826   46.9478 H   0  0  0  0  0  0  0  0  0  0  0  0
  179.6231   23.7305   48.1521 H   0  0  0  0  0  0  0  0  0  0  0  0
  181.9724   23.8392   52.0520 H   0  0  0  0  0  0  0  0  0  0  0  0
  183.9366   24.8767   53.1908 H   0  0  0  0  0  0  0  0  0  0  0  0
  186.1088   25.0996   51.9800 H   0  0  0  0  0  0  0  0  0  0  0  0
  186.6430   24.3030   48.6290 H   0  0  0  0  0  0  0  0  0  0  0  0
  183.8940   21.4810   46.0270 H   0  0  0  0  0  0  0  0  0  0  0  0
  181.5233   19.9302   47.4181 H   0  0  0  0  0  0  0  0  0  0  0  0
  179.3667   19.0140   46.6012 H   0  0  0  0  0  0  0  0  0  0  0  0
  176.2602   21.0353   46.1695 H   0  0  0  0  0  0  0  0  0  0  0  0
  177.2500   19.6637   45.4698 H   0  0  0  0  0  0  0  0  0  0  0  0
  177.1257   18.7926   47.9625 H   0  0  0  0  0  0  0  0  0  0  0  0
  175.6262   19.7047   49.3371 H   0  0  0  0  0  0  0  0  0  0  0  0
  175.3366   20.9902   48.1164 H   0  0  0  0  0  0  0  0  0  0  0  0
  174.3234   19.5070   48.1164 H   0  0  0  0  0  0  0  0  0  0  0  0
  175.1430   17.4186   47.2523 H   0  0  0  0  0  0  0  0  0  0  0  0
  174.8312   18.5841   45.9215 H   0  0  0  0  0  0  0  0  0  0  0  0
  176.3354   17.6023   45.9215 H   0  0  0  0  0  0  0  0  0  0  0  0
  1  2  1  0
  2  3  1  0
  3  4  2  0
  4  5  1  0
  5  6  1  0
  6  7  1  0
  7  8  1  0
  8  9  2  0
  9 10  1  0
 10 11  2  0
 11 12  1  0
 12 13  1  0
 12 14  2  0
 14 15  1  0
 15 16  2  0
 15 17  1  0
 17 18  1  0
  5 19  2  0
 19 20  1  0
 20 21  2  0
 21 22  1  0
 22 23  1  0
 23 24  1  0
 23 25  1  0
 21  3  1  0
 17  6  2  0
 14  8  1  0
  1 26  1  0
  1 27  1  0
  1 28  1  0
  2 29  1  0
  2 30  1  0
  4 31  1  0
  9 32  1  0
 10 33  1  0
 11 34  1  0
 13 35  1  0
 18 36  1  0
 19 37  1  0
 20 38  1  0
 22 39  1  0
 22 40  1  0
 23 41  1  0
 24 42  1  0
 24 43  1  0
 24 44  1  0
 25 45  1  0
 25 46  1  0
 25 47  1  0
M  END
>  <meeko>  (9) 
{"is_sidechain": [false], "free_energy": -6.755, "intermolecular_energy": -8.901, "internal_energy": -0.896}

$$$$
