cand_018_out
     RDKit          3D

 44 47  0  0  0  0  0  0  0  0999 V2000
  176.6300   18.8800   46.2750 C   0  0  0  0  0  0  0  0  0  0  0  0
  177.7190   19.7020   46.9120 C   0  0  0  0  0  0  0  0  0  0  0  0
  179.0280   19.6110   46.4160 C   0  0  0  0  0  0  0  0  0  0  0  0
  180.0580   20.3630   46.9830 C   0  0  0  0  0  0  0  0  0  0  0  0
  179.8010   21.2320   48.0490 C   0  0  0  0  0  0  0  0  0  0  0  0
  180.9070   22.0090   48.6480 C   0  0  0  0  0  0  0  0  0  0  0  0
  181.0320   23.2810   48.1000 O   0  0  0  0  0  0  0  0  0  0  0  0
  182.0200   24.1100   48.5660 C   0  0  0  0  0  0  0  0  0  0  0  0
  182.1180   25.3710   47.9770 C   0  0  0  0  0  0  0  0  0  0  0  0
  183.1020   26.2650   48.4050 C   0  0  0  0  0  0  0  0  0  0  0  0
  183.9850   25.8990   49.4230 C   0  0  0  0  0  0  0  0  0  0  0  0
  183.8850   24.6400   50.0090 C   0  0  0  0  0  0  0  0  0  0  0  0
  184.7810   24.3460   51.0000 O   0  0  0  0  0  0  0  0  0  0  0  0
  182.9000   23.7450   49.5790 C   0  0  0  0  0  0  0  0  0  0  0  0
  182.7610   22.4120   50.1670 C   0  0  0  0  0  0  0  0  0  0  0  0
  183.4960   22.0200   51.0710 O   0  0  0  0  0  0  0  0  0  0  0  0
  181.6910   21.5370   49.6350 C   0  0  0  0  0  0  0  0  0  0  0  0
  181.5600   20.2850   50.2090 O   0  0  0  0  0  0  0  0  0  0  0  0
  178.4900   21.3160   48.5440 C   0  0  0  0  0  0  0  0  0  0  0  0
  177.4370   20.5630   47.9910 C   0  0  0  0  0  0  0  0  0  0  0  0
  176.1160   20.6730   48.4580 N   0  0  0  0  0  0  0  0  0  0  0  0
  175.4700   21.9230   48.0100 C   0  0  0  0  0  0  0  0  0  0  0  0
  174.4890   22.2560   49.1280 C   0  0  0  0  0  0  0  0  0  0  0  0
  175.2470   21.8080   50.3640 C   0  0  0  0  0  0  0  0  0  0  0  0
  175.8960   20.5060   49.9050 C   0  0  0  0  0  0  0  0  0  0  0  0
  176.0147   18.4155   47.0596 H   0  0  0  0  0  0  0  0  0  0  0  0
  175.9988   19.5288   45.6500 H   0  0  0  0  0  0  0  0  0  0  0  0
  177.0810   18.0951   45.6500 H   0  0  0  0  0  0  0  0  0  0  0  0
  179.2449   18.9402   45.5716 H   0  0  0  0  0  0  0  0  0  0  0  0
  181.0807   20.2717   46.5884 H   0  0  0  0  0  0  0  0  0  0  0  0
  181.4212   25.6607   47.1766 H   0  0  0  0  0  0  0  0  0  0  0  0
  183.1815   27.2585   47.9396 H   0  0  0  0  0  0  0  0  0  0  0  0
  184.7584   26.6043   49.7614 H   0  0  0  0  0  0  0  0  0  0  0  0
  184.5080   23.8490   51.7460 H   0  0  0  0  0  0  0  0  0  0  0  0
  181.7440   20.1660   51.1190 H   0  0  0  0  0  0  0  0  0  0  0  0
  178.2796   21.9894   49.3880 H   0  0  0  0  0  0  0  0  0  0  0  0
  176.2129   22.7254   47.8905 H   0  0  0  0  0  0  0  0  0  0  0  0
  174.9761   21.8163   47.0329 H   0  0  0  0  0  0  0  0  0  0  0  0
  174.2734   23.3342   49.1614 H   0  0  0  0  0  0  0  0  0  0  0  0
  173.5076   21.7727   49.0127 H   0  0  0  0  0  0  0  0  0  0  0  0
  176.0063   22.5491   50.6541 H   0  0  0  0  0  0  0  0  0  0  0  0
  174.6060   21.6879   51.2498 H   0  0  0  0  0  0  0  0  0  0  0  0
  176.8524   20.3476   50.4248 H   0  0  0  0  0  0  0  0  0  0  0  0
  175.2658   19.6321   50.1268 H   0  0  0  0  0  0  0  0  0  0  0  0
  1  2  1  0
  2  3  2  0
  3  4  1  0
  4  5  2  0
  5  6  1  0
  6  7  1  0
  7  8  1  0
  8  9  2  0
  9 10  1  0
 10 11  2  0
 11 12  1  0
 12 13  1  0
 12 14  2  0
 14 15  1  0
 15 16  2  0
 15 17  1  0
 17 18  1  0
  5 19  1  0
 19 20  2  0
 20 21  1  0
 21 22  1  0
 22 23  1  0
 23 24  1  0
 24 25  1  0
 20  2  1  0
 25 21  1  0
 17  6  2  0
 14  8  1  0
  1 26  1  0
  1 27  1  0
  1 28  1  0
  3 29  1  0
  4 30  1  0
  9 31  1  0
 10 32  1  0
 11 33  1  0
 13 34  1  0
 18 35  1  0
 19 36  1  0
 22 37  1  0
 22 38  1  0
 23 39  1  0
 23 40  1  0
 24 41  1  0
 24 42  1  0
 25 43  1  0
 25 44  1  0
M  END
>  <meeko>  (1) 
{"is_sidechain": [false], "free_energy": -7.262, "intermolecular_energy": -8.535, "internal_energy": -0.758}

$$$$
cand_018_out
     RDKit          3D

 44 47  0  0  0  0  0  0  0  0999 V2000
  176.4200   22.3460   48.8920 C   0  0  0  0  0  0  0  0  0  0  0  0
  177.2740   21.3900   48.1030 C   0  0  0  0  0  0  0  0  0  0  0  0
  176.6590   20.4720   47.2380 C   0  0  0  0  0  0  0  0  0  0  0  0
  177.4250   19.5750   46.4910 C   0  0  0  0  0  0  0  0  0  0  0  0
  178.8210   19.5840   46.5810 C   0  0  0  0  0  0  0  0  0  0  0  0
  179.6150   18.6150   45.7950 C   0  0  0  0  0  0  0  0  0  0  0  0
  179.1140   17.3200   45.8720 O   0  0  0  0  0  0  0  0  0  0  0  0
  179.7570   16.3190   45.1880 C   0  0  0  0  0  0  0  0  0  0  0  0
  179.2300   15.0320   45.3060 C   0  0  0  0  0  0  0  0  0  0  0  0
  179.8350   13.9690   44.6340 C   0  0  0  0  0  0  0  0  0  0  0  0
  180.9650   14.1900   43.8450 C   0  0  0  0  0  0  0  0  0  0  0  0
  181.4880   15.4750   43.7290 C   0  0  0  0  0  0  0  0  0  0  0  0
  182.5960   15.6230   42.9400 O   0  0  0  0  0  0  0  0  0  0  0  0
  180.8820   16.5400   44.4020 C   0  0  0  0  0  0  0  0  0  0  0  0
  181.4010   17.9060   44.3080 C   0  0  0  0  0  0  0  0  0  0  0  0
  182.3870   18.1820   43.6280 O   0  0  0  0  0  0  0  0  0  0  0  0
  180.6910   18.9620   45.0670 C   0  0  0  0  0  0  0  0  0  0  0  0
  181.1830   20.2500   44.9590 O   0  0  0  0  0  0  0  0  0  0  0  0
  179.4300   20.5010   47.4520 C   0  0  0  0  0  0  0  0  0  0  0  0
  178.6780   21.4100   48.2190 C   0  0  0  0  0  0  0  0  0  0  0  0
  179.2860   22.3570   49.0620 N   0  0  0  0  0  0  0  0  0  0  0  0
  180.2730   23.1890   48.3450 C   0  0  0  0  0  0  0  0  0  0  0  0
  181.3080   23.5360   49.4080 C   0  0  0  0  0  0  0  0  0  0  0  0
  181.3570   22.2660   50.2370 C   0  0  0  0  0  0  0  0  0  0  0  0
  179.8890   21.8580   50.3110 C   0  0  0  0  0  0  0  0  0  0  0  0
  176.5741   22.1735   49.9674 H   0  0  0  0  0  0  0  0  0  0  0  0
  176.7007   23.3799   48.6426 H   0  0  0  0  0  0  0  0  0  0  0  0
  175.3611   22.1832   48.6426 H   0  0  0  0  0  0  0  0  0  0  0  0
  175.5628   20.4590   47.1476 H   0  0  0  0  0  0  0  0  0  0  0  0
  176.9263   18.8548   45.8257 H   0  0  0  0  0  0  0  0  0  0  0  0
  178.3396   14.8559   45.9274 H   0  0  0  0  0  0  0  0  0  0  0  0
  179.4203   12.9544   44.7264 H   0  0  0  0  0  0  0  0  0  0  0  0
  181.4410   13.3511   43.3162 H   0  0  0  0  0  0  0  0  0  0  0  0
  183.4500   15.6100   43.3250 H   0  0  0  0  0  0  0  0  0  0  0  0
  182.0330   20.3990   44.5950 H   0  0  0  0  0  0  0  0  0  0  0  0
  180.5266   20.5092   47.5374 H   0  0  0  0  0  0  0  0  0  0  0  0
  180.7338   22.6251   47.5206 H   0  0  0  0  0  0  0  0  0  0  0  0
  179.8207   24.0818   47.8885 H   0  0  0  0  0  0  0  0  0  0  0  0
  182.2864   23.7544   48.9553 H   0  0  0  0  0  0  0  0  0  0  0  0
  181.0566   24.4339   49.9915 H   0  0  0  0  0  0  0  0  0  0  0  0
  181.9596   21.4911   49.7406 H   0  0  0  0  0  0  0  0  0  0  0  0
  181.8217   22.4063   51.2241 H   0  0  0  0  0  0  0  0  0  0  0  0
  179.7954   20.7638   50.3743 H   0  0  0  0  0  0  0  0  0  0  0  0
  179.3919   22.2708   51.2012 H   0  0  0  0  0  0  0  0  0  0  0  0
  1  2  1  0
  2  3  2  0
  3  4  1  0
  4  5  2  0
  5  6  1  0
  6  7  1  0
  7  8  1  0
  8  9  2  0
  9 10  1  0
 10 11  2  0
 11 12  1  0
 12 13  1  0
 12 14  2  0
 14 15  1  0
 15 16  2  0
 15 17  1  0
 17 18  1  0
  5 19  1  0
 19 20  2  0
 20 21  1  0
 21 22  1  0
 22 23  1  0
 23 24  1  0
 24 25  1  0
 20  2  1  0
 25 21  1  0
 17  6  2  0
 14  8  1  0
  1 26  1  0
  1 27  1  0
  1 28  1  0
  3 29  1  0
  4 30  1  0
  9 31  1  0
 10 32  1  0
 11 33  1  0
 13 34  1  0
 18 35  1  0
 19 36  1  0
 22 37  1  0
 22 38  1  0
 23 39  1  0
 23 40  1  0
 24 41  1  0
 24 42  1  0
 25 43  1  0
 25 44  1  0
M  END
>  <meeko>  (2) 
{"is_sidechain": [false], "free_energy": -7.233, "intermolecular_energy": -8.755, "internal_energy": -0.504}

$$$$
cand_018_out
     RDKit          3D

 44 47  0  0  0  0  0  0  0  0999 V2000
  180.7060   20.2360   45.6570 C   0  0  0  0  0  0  0  0  0  0  0  0
  179.8280   20.7980   46.7420 C   0  0  0  0  0  0  0  0  0  0  0  0
  178.4940   20.3720   46.8370 C   0  0  0  0  0  0  0  0  0  0  0  0
  177.6570   20.8730   47.8350 C   0  0  0  0  0  0  0  0  0  0  0  0
  178.1350   21.7990   48.7680 C   0  0  0  0  0  0  0  0  0  0  0  0
  177.2290   22.3310   49.8080 C   0  0  0  0  0  0  0  0  0  0  0  0
  176.1040   22.9540   49.2760 O   0  0  0  0  0  0  0  0  0  0  0  0
  175.1780   23.4940   50.1320 C   0  0  0  0  0  0  0  0  0  0  0  0
  174.0740   24.1220   49.5540 C   0  0  0  0  0  0  0  0  0  0  0  0
  173.0930   24.6910   50.3680 C   0  0  0  0  0  0  0  0  0  0  0  0
  173.2140   24.6310   51.7580 C   0  0  0  0  0  0  0  0  0  0  0  0
  174.3160   24.0020   52.3310 C   0  0  0  0  0  0  0  0  0  0  0  0
  174.3730   23.9780   53.6980 O   0  0  0  0  0  0  0  0  0  0  0  0
  175.2990   23.4330   51.5160 C   0  0  0  0  0  0  0  0  0  0  0  0
  176.4740   22.7650   52.0770 C   0  0  0  0  0  0  0  0  0  0  0  0
  176.6480   22.6640   53.2900 O   0  0  0  0  0  0  0  0  0  0  0  0
  177.4610   22.2020   51.1270 C   0  0  0  0  0  0  0  0  0  0  0  0
  178.5600   21.5600   51.6690 O   0  0  0  0  0  0  0  0  0  0  0  0
  179.4690   22.2250   48.6660 C   0  0  0  0  0  0  0  0  0  0  0  0
  180.3300   21.7390   47.6640 C   0  0  0  0  0  0  0  0  0  0  0  0
  181.6770   22.1320   47.5820 N   0  0  0  0  0  0  0  0  0  0  0  0
  182.5390   21.3590   48.4980 C   0  0  0  0  0  0  0  0  0  0  0  0
  183.6550   22.3310   48.8660 C   0  0  0  0  0  0  0  0  0  0  0  0
  182.9190   23.6570   48.9280 C   0  0  0  0  0  0  0  0  0  0  0  0
  181.9690   23.5680   47.7370 C   0  0  0  0  0  0  0  0  0  0  0  0
  181.5498   19.6959   46.1111 H   0  0  0  0  0  0  0  0  0  0  0  0
  180.1208   19.5442   45.0333 H   0  0  0  0  0  0  0  0  0  0  0  0
  181.0892   21.0571   45.0333 H   0  0  0  0  0  0  0  0  0  0  0  0
  178.1046   19.6362   46.1180 H   0  0  0  0  0  0  0  0  0  0  0  0
  176.6111   20.5364   47.8884 H   0  0  0  0  0  0  0  0  0  0  0  0
  173.9770   24.1686   48.4593 H   0  0  0  0  0  0  0  0  0  0  0  0
  172.2230   25.1876   49.9137 H   0  0  0  0  0  0  0  0  0  0  0  0
  172.4405   25.0796   52.3986 H   0  0  0  0  0  0  0  0  0  0  0  0
  173.7820   23.4350   54.1820 H   0  0  0  0  0  0  0  0  0  0  0  0
  178.5930   21.3850   52.5890 H   0  0  0  0  0  0  0  0  0  0  0  0
  179.8522   22.9594   49.3897 H   0  0  0  0  0  0  0  0  0  0  0  0
  181.9795   21.0496   49.3931 H   0  0  0  0  0  0  0  0  0  0  0  0
  182.9186   20.4334   48.0407 H   0  0  0  0  0  0  0  0  0  0  0  0
  184.1006   22.0765   49.8390 H   0  0  0  0  0  0  0  0  0  0  0  0
  184.4961   22.3259   48.1571 H   0  0  0  0  0  0  0  0  0  0  0  0
  182.3635   23.7588   49.8720 H   0  0  0  0  0  0  0  0  0  0  0  0
  183.5873   24.5299   48.8896 H   0  0  0  0  0  0  0  0  0  0  0  0
  181.0450   24.1300   47.9378 H   0  0  0  0  0  0  0  0  0  0  0  0
  182.4104   23.9984   46.8260 H   0  0  0  0  0  0  0  0  0  0  0  0
  1  2  1  0
  2  3  2  0
  3  4  1  0
  4  5  2  0
  5  6  1  0
  6  7  1  0
  7  8  1  0
  8  9  2  0
  9 10  1  0
 10 11  2  0
 11 12  1  0
 12 13  1  0
 12 14  2  0
 14 15  1  0
 15 16  2  0
 15 17  1  0
 17 18  1  0
  5 19  1  0
 19 20  2  0
 20 21  1  0
 21 22  1  0
 22 23  1  0
 23 24  1  0
 24 25  1  0
 20  2  1  0
 25 21  1  0
 17  6  2  0
 14  8  1  0
  1 26  1  0
  1 27  1  0
  1 28  1  0
  3 29  1  0
  4 30  1  0
  9 31  1  0
 10 32  1  0
 11 33  1  0
 13 34  1  0
 18 35  1  0
 19 36  1  0
 22 37  1  0
 22 38  1  0
 23 39  1  0
 23 40  1  0
 24 41  1  0
 24 42  1  0
 25 43  1  0
 25 44  1  0
M  END
>  <meeko>  (3) 
{"is_sidechain": [false], "free_energy": -7.165, "intermolecular_energy": -8.618, "internal_energy": -0.561}

$$$$
cand_018_out
     RDKit          3D

 44 47  0  0  0  0  0  0  0  0999 V2000
  176.9080   19.5670   46.3830 C   0  0  0  0  0  0  0  0  0  0  0  0
  178.1680   20.2010   46.9070 C   0  0  0  0  0  0  0  0  0  0  0  0
  179.4120   19.7330   46.4560 C   0  0  0  0  0  0  0  0  0  0  0  0
  180.5980   20.3020   46.9220 C   0  0  0  0  0  0  0  0  0  0  0  0
  180.5690   21.3600   47.8360 C   0  0  0  0  0  0  0  0  0  0  0  0
  181.8360   21.9410   48.3310 C   0  0  0  0  0  0  0  0  0  0  0  0
  182.3820   22.8700   47.4520 O   0  0  0  0  0  0  0  0  0  0  0  0
  183.5600   23.4870   47.7880 C   0  0  0  0  0  0  0  0  0  0  0  0
  184.0810   24.4000   46.8690 C   0  0  0  0  0  0  0  0  0  0  0  0
  185.2760   25.0650   47.1500 C   0  0  0  0  0  0  0  0  0  0  0  0
  185.9500   24.8180   48.3480 C   0  0  0  0  0  0  0  0  0  0  0  0
  185.4280   23.9080   49.2620 C   0  0  0  0  0  0  0  0  0  0  0  0
  186.1380   23.7140   50.4150 O   0  0  0  0  0  0  0  0  0  0  0  0
  184.2310   23.2420   48.9810 C   0  0  0  0  0  0  0  0  0  0  0  0
  183.6490   22.2760   49.9130 C   0  0  0  0  0  0  0  0  0  0  0  0
  184.1790   22.0100   50.9910 O   0  0  0  0  0  0  0  0  0  0  0  0
  182.3820   21.6180   49.5170 C   0  0  0  0  0  0  0  0  0  0  0  0
  181.8350   20.7180   50.4130 O   0  0  0  0  0  0  0  0  0  0  0  0
  179.3220   21.8220   48.2870 C   0  0  0  0  0  0  0  0  0  0  0  0
  178.1130   21.2580   47.8360 C   0  0  0  0  0  0  0  0  0  0  0  0
  176.8620   21.7430   48.2550 N   0  0  0  0  0  0  0  0  0  0  0  0
  176.8000   23.2180   48.2320 C   0  0  0  0  0  0  0  0  0  0  0  0
  175.8290   23.5670   49.3530 C   0  0  0  0  0  0  0  0  0  0  0  0
  176.1460   22.5100   50.3940 C   0  0  0  0  0  0  0  0  0  0  0  0
  176.3500   21.2570   49.5480 C   0  0  0  0  0  0  0  0  0  0  0  0
  176.2784   19.2502   47.2275 H   0  0  0  0  0  0  0  0  0  0  0  0
  176.3586   20.2960   45.7692 H   0  0  0  0  0  0  0  0  0  0  0  0
  177.1660   18.6914   45.7692 H   0  0  0  0  0  0  0  0  0  0  0  0
  179.4525   18.9094   45.7279 H   0  0  0  0  0  0  0  0  0  0  0  0
  181.5645   19.9147   46.5671 H   0  0  0  0  0  0  0  0  0  0  0  0
  183.5508   24.5950   45.9252 H   0  0  0  0  0  0  0  0  0  0  0  0
  185.6873   25.7846   46.4267 H   0  0  0  0  0  0  0  0  0  0  0  0
  186.8917   25.3419   48.5686 H   0  0  0  0  0  0  0  0  0  0  0  0
  186.7570   23.0120   50.4720 H   0  0  0  0  0  0  0  0  0  0  0  0
  182.0000   19.8010   50.3160 H   0  0  0  0  0  0  0  0  0  0  0  0
  179.2886   22.6477   49.0130 H   0  0  0  0  0  0  0  0  0  0  0  0
  177.7916   23.6535   48.4247 H   0  0  0  0  0  0  0  0  0  0  0  0
  176.4778   23.6117   47.2567 H   0  0  0  0  0  0  0  0  0  0  0  0
  176.0165   24.5786   49.7422 H   0  0  0  0  0  0  0  0  0  0  0  0
  174.7752   23.5734   49.0376 H   0  0  0  0  0  0  0  0  0  0  0  0
  177.0588   22.7645   50.9525 H   0  0  0  0  0  0  0  0  0  0  0  0
  175.3610   22.3989   51.1565 H   0  0  0  0  0  0  0  0  0  0  0  0
  177.0794   20.5850   50.0237 H   0  0  0  0  0  0  0  0  0  0  0  0
  175.4187   20.6832   49.4319 H   0  0  0  0  0  0  0  0  0  0  0  0
  1  2  1  0
  2  3  2  0
  3  4  1  0
  4  5  2  0
  5  6  1  0
  6  7  1  0
  7  8  1  0
  8  9  2  0
  9 10  1  0
 10 11  2  0
 11 12  1  0
 12 13  1  0
 12 14  2  0
 14 15  1  0
 15 16  2  0
 15 17  1  0
 17 18  1  0
  5 19  1  0
 19 20  2  0
 20 21  1  0
 21 22  1  0
 22 23  1  0
 23 24  1  0
 24 25  1  0
 20  2  1  0
 25 21  1  0
 17  6  2  0
 14  8  1  0
  1 26  1  0
  1 27  1  0
  1 28  1  0
  3 29  1  0
  4 30  1  0
  9 31  1  0
 10 32  1  0
 11 33  1  0
 13 34  1  0
 18 35  1  0
 19 36  1  0
 22 37  1  0
 22 38  1  0
 23 39  1  0
 23 40  1  0
 24 41  1  0
 24 42  1  0
 25 43  1  0
 25 44  1  0
M  END
>  <meeko>  (4) 
{"is_sidechain": [false], "free_energy": -7.111, "intermolecular_energy": -8.385, "internal_energy": -0.731}

$$$$
cand_018_out
     RDKit          3D

 44 47  0  0  0  0  0  0  0  0999 V2000
  185.7350   23.6810   48.6430 C   0  0  0  0  0  0  0  0  0  0  0  0
  184.4200   23.0450   48.2820 C   0  0  0  0  0  0  0  0  0  0  0  0
  183.6160   22.5020   49.2970 C   0  0  0  0  0  0  0  0  0  0  0  0
  182.3900   21.9090   48.9930 C   0  0  0  0  0  0  0  0  0  0  0  0
  181.9320   21.8560   47.6730 C   0  0  0  0  0  0  0  0  0  0  0  0
  180.6390   21.2090   47.3670 C   0  0  0  0  0  0  0  0  0  0  0  0
  179.5460   21.9780   47.7540 O   0  0  0  0  0  0  0  0  0  0  0  0
  178.2820   21.4960   47.5300 C   0  0  0  0  0  0  0  0  0  0  0  0
  177.2170   22.2940   47.9490 C   0  0  0  0  0  0  0  0  0  0  0  0
  175.9040   21.8630   47.7490 C   0  0  0  0  0  0  0  0  0  0  0  0
  175.6560   20.6360   47.1300 C   0  0  0  0  0  0  0  0  0  0  0  0
  176.7210   19.8420   46.7120 C   0  0  0  0  0  0  0  0  0  0  0  0
  176.4090   18.6530   46.1130 O   0  0  0  0  0  0  0  0  0  0  0  0
  178.0360   20.2740   46.9130 C   0  0  0  0  0  0  0  0  0  0  0  0
  179.1840   19.4710   46.4910 C   0  0  0  0  0  0  0  0  0  0  0  0
  179.0480   18.3830   45.9330 O   0  0  0  0  0  0  0  0  0  0  0  0
  180.5360   20.0140   46.7580 C   0  0  0  0  0  0  0  0  0  0  0  0
  181.6120   19.2520   46.3410 O   0  0  0  0  0  0  0  0  0  0  0  0
  182.7420   22.3970   46.6610 C   0  0  0  0  0  0  0  0  0  0  0  0
  183.9850   22.9940   46.9430 C   0  0  0  0  0  0  0  0  0  0  0  0
  184.7800   23.5720   45.9380 N   0  0  0  0  0  0  0  0  0  0  0  0
  184.2700   24.8910   45.5130 C   0  0  0  0  0  0  0  0  0  0  0  0
  184.6760   24.9920   44.0480 C   0  0  0  0  0  0  0  0  0  0  0  0
  184.5160   23.5610   43.5700 C   0  0  0  0  0  0  0  0  0  0  0  0
  185.0580   22.7530   44.7450 C   0  0  0  0  0  0  0  0  0  0  0  0
  185.8314   23.7276   49.7378 H   0  0  0  0  0  0  0  0  0  0  0  0
  186.5585   23.0816   48.2276 H   0  0  0  0  0  0  0  0  0  0  0  0
  185.7764   24.6987   48.2276 H   0  0  0  0  0  0  0  0  0  0  0  0
  183.9560   22.5445   50.3423 H   0  0  0  0  0  0  0  0  0  0  0  0
  181.7780   21.4791   49.7996 H   0  0  0  0  0  0  0  0  0  0  0  0
  177.4113   23.2610   48.4360 H   0  0  0  0  0  0  0  0  0  0  0  0
  175.0636   22.4910   48.0796 H   0  0  0  0  0  0  0  0  0  0  0  0
  174.6213   20.2973   46.9729 H   0  0  0  0  0  0  0  0  0  0  0  0
  176.3890   17.8650   46.6180 H   0  0  0  0  0  0  0  0  0  0  0  0
  182.2040   18.8920   46.9730 H   0  0  0  0  0  0  0  0  0  0  0  0
  182.3949   22.3528   45.6181 H   0  0  0  0  0  0  0  0  0  0  0  0
  183.1762   24.9395   45.6193 H   0  0  0  0  0  0  0  0  0  0  0  0
  184.6726   25.7150   46.1204 H   0  0  0  0  0  0  0  0  0  0  0  0
  184.0114   25.6732   43.4963 H   0  0  0  0  0  0  0  0  0  0  0  0
  185.6878   25.3965   43.8977 H   0  0  0  0  0  0  0  0  0  0  0  0
  183.4594   23.3225   43.3783 H   0  0  0  0  0  0  0  0  0  0  0  0
  185.0359   23.3564   42.6224 H   0  0  0  0  0  0  0  0  0  0  0  0
  184.5448   21.7826   44.8152 H   0  0  0  0  0  0  0  0  0  0  0  0
  186.1310   22.5372   44.6354 H   0  0  0  0  0  0  0  0  0  0  0  0
  1  2  1  0
  2  3  2  0
  3  4  1  0
  4  5  2  0
  5  6  1  0
  6  7  1  0
  7  8  1  0
  8  9  2  0
  9 10  1  0
 10 11  2  0
 11 12  1  0
 12 13  1  0
 12 14  2  0
 14 15  1  0
 15 16  2  0
 15 17  1  0
 17 18  1  0
  5 19  1  0
 19 20  2  0
 20 21  1  0
 21 22  1  0
 22 23  1  0
 23 24  1  0
 24 25  1  0
 20  2  1  0
 25 21  1  0
 17  6  2  0
 14  8  1  0
  1 26  1  0
  1 27  1  0
  1 28  1  0
  3 29  1  0
  4 30  1  0
  9 31  1  0
 10 32  1  0
 11 33  1  0
 13 34  1  0
 18 35  1  0
 19 36  1  0
 22 37  1  0
 22 38  1  0
 23 39  1  0
 23 40  1  0
 24 41  1  0
 24 42  1  0
 25 43  1  0
 25 44  1  0
M  END
>  <meeko>  (5) 
{"is_sidechain": [false], "free_energy": -7.109, "intermolecular_energy": -8.422, "internal_energy": -0.691}

$$$$
cand_018_out
     RDKit          3D

 44 47  0  0  0  0  0  0  0  0999 V2000
  176.4630   18.8920   46.3200 C   0  0  0  0  0  0  0  0  0  0  0  0
  176.3670   19.9150   47.4200 C   0  0  0  0  0  0  0  0  0  0  0  0
  175.2560   19.8990   48.2790 C   0  0  0  0  0  0  0  0  0  0  0  0
  175.1410   20.8330   49.3100 C   0  0  0  0  0  0  0  0  0  0  0  0
  176.1370   21.7930   49.5160 C   0  0  0  0  0  0  0  0  0  0  0  0
  175.9900   22.7850   50.6020 C   0  0  0  0  0  0  0  0  0  0  0  0
  175.4850   24.0020   50.1570 O   0  0  0  0  0  0  0  0  0  0  0  0
  175.2990   25.0140   51.0640 C   0  0  0  0  0  0  0  0  0  0  0  0
  174.8060   26.2230   50.5700 C   0  0  0  0  0  0  0  0  0  0  0  0
  174.5910   27.2940   51.4400 C   0  0  0  0  0  0  0  0  0  0  0  0
  174.8670   27.1560   52.8020 C   0  0  0  0  0  0  0  0  0  0  0  0
  175.3570   25.9490   53.2910 C   0  0  0  0  0  0  0  0  0  0  0  0
  175.6060   25.8820   54.6350 O   0  0  0  0  0  0  0  0  0  0  0  0
  175.5730   24.8770   52.4200 C   0  0  0  0  0  0  0  0  0  0  0  0
  176.0890   23.5910   52.8930 C   0  0  0  0  0  0  0  0  0  0  0  0
  176.3490   23.3900   54.0780 O   0  0  0  0  0  0  0  0  0  0  0  0
  176.2900   22.5220   51.8870 C   0  0  0  0  0  0  0  0  0  0  0  0
  176.7650   21.3080   52.3490 O   0  0  0  0  0  0  0  0  0  0  0  0
  177.2430   21.8070   48.6510 C   0  0  0  0  0  0  0  0  0  0  0  0
  177.3770   20.8800   47.6010 C   0  0  0  0  0  0  0  0  0  0  0  0
  178.5020   20.8650   46.7580 N   0  0  0  0  0  0  0  0  0  0  0  0
  179.3000   19.6320   46.9160 C   0  0  0  0  0  0  0  0  0  0  0  0
  180.7270   20.0720   46.6130 C   0  0  0  0  0  0  0  0  0  0  0  0
  180.7640   21.4710   47.1990 C   0  0  0  0  0  0  0  0  0  0  0  0
  179.4000   22.0320   46.8120 C   0  0  0  0  0  0  0  0  0  0  0  0
  176.5572   17.8882   46.7600 H   0  0  0  0  0  0  0  0  0  0  0  0
  175.5568   18.9362   45.6981 H   0  0  0  0  0  0  0  0  0  0  0  0
  177.3452   19.1040   45.6981 H   0  0  0  0  0  0  0  0  0  0  0  0
  174.4691   19.1434   48.1380 H   0  0  0  0  0  0  0  0  0  0  0  0
  174.2587   20.8138   49.9666 H   0  0  0  0  0  0  0  0  0  0  0  0
  174.5873   26.3318   49.4975 H   0  0  0  0  0  0  0  0  0  0  0  0
  174.2037   28.2476   51.0519 H   0  0  0  0  0  0  0  0  0  0  0  0
  174.6974   27.9999   53.4869 H   0  0  0  0  0  0  0  0  0  0  0  0
  175.4350   26.6240   55.1800 H   0  0  0  0  0  0  0  0  0  0  0  0
  176.9280   20.6090   51.7460 H   0  0  0  0  0  0  0  0  0  0  0  0
  178.0271   22.5643   48.7985 H   0  0  0  0  0  0  0  0  0  0  0  0
  179.2205   19.2441   47.9423 H   0  0  0  0  0  0  0  0  0  0  0  0
  178.9590   18.8208   46.2560 H   0  0  0  0  0  0  0  0  0  0  0  0
  181.4596   19.4146   47.1042 H   0  0  0  0  0  0  0  0  0  0  0  0
  180.9822   20.0350   45.5436 H   0  0  0  0  0  0  0  0  0  0  0  0
  180.8848   21.4403   48.2919 H   0  0  0  0  0  0  0  0  0  0  0  0
  181.6056   22.0764   46.8313 H   0  0  0  0  0  0  0  0  0  0  0  0
  179.0512   22.7523   47.5667 H   0  0  0  0  0  0  0  0  0  0  0  0
  179.4340   22.5687   45.8524 H   0  0  0  0  0  0  0  0  0  0  0  0
  1  2  1  0
  2  3  2  0
  3  4  1  0
  4  5  2  0
  5  6  1  0
  6  7  1  0
  7  8  1  0
  8  9  2  0
  9 10  1  0
 10 11  2  0
 11 12  1  0
 12 13  1  0
 12 14  2  0
 14 15  1  0
 15 16  2  0
 15 17  1  0
 17 18  1  0
  5 19  1  0
 19 20  2  0
 20 21  1  0
 21 22  1  0
 22 23  1  0
 23 24  1  0
 24 25  1  0
 20  2  1  0
 25 21  1  0
 17  6  2  0
 14  8  1  0
  1 26  1  0
  1 27  1  0
  1 28  1  0
  3 29  1  0
  4 30  1  0
  9 31  1  0
 10 32  1  0
 11 33  1  0
 13 34  1  0
 18 35  1  0
 19 36  1  0
 22 37  1  0
 22 38  1  0
 23 39  1  0
 23 40  1  0
 24 41  1  0
 24 42  1  0
 25 43  1  0
 25 44  1  0
M  END
>  <meeko>  (6) 
{"is_sidechain": [false], "free_energy": -7.034, "intermolecular_energy": -8.841, "internal_energy": -0.185}

$$$$
cand_018_out
     RDKit          3D

 44 47  0  0  0  0  0  0  0  0999 V2000
  177.1150   20.4140   45.7820 C   0  0  0  0  0  0  0  0  0  0  0  0
  176.4290   21.0390   46.9670 C   0  0  0  0  0  0  0  0  0  0  0  0
  175.1600   20.5770   47.3490 C   0  0  0  0  0  0  0  0  0  0  0  0
  174.5000   21.1350   48.4450 C   0  0  0  0  0  0  0  0  0  0  0  0
  175.0980   22.1550   49.1920 C   0  0  0  0  0  0  0  0  0  0  0  0
  174.3780   22.7450   50.3400 C   0  0  0  0  0  0  0  0  0  0  0  0
  175.2080   22.9900   51.4290 O   0  0  0  0  0  0  0  0  0  0  0  0
  174.6670   23.5380   52.5650 C   0  0  0  0  0  0  0  0  0  0  0  0
  175.5340   23.7520   53.6380 C   0  0  0  0  0  0  0  0  0  0  0  0
  175.0490   24.3080   54.8230 C   0  0  0  0  0  0  0  0  0  0  0  0
  173.7000   24.6520   54.9350 C   0  0  0  0  0  0  0  0  0  0  0  0
  172.8390   24.4380   53.8630 C   0  0  0  0  0  0  0  0  0  0  0  0
  171.5300   24.7970   54.0390 O   0  0  0  0  0  0  0  0  0  0  0  0
  173.3240   23.8800   52.6760 C   0  0  0  0  0  0  0  0  0  0  0  0
  172.4530   23.6370   51.5260 C   0  0  0  0  0  0  0  0  0  0  0  0
  171.2560   23.9190   51.5450 O   0  0  0  0  0  0  0  0  0  0  0  0
  173.0640   23.0350   50.3190 C   0  0  0  0  0  0  0  0  0  0  0  0
  172.2330   22.8230   49.2330 O   0  0  0  0  0  0  0  0  0  0  0  0
  176.3660   22.6160   48.8030 C   0  0  0  0  0  0  0  0  0  0  0  0
  177.0470   22.0730   47.6970 C   0  0  0  0  0  0  0  0  0  0  0  0
  178.3330   22.5040   47.3280 N   0  0  0  0  0  0  0  0  0  0  0  0
  179.3910   21.8370   48.1130 C   0  0  0  0  0  0  0  0  0  0  0  0
  180.5070   22.8710   48.1870 C   0  0  0  0  0  0  0  0  0  0  0  0
  179.7340   24.1720   48.2940 C   0  0  0  0  0  0  0  0  0  0  0  0
  178.5800   23.9570   47.3190 C   0  0  0  0  0  0  0  0  0  0  0  0
  177.8857   19.7119   46.1328 H   0  0  0  0  0  0  0  0  0  0  0  0
  176.3755   19.8728   45.1736 H   0  0  0  0  0  0  0  0  0  0  0  0
  177.5852   21.2006   45.1736 H   0  0  0  0  0  0  0  0  0  0  0  0
  174.6809   19.7673   46.7791 H   0  0  0  0  0  0  0  0  0  0  0  0
  173.5007   20.7693   48.7237 H   0  0  0  0  0  0  0  0  0  0  0  0
  176.5970   23.4831   53.5499 H   0  0  0  0  0  0  0  0  0  0  0  0
  175.7305   24.4755   55.6701 H   0  0  0  0  0  0  0  0  0  0  0  0
  173.3189   25.0912   55.8687 H   0  0  0  0  0  0  0  0  0  0  0  0
  171.1570   24.7990   54.8990 H   0  0  0  0  0  0  0  0  0  0  0  0
  171.4590   22.3050   49.3300 H   0  0  0  0  0  0  0  0  0  0  0  0
  176.8406   23.4243   49.3787 H   0  0  0  0  0  0  0  0  0  0  0  0
  179.0281   21.5815   49.1195 H   0  0  0  0  0  0  0  0  0  0  0  0
  179.7213   20.8914   47.6583 H   0  0  0  0  0  0  0  0  0  0  0  0
  181.1412   22.7103   49.0713 H   0  0  0  0  0  0  0  0  0  0  0  0
  181.1970   22.8372   47.3310 H   0  0  0  0  0  0  0  0  0  0  0  0
  179.3641   24.3307   49.3177 H   0  0  0  0  0  0  0  0  0  0  0  0
  180.3404   25.0605   48.0639 H   0  0  0  0  0  0  0  0  0  0  0  0
  177.6854   24.5026   47.6537 H   0  0  0  0  0  0  0  0  0  0  0  0
  178.8185   24.3275   46.3111 H   0  0  0  0  0  0  0  0  0  0  0  0
  1  2  1  0
  2  3  2  0
  3  4  1  0
  4  5  2  0
  5  6  1  0
  6  7  1  0
  7  8  1  0
  8  9  2  0
  9 10  1  0
 10 11  2  0
 11 12  1  0
 12 13  1  0
 12 14  2  0
 14 15  1  0
 15 16  2  0
 15 17  1  0
 17 18  1  0
  5 19  1  0
 19 20  2  0
 20 21  1  0
 21 22  1  0
 22 23  1  0
 23 24  1  0
 24 25  1  0
 20  2  1  0
 25 21  1  0
 17  6  2  0
 14  8  1  0
  1 26  1  0
  1 27  1  0
  1 28  1  0
  3 29  1  0
  4 30  1  0
  9 31  1  0
 10 32  1  0
 11 33  1  0
 13 34  1  0
 18 35  1  0
 19 36  1  0
 22 37  1  0
 22 38  1  0
 23 39  1  0
 23 40  1  0
 24 41  1  0
 24 42  1  0
 25 43  1  0
 25 44  1  0
M  END
>  <meeko>  (7) 
{"is_sidechain": [false], "free_energy": -7.023, "intermolecular_energy": -8.684, "internal_energy": -0.328}

$$$$
cand_018_out
     RDKit          3D

 44 47  0  0  0  0  0  0  0  0999 V2000
  185.1410   23.5840   48.8320 C   0  0  0  0  0  0  0  0  0  0  0  0
  183.6940   23.2010   48.9900 C   0  0  0  0  0  0  0  0  0  0  0  0
  183.3140   21.8620   48.8090 C   0  0  0  0  0  0  0  0  0  0  0  0
  181.9810   21.4760   48.9520 C   0  0  0  0  0  0  0  0  0  0  0  0
  181.0000   22.4130   49.2920 C   0  0  0  0  0  0  0  0  0  0  0  0
  179.5900   21.9890   49.4230 C   0  0  0  0  0  0  0  0  0  0  0  0
  178.9700   21.7900   48.1940 O   0  0  0  0  0  0  0  0  0  0  0  0
  177.6570   21.3940   48.1700 C   0  0  0  0  0  0  0  0  0  0  0  0
  177.0720   21.2210   46.9140 C   0  0  0  0  0  0  0  0  0  0  0  0
  175.7390   20.8170   46.8180 C   0  0  0  0  0  0  0  0  0  0  0  0
  174.9920   20.5840   47.9760 C   0  0  0  0  0  0  0  0  0  0  0  0
  175.5800   20.7560   49.2260 C   0  0  0  0  0  0  0  0  0  0  0  0
  174.7930   20.5110   50.3180 O   0  0  0  0  0  0  0  0  0  0  0  0
  176.9140   21.1620   49.3220 C   0  0  0  0  0  0  0  0  0  0  0  0
  177.5700   21.3560   50.6160 C   0  0  0  0  0  0  0  0  0  0  0  0
  176.9810   21.1640   51.6790 O   0  0  0  0  0  0  0  0  0  0  0  0
  178.9840   21.7950   50.6090 C   0  0  0  0  0  0  0  0  0  0  0  0
  179.5960   21.9610   51.8380 O   0  0  0  0  0  0  0  0  0  0  0  0
  181.3850   23.7520   49.4670 C   0  0  0  0  0  0  0  0  0  0  0  0
  182.7230   24.1660   49.3220 C   0  0  0  0  0  0  0  0  0  0  0  0
  183.1190   25.4980   49.5360 N   0  0  0  0  0  0  0  0  0  0  0  0
  182.7560   25.9770   50.8840 C   0  0  0  0  0  0  0  0  0  0  0  0
  182.5190   27.4710   50.6960 C   0  0  0  0  0  0  0  0  0  0  0  0
  181.8860   27.5250   49.3180 C   0  0  0  0  0  0  0  0  0  0  0  0
  182.6970   26.4950   48.5370 C   0  0  0  0  0  0  0  0  0  0  0  0
  185.5987   23.7052   49.8249 H   0  0  0  0  0  0  0  0  0  0  0  0
  185.6707   22.7951   48.2778 H   0  0  0  0  0  0  0  0  0  0  0  0
  185.2111   24.5316   48.2778 H   0  0  0  0  0  0  0  0  0  0  0  0
  184.0744   21.1099   48.5520 H   0  0  0  0  0  0  0  0  0  0  0  0
  181.6988   20.4244   48.7958 H   0  0  0  0  0  0  0  0  0  0  0  0
  177.6600   21.4026   46.0023 H   0  0  0  0  0  0  0  0  0  0  0  0
  175.2760   20.6819   45.8294 H   0  0  0  0  0  0  0  0  0  0  0  0
  173.9419   20.2654   47.8999 H   0  0  0  0  0  0  0  0  0  0  0  0
  174.6380   19.6300   50.5950 H   0  0  0  0  0  0  0  0  0  0  0  0
  179.6870   21.2320   52.4180 H   0  0  0  0  0  0  0  0  0  0  0  0
  180.6195   24.4988   49.7247 H   0  0  0  0  0  0  0  0  0  0  0  0
  181.8432   25.4789   51.2428 H   0  0  0  0  0  0  0  0  0  0  0  0
  183.5341   25.7636   51.6317 H   0  0  0  0  0  0  0  0  0  0  0  0
  181.8374   27.8663   51.4636 H   0  0  0  0  0  0  0  0  0  0  0  0
  183.4323   28.0774   50.7861 H   0  0  0  0  0  0  0  0  0  0  0  0
  180.8229   27.2453   49.3584 H   0  0  0  0  0  0  0  0  0  0  0  0
  181.9045   28.5284   48.8677 H   0  0  0  0  0  0  0  0  0  0  0  0
  182.0767   26.0241   47.7602 H   0  0  0  0  0  0  0  0  0  0  0  0
  183.5559   26.9515   48.0233 H   0  0  0  0  0  0  0  0  0  0  0  0
  1  2  1  0
  2  3  2  0
  3  4  1  0
  4  5  2  0
  5  6  1  0
  6  7  1  0
  7  8  1  0
  8  9  2  0
  9 10  1  0
 10 11  2  0
 11 12  1  0
 12 13  1  0
 12 14  2  0
 14 15  1  0
 15 16  2  0
 15 17  1  0
 17 18  1  0
  5 19  1  0
 19 20  2  0
 20 21  1  0
 21 22  1  0
 22 23  1  0
 23 24  1  0
 24 25  1  0
 20  2  1  0
 25 21  1  0
 17  6  2  0
 14  8  1  0
  1 26  1  0
  1 27  1  0
  1 28  1  0
  3 29  1  0
  4 30  1  0
  9 31  1  0
 10 32  1  0
 11 33  1  0
 13 34  1  0
 18 35  1  0
 19 36  1  0
 22 37  1  0
 22 38  1  0
 23 39  1  0
 23 40  1  0
 24 41  1  0
 24 42  1  0
 25 43  1  0
 25 44  1  0
M  END
>  <meeko>  (8) 
{"is_sidechain": [false], "free_energy": -7.0, "intermolecular_energy": -8.228, "internal_energy": -0.757}

$$$$
cand_018_out
     RDKit          3D

 44 47  0  0  0  0  0  0  0  0999 V2000
  174.4460   23.3510   49.3310 C   0  0  0  0  0  0  0  0  0  0  0  0
  175.9460   23.2330   49.3520 C   0  0  0  0  0  0  0  0  0  0  0  0
  176.7020   24.1830   50.0560 C   0  0  0  0  0  0  0  0  0  0  0  0
  178.0940   24.0980   50.0960 C   0  0  0  0  0  0  0  0  0  0  0  0
  178.7630   23.0560   49.4470 C   0  0  0  0  0  0  0  0  0  0  0  0
  180.2390   22.9900   49.4870 C   0  0  0  0  0  0  0  0  0  0  0  0
  180.8280   23.3720   48.2860 O   0  0  0  0  0  0  0  0  0  0  0  0
  182.1960   23.3580   48.1840 C   0  0  0  0  0  0  0  0  0  0  0  0
  182.7430   23.7330   46.9550 C   0  0  0  0  0  0  0  0  0  0  0  0
  184.1280   23.7420   46.7850 C   0  0  0  0  0  0  0  0  0  0  0  0
  184.9670   23.3780   47.8410 C   0  0  0  0  0  0  0  0  0  0  0  0
  184.4180   23.0060   49.0650 C   0  0  0  0  0  0  0  0  0  0  0  0
  185.2950   22.6620   50.0560 O   0  0  0  0  0  0  0  0  0  0  0  0
  183.0300   22.9960   49.2350 C   0  0  0  0  0  0  0  0  0  0  0  0
  182.4130   22.6090   50.5040 C   0  0  0  0  0  0  0  0  0  0  0  0
  183.0840   22.2830   51.4820 O   0  0  0  0  0  0  0  0  0  0  0  0
  180.9330   22.6240   50.5790 C   0  0  0  0  0  0  0  0  0  0  0  0
  180.3620   22.2700   51.7880 O   0  0  0  0  0  0  0  0  0  0  0  0
  178.0030   22.1100   48.7410 C   0  0  0  0  0  0  0  0  0  0  0  0
  176.5980   22.1790   48.6810 C   0  0  0  0  0  0  0  0  0  0  0  0
  175.8310   21.2120   48.0080 N   0  0  0  0  0  0  0  0  0  0  0  0
  175.7300   19.9520   48.7710 C   0  0  0  0  0  0  0  0  0  0  0  0
  175.6090   18.8770   47.6980 C   0  0  0  0  0  0  0  0  0  0  0  0
  176.5120   19.4120   46.6030 C   0  0  0  0  0  0  0  0  0  0  0  0
  176.2040   20.9060   46.6160 C   0  0  0  0  0  0  0  0  0  0  0  0
  174.0661   23.3809   50.3629 H   0  0  0  0  0  0  0  0  0  0  0  0
  174.1581   24.2746   48.8074 H   0  0  0  0  0  0  0  0  0  0  0  0
  174.0173   22.4838   48.8074 H   0  0  0  0  0  0  0  0  0  0  0  0
  176.1916   25.0034   50.5818 H   0  0  0  0  0  0  0  0  0  0  0  0
  178.6706   24.8581   50.6434 H   0  0  0  0  0  0  0  0  0  0  0  0
  182.0836   24.0206   46.1229 H   0  0  0  0  0  0  0  0  0  0  0  0
  184.5602   24.0364   45.8172 H   0  0  0  0  0  0  0  0  0  0  0  0
  186.0586   23.3853   47.7057 H   0  0  0  0  0  0  0  0  0  0  0  0
  184.9960   22.5880   50.9410 H   0  0  0  0  0  0  0  0  0  0  0  0
  179.5250   21.8510   51.8060 H   0  0  0  0  0  0  0  0  0  0  0  0
  178.5202   21.2911   48.2196 H   0  0  0  0  0  0  0  0  0  0  0  0
  176.6298   19.7930   49.3834 H   0  0  0  0  0  0  0  0  0  0  0  0
  174.8807   19.9485   49.4701 H   0  0  0  0  0  0  0  0  0  0  0  0
  175.9640   17.9035   48.0673 H   0  0  0  0  0  0  0  0  0  0  0  0
  174.5750   18.6974   47.3684 H   0  0  0  0  0  0  0  0  0  0  0  0
  177.5707   19.2231   46.8341 H   0  0  0  0  0  0  0  0  0  0  0  0
  176.3401   18.9389   45.6249 H   0  0  0  0  0  0  0  0  0  0  0  0
  177.0905   21.4851   46.3181 H   0  0  0  0  0  0  0  0  0  0  0  0
  175.4025   21.1664   45.9091 H   0  0  0  0  0  0  0  0  0  0  0  0
  1  2  1  0
  2  3  2  0
  3  4  1  0
  4  5  2  0
  5  6  1  0
  6  7  1  0
  7  8  1  0
  8  9  2  0
  9 10  1  0
 10 11  2  0
 11 12  1  0
 12 13  1  0
 12 14  2  0
 14 15  1  0
 15 16  2  0
 15 17  1  0
 17 18  1  0
  5 19  1  0
 19 20  2  0
 20 21  1  0
 21 22  1  0
 22 23  1  0
 23 24  1  0
 24 25  1  0
 20  2  1  0
 25 21  1  0
 17  6  2  0
 14  8  1  0
  1 26  1  0
  1 27  1  0
  1 28  1  0
  3 29  1  0
  4 30  1  0
  9 31  1  0
 10 32  1  0
 11 33  1  0
 13 34  1  0
 18 35  1  0
 19 36  1  0
 22 37  1  0
 22 38  1  0
 23 39  1  0
 23 40  1  0
 24 41  1  0
 24 42  1  0
 25 43  1  0
 25 44  1  0
M  END
>  <meeko>  (9) 
{"is_sidechain": [false], "free_energy": -6.825, "intermolecular_energy": -8.076, "internal_energy": -0.703}

$$$$
