cand_019_out
     RDKit          3D

 35 37  0  0  0  0  0  0  0  0999 V2000
  179.9550   21.6920   48.4880 O   0  0  0  0  0  0  0  0  0  0  0  0
  179.3670   20.8650   47.7940 C   0  0  0  0  0  0  0  0  0  0  0  0
  180.1270   19.9190   46.9450 C   0  0  0  0  0  0  0  0  0  0  0  0
  181.5060   20.0280   46.9620 O   0  0  0  0  0  0  0  0  0  0  0  0
  179.4440   19.0310   46.2010 C   0  0  0  0  0  0  0  0  0  0  0  0
  180.0970   18.0490   45.3070 C   0  0  0  0  0  0  0  0  0  0  0  0
  181.0440   18.4370   44.3550 C   0  0  0  0  0  0  0  0  0  0  0  0
  181.6650   17.4890   43.5370 C   0  0  0  0  0  0  0  0  0  0  0  0
  181.3560   16.1260   43.6520 C   0  0  0  0  0  0  0  0  0  0  0  0
  182.0500   15.1290   42.7590 C   0  0  0  0  0  0  0  0  0  0  0  0
  181.3660   14.9040   41.6020 F   0  0  0  0  0  0  0  0  0  0  0  0
  180.4220   15.7140   44.6260 C   0  0  0  0  0  0  0  0  0  0  0  0
  180.0690   14.2540   44.8090 C   0  0  0  0  0  0  0  0  0  0  0  0
  180.9050   13.6230   45.6800 F   0  0  0  0  0  0  0  0  0  0  0  0
  178.8150   14.0650   45.3170 F   0  0  0  0  0  0  0  0  0  0  0  0
  179.8020   16.6840   45.4380 C   0  0  0  0  0  0  0  0  0  0  0  0
  178.0570   18.9500   46.1700 O   0  0  0  0  0  0  0  0  0  0  0  0
  177.3250   19.8080   46.9510 C   0  0  0  0  0  0  0  0  0  0  0  0
  175.9350   19.6840   46.8980 C   0  0  0  0  0  0  0  0  0  0  0  0
  175.1310   20.5280   47.6680 C   0  0  0  0  0  0  0  0  0  0  0  0
  175.7160   21.4940   48.4900 C   0  0  0  0  0  0  0  0  0  0  0  0
  177.1020   21.6140   48.5410 C   0  0  0  0  0  0  0  0  0  0  0  0
  177.6070   22.5810   49.3670 O   0  0  0  0  0  0  0  0  0  0  0  0
  177.9060   20.7700   47.7710 C   0  0  0  0  0  0  0  0  0  0  0  0
  181.9430   20.5490   46.3180 H   0  0  0  0  0  0  0  0  0  0  0  0
  181.3035   19.5006   44.2484 H   0  0  0  0  0  0  0  0  0  0  0  0
  182.4061   17.8165   42.7930 H   0  0  0  0  0  0  0  0  0  0  0  0
  183.0496   15.5142   42.5093 H   0  0  0  0  0  0  0  0  0  0  0  0
  182.1103   14.1754   43.3040 H   0  0  0  0  0  0  0  0  0  0  0  0
  180.1499   13.8395   43.7933 H   0  0  0  0  0  0  0  0  0  0  0  0
  179.0690   16.3632   46.1928 H   0  0  0  0  0  0  0  0  0  0  0  0
  175.4740   18.9231   46.2511 H   0  0  0  0  0  0  0  0  0  0  0  0
  174.0360   20.4317   47.6269 H   0  0  0  0  0  0  0  0  0  0  0  0
  175.0827   22.1587   49.0959 H   0  0  0  0  0  0  0  0  0  0  0  0
  177.1220   22.8540   50.1200 H   0  0  0  0  0  0  0  0  0  0  0  0
  1  2  2  0
  2  3  1  0
  3  4  1  0
  3  5  2  0
  5  6  1  0
  6  7  2  0
  7  8  1  0
  8  9  2  0
  9 10  1  0
 10 11  1  0
  9 12  1  0
 12 13  1  0
 13 14  1  0
 13 15  1  0
 12 16  2  0
  5 17  1  0
 17 18  1  0
 18 19  2  0
 19 20  1  0
 20 21  2  0
 21 22  1  0
 22 23  1  0
 22 24  2  0
 24  2  1  0
 16  6  1  0
 24 18  1  0
  4 25  1  0
  7 26  1  0
  8 27  1  0
 10 28  1  0
 10 29  1  0
 13 30  1  0
 16 31  1  0
 19 32  1  0
 20 33  1  0
 21 34  1  0
 23 35  1  0
M  END
>  <meeko>  (1) 
{"is_sidechain": [false], "free_energy": -7.938, "intermolecular_energy": -9.794, "internal_energy": -0.37}

$$$$
cand_019_out
     RDKit          3D

 35 37  0  0  0  0  0  0  0  0999 V2000
  182.5450   18.1750   43.6100 O   0  0  0  0  0  0  0  0  0  0  0  0
  181.5490   17.9040   44.2770 C   0  0  0  0  0  0  0  0  0  0  0  0
  180.8710   18.9500   45.0760 C   0  0  0  0  0  0  0  0  0  0  0  0
  181.4190   20.2200   45.0430 O   0  0  0  0  0  0  0  0  0  0  0  0
  179.7850   18.6090   45.7920 C   0  0  0  0  0  0  0  0  0  0  0  0
  179.0360   19.5670   46.6350 C   0  0  0  0  0  0  0  0  0  0  0  0
  179.6850   20.5550   47.3810 C   0  0  0  0  0  0  0  0  0  0  0  0
  178.9560   21.4640   48.1530 C   0  0  0  0  0  0  0  0  0  0  0  0
  177.5560   21.4090   48.1970 C   0  0  0  0  0  0  0  0  0  0  0  0
  176.7990   22.4090   49.0340 C   0  0  0  0  0  0  0  0  0  0  0  0
  176.4180   23.5030   48.3170 F   0  0  0  0  0  0  0  0  0  0  0  0
  176.8820   20.4350   47.4290 C   0  0  0  0  0  0  0  0  0  0  0  0
  175.3710   20.3460   47.4210 C   0  0  0  0  0  0  0  0  0  0  0  0
  174.8030   21.2440   46.5680 F   0  0  0  0  0  0  0  0  0  0  0  0
  174.9080   19.1260   47.0180 F   0  0  0  0  0  0  0  0  0  0  0  0
  177.6340   19.5240   46.6620 C   0  0  0  0  0  0  0  0  0  0  0  0
  179.2590   17.3230   45.8390 O   0  0  0  0  0  0  0  0  0  0  0  0
  179.8610   16.3340   45.1040 C   0  0  0  0  0  0  0  0  0  0  0  0
  179.2940   15.0600   45.1720 C   0  0  0  0  0  0  0  0  0  0  0  0
  179.8590   14.0070   44.4480 C   0  0  0  0  0  0  0  0  0  0  0  0
  180.9900   14.2270   43.6590 C   0  0  0  0  0  0  0  0  0  0  0  0
  181.5530   15.4990   43.5930 C   0  0  0  0  0  0  0  0  0  0  0  0
  182.6590   15.6440   42.8010 O   0  0  0  0  0  0  0  0  0  0  0  0
  180.9880   16.5520   44.3170 C   0  0  0  0  0  0  0  0  0  0  0  0
  182.0500   20.4410   44.3860 H   0  0  0  0  0  0  0  0  0  0  0  0
  180.7830   20.6179   47.3603 H   0  0  0  0  0  0  0  0  0  0  0  0
  179.4877   22.2324   48.7334 H   0  0  0  0  0  0  0  0  0  0  0  0
  175.9001   21.9218   49.4397 H   0  0  0  0  0  0  0  0  0  0  0  0
  177.4691   22.7505   49.8367 H   0  0  0  0  0  0  0  0  0  0  0  0
  175.0943   20.5463   48.4666 H   0  0  0  0  0  0  0  0  0  0  0  0
  177.1092   18.7601   46.0696 H   0  0  0  0  0  0  0  0  0  0  0  0
  178.4040   14.8855   45.7945 H   0  0  0  0  0  0  0  0  0  0  0  0
  179.4122   13.0031   44.4996 H   0  0  0  0  0  0  0  0  0  0  0  0
  181.4354   13.3971   43.0907 H   0  0  0  0  0  0  0  0  0  0  0  0
  182.5680   15.9490   41.9200 H   0  0  0  0  0  0  0  0  0  0  0  0
  1  2  2  0
  2  3  1  0
  3  4  1  0
  3  5  2  0
  5  6  1  0
  6  7  2  0
  7  8  1  0
  8  9  2  0
  9 10  1  0
 10 11  1  0
  9 12  1  0
 12 13  1  0
 13 14  1  0
 13 15  1  0
 12 16  2  0
  5 17  1  0
 17 18  1  0
 18 19  2  0
 19 20  1  0
 20 21  2  0
 21 22  1  0
 22 23  1  0
 22 24  2  0
 24  2  1  0
 16  6  1  0
 24 18  1  0
  4 25  1  0
  7 26  1  0
  8 27  1  0
 10 28  1  0
 10 29  1  0
 13 30  1  0
 16 31  1  0
 19 32  1  0
 20 33  1  0
 21 34  1  0
 23 35  1  0
M  END
>  <meeko>  (2) 
{"is_sidechain": [false], "free_energy": -7.444, "intermolecular_energy": -9.285, "internal_energy": -0.271}

$$$$
cand_019_out
     RDKit          3D

 35 37  0  0  0  0  0  0  0  0999 V2000
  171.0550   23.6400   51.6920 O   0  0  0  0  0  0  0  0  0  0  0  0
  172.2810   23.5760   51.7410 C   0  0  0  0  0  0  0  0  0  0  0  0
  173.0570   23.1020   50.5730 C   0  0  0  0  0  0  0  0  0  0  0  0
  172.3390   22.7260   49.4520 O   0  0  0  0  0  0  0  0  0  0  0  0
  174.3980   23.0470   50.6700 C   0  0  0  0  0  0  0  0  0  0  0  0
  175.2720   22.5780   49.5730 C   0  0  0  0  0  0  0  0  0  0  0  0
  176.2040   23.4220   48.9620 C   0  0  0  0  0  0  0  0  0  0  0  0
  177.0360   22.9500   47.9430 C   0  0  0  0  0  0  0  0  0  0  0  0
  176.9580   21.6190   47.5080 C   0  0  0  0  0  0  0  0  0  0  0  0
  177.8750   21.1410   46.4110 C   0  0  0  0  0  0  0  0  0  0  0  0
  179.0800   21.7780   46.4270 F   0  0  0  0  0  0  0  0  0  0  0  0
  176.0410   20.7460   48.1320 C   0  0  0  0  0  0  0  0  0  0  0  0
  175.9320   19.2950   47.7180 C   0  0  0  0  0  0  0  0  0  0  0  0
  175.8780   18.4520   48.7880 F   0  0  0  0  0  0  0  0  0  0  0  0
  174.8050   19.0270   46.9950 F   0  0  0  0  0  0  0  0  0  0  0  0
  175.2070   21.2400   49.1530 C   0  0  0  0  0  0  0  0  0  0  0  0
  175.1070   23.4010   51.8120 O   0  0  0  0  0  0  0  0  0  0  0  0
  174.4170   23.8510   52.9090 C   0  0  0  0  0  0  0  0  0  0  0  0
  175.1690   24.2050   54.0290 C   0  0  0  0  0  0  0  0  0  0  0  0
  174.5290   24.6700   55.1800 C   0  0  0  0  0  0  0  0  0  0  0  0
  173.1370   24.7800   55.2100 C   0  0  0  0  0  0  0  0  0  0  0  0
  172.3880   24.4260   54.0900 C   0  0  0  0  0  0  0  0  0  0  0  0
  171.0310   24.5580   54.1880 O   0  0  0  0  0  0  0  0  0  0  0  0
  173.0300   23.9610   52.9400 C   0  0  0  0  0  0  0  0  0  0  0  0
  171.4240   22.9220   49.3940 H   0  0  0  0  0  0  0  0  0  0  0  0
  176.2835   24.4699   49.2870 H   0  0  0  0  0  0  0  0  0  0  0  0
  177.7619   23.6318   47.4758 H   0  0  0  0  0  0  0  0  0  0  0  0
  178.0443   20.0615   46.5374 H   0  0  0  0  0  0  0  0  0  0  0  0
  177.3909   21.3630   45.4485 H   0  0  0  0  0  0  0  0  0  0  0  0
  176.8367   19.1301   47.1143 H   0  0  0  0  0  0  0  0  0  0  0  0
  174.4870   20.5611   49.6333 H   0  0  0  0  0  0  0  0  0  0  0  0
  176.2653   24.1180   54.0058 H   0  0  0  0  0  0  0  0  0  0  0  0
  175.1216   24.9498   56.0635 H   0  0  0  0  0  0  0  0  0  0  0  0
  172.6328   25.1456   56.1167 H   0  0  0  0  0  0  0  0  0  0  0  0
  170.6310   25.3960   54.0630 H   0  0  0  0  0  0  0  0  0  0  0  0
  1  2  2  0
  2  3  1  0
  3  4  1  0
  3  5  2  0
  5  6  1  0
  6  7  2  0
  7  8  1  0
  8  9  2  0
  9 10  1  0
 10 11  1  0
  9 12  1  0
 12 13  1  0
 13 14  1  0
 13 15  1  0
 12 16  2  0
  5 17  1  0
 17 18  1  0
 18 19  2  0
 19 20  1  0
 20 21  2  0
 21 22  1  0
 22 23  1  0
 22 24  2  0
 24  2  1  0
 16  6  1  0
 24 18  1  0
  4 25  1  0
  7 26  1  0
  8 27  1  0
 10 28  1  0
 10 29  1  0
 13 30  1  0
 16 31  1  0
 19 32  1  0
 20 33  1  0
 21 34  1  0
 23 35  1  0
M  END
>  <meeko>  (3) 
{"is_sidechain": [false], "free_energy": -7.437, "intermolecular_energy": -9.109, "internal_energy": -0.438}

$$$$
cand_019_out
     RDKit          3D

 35 37  0  0  0  0  0  0  0  0999 V2000
  176.3350   23.3220   53.9230 O   0  0  0  0  0  0  0  0  0  0  0  0
  176.0600   23.4640   52.7340 C   0  0  0  0  0  0  0  0  0  0  0  0
  176.2570   22.3490   51.7780 C   0  0  0  0  0  0  0  0  0  0  0  0
  176.7730   21.1700   52.2850 O   0  0  0  0  0  0  0  0  0  0  0  0
  175.9440   22.5480   50.4850 C   0  0  0  0  0  0  0  0  0  0  0  0
  176.1120   21.5130   49.4420 C   0  0  0  0  0  0  0  0  0  0  0  0
  175.1590   20.5090   49.2420 C   0  0  0  0  0  0  0  0  0  0  0  0
  175.3280   19.5540   48.2340 C   0  0  0  0  0  0  0  0  0  0  0  0
  176.4530   19.5810   47.3990 C   0  0  0  0  0  0  0  0  0  0  0  0
  176.6000   18.5410   46.3170 C   0  0  0  0  0  0  0  0  0  0  0  0
  175.6790   17.5430   46.4280 F   0  0  0  0  0  0  0  0  0  0  0  0
  177.4120   20.6030   47.5690 C   0  0  0  0  0  0  0  0  0  0  0  0
  178.6330   20.6930   46.6810 C   0  0  0  0  0  0  0  0  0  0  0  0
  179.1190   21.9630   46.5930 F   0  0  0  0  0  0  0  0  0  0  0  0
  179.6790   19.9390   47.1300 F   0  0  0  0  0  0  0  0  0  0  0  0
  177.2280   21.5530   48.5930 C   0  0  0  0  0  0  0  0  0  0  0  0
  175.4520   23.7470   49.9820 O   0  0  0  0  0  0  0  0  0  0  0  0
  175.2520   24.7960   50.8440 C   0  0  0  0  0  0  0  0  0  0  0  0
  174.7480   25.9770   50.2980 C   0  0  0  0  0  0  0  0  0  0  0  0
  174.5220   27.0830   51.1200 C   0  0  0  0  0  0  0  0  0  0  0  0
  174.8010   27.0090   52.4860 C   0  0  0  0  0  0  0  0  0  0  0  0
  175.3050   25.8280   53.0280 C   0  0  0  0  0  0  0  0  0  0  0  0
  175.5560   25.8250   54.3730 O   0  0  0  0  0  0  0  0  0  0  0  0
  175.5300   24.7230   52.2050 C   0  0  0  0  0  0  0  0  0  0  0  0
  177.6470   20.9100   52.0680 H   0  0  0  0  0  0  0  0  0  0  0  0
  174.2669   20.4700   49.8844 H   0  0  0  0  0  0  0  0  0  0  0  0
  174.5676   18.7714   48.0949 H   0  0  0  0  0  0  0  0  0  0  0  0
  176.4763   19.0288   45.3389 H   0  0  0  0  0  0  0  0  0  0  0  0
  177.5980   18.0896   46.4187 H   0  0  0  0  0  0  0  0  0  0  0  0
  178.2726   20.3271   45.7083 H   0  0  0  0  0  0  0  0  0  0  0  0
  177.9781   22.3458   48.7302 H   0  0  0  0  0  0  0  0  0  0  0  0
  174.5290   26.0367   49.2217 H   0  0  0  0  0  0  0  0  0  0  0  0
  174.1235   28.0140   50.6906 H   0  0  0  0  0  0  0  0  0  0  0  0
  174.6234   27.8807   53.1330 H   0  0  0  0  0  0  0  0  0  0  0  0
  175.6210   25.0130   54.8350 H   0  0  0  0  0  0  0  0  0  0  0  0
  1  2  2  0
  2  3  1  0
  3  4  1  0
  3  5  2  0
  5  6  1  0
  6  7  2  0
  7  8  1  0
  8  9  2  0
  9 10  1  0
 10 11  1  0
  9 12  1  0
 12 13  1  0
 13 14  1  0
 13 15  1  0
 12 16  2  0
  5 17  1  0
 17 18  1  0
 18 19  2  0
 19 20  1  0
 20 21  2  0
 21 22  1  0
 22 23  1  0
 22 24  2  0
 24  2  1  0
 16  6  1  0
 24 18  1  0
  4 25  1  0
  7 26  1  0
  8 27  1  0
 10 28  1  0
 10 29  1  0
 13 30  1  0
 16 31  1  0
 19 32  1  0
 20 33  1  0
 21 34  1  0
 23 35  1  0
M  END
>  <meeko>  (4) 
{"is_sidechain": [false], "free_energy": -7.429, "intermolecular_energy": -8.971, "internal_energy": -0.566}

$$$$
cand_019_out
     RDKit          3D

 35 37  0  0  0  0  0  0  0  0999 V2000
  176.6830   22.3410   53.1820 O   0  0  0  0  0  0  0  0  0  0  0  0
  176.7280   22.6410   51.9910 C   0  0  0  0  0  0  0  0  0  0  0  0
  177.8890   22.2460   51.1600 C   0  0  0  0  0  0  0  0  0  0  0  0
  178.9050   21.5500   51.7890 O   0  0  0  0  0  0  0  0  0  0  0  0
  177.8980   22.5970   49.8610 C   0  0  0  0  0  0  0  0  0  0  0  0
  179.0090   22.2690   48.9410 C   0  0  0  0  0  0  0  0  0  0  0  0
  180.2730   22.8520   49.0740 C   0  0  0  0  0  0  0  0  0  0  0  0
  181.3140   22.5090   48.2070 C   0  0  0  0  0  0  0  0  0  0  0  0
  181.1190   21.5720   47.1830 C   0  0  0  0  0  0  0  0  0  0  0  0
  182.2650   21.2190   46.2700 C   0  0  0  0  0  0  0  0  0  0  0  0
  183.1870   22.2190   46.1840 F   0  0  0  0  0  0  0  0  0  0  0  0
  179.8570   20.9530   47.0500 C   0  0  0  0  0  0  0  0  0  0  0  0
  179.5980   19.9170   45.9780 C   0  0  0  0  0  0  0  0  0  0  0  0
  178.4490   19.2180   46.1970 F   0  0  0  0  0  0  0  0  0  0  0  0
  179.4550   20.4590   44.7330 F   0  0  0  0  0  0  0  0  0  0  0  0
  178.8180   21.3150   47.9290 C   0  0  0  0  0  0  0  0  0  0  0  0
  176.8840   23.3210   49.2460 O   0  0  0  0  0  0  0  0  0  0  0  0
  175.7920   23.6950   49.9880 C   0  0  0  0  0  0  0  0  0  0  0  0
  174.7930   24.4110   49.3280 C   0  0  0  0  0  0  0  0  0  0  0  0
  173.6550   24.8230   50.0260 C   0  0  0  0  0  0  0  0  0  0  0  0
  173.5170   24.5190   51.3820 C   0  0  0  0  0  0  0  0  0  0  0  0
  174.5170   23.8040   52.0380 C   0  0  0  0  0  0  0  0  0  0  0  0
  174.3170   23.5420   53.3650 O   0  0  0  0  0  0  0  0  0  0  0  0
  175.6540   23.3930   51.3390 C   0  0  0  0  0  0  0  0  0  0  0  0
  179.3070   20.8190   51.3620 H   0  0  0  0  0  0  0  0  0  0  0  0
  180.4501   23.5895   49.8707 H   0  0  0  0  0  0  0  0  0  0  0  0
  182.3000   22.9809   48.3299 H   0  0  0  0  0  0  0  0  0  0  0  0
  182.7590   20.3152   46.6561 H   0  0  0  0  0  0  0  0  0  0  0  0
  181.8536   21.0542   45.2632 H   0  0  0  0  0  0  0  0  0  0  0  0
  180.4847   19.2679   46.0267 H   0  0  0  0  0  0  0  0  0  0  0  0
  177.8326   20.8385   47.8199 H   0  0  0  0  0  0  0  0  0  0  0  0
  174.9011   24.6508   48.2599 H   0  0  0  0  0  0  0  0  0  0  0  0
  172.8666   25.3876   49.5067 H   0  0  0  0  0  0  0  0  0  0  0  0
  172.6207   24.8433   51.9311 H   0  0  0  0  0  0  0  0  0  0  0  0
  174.2840   22.6560   53.6680 H   0  0  0  0  0  0  0  0  0  0  0  0
  1  2  2  0
  2  3  1  0
  3  4  1  0
  3  5  2  0
  5  6  1  0
  6  7  2  0
  7  8  1  0
  8  9  2  0
  9 10  1  0
 10 11  1  0
  9 12  1  0
 12 13  1  0
 13 14  1  0
 13 15  1  0
 12 16  2  0
  5 17  1  0
 17 18  1  0
 18 19  2  0
 19 20  1  0
 20 21  2  0
 21 22  1  0
 22 23  1  0
 22 24  2  0
 24  2  1  0
 16  6  1  0
 24 18  1  0
  4 25  1  0
  7 26  1  0
  8 27  1  0
 10 28  1  0
 10 29  1  0
 13 30  1  0
 16 31  1  0
 19 32  1  0
 20 33  1  0
 21 34  1  0
 23 35  1  0
M  END
>  <meeko>  (5) 
{"is_sidechain": [false], "free_energy": -7.309, "intermolecular_energy": -8.907, "internal_energy": -0.481}

$$$$
cand_019_out
     RDKit          3D

 35 37  0  0  0  0  0  0  0  0999 V2000
  177.9780   21.2290   47.6730 O   0  0  0  0  0  0  0  0  0  0  0  0
  179.0370   20.8550   47.1730 C   0  0  0  0  0  0  0  0  0  0  0  0
  179.0890   19.6180   46.3610 C   0  0  0  0  0  0  0  0  0  0  0  0
  177.9090   18.9120   46.2140 O   0  0  0  0  0  0  0  0  0  0  0  0
  180.2690   19.2450   45.8340 C   0  0  0  0  0  0  0  0  0  0  0  0
  180.4420   18.0220   45.0180 C   0  0  0  0  0  0  0  0  0  0  0  0
  181.1810   18.0280   43.8310 C   0  0  0  0  0  0  0  0  0  0  0  0
  181.3510   16.8550   43.0890 C   0  0  0  0  0  0  0  0  0  0  0  0
  180.7860   15.6450   43.5170 C   0  0  0  0  0  0  0  0  0  0  0  0
  180.9950   14.3980   42.6960 C   0  0  0  0  0  0  0  0  0  0  0  0
  182.0190   14.5260   41.8070 F   0  0  0  0  0  0  0  0  0  0  0  0
  180.0600   15.6150   44.7270 C   0  0  0  0  0  0  0  0  0  0  0  0
  179.4500   14.3320   45.2460 C   0  0  0  0  0  0  0  0  0  0  0  0
  178.5470   13.7970   44.3770 F   0  0  0  0  0  0  0  0  0  0  0  0
  180.3720   13.3470   45.4550 F   0  0  0  0  0  0  0  0  0  0  0  0
  179.8950   16.8070   45.4580 C   0  0  0  0  0  0  0  0  0  0  0  0
  181.4550   19.9470   46.0120 O   0  0  0  0  0  0  0  0  0  0  0  0
  181.4370   21.1010   46.7530 C   0  0  0  0  0  0  0  0  0  0  0  0
  182.6480   21.7800   46.8980 C   0  0  0  0  0  0  0  0  0  0  0  0
  182.6990   22.9620   47.6410 C   0  0  0  0  0  0  0  0  0  0  0  0
  181.5410   23.4630   48.2400 C   0  0  0  0  0  0  0  0  0  0  0  0
  180.3350   22.7830   48.0940 C   0  0  0  0  0  0  0  0  0  0  0  0
  179.2410   23.3300   48.7060 O   0  0  0  0  0  0  0  0  0  0  0  0
  180.2840   21.6020   47.3500 C   0  0  0  0  0  0  0  0  0  0  0  0
  177.9300   18.0110   45.9570 H   0  0  0  0  0  0  0  0  0  0  0  0
  181.6337   18.9659   43.4769 H   0  0  0  0  0  0  0  0  0  0  0  0
  181.9355   16.8818   42.1575 H   0  0  0  0  0  0  0  0  0  0  0  0
  181.2191   13.5619   43.3747 H   0  0  0  0  0  0  0  0  0  0  0  0
  180.0742   14.2165   42.1223 H   0  0  0  0  0  0  0  0  0  0  0  0
  178.9753   14.6354   46.1908 H   0  0  0  0  0  0  0  0  0  0  0  0
  179.3231   16.7853   46.3974 H   0  0  0  0  0  0  0  0  0  0  0  0
  183.5607   21.3850   46.4280 H   0  0  0  0  0  0  0  0  0  0  0  0
  183.6524   23.4988   47.7544 H   0  0  0  0  0  0  0  0  0  0  0  0
  181.5818   24.3930   48.8260 H   0  0  0  0  0  0  0  0  0  0  0  0
  179.1650   23.3050   49.6390 H   0  0  0  0  0  0  0  0  0  0  0  0
  1  2  2  0
  2  3  1  0
  3  4  1  0
  3  5  2  0
  5  6  1  0
  6  7  2  0
  7  8  1  0
  8  9  2  0
  9 10  1  0
 10 11  1  0
  9 12  1  0
 12 13  1  0
 13 14  1  0
 13 15  1  0
 12 16  2  0
  5 17  1  0
 17 18  1  0
 18 19  2  0
 19 20  1  0
 20 21  2  0
 21 22  1  0
 22 23  1  0
 22 24  2  0
 24  2  1  0
 16  6  1  0
 24 18  1  0
  4 25  1  0
  7 26  1  0
  8 27  1  0
 10 28  1  0
 10 29  1  0
 13 30  1  0
 16 31  1  0
 19 32  1  0
 20 33  1  0
 21 34  1  0
 23 35  1  0
M  END
>  <meeko>  (6) 
{"is_sidechain": [false], "free_energy": -7.286, "intermolecular_energy": -9.364, "internal_energy": 0.004}

$$$$
cand_019_out
     RDKit          3D

 35 37  0  0  0  0  0  0  0  0999 V2000
  180.3580   22.6470   51.8410 O   0  0  0  0  0  0  0  0  0  0  0  0
  179.6220   22.4540   50.8760 C   0  0  0  0  0  0  0  0  0  0  0  0
  178.2300   22.9620   50.8790 C   0  0  0  0  0  0  0  0  0  0  0  0
  177.8090   23.6370   52.0100 O   0  0  0  0  0  0  0  0  0  0  0  0
  177.4590   22.7270   49.8020 C   0  0  0  0  0  0  0  0  0  0  0  0
  176.0520   23.1750   49.7000 C   0  0  0  0  0  0  0  0  0  0  0  0
  175.0240   22.2960   49.3450 C   0  0  0  0  0  0  0  0  0  0  0  0
  173.6990   22.7360   49.2770 C   0  0  0  0  0  0  0  0  0  0  0  0
  173.3680   24.0680   49.5640 C   0  0  0  0  0  0  0  0  0  0  0  0
  171.9280   24.5080   49.4880 C   0  0  0  0  0  0  0  0  0  0  0  0
  171.2530   23.9060   48.4690 F   0  0  0  0  0  0  0  0  0  0  0  0
  174.3890   24.9630   49.9500 C   0  0  0  0  0  0  0  0  0  0  0  0
  174.0840   26.4040   50.2930 C   0  0  0  0  0  0  0  0  0  0  0  0
  173.8450   26.5820   51.6230 F   0  0  0  0  0  0  0  0  0  0  0  0
  175.1110   27.2540   49.9980 F   0  0  0  0  0  0  0  0  0  0  0  0
  175.7190   24.5030   50.0080 C   0  0  0  0  0  0  0  0  0  0  0  0
  177.8840   22.0230   48.6820 O   0  0  0  0  0  0  0  0  0  0  0  0
  179.1700   21.5460   48.6470 C   0  0  0  0  0  0  0  0  0  0  0  0
  179.5580   20.8540   47.4990 C   0  0  0  0  0  0  0  0  0  0  0  0
  180.8540   20.3420   47.3990 C   0  0  0  0  0  0  0  0  0  0  0  0
  181.7600   20.5200   48.4470 C   0  0  0  0  0  0  0  0  0  0  0  0
  181.3690   21.2110   49.5920 C   0  0  0  0  0  0  0  0  0  0  0  0
  182.3060   21.3490   50.5790 O   0  0  0  0  0  0  0  0  0  0  0  0
  180.0730   21.7230   49.6900 C   0  0  0  0  0  0  0  0  0  0  0  0
  177.8620   24.5720   52.0450 H   0  0  0  0  0  0  0  0  0  0  0  0
  175.2608   21.2463   49.1167 H   0  0  0  0  0  0  0  0  0  0  0  0
  172.9057   22.0282   48.9947 H   0  0  0  0  0  0  0  0  0  0  0  0
  171.4316   24.2572   50.4370 H   0  0  0  0  0  0  0  0  0  0  0  0
  171.9184   25.5921   49.3017 H   0  0  0  0  0  0  0  0  0  0  0  0
  173.1960   26.6318   49.6851 H   0  0  0  0  0  0  0  0  0  0  0  0
  176.5161   25.2017   50.3019 H   0  0  0  0  0  0  0  0  0  0  0  0
  178.8444   20.7119   46.6740 H   0  0  0  0  0  0  0  0  0  0  0  0
  181.1613   19.7980   46.4937 H   0  0  0  0  0  0  0  0  0  0  0  0
  182.7799   20.1156   48.3686 H   0  0  0  0  0  0  0  0  0  0  0  0
  182.4950   20.6300   51.1490 H   0  0  0  0  0  0  0  0  0  0  0  0
  1  2  2  0
  2  3  1  0
  3  4  1  0
  3  5  2  0
  5  6  1  0
  6  7  2  0
  7  8  1  0
  8  9  2  0
  9 10  1  0
 10 11  1  0
  9 12  1  0
 12 13  1  0
 13 14  1  0
 13 15  1  0
 12 16  2  0
  5 17  1  0
 17 18  1  0
 18 19  2  0
 19 20  1  0
 20 21  2  0
 21 22  1  0
 22 23  1  0
 22 24  2  0
 24  2  1  0
 16  6  1  0
 24 18  1  0
  4 25  1  0
  7 26  1  0
  8 27  1  0
 10 28  1  0
 10 29  1  0
 13 30  1  0
 16 31  1  0
 19 32  1  0
 20 33  1  0
 21 34  1  0
 23 35  1  0
M  END
>  <meeko>  (7) 
{"is_sidechain": [false], "free_energy": -7.243, "intermolecular_energy": -9.042, "internal_energy": -0.265}

$$$$
cand_019_out
     RDKit          3D

 35 37  0  0  0  0  0  0  0  0999 V2000
  184.4280   22.2620   50.9510 O   0  0  0  0  0  0  0  0  0  0  0  0
  183.9820   22.4280   49.8180 C   0  0  0  0  0  0  0  0  0  0  0  0
  182.6770   21.8450   49.4300 C   0  0  0  0  0  0  0  0  0  0  0  0
  182.0080   21.1060   50.3890 O   0  0  0  0  0  0  0  0  0  0  0  0
  182.2280   22.0510   48.1790 C   0  0  0  0  0  0  0  0  0  0  0  0
  180.9460   21.5070   47.6780 C   0  0  0  0  0  0  0  0  0  0  0  0
  180.8440   20.2060   47.1760 C   0  0  0  0  0  0  0  0  0  0  0  0
  179.6180   19.7060   46.7290 C   0  0  0  0  0  0  0  0  0  0  0  0
  178.4600   20.4950   46.7760 C   0  0  0  0  0  0  0  0  0  0  0  0
  177.1510   19.9220   46.2930 C   0  0  0  0  0  0  0  0  0  0  0  0
  176.4520   19.3110   47.2910 F   0  0  0  0  0  0  0  0  0  0  0  0
  178.5380   21.8010   47.3050 C   0  0  0  0  0  0  0  0  0  0  0  0
  177.3150   22.6860   47.4000 C   0  0  0  0  0  0  0  0  0  0  0  0
  176.6430   22.5190   48.5730 F   0  0  0  0  0  0  0  0  0  0  0  0
  177.6110   24.0180   47.3430 F   0  0  0  0  0  0  0  0  0  0  0  0
  179.7830   22.2900   47.7440 C   0  0  0  0  0  0  0  0  0  0  0  0
  182.9220   22.7720   47.2140 O   0  0  0  0  0  0  0  0  0  0  0  0
  184.1310   23.3300   47.5460 C   0  0  0  0  0  0  0  0  0  0  0  0
  184.7880   24.0540   46.5500 C   0  0  0  0  0  0  0  0  0  0  0  0
  186.0230   24.6470   46.8210 C   0  0  0  0  0  0  0  0  0  0  0  0
  186.6010   24.5140   48.0860 C   0  0  0  0  0  0  0  0  0  0  0  0
  185.9430   23.7900   49.0770 C   0  0  0  0  0  0  0  0  0  0  0  0
  186.5650   23.7010   50.2920 O   0  0  0  0  0  0  0  0  0  0  0  0
  184.7070   23.1980   48.8050 C   0  0  0  0  0  0  0  0  0  0  0  0
  182.3200   20.2540   50.6250 H   0  0  0  0  0  0  0  0  0  0  0  0
  181.7394   19.5685   47.1324 H   0  0  0  0  0  0  0  0  0  0  0  0
  179.5608   18.6805   46.3353 H   0  0  0  0  0  0  0  0  0  0  0  0
  176.5388   20.7377   45.8810 H   0  0  0  0  0  0  0  0  0  0  0  0
  177.3781   19.1636   45.5293 H   0  0  0  0  0  0  0  0  0  0  0  0
  176.7073   22.3802   46.5356 H   0  0  0  0  0  0  0  0  0  0  0  0
  179.8459   23.3109   48.1487 H   0  0  0  0  0  0  0  0  0  0  0  0
  184.3339   24.1574   45.5534 H   0  0  0  0  0  0  0  0  0  0  0  0
  186.5413   25.2194   46.0376 H   0  0  0  0  0  0  0  0  0  0  0  0
  187.5742   24.9804   48.2988 H   0  0  0  0  0  0  0  0  0  0  0  0
  186.8970   22.8760   50.5890 H   0  0  0  0  0  0  0  0  0  0  0  0
  1  2  2  0
  2  3  1  0
  3  4  1  0
  3  5  2  0
  5  6  1  0
  6  7  2  0
  7  8  1  0
  8  9  2  0
  9 10  1  0
 10 11  1  0
  9 12  1  0
 12 13  1  0
 13 14  1  0
 13 15  1  0
 12 16  2  0
  5 17  1  0
 17 18  1  0
 18 19  2  0
 19 20  1  0
 20 21  2  0
 21 22  1  0
 22 23  1  0
 22 24  2  0
 24  2  1  0
 16  6  1  0
 24 18  1  0
  4 25  1  0
  7 26  1  0
  8 27  1  0
 10 28  1  0
 10 29  1  0
 13 30  1  0
 16 31  1  0
 19 32  1  0
 20 33  1  0
 21 34  1  0
 23 35  1  0
M  END
>  <meeko>  (8) 
{"is_sidechain": [false], "free_energy": -7.172, "intermolecular_energy": -8.577, "internal_energy": -0.642}

$$$$
cand_019_out
     RDKit          3D

 35 37  0  0  0  0  0  0  0  0999 V2000
  176.6680   22.6350   53.2180 O   0  0  0  0  0  0  0  0  0  0  0  0
  176.4120   22.6770   52.0170 C   0  0  0  0  0  0  0  0  0  0  0  0
  177.2640   21.9600   51.0400 C   0  0  0  0  0  0  0  0  0  0  0  0
  178.3500   21.2680   51.5430 O   0  0  0  0  0  0  0  0  0  0  0  0
  176.9470   22.0350   49.7350 C   0  0  0  0  0  0  0  0  0  0  0  0
  177.7320   21.3710   48.6710 C   0  0  0  0  0  0  0  0  0  0  0  0
  177.1730   20.3890   47.8480 C   0  0  0  0  0  0  0  0  0  0  0  0
  177.9280   19.7920   46.8340 C   0  0  0  0  0  0  0  0  0  0  0  0
  179.2620   20.1640   46.6160 C   0  0  0  0  0  0  0  0  0  0  0  0
  180.0450   19.5050   45.5080 C   0  0  0  0  0  0  0  0  0  0  0  0
  180.0700   20.2560   44.3720 F   0  0  0  0  0  0  0  0  0  0  0  0
  179.8340   21.1730   47.4200 C   0  0  0  0  0  0  0  0  0  0  0  0
  181.2620   21.6290   47.2110 C   0  0  0  0  0  0  0  0  0  0  0  0
  181.4850   22.8790   47.7050 F   0  0  0  0  0  0  0  0  0  0  0  0
  182.1760   20.8290   47.8360 F   0  0  0  0  0  0  0  0  0  0  0  0
  179.0610   21.7590   48.4400 C   0  0  0  0  0  0  0  0  0  0  0  0
  175.8680   22.7570   49.2390 O   0  0  0  0  0  0  0  0  0  0  0  0
  175.0570   23.4260   50.1190 C   0  0  0  0  0  0  0  0  0  0  0  0
  173.9790   24.1300   49.5790 C   0  0  0  0  0  0  0  0  0  0  0  0
  173.1140   24.8340   50.4200 C   0  0  0  0  0  0  0  0  0  0  0  0
  173.3280   24.8340   51.8010 C   0  0  0  0  0  0  0  0  0  0  0  0
  174.4040   24.1310   52.3370 C   0  0  0  0  0  0  0  0  0  0  0  0
  174.5530   24.1750   53.6960 O   0  0  0  0  0  0  0  0  0  0  0  0
  175.2680   23.4280   51.4940 C   0  0  0  0  0  0  0  0  0  0  0  0
  178.3910   21.0580   52.4550 H   0  0  0  0  0  0  0  0  0  0  0  0
  176.1275   20.0826   47.9999 H   0  0  0  0  0  0  0  0  0  0  0  0
  177.4692   19.0201   46.1987 H   0  0  0  0  0  0  0  0  0  0  0  0
  181.0785   19.3483   45.8507 H   0  0  0  0  0  0  0  0  0  0  0  0
  179.5506   18.5519   45.2690 H   0  0  0  0  0  0  0  0  0  0  0  0
  181.3882   21.5942   46.1188 H   0  0  0  0  0  0  0  0  0  0  0  0
  179.5094   22.5401   49.0715 H   0  0  0  0  0  0  0  0  0  0  0  0
  173.8110   24.1303   48.4919 H   0  0  0  0  0  0  0  0  0  0  0  0
  172.2642   25.3885   49.9952 H   0  0  0  0  0  0  0  0  0  0  0  0
  172.6474   25.3886   52.4638 H   0  0  0  0  0  0  0  0  0  0  0  0
  174.5170   23.3850   54.1970 H   0  0  0  0  0  0  0  0  0  0  0  0
  1  2  2  0
  2  3  1  0
  3  4  1  0
  3  5  2  0
  5  6  1  0
  6  7  2  0
  7  8  1  0
  8  9  2  0
  9 10  1  0
 10 11  1  0
  9 12  1  0
 12 13  1  0
 13 14  1  0
 13 15  1  0
 12 16  2  0
  5 17  1  0
 17 18  1  0
 18 19  2  0
 19 20  1  0
 20 21  2  0
 21 22  1  0
 22 23  1  0
 22 24  2  0
 24  2  1  0
 16  6  1  0
 24 18  1  0
  4 25  1  0
  7 26  1  0
  8 27  1  0
 10 28  1  0
 10 29  1  0
 13 30  1  0
 16 31  1  0
 19 32  1  0
 20 33  1  0
 21 34  1  0
 23 35  1  0
M  END
>  <meeko>  (9) 
{"is_sidechain": [false], "free_energy": -7.158, "intermolecular_energy": -8.732, "internal_energy": -0.47}

$$$$
