cand_055_out
     RDKit          3D

 41 43  0  0  0  0  0  0  0  0999 V2000
  181.2090   15.3220   40.4430 C   0  0  0  0  0  0  0  0  0  0  0  0
  181.1800   14.4610   41.6950 C   0  0  0  0  0  0  0  0  0  0  0  0
  182.0870   15.0330   42.7870 C   0  0  0  0  0  0  0  0  0  0  0  0
  181.3510   16.0160   43.6710 C   0  0  0  0  0  0  0  0  0  0  0  0
  181.6320   17.3840   43.5250 C   0  0  0  0  0  0  0  0  0  0  0  0
  180.9920   18.3390   44.3190 C   0  0  0  0  0  0  0  0  0  0  0  0
  180.0500   17.9540   45.2770 C   0  0  0  0  0  0  0  0  0  0  0  0
  179.3760   18.9420   46.1470 C   0  0  0  0  0  0  0  0  0  0  0  0
  177.9920   18.8110   46.1410 O   0  0  0  0  0  0  0  0  0  0  0  0
  177.2410   19.6660   46.9060 C   0  0  0  0  0  0  0  0  0  0  0  0
  175.8570   19.4890   46.8810 C   0  0  0  0  0  0  0  0  0  0  0  0
  175.0340   20.3270   47.6370 C   0  0  0  0  0  0  0  0  0  0  0  0
  175.5940   21.3420   48.4150 C   0  0  0  0  0  0  0  0  0  0  0  0
  176.9760   21.5150   48.4390 C   0  0  0  0  0  0  0  0  0  0  0  0
  177.4580   22.5290   49.2210 O   0  0  0  0  0  0  0  0  0  0  0  0
  177.7990   20.6760   47.6830 C   0  0  0  0  0  0  0  0  0  0  0  0
  179.2550   20.8260   47.6790 C   0  0  0  0  0  0  0  0  0  0  0  0
  179.8220   21.6990   48.3320 O   0  0  0  0  0  0  0  0  0  0  0  0
  180.0380   19.8800   46.8490 C   0  0  0  0  0  0  0  0  0  0  0  0
  181.4120   20.0390   46.8430 O   0  0  0  0  0  0  0  0  0  0  0  0
  179.7800   16.5860   45.4330 C   0  0  0  0  0  0  0  0  0  0  0  0
  180.4210   15.6100   44.6480 C   0  0  0  0  0  0  0  0  0  0  0  0
  180.0690   14.1630   44.8590 C   0  0  0  0  0  0  0  0  0  0  0  0
  181.2448   16.3836   40.7288 H   0  0  0  0  0  0  0  0  0  0  0  0
  182.0993   15.0725   39.8470 H   0  0  0  0  0  0  0  0  0  0  0  0
  180.3040   15.1330   39.8470 H   0  0  0  0  0  0  0  0  0  0  0  0
  180.1484   14.4153   42.0741 H   0  0  0  0  0  0  0  0  0  0  0  0
  181.5444   13.4567   41.4331 H   0  0  0  0  0  0  0  0  0  0  0  0
  182.4610   14.2061   43.4085 H   0  0  0  0  0  0  0  0  0  0  0  0
  182.9157   15.5665   42.2984 H   0  0  0  0  0  0  0  0  0  0  0  0
  182.3672   17.7087   42.7740 H   0  0  0  0  0  0  0  0  0  0  0  0
  181.2319   19.4046   44.1888 H   0  0  0  0  0  0  0  0  0  0  0  0
  175.4148   18.6907   46.2668 H   0  0  0  0  0  0  0  0  0  0  0  0
  173.9431   20.1870   47.6193 H   0  0  0  0  0  0  0  0  0  0  0  0
  174.9453   22.0037   49.0078 H   0  0  0  0  0  0  0  0  0  0  0  0
  178.3790   22.6970   49.2550 H   0  0  0  0  0  0  0  0  0  0  0  0
  181.7960   20.7800   46.4180 H   0  0  0  0  0  0  0  0  0  0  0  0
  179.0474   16.2680   46.1894 H   0  0  0  0  0  0  0  0  0  0  0  0
  180.0176   13.9516   45.9373 H   0  0  0  0  0  0  0  0  0  0  0  0
  179.0933   13.9519   44.3970 H   0  0  0  0  0  0  0  0  0  0  0  0
  180.8387   13.5273   44.3970 H   0  0  0  0  0  0  0  0  0  0  0  0
  1  2  1  0
  2  3  1  0
  3  4  1  0
  4  5  2  0
  5  6  1  0
  6  7  2  0
  7  8  1  0
  8  9  1  0
  9 10  1  0
 10 11  2  0
 11 12  1  0
 12 13  2  0
 13 14  1  0
 14 15  1  0
 14 16  2  0
 16 17  1  0
 17 18  2  0
 17 19  1  0
 19 20  1  0
  7 21  1  0
 21 22  2  0
 22 23  1  0
 22  4  1  0
 19  8  2  0
 16 10  1  0
  1 24  1  0
  1 25  1  0
  1 26  1  0
  2 27  1  0
  2 28  1  0
  3 29  1  0
  3 30  1  0
  5 31  1  0
  6 32  1  0
 11 33  1  0
 12 34  1  0
 13 35  1  0
 15 36  1  0
 20 37  1  0
 21 38  1  0
 23 39  1  0
 23 40  1  0
 23 41  1  0
M  END
>  <meeko>  (1) 
{"is_sidechain": [false], "free_energy": -8.436, "intermolecular_energy": -10.409, "internal_energy": -0.232}

$$$$
cand_055_out
     RDKit          3D

 41 43  0  0  0  0  0  0  0  0999 V2000
  179.5620   19.2220   46.2200 C   0  0  0  0  0  0  0  0  0  0  0  0
  179.0280   20.5550   46.7180 C   0  0  0  0  0  0  0  0  0  0  0  0
  177.5810   20.7770   46.2740 C   0  0  0  0  0  0  0  0  0  0  0  0
  176.7190   21.2970   47.4040 C   0  0  0  0  0  0  0  0  0  0  0  0
  176.8650   22.6390   47.7910 C   0  0  0  0  0  0  0  0  0  0  0  0
  176.1050   23.1740   48.8340 C   0  0  0  0  0  0  0  0  0  0  0  0
  175.1750   22.3850   49.5150 C   0  0  0  0  0  0  0  0  0  0  0  0
  174.3740   22.9190   50.6390 C   0  0  0  0  0  0  0  0  0  0  0  0
  175.1450   23.2180   51.7560 O   0  0  0  0  0  0  0  0  0  0  0  0
  174.5280   23.7230   52.8720 C   0  0  0  0  0  0  0  0  0  0  0  0
  175.3420   24.0220   53.9660 C   0  0  0  0  0  0  0  0  0  0  0  0
  174.7770   24.5370   55.1340 C   0  0  0  0  0  0  0  0  0  0  0  0
  173.4000   24.7520   55.2100 C   0  0  0  0  0  0  0  0  0  0  0  0
  172.5900   24.4530   54.1170 C   0  0  0  0  0  0  0  0  0  0  0  0
  171.2500   24.6860   54.2590 O   0  0  0  0  0  0  0  0  0  0  0  0
  173.1560   23.9380   52.9480 C   0  0  0  0  0  0  0  0  0  0  0  0
  172.3410   23.6090   51.7770 C   0  0  0  0  0  0  0  0  0  0  0  0
  171.1220   23.7640   51.7690 O   0  0  0  0  0  0  0  0  0  0  0  0
  173.0390   23.0760   50.5840 C   0  0  0  0  0  0  0  0  0  0  0  0
  172.2570   22.7570   49.4890 O   0  0  0  0  0  0  0  0  0  0  0  0
  175.0390   21.0400   49.1390 C   0  0  0  0  0  0  0  0  0  0  0  0
  175.8020   20.4820   48.0960 C   0  0  0  0  0  0  0  0  0  0  0  0
  175.5910   19.0370   47.7350 C   0  0  0  0  0  0  0  0  0  0  0  0
  179.8172   18.5850   47.0797 H   0  0  0  0  0  0  0  0  0  0  0  0
  178.7939   18.7241   45.6099 H   0  0  0  0  0  0  0  0  0  0  0  0
  180.4614   19.3921   45.6099 H   0  0  0  0  0  0  0  0  0  0  0  0
  179.0716   20.5700   47.8170 H   0  0  0  0  0  0  0  0  0  0  0  0
  179.6481   21.3575   46.2920 H   0  0  0  0  0  0  0  0  0  0  0  0
  177.5691   21.5078   45.4520 H   0  0  0  0  0  0  0  0  0  0  0  0
  177.1711   19.8093   45.9492 H   0  0  0  0  0  0  0  0  0  0  0  0
  177.5888   23.2787   47.2649 H   0  0  0  0  0  0  0  0  0  0  0  0
  176.2403   24.2270   49.1218 H   0  0  0  0  0  0  0  0  0  0  0  0
  176.4272   23.8520   53.9077 H   0  0  0  0  0  0  0  0  0  0  0  0
  175.4181   24.7738   55.9959 H   0  0  0  0  0  0  0  0  0  0  0  0
  172.9554   25.1567   56.1311 H   0  0  0  0  0  0  0  0  0  0  0  0
  170.8820   25.4990   53.9710 H   0  0  0  0  0  0  0  0  0  0  0  0
  171.8840   23.4390   48.9660 H   0  0  0  0  0  0  0  0  0  0  0  0
  174.3171   20.4049   49.6734 H   0  0  0  0  0  0  0  0  0  0  0  0
  175.5036   18.4385   48.6538 H   0  0  0  0  0  0  0  0  0  0  0  0
  174.6688   18.9377   47.1436 H   0  0  0  0  0  0  0  0  0  0  0  0
  176.4463   18.6781   47.1436 H   0  0  0  0  0  0  0  0  0  0  0  0
  1  2  1  0
  2  3  1  0
  3  4  1  0
  4  5  2  0
  5  6  1  0
  6  7  2  0
  7  8  1  0
  8  9  1  0
  9 10  1  0
 10 11  2  0
 11 12  1  0
 12 13  2  0
 13 14  1  0
 14 15  1  0
 14 16  2  0
 16 17  1  0
 17 18  2  0
 17 19  1  0
 19 20  1  0
  7 21  1  0
 21 22  2  0
 22 23  1  0
 22  4  1  0
 19  8  2  0
 16 10  1  0
  1 24  1  0
  1 25  1  0
  1 26  1  0
  2 27  1  0
  2 28  1  0
  3 29  1  0
  3 30  1  0
  5 31  1  0
  6 32  1  0
 11 33  1  0
 12 34  1  0
 13 35  1  0
 15 36  1  0
 20 37  1  0
 21 38  1  0
 23 39  1  0
 23 40  1  0
 23 41  1  0
M  END
>  <meeko>  (2) 
{"is_sidechain": [false], "free_energy": -7.576, "intermolecular_energy": -9.052, "internal_energy": -0.527}

$$$$
cand_055_out
     RDKit          3D

 41 43  0  0  0  0  0  0  0  0999 V2000
  175.5420   19.6300   48.8080 C   0  0  0  0  0  0  0  0  0  0  0  0
  175.8470   19.2550   47.3670 C   0  0  0  0  0  0  0  0  0  0  0  0
  176.3470   20.4620   46.5700 C   0  0  0  0  0  0  0  0  0  0  0  0
  177.7160   20.9120   47.0290 C   0  0  0  0  0  0  0  0  0  0  0  0
  178.7970   20.0300   46.8690 C   0  0  0  0  0  0  0  0  0  0  0  0
  180.0830   20.3850   47.2830 C   0  0  0  0  0  0  0  0  0  0  0  0
  180.3260   21.6320   47.8630 C   0  0  0  0  0  0  0  0  0  0  0  0
  181.6730   22.0240   48.3320 C   0  0  0  0  0  0  0  0  0  0  0  0
  182.4830   22.5030   47.3080 O   0  0  0  0  0  0  0  0  0  0  0  0
  183.7600   22.9030   47.6040 C   0  0  0  0  0  0  0  0  0  0  0  0
  184.5330   23.3900   46.5490 C   0  0  0  0  0  0  0  0  0  0  0  0
  185.8440   23.8120   46.7820 C   0  0  0  0  0  0  0  0  0  0  0  0
  186.3820   23.7450   48.0690 C   0  0  0  0  0  0  0  0  0  0  0  0
  185.6090   23.2590   49.1200 C   0  0  0  0  0  0  0  0  0  0  0  0
  186.1990   23.2200   50.3530 O   0  0  0  0  0  0  0  0  0  0  0  0
  184.2970   22.8370   48.8860 C   0  0  0  0  0  0  0  0  0  0  0  0
  183.4510   22.3190   49.9620 C   0  0  0  0  0  0  0  0  0  0  0  0
  183.8560   22.2230   51.1190 O   0  0  0  0  0  0  0  0  0  0  0  0
  182.0730   21.9050   49.6110 C   0  0  0  0  0  0  0  0  0  0  0  0
  181.2870   21.4060   50.6340 O   0  0  0  0  0  0  0  0  0  0  0  0
  179.2440   22.5080   48.0370 C   0  0  0  0  0  0  0  0  0  0  0  0
  177.9400   22.1650   47.6340 C   0  0  0  0  0  0  0  0  0  0  0  0
  176.8320   23.1610   47.8350 C   0  0  0  0  0  0  0  0  0  0  0  0
  176.0888   18.9577   49.4854 H   0  0  0  0  0  0  0  0  0  0  0  0
  175.8550   20.6686   48.9907 H   0  0  0  0  0  0  0  0  0  0  0  0
  174.4614   19.5352   48.9907 H   0  0  0  0  0  0  0  0  0  0  0  0
  176.6212   18.4736   47.3567 H   0  0  0  0  0  0  0  0  0  0  0  0
  174.9197   18.8917   46.9000 H   0  0  0  0  0  0  0  0  0  0  0  0
  176.4007   20.1883   45.5060 H   0  0  0  0  0  0  0  0  0  0  0  0
  175.6433   21.2921   46.7304 H   0  0  0  0  0  0  0  0  0  0  0  0
  178.6284   19.0444   46.4106 H   0  0  0  0  0  0  0  0  0  0  0  0
  180.9128   19.6751   47.1508 H   0  0  0  0  0  0  0  0  0  0  0  0
  184.1102   23.4415   45.5348 H   0  0  0  0  0  0  0  0  0  0  0  0
  186.4531   24.1974   45.9511 H   0  0  0  0  0  0  0  0  0  0  0  0
  187.4150   24.0757   48.2521 H   0  0  0  0  0  0  0  0  0  0  0  0
  186.6520   23.9720   50.6800 H   0  0  0  0  0  0  0  0  0  0  0  0
  181.4610   20.5550   50.9850 H   0  0  0  0  0  0  0  0  0  0  0  0
  179.4197   23.4897   48.5011 H   0  0  0  0  0  0  0  0  0  0  0  0
  176.6649   23.3112   48.9118 H   0  0  0  0  0  0  0  0  0  0  0  0
  177.1106   24.1182   47.3701 H   0  0  0  0  0  0  0  0  0  0  0  0
  175.9098   22.7823   47.3701 H   0  0  0  0  0  0  0  0  0  0  0  0
  1  2  1  0
  2  3  1  0
  3  4  1  0
  4  5  2  0
  5  6  1  0
  6  7  2  0
  7  8  1  0
  8  9  1  0
  9 10  1  0
 10 11  2  0
 11 12  1  0
 12 13  2  0
 13 14  1  0
 14 15  1  0
 14 16  2  0
 16 17  1  0
 17 18  2  0
 17 19  1  0
 19 20  1  0
  7 21  1  0
 21 22  2  0
 22 23  1  0
 22  4  1  0
 19  8  2  0
 16 10  1  0
  1 24  1  0
  1 25  1  0
  1 26  1  0
  2 27  1  0
  2 28  1  0
  3 29  1  0
  3 30  1  0
  5 31  1  0
  6 32  1  0
 11 33  1  0
 12 34  1  0
 13 35  1  0
 15 36  1  0
 20 37  1  0
 21 38  1  0
 23 39  1  0
 23 40  1  0
 23 41  1  0
M  END
>  <meeko>  (3) 
{"is_sidechain": [false], "free_energy": -7.513, "intermolecular_energy": -8.773, "internal_energy": -0.728}

$$$$
cand_055_out
     RDKit          3D

 41 43  0  0  0  0  0  0  0  0999 V2000
  181.3570   15.3610   39.9350 C   0  0  0  0  0  0  0  0  0  0  0  0
  180.5300   14.7630   41.0620 C   0  0  0  0  0  0  0  0  0  0  0  0
  181.3520   14.6280   42.3460 C   0  0  0  0  0  0  0  0  0  0  0  0
  181.0150   15.7120   43.3450 C   0  0  0  0  0  0  0  0  0  0  0  0
  181.4330   17.0250   43.0720 C   0  0  0  0  0  0  0  0  0  0  0  0
  181.1610   18.0670   43.9620 C   0  0  0  0  0  0  0  0  0  0  0  0
  180.4590   17.8280   45.1460 C   0  0  0  0  0  0  0  0  0  0  0  0
  180.1780   18.9080   46.1170 C   0  0  0  0  0  0  0  0  0  0  0  0
  181.3290   19.4070   46.7170 O   0  0  0  0  0  0  0  0  0  0  0  0
  181.2120   20.4140   47.6390 C   0  0  0  0  0  0  0  0  0  0  0  0
  182.3940   20.8950   48.2060 C   0  0  0  0  0  0  0  0  0  0  0  0
  182.3460   21.9200   49.1540 C   0  0  0  0  0  0  0  0  0  0  0  0
  181.1170   22.4630   49.5360 C   0  0  0  0  0  0  0  0  0  0  0  0
  179.9400   21.9820   48.9680 C   0  0  0  0  0  0  0  0  0  0  0  0
  178.7720   22.5570   49.3880 O   0  0  0  0  0  0  0  0  0  0  0  0
  179.9890   20.9570   48.0190 C   0  0  0  0  0  0  0  0  0  0  0  0
  178.7750   20.4220   47.4000 C   0  0  0  0  0  0  0  0  0  0  0  0
  177.6570   20.8440   47.6880 O   0  0  0  0  0  0  0  0  0  0  0  0
  178.9360   19.3410   46.4000 C   0  0  0  0  0  0  0  0  0  0  0  0
  177.7810   18.8350   45.8300 O   0  0  0  0  0  0  0  0  0  0  0  0
  180.0540   16.5140   45.4270 C   0  0  0  0  0  0  0  0  0  0  0  0
  180.3270   15.4500   44.5460 C   0  0  0  0  0  0  0  0  0  0  0  0
  179.8470   14.0710   44.9040 C   0  0  0  0  0  0  0  0  0  0  0  0
  182.1794   15.9557   40.3593 H   0  0  0  0  0  0  0  0  0  0  0  0
  181.7712   14.5522   39.3151 H   0  0  0  0  0  0  0  0  0  0  0  0
  180.7187   16.0078   39.3151 H   0  0  0  0  0  0  0  0  0  0  0  0
  179.6659   15.4152   41.2570 H   0  0  0  0  0  0  0  0  0  0  0  0
  180.1999   13.7597   40.7548 H   0  0  0  0  0  0  0  0  0  0  0  0
  181.1443   13.6480   42.8004 H   0  0  0  0  0  0  0  0  0  0  0  0
  182.4157   14.7243   42.0828 H   0  0  0  0  0  0  0  0  0  0  0  0
  181.9830   17.2360   42.1431 H   0  0  0  0  0  0  0  0  0  0  0  0
  181.5030   19.0860   43.7281 H   0  0  0  0  0  0  0  0  0  0  0  0
  183.3621   20.4672   47.9064 H   0  0  0  0  0  0  0  0  0  0  0  0
  183.2770   22.2999   49.6001 H   0  0  0  0  0  0  0  0  0  0  0  0
  181.0790   23.2688   50.2838 H   0  0  0  0  0  0  0  0  0  0  0  0
  178.6900   23.4910   49.4080 H   0  0  0  0  0  0  0  0  0  0  0  0
  177.0010   19.3530   45.8160 H   0  0  0  0  0  0  0  0  0  0  0  0
  179.5088   16.3098   46.3603 H   0  0  0  0  0  0  0  0  0  0  0  0
  179.8111   13.9679   45.9986 H   0  0  0  0  0  0  0  0  0  0  0  0
  178.8411   13.9133   44.4877 H   0  0  0  0  0  0  0  0  0  0  0  0
  180.5376   13.3228   44.4877 H   0  0  0  0  0  0  0  0  0  0  0  0
  1  2  1  0
  2  3  1  0
  3  4  1  0
  4  5  2  0
  5  6  1  0
  6  7  2  0
  7  8  1  0
  8  9  1  0
  9 10  1  0
 10 11  2  0
 11 12  1  0
 12 13  2  0
 13 14  1  0
 14 15  1  0
 14 16  2  0
 16 17  1  0
 17 18  2  0
 17 19  1  0
 19 20  1  0
  7 21  1  0
 21 22  2  0
 22 23  1  0
 22  4  1  0
 19  8  2  0
 16 10  1  0
  1 24  1  0
  1 25  1  0
  1 26  1  0
  2 27  1  0
  2 28  1  0
  3 29  1  0
  3 30  1  0
  5 31  1  0
  6 32  1  0
 11 33  1  0
 12 34  1  0
 13 35  1  0
 15 36  1  0
 20 37  1  0
 21 38  1  0
 23 39  1  0
 23 40  1  0
 23 41  1  0
M  END
>  <meeko>  (4) 
{"is_sidechain": [false], "free_energy": -7.453, "intermolecular_energy": -8.97, "internal_energy": -0.458}

$$$$
cand_055_out
     RDKit          3D

 41 43  0  0  0  0  0  0  0  0999 V2000
  180.8270   18.1280   44.7700 C   0  0  0  0  0  0  0  0  0  0  0  0
  180.7350   19.2760   45.7620 C   0  0  0  0  0  0  0  0  0  0  0  0
  179.7370   20.3370   45.2960 C   0  0  0  0  0  0  0  0  0  0  0  0
  178.9340   20.8990   46.4480 C   0  0  0  0  0  0  0  0  0  0  0  0
  179.4270   22.0320   47.1150 C   0  0  0  0  0  0  0  0  0  0  0  0
  178.7360   22.5910   48.1930 C   0  0  0  0  0  0  0  0  0  0  0  0
  177.5300   22.0370   48.6300 C   0  0  0  0  0  0  0  0  0  0  0  0
  176.7900   22.5940   49.7840 C   0  0  0  0  0  0  0  0  0  0  0  0
  175.7300   23.4090   49.4020 O   0  0  0  0  0  0  0  0  0  0  0  0
  174.9580   23.9910   50.3740 C   0  0  0  0  0  0  0  0  0  0  0  0
  173.8960   24.7900   49.9460 C   0  0  0  0  0  0  0  0  0  0  0  0
  173.0720   25.4140   50.8840 C   0  0  0  0  0  0  0  0  0  0  0  0
  173.3090   25.2420   52.2500 C   0  0  0  0  0  0  0  0  0  0  0  0
  174.3690   24.4440   52.6740 C   0  0  0  0  0  0  0  0  0  0  0  0
  174.5460   24.3190   54.0240 O   0  0  0  0  0  0  0  0  0  0  0  0
  175.1930   23.8190   51.7340 C   0  0  0  0  0  0  0  0  0  0  0  0
  176.3180   22.9740   52.1380 C   0  0  0  0  0  0  0  0  0  0  0  0
  176.5950   22.7790   53.3190 O   0  0  0  0  0  0  0  0  0  0  0  0
  177.1260   22.3500   51.0640 C   0  0  0  0  0  0  0  0  0  0  0  0
  178.1940   21.5640   51.4570 O   0  0  0  0  0  0  0  0  0  0  0  0
  177.0440   20.8950   47.9740 C   0  0  0  0  0  0  0  0  0  0  0  0
  177.7310   20.3140   46.8920 C   0  0  0  0  0  0  0  0  0  0  0  0
  177.1420   19.1020   46.2250 C   0  0  0  0  0  0  0  0  0  0  0  0
  180.9033   17.1764   45.3165 H   0  0  0  0  0  0  0  0  0  0  0  0
  179.9269   18.1167   44.1378 H   0  0  0  0  0  0  0  0  0  0  0  0
  181.7174   18.2602   44.1378 H   0  0  0  0  0  0  0  0  0  0  0  0
  180.4099   18.8821   46.7362 H   0  0  0  0  0  0  0  0  0  0  0  0
  181.7268   19.7449   45.8421 H   0  0  0  0  0  0  0  0  0  0  0  0
  180.2889   21.1571   44.8134 H   0  0  0  0  0  0  0  0  0  0  0  0
  179.0378   19.8622   44.5920 H   0  0  0  0  0  0  0  0  0  0  0  0
  180.3722   22.4867   46.7836 H   0  0  0  0  0  0  0  0  0  0  0  0
  179.1453   23.4757   48.7026 H   0  0  0  0  0  0  0  0  0  0  0  0
  173.7089   24.9276   48.8708 H   0  0  0  0  0  0  0  0  0  0  0  0
  172.2344   26.0424   50.5470 H   0  0  0  0  0  0  0  0  0  0  0  0
  172.6603   25.7354   52.9887 H   0  0  0  0  0  0  0  0  0  0  0  0
  174.2180   23.5640   54.4720 H   0  0  0  0  0  0  0  0  0  0  0  0
  178.3090   21.3490   52.3620 H   0  0  0  0  0  0  0  0  0  0  0  0
  176.1012   20.4423   48.3148 H   0  0  0  0  0  0  0  0  0  0  0  0
  176.7973   18.3927   46.9918 H   0  0  0  0  0  0  0  0  0  0  0  0
  176.2911   19.4059   45.5976 H   0  0  0  0  0  0  0  0  0  0  0  0
  177.9067   18.6208   45.5976 H   0  0  0  0  0  0  0  0  0  0  0  0
  1  2  1  0
  2  3  1  0
  3  4  1  0
  4  5  2  0
  5  6  1  0
  6  7  2  0
  7  8  1  0
  8  9  1  0
  9 10  1  0
 10 11  2  0
 11 12  1  0
 12 13  2  0
 13 14  1  0
 14 15  1  0
 14 16  2  0
 16 17  1  0
 17 18  2  0
 17 19  1  0
 19 20  1  0
  7 21  1  0
 21 22  2  0
 22 23  1  0
 22  4  1  0
 19  8  2  0
 16 10  1  0
  1 24  1  0
  1 25  1  0
  1 26  1  0
  2 27  1  0
  2 28  1  0
  3 29  1  0
  3 30  1  0
  5 31  1  0
  6 32  1  0
 11 33  1  0
 12 34  1  0
 13 35  1  0
 15 36  1  0
 20 37  1  0
 21 38  1  0
 23 39  1  0
 23 40  1  0
 23 41  1  0
M  END
>  <meeko>  (5) 
{"is_sidechain": [false], "free_energy": -7.292, "intermolecular_energy": -8.646, "internal_energy": -0.583}

$$$$
cand_055_out
     RDKit          3D

 41 43  0  0  0  0  0  0  0  0999 V2000
  171.4010   26.0260   49.4220 C   0  0  0  0  0  0  0  0  0  0  0  0
  171.9280   24.6390   49.0910 C   0  0  0  0  0  0  0  0  0  0  0  0
  172.6590   24.0200   50.2830 C   0  0  0  0  0  0  0  0  0  0  0  0
  174.0560   23.5710   49.9160 C   0  0  0  0  0  0  0  0  0  0  0  0
  174.2540   22.2240   49.5680 C   0  0  0  0  0  0  0  0  0  0  0  0
  175.5220   21.7470   49.2280 C   0  0  0  0  0  0  0  0  0  0  0  0
  176.6270   22.6030   49.2210 C   0  0  0  0  0  0  0  0  0  0  0  0
  177.9850   22.1200   48.8890 C   0  0  0  0  0  0  0  0  0  0  0  0
  178.0790   21.6240   47.5930 O   0  0  0  0  0  0  0  0  0  0  0  0
  179.2850   21.1430   47.1530 C   0  0  0  0  0  0  0  0  0  0  0  0
  179.3380   20.6690   45.8410 C   0  0  0  0  0  0  0  0  0  0  0  0
  180.5350   20.1630   45.3310 C   0  0  0  0  0  0  0  0  0  0  0  0
  181.6790   20.1290   46.1320 C   0  0  0  0  0  0  0  0  0  0  0  0
  181.6230   20.6030   47.4400 C   0  0  0  0  0  0  0  0  0  0  0  0
  182.7790   20.5400   48.1700 O   0  0  0  0  0  0  0  0  0  0  0  0
  180.4240   21.1100   47.9500 C   0  0  0  0  0  0  0  0  0  0  0  0
  180.3230   21.6170   49.3200 C   0  0  0  0  0  0  0  0  0  0  0  0
  181.2830   21.6150   50.0870 O   0  0  0  0  0  0  0  0  0  0  0  0
  179.0090   22.1400   49.7610 C   0  0  0  0  0  0  0  0  0  0  0  0
  178.9220   22.6050   51.0610 O   0  0  0  0  0  0  0  0  0  0  0  0
  176.4330   23.9450   49.5830 C   0  0  0  0  0  0  0  0  0  0  0  0
  175.1630   24.4410   49.9360 C   0  0  0  0  0  0  0  0  0  0  0  0
  175.0260   25.8940   50.2960 C   0  0  0  0  0  0  0  0  0  0  0  0
  171.3541   26.1494   50.5140 H   0  0  0  0  0  0  0  0  0  0  0  0
  172.0734   26.7851   48.9957 H   0  0  0  0  0  0  0  0  0  0  0  0
  170.3942   26.1471   48.9957 H   0  0  0  0  0  0  0  0  0  0  0  0
  171.0827   23.9917   48.8143 H   0  0  0  0  0  0  0  0  0  0  0  0
  172.6401   24.7294   48.2575 H   0  0  0  0  0  0  0  0  0  0  0  0
  172.7254   24.7678   51.0870 H   0  0  0  0  0  0  0  0  0  0  0  0
  172.0914   23.1362   50.6098 H   0  0  0  0  0  0  0  0  0  0  0  0
  173.3970   21.5344   49.5633 H   0  0  0  0  0  0  0  0  0  0  0  0
  175.6523   20.6873   48.9632 H   0  0  0  0  0  0  0  0  0  0  0  0
  178.4375   20.6942   45.2097 H   0  0  0  0  0  0  0  0  0  0  0  0
  180.5774   19.7905   44.2969 H   0  0  0  0  0  0  0  0  0  0  0  0
  182.6216   19.7288   45.7304 H   0  0  0  0  0  0  0  0  0  0  0  0
  182.8300   19.9790   48.9190 H   0  0  0  0  0  0  0  0  0  0  0  0
  179.7010   22.7300   51.5660 H   0  0  0  0  0  0  0  0  0  0  0  0
  177.2956   24.6275   49.5912 H   0  0  0  0  0  0  0  0  0  0  0  0
  175.0159   26.0011   51.3907 H   0  0  0  0  0  0  0  0  0  0  0  0
  175.8751   26.4564   49.8804 H   0  0  0  0  0  0  0  0  0  0  0  0
  174.0867   26.2878   49.8804 H   0  0  0  0  0  0  0  0  0  0  0  0
  1  2  1  0
  2  3  1  0
  3  4  1  0
  4  5  2  0
  5  6  1  0
  6  7  2  0
  7  8  1  0
  8  9  1  0
  9 10  1  0
 10 11  2  0
 11 12  1  0
 12 13  2  0
 13 14  1  0
 14 15  1  0
 14 16  2  0
 16 17  1  0
 17 18  2  0
 17 19  1  0
 19 20  1  0
  7 21  1  0
 21 22  2  0
 22 23  1  0
 22  4  1  0
 19  8  2  0
 16 10  1  0
  1 24  1  0
  1 25  1  0
  1 26  1  0
  2 27  1  0
  2 28  1  0
  3 29  1  0
  3 30  1  0
  5 31  1  0
  6 32  1  0
 11 33  1  0
 12 34  1  0
 13 35  1  0
 15 36  1  0
 20 37  1  0
 21 38  1  0
 23 39  1  0
 23 40  1  0
 23 41  1  0
M  END
>  <meeko>  (6) 
{"is_sidechain": [false], "free_energy": -7.191, "intermolecular_energy": -8.68, "internal_energy": -0.425}

$$$$
cand_055_out
     RDKit          3D

 41 43  0  0  0  0  0  0  0  0999 V2000
  180.3920   20.2720   45.4220 C   0  0  0  0  0  0  0  0  0  0  0  0
  179.4700   19.8530   46.5550 C   0  0  0  0  0  0  0  0  0  0  0  0
  178.0060   19.8510   46.1110 C   0  0  0  0  0  0  0  0  0  0  0  0
  177.1310   20.6450   47.0560 C   0  0  0  0  0  0  0  0  0  0  0  0
  177.5050   21.9640   47.3620 C   0  0  0  0  0  0  0  0  0  0  0  0
  176.7430   22.7430   48.2350 C   0  0  0  0  0  0  0  0  0  0  0  0
  175.5840   22.2290   48.8230 C   0  0  0  0  0  0  0  0  0  0  0  0
  174.7720   23.0250   49.7690 C   0  0  0  0  0  0  0  0  0  0  0  0
  173.7650   23.7490   49.1410 O   0  0  0  0  0  0  0  0  0  0  0  0
  172.9360   24.5310   49.9030 C   0  0  0  0  0  0  0  0  0  0  0  0
  171.9300   25.2290   49.2320 C   0  0  0  0  0  0  0  0  0  0  0  0
  171.0520   26.0450   49.9490 C   0  0  0  0  0  0  0  0  0  0  0  0
  171.1800   26.1650   51.3340 C   0  0  0  0  0  0  0  0  0  0  0  0
  172.1840   25.4670   52.0000 C   0  0  0  0  0  0  0  0  0  0  0  0
  172.2540   25.6300   53.3570 O   0  0  0  0  0  0  0  0  0  0  0  0
  173.0620   24.6490   51.2830 C   0  0  0  0  0  0  0  0  0  0  0  0
  174.1310   23.9000   51.9450 C   0  0  0  0  0  0  0  0  0  0  0  0
  174.3120   23.9590   53.1590 O   0  0  0  0  0  0  0  0  0  0  0  0
  175.0040   23.0560   51.0950 C   0  0  0  0  0  0  0  0  0  0  0  0
  176.0180   22.3630   51.7290 O   0  0  0  0  0  0  0  0  0  0  0  0
  175.2180   20.9070   48.5290 C   0  0  0  0  0  0  0  0  0  0  0  0
  175.9780   20.1040   47.6580 C   0  0  0  0  0  0  0  0  0  0  0  0
  175.5170   18.7010   47.3750 C   0  0  0  0  0  0  0  0  0  0  0  0
  181.3184   20.6930   45.8398 H   0  0  0  0  0  0  0  0  0  0  0  0
  180.6341   19.3955   44.8031 H   0  0  0  0  0  0  0  0  0  0  0  0
  179.8909   21.0308   44.8031 H   0  0  0  0  0  0  0  0  0  0  0  0
  179.7454   18.8404   46.8848 H   0  0  0  0  0  0  0  0  0  0  0  0
  179.5816   20.5750   47.3774 H   0  0  0  0  0  0  0  0  0  0  0  0
  177.9381   20.2936   45.1063 H   0  0  0  0  0  0  0  0  0  0  0  0
  177.6507   18.8100   46.1094 H   0  0  0  0  0  0  0  0  0  0  0  0
  178.4117   22.3895   46.9071 H   0  0  0  0  0  0  0  0  0  0  0  0
  177.0582   23.7721   48.4623 H   0  0  0  0  0  0  0  0  0  0  0  0
  171.8291   25.1364   48.1406 H   0  0  0  0  0  0  0  0  0  0  0  0
  170.2582   26.5941   49.4214 H   0  0  0  0  0  0  0  0  0  0  0  0
  170.4894   26.8094   51.8978 H   0  0  0  0  0  0  0  0  0  0  0  0
  171.4740   25.7890   53.8510 H   0  0  0  0  0  0  0  0  0  0  0  0
  176.7360   22.8280   52.1100 H   0  0  0  0  0  0  0  0  0  0  0  0
  174.3128   20.4867   48.9916 H   0  0  0  0  0  0  0  0  0  0  0  0
  175.3437   18.1735   48.3245 H   0  0  0  0  0  0  0  0  0  0  0  0
  174.5818   18.7320   46.7967 H   0  0  0  0  0  0  0  0  0  0  0  0
  176.2883   18.1712   46.7967 H   0  0  0  0  0  0  0  0  0  0  0  0
  1  2  1  0
  2  3  1  0
  3  4  1  0
  4  5  2  0
  5  6  1  0
  6  7  2  0
  7  8  1  0
  8  9  1  0
  9 10  1  0
 10 11  2  0
 11 12  1  0
 12 13  2  0
 13 14  1  0
 14 15  1  0
 14 16  2  0
 16 17  1  0
 17 18  2  0
 17 19  1  0
 19 20  1  0
  7 21  1  0
 21 22  2  0
 22 23  1  0
 22  4  1  0
 19  8  2  0
 16 10  1  0
  1 24  1  0
  1 25  1  0
  1 26  1  0
  2 27  1  0
  2 28  1  0
  3 29  1  0
  3 30  1  0
  5 31  1  0
  6 32  1  0
 11 33  1  0
 12 34  1  0
 13 35  1  0
 15 36  1  0
 20 37  1  0
 21 38  1  0
 23 39  1  0
 23 40  1  0
 23 41  1  0
M  END
>  <meeko>  (7) 
{"is_sidechain": [false], "free_energy": -7.187, "intermolecular_energy": -8.514, "internal_energy": -0.585}

$$$$
cand_055_out
     RDKit          3D

 41 43  0  0  0  0  0  0  0  0999 V2000
  184.5230   24.8870   44.2460 C   0  0  0  0  0  0  0  0  0  0  0  0
  184.7960   23.5450   44.9070 C   0  0  0  0  0  0  0  0  0  0  0  0
  184.7590   23.6560   46.4320 C   0  0  0  0  0  0  0  0  0  0  0  0
  183.4130   23.2510   46.9930 C   0  0  0  0  0  0  0  0  0  0  0  0
  182.9810   21.9280   46.8000 C   0  0  0  0  0  0  0  0  0  0  0  0
  181.7450   21.4970   47.2860 C   0  0  0  0  0  0  0  0  0  0  0  0
  180.9080   22.3730   47.9820 C   0  0  0  0  0  0  0  0  0  0  0  0
  179.5830   21.9490   48.4860 C   0  0  0  0  0  0  0  0  0  0  0  0
  178.6790   21.6760   47.4650 O   0  0  0  0  0  0  0  0  0  0  0  0
  177.4110   21.2720   47.7930 C   0  0  0  0  0  0  0  0  0  0  0  0
  176.5410   20.9950   46.7370 C   0  0  0  0  0  0  0  0  0  0  0  0
  175.2340   20.5800   47.0010 C   0  0  0  0  0  0  0  0  0  0  0  0
  174.7960   20.4440   48.3200 C   0  0  0  0  0  0  0  0  0  0  0  0
  175.6660   20.7200   49.3720 C   0  0  0  0  0  0  0  0  0  0  0  0
  175.1730   20.5670   50.6380 O   0  0  0  0  0  0  0  0  0  0  0  0
  176.9740   21.1350   49.1060 C   0  0  0  0  0  0  0  0  0  0  0  0
  177.9200   21.4360   50.1830 C   0  0  0  0  0  0  0  0  0  0  0  0
  177.6080   21.3460   51.3680 O   0  0  0  0  0  0  0  0  0  0  0  0
  179.2860   21.8610   49.7950 C   0  0  0  0  0  0  0  0  0  0  0  0
  180.1660   22.1550   50.8200 O   0  0  0  0  0  0  0  0  0  0  0  0
  181.3320   23.6980   48.1620 C   0  0  0  0  0  0  0  0  0  0  0  0
  182.5710   24.1530   47.6730 C   0  0  0  0  0  0  0  0  0  0  0  0
  182.9680   25.5820   47.9180 C   0  0  0  0  0  0  0  0  0  0  0  0
  184.3673   25.6523   45.0206 H   0  0  0  0  0  0  0  0  0  0  0  0
  185.3822   25.1688   43.6196 H   0  0  0  0  0  0  0  0  0  0  0  0
  183.6220   24.8107   43.6196 H   0  0  0  0  0  0  0  0  0  0  0  0
  184.0315   22.8239   44.5820 H   0  0  0  0  0  0  0  0  0  0  0  0
  185.8004   23.2102   44.6086 H   0  0  0  0  0  0  0  0  0  0  0  0
  185.5333   22.9995   46.8556 H   0  0  0  0  0  0  0  0  0  0  0  0
  184.9398   24.7067   46.7026 H   0  0  0  0  0  0  0  0  0  0  0  0
  183.6263   21.2211   46.2578 H   0  0  0  0  0  0  0  0  0  0  0  0
  181.4270   20.4573   47.1192 H   0  0  0  0  0  0  0  0  0  0  0  0
  176.8847   21.1035   45.6977 H   0  0  0  0  0  0  0  0  0  0  0  0
  174.5488   20.3600   46.1691 H   0  0  0  0  0  0  0  0  0  0  0  0
  173.7657   20.1195   48.5277 H   0  0  0  0  0  0  0  0  0  0  0  0
  175.7270   20.2450   51.3220 H   0  0  0  0  0  0  0  0  0  0  0  0
  179.8710   22.1420   51.7090 H   0  0  0  0  0  0  0  0  0  0  0  0
  180.6785   24.4005   48.6999 H   0  0  0  0  0  0  0  0  0  0  0  0
  183.0196   25.7677   49.0010 H   0  0  0  0  0  0  0  0  0  0  0  0
  183.9528   25.7716   47.4661 H   0  0  0  0  0  0  0  0  0  0  0  0
  182.2221   26.2524   47.4661 H   0  0  0  0  0  0  0  0  0  0  0  0
  1  2  1  0
  2  3  1  0
  3  4  1  0
  4  5  2  0
  5  6  1  0
  6  7  2  0
  7  8  1  0
  8  9  1  0
  9 10  1  0
 10 11  2  0
 11 12  1  0
 12 13  2  0
 13 14  1  0
 14 15  1  0
 14 16  2  0
 16 17  1  0
 17 18  2  0
 17 19  1  0
 19 20  1  0
  7 21  1  0
 21 22  2  0
 22 23  1  0
 22  4  1  0
 19  8  2  0
 16 10  1  0
  1 24  1  0
  1 25  1  0
  1 26  1  0
  2 27  1  0
  2 28  1  0
  3 29  1  0
  3 30  1  0
  5 31  1  0
  6 32  1  0
 11 33  1  0
 12 34  1  0
 13 35  1  0
 15 36  1  0
 20 37  1  0
 21 38  1  0
 23 39  1  0
 23 40  1  0
 23 41  1  0
M  END
>  <meeko>  (8) 
{"is_sidechain": [false], "free_energy": -7.18, "intermolecular_energy": -8.502, "internal_energy": -0.589}

$$$$
cand_055_out
     RDKit          3D

 41 43  0  0  0  0  0  0  0  0999 V2000
  175.5290   18.3440   47.0080 C   0  0  0  0  0  0  0  0  0  0  0  0
  176.5500   19.2530   46.3430 C   0  0  0  0  0  0  0  0  0  0  0  0
  176.3230   20.7180   46.7220 C   0  0  0  0  0  0  0  0  0  0  0  0
  177.4580   21.2630   47.5610 C   0  0  0  0  0  0  0  0  0  0  0  0
  178.6300   21.6800   46.9070 C   0  0  0  0  0  0  0  0  0  0  0  0
  179.7160   22.1840   47.6280 C   0  0  0  0  0  0  0  0  0  0  0  0
  179.6590   22.2900   49.0200 C   0  0  0  0  0  0  0  0  0  0  0  0
  180.8030   22.7970   49.8090 C   0  0  0  0  0  0  0  0  0  0  0  0
  180.7120   24.1580   50.0780 O   0  0  0  0  0  0  0  0  0  0  0  0
  181.7080   24.7590   50.8030 C   0  0  0  0  0  0  0  0  0  0  0  0
  181.5690   26.1240   51.0630 C   0  0  0  0  0  0  0  0  0  0  0  0
  182.5490   26.7970   51.7950 C   0  0  0  0  0  0  0  0  0  0  0  0
  183.6680   26.1080   52.2660 C   0  0  0  0  0  0  0  0  0  0  0  0
  183.8040   24.7460   52.0070 C   0  0  0  0  0  0  0  0  0  0  0  0
  184.9250   24.1330   52.4960 O   0  0  0  0  0  0  0  0  0  0  0  0
  182.8230   24.0730   51.2740 C   0  0  0  0  0  0  0  0  0  0  0  0
  182.9280   22.6430   50.9790 C   0  0  0  0  0  0  0  0  0  0  0  0
  183.8850   21.9690   51.3540 O   0  0  0  0  0  0  0  0  0  0  0  0
  181.8300   22.0210   50.2020 C   0  0  0  0  0  0  0  0  0  0  0  0
  181.9460   20.6730   49.9180 O   0  0  0  0  0  0  0  0  0  0  0  0
  178.4950   21.8600   49.6750 C   0  0  0  0  0  0  0  0  0  0  0  0
  177.3940   21.3430   48.9650 C   0  0  0  0  0  0  0  0  0  0  0  0
  176.1730   20.9170   49.7320 C   0  0  0  0  0  0  0  0  0  0  0  0
  175.6216   18.4264   48.1010 H   0  0  0  0  0  0  0  0  0  0  0  0
  174.5161   18.6447   46.7021 H   0  0  0  0  0  0  0  0  0  0  0  0
  175.7105   17.3031   46.7021 H   0  0  0  0  0  0  0  0  0  0  0  0
  177.5587   18.9527   46.6628 H   0  0  0  0  0  0  0  0  0  0  0  0
  176.4416   19.1564   45.2526 H   0  0  0  0  0  0  0  0  0  0  0  0
  176.2414   21.3154   45.8020 H   0  0  0  0  0  0  0  0  0  0  0  0
  175.3989   20.7787   47.3156 H   0  0  0  0  0  0  0  0  0  0  0  0
  178.6935   21.6086   45.8112 H   0  0  0  0  0  0  0  0  0  0  0  0
  180.6244   22.5003   47.0944 H   0  0  0  0  0  0  0  0  0  0  0  0
  180.6883   26.6684   50.6915 H   0  0  0  0  0  0  0  0  0  0  0  0
  182.4392   27.8720   52.0009 H   0  0  0  0  0  0  0  0  0  0  0  0
  184.4409   26.6395   52.8406 H   0  0  0  0  0  0  0  0  0  0  0  0
  185.2530   24.3640   53.3430 H   0  0  0  0  0  0  0  0  0  0  0  0
  181.5050   20.3110   49.1760 H   0  0  0  0  0  0  0  0  0  0  0  0
  178.4410   21.9285   50.7715 H   0  0  0  0  0  0  0  0  0  0  0  0
  176.3748   20.9874   50.8110 H   0  0  0  0  0  0  0  0  0  0  0  0
  175.3296   21.5740   49.4730 H   0  0  0  0  0  0  0  0  0  0  0  0
  175.9213   19.8780   49.4730 H   0  0  0  0  0  0  0  0  0  0  0  0
  1  2  1  0
  2  3  1  0
  3  4  1  0
  4  5  2  0
  5  6  1  0
  6  7  2  0
  7  8  1  0
  8  9  1  0
  9 10  1  0
 10 11  2  0
 11 12  1  0
 12 13  2  0
 13 14  1  0
 14 15  1  0
 14 16  2  0
 16 17  1  0
 17 18  2  0
 17 19  1  0
 19 20  1  0
  7 21  1  0
 21 22  2  0
 22 23  1  0
 22  4  1  0
 19  8  2  0
 16 10  1  0
  1 24  1  0
  1 25  1  0
  1 26  1  0
  2 27  1  0
  2 28  1  0
  3 29  1  0
  3 30  1  0
  5 31  1  0
  6 32  1  0
 11 33  1  0
 12 34  1  0
 13 35  1  0
 15 36  1  0
 20 37  1  0
 21 38  1  0
 23 39  1  0
 23 40  1  0
 23 41  1  0
M  END
>  <meeko>  (9) 
{"is_sidechain": [false], "free_energy": -7.085, "intermolecular_energy": -8.304, "internal_energy": -0.669}

$$$$
