cand_022_out
     RDKit          3D

 41 43  0  0  0  0  0  0  0  0999 V2000
  180.1770   18.8770   45.8460 C   0  0  0  0  0  0  0  0  0  0  0  0
  179.6470   19.9780   46.7510 C   0  0  0  0  0  0  0  0  0  0  0  0
  178.3390   20.5610   46.2140 C   0  0  0  0  0  0  0  0  0  0  0  0
  177.2210   20.4550   47.2270 C   0  0  0  0  0  0  0  0  0  0  0  0
  177.1340   21.4410   48.2310 C   0  0  0  0  0  0  0  0  0  0  0  0
  176.1410   21.4030   49.2190 C   0  0  0  0  0  0  0  0  0  0  0  0
  176.0320   22.4500   50.2560 C   0  0  0  0  0  0  0  0  0  0  0  0
  175.4780   23.6300   49.7760 O   0  0  0  0  0  0  0  0  0  0  0  0
  175.3190   24.6870   50.6360 C   0  0  0  0  0  0  0  0  0  0  0  0
  174.7720   25.8580   50.1080 C   0  0  0  0  0  0  0  0  0  0  0  0
  174.5830   26.9700   50.9300 C   0  0  0  0  0  0  0  0  0  0  0  0
  174.9390   26.9130   52.2790 C   0  0  0  0  0  0  0  0  0  0  0  0
  175.4840   25.7440   52.8040 C   0  0  0  0  0  0  0  0  0  0  0  0
  175.8110   25.7560   54.1320 O   0  0  0  0  0  0  0  0  0  0  0  0
  175.6750   24.6310   51.9800 C   0  0  0  0  0  0  0  0  0  0  0  0
  176.2450   23.3830   52.4910 C   0  0  0  0  0  0  0  0  0  0  0  0
  176.5770   23.2530   53.6680 O   0  0  0  0  0  0  0  0  0  0  0  0
  176.4130   22.2650   51.5340 C   0  0  0  0  0  0  0  0  0  0  0  0
  176.9400   21.0870   52.0310 O   0  0  0  0  0  0  0  0  0  0  0  0
  175.2090   20.3600   49.1820 C   0  0  0  0  0  0  0  0  0  0  0  0
  175.2830   19.3710   48.1970 C   0  0  0  0  0  0  0  0  0  0  0  0
  176.2880   19.3990   47.2180 C   0  0  0  0  0  0  0  0  0  0  0  0
  176.3210   18.3150   46.1770 C   0  0  0  0  0  0  0  0  0  0  0  0
  180.5725   18.0553   46.4612 H   0  0  0  0  0  0  0  0  0  0  0  0
  179.3617   18.5000   45.2111 H   0  0  0  0  0  0  0  0  0  0  0  0
  180.9802   19.2792   45.2111 H   0  0  0  0  0  0  0  0  0  0  0  0
  179.4684   19.5621   47.7536 H   0  0  0  0  0  0  0  0  0  0  0  0
  180.3948   20.7838   46.7900 H   0  0  0  0  0  0  0  0  0  0  0  0
  178.4964   21.6212   45.9667 H   0  0  0  0  0  0  0  0  0  0  0  0
  178.0486   19.9866   45.3219 H   0  0  0  0  0  0  0  0  0  0  0  0
  177.8655   22.2625   48.2390 H   0  0  0  0  0  0  0  0  0  0  0  0
  174.4904   25.9041   49.0457 H   0  0  0  0  0  0  0  0  0  0  0  0
  174.1527   27.8931   50.5143 H   0  0  0  0  0  0  0  0  0  0  0  0
  174.7892   27.7900   52.9259 H   0  0  0  0  0  0  0  0  0  0  0  0
  175.2460   26.1790   54.7490 H   0  0  0  0  0  0  0  0  0  0  0  0
  177.7980   21.0800   52.4080 H   0  0  0  0  0  0  0  0  0  0  0  0
  174.4094   20.3179   49.9362 H   0  0  0  0  0  0  0  0  0  0  0  0
  174.5419   18.5581   48.1891 H   0  0  0  0  0  0  0  0  0  0  0  0
  176.3509   17.3328   46.6713 H   0  0  0  0  0  0  0  0  0  0  0  0
  175.4204   18.3822   45.5490 H   0  0  0  0  0  0  0  0  0  0  0  0
  177.2159   18.4369   45.5490 H   0  0  0  0  0  0  0  0  0  0  0  0
  1  2  1  0
  2  3  1  0
  3  4  1  0
  4  5  2  0
  5  6  1  0
  6  7  1  0
  7  8  1  0
  8  9  1  0
  9 10  2  0
 10 11  1  0
 11 12  2  0
 12 13  1  0
 13 14  1  0
 13 15  2  0
 15 16  1  0
 16 17  2  0
 16 18  1  0
 18 19  1  0
  6 20  2  0
 20 21  1  0
 21 22  2  0
 22 23  1  0
 22  4  1  0
 18  7  2  0
 15  9  1  0
  1 24  1  0
  1 25  1  0
  1 26  1  0
  2 27  1  0
  2 28  1  0
  3 29  1  0
  3 30  1  0
  5 31  1  0
 10 32  1  0
 11 33  1  0
 12 34  1  0
 14 35  1  0
 19 36  1  0
 20 37  1  0
 21 38  1  0
 23 39  1  0
 23 40  1  0
 23 41  1  0
M  END
>  <meeko>  (1) 
{"is_sidechain": [false], "free_energy": -7.329, "intermolecular_energy": -9.043, "internal_energy": -0.637}

$$$$
cand_022_out
     RDKit          3D

 41 43  0  0  0  0  0  0  0  0999 V2000
  175.5560   18.1460   46.8470 C   0  0  0  0  0  0  0  0  0  0  0  0
  176.3180   19.2760   46.1750 C   0  0  0  0  0  0  0  0  0  0  0  0
  177.8020   19.2470   46.5480 C   0  0  0  0  0  0  0  0  0  0  0  0
  178.2290   20.5210   47.2440 C   0  0  0  0  0  0  0  0  0  0  0  0
  177.3990   21.0370   48.2600 C   0  0  0  0  0  0  0  0  0  0  0  0
  177.7120   22.2230   48.9390 C   0  0  0  0  0  0  0  0  0  0  0  0
  176.8570   22.7490   50.0220 C   0  0  0  0  0  0  0  0  0  0  0  0
  175.7240   23.4020   49.5480 O   0  0  0  0  0  0  0  0  0  0  0  0
  174.8420   23.9400   50.4510 C   0  0  0  0  0  0  0  0  0  0  0  0
  173.7270   24.5990   49.9300 C   0  0  0  0  0  0  0  0  0  0  0  0
  172.7890   25.1680   50.7940 C   0  0  0  0  0  0  0  0  0  0  0  0
  172.9650   25.0790   52.1770 C   0  0  0  0  0  0  0  0  0  0  0  0
  174.0780   24.4200   52.6930 C   0  0  0  0  0  0  0  0  0  0  0  0
  174.1880   24.3680   54.0550 O   0  0  0  0  0  0  0  0  0  0  0  0
  175.0170   23.8510   51.8280 C   0  0  0  0  0  0  0  0  0  0  0  0
  176.2010   23.1510   52.3290 C   0  0  0  0  0  0  0  0  0  0  0  0
  176.4210   23.0240   53.5320 O   0  0  0  0  0  0  0  0  0  0  0  0
  177.1390   22.5910   51.3290 C   0  0  0  0  0  0  0  0  0  0  0  0
  178.2470   21.9200   51.8140 O   0  0  0  0  0  0  0  0  0  0  0  0
  178.8930   22.8890   48.5960 C   0  0  0  0  0  0  0  0  0  0  0  0
  179.7250   22.3950   47.5880 C   0  0  0  0  0  0  0  0  0  0  0  0
  179.4020   21.2180   46.8960 C   0  0  0  0  0  0  0  0  0  0  0  0
  180.3340   20.7260   45.8230 C   0  0  0  0  0  0  0  0  0  0  0  0
  175.6286   18.2536   47.9393 H   0  0  0  0  0  0  0  0  0  0  0  0
  174.4993   18.1854   46.5441 H   0  0  0  0  0  0  0  0  0  0  0  0
  175.9886   17.1811   46.5441 H   0  0  0  0  0  0  0  0  0  0  0  0
  176.2210   19.1741   45.0840 H   0  0  0  0  0  0  0  0  0  0  0  0
  175.8934   20.2315   46.5167 H   0  0  0  0  0  0  0  0  0  0  0  0
  177.9841   18.3954   47.2200 H   0  0  0  0  0  0  0  0  0  0  0  0
  178.3867   19.1499   45.6213 H   0  0  0  0  0  0  0  0  0  0  0  0
  176.4804   20.4941   48.5274 H   0  0  0  0  0  0  0  0  0  0  0  0
  173.5876   24.6699   48.8412 H   0  0  0  0  0  0  0  0  0  0  0  0
  171.9099   25.6873   50.3848 H   0  0  0  0  0  0  0  0  0  0  0  0
  172.2261   25.5284   52.8568 H   0  0  0  0  0  0  0  0  0  0  0  0
  173.6160   23.8160   54.5500 H   0  0  0  0  0  0  0  0  0  0  0  0
  178.6240   22.1700   52.6340 H   0  0  0  0  0  0  0  0  0  0  0  0
  179.1701   23.8123   49.1258 H   0  0  0  0  0  0  0  0  0  0  0  0
  180.6475   22.9372   47.3330 H   0  0  0  0  0  0  0  0  0  0  0  0
  181.2155   20.2606   46.2881 H   0  0  0  0  0  0  0  0  0  0  0  0
  179.8148   19.9845   45.1981 H   0  0  0  0  0  0  0  0  0  0  0  0
  180.6533   21.5730   45.1981 H   0  0  0  0  0  0  0  0  0  0  0  0
  1  2  1  0
  2  3  1  0
  3  4  1  0
  4  5  2  0
  5  6  1  0
  6  7  1  0
  7  8  1  0
  8  9  1  0
  9 10  2  0
 10 11  1  0
 11 12  2  0
 12 13  1  0
 13 14  1  0
 13 15  2  0
 15 16  1  0
 16 17  2  0
 16 18  1  0
 18 19  1  0
  6 20  2  0
 20 21  1  0
 21 22  2  0
 22 23  1  0
 22  4  1  0
 18  7  2  0
 15  9  1  0
  1 24  1  0
  1 25  1  0
  1 26  1  0
  2 27  1  0
  2 28  1  0
  3 29  1  0
  3 30  1  0
  5 31  1  0
 10 32  1  0
 11 33  1  0
 12 34  1  0
 14 35  1  0
 19 36  1  0
 20 37  1  0
 21 38  1  0
 23 39  1  0
 23 40  1  0
 23 41  1  0
M  END
>  <meeko>  (2) 
{"is_sidechain": [false], "free_energy": -7.042, "intermolecular_energy": -8.729, "internal_energy": -0.596}

$$$$
cand_022_out
     RDKit          3D

 41 43  0  0  0  0  0  0  0  0999 V2000
  178.8680   12.2650   45.5120 C   0  0  0  0  0  0  0  0  0  0  0  0
  179.0270   13.7160   45.0880 C   0  0  0  0  0  0  0  0  0  0  0  0
  180.5020   14.1070   44.9790 C   0  0  0  0  0  0  0  0  0  0  0  0
  180.6680   15.5680   44.6210 C   0  0  0  0  0  0  0  0  0  0  0  0
  180.0600   16.5320   45.4510 C   0  0  0  0  0  0  0  0  0  0  0  0
  180.1490   17.9040   45.1770 C   0  0  0  0  0  0  0  0  0  0  0  0
  179.5340   18.9160   46.0600 C   0  0  0  0  0  0  0  0  0  0  0  0
  178.1470   18.8420   46.0850 O   0  0  0  0  0  0  0  0  0  0  0  0
  177.4490   19.7260   46.8670 C   0  0  0  0  0  0  0  0  0  0  0  0
  176.0560   19.6250   46.8500 C   0  0  0  0  0  0  0  0  0  0  0  0
  175.2860   20.4940   47.6250 C   0  0  0  0  0  0  0  0  0  0  0  0
  175.9050   21.4630   48.4170 C   0  0  0  0  0  0  0  0  0  0  0  0
  177.2940   21.5610   48.4330 C   0  0  0  0  0  0  0  0  0  0  0  0
  177.8360   22.5320   49.2300 O   0  0  0  0  0  0  0  0  0  0  0  0
  178.0650   20.6920   47.6560 C   0  0  0  0  0  0  0  0  0  0  0  0
  179.5280   20.7620   47.6430 C   0  0  0  0  0  0  0  0  0  0  0  0
  180.1450   21.5830   48.3190 O   0  0  0  0  0  0  0  0  0  0  0  0
  180.2510   19.8000   46.7800 C   0  0  0  0  0  0  0  0  0  0  0  0
  181.6320   19.8670   46.7860 O   0  0  0  0  0  0  0  0  0  0  0  0
  180.8790   18.3090   44.0550 C   0  0  0  0  0  0  0  0  0  0  0  0
  181.4840   17.3670   43.2180 C   0  0  0  0  0  0  0  0  0  0  0  0
  181.3800   15.9930   43.4820 C   0  0  0  0  0  0  0  0  0  0  0  0
  182.0550   15.0210   42.5540 C   0  0  0  0  0  0  0  0  0  0  0  0
  178.8612   12.2026   46.6102 H   0  0  0  0  0  0  0  0  0  0  0  0
  177.9211   11.8690   45.1163 H   0  0  0  0  0  0  0  0  0  0  0  0
  179.7067   11.6734   45.1163 H   0  0  0  0  0  0  0  0  0  0  0  0
  178.5459   13.8576   44.1090 H   0  0  0  0  0  0  0  0  0  0  0  0
  178.5552   14.3533   45.8505 H   0  0  0  0  0  0  0  0  0  0  0  0
  180.9932   13.9185   45.9450 H   0  0  0  0  0  0  0  0  0  0  0  0
  180.9589   13.5039   44.1805 H   0  0  0  0  0  0  0  0  0  0  0  0
  179.5007   16.1986   46.3375 H   0  0  0  0  0  0  0  0  0  0  0  0
  175.5665   18.8620   46.2269 H   0  0  0  0  0  0  0  0  0  0  0  0
  174.1889   20.4151   47.6117 H   0  0  0  0  0  0  0  0  0  0  0  0
  175.2970   22.1474   49.0269 H   0  0  0  0  0  0  0  0  0  0  0  0
  178.7340   22.7770   49.1230 H   0  0  0  0  0  0  0  0  0  0  0  0
  182.1330   19.2450   46.2950 H   0  0  0  0  0  0  0  0  0  0  0  0
  180.9782   19.3809   43.8286 H   0  0  0  0  0  0  0  0  0  0  0  0
  182.0503   17.7082   42.3389 H   0  0  0  0  0  0  0  0  0  0  0  0
  182.5846   14.2584   43.1438 H   0  0  0  0  0  0  0  0  0  0  0  0
  181.2993   14.5345   41.9197 H   0  0  0  0  0  0  0  0  0  0  0  0
  182.7748   15.5591   41.9197 H   0  0  0  0  0  0  0  0  0  0  0  0
  1  2  1  0
  2  3  1  0
  3  4  1  0
  4  5  2  0
  5  6  1  0
  6  7  1  0
  7  8  1  0
  8  9  1  0
  9 10  2  0
 10 11  1  0
 11 12  2  0
 12 13  1  0
 13 14  1  0
 13 15  2  0
 15 16  1  0
 16 17  2  0
 16 18  1  0
 18 19  1  0
  6 20  2  0
 20 21  1  0
 21 22  2  0
 22 23  1  0
 22  4  1  0
 18  7  2  0
 15  9  1  0
  1 24  1  0
  1 25  1  0
  1 26  1  0
  2 27  1  0
  2 28  1  0
  3 29  1  0
  3 30  1  0
  5 31  1  0
 10 32  1  0
 11 33  1  0
 12 34  1  0
 14 35  1  0
 19 36  1  0
 20 37  1  0
 21 38  1  0
 23 39  1  0
 23 40  1  0
 23 41  1  0
M  END
>  <meeko>  (3) 
{"is_sidechain": [false], "free_energy": -7.03, "intermolecular_energy": -8.847, "internal_energy": -0.463}

$$$$
cand_022_out
     RDKit          3D

 41 43  0  0  0  0  0  0  0  0999 V2000
  180.6370   18.1680   44.8780 C   0  0  0  0  0  0  0  0  0  0  0  0
  179.8160   18.8590   45.9550 C   0  0  0  0  0  0  0  0  0  0  0  0
  179.6580   20.3520   45.6630 C   0  0  0  0  0  0  0  0  0  0  0  0
  179.9780   21.1960   46.8770 C   0  0  0  0  0  0  0  0  0  0  0  0
  178.9270   21.5240   47.7580 C   0  0  0  0  0  0  0  0  0  0  0  0
  179.1360   22.3200   48.8930 C   0  0  0  0  0  0  0  0  0  0  0  0
  178.0420   22.6410   49.8320 C   0  0  0  0  0  0  0  0  0  0  0  0
  177.0550   23.4360   49.2590 O   0  0  0  0  0  0  0  0  0  0  0  0
  175.9780   23.8090   50.0230 C   0  0  0  0  0  0  0  0  0  0  0  0
  175.0190   24.6190   49.4120 C   0  0  0  0  0  0  0  0  0  0  0  0
  173.8970   25.0340   50.1320 C   0  0  0  0  0  0  0  0  0  0  0  0
  173.7330   24.6390   51.4620 C   0  0  0  0  0  0  0  0  0  0  0  0
  174.6910   23.8310   52.0680 C   0  0  0  0  0  0  0  0  0  0  0  0
  174.4680   23.4800   53.3720 O   0  0  0  0  0  0  0  0  0  0  0  0
  175.8150   23.4160   51.3470 C   0  0  0  0  0  0  0  0  0  0  0  0
  176.8450   22.5670   51.9470 C   0  0  0  0  0  0  0  0  0  0  0  0
  176.7680   22.1730   53.1090 O   0  0  0  0  0  0  0  0  0  0  0  0
  178.0000   22.1910   51.1000 C   0  0  0  0  0  0  0  0  0  0  0  0
  178.9600   21.3770   51.6730 O   0  0  0  0  0  0  0  0  0  0  0  0
  180.4330   22.7770   49.1510 C   0  0  0  0  0  0  0  0  0  0  0  0
  181.4850   22.4660   48.2860 C   0  0  0  0  0  0  0  0  0  0  0  0
  181.2730   21.6850   47.1400 C   0  0  0  0  0  0  0  0  0  0  0  0
  182.4400   21.3740   46.2440 C   0  0  0  0  0  0  0  0  0  0  0  0
  181.3971   17.5283   45.3503 H   0  0  0  0  0  0  0  0  0  0  0  0
  179.9756   17.5507   44.2523 H   0  0  0  0  0  0  0  0  0  0  0  0
  181.1323   18.9250   44.2523 H   0  0  0  0  0  0  0  0  0  0  0  0
  178.8195   18.3952   45.9984 H   0  0  0  0  0  0  0  0  0  0  0  0
  180.3402   18.7472   46.9156 H   0  0  0  0  0  0  0  0  0  0  0  0
  180.3401   20.6296   44.8459 H   0  0  0  0  0  0  0  0  0  0  0  0
  178.6108   20.5378   45.3823 H   0  0  0  0  0  0  0  0  0  0  0  0
  177.9157   21.1450   47.5491 H   0  0  0  0  0  0  0  0  0  0  0  0
  175.1472   24.9299   48.3647 H   0  0  0  0  0  0  0  0  0  0  0  0
  173.1413   25.6727   49.6515 H   0  0  0  0  0  0  0  0  0  0  0  0
  172.8489   24.9657   52.0291 H   0  0  0  0  0  0  0  0  0  0  0  0
  174.6240   22.6000   53.6530 H   0  0  0  0  0  0  0  0  0  0  0  0
  178.7020   20.6330   52.1800 H   0  0  0  0  0  0  0  0  0  0  0  0
  180.6265   23.3880   50.0450 H   0  0  0  0  0  0  0  0  0  0  0  0
  182.4958   22.8395   48.5070 H   0  0  0  0  0  0  0  0  0  0  0  0
  183.3216   21.1391   46.8584 H   0  0  0  0  0  0  0  0  0  0  0  0
  182.1947   20.5099   45.6091 H   0  0  0  0  0  0  0  0  0  0  0  0
  182.6573   22.2456   45.6091 H   0  0  0  0  0  0  0  0  0  0  0  0
  1  2  1  0
  2  3  1  0
  3  4  1  0
  4  5  2  0
  5  6  1  0
  6  7  1  0
  7  8  1  0
  8  9  1  0
  9 10  2  0
 10 11  1  0
 11 12  2  0
 12 13  1  0
 13 14  1  0
 13 15  2  0
 15 16  1  0
 16 17  2  0
 16 18  1  0
 18 19  1  0
  6 20  2  0
 20 21  1  0
 21 22  2  0
 22 23  1  0
 22  4  1  0
 18  7  2  0
 15  9  1  0
  1 24  1  0
  1 25  1  0
  1 26  1  0
  2 27  1  0
  2 28  1  0
  3 29  1  0
  3 30  1  0
  5 31  1  0
 10 32  1  0
 11 33  1  0
 12 34  1  0
 14 35  1  0
 19 36  1  0
 20 37  1  0
 21 38  1  0
 23 39  1  0
 23 40  1  0
 23 41  1  0
M  END
>  <meeko>  (4) 
{"is_sidechain": [false], "free_energy": -6.981, "intermolecular_energy": -8.736, "internal_energy": -0.514}

$$$$
cand_022_out
     RDKit          3D

 41 43  0  0  0  0  0  0  0  0999 V2000
  173.5000   26.1420   52.7410 C   0  0  0  0  0  0  0  0  0  0  0  0
  174.4650   26.7510   51.7360 C   0  0  0  0  0  0  0  0  0  0  0  0
  174.0500   26.4300   50.2990 C   0  0  0  0  0  0  0  0  0  0  0  0
  174.3140   24.9810   49.9500 C   0  0  0  0  0  0  0  0  0  0  0  0
  175.6410   24.5110   50.0120 C   0  0  0  0  0  0  0  0  0  0  0  0
  175.9730   23.1890   49.6840 C   0  0  0  0  0  0  0  0  0  0  0  0
  177.3600   22.6880   49.7740 C   0  0  0  0  0  0  0  0  0  0  0  0
  177.7800   22.0510   48.6120 O   0  0  0  0  0  0  0  0  0  0  0  0
  179.0510   21.5370   48.5610 C   0  0  0  0  0  0  0  0  0  0  0  0
  179.4270   20.8920   47.3810 C   0  0  0  0  0  0  0  0  0  0  0  0
  180.7070   20.3480   47.2620 C   0  0  0  0  0  0  0  0  0  0  0  0
  181.6120   20.4490   48.3210 C   0  0  0  0  0  0  0  0  0  0  0  0
  181.2350   21.0930   49.4960 C   0  0  0  0  0  0  0  0  0  0  0  0
  182.1700   21.1560   50.4930 O   0  0  0  0  0  0  0  0  0  0  0  0
  179.9530   21.6370   49.6150 C   0  0  0  0  0  0  0  0  0  0  0  0
  179.5170   22.3210   50.8340 C   0  0  0  0  0  0  0  0  0  0  0  0
  180.2580   22.4560   51.8050 O   0  0  0  0  0  0  0  0  0  0  0  0
  178.1360   22.8550   50.8610 C   0  0  0  0  0  0  0  0  0  0  0  0
  177.7390   23.5110   52.0120 O   0  0  0  0  0  0  0  0  0  0  0  0
  174.9420   22.3230   49.3040 C   0  0  0  0  0  0  0  0  0  0  0  0
  173.6210   22.7740   49.2320 C   0  0  0  0  0  0  0  0  0  0  0  0
  173.2920   24.1010   49.5430 C   0  0  0  0  0  0  0  0  0  0  0  0
  171.8540   24.5350   49.4560 C   0  0  0  0  0  0  0  0  0  0  0  0
  173.8470   26.3610   53.7616 H   0  0  0  0  0  0  0  0  0  0  0  0
  172.4981   26.5718   52.5942 H   0  0  0  0  0  0  0  0  0  0  0  0
  173.4568   25.0527   52.5942 H   0  0  0  0  0  0  0  0  0  0  0  0
  174.4787   27.8428   51.8692 H   0  0  0  0  0  0  0  0  0  0  0  0
  175.4633   26.3239   51.9118 H   0  0  0  0  0  0  0  0  0  0  0  0
  172.9752   26.6341   50.1844 H   0  0  0  0  0  0  0  0  0  0  0  0
  174.6455   27.0597   49.6215 H   0  0  0  0  0  0  0  0  0  0  0  0
  176.4384   25.2004   50.3264 H   0  0  0  0  0  0  0  0  0  0  0  0
  178.7153   20.8127   46.5461 H   0  0  0  0  0  0  0  0  0  0  0  0
  181.0033   19.8391   46.3329 H   0  0  0  0  0  0  0  0  0  0  0  0
  182.6207   20.0205   48.2267 H   0  0  0  0  0  0  0  0  0  0  0  0
  182.4590   20.3700   50.9140 H   0  0  0  0  0  0  0  0  0  0  0  0
  177.0960   23.1240   52.5740 H   0  0  0  0  0  0  0  0  0  0  0  0
  175.1735   21.2759   49.0592 H   0  0  0  0  0  0  0  0  0  0  0  0
  172.8269   22.0768   48.9265 H   0  0  0  0  0  0  0  0  0  0  0  0
  171.4462   24.6581   50.4702 H   0  0  0  0  0  0  0  0  0  0  0  0
  171.7918   25.4919   48.9171 H   0  0  0  0  0  0  0  0  0  0  0  0
  171.2728   23.7723   48.9171 H   0  0  0  0  0  0  0  0  0  0  0  0
  1  2  1  0
  2  3  1  0
  3  4  1  0
  4  5  2  0
  5  6  1  0
  6  7  1  0
  7  8  1  0
  8  9  1  0
  9 10  2  0
 10 11  1  0
 11 12  2  0
 12 13  1  0
 13 14  1  0
 13 15  2  0
 15 16  1  0
 16 17  2  0
 16 18  1  0
 18 19  1  0
  6 20  2  0
 20 21  1  0
 21 22  2  0
 22 23  1  0
 22  4  1  0
 18  7  2  0
 15  9  1  0
  1 24  1  0
  1 25  1  0
  1 26  1  0
  2 27  1  0
  2 28  1  0
  3 29  1  0
  3 30  1  0
  5 31  1  0
 10 32  1  0
 11 33  1  0
 12 34  1  0
 14 35  1  0
 19 36  1  0
 20 37  1  0
 21 38  1  0
 23 39  1  0
 23 40  1  0
 23 41  1  0
M  END
>  <meeko>  (5) 
{"is_sidechain": [false], "free_energy": -6.945, "intermolecular_energy": -8.708, "internal_energy": -0.497}

$$$$
cand_022_out
     RDKit          3D

 41 43  0  0  0  0  0  0  0  0999 V2000
  179.3110   19.3800   46.3120 C   0  0  0  0  0  0  0  0  0  0  0  0
  178.4590   20.6390   46.2740 C   0  0  0  0  0  0  0  0  0  0  0  0
  179.1710   21.8140   46.9460 C   0  0  0  0  0  0  0  0  0  0  0  0
  178.5810   22.1230   48.3050 C   0  0  0  0  0  0  0  0  0  0  0  0
  177.3170   22.7460   48.3580 C   0  0  0  0  0  0  0  0  0  0  0  0
  176.7110   23.0840   49.5760 C   0  0  0  0  0  0  0  0  0  0  0  0
  175.3750   23.7130   49.6330 C   0  0  0  0  0  0  0  0  0  0  0  0
  175.4310   25.0800   49.8780 O   0  0  0  0  0  0  0  0  0  0  0  0
  174.2590   25.7880   49.9570 C   0  0  0  0  0  0  0  0  0  0  0  0
  174.3610   27.1550   50.2190 C   0  0  0  0  0  0  0  0  0  0  0  0
  173.2070   27.9350   50.3100 C   0  0  0  0  0  0  0  0  0  0  0  0
  171.9500   27.3500   50.1380 C   0  0  0  0  0  0  0  0  0  0  0  0
  171.8510   25.9860   49.8750 C   0  0  0  0  0  0  0  0  0  0  0  0
  170.5920   25.4780   49.7160 O   0  0  0  0  0  0  0  0  0  0  0  0
  173.0080   25.2050   49.7850 C   0  0  0  0  0  0  0  0  0  0  0  0
  172.9470   23.7680   49.5110 C   0  0  0  0  0  0  0  0  0  0  0  0
  171.8800   23.1830   49.3410 O   0  0  0  0  0  0  0  0  0  0  0  0
  174.2290   23.0310   49.4440 C   0  0  0  0  0  0  0  0  0  0  0  0
  174.1610   21.6770   49.1710 O   0  0  0  0  0  0  0  0  0  0  0  0
  177.3860   22.7720   50.7600 C   0  0  0  0  0  0  0  0  0  0  0  0
  178.6410   22.1590   50.7270 C   0  0  0  0  0  0  0  0  0  0  0  0
  179.2560   21.8370   49.5080 C   0  0  0  0  0  0  0  0  0  0  0  0
  180.6050   21.1730   49.5260 C   0  0  0  0  0  0  0  0  0  0  0  0
  179.5019   19.0979   47.3579 H   0  0  0  0  0  0  0  0  0  0  0  0
  178.7799   18.5623   45.8028 H   0  0  0  0  0  0  0  0  0  0  0  0
  180.2675   19.5691   45.8028 H   0  0  0  0  0  0  0  0  0  0  0  0
  178.2506   20.8988   45.2256 H   0  0  0  0  0  0  0  0  0  0  0  0
  177.5246   20.4418   46.8200 H   0  0  0  0  0  0  0  0  0  0  0  0
  180.2351   21.5634   47.0680 H   0  0  0  0  0  0  0  0  0  0  0  0
  179.0455   22.7012   46.3080 H   0  0  0  0  0  0  0  0  0  0  0  0
  176.7924   22.9729   47.4182 H   0  0  0  0  0  0  0  0  0  0  0  0
  175.3500   27.6174   50.3537 H   0  0  0  0  0  0  0  0  0  0  0  0
  173.2874   29.0122   50.5175 H   0  0  0  0  0  0  0  0  0  0  0  0
  171.0409   27.9651   50.2101 H   0  0  0  0  0  0  0  0  0  0  0  0
  170.4090   24.5930   49.9660 H   0  0  0  0  0  0  0  0  0  0  0  0
  173.6910   21.1060   49.7470 H   0  0  0  0  0  0  0  0  0  0  0  0
  176.9236   23.0120   51.7288 H   0  0  0  0  0  0  0  0  0  0  0  0
  179.1547   21.9253   51.6712 H   0  0  0  0  0  0  0  0  0  0  0  0
  180.9228   21.0166   50.5674 H   0  0  0  0  0  0  0  0  0  0  0  0
  180.5429   20.2025   49.0119 H   0  0  0  0  0  0  0  0  0  0  0  0
  181.3362   21.8142   49.0119 H   0  0  0  0  0  0  0  0  0  0  0  0
  1  2  1  0
  2  3  1  0
  3  4  1  0
  4  5  2  0
  5  6  1  0
  6  7  1  0
  7  8  1  0
  8  9  1  0
  9 10  2  0
 10 11  1  0
 11 12  2  0
 12 13  1  0
 13 14  1  0
 13 15  2  0
 15 16  1  0
 16 17  2  0
 16 18  1  0
 18 19  1  0
  6 20  2  0
 20 21  1  0
 21 22  2  0
 22 23  1  0
 22  4  1  0
 18  7  2  0
 15  9  1  0
  1 24  1  0
  1 25  1  0
  1 26  1  0
  2 27  1  0
  2 28  1  0
  3 29  1  0
  3 30  1  0
  5 31  1  0
 10 32  1  0
 11 33  1  0
 12 34  1  0
 14 35  1  0
 19 36  1  0
 20 37  1  0
 21 38  1  0
 23 39  1  0
 23 40  1  0
 23 41  1  0
M  END
>  <meeko>  (6) 
{"is_sidechain": [false], "free_energy": -6.886, "intermolecular_energy": -8.46, "internal_energy": -0.673}

$$$$
cand_022_out
     RDKit          3D

 41 43  0  0  0  0  0  0  0  0999 V2000
  175.5570   20.0230   49.6770 C   0  0  0  0  0  0  0  0  0  0  0  0
  176.2210   21.3820   49.5180 C   0  0  0  0  0  0  0  0  0  0  0  0
  176.5340   21.6820   48.0510 C   0  0  0  0  0  0  0  0  0  0  0  0
  177.8670   21.1010   47.6330 C   0  0  0  0  0  0  0  0  0  0  0  0
  179.0420   21.7260   48.1000 C   0  0  0  0  0  0  0  0  0  0  0  0
  180.3160   21.2630   47.7410 C   0  0  0  0  0  0  0  0  0  0  0  0
  181.5480   21.9000   48.2510 C   0  0  0  0  0  0  0  0  0  0  0  0
  182.0950   22.8120   47.3560 O   0  0  0  0  0  0  0  0  0  0  0  0
  183.2430   23.4760   47.7050 C   0  0  0  0  0  0  0  0  0  0  0  0
  183.7660   24.3720   46.7710 C   0  0  0  0  0  0  0  0  0  0  0  0
  184.9320   25.0820   47.0630 C   0  0  0  0  0  0  0  0  0  0  0  0
  185.5750   24.8980   48.2900 C   0  0  0  0  0  0  0  0  0  0  0  0
  185.0510   24.0050   49.2200 C   0  0  0  0  0  0  0  0  0  0  0  0
  185.7300   23.8730   50.4010 O   0  0  0  0  0  0  0  0  0  0  0  0
  183.8840   23.2930   48.9260 C   0  0  0  0  0  0  0  0  0  0  0  0
  183.3010   22.3440   49.8760 C   0  0  0  0  0  0  0  0  0  0  0  0
  183.8050   22.1340   50.9780 O   0  0  0  0  0  0  0  0  0  0  0  0
  182.0670   21.6360   49.4650 C   0  0  0  0  0  0  0  0  0  0  0  0
  181.5180   20.7520   50.3750 O   0  0  0  0  0  0  0  0  0  0  0  0
  180.4030   20.1410   46.9110 C   0  0  0  0  0  0  0  0  0  0  0  0
  179.2490   19.5130   46.4350 C   0  0  0  0  0  0  0  0  0  0  0  0
  177.9740   19.9870   46.7790 C   0  0  0  0  0  0  0  0  0  0  0  0
  176.7640   19.2720   46.2450 C   0  0  0  0  0  0  0  0  0  0  0  0
  175.4445   19.7928   50.7467 H   0  0  0  0  0  0  0  0  0  0  0  0
  174.5662   20.0409   49.1996 H   0  0  0  0  0  0  0  0  0  0  0  0
  176.1801   19.2524   49.1996 H   0  0  0  0  0  0  0  0  0  0  0  0
  175.5449   22.1582   49.9057 H   0  0  0  0  0  0  0  0  0  0  0  0
  177.1671   21.3728   50.0790 H   0  0  0  0  0  0  0  0  0  0  0  0
  175.7429   21.2481   47.4218 H   0  0  0  0  0  0  0  0  0  0  0  0
  176.5819   22.7739   47.9270 H   0  0  0  0  0  0  0  0  0  0  0  0
  178.9568   22.5995   48.7632 H   0  0  0  0  0  0  0  0  0  0  0  0
  183.2597   24.5185   45.8055 H   0  0  0  0  0  0  0  0  0  0  0  0
  185.3450   25.7870   46.3265 H   0  0  0  0  0  0  0  0  0  0  0  0
  186.4934   25.4578   48.5203 H   0  0  0  0  0  0  0  0  0  0  0  0
  186.4790   24.4090   50.5720 H   0  0  0  0  0  0  0  0  0  0  0  0
  181.4250   19.8460   50.1520 H   0  0  0  0  0  0  0  0  0  0  0  0
  181.3912   19.7482   46.6296 H   0  0  0  0  0  0  0  0  0  0  0  0
  179.3416   18.6337   45.7807 H   0  0  0  0  0  0  0  0  0  0  0  0
  176.1518   18.9102   47.0842 H   0  0  0  0  0  0  0  0  0  0  0  0
  176.1706   19.9646   45.6300 H   0  0  0  0  0  0  0  0  0  0  0  0
  177.0844   18.4181   45.6300 H   0  0  0  0  0  0  0  0  0  0  0  0
  1  2  1  0
  2  3  1  0
  3  4  1  0
  4  5  2  0
  5  6  1  0
  6  7  1  0
  7  8  1  0
  8  9  1  0
  9 10  2  0
 10 11  1  0
 11 12  2  0
 12 13  1  0
 13 14  1  0
 13 15  2  0
 15 16  1  0
 16 17  2  0
 16 18  1  0
 18 19  1  0
  6 20  2  0
 20 21  1  0
 21 22  2  0
 22 23  1  0
 22  4  1  0
 18  7  2  0
 15  9  1  0
  1 24  1  0
  1 25  1  0
  1 26  1  0
  2 27  1  0
  2 28  1  0
  3 29  1  0
  3 30  1  0
  5 31  1  0
 10 32  1  0
 11 33  1  0
 12 34  1  0
 14 35  1  0
 19 36  1  0
 20 37  1  0
 21 38  1  0
 23 39  1  0
 23 40  1  0
 23 41  1  0
M  END
>  <meeko>  (7) 
{"is_sidechain": [false], "free_energy": -6.877, "intermolecular_energy": -8.402, "internal_energy": -0.719}

$$$$
cand_022_out
     RDKit          3D

 41 43  0  0  0  0  0  0  0  0999 V2000
  183.2200   22.1480   48.9140 C   0  0  0  0  0  0  0  0  0  0  0  0
  182.2360   21.1210   48.3760 C   0  0  0  0  0  0  0  0  0  0  0  0
  181.3640   21.7120   47.2670 C   0  0  0  0  0  0  0  0  0  0  0  0
  179.9210   21.2750   47.3970 C   0  0  0  0  0  0  0  0  0  0  0  0
  179.1420   21.8410   48.4270 C   0  0  0  0  0  0  0  0  0  0  0  0
  177.8050   21.4740   48.6280 C   0  0  0  0  0  0  0  0  0  0  0  0
  176.9800   22.0870   49.6900 C   0  0  0  0  0  0  0  0  0  0  0  0
  175.8530   22.7330   49.1940 O   0  0  0  0  0  0  0  0  0  0  0  0
  174.9990   23.3450   50.0750 C   0  0  0  0  0  0  0  0  0  0  0  0
  173.8880   23.9950   49.5330 C   0  0  0  0  0  0  0  0  0  0  0  0
  172.9780   24.6370   50.3740 C   0  0  0  0  0  0  0  0  0  0  0  0
  173.1760   24.6310   51.7570 C   0  0  0  0  0  0  0  0  0  0  0  0
  174.2840   23.9810   52.2950 C   0  0  0  0  0  0  0  0  0  0  0  0
  174.4180   24.0130   53.6560 O   0  0  0  0  0  0  0  0  0  0  0  0
  175.1960   23.3390   51.4520 C   0  0  0  0  0  0  0  0  0  0  0  0
  176.3740   22.6460   51.9770 C   0  0  0  0  0  0  0  0  0  0  0  0
  176.6120   22.5900   53.1820 O   0  0  0  0  0  0  0  0  0  0  0  0
  177.2820   22.0040   50.9990 C   0  0  0  0  0  0  0  0  0  0  0  0
  178.3840   21.3410   51.5070 O   0  0  0  0  0  0  0  0  0  0  0  0
  177.2400   20.5320   47.7630 C   0  0  0  0  0  0  0  0  0  0  0  0
  177.9980   19.9560   46.7400 C   0  0  0  0  0  0  0  0  0  0  0  0
  179.3420   20.3100   46.5490 C   0  0  0  0  0  0  0  0  0  0  0  0
  180.1130   19.6660   45.4310 C   0  0  0  0  0  0  0  0  0  0  0  0
  183.2034   22.1307   50.0137 H   0  0  0  0  0  0  0  0  0  0  0  0
  184.2327   21.9067   48.5587 H   0  0  0  0  0  0  0  0  0  0  0  0
  182.9357   23.1495   48.5587 H   0  0  0  0  0  0  0  0  0  0  0  0
  182.7967   20.2649   47.9726 H   0  0  0  0  0  0  0  0  0  0  0  0
  181.5804   20.8042   49.2005 H   0  0  0  0  0  0  0  0  0  0  0  0
  181.4106   22.8096   47.3236 H   0  0  0  0  0  0  0  0  0  0  0  0
  181.7461   21.3506   46.3009 H   0  0  0  0  0  0  0  0  0  0  0  0
  179.5965   22.5912   49.0908 H   0  0  0  0  0  0  0  0  0  0  0  0
  173.7304   24.0009   48.4444 H   0  0  0  0  0  0  0  0  0  0  0  0
  172.1029   25.1489   49.9471 H   0  0  0  0  0  0  0  0  0  0  0  0
  172.4588   25.1382   52.4191 H   0  0  0  0  0  0  0  0  0  0  0  0
  174.2460   23.2420   54.1600 H   0  0  0  0  0  0  0  0  0  0  0  0
  179.2460   21.5910   51.2380 H   0  0  0  0  0  0  0  0  0  0  0  0
  176.1867   20.2409   47.8892 H   0  0  0  0  0  0  0  0  0  0  0  0
  177.5337   19.2136   46.0742 H   0  0  0  0  0  0  0  0  0  0  0  0
  180.8931   19.0144   45.8514 H   0  0  0  0  0  0  0  0  0  0  0  0
  179.4293   19.0668   44.8117 H   0  0  0  0  0  0  0  0  0  0  0  0
  180.5808   20.4455   44.8117 H   0  0  0  0  0  0  0  0  0  0  0  0
  1  2  1  0
  2  3  1  0
  3  4  1  0
  4  5  2  0
  5  6  1  0
  6  7  1  0
  7  8  1  0
  8  9  1  0
  9 10  2  0
 10 11  1  0
 11 12  2  0
 12 13  1  0
 13 14  1  0
 13 15  2  0
 15 16  1  0
 16 17  2  0
 16 18  1  0
 18 19  1  0
  6 20  2  0
 20 21  1  0
 21 22  2  0
 22 23  1  0
 22  4  1  0
 18  7  2  0
 15  9  1  0
  1 24  1  0
  1 25  1  0
  1 26  1  0
  2 27  1  0
  2 28  1  0
  3 29  1  0
  3 30  1  0
  5 31  1  0
 10 32  1  0
 11 33  1  0
 12 34  1  0
 14 35  1  0
 19 36  1  0
 20 37  1  0
 21 38  1  0
 23 39  1  0
 23 40  1  0
 23 41  1  0
M  END
>  <meeko>  (8) 
{"is_sidechain": [false], "free_energy": -6.812, "intermolecular_energy": -8.568, "internal_energy": -0.474}

$$$$
cand_022_out
     RDKit          3D

 41 43  0  0  0  0  0  0  0  0999 V2000
  171.8440   24.3290   48.8150 C   0  0  0  0  0  0  0  0  0  0  0  0
  172.8820   23.5460   49.6030 C   0  0  0  0  0  0  0  0  0  0  0  0
  174.1160   24.3990   49.9030 C   0  0  0  0  0  0  0  0  0  0  0  0
  175.2920   23.5500   50.3340 C   0  0  0  0  0  0  0  0  0  0  0  0
  176.0580   22.9150   49.3350 C   0  0  0  0  0  0  0  0  0  0  0  0
  177.1500   22.0950   49.6520 C   0  0  0  0  0  0  0  0  0  0  0  0
  177.9700   21.4510   48.6050 C   0  0  0  0  0  0  0  0  0  0  0  0
  179.2530   21.9800   48.5220 O   0  0  0  0  0  0  0  0  0  0  0  0
  180.1200   21.4710   47.5890 C   0  0  0  0  0  0  0  0  0  0  0  0
  181.3930   22.0420   47.5300 C   0  0  0  0  0  0  0  0  0  0  0  0
  182.3260   21.5700   46.6040 C   0  0  0  0  0  0  0  0  0  0  0  0
  181.9880   20.5270   45.7380 C   0  0  0  0  0  0  0  0  0  0  0  0
  180.7180   19.9600   45.8000 C   0  0  0  0  0  0  0  0  0  0  0  0
  180.4520   18.9430   44.9240 O   0  0  0  0  0  0  0  0  0  0  0  0
  179.7840   20.4330   46.7260 C   0  0  0  0  0  0  0  0  0  0  0  0
  178.4380   19.8650   46.8230 C   0  0  0  0  0  0  0  0  0  0  0  0
  178.0690   18.9410   46.1000 O   0  0  0  0  0  0  0  0  0  0  0  0
  177.5220   20.4430   47.8320 C   0  0  0  0  0  0  0  0  0  0  0  0
  176.2580   19.8890   47.9240 O   0  0  0  0  0  0  0  0  0  0  0  0
  177.4830   21.9270   51.0000 C   0  0  0  0  0  0  0  0  0  0  0  0
  176.7310   22.5450   52.0030 C   0  0  0  0  0  0  0  0  0  0  0  0
  175.6280   23.3510   51.6870 C   0  0  0  0  0  0  0  0  0  0  0  0
  174.8550   23.9970   52.8040 C   0  0  0  0  0  0  0  0  0  0  0  0
  171.1645   24.8415   49.5119 H   0  0  0  0  0  0  0  0  0  0  0  0
  172.3491   25.0730   48.1815 H   0  0  0  0  0  0  0  0  0  0  0  0
  171.2673   23.6390   48.1815 H   0  0  0  0  0  0  0  0  0  0  0  0
  172.4359   23.2156   50.5527 H   0  0  0  0  0  0  0  0  0  0  0  0
  173.1968   22.6828   48.9982 H   0  0  0  0  0  0  0  0  0  0  0  0
  174.3925   24.9571   48.9963 H   0  0  0  0  0  0  0  0  0  0  0  0
  173.8673   25.0839   50.7270 H   0  0  0  0  0  0  0  0  0  0  0  0
  175.7916   23.0671   48.2786 H   0  0  0  0  0  0  0  0  0  0  0  0
  181.6606   22.8625   48.2120 H   0  0  0  0  0  0  0  0  0  0  0  0
  183.3285   22.0202   46.5564 H   0  0  0  0  0  0  0  0  0  0  0  0
  182.7232   20.1549   45.0093 H   0  0  0  0  0  0  0  0  0  0  0  0
  179.5660   18.7350   44.7030 H   0  0  0  0  0  0  0  0  0  0  0  0
  175.5240   20.4310   48.1400 H   0  0  0  0  0  0  0  0  0  0  0  0
  178.3458   21.3019   51.2736 H   0  0  0  0  0  0  0  0  0  0  0  0
  177.0088   22.3967   53.0570 H   0  0  0  0  0  0  0  0  0  0  0  0
  175.2575   23.6606   53.7709 H   0  0  0  0  0  0  0  0  0  0  0  0
  174.9470   25.0906   52.7290 H   0  0  0  0  0  0  0  0  0  0  0  0
  173.7951   23.7122   52.7290 H   0  0  0  0  0  0  0  0  0  0  0  0
  1  2  1  0
  2  3  1  0
  3  4  1  0
  4  5  2  0
  5  6  1  0
  6  7  1  0
  7  8  1  0
  8  9  1  0
  9 10  2  0
 10 11  1  0
 11 12  2  0
 12 13  1  0
 13 14  1  0
 13 15  2  0
 15 16  1  0
 16 17  2  0
 16 18  1  0
 18 19  1  0
  6 20  2  0
 20 21  1  0
 21 22  2  0
 22 23  1  0
 22  4  1  0
 18  7  2  0
 15  9  1  0
  1 24  1  0
  1 25  1  0
  1 26  1  0
  2 27  1  0
  2 28  1  0
  3 29  1  0
  3 30  1  0
  5 31  1  0
 10 32  1  0
 11 33  1  0
 12 34  1  0
 14 35  1  0
 19 36  1  0
 20 37  1  0
 21 38  1  0
 23 39  1  0
 23 40  1  0
 23 41  1  0
M  END
>  <meeko>  (9) 
{"is_sidechain": [false], "free_energy": -6.794, "intermolecular_energy": -8.492, "internal_energy": -0.527}

$$$$
