cand_043_out
     RDKit          3D

 44 46  0  0  0  0  0  0  0  0999 V2000
  179.4860   22.2980   49.0580 C   0  0  0  0  0  0  0  0  0  0  0  0
  178.6560   21.3570   48.2240 C   0  0  0  0  0  0  0  0  0  0  0  0
  179.3930   20.4280   47.4480 C   0  0  0  0  0  0  0  0  0  0  0  0
  178.7800   19.4810   46.6220 C   0  0  0  0  0  0  0  0  0  0  0  0
  179.6020   18.5600   45.8080 C   0  0  0  0  0  0  0  0  0  0  0  0
  179.1310   17.2510   45.8330 O   0  0  0  0  0  0  0  0  0  0  0  0
  179.8020   16.2920   45.1200 C   0  0  0  0  0  0  0  0  0  0  0  0
  179.3040   14.9900   45.1850 C   0  0  0  0  0  0  0  0  0  0  0  0
  179.9390   13.9650   44.4810 C   0  0  0  0  0  0  0  0  0  0  0  0
  181.0710   14.2410   43.7120 C   0  0  0  0  0  0  0  0  0  0  0  0
  181.5660   15.5410   43.6480 C   0  0  0  0  0  0  0  0  0  0  0  0
  182.6780   15.7410   42.8760 O   0  0  0  0  0  0  0  0  0  0  0  0
  180.9310   16.5660   44.3540 C   0  0  0  0  0  0  0  0  0  0  0  0
  181.4180   17.9460   44.3150 C   0  0  0  0  0  0  0  0  0  0  0  0
  182.4040   18.2690   43.6550 O   0  0  0  0  0  0  0  0  0  0  0  0
  180.6780   18.9570   45.1040 C   0  0  0  0  0  0  0  0  0  0  0  0
  181.1410   20.2590   45.0490 O   0  0  0  0  0  0  0  0  0  0  0  0
  177.3920   19.4800   46.5660 C   0  0  0  0  0  0  0  0  0  0  0  0
  176.6450   20.3780   47.3370 C   0  0  0  0  0  0  0  0  0  0  0  0
  177.2380   21.3280   48.2030 C   0  0  0  0  0  0  0  0  0  0  0  0
  176.3190   22.2750   49.0210 C   0  0  0  0  0  0  0  0  0  0  0  0
  176.5510   23.7690   48.6990 C   0  0  0  0  0  0  0  0  0  0  0  0
  176.5320   22.1620   50.5580 C   0  0  0  0  0  0  0  0  0  0  0  0
  174.8450   21.9030   48.7580 C   0  0  0  0  0  0  0  0  0  0  0  0
  179.3082   22.0965   50.1247 H   0  0  0  0  0  0  0  0  0  0  0  0
  180.5514   22.1482   48.8291 H   0  0  0  0  0  0  0  0  0  0  0  0
  179.2043   23.3364   48.8291 H   0  0  0  0  0  0  0  0  0  0  0  0
  180.4916   20.4530   47.4975 H   0  0  0  0  0  0  0  0  0  0  0  0
  178.4119   14.7714   45.7904 H   0  0  0  0  0  0  0  0  0  0  0  0
  179.5468   12.9386   44.5324 H   0  0  0  0  0  0  0  0  0  0  0  0
  181.5710   13.4331   43.1577 H   0  0  0  0  0  0  0  0  0  0  0  0
  182.6010   15.7730   41.9430 H   0  0  0  0  0  0  0  0  0  0  0  0
  181.0370   20.7590   44.2640 H   0  0  0  0  0  0  0  0  0  0  0  0
  176.8745   18.7658   45.9087 H   0  0  0  0  0  0  0  0  0  0  0  0
  175.5478   20.3441   47.2669 H   0  0  0  0  0  0  0  0  0  0  0  0
  176.6392   24.3368   49.6370 H   0  0  0  0  0  0  0  0  0  0  0  0
  177.4770   23.8788   48.1155 H   0  0  0  0  0  0  0  0  0  0  0  0
  175.7019   24.1545   48.1155 H   0  0  0  0  0  0  0  0  0  0  0  0
  175.6771   22.6155   51.0810 H   0  0  0  0  0  0  0  0  0  0  0  0
  176.6138   21.1019   50.8399 H   0  0  0  0  0  0  0  0  0  0  0  0
  177.4557   22.6887   50.8399 H   0  0  0  0  0  0  0  0  0  0  0  0
  174.3233   21.7713   49.7174 H   0  0  0  0  0  0  0  0  0  0  0  0
  174.3606   22.7071   48.1845 H   0  0  0  0  0  0  0  0  0  0  0  0
  174.8002   20.9654   48.1845 H   0  0  0  0  0  0  0  0  0  0  0  0
  1  2  1  0
  2  3  2  0
  3  4  1  0
  4  5  1  0
  5  6  1  0
  6  7  1  0
  7  8  2  0
  8  9  1  0
  9 10  2  0
 10 11  1  0
 11 12  1  0
 11 13  2  0
 13 14  1  0
 14 15  2  0
 14 16  1  0
 16 17  1  0
  4 18  2  0
 18 19  1  0
 19 20  2  0
 20 21  1  0
 21 22  1  0
 21 23  1  0
 21 24  1  0
 20  2  1  0
 16  5  2  0
 13  7  1  0
  1 25  1  0
  1 26  1  0
  1 27  1  0
  3 28  1  0
  8 29  1  0
  9 30  1  0
 10 31  1  0
 12 32  1  0
 17 33  1  0
 18 34  1  0
 19 35  1  0
 22 36  1  0
 22 37  1  0
 22 38  1  0
 23 39  1  0
 23 40  1  0
 23 41  1  0
 24 42  1  0
 24 43  1  0
 24 44  1  0
M  END
>  <meeko>  (1) 
{"is_sidechain": [false], "free_energy": -7.718, "intermolecular_energy": -9.072, "internal_energy": 0.068}

$$$$
cand_043_out
     RDKit          3D

 44 46  0  0  0  0  0  0  0  0999 V2000
  177.0260   19.2660   46.3600 C   0  0  0  0  0  0  0  0  0  0  0  0
  177.8070   20.2300   47.2150 C   0  0  0  0  0  0  0  0  0  0  0  0
  177.0650   20.8600   48.2460 C   0  0  0  0  0  0  0  0  0  0  0  0
  177.6370   21.7770   49.1330 C   0  0  0  0  0  0  0  0  0  0  0  0
  176.8050   22.4300   50.1670 C   0  0  0  0  0  0  0  0  0  0  0  0
  175.6880   23.0680   49.6390 O   0  0  0  0  0  0  0  0  0  0  0  0
  174.8300   23.7150   50.4900 C   0  0  0  0  0  0  0  0  0  0  0  0
  173.7310   24.3550   49.9150 C   0  0  0  0  0  0  0  0  0  0  0  0
  172.8160   25.0310   50.7260 C   0  0  0  0  0  0  0  0  0  0  0  0
  173.0000   25.0680   52.1090 C   0  0  0  0  0  0  0  0  0  0  0  0
  174.0980   24.4290   52.6800 C   0  0  0  0  0  0  0  0  0  0  0  0
  174.2180   24.5050   54.0410 O   0  0  0  0  0  0  0  0  0  0  0  0
  175.0140   23.7540   51.8680 C   0  0  0  0  0  0  0  0  0  0  0  0
  176.1800   23.0690   52.4270 C   0  0  0  0  0  0  0  0  0  0  0  0
  176.4070   23.0510   53.6360 O   0  0  0  0  0  0  0  0  0  0  0  0
  177.0940   22.3880   51.4820 C   0  0  0  0  0  0  0  0  0  0  0  0
  178.1860   21.7350   52.0220 O   0  0  0  0  0  0  0  0  0  0  0  0
  178.9830   22.0760   48.9700 C   0  0  0  0  0  0  0  0  0  0  0  0
  179.7380   21.4530   47.9690 C   0  0  0  0  0  0  0  0  0  0  0  0
  179.1930   20.5010   47.0750 C   0  0  0  0  0  0  0  0  0  0  0  0
  180.1170   19.8610   46.0030 C   0  0  0  0  0  0  0  0  0  0  0  0
  179.8720   20.4180   44.5830 C   0  0  0  0  0  0  0  0  0  0  0  0
  179.9270   18.3230   45.8650 C   0  0  0  0  0  0  0  0  0  0  0  0
  181.5900   20.0830   46.4080 C   0  0  0  0  0  0  0  0  0  0  0  0
  176.4655   18.5742   47.0059 H   0  0  0  0  0  0  0  0  0  0  0  0
  176.3233   19.8254   45.7250 H   0  0  0  0  0  0  0  0  0  0  0  0
  177.7190   18.6947   45.7250 H   0  0  0  0  0  0  0  0  0  0  0  0
  175.9973   20.6178   48.3522 H   0  0  0  0  0  0  0  0  0  0  0  0
  173.5855   24.3272   48.8250 H   0  0  0  0  0  0  0  0  0  0  0  0
  171.9491   25.5349   50.2738 H   0  0  0  0  0  0  0  0  0  0  0  0
  172.2793   25.6008   52.7468 H   0  0  0  0  0  0  0  0  0  0  0  0
  174.5920   23.7910   54.5180 H   0  0  0  0  0  0  0  0  0  0  0  0
  178.0910   20.8680   52.3620 H   0  0  0  0  0  0  0  0  0  0  0  0
  179.4615   22.8104   49.6346 H   0  0  0  0  0  0  0  0  0  0  0  0
  180.8020   21.7151   47.8732 H   0  0  0  0  0  0  0  0  0  0  0  0
  179.4300   21.4228   44.6545 H   0  0  0  0  0  0  0  0  0  0  0  0
  180.8279   20.4755   44.0417 H   0  0  0  0  0  0  0  0  0  0  0  0
  179.1836   19.7523   44.0417 H   0  0  0  0  0  0  0  0  0  0  0  0
  179.8709   17.8692   46.8655 H   0  0  0  0  0  0  0  0  0  0  0  0
  178.9965   18.1163   45.3160 H   0  0  0  0  0  0  0  0  0  0  0  0
  180.7792   17.8961   45.3160 H   0  0  0  0  0  0  0  0  0  0  0  0
  181.6708   20.0952   47.5050 H   0  0  0  0  0  0  0  0  0  0  0  0
  182.2082   19.2679   46.0038 H   0  0  0  0  0  0  0  0  0  0  0  0
  181.9405   21.0441   46.0038 H   0  0  0  0  0  0  0  0  0  0  0  0
  1  2  1  0
  2  3  2  0
  3  4  1  0
  4  5  1  0
  5  6  1  0
  6  7  1  0
  7  8  2  0
  8  9  1  0
  9 10  2  0
 10 11  1  0
 11 12  1  0
 11 13  2  0
 13 14  1  0
 14 15  2  0
 14 16  1  0
 16 17  1  0
  4 18  2  0
 18 19  1  0
 19 20  2  0
 20 21  1  0
 21 22  1  0
 21 23  1  0
 21 24  1  0
 20  2  1  0
 16  5  2  0
 13  7  1  0
  1 25  1  0
  1 26  1  0
  1 27  1  0
  3 28  1  0
  8 29  1  0
  9 30  1  0
 10 31  1  0
 12 32  1  0
 17 33  1  0
 18 34  1  0
 19 35  1  0
 22 36  1  0
 22 37  1  0
 22 38  1  0
 23 39  1  0
 23 40  1  0
 23 41  1  0
 24 42  1  0
 24 43  1  0
 24 44  1  0
M  END
>  <meeko>  (2) 
{"is_sidechain": [false], "free_energy": -7.656, "intermolecular_energy": -8.88, "internal_energy": -0.051}

$$$$
cand_043_out
     RDKit          3D

 44 46  0  0  0  0  0  0  0  0999 V2000
  177.1480   22.7580   48.8670 C   0  0  0  0  0  0  0  0  0  0  0  0
  178.2020   21.8790   48.2460 C   0  0  0  0  0  0  0  0  0  0  0  0
  179.5380   22.3090   48.4410 C   0  0  0  0  0  0  0  0  0  0  0  0
  180.6380   21.6070   47.9360 C   0  0  0  0  0  0  0  0  0  0  0  0
  182.0080   22.1230   48.1420 C   0  0  0  0  0  0  0  0  0  0  0  0
  182.4610   22.8940   47.0760 O   0  0  0  0  0  0  0  0  0  0  0  0
  183.7190   23.4350   47.1370 C   0  0  0  0  0  0  0  0  0  0  0  0
  184.1380   24.1880   46.0400 C   0  0  0  0  0  0  0  0  0  0  0  0
  185.4090   24.7690   46.0380 C   0  0  0  0  0  0  0  0  0  0  0  0
  186.2590   24.5960   47.1310 C   0  0  0  0  0  0  0  0  0  0  0  0
  185.8390   23.8440   48.2250 C   0  0  0  0  0  0  0  0  0  0  0  0
  186.7220   23.7140   49.2620 O   0  0  0  0  0  0  0  0  0  0  0  0
  184.5680   23.2620   48.2260 C   0  0  0  0  0  0  0  0  0  0  0  0
  184.0870   22.4630   49.3540 C   0  0  0  0  0  0  0  0  0  0  0  0
  184.7750   22.2720   50.3560 O   0  0  0  0  0  0  0  0  0  0  0  0
  182.7280   21.8840   49.2550 C   0  0  0  0  0  0  0  0  0  0  0  0
  182.2800   21.1420   50.3320 O   0  0  0  0  0  0  0  0  0  0  0  0
  180.3840   20.4530   47.2070 C   0  0  0  0  0  0  0  0  0  0  0  0
  179.0720   20.0020   47.0160 C   0  0  0  0  0  0  0  0  0  0  0  0
  177.9430   20.6760   47.5380 C   0  0  0  0  0  0  0  0  0  0  0  0
  176.5290   20.0890   47.2770 C   0  0  0  0  0  0  0  0  0  0  0  0
  175.5400   21.1280   46.7040 C   0  0  0  0  0  0  0  0  0  0  0  0
  175.8390   19.5490   48.5630 C   0  0  0  0  0  0  0  0  0  0  0  0
  176.6500   18.8900   46.3120 C   0  0  0  0  0  0  0  0  0  0  0  0
  177.2198   22.6981   49.9630 H   0  0  0  0  0  0  0  0  0  0  0  0
  177.3025   23.7986   48.5457 H   0  0  0  0  0  0  0  0  0  0  0  0
  176.1520   22.4191   48.5457 H   0  0  0  0  0  0  0  0  0  0  0  0
  179.7176   23.2317   49.0123 H   0  0  0  0  0  0  0  0  0  0  0  0
  183.4688   24.3243   45.1777 H   0  0  0  0  0  0  0  0  0  0  0  0
  185.7398   25.3635   45.1736 H   0  0  0  0  0  0  0  0  0  0  0  0
  187.2595   25.0531   47.1284 H   0  0  0  0  0  0  0  0  0  0  0  0
  186.4100   23.5000   50.1190 H   0  0  0  0  0  0  0  0  0  0  0  0
  182.7900   20.4240   50.6500 H   0  0  0  0  0  0  0  0  0  0  0  0
  181.2223   19.8869   46.7748 H   0  0  0  0  0  0  0  0  0  0  0  0
  178.9121   19.0824   46.4340 H   0  0  0  0  0  0  0  0  0  0  0  0
  175.0400   21.6533   47.5311 H   0  0  0  0  0  0  0  0  0  0  0  0
  176.0884   21.8546   46.0864 H   0  0  0  0  0  0  0  0  0  0  0  0
  174.7873   20.6161   46.0864 H   0  0  0  0  0  0  0  0  0  0  0  0
  176.3514   19.9500   49.4500 H   0  0  0  0  0  0  0  0  0  0  0  0
  174.7854   19.8649   48.5740 H   0  0  0  0  0  0  0  0  0  0  0  0
  175.8925   18.4504   48.5740 H   0  0  0  0  0  0  0  0  0  0  0  0
  176.7438   17.9603   46.8923 H   0  0  0  0  0  0  0  0  0  0  0  0
  175.7526   18.8375   45.6780 H   0  0  0  0  0  0  0  0  0  0  0  0
  177.5398   19.0179   45.6780 H   0  0  0  0  0  0  0  0  0  0  0  0
  1  2  1  0
  2  3  2  0
  3  4  1  0
  4  5  1  0
  5  6  1  0
  6  7  1  0
  7  8  2  0
  8  9  1  0
  9 10  2  0
 10 11  1  0
 11 12  1  0
 11 13  2  0
 13 14  1  0
 14 15  2  0
 14 16  1  0
 16 17  1  0
  4 18  2  0
 18 19  1  0
 19 20  2  0
 20 21  1  0
 21 22  1  0
 21 23  1  0
 21 24  1  0
 20  2  1  0
 16  5  2  0
 13  7  1  0
  1 25  1  0
  1 26  1  0
  1 27  1  0
  3 28  1  0
  8 29  1  0
  9 30  1  0
 10 31  1  0
 12 32  1  0
 17 33  1  0
 18 34  1  0
 19 35  1  0
 22 36  1  0
 22 37  1  0
 22 38  1  0
 23 39  1  0
 23 40  1  0
 23 41  1  0
 24 42  1  0
 24 43  1  0
 24 44  1  0
M  END
>  <meeko>  (3) 
{"is_sidechain": [false], "free_energy": -7.498, "intermolecular_energy": -8.497, "internal_energy": -0.248}

$$$$
cand_043_out
     RDKit          3D

 44 46  0  0  0  0  0  0  0  0999 V2000
  182.7470   25.2810   47.3440 C   0  0  0  0  0  0  0  0  0  0  0  0
  182.6200   24.0260   48.1690 C   0  0  0  0  0  0  0  0  0  0  0  0
  181.2950   23.5620   48.3620 C   0  0  0  0  0  0  0  0  0  0  0  0
  180.9990   22.4100   49.0980 C   0  0  0  0  0  0  0  0  0  0  0  0
  179.5940   21.9940   49.2960 C   0  0  0  0  0  0  0  0  0  0  0  0
  178.9430   21.7050   48.1010 O   0  0  0  0  0  0  0  0  0  0  0  0
  177.6320   21.3060   48.1400 C   0  0  0  0  0  0  0  0  0  0  0  0
  177.0140   21.0410   46.9170 C   0  0  0  0  0  0  0  0  0  0  0  0
  175.6800   20.6280   46.8860 C   0  0  0  0  0  0  0  0  0  0  0  0
  174.9640   20.4820   48.0760 C   0  0  0  0  0  0  0  0  0  0  0  0
  175.5830   20.7470   49.2950 C   0  0  0  0  0  0  0  0  0  0  0  0
  174.8250   20.5840   50.4210 O   0  0  0  0  0  0  0  0  0  0  0  0
  176.9180   21.1610   49.3260 C   0  0  0  0  0  0  0  0  0  0  0  0
  177.6060   21.4500   50.5840 C   0  0  0  0  0  0  0  0  0  0  0  0
  177.0460   21.3380   51.6730 O   0  0  0  0  0  0  0  0  0  0  0  0
  179.0190   21.8890   50.5080 C   0  0  0  0  0  0  0  0  0  0  0  0
  179.6620   22.1480   51.7040 O   0  0  0  0  0  0  0  0  0  0  0  0
  182.0620   21.7180   49.6630 C   0  0  0  0  0  0  0  0  0  0  0  0
  183.3800   22.1500   49.4700 C   0  0  0  0  0  0  0  0  0  0  0  0
  183.7100   23.2950   48.7080 C   0  0  0  0  0  0  0  0  0  0  0  0
  185.2050   23.6860   48.5480 C   0  0  0  0  0  0  0  0  0  0  0  0
  185.5220   25.0980   49.0910 C   0  0  0  0  0  0  0  0  0  0  0  0
  185.6790   23.7150   47.0670 C   0  0  0  0  0  0  0  0  0  0  0  0
  186.0820   22.6380   49.2650 C   0  0  0  0  0  0  0  0  0  0  0  0
  182.8350   26.1511   48.0112 H   0  0  0  0  0  0  0  0  0  0  0  0
  183.6429   25.2135   46.7093 H   0  0  0  0  0  0  0  0  0  0  0  0
  181.8557   25.3943   46.7093 H   0  0  0  0  0  0  0  0  0  0  0  0
  180.4661   24.1305   47.9151 H   0  0  0  0  0  0  0  0  0  0  0  0
  177.5766   21.1572   45.9789 H   0  0  0  0  0  0  0  0  0  0  0  0
  175.1926   20.4174   45.9226 H   0  0  0  0  0  0  0  0  0  0  0  0
  173.9130   20.1583   48.0506 H   0  0  0  0  0  0  0  0  0  0  0  0
  173.9070   20.7690   50.3990 H   0  0  0  0  0  0  0  0  0  0  0  0
  179.2210   22.6250   52.3790 H   0  0  0  0  0  0  0  0  0  0  0  0
  181.8667   20.8208   50.2687 H   0  0  0  0  0  0  0  0  0  0  0  0
  184.1950   21.5732   49.9316 H   0  0  0  0  0  0  0  0  0  0  0  0
  185.5174   25.0775   50.1908 H   0  0  0  0  0  0  0  0  0  0  0  0
  186.5134   25.4140   48.7343 H   0  0  0  0  0  0  0  0  0  0  0  0
  184.7608   25.8074   48.7343 H   0  0  0  0  0  0  0  0  0  0  0  0
  186.7765   23.7821   47.0345 H   0  0  0  0  0  0  0  0  0  0  0  0
  185.3527   22.7952   46.5595 H   0  0  0  0  0  0  0  0  0  0  0  0
  185.2430   24.5882   46.5595 H   0  0  0  0  0  0  0  0  0  0  0  0
  185.9811   22.7585   50.3537 H   0  0  0  0  0  0  0  0  0  0  0  0
  185.7562   21.6278   48.9762 H   0  0  0  0  0  0  0  0  0  0  0  0
  187.1338   22.7806   48.9762 H   0  0  0  0  0  0  0  0  0  0  0  0
  1  2  1  0
  2  3  2  0
  3  4  1  0
  4  5  1  0
  5  6  1  0
  6  7  1  0
  7  8  2  0
  8  9  1  0
  9 10  2  0
 10 11  1  0
 11 12  1  0
 11 13  2  0
 13 14  1  0
 14 15  2  0
 14 16  1  0
 16 17  1  0
  4 18  2  0
 18 19  1  0
 19 20  2  0
 20 21  1  0
 21 22  1  0
 21 23  1  0
 21 24  1  0
 20  2  1  0
 16  5  2  0
 13  7  1  0
  1 25  1  0
  1 26  1  0
  1 27  1  0
  3 28  1  0
  8 29  1  0
  9 30  1  0
 10 31  1  0
 12 32  1  0
 17 33  1  0
 18 34  1  0
 19 35  1  0
 22 36  1  0
 22 37  1  0
 22 38  1  0
 23 39  1  0
 23 40  1  0
 23 41  1  0
 24 42  1  0
 24 43  1  0
 24 44  1  0
M  END
>  <meeko>  (4) 
{"is_sidechain": [false], "free_energy": -7.415, "intermolecular_energy": -8.525, "internal_energy": -0.123}

$$$$
cand_043_out
     RDKit          3D

 44 46  0  0  0  0  0  0  0  0999 V2000
  175.0980   26.1140   50.3160 C   0  0  0  0  0  0  0  0  0  0  0  0
  175.0570   24.6840   49.8430 C   0  0  0  0  0  0  0  0  0  0  0  0
  176.3220   24.0870   49.6150 C   0  0  0  0  0  0  0  0  0  0  0  0
  176.4640   22.7660   49.1790 C   0  0  0  0  0  0  0  0  0  0  0  0
  177.8090   22.2080   48.9230 C   0  0  0  0  0  0  0  0  0  0  0  0
  177.9620   21.7390   47.6230 O   0  0  0  0  0  0  0  0  0  0  0  0
  179.1640   21.1940   47.2510 C   0  0  0  0  0  0  0  0  0  0  0  0
  179.2670   20.7230   45.9420 C   0  0  0  0  0  0  0  0  0  0  0  0
  180.4650   20.1580   45.4980 C   0  0  0  0  0  0  0  0  0  0  0  0
  181.5570   20.0620   46.3620 C   0  0  0  0  0  0  0  0  0  0  0  0
  181.4510   20.5330   47.6690 C   0  0  0  0  0  0  0  0  0  0  0  0
  182.5580   20.4090   48.4620 O   0  0  0  0  0  0  0  0  0  0  0  0
  180.2520   21.0980   48.1130 C   0  0  0  0  0  0  0  0  0  0  0  0
  180.0980   21.6040   49.4770 C   0  0  0  0  0  0  0  0  0  0  0  0
  181.0160   21.5620   50.2940 O   0  0  0  0  0  0  0  0  0  0  0  0
  178.7850   22.1780   49.8510 C   0  0  0  0  0  0  0  0  0  0  0  0
  178.6540   22.6640   51.1390 O   0  0  0  0  0  0  0  0  0  0  0  0
  175.3050   22.0340   48.9560 C   0  0  0  0  0  0  0  0  0  0  0  0
  174.0460   22.6000   49.1910 C   0  0  0  0  0  0  0  0  0  0  0  0
  173.8730   23.9240   49.6580 C   0  0  0  0  0  0  0  0  0  0  0  0
  172.4320   24.4550   49.8960 C   0  0  0  0  0  0  0  0  0  0  0  0
  171.4360   24.0070   48.8020 C   0  0  0  0  0  0  0  0  0  0  0  0
  172.3420   26.0080   49.9040 C   0  0  0  0  0  0  0  0  0  0  0  0
  171.9410   23.9830   51.2800 C   0  0  0  0  0  0  0  0  0  0  0  0
  175.0987   26.1366   51.4158 H   0  0  0  0  0  0  0  0  0  0  0  0
  176.0104   26.5990   49.9388 H   0  0  0  0  0  0  0  0  0  0  0  0
  174.2149   26.6504   49.9388 H   0  0  0  0  0  0  0  0  0  0  0  0
  177.2279   24.6865   49.7879 H   0  0  0  0  0  0  0  0  0  0  0  0
  178.4065   20.7963   45.2607 H   0  0  0  0  0  0  0  0  0  0  0  0
  180.5479   19.7880   44.4654 H   0  0  0  0  0  0  0  0  0  0  0  0
  182.4993   19.6154   46.0118 H   0  0  0  0  0  0  0  0  0  0  0  0
  183.0100   21.1740   48.7590 H   0  0  0  0  0  0  0  0  0  0  0  0
  177.9690   23.2690   51.3430 H   0  0  0  0  0  0  0  0  0  0  0  0
  175.3768   20.9988   48.5910 H   0  0  0  0  0  0  0  0  0  0  0  0
  173.1515   21.9877   49.0041 H   0  0  0  0  0  0  0  0  0  0  0  0
  170.5304   23.5997   49.2752 H   0  0  0  0  0  0  0  0  0  0  0  0
  171.1660   24.8704   48.1761 H   0  0  0  0  0  0  0  0  0  0  0  0
  171.9029   23.2322   48.1761 H   0  0  0  0  0  0  0  0  0  0  0  0
  172.3211   26.3687   50.9430 H   0  0  0  0  0  0  0  0  0  0  0  0
  173.2173   26.4287   49.3873 H   0  0  0  0  0  0  0  0  0  0  0  0
  171.4240   26.3247   49.3873 H   0  0  0  0  0  0  0  0  0  0  0  0
  172.4951   24.5157   52.0669 H   0  0  0  0  0  0  0  0  0  0  0  0
  170.8664   24.1959   51.3800 H   0  0  0  0  0  0  0  0  0  0  0  0
  172.1113   22.9009   51.3800 H   0  0  0  0  0  0  0  0  0  0  0  0
  1  2  1  0
  2  3  2  0
  3  4  1  0
  4  5  1  0
  5  6  1  0
  6  7  1  0
  7  8  2  0
  8  9  1  0
  9 10  2  0
 10 11  1  0
 11 12  1  0
 11 13  2  0
 13 14  1  0
 14 15  2  0
 14 16  1  0
 16 17  1  0
  4 18  2  0
 18 19  1  0
 19 20  2  0
 20 21  1  0
 21 22  1  0
 21 23  1  0
 21 24  1  0
 20  2  1  0
 16  5  2  0
 13  7  1  0
  1 25  1  0
  1 26  1  0
  1 27  1  0
  3 28  1  0
  8 29  1  0
  9 30  1  0
 10 31  1  0
 12 32  1  0
 17 33  1  0
 18 34  1  0
 19 35  1  0
 22 36  1  0
 22 37  1  0
 22 38  1  0
 23 39  1  0
 23 40  1  0
 23 41  1  0
 24 42  1  0
 24 43  1  0
 24 44  1  0
M  END
>  <meeko>  (5) 
{"is_sidechain": [false], "free_energy": -7.334, "intermolecular_energy": -8.919, "internal_energy": 0.366}

$$$$
cand_043_out
     RDKit          3D

 44 46  0  0  0  0  0  0  0  0999 V2000
  171.8070   24.2510   48.8530 C   0  0  0  0  0  0  0  0  0  0  0  0
  173.0390   23.8330   49.6120 C   0  0  0  0  0  0  0  0  0  0  0  0
  173.9630   23.0460   48.8780 C   0  0  0  0  0  0  0  0  0  0  0  0
  175.1600   22.5780   49.4290 C   0  0  0  0  0  0  0  0  0  0  0  0
  176.0680   21.7320   48.6260 C   0  0  0  0  0  0  0  0  0  0  0  0
  177.3440   22.2710   48.5070 O   0  0  0  0  0  0  0  0  0  0  0  0
  178.2880   21.5870   47.7860 C   0  0  0  0  0  0  0  0  0  0  0  0
  179.5510   22.1720   47.6800 C   0  0  0  0  0  0  0  0  0  0  0  0
  180.5600   21.5260   46.9610 C   0  0  0  0  0  0  0  0  0  0  0  0
  180.3060   20.2990   46.3480 C   0  0  0  0  0  0  0  0  0  0  0  0
  179.0450   19.7170   46.4540 C   0  0  0  0  0  0  0  0  0  0  0  0
  178.8650   18.5130   45.8290 O   0  0  0  0  0  0  0  0  0  0  0  0
  178.0360   20.3640   47.1730 C   0  0  0  0  0  0  0  0  0  0  0  0
  176.6970   19.7880   47.3100 C   0  0  0  0  0  0  0  0  0  0  0  0
  176.3990   18.7070   46.8050 O   0  0  0  0  0  0  0  0  0  0  0  0
  175.6970   20.5550   48.0860 C   0  0  0  0  0  0  0  0  0  0  0  0
  174.4400   19.9960   48.2190 O   0  0  0  0  0  0  0  0  0  0  0  0
  175.4260   22.8990   50.7540 C   0  0  0  0  0  0  0  0  0  0  0  0
  174.5350   23.6880   51.4920 C   0  0  0  0  0  0  0  0  0  0  0  0
  173.3310   24.1980   50.9520 C   0  0  0  0  0  0  0  0  0  0  0  0
  172.4140   25.0710   51.8520 C   0  0  0  0  0  0  0  0  0  0  0  0
  171.0090   24.4600   52.0560 C   0  0  0  0  0  0  0  0  0  0  0  0
  172.1500   26.4900   51.2690 C   0  0  0  0  0  0  0  0  0  0  0  0
  173.1000   25.2830   53.2180 C   0  0  0  0  0  0  0  0  0  0  0  0
  171.0122   24.5207   49.5640 H   0  0  0  0  0  0  0  0  0  0  0  0
  172.0431   25.1193   48.2203 H   0  0  0  0  0  0  0  0  0  0  0  0
  171.4660   23.4183   48.2203 H   0  0  0  0  0  0  0  0  0  0  0  0
  173.7285   22.7937   47.8333 H   0  0  0  0  0  0  0  0  0  0  0  0
  179.7516   23.1403   48.1619 H   0  0  0  0  0  0  0  0  0  0  0  0
  181.5559   21.9856   46.8783 H   0  0  0  0  0  0  0  0  0  0  0  0
  181.1007   19.7916   45.7815 H   0  0  0  0  0  0  0  0  0  0  0  0
  178.9000   17.7190   46.3240 H   0  0  0  0  0  0  0  0  0  0  0  0
  173.9990   20.0280   49.0450 H   0  0  0  0  0  0  0  0  0  0  0  0
  176.3468   22.5293   51.2289 H   0  0  0  0  0  0  0  0  0  0  0  0
  174.7823   23.9216   52.5381 H   0  0  0  0  0  0  0  0  0  0  0  0
  170.8012   24.3696   53.1324 H   0  0  0  0  0  0  0  0  0  0  0  0
  170.2548   25.1114   51.5904 H   0  0  0  0  0  0  0  0  0  0  0  0
  170.9711   23.4641   51.5904 H   0  0  0  0  0  0  0  0  0  0  0  0
  172.0168   27.2061   52.0933 H   0  0  0  0  0  0  0  0  0  0  0  0
  173.0063   26.7976   50.6509 H   0  0  0  0  0  0  0  0  0  0  0  0
  171.2403   26.4690   50.6509 H   0  0  0  0  0  0  0  0  0  0  0  0
  172.3859   25.0623   54.0251 H   0  0  0  0  0  0  0  0  0  0  0  0
  173.9667   24.6108   53.3013 H   0  0  0  0  0  0  0  0  0  0  0  0
  173.4364   26.3270   53.3013 H   0  0  0  0  0  0  0  0  0  0  0  0
  1  2  1  0
  2  3  2  0
  3  4  1  0
  4  5  1  0
  5  6  1  0
  6  7  1  0
  7  8  2  0
  8  9  1  0
  9 10  2  0
 10 11  1  0
 11 12  1  0
 11 13  2  0
 13 14  1  0
 14 15  2  0
 14 16  1  0
 16 17  1  0
  4 18  2  0
 18 19  1  0
 19 20  2  0
 20 21  1  0
 21 22  1  0
 21 23  1  0
 21 24  1  0
 20  2  1  0
 16  5  2  0
 13  7  1  0
  1 25  1  0
  1 26  1  0
  1 27  1  0
  3 28  1  0
  8 29  1  0
  9 30  1  0
 10 31  1  0
 12 32  1  0
 17 33  1  0
 18 34  1  0
 19 35  1  0
 22 36  1  0
 22 37  1  0
 22 38  1  0
 23 39  1  0
 23 40  1  0
 23 41  1  0
 24 42  1  0
 24 43  1  0
 24 44  1  0
M  END
>  <meeko>  (6) 
{"is_sidechain": [false], "free_energy": -7.269, "intermolecular_energy": -8.379, "internal_energy": -0.097}

$$$$
cand_043_out
     RDKit          3D

 44 46  0  0  0  0  0  0  0  0999 V2000
  174.2610   24.6250   49.6480 C   0  0  0  0  0  0  0  0  0  0  0  0
  175.3260   23.7350   50.2350 C   0  0  0  0  0  0  0  0  0  0  0  0
  176.1320   23.0530   49.2890 C   0  0  0  0  0  0  0  0  0  0  0  0
  177.1680   22.1920   49.6630 C   0  0  0  0  0  0  0  0  0  0  0  0
  177.9530   21.4800   48.6310 C   0  0  0  0  0  0  0  0  0  0  0  0
  179.2550   21.9560   48.5200 O   0  0  0  0  0  0  0  0  0  0  0  0
  180.0930   21.3830   47.5980 C   0  0  0  0  0  0  0  0  0  0  0  0
  181.3860   21.9020   47.5100 C   0  0  0  0  0  0  0  0  0  0  0  0
  182.2910   21.3630   46.5930 C   0  0  0  0  0  0  0  0  0  0  0  0
  181.9050   20.3070   45.7650 C   0  0  0  0  0  0  0  0  0  0  0  0
  180.6140   19.7920   45.8550 C   0  0  0  0  0  0  0  0  0  0  0  0
  180.3020   18.7580   45.0150 O   0  0  0  0  0  0  0  0  0  0  0  0
  179.7080   20.3320   46.7720 C   0  0  0  0  0  0  0  0  0  0  0  0
  178.3430   19.8210   46.8990 C   0  0  0  0  0  0  0  0  0  0  0  0
  177.9310   18.8890   46.2110 O   0  0  0  0  0  0  0  0  0  0  0  0
  177.4590   20.4670   47.8960 C   0  0  0  0  0  0  0  0  0  0  0  0
  176.1750   19.9670   48.0150 O   0  0  0  0  0  0  0  0  0  0  0  0
  177.3900   22.0040   51.0210 C   0  0  0  0  0  0  0  0  0  0  0  0
  176.6160   22.6810   51.9720 C   0  0  0  0  0  0  0  0  0  0  0  0
  175.5790   23.5790   51.6220 C   0  0  0  0  0  0  0  0  0  0  0  0
  174.7840   24.2850   52.7540 C   0  0  0  0  0  0  0  0  0  0  0  0
  173.2820   23.9200   52.7560 C   0  0  0  0  0  0  0  0  0  0  0  0
  174.8150   25.8370   52.6510 C   0  0  0  0  0  0  0  0  0  0  0  0
  175.4150   23.9270   54.1160 C   0  0  0  0  0  0  0  0  0  0  0  0
  173.6919   25.1006   50.4603 H   0  0  0  0  0  0  0  0  0  0  0  0
  174.7328   25.4012   49.0276 H   0  0  0  0  0  0  0  0  0  0  0  0
  173.5809   24.0228   49.0276 H   0  0  0  0  0  0  0  0  0  0  0  0
  175.9344   23.2074   48.2180 H   0  0  0  0  0  0  0  0  0  0  0  0
  181.6914   22.7339   48.1617 H   0  0  0  0  0  0  0  0  0  0  0  0
  183.3100   21.7712   46.5229 H   0  0  0  0  0  0  0  0  0  0  0  0
  182.6187   19.8829   45.0434 H   0  0  0  0  0  0  0  0  0  0  0  0
  180.1070   18.9290   44.1150 H   0  0  0  0  0  0  0  0  0  0  0  0
  175.4600   20.5500   48.1790 H   0  0  0  0  0  0  0  0  0  0  0  0
  178.1818   21.3164   51.3531 H   0  0  0  0  0  0  0  0  0  0  0  0
  176.8231   22.5072   53.0383 H   0  0  0  0  0  0  0  0  0  0  0  0
  172.9270   23.8337   53.7936 H   0  0  0  0  0  0  0  0  0  0  0  0
  172.7130   24.7060   52.2379 H   0  0  0  0  0  0  0  0  0  0  0  0
  173.1371   22.9605   52.2379 H   0  0  0  0  0  0  0  0  0  0  0  0
  174.8237   26.2714   53.6615 H   0  0  0  0  0  0  0  0  0  0  0  0
  175.7196   26.1505   52.1093 H   0  0  0  0  0  0  0  0  0  0  0  0
  173.9237   26.1864   52.1093 H   0  0  0  0  0  0  0  0  0  0  0  0
  174.7688   24.2936   54.9272 H   0  0  0  0  0  0  0  0  0  0  0  0
  175.5198   22.8349   54.1958 H   0  0  0  0  0  0  0  0  0  0  0  0
  176.4062   24.3973   54.1958 H   0  0  0  0  0  0  0  0  0  0  0  0
  1  2  1  0
  2  3  2  0
  3  4  1  0
  4  5  1  0
  5  6  1  0
  6  7  1  0
  7  8  2  0
  8  9  1  0
  9 10  2  0
 10 11  1  0
 11 12  1  0
 11 13  2  0
 13 14  1  0
 14 15  2  0
 14 16  1  0
 16 17  1  0
  4 18  2  0
 18 19  1  0
 19 20  2  0
 20 21  1  0
 21 22  1  0
 21 23  1  0
 21 24  1  0
 20  2  1  0
 16  5  2  0
 13  7  1  0
  1 25  1  0
  1 26  1  0
  1 27  1  0
  3 28  1  0
  8 29  1  0
  9 30  1  0
 10 31  1  0
 12 32  1  0
 17 33  1  0
 18 34  1  0
 19 35  1  0
 22 36  1  0
 22 37  1  0
 22 38  1  0
 23 39  1  0
 23 40  1  0
 23 41  1  0
 24 42  1  0
 24 43  1  0
 24 44  1  0
M  END
>  <meeko>  (7) 
{"is_sidechain": [false], "free_energy": -7.221, "intermolecular_energy": -8.203, "internal_energy": -0.217}

$$$$
cand_043_out
     RDKit          3D

 44 46  0  0  0  0  0  0  0  0999 V2000
  183.8330   25.3610   47.5950 C   0  0  0  0  0  0  0  0  0  0  0  0
  183.2370   24.0210   47.2490 C   0  0  0  0  0  0  0  0  0  0  0  0
  182.0680   23.6750   47.9720 C   0  0  0  0  0  0  0  0  0  0  0  0
  181.3860   22.4710   47.7710 C   0  0  0  0  0  0  0  0  0  0  0  0
  180.1910   22.1480   48.5800 C   0  0  0  0  0  0  0  0  0  0  0  0
  179.0620   21.9060   47.8040 O   0  0  0  0  0  0  0  0  0  0  0  0
  177.8820   21.5950   48.4290 C   0  0  0  0  0  0  0  0  0  0  0  0
  176.7730   21.3740   47.6130 C   0  0  0  0  0  0  0  0  0  0  0  0
  175.5400   21.0510   48.1860 C   0  0  0  0  0  0  0  0  0  0  0  0
  175.4170   20.9500   49.5720 C   0  0  0  0  0  0  0  0  0  0  0  0
  176.5260   21.1710   50.3850 C   0  0  0  0  0  0  0  0  0  0  0  0
  176.3360   21.0560   51.7350 O   0  0  0  0  0  0  0  0  0  0  0  0
  177.7590   21.4950   49.8120 C   0  0  0  0  0  0  0  0  0  0  0  0
  178.9490   21.7360   50.6290 C   0  0  0  0  0  0  0  0  0  0  0  0
  178.9230   21.6580   51.8550 O   0  0  0  0  0  0  0  0  0  0  0  0
  180.2060   22.0800   49.9250 C   0  0  0  0  0  0  0  0  0  0  0  0
  181.3270   22.2920   50.7060 O   0  0  0  0  0  0  0  0  0  0  0  0
  181.9000   21.5900   46.8280 C   0  0  0  0  0  0  0  0  0  0  0  0
  183.0440   21.9190   46.0910 C   0  0  0  0  0  0  0  0  0  0  0  0
  183.7390   23.1420   46.2540 C   0  0  0  0  0  0  0  0  0  0  0  0
  184.9940   23.4150   45.3810 C   0  0  0  0  0  0  0  0  0  0  0  0
  184.8920   24.7260   44.5700 C   0  0  0  0  0  0  0  0  0  0  0  0
  185.2570   22.3090   44.3190 C   0  0  0  0  0  0  0  0  0  0  0  0
  186.2420   23.4530   46.2880 C   0  0  0  0  0  0  0  0  0  0  0  0
  183.8812   25.4695   48.6886 H   0  0  0  0  0  0  0  0  0  0  0  0
  184.8470   25.4309   47.1745 H   0  0  0  0  0  0  0  0  0  0  0  0
  183.2058   26.1609   47.1745 H   0  0  0  0  0  0  0  0  0  0  0  0
  181.6819   24.3819   48.7211 H   0  0  0  0  0  0  0  0  0  0  0  0
  176.8686   21.4538   46.5201 H   0  0  0  0  0  0  0  0  0  0  0  0
  174.6648   20.8761   47.5430 H   0  0  0  0  0  0  0  0  0  0  0  0
  174.4458   20.6963   50.0219 H   0  0  0  0  0  0  0  0  0  0  0  0
  176.3000   20.2090   52.1320 H   0  0  0  0  0  0  0  0  0  0  0  0
  181.2640   22.8160   51.4800 H   0  0  0  0  0  0  0  0  0  0  0  0
  181.4029   20.6235   46.6585 H   0  0  0  0  0  0  0  0  0  0  0  0
  183.4196   21.1954   45.3526 H   0  0  0  0  0  0  0  0  0  0  0  0
  184.8256   25.5799   45.2602 H   0  0  0  0  0  0  0  0  0  0  0  0
  185.7843   24.8354   43.9362 H   0  0  0  0  0  0  0  0  0  0  0  0
  183.9935   24.6961   43.9362 H   0  0  0  0  0  0  0  0  0  0  0  0
  185.4828   21.3596   44.8266 H   0  0  0  0  0  0  0  0  0  0  0  0
  184.3633   22.1849   43.6898 H   0  0  0  0  0  0  0  0  0  0  0  0
  186.1109   22.6005   43.6898 H   0  0  0  0  0  0  0  0  0  0  0  0
  185.9293   23.4435   47.3426 H   0  0  0  0  0  0  0  0  0  0  0  0
  186.8705   22.5736   46.0840 H   0  0  0  0  0  0  0  0  0  0  0  0
  186.8158   24.3690   46.0840 H   0  0  0  0  0  0  0  0  0  0  0  0
  1  2  1  0
  2  3  2  0
  3  4  1  0
  4  5  1  0
  5  6  1  0
  6  7  1  0
  7  8  2  0
  8  9  1  0
  9 10  2  0
 10 11  1  0
 11 12  1  0
 11 13  2  0
 13 14  1  0
 14 15  2  0
 14 16  1  0
 16 17  1  0
  4 18  2  0
 18 19  1  0
 19 20  2  0
 20 21  1  0
 21 22  1  0
 21 23  1  0
 21 24  1  0
 20  2  1  0
 16  5  2  0
 13  7  1  0
  1 25  1  0
  1 26  1  0
  1 27  1  0
  3 28  1  0
  8 29  1  0
  9 30  1  0
 10 31  1  0
 12 32  1  0
 17 33  1  0
 18 34  1  0
 19 35  1  0
 22 36  1  0
 22 37  1  0
 22 38  1  0
 23 39  1  0
 23 40  1  0
 23 41  1  0
 24 42  1  0
 24 43  1  0
 24 44  1  0
M  END
>  <meeko>  (8) 
{"is_sidechain": [false], "free_energy": -7.209, "intermolecular_energy": -8.328, "internal_energy": -0.077}

$$$$
cand_043_out
     RDKit          3D

 44 46  0  0  0  0  0  0  0  0999 V2000
  178.9830   20.4110   45.6740 C   0  0  0  0  0  0  0  0  0  0  0  0
  178.8550   20.9400   47.0790 C   0  0  0  0  0  0  0  0  0  0  0  0
  180.0090   21.5880   47.5860 C   0  0  0  0  0  0  0  0  0  0  0  0
  180.0600   22.1410   48.8700 C   0  0  0  0  0  0  0  0  0  0  0  0
  181.3040   22.7740   49.3590 C   0  0  0  0  0  0  0  0  0  0  0  0
  181.3730   24.1310   49.0600 O   0  0  0  0  0  0  0  0  0  0  0  0
  182.4760   24.8420   49.4560 C   0  0  0  0  0  0  0  0  0  0  0  0
  182.5100   26.1960   49.1220 C   0  0  0  0  0  0  0  0  0  0  0  0
  183.6050   26.9790   49.4970 C   0  0  0  0  0  0  0  0  0  0  0  0
  184.6640   26.4080   50.2050 C   0  0  0  0  0  0  0  0  0  0  0  0
  184.6270   25.0560   50.5370 C   0  0  0  0  0  0  0  0  0  0  0  0
  185.6980   24.5610   51.2310 O   0  0  0  0  0  0  0  0  0  0  0  0
  183.5330   24.2730   50.1600 C   0  0  0  0  0  0  0  0  0  0  0  0
  183.4550   22.8490   50.4890 C   0  0  0  0  0  0  0  0  0  0  0  0
  184.3440   22.2760   51.1150 O   0  0  0  0  0  0  0  0  0  0  0  0
  182.2550   22.1060   50.0380 C   0  0  0  0  0  0  0  0  0  0  0  0
  182.1870   20.7640   50.3650 O   0  0  0  0  0  0  0  0  0  0  0  0
  178.9270   22.0270   49.6650 C   0  0  0  0  0  0  0  0  0  0  0  0
  177.7710   21.4050   49.1770 C   0  0  0  0  0  0  0  0  0  0  0  0
  177.6820   20.8620   47.8730 C   0  0  0  0  0  0  0  0  0  0  0  0
  176.3510   20.1990   47.4240 C   0  0  0  0  0  0  0  0  0  0  0  0
  175.4800   19.7290   48.6120 C   0  0  0  0  0  0  0  0  0  0  0  0
  176.5590   18.9250   46.5550 C   0  0  0  0  0  0  0  0  0  0  0  0
  175.5580   21.1960   46.5530 C   0  0  0  0  0  0  0  0  0  0  0  0
  179.2416   19.3423   45.7067 H   0  0  0  0  0  0  0  0  0  0  0  0
  178.0275   20.5410   45.1448 H   0  0  0  0  0  0  0  0  0  0  0  0
  179.7734   20.9635   45.1448 H   0  0  0  0  0  0  0  0  0  0  0  0
  180.8998   21.6589   46.9445 H   0  0  0  0  0  0  0  0  0  0  0  0
  181.6759   26.6467   48.5642 H   0  0  0  0  0  0  0  0  0  0  0  0
  183.6325   28.0467   49.2340 H   0  0  0  0  0  0  0  0  0  0  0  0
  185.5258   27.0246   50.5000 H   0  0  0  0  0  0  0  0  0  0  0  0
  186.3540   24.0610   50.7860 H   0  0  0  0  0  0  0  0  0  0  0  0
  182.6330   20.1320   49.8370 H   0  0  0  0  0  0  0  0  0  0  0  0
  178.9377   22.4295   50.6887 H   0  0  0  0  0  0  0  0  0  0  0  0
  176.8933   21.3354   49.8364 H   0  0  0  0  0  0  0  0  0  0  0  0
  175.9747   19.9959   49.5575 H   0  0  0  0  0  0  0  0  0  0  0  0
  174.4963   20.2188   48.5618 H   0  0  0  0  0  0  0  0  0  0  0  0
  175.3493   18.6379   48.5618 H   0  0  0  0  0  0  0  0  0  0  0  0
  176.7013   18.0532   47.2106 H   0  0  0  0  0  0  0  0  0  0  0  0
  175.6749   18.7659   45.9201 H   0  0  0  0  0  0  0  0  0  0  0  0
  177.4478   19.0553   45.9201 H   0  0  0  0  0  0  0  0  0  0  0  0
  175.0052   21.8910   47.2022 H   0  0  0  0  0  0  0  0  0  0  0  0
  176.2547   21.7629   45.9180 H   0  0  0  0  0  0  0  0  0  0  0  0
  174.8489   20.6447   45.9180 H   0  0  0  0  0  0  0  0  0  0  0  0
  1  2  1  0
  2  3  2  0
  3  4  1  0
  4  5  1  0
  5  6  1  0
  6  7  1  0
  7  8  2  0
  8  9  1  0
  9 10  2  0
 10 11  1  0
 11 12  1  0
 11 13  2  0
 13 14  1  0
 14 15  2  0
 14 16  1  0
 16 17  1  0
  4 18  2  0
 18 19  1  0
 19 20  2  0
 20 21  1  0
 21 22  1  0
 21 23  1  0
 21 24  1  0
 20  2  1  0
 16  5  2  0
 13  7  1  0
  1 25  1  0
  1 26  1  0
  1 27  1  0
  3 28  1  0
  8 29  1  0
  9 30  1  0
 10 31  1  0
 12 32  1  0
 17 33  1  0
 18 34  1  0
 19 35  1  0
 22 36  1  0
 22 37  1  0
 22 38  1  0
 23 39  1  0
 23 40  1  0
 23 41  1  0
 24 42  1  0
 24 43  1  0
 24 44  1  0
M  END
>  <meeko>  (9) 
{"is_sidechain": [false], "free_energy": -7.195, "intermolecular_energy": -8.291, "internal_energy": -0.098}

$$$$
