
     RDKit          3D

 16 17  0  0  0  0  0  0  0  0999 V2000
    3.7038   -0.2671   -0.0869 O   0  0  0  0  0  0  0  0  0  0  0  0
    2.4972   -0.1737   -0.0577 C   0  0  0  0  0  0  0  0  0  0  0  0
    1.5603   -1.1808   -0.1835 N   0  0  0  0  0  0  0  0  0  0  0  0
    0.2680   -0.6723   -0.0961 C   0  0  0  0  0  0  0  0  0  0  0  0
   -0.9136   -1.3775   -0.1771 C   0  0  0  0  0  0  0  0  0  0  0  0
   -2.1054   -0.6509   -0.0611 C   0  0  0  0  0  0  0  0  0  0  0  0
   -2.0927    0.7468    0.1310 C   0  0  0  0  0  0  0  0  0  0  0  0
   -0.8866    1.4468    0.2110 C   0  0  0  0  0  0  0  0  0  0  0  0
    0.2727    0.7078    0.0937 C   0  0  0  0  0  0  0  0  0  0  0  0
    1.6739    1.1316    0.1330 C   0  0  0  0  0  0  0  0  0  0  0  0
    2.0955    2.2548    0.2818 O   0  0  0  0  0  0  0  0  0  0  0  0
    1.8124   -2.1485   -0.3201 H   0  0  0  0  0  0  0  0  0  0  0  0
   -0.9321   -2.4516   -0.3246 H   0  0  0  0  0  0  0  0  0  0  0  0
   -3.0602   -1.1712   -0.1197 H   0  0  0  0  0  0  0  0  0  0  0  0
   -3.0353    1.2846    0.2178 H   0  0  0  0  0  0  0  0  0  0  0  0
   -0.8579    2.5214    0.3584 H   0  0  0  0  0  0  0  0  0  0  0  0
  1  2  2  0
  2  3  1  0
  3  4  1  0
  4  5  2  0
  5  6  1  0
  6  7  2  0
  7  8  1  0
  8  9  2  0
  9 10  1  0
 10 11  2  0
 10  2  1  0
  9  4  1  0
  3 12  1  0
  5 13  1  0
  6 14  1  0
  7 15  1  0
  8 16  1  0
M  END
$$$$
