cand_034_out
     RDKit          3D

 40 42  0  0  0  0  0  0  0  0999 V2000
   48.1090  160.9750   30.9290 C   0  0  0  0  0  0  0  0  0  0  0  0
   49.2620  160.3350   31.5720 N   0  0  0  0  0  0  0  0  0  0  0  0
   48.9990  159.8960   32.9500 C   0  0  0  0  0  0  0  0  0  0  0  0
   49.8570  159.2990   30.8200 C   0  0  0  0  0  0  0  0  0  0  0  0
   49.1760  158.1100   30.5140 C   0  0  0  0  0  0  0  0  0  0  0  0
   49.7940  157.0860   29.7860 C   0  0  0  0  0  0  0  0  0  0  0  0
   51.1110  157.2180   29.3410 C   0  0  0  0  0  0  0  0  0  0  0  0
   51.7980  156.1390   28.5990 C   0  0  0  0  0  0  0  0  0  0  0  0
   52.3330  156.5700   27.3900 O   0  0  0  0  0  0  0  0  0  0  0  0
   52.9940  155.6670   26.5980 C   0  0  0  0  0  0  0  0  0  0  0  0
   53.5230  156.1460   25.3990 C   0  0  0  0  0  0  0  0  0  0  0  0
   54.2080  155.2790   24.5440 C   0  0  0  0  0  0  0  0  0  0  0  0
   54.3620  153.9350   24.8880 C   0  0  0  0  0  0  0  0  0  0  0  0
   53.8320  153.4590   26.0850 C   0  0  0  0  0  0  0  0  0  0  0  0
   54.0190  152.1320   26.3600 O   0  0  0  0  0  0  0  0  0  0  0  0
   53.1480  154.3280   26.9400 C   0  0  0  0  0  0  0  0  0  0  0  0
   52.5740  153.8690   28.2060 C   0  0  0  0  0  0  0  0  0  0  0  0
   52.6630  152.7000   28.5750 O   0  0  0  0  0  0  0  0  0  0  0  0
   51.8720  154.8700   29.0420 C   0  0  0  0  0  0  0  0  0  0  0  0
   51.3210  154.4220   30.2290 O   0  0  0  0  0  0  0  0  0  0  0  0
   51.8000  158.3970   29.6560 C   0  0  0  0  0  0  0  0  0  0  0  0
   51.1870  159.4400   30.3790 C   0  0  0  0  0  0  0  0  0  0  0  0
   51.9780  160.6840   30.6900 C   0  0  0  0  0  0  0  0  0  0  0  0
   51.9320  161.0220   32.0150 F   0  0  0  0  0  0  0  0  0  0  0  0
   51.5060  161.7810   30.0280 F   0  0  0  0  0  0  0  0  0  0  0  0
   47.4234  161.3555   31.7005 H   0  0  0  0  0  0  0  0  0  0  0  0
   48.4554  161.8099   30.3022 H   0  0  0  0  0  0  0  0  0  0  0  0
   47.5837  160.2394   30.3022 H   0  0  0  0  0  0  0  0  0  0  0  0
   49.4330  160.6205   33.6548 H   0  0  0  0  0  0  0  0  0  0  0  0
   47.9131  159.8311   33.1132 H   0  0  0  0  0  0  0  0  0  0  0  0
   49.4540  158.9079   33.1132 H   0  0  0  0  0  0  0  0  0  0  0  0
   48.1374  157.9805   30.8525 H   0  0  0  0  0  0  0  0  0  0  0  0
   49.2348  156.1657   29.5617 H   0  0  0  0  0  0  0  0  0  0  0  0
   53.4009  157.2049   25.1273 H   0  0  0  0  0  0  0  0  0  0  0  0
   54.6263  155.6558   23.5990 H   0  0  0  0  0  0  0  0  0  0  0  0
   54.9013  153.2525   24.2146 H   0  0  0  0  0  0  0  0  0  0  0  0
   54.7120  151.8650   26.9310 H   0  0  0  0  0  0  0  0  0  0  0  0
   50.8270  155.0100   30.7650 H   0  0  0  0  0  0  0  0  0  0  0  0
   52.8447  158.5112   29.3310 H   0  0  0  0  0  0  0  0  0  0  0  0
   53.0012  160.4297   30.3764 H   0  0  0  0  0  0  0  0  0  0  0  0
  1  2  1  0
  2  3  1  0
  2  4  1  0
  4  5  2  0
  5  6  1  0
  6  7  2  0
  7  8  1  0
  8  9  1  0
  9 10  1  0
 10 11  2  0
 11 12  1  0
 12 13  2  0
 13 14  1  0
 14 15  1  0
 14 16  2  0
 16 17  1  0
 17 18  2  0
 17 19  1  0
 19 20  1  0
  7 21  1  0
 21 22  2  0
 22 23  1  0
 23 24  1  0
 23 25  1  0
 22  4  1  0
 19  8  2  0
 16 10  1  0
  1 26  1  0
  1 27  1  0
  1 28  1  0
  3 29  1  0
  3 30  1  0
  3 31  1  0
  5 32  1  0
  6 33  1  0
 11 34  1  0
 12 35  1  0
 13 36  1  0
 15 37  1  0
 20 38  1  0
 21 39  1  0
 23 40  1  0
M  END
>  <meeko>  (1) 
{"is_sidechain": [false], "free_energy": -10.616, "intermolecular_energy": -13.098, "internal_energy": -0.218}

$$$$
cand_034_out
     RDKit          3D

 40 42  0  0  0  0  0  0  0  0999 V2000
   51.0240  161.4380   32.0420 C   0  0  0  0  0  0  0  0  0  0  0  0
   50.0310  160.6380   31.3180 N   0  0  0  0  0  0  0  0  0  0  0  0
   49.1750  161.4310   30.4230 C   0  0  0  0  0  0  0  0  0  0  0  0
   50.5560  159.5130   30.6440 C   0  0  0  0  0  0  0  0  0  0  0  0
   51.8320  159.5190   30.0600 C   0  0  0  0  0  0  0  0  0  0  0  0
   52.3230  158.4000   29.3780 C   0  0  0  0  0  0  0  0  0  0  0  0
   51.5550  157.2390   29.2580 C   0  0  0  0  0  0  0  0  0  0  0  0
   52.0370  156.0550   28.5150 C   0  0  0  0  0  0  0  0  0  0  0  0
   52.5540  156.3760   27.2650 O   0  0  0  0  0  0  0  0  0  0  0  0
   53.0320  155.3690   26.4660 C   0  0  0  0  0  0  0  0  0  0  0  0
   53.5500  155.7390   25.2240 C   0  0  0  0  0  0  0  0  0  0  0  0
   54.0530  154.7630   24.3610 C   0  0  0  0  0  0  0  0  0  0  0  0
   54.0370  153.4190   24.7390 C   0  0  0  0  0  0  0  0  0  0  0  0
   53.5190  153.0530   25.9790 C   0  0  0  0  0  0  0  0  0  0  0  0
   53.5340  151.7200   26.2870 O   0  0  0  0  0  0  0  0  0  0  0  0
   53.0170  154.0310   26.8430 C   0  0  0  0  0  0  0  0  0  0  0  0
   52.4620  153.6900   28.1540 C   0  0  0  0  0  0  0  0  0  0  0  0
   52.4070  152.5290   28.5550 O   0  0  0  0  0  0  0  0  0  0  0  0
   51.9590  154.8000   28.9940 C   0  0  0  0  0  0  0  0  0  0  0  0
   51.4230  154.4650   30.2240 O   0  0  0  0  0  0  0  0  0  0  0  0
   50.2740  157.2340   29.8270 C   0  0  0  0  0  0  0  0  0  0  0  0
   49.7720  158.3500   30.5260 C   0  0  0  0  0  0  0  0  0  0  0  0
   48.3870  158.2860   31.1160 C   0  0  0  0  0  0  0  0  0  0  0  0
   47.4730  159.0090   30.3980 F   0  0  0  0  0  0  0  0  0  0  0  0
   48.3330  158.8020   32.3780 F   0  0  0  0  0  0  0  0  0  0  0  0
   50.8736  161.3168   33.1249 H   0  0  0  0  0  0  0  0  0  0  0  0
   52.0351  161.0993   31.7721 H   0  0  0  0  0  0  0  0  0  0  0  0
   50.9082  162.4981   31.7721 H   0  0  0  0  0  0  0  0  0  0  0  0
   48.4985  162.0577   31.0228 H   0  0  0  0  0  0  0  0  0  0  0  0
   49.8035  162.0731   29.7884 H   0  0  0  0  0  0  0  0  0  0  0  0
   48.5827  160.7554   29.7884 H   0  0  0  0  0  0  0  0  0  0  0  0
   52.4579  160.4200   30.1398 H   0  0  0  0  0  0  0  0  0  0  0  0
   53.3272  158.4349   28.9303 H   0  0  0  0  0  0  0  0  0  0  0  0
   53.5621  156.7976   24.9253 H   0  0  0  0  0  0  0  0  0  0  0  0
   54.4623  155.0535   23.3822 H   0  0  0  0  0  0  0  0  0  0  0  0
   54.4328  152.6506   24.0587 H   0  0  0  0  0  0  0  0  0  0  0  0
   52.7470  151.2150   26.2210 H   0  0  0  0  0  0  0  0  0  0  0  0
   51.8760  153.8660   30.7840 H   0  0  0  0  0  0  0  0  0  0  0  0
   49.6452  156.3371   29.7255 H   0  0  0  0  0  0  0  0  0  0  0  0
   48.1473  157.2125   31.1061 H   0  0  0  0  0  0  0  0  0  0  0  0
  1  2  1  0
  2  3  1  0
  2  4  1  0
  4  5  2  0
  5  6  1  0
  6  7  2  0
  7  8  1  0
  8  9  1  0
  9 10  1  0
 10 11  2  0
 11 12  1  0
 12 13  2  0
 13 14  1  0
 14 15  1  0
 14 16  2  0
 16 17  1  0
 17 18  2  0
 17 19  1  0
 19 20  1  0
  7 21  1  0
 21 22  2  0
 22 23  1  0
 23 24  1  0
 23 25  1  0
 22  4  1  0
 19  8  2  0
 16 10  1  0
  1 26  1  0
  1 27  1  0
  1 28  1  0
  3 29  1  0
  3 30  1  0
  3 31  1  0
  5 32  1  0
  6 33  1  0
 11 34  1  0
 12 35  1  0
 13 36  1  0
 15 37  1  0
 20 38  1  0
 21 39  1  0
 23 40  1  0
M  END
>  <meeko>  (2) 
{"is_sidechain": [false], "free_energy": -10.588, "intermolecular_energy": -13.564, "internal_energy": 0.283}

$$$$
cand_034_out
     RDKit          3D

 40 42  0  0  0  0  0  0  0  0999 V2000
   54.0430  153.1970   26.5220 C   0  0  0  0  0  0  0  0  0  0  0  0
   52.6120  153.5180   26.5500 N   0  0  0  0  0  0  0  0  0  0  0  0
   51.7550  152.3600   26.8400 C   0  0  0  0  0  0  0  0  0  0  0  0
   52.2690  154.6160   27.3690 C   0  0  0  0  0  0  0  0  0  0  0  0
   51.5340  154.4630   28.5550 C   0  0  0  0  0  0  0  0  0  0  0  0
   51.1850  155.5680   29.3400 C   0  0  0  0  0  0  0  0  0  0  0  0
   51.5600  156.8600   28.9660 C   0  0  0  0  0  0  0  0  0  0  0  0
   51.1770  158.0470   29.7600 C   0  0  0  0  0  0  0  0  0  0  0  0
   49.8550  158.0050   30.1900 O   0  0  0  0  0  0  0  0  0  0  0  0
   49.3660  159.0480   30.9340 C   0  0  0  0  0  0  0  0  0  0  0  0
   48.0370  158.9590   31.3510 C   0  0  0  0  0  0  0  0  0  0  0  0
   47.4760  159.9870   32.1120 C   0  0  0  0  0  0  0  0  0  0  0  0
   48.2420  161.1030   32.4530 C   0  0  0  0  0  0  0  0  0  0  0  0
   49.5670  161.1910   32.0340 C   0  0  0  0  0  0  0  0  0  0  0  0
   50.2600  162.3110   32.4030 O   0  0  0  0  0  0  0  0  0  0  0  0
   50.1290  160.1600   31.2740 C   0  0  0  0  0  0  0  0  0  0  0  0
   51.5160  160.2120   30.8120 C   0  0  0  0  0  0  0  0  0  0  0  0
   52.2520  161.1630   31.0660 O   0  0  0  0  0  0  0  0  0  0  0  0
   52.0160  159.0680   30.0160 C   0  0  0  0  0  0  0  0  0  0  0  0
   53.3240  159.1340   29.5720 O   0  0  0  0  0  0  0  0  0  0  0  0
   52.2820  157.0200   27.7750 C   0  0  0  0  0  0  0  0  0  0  0  0
   52.6490  155.9150   26.9800 C   0  0  0  0  0  0  0  0  0  0  0  0
   53.4240  156.1480   25.7100 C   0  0  0  0  0  0  0  0  0  0  0  0
   54.4240  157.0690   25.8630 F   0  0  0  0  0  0  0  0  0  0  0  0
   52.6420  156.6370   24.7040 F   0  0  0  0  0  0  0  0  0  0  0  0
   54.4200  153.1124   27.5519 H   0  0  0  0  0  0  0  0  0  0  0  0
   54.1945  152.2426   25.9965 H   0  0  0  0  0  0  0  0  0  0  0  0
   54.5876  153.9953   25.9965 H   0  0  0  0  0  0  0  0  0  0  0  0
   51.6629  152.2356   27.9291 H   0  0  0  0  0  0  0  0  0  0  0  0
   50.7583  152.5231   26.4040 H   0  0  0  0  0  0  0  0  0  0  0  0
   52.2022  151.4545   26.4040 H   0  0  0  0  0  0  0  0  0  0  0  0
   51.2266  153.4560   28.8734 H   0  0  0  0  0  0  0  0  0  0  0  0
   50.6076  155.4166   30.2639 H   0  0  0  0  0  0  0  0  0  0  0  0
   47.4324  158.0807   31.0807 H   0  0  0  0  0  0  0  0  0  0  0  0
   46.4293  159.9171   32.4430 H   0  0  0  0  0  0  0  0  0  0  0  0
   47.7993  161.9123   33.0522 H   0  0  0  0  0  0  0  0  0  0  0  0
   51.0550  162.2300   32.8920 H   0  0  0  0  0  0  0  0  0  0  0  0
   54.0230  159.2330   30.1880 H   0  0  0  0  0  0  0  0  0  0  0  0
   52.5690  158.0319   27.4531 H   0  0  0  0  0  0  0  0  0  0  0  0
   53.8279  155.1551   25.4630 H   0  0  0  0  0  0  0  0  0  0  0  0
  1  2  1  0
  2  3  1  0
  2  4  1  0
  4  5  2  0
  5  6  1  0
  6  7  2  0
  7  8  1  0
  8  9  1  0
  9 10  1  0
 10 11  2  0
 11 12  1  0
 12 13  2  0
 13 14  1  0
 14 15  1  0
 14 16  2  0
 16 17  1  0
 17 18  2  0
 17 19  1  0
 19 20  1  0
  7 21  1  0
 21 22  2  0
 22 23  1  0
 23 24  1  0
 23 25  1  0
 22  4  1  0
 19  8  2  0
 16 10  1  0
  1 26  1  0
  1 27  1  0
  1 28  1  0
  3 29  1  0
  3 30  1  0
  3 31  1  0
  5 32  1  0
  6 33  1  0
 11 34  1  0
 12 35  1  0
 13 36  1  0
 15 37  1  0
 20 38  1  0
 21 39  1  0
 23 40  1  0
M  END
>  <meeko>  (3) 
{"is_sidechain": [false], "free_energy": -9.877, "intermolecular_energy": -12.528, "internal_energy": 0.124}

$$$$
cand_034_out
     RDKit          3D

 40 42  0  0  0  0  0  0  0  0999 V2000
   52.3940  153.3430   25.7380 C   0  0  0  0  0  0  0  0  0  0  0  0
   53.4000  154.2260   26.3380 N   0  0  0  0  0  0  0  0  0  0  0  0
   54.3720  154.7550   25.3690 C   0  0  0  0  0  0  0  0  0  0  0  0
   52.8740  155.2630   27.1390 C   0  0  0  0  0  0  0  0  0  0  0  0
   52.9790  156.6140   26.7770 C   0  0  0  0  0  0  0  0  0  0  0  0
   52.4700  157.6280   27.5970 C   0  0  0  0  0  0  0  0  0  0  0  0
   51.8390  157.3220   28.8050 C   0  0  0  0  0  0  0  0  0  0  0  0
   51.3230  158.3750   29.7060 C   0  0  0  0  0  0  0  0  0  0  0  0
   49.9820  158.1990   30.0300 O   0  0  0  0  0  0  0  0  0  0  0  0
   49.3740  159.1090   30.8560 C   0  0  0  0  0  0  0  0  0  0  0  0
   48.0300  158.8860   31.1610 C   0  0  0  0  0  0  0  0  0  0  0  0
   47.3500  159.7750   31.9970 C   0  0  0  0  0  0  0  0  0  0  0  0
   48.0120  160.8850   32.5250 C   0  0  0  0  0  0  0  0  0  0  0  0
   49.3520  161.1060   32.2170 C   0  0  0  0  0  0  0  0  0  0  0  0
   49.9390  162.2120   32.7680 O   0  0  0  0  0  0  0  0  0  0  0  0
   50.0330  160.2150   31.3820 C   0  0  0  0  0  0  0  0  0  0  0  0
   51.4410  160.4080   31.0320 C   0  0  0  0  0  0  0  0  0  0  0  0
   52.0900  161.3640   31.4520 O   0  0  0  0  0  0  0  0  0  0  0  0
   52.0700  159.4060   30.1440 C   0  0  0  0  0  0  0  0  0  0  0  0
   53.3970  159.6080   29.8070 O   0  0  0  0  0  0  0  0  0  0  0  0
   51.7450  155.9740   29.1790 C   0  0  0  0  0  0  0  0  0  0  0  0
   52.2440  154.9440   28.3570 C   0  0  0  0  0  0  0  0  0  0  0  0
   52.1140  153.5130   28.8110 C   0  0  0  0  0  0  0  0  0  0  0  0
   51.1190  152.8400   28.1550 F   0  0  0  0  0  0  0  0  0  0  0  0
   51.7970  153.4130   30.1340 F   0  0  0  0  0  0  0  0  0  0  0  0
   51.8237  152.8425   26.5344 H   0  0  0  0  0  0  0  0  0  0  0  0
   51.7095  153.9372   25.1148 H   0  0  0  0  0  0  0  0  0  0  0  0
   52.8944  152.5872   25.1148 H   0  0  0  0  0  0  0  0  0  0  0  0
   55.2144  155.2135   25.9077 H   0  0  0  0  0  0  0  0  0  0  0  0
   54.7436  153.9347   24.7373 H   0  0  0  0  0  0  0  0  0  0  0  0
   53.8849  155.5125   24.7373 H   0  0  0  0  0  0  0  0  0  0  0  0
   53.4709  156.8820   25.8303 H   0  0  0  0  0  0  0  0  0  0  0  0
   52.5682  158.6786   27.2862 H   0  0  0  0  0  0  0  0  0  0  0  0
   47.5077  158.0123   30.7440 H   0  0  0  0  0  0  0  0  0  0  0  0
   46.2914  159.6002   32.2396 H   0  0  0  0  0  0  0  0  0  0  0  0
   47.4758  161.5842   33.1835 H   0  0  0  0  0  0  0  0  0  0  0  0
   49.8080  163.0540   32.3790 H   0  0  0  0  0  0  0  0  0  0  0  0
   53.8880  160.2830   30.2310 H   0  0  0  0  0  0  0  0  0  0  0  0
   51.2705  155.7143   30.1368 H   0  0  0  0  0  0  0  0  0  0  0  0
   53.1014  153.0780   28.5969 H   0  0  0  0  0  0  0  0  0  0  0  0
  1  2  1  0
  2  3  1  0
  2  4  1  0
  4  5  2  0
  5  6  1  0
  6  7  2  0
  7  8  1  0
  8  9  1  0
  9 10  1  0
 10 11  2  0
 11 12  1  0
 12 13  2  0
 13 14  1  0
 14 15  1  0
 14 16  2  0
 16 17  1  0
 17 18  2  0
 17 19  1  0
 19 20  1  0
  7 21  1  0
 21 22  2  0
 22 23  1  0
 23 24  1  0
 23 25  1  0
 22  4  1  0
 19  8  2  0
 16 10  1  0
  1 26  1  0
  1 27  1  0
  1 28  1  0
  3 29  1  0
  3 30  1  0
  3 31  1  0
  5 32  1  0
  6 33  1  0
 11 34  1  0
 12 35  1  0
 13 36  1  0
 15 37  1  0
 20 38  1  0
 21 39  1  0
 23 40  1  0
M  END
>  <meeko>  (4) 
{"is_sidechain": [false], "free_energy": -8.853, "intermolecular_energy": -11.482, "internal_energy": 0.342}

$$$$
cand_034_out
     RDKit          3D

 40 42  0  0  0  0  0  0  0  0999 V2000
   55.7970  152.5790   25.7710 C   0  0  0  0  0  0  0  0  0  0  0  0
   54.5620  153.1400   25.2150 N   0  0  0  0  0  0  0  0  0  0  0  0
   53.6760  152.1320   24.6130 C   0  0  0  0  0  0  0  0  0  0  0  0
   53.8430  153.9770   26.0960 C   0  0  0  0  0  0  0  0  0  0  0  0
   53.2370  153.4890   27.2640 C   0  0  0  0  0  0  0  0  0  0  0  0
   52.5100  154.3340   28.1120 C   0  0  0  0  0  0  0  0  0  0  0  0
   52.3670  155.6920   27.8200 C   0  0  0  0  0  0  0  0  0  0  0  0
   51.5780  156.5980   28.6810 C   0  0  0  0  0  0  0  0  0  0  0  0
   52.2570  157.7690   28.9990 O   0  0  0  0  0  0  0  0  0  0  0  0
   51.6400  158.6970   29.7970 C   0  0  0  0  0  0  0  0  0  0  0  0
   52.3550  159.8610   30.0830 C   0  0  0  0  0  0  0  0  0  0  0  0
   51.7860  160.8480   30.8910 C   0  0  0  0  0  0  0  0  0  0  0  0
   50.5040  160.6710   31.4140 C   0  0  0  0  0  0  0  0  0  0  0  0
   49.7920  159.5080   31.1280 C   0  0  0  0  0  0  0  0  0  0  0  0
   48.5420  159.3980   31.6730 O   0  0  0  0  0  0  0  0  0  0  0  0
   50.3630  158.5210   30.3180 C   0  0  0  0  0  0  0  0  0  0  0  0
   49.6510  157.2840   29.9940 C   0  0  0  0  0  0  0  0  0  0  0  0
   48.5220  157.0520   30.4220 O   0  0  0  0  0  0  0  0  0  0  0  0
   50.3410  156.3040   29.1250 C   0  0  0  0  0  0  0  0  0  0  0  0
   49.6660  155.1320   28.8390 O   0  0  0  0  0  0  0  0  0  0  0  0
   52.9580  156.1810   26.6460 C   0  0  0  0  0  0  0  0  0  0  0  0
   53.7010  155.3440   25.7900 C   0  0  0  0  0  0  0  0  0  0  0  0
   54.3130  155.9260   24.5420 C   0  0  0  0  0  0  0  0  0  0  0  0
   55.6410  155.6200   24.4130 F   0  0  0  0  0  0  0  0  0  0  0  0
   54.2600  157.2890   24.5230 F   0  0  0  0  0  0  0  0  0  0  0  0
   55.7478  152.6014   26.8697 H   0  0  0  0  0  0  0  0  0  0  0  0
   55.9135  151.5396   25.4303 H   0  0  0  0  0  0  0  0  0  0  0  0
   56.6564  153.1751   25.4303 H   0  0  0  0  0  0  0  0  0  0  0  0
   53.1749  151.5619   25.4092 H   0  0  0  0  0  0  0  0  0  0  0  0
   52.9207  152.6331   23.9898 H   0  0  0  0  0  0  0  0  0  0  0  0
   54.2698  151.4472   23.9898 H   0  0  0  0  0  0  0  0  0  0  0  0
   53.3348  152.4232   27.5181 H   0  0  0  0  0  0  0  0  0  0  0  0
   52.0455  153.9224   29.0202 H   0  0  0  0  0  0  0  0  0  0  0  0
   53.3658  160.0009   29.6724 H   0  0  0  0  0  0  0  0  0  0  0  0
   52.3489  161.7660   31.1155 H   0  0  0  0  0  0  0  0  0  0  0  0
   50.0566  161.4484   32.0508 H   0  0  0  0  0  0  0  0  0  0  0  0
   48.0610  160.1690   31.9000 H   0  0  0  0  0  0  0  0  0  0  0  0
   48.7760  155.0260   29.1130 H   0  0  0  0  0  0  0  0  0  0  0  0
   52.8387  157.2434   26.3872 H   0  0  0  0  0  0  0  0  0  0  0  0
   53.7190  155.4856   23.7276 H   0  0  0  0  0  0  0  0  0  0  0  0
  1  2  1  0
  2  3  1  0
  2  4  1  0
  4  5  2  0
  5  6  1  0
  6  7  2  0
  7  8  1  0
  8  9  1  0
  9 10  1  0
 10 11  2  0
 11 12  1  0
 12 13  2  0
 13 14  1  0
 14 15  1  0
 14 16  2  0
 16 17  1  0
 17 18  2  0
 17 19  1  0
 19 20  1  0
  7 21  1  0
 21 22  2  0
 22 23  1  0
 23 24  1  0
 23 25  1  0
 22  4  1  0
 19  8  2  0
 16 10  1  0
  1 26  1  0
  1 27  1  0
  1 28  1  0
  3 29  1  0
  3 30  1  0
  3 31  1  0
  5 32  1  0
  6 33  1  0
 11 34  1  0
 12 35  1  0
 13 36  1  0
 15 37  1  0
 20 38  1  0
 21 39  1  0
 23 40  1  0
M  END
>  <meeko>  (5) 
{"is_sidechain": [false], "free_energy": -7.883, "intermolecular_energy": -9.736, "internal_energy": -0.208}

$$$$
