cand_042_out
     RDKit          3D

 38 40  0  0  0  0  0  0  0  0999 V2000
   49.9890  161.1260   33.0720 C   0  0  0  0  0  0  0  0  0  0  0  0
   49.9170  161.2540   31.5580 C   0  0  0  0  0  0  0  0  0  0  0  0
   50.3970  160.0010   30.8600 C   0  0  0  0  0  0  0  0  0  0  0  0
   51.7210  159.9610   30.3950 C   0  0  0  0  0  0  0  0  0  0  0  0
   52.2190  158.8360   29.7340 C   0  0  0  0  0  0  0  0  0  0  0  0
   51.4100  157.7170   29.5240 C   0  0  0  0  0  0  0  0  0  0  0  0
   51.9030  156.5220   28.8060 C   0  0  0  0  0  0  0  0  0  0  0  0
   52.4580  156.8250   27.5680 O   0  0  0  0  0  0  0  0  0  0  0  0
   52.9550  155.8070   26.7970 C   0  0  0  0  0  0  0  0  0  0  0  0
   53.5160  156.1590   25.5680 C   0  0  0  0  0  0  0  0  0  0  0  0
   54.0400  155.1700   24.7320 C   0  0  0  0  0  0  0  0  0  0  0  0
   54.0020  153.8300   25.1240 C   0  0  0  0  0  0  0  0  0  0  0  0
   53.4420  153.4820   26.3510 C   0  0  0  0  0  0  0  0  0  0  0  0
   53.4360  152.1520   26.6710 O   0  0  0  0  0  0  0  0  0  0  0  0
   52.9190  154.4720   27.1870 C   0  0  0  0  0  0  0  0  0  0  0  0
   52.3210  154.1490   28.4830 C   0  0  0  0  0  0  0  0  0  0  0  0
   52.2450  152.9930   28.8940 O   0  0  0  0  0  0  0  0  0  0  0  0
   51.8030  155.2720   29.2970 C   0  0  0  0  0  0  0  0  0  0  0  0
   51.2300  154.9540   30.5150 O   0  0  0  0  0  0  0  0  0  0  0  0
   50.0810  157.7620   29.9750 C   0  0  0  0  0  0  0  0  0  0  0  0
   49.5610  158.8910   30.6350 C   0  0  0  0  0  0  0  0  0  0  0  0
   48.1330  158.8610   31.1060 C   0  0  0  0  0  0  0  0  0  0  0  0
   49.5003  161.9948   33.5371 H   0  0  0  0  0  0  0  0  0  0  0  0
   49.4766  160.2050   33.3869 H   0  0  0  0  0  0  0  0  0  0  0  0
   51.0422  161.0857   33.3869 H   0  0  0  0  0  0  0  0  0  0  0  0
   48.8735  161.4451   31.2670 H   0  0  0  0  0  0  0  0  0  0  0  0
   50.5727  162.0838   31.2556 H   0  0  0  0  0  0  0  0  0  0  0  0
   52.3768  160.8297   30.5538 H   0  0  0  0  0  0  0  0  0  0  0  0
   53.2588  158.8312   29.3752 H   0  0  0  0  0  0  0  0  0  0  0  0
   53.5454  157.2141   25.2582 H   0  0  0  0  0  0  0  0  0  0  0  0
   54.4830  155.4469   23.7640 H   0  0  0  0  0  0  0  0  0  0  0  0
   54.4134  153.0511   24.4652 H   0  0  0  0  0  0  0  0  0  0  0  0
   52.6290  151.6770   26.6860 H   0  0  0  0  0  0  0  0  0  0  0  0
   50.3290  154.7000   30.5570 H   0  0  0  0  0  0  0  0  0  0  0  0
   49.4291  156.8918   29.8080 H   0  0  0  0  0  0  0  0  0  0  0  0
   48.1096  158.8605   32.2058 H   0  0  0  0  0  0  0  0  0  0  0  0
   47.6036  159.7482   30.7284 H   0  0  0  0  0  0  0  0  0  0  0  0
   47.6414  157.9523   30.7284 H   0  0  0  0  0  0  0  0  0  0  0  0
  1  2  1  0
  2  3  1  0
  3  4  2  0
  4  5  1  0
  5  6  2  0
  6  7  1  0
  7  8  1  0
  8  9  1  0
  9 10  2  0
 10 11  1  0
 11 12  2  0
 12 13  1  0
 13 14  1  0
 13 15  2  0
 15 16  1  0
 16 17  2  0
 16 18  1  0
 18 19  1  0
  6 20  1  0
 20 21  2  0
 21 22  1  0
 21  3  1  0
 18  7  2  0
 15  9  1  0
  1 23  1  0
  1 24  1  0
  1 25  1  0
  2 26  1  0
  2 27  1  0
  4 28  1  0
  5 29  1  0
 10 30  1  0
 11 31  1  0
 12 32  1  0
 14 33  1  0
 19 34  1  0
 20 35  1  0
 22 36  1  0
 22 37  1  0
 22 38  1  0
M  END
>  <meeko>  (1) 
{"is_sidechain": [false], "free_energy": -11.404, "intermolecular_energy": -13.404, "internal_energy": -0.159}

$$$$
cand_042_out
     RDKit          3D

 38 40  0  0  0  0  0  0  0  0999 V2000
   49.1250  160.4670   33.2390 C   0  0  0  0  0  0  0  0  0  0  0  0
   49.0040  160.6680   31.7360 C   0  0  0  0  0  0  0  0  0  0  0  0
   49.7380  159.5970   30.9610 C   0  0  0  0  0  0  0  0  0  0  0  0
   49.0780  158.3830   30.7100 C   0  0  0  0  0  0  0  0  0  0  0  0
   49.7060  157.3520   30.0090 C   0  0  0  0  0  0  0  0  0  0  0  0
   51.0110  157.5060   29.5320 C   0  0  0  0  0  0  0  0  0  0  0  0
   51.7090  156.4230   28.8080 C   0  0  0  0  0  0  0  0  0  0  0  0
   52.2450  156.8410   27.5960 O   0  0  0  0  0  0  0  0  0  0  0  0
   52.9210  155.9350   26.8210 C   0  0  0  0  0  0  0  0  0  0  0  0
   53.4550  156.4010   25.6190 C   0  0  0  0  0  0  0  0  0  0  0  0
   54.1540  155.5290   24.7810 C   0  0  0  0  0  0  0  0  0  0  0  0
   54.3190  154.1910   25.1450 C   0  0  0  0  0  0  0  0  0  0  0  0
   53.7850  153.7280   26.3450 C   0  0  0  0  0  0  0  0  0  0  0  0
   53.9820  152.4060   26.6390 O   0  0  0  0  0  0  0  0  0  0  0  0
   53.0860  154.6010   27.1830 C   0  0  0  0  0  0  0  0  0  0  0  0
   52.5100  154.1560   28.4520 C   0  0  0  0  0  0  0  0  0  0  0  0
   52.6060  152.9920   28.8370 O   0  0  0  0  0  0  0  0  0  0  0  0
   51.7950  155.1620   29.2700 C   0  0  0  0  0  0  0  0  0  0  0  0
   51.2440  154.7260   30.4610 O   0  0  0  0  0  0  0  0  0  0  0  0
   51.6770  158.7130   29.7960 C   0  0  0  0  0  0  0  0  0  0  0  0
   51.0620  159.7590   30.5080 C   0  0  0  0  0  0  0  0  0  0  0  0
   51.8310  161.0310   30.7380 C   0  0  0  0  0  0  0  0  0  0  0  0
   48.6257  161.2964   33.7612 H   0  0  0  0  0  0  0  0  0  0  0  0
   48.6489  159.5164   33.5213 H   0  0  0  0  0  0  0  0  0  0  0  0
   50.1879  160.4428   33.5213 H   0  0  0  0  0  0  0  0  0  0  0  0
   47.9399  160.6411   31.4585 H   0  0  0  0  0  0  0  0  0  0  0  0
   49.4558  161.6391   31.4853 H   0  0  0  0  0  0  0  0  0  0  0  0
   48.0488  158.2422   31.0719 H   0  0  0  0  0  0  0  0  0  0  0  0
   49.1686  156.4090   29.8302 H   0  0  0  0  0  0  0  0  0  0  0  0
   53.3255  157.4548   25.3314 H   0  0  0  0  0  0  0  0  0  0  0  0
   54.5748  155.8966   23.8335 H   0  0  0  0  0  0  0  0  0  0  0  0
   54.8696  153.5042   24.4853 H   0  0  0  0  0  0  0  0  0  0  0  0
   54.8520  152.0660   26.7040 H   0  0  0  0  0  0  0  0  0  0  0  0
   51.3720  155.2200   31.2460 H   0  0  0  0  0  0  0  0  0  0  0  0
   52.7082  158.8447   29.4363 H   0  0  0  0  0  0  0  0  0  0  0  0
   51.9364  161.2054   31.8190 H   0  0  0  0  0  0  0  0  0  0  0  0
   52.8281  160.9443   30.2816 H   0  0  0  0  0  0  0  0  0  0  0  0
   51.2909  161.8736   30.2816 H   0  0  0  0  0  0  0  0  0  0  0  0
  1  2  1  0
  2  3  1  0
  3  4  2  0
  4  5  1  0
  5  6  2  0
  6  7  1  0
  7  8  1  0
  8  9  1  0
  9 10  2  0
 10 11  1  0
 11 12  2  0
 12 13  1  0
 13 14  1  0
 13 15  2  0
 15 16  1  0
 16 17  2  0
 16 18  1  0
 18 19  1  0
  6 20  1  0
 20 21  2  0
 21 22  1  0
 21  3  1  0
 18  7  2  0
 15  9  1  0
  1 23  1  0
  1 24  1  0
  1 25  1  0
  2 26  1  0
  2 27  1  0
  4 28  1  0
  5 29  1  0
 10 30  1  0
 11 31  1  0
 12 32  1  0
 14 33  1  0
 19 34  1  0
 20 35  1  0
 22 36  1  0
 22 37  1  0
 22 38  1  0
M  END
>  <meeko>  (2) 
{"is_sidechain": [false], "free_energy": -11.249, "intermolecular_energy": -13.152, "internal_energy": -0.229}

$$$$
cand_042_out
     RDKit          3D

 38 40  0  0  0  0  0  0  0  0999 V2000
   51.9930  152.6390   26.6050 C   0  0  0  0  0  0  0  0  0  0  0  0
   53.1290  153.6090   26.8910 C   0  0  0  0  0  0  0  0  0  0  0  0
   52.6540  154.8330   27.6400 C   0  0  0  0  0  0  0  0  0  0  0  0
   51.9820  154.6520   28.8600 C   0  0  0  0  0  0  0  0  0  0  0  0
   51.5100  155.7430   29.5930 C   0  0  0  0  0  0  0  0  0  0  0  0
   51.7000  157.0480   29.1310 C   0  0  0  0  0  0  0  0  0  0  0  0
   51.1900  158.2200   29.8730 C   0  0  0  0  0  0  0  0  0  0  0  0
   49.8540  158.0930   30.2330 O   0  0  0  0  0  0  0  0  0  0  0  0
   49.2540  159.1110   30.9270 C   0  0  0  0  0  0  0  0  0  0  0  0
   47.9150  158.9340   31.2800 C   0  0  0  0  0  0  0  0  0  0  0  0
   47.2430  159.9340   31.9870 C   0  0  0  0  0  0  0  0  0  0  0  0
   47.9090  161.1100   32.3410 C   0  0  0  0  0  0  0  0  0  0  0  0
   49.2450  161.2820   31.9880 C   0  0  0  0  0  0  0  0  0  0  0  0
   49.8360  162.4580   32.3650 O   0  0  0  0  0  0  0  0  0  0  0  0
   49.9180  160.2820   31.2810 C   0  0  0  0  0  0  0  0  0  0  0  0
   51.3200  160.4240   30.8900 C   0  0  0  0  0  0  0  0  0  0  0  0
   51.9720  161.4320   31.1590 O   0  0  0  0  0  0  0  0  0  0  0  0
   51.9420  159.3020   30.1500 C   0  0  0  0  0  0  0  0  0  0  0  0
   53.2650  159.4530   29.7760 O   0  0  0  0  0  0  0  0  0  0  0  0
   52.3580  157.2300   27.9030 C   0  0  0  0  0  0  0  0  0  0  0  0
   52.8330  156.1410   27.1480 C   0  0  0  0  0  0  0  0  0  0  0  0
   53.5440  156.4130   25.8510 C   0  0  0  0  0  0  0  0  0  0  0  0
   51.5708  152.2785   27.5546 H   0  0  0  0  0  0  0  0  0  0  0  0
   51.2101  153.1515   26.0268 H   0  0  0  0  0  0  0  0  0  0  0  0
   52.3765  151.7854   26.0268 H   0  0  0  0  0  0  0  0  0  0  0  0
   53.8904  153.0955   27.4965 H   0  0  0  0  0  0  0  0  0  0  0  0
   53.5435  153.9401   25.9274 H   0  0  0  0  0  0  0  0  0  0  0  0
   51.8248  153.6335   29.2447 H   0  0  0  0  0  0  0  0  0  0  0  0
   50.9833  155.5733   30.5437 H   0  0  0  0  0  0  0  0  0  0  0  0
   47.3898  158.0084   31.0018 H   0  0  0  0  0  0  0  0  0  0  0  0
   46.1879  159.7953   32.2654 H   0  0  0  0  0  0  0  0  0  0  0  0
   47.3796  161.8978   32.8970 H   0  0  0  0  0  0  0  0  0  0  0  0
   49.9450  163.1480   31.7420 H   0  0  0  0  0  0  0  0  0  0  0  0
   53.9160  158.8720   30.1120 H   0  0  0  0  0  0  0  0  0  0  0  0
   52.5060  158.2510   27.5213 H   0  0  0  0  0  0  0  0  0  0  0  0
   54.5527  156.7989   26.0597 H   0  0  0  0  0  0  0  0  0  0  0  0
   53.6206  155.4807   25.2723 H   0  0  0  0  0  0  0  0  0  0  0  0
   52.9788  157.1584   25.2723 H   0  0  0  0  0  0  0  0  0  0  0  0
  1  2  1  0
  2  3  1  0
  3  4  2  0
  4  5  1  0
  5  6  2  0
  6  7  1  0
  7  8  1  0
  8  9  1  0
  9 10  2  0
 10 11  1  0
 11 12  2  0
 12 13  1  0
 13 14  1  0
 13 15  2  0
 15 16  1  0
 16 17  2  0
 16 18  1  0
 18 19  1  0
  6 20  1  0
 20 21  2  0
 21 22  1  0
 21  3  1  0
 18  7  2  0
 15  9  1  0
  1 23  1  0
  1 24  1  0
  1 25  1  0
  2 26  1  0
  2 27  1  0
  4 28  1  0
  5 29  1  0
 10 30  1  0
 11 31  1  0
 12 32  1  0
 14 33  1  0
 19 34  1  0
 20 35  1  0
 22 36  1  0
 22 37  1  0
 22 38  1  0
M  END
>  <meeko>  (3) 
{"is_sidechain": [false], "free_energy": -10.665, "intermolecular_energy": -12.5, "internal_energy": -0.194}

$$$$
cand_042_out
     RDKit          3D

 38 40  0  0  0  0  0  0  0  0999 V2000
   53.1220  154.1890   25.0330 C   0  0  0  0  0  0  0  0  0  0  0  0
   53.3430  153.9230   26.5150 C   0  0  0  0  0  0  0  0  0  0  0  0
   52.7750  155.0260   27.3790 C   0  0  0  0  0  0  0  0  0  0  0  0
   52.9970  156.3580   26.9940 C   0  0  0  0  0  0  0  0  0  0  0  0
   52.5070  157.4200   27.7570 C   0  0  0  0  0  0  0  0  0  0  0  0
   51.7760  157.1820   28.9240 C   0  0  0  0  0  0  0  0  0  0  0  0
   51.2660  158.2870   29.7640 C   0  0  0  0  0  0  0  0  0  0  0  0
   49.9240  158.1380   30.0960 O   0  0  0  0  0  0  0  0  0  0  0  0
   49.3230  159.0950   30.8730 C   0  0  0  0  0  0  0  0  0  0  0  0
   47.9800  158.8980   31.1940 C   0  0  0  0  0  0  0  0  0  0  0  0
   47.3070  159.8350   31.9820 C   0  0  0  0  0  0  0  0  0  0  0  0
   47.9770  160.9690   32.4470 C   0  0  0  0  0  0  0  0  0  0  0  0
   49.3180  161.1620   32.1250 C   0  0  0  0  0  0  0  0  0  0  0  0
   49.9130  162.2930   32.6130 O   0  0  0  0  0  0  0  0  0  0  0  0
   49.9910  160.2230   31.3380 C   0  0  0  0  0  0  0  0  0  0  0  0
   51.3990  160.3890   30.9770 C   0  0  0  0  0  0  0  0  0  0  0  0
   52.0550  161.3630   31.3420 O   0  0  0  0  0  0  0  0  0  0  0  0
   52.0210  159.3340   30.1450 C   0  0  0  0  0  0  0  0  0  0  0  0
   53.3490  159.5070   29.8000 O   0  0  0  0  0  0  0  0  0  0  0  0
   51.5670  155.8510   29.3180 C   0  0  0  0  0  0  0  0  0  0  0  0
   52.0610  154.7690   28.5650 C   0  0  0  0  0  0  0  0  0  0  0  0
   51.7820  153.3690   29.0390 C   0  0  0  0  0  0  0  0  0  0  0  0
   52.4233  155.0299   24.9116 H   0  0  0  0  0  0  0  0  0  0  0  0
   54.0823  154.4386   24.5581 H   0  0  0  0  0  0  0  0  0  0  0  0
   52.7006  153.2907   24.5581 H   0  0  0  0  0  0  0  0  0  0  0  0
   52.8538  152.9748   26.7825 H   0  0  0  0  0  0  0  0  0  0  0  0
   54.4273  153.8755   26.6938 H   0  0  0  0  0  0  0  0  0  0  0  0
   53.5661  156.5683   26.0765 H   0  0  0  0  0  0  0  0  0  0  0  0
   52.6984  158.4546   27.4361 H   0  0  0  0  0  0  0  0  0  0  0  0
   47.4513  158.0059   30.8271 H   0  0  0  0  0  0  0  0  0  0  0  0
   46.2482  159.6795   32.2365 H   0  0  0  0  0  0  0  0  0  0  0  0
   47.4467  161.7077   33.0660 H   0  0  0  0  0  0  0  0  0  0  0  0
   50.6010  162.7060   32.1300 H   0  0  0  0  0  0  0  0  0  0  0  0
   53.6310  159.3390   28.9230 H   0  0  0  0  0  0  0  0  0  0  0  0
   51.0021  155.6480   30.2398 H   0  0  0  0  0  0  0  0  0  0  0  0
   51.7779  153.3482   30.1388 H   0  0  0  0  0  0  0  0  0  0  0  0
   50.8012  153.0430   28.6624 H   0  0  0  0  0  0  0  0  0  0  0  0
   52.5629  152.6919   28.6624 H   0  0  0  0  0  0  0  0  0  0  0  0
  1  2  1  0
  2  3  1  0
  3  4  2  0
  4  5  1  0
  5  6  2  0
  6  7  1  0
  7  8  1  0
  8  9  1  0
  9 10  2  0
 10 11  1  0
 11 12  2  0
 12 13  1  0
 13 14  1  0
 13 15  2  0
 15 16  1  0
 16 17  2  0
 16 18  1  0
 18 19  1  0
  6 20  1  0
 20 21  2  0
 21 22  1  0
 21  3  1  0
 18  7  2  0
 15  9  1  0
  1 23  1  0
  1 24  1  0
  1 25  1  0
  2 26  1  0
  2 27  1  0
  4 28  1  0
  5 29  1  0
 10 30  1  0
 11 31  1  0
 12 32  1  0
 14 33  1  0
 19 34  1  0
 20 35  1  0
 22 36  1  0
 22 37  1  0
 22 38  1  0
M  END
>  <meeko>  (4) 
{"is_sidechain": [false], "free_energy": -10.153, "intermolecular_energy": -11.904, "internal_energy": -0.189}

$$$$
cand_042_out
     RDKit          3D

 38 40  0  0  0  0  0  0  0  0999 V2000
   52.5970  152.4860   25.9450 C   0  0  0  0  0  0  0  0  0  0  0  0
   53.5860  153.3540   26.7080 C   0  0  0  0  0  0  0  0  0  0  0  0
   52.8970  154.4740   27.4540 C   0  0  0  0  0  0  0  0  0  0  0  0
   52.1800  154.1590   28.6200 C   0  0  0  0  0  0  0  0  0  0  0  0
   51.5150  155.1480   29.3470 C   0  0  0  0  0  0  0  0  0  0  0  0
   51.5520  156.4830   28.9340 C   0  0  0  0  0  0  0  0  0  0  0  0
   50.8370  157.5470   29.6700 C   0  0  0  0  0  0  0  0  0  0  0  0
   51.6610  158.6100   30.0190 O   0  0  0  0  0  0  0  0  0  0  0  0
   51.1250  159.6680   30.7070 C   0  0  0  0  0  0  0  0  0  0  0  0
   51.9860  160.7190   31.0240 C   0  0  0  0  0  0  0  0  0  0  0  0
   51.5040  161.8270   31.7250 C   0  0  0  0  0  0  0  0  0  0  0  0
   50.1620  161.8830   32.1100 C   0  0  0  0  0  0  0  0  0  0  0  0
   49.3060  160.8320   31.7920 C   0  0  0  0  0  0  0  0  0  0  0  0
   48.0050  160.9510   32.2000 O   0  0  0  0  0  0  0  0  0  0  0  0
   49.7880  159.7240   31.0890 C   0  0  0  0  0  0  0  0  0  0  0  0
   48.9230  158.5990   30.7360 C   0  0  0  0  0  0  0  0  0  0  0  0
   47.7320  158.5710   31.0450 O   0  0  0  0  0  0  0  0  0  0  0  0
   49.5300  157.4770   29.9840 C   0  0  0  0  0  0  0  0  0  0  0  0
   48.7050  156.4140   29.6660 O   0  0  0  0  0  0  0  0  0  0  0  0
   52.2560  156.7970   27.7600 C   0  0  0  0  0  0  0  0  0  0  0  0
   52.9250  155.8110   27.0110 C   0  0  0  0  0  0  0  0  0  0  0  0
   53.6740  156.2240   25.7740 C   0  0  0  0  0  0  0  0  0  0  0  0
   51.9676  151.9336   26.6583 H   0  0  0  0  0  0  0  0  0  0  0  0
   51.9616  153.1234   25.3125 H   0  0  0  0  0  0  0  0  0  0  0  0
   53.1465  151.7733   25.3125 H   0  0  0  0  0  0  0  0  0  0  0  0
   54.1265  152.7253   27.4309 H   0  0  0  0  0  0  0  0  0  0  0  0
   54.2759  153.8046   25.9793 H   0  0  0  0  0  0  0  0  0  0  0  0
   52.1418  153.1156   28.9661 H   0  0  0  0  0  0  0  0  0  0  0  0
   50.9562  154.8740   30.2540 H   0  0  0  0  0  0  0  0  0  0  0  0
   53.0429  160.6752   30.7224 H   0  0  0  0  0  0  0  0  0  0  0  0
   52.1819  162.6566   31.9743 H   0  0  0  0  0  0  0  0  0  0  0  0
   49.7828  162.7551   32.6629 H   0  0  0  0  0  0  0  0  0  0  0  0
   47.6100  161.7980   32.2640 H   0  0  0  0  0  0  0  0  0  0  0  0
   48.9860  155.7710   29.0470 H   0  0  0  0  0  0  0  0  0  0  0  0
   52.2853  157.8416   27.4167 H   0  0  0  0  0  0  0  0  0  0  0  0
   54.6036  156.7366   26.0622 H   0  0  0  0  0  0  0  0  0  0  0  0
   53.9168  155.3322   25.1775 H   0  0  0  0  0  0  0  0  0  0  0  0
   53.0494  156.9053   25.1775 H   0  0  0  0  0  0  0  0  0  0  0  0
  1  2  1  0
  2  3  1  0
  3  4  2  0
  4  5  1  0
  5  6  2  0
  6  7  1  0
  7  8  1  0
  8  9  1  0
  9 10  2  0
 10 11  1  0
 11 12  2  0
 12 13  1  0
 13 14  1  0
 13 15  2  0
 15 16  1  0
 16 17  2  0
 16 18  1  0
 18 19  1  0
  6 20  1  0
 20 21  2  0
 21 22  1  0
 21  3  1  0
 18  7  2  0
 15  9  1  0
  1 23  1  0
  1 24  1  0
  1 25  1  0
  2 26  1  0
  2 27  1  0
  4 28  1  0
  5 29  1  0
 10 30  1  0
 11 31  1  0
 12 32  1  0
 14 33  1  0
 19 34  1  0
 20 35  1  0
 22 36  1  0
 22 37  1  0
 22 38  1  0
M  END
>  <meeko>  (5) 
{"is_sidechain": [false], "free_energy": -8.763, "intermolecular_energy": -10.202, "internal_energy": -0.257}

$$$$
