cand_008_out
     RDKit          3D

 35 37  0  0  0  0  0  0  0  0999 V2000
   52.2820  152.6170   28.5900 O   0  0  0  0  0  0  0  0  0  0  0  0
   52.3780  153.7770   28.1950 C   0  0  0  0  0  0  0  0  0  0  0  0
   51.9080  154.9000   29.0390 C   0  0  0  0  0  0  0  0  0  0  0  0
   51.3520  154.5770   30.2640 O   0  0  0  0  0  0  0  0  0  0  0  0
   52.0290  156.1550   28.5680 C   0  0  0  0  0  0  0  0  0  0  0  0
   51.5830  157.3480   29.3170 C   0  0  0  0  0  0  0  0  0  0  0  0
   52.4020  158.4720   29.4670 C   0  0  0  0  0  0  0  0  0  0  0  0
   51.9520  159.5990   30.1610 C   0  0  0  0  0  0  0  0  0  0  0  0
   50.6650  159.6340   30.7210 C   0  0  0  0  0  0  0  0  0  0  0  0
   50.2050  160.8690   31.4620 C   0  0  0  0  0  0  0  0  0  0  0  0
   49.3430  161.6390   30.7380 F   0  0  0  0  0  0  0  0  0  0  0  0
   51.2430  161.6930   31.7820 F   0  0  0  0  0  0  0  0  0  0  0  0
   49.8160  158.5160   30.5580 C   0  0  0  0  0  0  0  0  0  0  0  0
   48.4190  158.5000   31.1360 C   0  0  0  0  0  0  0  0  0  0  0  0
   48.4040  158.8680   32.4490 F   0  0  0  0  0  0  0  0  0  0  0  0
   47.5710  159.3660   30.5120 F   0  0  0  0  0  0  0  0  0  0  0  0
   50.2910  157.3860   29.8630 C   0  0  0  0  0  0  0  0  0  0  0  0
   52.5630  156.4670   27.3230 O   0  0  0  0  0  0  0  0  0  0  0  0
   53.0140  155.4490   26.5210 C   0  0  0  0  0  0  0  0  0  0  0  0
   53.5530  155.8090   25.2850 C   0  0  0  0  0  0  0  0  0  0  0  0
   54.0300  154.8220   24.4200 C   0  0  0  0  0  0  0  0  0  0  0  0
   53.9680  153.4760   24.7910 C   0  0  0  0  0  0  0  0  0  0  0  0
   53.4300  153.1200   26.0240 C   0  0  0  0  0  0  0  0  0  0  0  0
   53.3980  151.7870   26.3230 O   0  0  0  0  0  0  0  0  0  0  0  0
   52.9530  154.1090   26.8900 C   0  0  0  0  0  0  0  0  0  0  0  0
   50.4220  154.5150   30.3550 H   0  0  0  0  0  0  0  0  0  0  0  0
   53.4129  158.4691   29.0334 H   0  0  0  0  0  0  0  0  0  0  0  0
   52.6151  160.4699   30.2698 H   0  0  0  0  0  0  0  0  0  0  0  0
   49.7105  160.4674   32.3588 H   0  0  0  0  0  0  0  0  0  0  0  0
   48.0886  157.4601   30.9965 H   0  0  0  0  0  0  0  0  0  0  0  0
   49.6329  156.5124   29.7456 H   0  0  0  0  0  0  0  0  0  0  0  0
   53.6020  156.8683   24.9927 H   0  0  0  0  0  0  0  0  0  0  0  0
   54.4550  155.1042   23.4455 H   0  0  0  0  0  0  0  0  0  0  0  0
   54.3440  152.6990   24.1092 H   0  0  0  0  0  0  0  0  0  0  0  0
   52.5760  151.3420   26.3930 H   0  0  0  0  0  0  0  0  0  0  0  0
  1  2  2  0
  2  3  1  0
  3  4  1  0
  3  5  2  0
  5  6  1  0
  6  7  2  0
  7  8  1  0
  8  9  2  0
  9 10  1  0
 10 11  1  0
 10 12  1  0
  9 13  1  0
 13 14  1  0
 14 15  1  0
 14 16  1  0
 13 17  2  0
  5 18  1  0
 18 19  1  0
 19 20  2  0
 20 21  1  0
 21 22  2  0
 22 23  1  0
 23 24  1  0
 23 25  2  0
 25  2  1  0
 17  6  1  0
 25 19  1  0
  4 26  1  0
  7 27  1  0
  8 28  1  0
 10 29  1  0
 14 30  1  0
 17 31  1  0
 20 32  1  0
 21 33  1  0
 22 34  1  0
 24 35  1  0
M  END
>  <meeko>  (1) 
{"is_sidechain": [false], "free_energy": -11.811, "intermolecular_energy": -14.573, "internal_energy": -0.186}

$$$$
cand_008_out
     RDKit          3D

 35 37  0  0  0  0  0  0  0  0999 V2000
   52.7240  152.7580   28.5300 O   0  0  0  0  0  0  0  0  0  0  0  0
   52.5990  153.9310   28.1830 C   0  0  0  0  0  0  0  0  0  0  0  0
   51.8630  154.8920   29.0360 C   0  0  0  0  0  0  0  0  0  0  0  0
   51.3220  154.4040   30.2130 O   0  0  0  0  0  0  0  0  0  0  0  0
   51.7470  156.1660   28.6180 C   0  0  0  0  0  0  0  0  0  0  0  0
   51.0250  157.2060   29.3810 C   0  0  0  0  0  0  0  0  0  0  0  0
   49.6980  157.0330   29.7870 C   0  0  0  0  0  0  0  0  0  0  0  0
   49.0410  158.0200   30.5270 C   0  0  0  0  0  0  0  0  0  0  0  0
   49.6970  159.2080   30.8850 C   0  0  0  0  0  0  0  0  0  0  0  0
   48.9600  160.2560   31.6900 C   0  0  0  0  0  0  0  0  0  0  0  0
   47.8060  159.7900   32.2490 F   0  0  0  0  0  0  0  0  0  0  0  0
   48.5870  161.3210   30.9270 F   0  0  0  0  0  0  0  0  0  0  0  0
   51.0450  159.3880   30.5040 C   0  0  0  0  0  0  0  0  0  0  0  0
   51.8020  160.6470   30.8670 C   0  0  0  0  0  0  0  0  0  0  0  0
   51.3970  161.7190   30.1290 F   0  0  0  0  0  0  0  0  0  0  0  0
   51.6300  161.0200   32.1670 F   0  0  0  0  0  0  0  0  0  0  0  0
   51.6880  158.3860   29.7510 C   0  0  0  0  0  0  0  0  0  0  0  0
   52.2700  156.6390   27.4200 O   0  0  0  0  0  0  0  0  0  0  0  0
   52.9630  155.7740   26.6120 C   0  0  0  0  0  0  0  0  0  0  0  0
   53.4800  156.2950   25.4250 C   0  0  0  0  0  0  0  0  0  0  0  0
   54.1950  155.4680   24.5560 C   0  0  0  0  0  0  0  0  0  0  0  0
   54.3930  154.1220   24.8740 C   0  0  0  0  0  0  0  0  0  0  0  0
   53.8760  153.6060   26.0590 C   0  0  0  0  0  0  0  0  0  0  0  0
   54.1050  152.2810   26.3080 O   0  0  0  0  0  0  0  0  0  0  0  0
   53.1600  154.4340   26.9290 C   0  0  0  0  0  0  0  0  0  0  0  0
   51.6620  153.6200   30.5940 H   0  0  0  0  0  0  0  0  0  0  0  0
   49.1646  156.1086   29.5206 H   0  0  0  0  0  0  0  0  0  0  0  0
   47.9960  157.8637   30.8329 H   0  0  0  0  0  0  0  0  0  0  0  0
   49.6817  160.5439   32.4686 H   0  0  0  0  0  0  0  0  0  0  0  0
   52.8528  160.3875   30.6711 H   0  0  0  0  0  0  0  0  0  0  0  0
   52.7347  158.5321   29.4458 H   0  0  0  0  0  0  0  0  0  0  0  0
   53.3246  157.3548   25.1744 H   0  0  0  0  0  0  0  0  0  0  0  0
   54.6029  155.8769   23.6198 H   0  0  0  0  0  0  0  0  0  0  0  0
   54.9564  153.4712   24.1892 H   0  0  0  0  0  0  0  0  0  0  0  0
   54.2260  151.6850   25.5950 H   0  0  0  0  0  0  0  0  0  0  0  0
  1  2  2  0
  2  3  1  0
  3  4  1  0
  3  5  2  0
  5  6  1  0
  6  7  2  0
  7  8  1  0
  8  9  2  0
  9 10  1  0
 10 11  1  0
 10 12  1  0
  9 13  1  0
 13 14  1  0
 14 15  1  0
 14 16  1  0
 13 17  2  0
  5 18  1  0
 18 19  1  0
 19 20  2  0
 20 21  1  0
 21 22  2  0
 22 23  1  0
 23 24  1  0
 23 25  2  0
 25  2  1  0
 17  6  1  0
 25 19  1  0
  4 26  1  0
  7 27  1  0
  8 28  1  0
 10 29  1  0
 14 30  1  0
 17 31  1  0
 20 32  1  0
 21 33  1  0
 22 34  1  0
 24 35  1  0
M  END
>  <meeko>  (2) 
{"is_sidechain": [false], "free_energy": -11.235, "intermolecular_energy": -13.792, "internal_energy": -0.257}

$$$$
cand_008_out
     RDKit          3D

 35 37  0  0  0  0  0  0  0  0999 V2000
   52.3630  160.6860   30.5600 O   0  0  0  0  0  0  0  0  0  0  0  0
   51.6480  159.7070   30.3560 C   0  0  0  0  0  0  0  0  0  0  0  0
   52.1950  158.5030   29.6870 C   0  0  0  0  0  0  0  0  0  0  0  0
   53.5220  158.5470   29.2990 O   0  0  0  0  0  0  0  0  0  0  0  0
   51.3770  157.4540   29.4810 C   0  0  0  0  0  0  0  0  0  0  0  0
   51.8110  156.2090   28.8140 C   0  0  0  0  0  0  0  0  0  0  0  0
   51.5560  154.9500   29.3670 C   0  0  0  0  0  0  0  0  0  0  0  0
   51.9550  153.7840   28.7080 C   0  0  0  0  0  0  0  0  0  0  0  0
   52.6170  153.8450   27.4720 C   0  0  0  0  0  0  0  0  0  0  0  0
   53.0320  152.5650   26.7810 C   0  0  0  0  0  0  0  0  0  0  0  0
   54.3680  152.5110   26.5110 F   0  0  0  0  0  0  0  0  0  0  0  0
   52.4140  152.4080   25.5760 F   0  0  0  0  0  0  0  0  0  0  0  0
   52.8610  155.1080   26.8870 C   0  0  0  0  0  0  0  0  0  0  0  0
   53.5660  155.2340   25.5550 C   0  0  0  0  0  0  0  0  0  0  0  0
   52.7120  155.0690   24.5050 F   0  0  0  0  0  0  0  0  0  0  0  0
   54.1370  156.4570   25.3650 F   0  0  0  0  0  0  0  0  0  0  0  0
   52.4590  156.2720   27.5700 C   0  0  0  0  0  0  0  0  0  0  0  0
   50.0370  157.4320   29.8500 O   0  0  0  0  0  0  0  0  0  0  0  0
   49.5040  158.5290   30.4780 C   0  0  0  0  0  0  0  0  0  0  0  0
   48.1580  158.4580   30.8410 C   0  0  0  0  0  0  0  0  0  0  0  0
   47.5530  159.5400   31.4820 C   0  0  0  0  0  0  0  0  0  0  0  0
   48.2930  160.6920   31.7610 C   0  0  0  0  0  0  0  0  0  0  0  0
   49.6350  160.7600   31.3980 C   0  0  0  0  0  0  0  0  0  0  0  0
   50.2990  161.9160   31.6990 O   0  0  0  0  0  0  0  0  0  0  0  0
   50.2410  159.6760   30.7560 C   0  0  0  0  0  0  0  0  0  0  0  0
   54.1910  158.2530   29.8840 H   0  0  0  0  0  0  0  0  0  0  0  0
   51.0348  154.8766   30.3329 H   0  0  0  0  0  0  0  0  0  0  0  0
   51.7473  152.8049   29.1643 H   0  0  0  0  0  0  0  0  0  0  0  0
   52.7452  151.7772   27.4931 H   0  0  0  0  0  0  0  0  0  0  0  0
   54.3324  154.4456   25.5877 H   0  0  0  0  0  0  0  0  0  0  0  0
   52.6575  157.2549   27.1178 H   0  0  0  0  0  0  0  0  0  0  0  0
   47.5753  157.5510   30.6222 H   0  0  0  0  0  0  0  0  0  0  0  0
   46.4922  159.4859   31.7680 H   0  0  0  0  0  0  0  0  0  0  0  0
   47.8155  161.5441   32.2669 H   0  0  0  0  0  0  0  0  0  0  0  0
   50.8140  161.9700   32.4810 H   0  0  0  0  0  0  0  0  0  0  0  0
  1  2  2  0
  2  3  1  0
  3  4  1  0
  3  5  2  0
  5  6  1  0
  6  7  2  0
  7  8  1  0
  8  9  2  0
  9 10  1  0
 10 11  1  0
 10 12  1  0
  9 13  1  0
 13 14  1  0
 14 15  1  0
 14 16  1  0
 13 17  2  0
  5 18  1  0
 18 19  1  0
 19 20  2  0
 20 21  1  0
 21 22  2  0
 22 23  1  0
 23 24  1  0
 23 25  2  0
 25  2  1  0
 17  6  1  0
 25 19  1  0
  4 26  1  0
  7 27  1  0
  8 28  1  0
 10 29  1  0
 14 30  1  0
 17 31  1  0
 20 32  1  0
 21 33  1  0
 22 34  1  0
 24 35  1  0
M  END
>  <meeko>  (3) 
{"is_sidechain": [false], "free_energy": -11.228, "intermolecular_energy": -13.792, "internal_energy": -0.247}

$$$$
cand_008_out
     RDKit          3D

 35 37  0  0  0  0  0  0  0  0999 V2000
   52.1350  161.4080   31.3950 O   0  0  0  0  0  0  0  0  0  0  0  0
   51.4860  160.4370   31.0110 C   0  0  0  0  0  0  0  0  0  0  0  0
   52.1050  159.4210   30.1280 C   0  0  0  0  0  0  0  0  0  0  0  0
   53.4210  159.6290   29.7540 O   0  0  0  0  0  0  0  0  0  0  0  0
   51.3590  158.3740   29.7300 C   0  0  0  0  0  0  0  0  0  0  0  0
   51.8680  157.3090   28.8400 C   0  0  0  0  0  0  0  0  0  0  0  0
   52.4900  157.6020   27.6220 C   0  0  0  0  0  0  0  0  0  0  0  0
   52.9830  156.5810   26.8060 C   0  0  0  0  0  0  0  0  0  0  0  0
   52.8730  155.2350   27.1890 C   0  0  0  0  0  0  0  0  0  0  0  0
   53.4210  154.1520   26.2870 C   0  0  0  0  0  0  0  0  0  0  0  0
   54.3970  154.5990   25.4450 F   0  0  0  0  0  0  0  0  0  0  0  0
   52.4610  153.6230   25.4770 F   0  0  0  0  0  0  0  0  0  0  0  0
   52.2690  154.9230   28.4290 C   0  0  0  0  0  0  0  0  0  0  0  0
   52.1270  153.4910   28.8940 C   0  0  0  0  0  0  0  0  0  0  0  0
   51.5640  153.4080   30.1330 F   0  0  0  0  0  0  0  0  0  0  0  0
   51.3260  152.7410   28.0850 F   0  0  0  0  0  0  0  0  0  0  0  0
   51.7700  155.9660   29.2330 C   0  0  0  0  0  0  0  0  0  0  0  0
   50.0290  158.1890   30.0890 O   0  0  0  0  0  0  0  0  0  0  0  0
   49.4300  159.1090   30.9120 C   0  0  0  0  0  0  0  0  0  0  0  0
   48.0980  158.8780   31.2560 C   0  0  0  0  0  0  0  0  0  0  0  0
   47.4280  159.7760   32.0890 C   0  0  0  0  0  0  0  0  0  0  0  0
   48.0910  160.9040   32.5790 C   0  0  0  0  0  0  0  0  0  0  0  0
   49.4200  161.1330   32.2340 C   0  0  0  0  0  0  0  0  0  0  0  0
   50.0070  162.2560   32.7460 O   0  0  0  0  0  0  0  0  0  0  0  0
   50.0900  160.2330   31.3990 C   0  0  0  0  0  0  0  0  0  0  0  0
   53.6180  159.9490   28.8960 H   0  0  0  0  0  0  0  0  0  0  0  0
   52.5923  158.6496   27.3026 H   0  0  0  0  0  0  0  0  0  0  0  0
   53.4641  156.8353   25.8500 H   0  0  0  0  0  0  0  0  0  0  0  0
   53.8215  153.4047   26.9879 H   0  0  0  0  0  0  0  0  0  0  0  0
   53.1584  153.1088   28.8851 H   0  0  0  0  0  0  0  0  0  0  0  0
   51.2916  155.7215   30.1929 H   0  0  0  0  0  0  0  0  0  0  0  0
   47.5761  157.9893   30.8714 H   0  0  0  0  0  0  0  0  0  0  0  0
   46.3773  159.5953   32.3598 H   0  0  0  0  0  0  0  0  0  0  0  0
   47.5633  161.6104   33.2367 H   0  0  0  0  0  0  0  0  0  0  0  0
   50.2180  162.2990   33.6580 H   0  0  0  0  0  0  0  0  0  0  0  0
  1  2  2  0
  2  3  1  0
  3  4  1  0
  3  5  2  0
  5  6  1  0
  6  7  2  0
  7  8  1  0
  8  9  2  0
  9 10  1  0
 10 11  1  0
 10 12  1  0
  9 13  1  0
 13 14  1  0
 14 15  1  0
 14 16  1  0
 13 17  2  0
  5 18  1  0
 18 19  1  0
 19 20  2  0
 20 21  1  0
 21 22  2  0
 22 23  1  0
 23 24  1  0
 23 25  2  0
 25  2  1  0
 17  6  1  0
 25 19  1  0
  4 26  1  0
  7 27  1  0
  8 28  1  0
 10 29  1  0
 14 30  1  0
 17 31  1  0
 20 32  1  0
 21 33  1  0
 22 34  1  0
 24 35  1  0
M  END
>  <meeko>  (4) 
{"is_sidechain": [false], "free_energy": -10.134, "intermolecular_energy": -12.278, "internal_energy": -0.412}

$$$$
cand_008_out
     RDKit          3D

 35 37  0  0  0  0  0  0  0  0999 V2000
   47.9700  158.1740   30.7130 O   0  0  0  0  0  0  0  0  0  0  0  0
   49.1550  158.1380   30.3890 C   0  0  0  0  0  0  0  0  0  0  0  0
   49.7070  156.9540   29.6910 C   0  0  0  0  0  0  0  0  0  0  0  0
   48.8380  155.9060   29.4440 O   0  0  0  0  0  0  0  0  0  0  0  0
   51.0100  156.9540   29.3560 C   0  0  0  0  0  0  0  0  0  0  0  0
   51.6700  155.8230   28.6700 C   0  0  0  0  0  0  0  0  0  0  0  0
   51.6060  154.5190   29.1710 C   0  0  0  0  0  0  0  0  0  0  0  0
   52.2180  153.4600   28.4950 C   0  0  0  0  0  0  0  0  0  0  0  0
   52.9100  153.6770   27.2930 C   0  0  0  0  0  0  0  0  0  0  0  0
   53.5590  152.5100   26.5820 C   0  0  0  0  0  0  0  0  0  0  0  0
   54.8640  152.7380   26.2580 F   0  0  0  0  0  0  0  0  0  0  0  0
   52.9400  152.2190   25.4030 F   0  0  0  0  0  0  0  0  0  0  0  0
   52.9650  154.9850   26.7600 C   0  0  0  0  0  0  0  0  0  0  0  0
   53.6930  155.2760   25.4670 C   0  0  0  0  0  0  0  0  0  0  0  0
   52.9590  154.9190   24.3740 F   0  0  0  0  0  0  0  0  0  0  0  0
   53.9720  156.5990   25.2950 F   0  0  0  0  0  0  0  0  0  0  0  0
   52.3490  156.0400   27.4610 C   0  0  0  0  0  0  0  0  0  0  0  0
   51.8820  158.0000   29.6340 O   0  0  0  0  0  0  0  0  0  0  0  0
   51.3980  159.1140   30.2730 C   0  0  0  0  0  0  0  0  0  0  0  0
   52.3060  160.1450   30.5220 C   0  0  0  0  0  0  0  0  0  0  0  0
   51.8800  161.3050   31.1690 C   0  0  0  0  0  0  0  0  0  0  0  0
   50.5470  161.4360   31.5670 C   0  0  0  0  0  0  0  0  0  0  0  0
   49.6440  160.4070   31.3180 C   0  0  0  0  0  0  0  0  0  0  0  0
   48.3560  160.6000   31.7340 O   0  0  0  0  0  0  0  0  0  0  0  0
   50.0710  159.2440   30.6690 C   0  0  0  0  0  0  0  0  0  0  0  0
   48.6260  155.6720   28.5630 H   0  0  0  0  0  0  0  0  0  0  0  0
   51.0667  154.3242   30.1097 H   0  0  0  0  0  0  0  0  0  0  0  0
   52.1567  152.4432   28.9101 H   0  0  0  0  0  0  0  0  0  0  0  0
   53.4749  151.6835   27.3030 H   0  0  0  0  0  0  0  0  0  0  0  0
   54.6195  154.6887   25.5493 H   0  0  0  0  0  0  0  0  0  0  0  0
   52.4014  157.0593   27.0507 H   0  0  0  0  0  0  0  0  0  0  0  0
   53.3554  160.0427   30.2085 H   0  0  0  0  0  0  0  0  0  0  0  0
   52.5945  162.1178   31.3662 H   0  0  0  0  0  0  0  0  0  0  0  0
   50.2119  162.3515   32.0765 H   0  0  0  0  0  0  0  0  0  0  0  0
   47.6720  160.0470   31.4100 H   0  0  0  0  0  0  0  0  0  0  0  0
  1  2  2  0
  2  3  1  0
  3  4  1  0
  3  5  2  0
  5  6  1  0
  6  7  2  0
  7  8  1  0
  8  9  2  0
  9 10  1  0
 10 11  1  0
 10 12  1  0
  9 13  1  0
 13 14  1  0
 14 15  1  0
 14 16  1  0
 13 17  2  0
  5 18  1  0
 18 19  1  0
 19 20  2  0
 20 21  1  0
 21 22  2  0
 22 23  1  0
 23 24  1  0
 23 25  2  0
 25  2  1  0
 17  6  1  0
 25 19  1  0
  4 26  1  0
  7 27  1  0
  8 28  1  0
 10 29  1  0
 14 30  1  0
 17 31  1  0
 20 32  1  0
 21 33  1  0
 22 34  1  0
 24 35  1  0
M  END
>  <meeko>  (5) 
{"is_sidechain": [false], "free_energy": -9.47, "intermolecular_energy": -11.571, "internal_energy": -0.299}

$$$$
