cand_052_out
     RDKit          3D

 44 46  0  0  0  0  0  0  0  0999 V2000
   48.1370  161.5360   33.2150 C   0  0  0  0  0  0  0  0  0  0  0  0
   49.4940  161.1330   33.7690 C   0  0  0  0  0  0  0  0  0  0  0  0
   50.5870  161.2410   32.7050 C   0  0  0  0  0  0  0  0  0  0  0  0
   50.0050  161.1000   31.2960 C   0  0  0  0  0  0  0  0  0  0  0  0
   50.4770  159.8310   30.6190 C   0  0  0  0  0  0  0  0  0  0  0  0
   51.8070  159.7670   30.1740 C   0  0  0  0  0  0  0  0  0  0  0  0
   52.2990  158.6260   29.5350 C   0  0  0  0  0  0  0  0  0  0  0  0
   51.4770  157.5150   29.3260 C   0  0  0  0  0  0  0  0  0  0  0  0
   51.9640  156.3050   28.6320 C   0  0  0  0  0  0  0  0  0  0  0  0
   52.5010  156.5810   27.3790 O   0  0  0  0  0  0  0  0  0  0  0  0
   52.9930  155.5470   26.6250 C   0  0  0  0  0  0  0  0  0  0  0  0
   53.5350  155.8720   25.3820 C   0  0  0  0  0  0  0  0  0  0  0  0
   54.0520  154.8650   24.5620 C   0  0  0  0  0  0  0  0  0  0  0  0
   54.0240  153.5350   24.9860 C   0  0  0  0  0  0  0  0  0  0  0  0
   53.4820  153.2140   26.2280 C   0  0  0  0  0  0  0  0  0  0  0  0
   53.4860  151.8910   26.5810 O   0  0  0  0  0  0  0  0  0  0  0  0
   52.9660  154.2220   27.0470 C   0  0  0  0  0  0  0  0  0  0  0  0
   52.3880  153.9270   28.3590 C   0  0  0  0  0  0  0  0  0  0  0  0
   52.3210  152.7810   28.7990 O   0  0  0  0  0  0  0  0  0  0  0  0
   51.8750  155.0680   29.1540 C   0  0  0  0  0  0  0  0  0  0  0  0
   51.3180  154.7770   30.3850 O   0  0  0  0  0  0  0  0  0  0  0  0
   50.1430  157.5850   29.7580 C   0  0  0  0  0  0  0  0  0  0  0  0
   49.6290  158.7290   30.3970 C   0  0  0  0  0  0  0  0  0  0  0  0
   48.1940  158.7250   30.8490 C   0  0  0  0  0  0  0  0  0  0  0  0
   47.4474  161.7408   34.0471 H   0  0  0  0  0  0  0  0  0  0  0  0
   48.2465  162.4404   32.5985 H   0  0  0  0  0  0  0  0  0  0  0  0
   47.7351  160.7184   32.5985 H   0  0  0  0  0  0  0  0  0  0  0  0
   49.7475  161.7945   34.6106 H   0  0  0  0  0  0  0  0  0  0  0  0
   49.4353  160.0853   34.0990 H   0  0  0  0  0  0  0  0  0  0  0  0
   51.0783  162.2212   32.7937 H   0  0  0  0  0  0  0  0  0  0  0  0
   51.3105  160.4281   32.8656 H   0  0  0  0  0  0  0  0  0  0  0  0
   48.9073  161.0805   31.3642 H   0  0  0  0  0  0  0  0  0  0  0  0
   50.3479  161.9561   30.6964 H   0  0  0  0  0  0  0  0  0  0  0  0
   52.4723  160.6288   30.3309 H   0  0  0  0  0  0  0  0  0  0  0  0
   53.3442  158.6018   29.1928 H   0  0  0  0  0  0  0  0  0  0  0  0
   53.5557  156.9196   25.0472 H   0  0  0  0  0  0  0  0  0  0  0  0
   54.4812  155.1205   23.5820 H   0  0  0  0  0  0  0  0  0  0  0  0
   54.4293  152.7422   24.3402 H   0  0  0  0  0  0  0  0  0  0  0  0
   53.4070  151.2310   25.9220 H   0  0  0  0  0  0  0  0  0  0  0  0
   51.7450  154.1730   30.9610 H   0  0  0  0  0  0  0  0  0  0  0  0
   49.4812  156.7220   29.5925 H   0  0  0  0  0  0  0  0  0  0  0  0
   48.1559  158.7249   31.9483 H   0  0  0  0  0  0  0  0  0  0  0  0
   47.6860  159.6217   30.4646 H   0  0  0  0  0  0  0  0  0  0  0  0
   47.6910  157.8255   30.4646 H   0  0  0  0  0  0  0  0  0  0  0  0
  1  2  1  0
  2  3  1  0
  3  4  1  0
  4  5  1  0
  5  6  2  0
  6  7  1  0
  7  8  2  0
  8  9  1  0
  9 10  1  0
 10 11  1  0
 11 12  2  0
 12 13  1  0
 13 14  2  0
 14 15  1  0
 15 16  1  0
 15 17  2  0
 17 18  1  0
 18 19  2  0
 18 20  1  0
 20 21  1  0
  8 22  1  0
 22 23  2  0
 23 24  1  0
 23  5  1  0
 20  9  2  0
 17 11  1  0
  1 25  1  0
  1 26  1  0
  1 27  1  0
  2 28  1  0
  2 29  1  0
  3 30  1  0
  3 31  1  0
  4 32  1  0
  4 33  1  0
  6 34  1  0
  7 35  1  0
 12 36  1  0
 13 37  1  0
 14 38  1  0
 16 39  1  0
 21 40  1  0
 22 41  1  0
 24 42  1  0
 24 43  1  0
 24 44  1  0
M  END
>  <meeko>  (1) 
{"is_sidechain": [false], "free_energy": -11.28, "intermolecular_energy": -14.577, "internal_energy": -0.649}

$$$$
cand_052_out
     RDKit          3D

 44 46  0  0  0  0  0  0  0  0999 V2000
   48.4810  162.4190   32.8450 C   0  0  0  0  0  0  0  0  0  0  0  0
   49.0900  161.3760   33.7670 C   0  0  0  0  0  0  0  0  0  0  0  0
   49.3110  160.0480   33.0420 C   0  0  0  0  0  0  0  0  0  0  0  0
   49.0340  160.1820   31.5420 C   0  0  0  0  0  0  0  0  0  0  0  0
   49.8040  159.1590   30.7350 C   0  0  0  0  0  0  0  0  0  0  0  0
   49.1900  157.9290   30.4560 C   0  0  0  0  0  0  0  0  0  0  0  0
   49.8530  156.9420   29.7240 C   0  0  0  0  0  0  0  0  0  0  0  0
   51.1490  157.1580   29.2460 C   0  0  0  0  0  0  0  0  0  0  0  0
   51.8830  156.1230   28.4880 C   0  0  0  0  0  0  0  0  0  0  0  0
   52.4010  156.5980   27.2880 O   0  0  0  0  0  0  0  0  0  0  0  0
   53.1080  155.7400   26.4850 C   0  0  0  0  0  0  0  0  0  0  0  0
   53.6210  156.2630   25.2980 C   0  0  0  0  0  0  0  0  0  0  0  0
   54.3500  155.4430   24.4320 C   0  0  0  0  0  0  0  0  0  0  0  0
   54.5620  154.1010   24.7540 C   0  0  0  0  0  0  0  0  0  0  0  0
   54.0480  153.5820   25.9400 C   0  0  0  0  0  0  0  0  0  0  0  0
   54.2930  152.2590   26.1930 O   0  0  0  0  0  0  0  0  0  0  0  0
   53.3200  154.4030   26.8050 C   0  0  0  0  0  0  0  0  0  0  0  0
   52.7630  153.8980   28.0600 C   0  0  0  0  0  0  0  0  0  0  0  0
   52.9020  152.7270   28.4100 O   0  0  0  0  0  0  0  0  0  0  0  0
   52.0140  154.8520   28.9110 C   0  0  0  0  0  0  0  0  0  0  0  0
   51.4800  154.3610   30.0880 O   0  0  0  0  0  0  0  0  0  0  0  0
   51.7680  158.3830   29.5370 C   0  0  0  0  0  0  0  0  0  0  0  0
   51.1170  159.3860   30.2800 C   0  0  0  0  0  0  0  0  0  0  0  0
   51.8380  160.6810   30.5390 C   0  0  0  0  0  0  0  0  0  0  0  0
   48.0167  163.2141   33.4469 H   0  0  0  0  0  0  0  0  0  0  0  0
   49.2683  162.8519   32.2103 H   0  0  0  0  0  0  0  0  0  0  0  0
   47.7171  161.9461   32.2103 H   0  0  0  0  0  0  0  0  0  0  0  0
   50.0574  161.7468   34.1366 H   0  0  0  0  0  0  0  0  0  0  0  0
   48.3930  161.2026   34.6001 H   0  0  0  0  0  0  0  0  0  0  0  0
   50.3538  159.7295   33.1870 H   0  0  0  0  0  0  0  0  0  0  0  0
   48.6161  159.3042   33.4590 H   0  0  0  0  0  0  0  0  0  0  0  0
   47.9579  160.0390   31.3644 H   0  0  0  0  0  0  0  0  0  0  0  0
   49.3576  161.1836   31.2225 H   0  0  0  0  0  0  0  0  0  0  0  0
   48.1695  157.7389   30.8199 H   0  0  0  0  0  0  0  0  0  0  0  0
   49.3505  155.9847   29.5213 H   0  0  0  0  0  0  0  0  0  0  0  0
   53.4520  157.3198   25.0437 H   0  0  0  0  0  0  0  0  0  0  0  0
   54.7567  155.8550   23.4967 H   0  0  0  0  0  0  0  0  0  0  0  0
   55.1340  153.4546   24.0721 H   0  0  0  0  0  0  0  0  0  0  0  0
   53.5870  151.6860   26.4150 H   0  0  0  0  0  0  0  0  0  0  0  0
   51.7270  154.7410   30.9090 H   0  0  0  0  0  0  0  0  0  0  0  0
   52.7905  158.5648   29.1745 H   0  0  0  0  0  0  0  0  0  0  0  0
   51.9269  160.8406   31.6237 H   0  0  0  0  0  0  0  0  0  0  0  0
   52.8418  160.6377   30.0913 H   0  0  0  0  0  0  0  0  0  0  0  0
   51.2724  161.5115   30.0913 H   0  0  0  0  0  0  0  0  0  0  0  0
  1  2  1  0
  2  3  1  0
  3  4  1  0
  4  5  1  0
  5  6  2  0
  6  7  1  0
  7  8  2  0
  8  9  1  0
  9 10  1  0
 10 11  1  0
 11 12  2  0
 12 13  1  0
 13 14  2  0
 14 15  1  0
 15 16  1  0
 15 17  2  0
 17 18  1  0
 18 19  2  0
 18 20  1  0
 20 21  1  0
  8 22  1  0
 22 23  2  0
 23 24  1  0
 23  5  1  0
 20  9  2  0
 17 11  1  0
  1 25  1  0
  1 26  1  0
  1 27  1  0
  2 28  1  0
  2 29  1  0
  3 30  1  0
  3 31  1  0
  4 32  1  0
  4 33  1  0
  6 34  1  0
  7 35  1  0
 12 36  1  0
 13 37  1  0
 14 38  1  0
 16 39  1  0
 21 40  1  0
 22 41  1  0
 24 42  1  0
 24 43  1  0
 24 44  1  0
M  END
>  <meeko>  (2) 
{"is_sidechain": [false], "free_energy": -10.729, "intermolecular_energy": -14.049, "internal_energy": -0.465}

$$$$
cand_052_out
     RDKit          3D

 44 46  0  0  0  0  0  0  0  0999 V2000
   48.6030  160.9650   32.5990 C   0  0  0  0  0  0  0  0  0  0  0  0
   48.4620  161.5130   31.1880 C   0  0  0  0  0  0  0  0  0  0  0  0
   49.5660  160.9890   30.2700 C   0  0  0  0  0  0  0  0  0  0  0  0
   50.5730  160.1350   31.0460 C   0  0  0  0  0  0  0  0  0  0  0  0
   50.9870  158.9070   30.2650 C   0  0  0  0  0  0  0  0  0  0  0  0
   52.2680  158.8800   29.6930 C   0  0  0  0  0  0  0  0  0  0  0  0
   52.7040  157.7780   28.9530 C   0  0  0  0  0  0  0  0  0  0  0  0
   51.8730  156.6700   28.7670 C   0  0  0  0  0  0  0  0  0  0  0  0
   52.3000  155.5010   27.9700 C   0  0  0  0  0  0  0  0  0  0  0  0
   52.9810  155.8580   26.8110 O   0  0  0  0  0  0  0  0  0  0  0  0
   53.4360  154.8700   25.9770 C   0  0  0  0  0  0  0  0  0  0  0  0
   54.1260  155.2730   24.8340 C   0  0  0  0  0  0  0  0  0  0  0  0
   54.6150  154.3160   23.9400 C   0  0  0  0  0  0  0  0  0  0  0  0
   54.4120  152.9580   24.1900 C   0  0  0  0  0  0  0  0  0  0  0  0
   53.7220  152.5580   25.3320 C   0  0  0  0  0  0  0  0  0  0  0  0
   53.5580  151.2120   25.5150 O   0  0  0  0  0  0  0  0  0  0  0  0
   53.2340  153.5160   26.2250 C   0  0  0  0  0  0  0  0  0  0  0  0
   52.5050  153.1380   27.4370 C   0  0  0  0  0  0  0  0  0  0  0  0
   52.2800  151.9630   27.7220 O   0  0  0  0  0  0  0  0  0  0  0  0
   52.0370  154.2300   28.3230 C   0  0  0  0  0  0  0  0  0  0  0  0
   51.3360  153.8620   29.4570 O   0  0  0  0  0  0  0  0  0  0  0  0
   50.5870  156.7030   29.3270 C   0  0  0  0  0  0  0  0  0  0  0  0
   50.1280  157.8080   30.0690 C   0  0  0  0  0  0  0  0  0  0  0  0
   48.7420  157.7650   30.6530 C   0  0  0  0  0  0  0  0  0  0  0  0
   48.3972  161.7650   33.3253 H   0  0  0  0  0  0  0  0  0  0  0  0
   47.8871  160.1429   32.7463 H   0  0  0  0  0  0  0  0  0  0  0  0
   49.6268  160.5905   32.7463 H   0  0  0  0  0  0  0  0  0  0  0  0
   47.4858  161.2089   30.7825 H   0  0  0  0  0  0  0  0  0  0  0  0
   48.5430  162.6090   31.2340 H   0  0  0  0  0  0  0  0  0  0  0  0
   49.1124  160.3767   29.4767 H   0  0  0  0  0  0  0  0  0  0  0  0
   50.0984  161.8498   29.8392 H   0  0  0  0  0  0  0  0  0  0  0  0
   51.4665  160.7411   31.2566 H   0  0  0  0  0  0  0  0  0  0  0  0
   50.0929  159.8020   31.9780 H   0  0  0  0  0  0  0  0  0  0  0  0
   52.9398  159.7403   29.8294 H   0  0  0  0  0  0  0  0  0  0  0  0
   53.7118  157.7826   28.5122 H   0  0  0  0  0  0  0  0  0  0  0  0
   54.2854  156.3432   24.6361 H   0  0  0  0  0  0  0  0  0  0  0  0
   55.1602  154.6335   23.0389 H   0  0  0  0  0  0  0  0  0  0  0  0
   54.7962  152.2048   23.4864 H   0  0  0  0  0  0  0  0  0  0  0  0
   53.9950  150.6060   24.9500 H   0  0  0  0  0  0  0  0  0  0  0  0
   51.7920  153.7220   30.2640 H   0  0  0  0  0  0  0  0  0  0  0  0
   49.9186  155.8414   29.1823 H   0  0  0  0  0  0  0  0  0  0  0  0
   48.8066  157.7670   31.7511 H   0  0  0  0  0  0  0  0  0  0  0  0
   48.1752  158.6460   30.3174 H   0  0  0  0  0  0  0  0  0  0  0  0
   48.2309  156.8506   30.3174 H   0  0  0  0  0  0  0  0  0  0  0  0
  1  2  1  0
  2  3  1  0
  3  4  1  0
  4  5  1  0
  5  6  2  0
  6  7  1  0
  7  8  2  0
  8  9  1  0
  9 10  1  0
 10 11  1  0
 11 12  2  0
 12 13  1  0
 13 14  2  0
 14 15  1  0
 15 16  1  0
 15 17  2  0
 17 18  1  0
 18 19  2  0
 18 20  1  0
 20 21  1  0
  8 22  1  0
 22 23  2  0
 23 24  1  0
 23  5  1  0
 20  9  2  0
 17 11  1  0
  1 25  1  0
  1 26  1  0
  1 27  1  0
  2 28  1  0
  2 29  1  0
  3 30  1  0
  3 31  1  0
  4 32  1  0
  4 33  1  0
  6 34  1  0
  7 35  1  0
 12 36  1  0
 13 37  1  0
 14 38  1  0
 16 39  1  0
 21 40  1  0
 22 41  1  0
 24 42  1  0
 24 43  1  0
 24 44  1  0
M  END
>  <meeko>  (3) 
{"is_sidechain": [false], "free_energy": -10.664, "intermolecular_energy": -14.16, "internal_energy": -0.27}

$$$$
cand_052_out
     RDKit          3D

 44 46  0  0  0  0  0  0  0  0999 V2000
   54.0550  152.0690   24.0570 C   0  0  0  0  0  0  0  0  0  0  0  0
   54.0800  153.5890   24.0430 C   0  0  0  0  0  0  0  0  0  0  0  0
   52.9990  154.1760   24.9510 C   0  0  0  0  0  0  0  0  0  0  0  0
   53.3240  153.9340   26.4280 C   0  0  0  0  0  0  0  0  0  0  0  0
   52.7640  155.0280   27.3110 C   0  0  0  0  0  0  0  0  0  0  0  0
   52.9900  156.3640   26.9450 C   0  0  0  0  0  0  0  0  0  0  0  0
   52.5060  157.4170   27.7250 C   0  0  0  0  0  0  0  0  0  0  0  0
   51.7770  157.1650   28.8900 C   0  0  0  0  0  0  0  0  0  0  0  0
   51.2730  158.2590   29.7460 C   0  0  0  0  0  0  0  0  0  0  0  0
   49.9290  158.1130   30.0720 O   0  0  0  0  0  0  0  0  0  0  0  0
   49.3310  159.0600   30.8640 C   0  0  0  0  0  0  0  0  0  0  0  0
   47.9860  158.8660   31.1770 C   0  0  0  0  0  0  0  0  0  0  0  0
   47.3160  159.7950   31.9790 C   0  0  0  0  0  0  0  0  0  0  0  0
   47.9920  160.9160   32.4640 C   0  0  0  0  0  0  0  0  0  0  0  0
   49.3350  161.1070   32.1500 C   0  0  0  0  0  0  0  0  0  0  0  0
   49.9360  162.2260   32.6580 O   0  0  0  0  0  0  0  0  0  0  0  0
   50.0040  160.1770   31.3490 C   0  0  0  0  0  0  0  0  0  0  0  0
   51.4150  160.3400   30.9950 C   0  0  0  0  0  0  0  0  0  0  0  0
   52.0760  161.3040   31.3780 O   0  0  0  0  0  0  0  0  0  0  0  0
   52.0330  159.2940   30.1470 C   0  0  0  0  0  0  0  0  0  0  0  0
   53.3630  159.4650   29.8070 O   0  0  0  0  0  0  0  0  0  0  0  0
   51.5630  155.8290   29.2640 C   0  0  0  0  0  0  0  0  0  0  0  0
   52.0500  154.7560   28.4950 C   0  0  0  0  0  0  0  0  0  0  0  0
   51.7670  153.3490   28.9480 C   0  0  0  0  0  0  0  0  0  0  0  0
   54.0491  151.7120   25.0974 H   0  0  0  0  0  0  0  0  0  0  0  0
   53.1509  151.7124   23.5419 H   0  0  0  0  0  0  0  0  0  0  0  0
   54.9469  151.6829   23.5419 H   0  0  0  0  0  0  0  0  0  0  0  0
   55.0649  153.9334   24.3912 H   0  0  0  0  0  0  0  0  0  0  0  0
   53.8877  153.9277   23.0143 H   0  0  0  0  0  0  0  0  0  0  0  0
   52.9293  155.2591   24.7718 H   0  0  0  0  0  0  0  0  0  0  0  0
   52.0439  153.6820   24.7193 H   0  0  0  0  0  0  0  0  0  0  0  0
   52.8903  152.9709   26.7353 H   0  0  0  0  0  0  0  0  0  0  0  0
   54.4181  153.9280   26.5418 H   0  0  0  0  0  0  0  0  0  0  0  0
   53.5575  156.5855   26.0291 H   0  0  0  0  0  0  0  0  0  0  0  0
   52.7008  158.4554   27.4188 H   0  0  0  0  0  0  0  0  0  0  0  0
   47.4529  157.9835   30.7936 H   0  0  0  0  0  0  0  0  0  0  0  0
   46.2555  159.6424   32.2280 H   0  0  0  0  0  0  0  0  0  0  0  0
   47.4643  161.6476   33.0935 H   0  0  0  0  0  0  0  0  0  0  0  0
   50.4900  162.1600   33.4100 H   0  0  0  0  0  0  0  0  0  0  0  0
   53.9030  160.0450   30.3070 H   0  0  0  0  0  0  0  0  0  0  0  0
   50.9989  155.6150   30.1838 H   0  0  0  0  0  0  0  0  0  0  0  0
   51.7596  153.3122   30.0474 H   0  0  0  0  0  0  0  0  0  0  0  0
   50.7868  153.0303   28.5639 H   0  0  0  0  0  0  0  0  0  0  0  0
   52.5478  152.6761   28.5639 H   0  0  0  0  0  0  0  0  0  0  0  0
  1  2  1  0
  2  3  1  0
  3  4  1  0
  4  5  1  0
  5  6  2  0
  6  7  1  0
  7  8  2  0
  8  9  1  0
  9 10  1  0
 10 11  1  0
 11 12  2  0
 12 13  1  0
 13 14  2  0
 14 15  1  0
 15 16  1  0
 15 17  2  0
 17 18  1  0
 18 19  2  0
 18 20  1  0
 20 21  1  0
  8 22  1  0
 22 23  2  0
 23 24  1  0
 23  5  1  0
 20  9  2  0
 17 11  1  0
  1 25  1  0
  1 26  1  0
  1 27  1  0
  2 28  1  0
  2 29  1  0
  3 30  1  0
  3 31  1  0
  4 32  1  0
  4 33  1  0
  6 34  1  0
  7 35  1  0
 12 36  1  0
 13 37  1  0
 14 38  1  0
 16 39  1  0
 21 40  1  0
 22 41  1  0
 24 42  1  0
 24 43  1  0
 24 44  1  0
M  END
>  <meeko>  (4) 
{"is_sidechain": [false], "free_energy": -10.313, "intermolecular_energy": -13.637, "internal_energy": -0.339}

$$$$
cand_052_out
     RDKit          3D

 44 46  0  0  0  0  0  0  0  0999 V2000
   54.0710  152.5200   23.7540 C   0  0  0  0  0  0  0  0  0  0  0  0
   54.5400  151.7980   25.0070 C   0  0  0  0  0  0  0  0  0  0  0  0
   54.0740  152.5150   26.2750 C   0  0  0  0  0  0  0  0  0  0  0  0
   52.6060  152.9370   26.1650 C   0  0  0  0  0  0  0  0  0  0  0  0
   52.3160  154.1750   26.9860 C   0  0  0  0  0  0  0  0  0  0  0  0
   51.5670  154.0340   28.1650 C   0  0  0  0  0  0  0  0  0  0  0  0
   51.2600  155.1400   28.9610 C   0  0  0  0  0  0  0  0  0  0  0  0
   51.6950  156.4190   28.6030 C   0  0  0  0  0  0  0  0  0  0  0  0
   51.3640  157.6100   29.4130 C   0  0  0  0  0  0  0  0  0  0  0  0
   50.0360  157.6300   29.8240 O   0  0  0  0  0  0  0  0  0  0  0  0
   49.5930  158.6810   30.5860 C   0  0  0  0  0  0  0  0  0  0  0  0
   48.2570  158.6540   30.9870 C   0  0  0  0  0  0  0  0  0  0  0  0
   47.7410  159.6950   31.7630 C   0  0  0  0  0  0  0  0  0  0  0  0
   48.5610  160.7620   32.1360 C   0  0  0  0  0  0  0  0  0  0  0  0
   49.8940  160.7870   31.7330 C   0  0  0  0  0  0  0  0  0  0  0  0
   50.6400  161.8620   32.1330 O   0  0  0  0  0  0  0  0  0  0  0  0
   50.4090  159.7450   30.9570 C   0  0  0  0  0  0  0  0  0  0  0  0
   51.8040  159.7320   30.5140 C   0  0  0  0  0  0  0  0  0  0  0  0
   52.5850  160.6390   30.7950 O   0  0  0  0  0  0  0  0  0  0  0  0
   52.2540  158.5770   29.7020 C   0  0  0  0  0  0  0  0  0  0  0  0
   53.5690  158.5820   29.2760 O   0  0  0  0  0  0  0  0  0  0  0  0
   52.4310  156.5620   27.4160 C   0  0  0  0  0  0  0  0  0  0  0  0
   52.7440  155.4600   26.5990 C   0  0  0  0  0  0  0  0  0  0  0  0
   53.5520  155.6870   25.3500 C   0  0  0  0  0  0  0  0  0  0  0  0
   53.4923  153.4109   24.0391 H   0  0  0  0  0  0  0  0  0  0  0  0
   54.9439  152.8250   23.1581 H   0  0  0  0  0  0  0  0  0  0  0  0
   53.4375  151.8465   23.1581 H   0  0  0  0  0  0  0  0  0  0  0  0
   54.1329  150.7761   25.0042 H   0  0  0  0  0  0  0  0  0  0  0  0
   55.6399  151.7815   25.0044 H   0  0  0  0  0  0  0  0  0  0  0  0
   54.1890  151.8369   27.1335 H   0  0  0  0  0  0  0  0  0  0  0  0
   54.6869  153.4185   26.4095 H   0  0  0  0  0  0  0  0  0  0  0  0
   52.3733  153.1461   25.1104 H   0  0  0  0  0  0  0  0  0  0  0  0
   51.9836  152.1162   26.5509 H   0  0  0  0  0  0  0  0  0  0  0  0
   51.2161  153.0361   28.4669 H   0  0  0  0  0  0  0  0  0  0  0  0
   50.6698  155.0029   29.8791 H   0  0  0  0  0  0  0  0  0  0  0  0
   47.6106  157.8141   30.6926 H   0  0  0  0  0  0  0  0  0  0  0  0
   46.6880  159.6741   32.0804 H   0  0  0  0  0  0  0  0  0  0  0  0
   48.1548  161.5815   32.7471 H   0  0  0  0  0  0  0  0  0  0  0  0
   50.6850  162.0900   33.0400 H   0  0  0  0  0  0  0  0  0  0  0  0
   54.2000  159.1210   29.7120 H   0  0  0  0  0  0  0  0  0  0  0  0
   52.7726  157.5637   27.1163 H   0  0  0  0  0  0  0  0  0  0  0  0
   54.5776  155.9751   25.6241 H   0  0  0  0  0  0  0  0  0  0  0  0
   53.5774  154.7612   24.7564 H   0  0  0  0  0  0  0  0  0  0  0  0
   53.0916  156.4906   24.7564 H   0  0  0  0  0  0  0  0  0  0  0  0
  1  2  1  0
  2  3  1  0
  3  4  1  0
  4  5  1  0
  5  6  2  0
  6  7  1  0
  7  8  2  0
  8  9  1  0
  9 10  1  0
 10 11  1  0
 11 12  2  0
 12 13  1  0
 13 14  2  0
 14 15  1  0
 15 16  1  0
 15 17  2  0
 17 18  1  0
 18 19  2  0
 18 20  1  0
 20 21  1  0
  8 22  1  0
 22 23  2  0
 23 24  1  0
 23  5  1  0
 20  9  2  0
 17 11  1  0
  1 25  1  0
  1 26  1  0
  1 27  1  0
  2 28  1  0
  2 29  1  0
  3 30  1  0
  3 31  1  0
  4 32  1  0
  4 33  1  0
  6 34  1  0
  7 35  1  0
 12 36  1  0
 13 37  1  0
 14 38  1  0
 16 39  1  0
 21 40  1  0
 22 41  1  0
 24 42  1  0
 24 43  1  0
 24 44  1  0
M  END
>  <meeko>  (5) 
{"is_sidechain": [false], "free_energy": -10.269, "intermolecular_energy": -13.686, "internal_energy": -0.234}

$$$$
cand_052_out
     RDKit          3D

 44 46  0  0  0  0  0  0  0  0999 V2000
   54.2130  153.2720   23.4690 C   0  0  0  0  0  0  0  0  0  0  0  0
   53.7840  152.2170   24.4770 C   0  0  0  0  0  0  0  0  0  0  0  0
   52.8680  152.8070   25.5500 C   0  0  0  0  0  0  0  0  0  0  0  0
   53.6720  153.2970   26.7570 C   0  0  0  0  0  0  0  0  0  0  0  0
   52.9640  154.4200   27.4840 C   0  0  0  0  0  0  0  0  0  0  0  0
   52.2350  154.1100   28.6430 C   0  0  0  0  0  0  0  0  0  0  0  0
   51.5540  155.1010   29.3520 C   0  0  0  0  0  0  0  0  0  0  0  0
   51.5850  156.4320   28.9270 C   0  0  0  0  0  0  0  0  0  0  0  0
   50.8540  157.4970   29.6450 C   0  0  0  0  0  0  0  0  0  0  0  0
   51.6680  158.5690   29.9940 O   0  0  0  0  0  0  0  0  0  0  0  0
   51.1170  159.6310   30.6650 C   0  0  0  0  0  0  0  0  0  0  0  0
   51.9670  160.6890   30.9820 C   0  0  0  0  0  0  0  0  0  0  0  0
   51.4700  161.8020   31.6680 C   0  0  0  0  0  0  0  0  0  0  0  0
   50.1240  161.8520   32.0370 C   0  0  0  0  0  0  0  0  0  0  0  0
   49.2780  160.7920   31.7190 C   0  0  0  0  0  0  0  0  0  0  0  0
   47.9720  160.9060   32.1100 O   0  0  0  0  0  0  0  0  0  0  0  0
   49.7760  159.6810   31.0320 C   0  0  0  0  0  0  0  0  0  0  0  0
   48.9210  158.5470   30.6790 C   0  0  0  0  0  0  0  0  0  0  0  0
   47.7280  158.5140   30.9740 O   0  0  0  0  0  0  0  0  0  0  0  0
   49.5440  157.4220   29.9440 C   0  0  0  0  0  0  0  0  0  0  0  0
   48.7300  156.3500   29.6280 O   0  0  0  0  0  0  0  0  0  0  0  0
   52.3020  156.7400   27.7600 C   0  0  0  0  0  0  0  0  0  0  0  0
   52.9880  155.7530   27.0290 C   0  0  0  0  0  0  0  0  0  0  0  0
   53.7510  156.1600   25.7970 C   0  0  0  0  0  0  0  0  0  0  0  0
   54.5753  154.1631   24.0026 H   0  0  0  0  0  0  0  0  0  0  0  0
   55.0190  152.8697   22.8377 H   0  0  0  0  0  0  0  0  0  0  0  0
   53.3550  153.5463   22.8377 H   0  0  0  0  0  0  0  0  0  0  0  0
   53.2462  151.4158   23.9489 H   0  0  0  0  0  0  0  0  0  0  0  0
   54.6853  151.8243   24.9704 H   0  0  0  0  0  0  0  0  0  0  0  0
   52.3126  153.6541   25.1212 H   0  0  0  0  0  0  0  0  0  0  0  0
   52.1769  152.0209   25.8882 H   0  0  0  0  0  0  0  0  0  0  0  0
   53.8170  152.4576   27.4530 H   0  0  0  0  0  0  0  0  0  0  0  0
   54.6371  153.6794   26.3932 H   0  0  0  0  0  0  0  0  0  0  0  0
   52.1999  153.0695   28.9981 H   0  0  0  0  0  0  0  0  0  0  0  0
   50.9868  154.8314   30.2551 H   0  0  0  0  0  0  0  0  0  0  0  0
   53.0276  160.6488   30.6930 H   0  0  0  0  0  0  0  0  0  0  0  0
   52.1397  162.6384   31.9170 H   0  0  0  0  0  0  0  0  0  0  0  0
   49.7328  162.7265   32.5776 H   0  0  0  0  0  0  0  0  0  0  0  0
   47.3520  161.3350   31.5540 H   0  0  0  0  0  0  0  0  0  0  0  0
   49.0820  155.6170   29.1620 H   0  0  0  0  0  0  0  0  0  0  0  0
   52.3281  157.7817   27.4075 H   0  0  0  0  0  0  0  0  0  0  0  0
   54.6858  156.6587   26.0927 H   0  0  0  0  0  0  0  0  0  0  0  0
   53.9851  155.2669   25.1990 H   0  0  0  0  0  0  0  0  0  0  0  0
   53.1397  156.8518   25.1990 H   0  0  0  0  0  0  0  0  0  0  0  0
  1  2  1  0
  2  3  1  0
  3  4  1  0
  4  5  1  0
  5  6  2  0
  6  7  1  0
  7  8  2  0
  8  9  1  0
  9 10  1  0
 10 11  1  0
 11 12  2  0
 12 13  1  0
 13 14  2  0
 14 15  1  0
 15 16  1  0
 15 17  2  0
 17 18  1  0
 18 19  2  0
 18 20  1  0
 20 21  1  0
  8 22  1  0
 22 23  2  0
 23 24  1  0
 23  5  1  0
 20  9  2  0
 17 11  1  0
  1 25  1  0
  1 26  1  0
  1 27  1  0
  2 28  1  0
  2 29  1  0
  3 30  1  0
  3 31  1  0
  4 32  1  0
  4 33  1  0
  6 34  1  0
  7 35  1  0
 12 36  1  0
 13 37  1  0
 14 38  1  0
 16 39  1  0
 21 40  1  0
 22 41  1  0
 24 42  1  0
 24 43  1  0
 24 44  1  0
M  END
>  <meeko>  (6) 
{"is_sidechain": [false], "free_energy": -9.108, "intermolecular_energy": -11.97, "internal_energy": -0.45}

$$$$
cand_052_out
     RDKit          3D

 44 46  0  0  0  0  0  0  0  0999 V2000
   54.0210  152.1530   24.3590 C   0  0  0  0  0  0  0  0  0  0  0  0
   54.0900  153.5800   23.8400 C   0  0  0  0  0  0  0  0  0  0  0  0
   54.0870  154.5930   24.9860 C   0  0  0  0  0  0  0  0  0  0  0  0
   53.6660  153.9380   26.3040 C   0  0  0  0  0  0  0  0  0  0  0  0
   52.8990  154.8980   27.1870 C   0  0  0  0  0  0  0  0  0  0  0  0
   53.0430  156.2760   26.9590 C   0  0  0  0  0  0  0  0  0  0  0  0
   52.3680  157.2110   27.7470 C   0  0  0  0  0  0  0  0  0  0  0  0
   51.5260  156.7960   28.7830 C   0  0  0  0  0  0  0  0  0  0  0  0
   50.8190  157.7650   29.6460 C   0  0  0  0  0  0  0  0  0  0  0  0
   51.6170  158.8420   30.0160 O   0  0  0  0  0  0  0  0  0  0  0  0
   51.0850  159.8180   30.8180 C   0  0  0  0  0  0  0  0  0  0  0  0
   51.9170  160.8860   31.1530 C   0  0  0  0  0  0  0  0  0  0  0  0
   51.4370  161.9150   31.9690 C   0  0  0  0  0  0  0  0  0  0  0  0
   50.1270  161.8730   32.4500 C   0  0  0  0  0  0  0  0  0  0  0  0
   49.2990  160.8040   32.1140 C   0  0  0  0  0  0  0  0  0  0  0  0
   48.0280  160.8260   32.6210 O   0  0  0  0  0  0  0  0  0  0  0  0
   49.7790  159.7770   31.2980 C   0  0  0  0  0  0  0  0  0  0  0  0
   48.9420  158.6370   30.9220 C   0  0  0  0  0  0  0  0  0  0  0  0
   47.7810  158.5250   31.3110 O   0  0  0  0  0  0  0  0  0  0  0  0
   49.5440  157.6050   30.0450 C   0  0  0  0  0  0  0  0  0  0  0  0
   48.7480  156.5250   29.7070 O   0  0  0  0  0  0  0  0  0  0  0  0
   51.3940  155.4200   29.0200 C   0  0  0  0  0  0  0  0  0  0  0  0
   52.0720  154.4640   28.2410 C   0  0  0  0  0  0  0  0  0  0  0  0
   51.8670  153.0040   28.5430 C   0  0  0  0  0  0  0  0  0  0  0  0
   54.0215  152.1625   25.4590 H   0  0  0  0  0  0  0  0  0  0  0  0
   53.0987  151.6753   23.9968 H   0  0  0  0  0  0  0  0  0  0  0  0
   54.8929  151.5885   23.9968 H   0  0  0  0  0  0  0  0  0  0  0  0
   55.0137  153.7038   23.2557 H   0  0  0  0  0  0  0  0  0  0  0  0
   53.2040  153.7634   23.2144 H   0  0  0  0  0  0  0  0  0  0  0  0
   55.0989  155.0091   25.0995 H   0  0  0  0  0  0  0  0  0  0  0  0
   53.3651  155.3875   24.7462 H   0  0  0  0  0  0  0  0  0  0  0  0
   53.0276  153.0700   26.0826 H   0  0  0  0  0  0  0  0  0  0  0  0
   54.5762  153.6318   26.8405 H   0  0  0  0  0  0  0  0  0  0  0  0
   53.6978  156.6247   26.1469 H   0  0  0  0  0  0  0  0  0  0  0  0
   52.5003  158.2852   27.5504 H   0  0  0  0  0  0  0  0  0  0  0  0
   52.9497  160.9188   30.7757 H   0  0  0  0  0  0  0  0  0  0  0  0
   52.0922  162.7585   32.2322 H   0  0  0  0  0  0  0  0  0  0  0  0
   49.7495  162.6820   33.0927 H   0  0  0  0  0  0  0  0  0  0  0  0
   47.8300  160.3640   33.4110 H   0  0  0  0  0  0  0  0  0  0  0  0
   48.0740  156.6240   29.0640 H   0  0  0  0  0  0  0  0  0  0  0  0
   50.7423  155.0785   29.8377 H   0  0  0  0  0  0  0  0  0  0  0  0
   51.8460  152.8544   29.6326 H   0  0  0  0  0  0  0  0  0  0  0  0
   50.9132  152.6701   28.1086 H   0  0  0  0  0  0  0  0  0  0  0  0
   52.6920  152.4203   28.1086 H   0  0  0  0  0  0  0  0  0  0  0  0
  1  2  1  0
  2  3  1  0
  3  4  1  0
  4  5  1  0
  5  6  2  0
  6  7  1  0
  7  8  2  0
  8  9  1  0
  9 10  1  0
 10 11  1  0
 11 12  2  0
 12 13  1  0
 13 14  2  0
 14 15  1  0
 15 16  1  0
 15 17  2  0
 17 18  1  0
 18 19  2  0
 18 20  1  0
 20 21  1  0
  8 22  1  0
 22 23  2  0
 23 24  1  0
 23  5  1  0
 20  9  2  0
 17 11  1  0
  1 25  1  0
  1 26  1  0
  1 27  1  0
  2 28  1  0
  2 29  1  0
  3 30  1  0
  3 31  1  0
  4 32  1  0
  4 33  1  0
  6 34  1  0
  7 35  1  0
 12 36  1  0
 13 37  1  0
 14 38  1  0
 16 39  1  0
 21 40  1  0
 22 41  1  0
 24 42  1  0
 24 43  1  0
 24 44  1  0
M  END
>  <meeko>  (7) 
{"is_sidechain": [false], "free_energy": -8.677, "intermolecular_energy": -11.562, "internal_energy": -0.3}

$$$$
