cand_003_out
     RDKit          3D

 35 37  0  0  0  0  0  0  0  0999 V2000
   48.2260  158.7920   31.2900 C   0  0  0  0  0  0  0  0  0  0  0  0
   49.6330  158.8180   30.7560 C   0  0  0  0  0  0  0  0  0  0  0  0
   50.1120  157.7070   30.0350 C   0  0  0  0  0  0  0  0  0  0  0  0
   51.4100  157.6800   29.5030 C   0  0  0  0  0  0  0  0  0  0  0  0
   51.8820  156.4840   28.7740 C   0  0  0  0  0  0  0  0  0  0  0  0
   52.4590  156.7900   27.5470 O   0  0  0  0  0  0  0  0  0  0  0  0
   52.9400  155.7690   26.7670 C   0  0  0  0  0  0  0  0  0  0  0  0
   53.4980  156.1200   25.5370 C   0  0  0  0  0  0  0  0  0  0  0  0
   54.0080  155.1290   24.6960 C   0  0  0  0  0  0  0  0  0  0  0  0
   53.9610  153.7890   25.0840 C   0  0  0  0  0  0  0  0  0  0  0  0
   53.4040  153.4410   26.3120 C   0  0  0  0  0  0  0  0  0  0  0  0
   53.3910  152.1110   26.6300 O   0  0  0  0  0  0  0  0  0  0  0  0
   52.8920  154.4330   27.1530 C   0  0  0  0  0  0  0  0  0  0  0  0
   52.2990  154.1110   28.4520 C   0  0  0  0  0  0  0  0  0  0  0  0
   52.2280  152.9560   28.8670 O   0  0  0  0  0  0  0  0  0  0  0  0
   51.7790  155.2350   29.2650 C   0  0  0  0  0  0  0  0  0  0  0  0
   51.2330  154.9220   30.4960 O   0  0  0  0  0  0  0  0  0  0  0  0
   52.2400  158.7850   29.7180 C   0  0  0  0  0  0  0  0  0  0  0  0
   51.7790  159.8960   30.4290 C   0  0  0  0  0  0  0  0  0  0  0  0
   50.4760  159.9320   30.9530 C   0  0  0  0  0  0  0  0  0  0  0  0
   50.0130  161.1540   31.7180 C   0  0  0  0  0  0  0  0  0  0  0  0
   49.5380  160.8530   32.9590 F   0  0  0  0  0  0  0  0  0  0  0  0
   49.0070  161.8360   31.0970 F   0  0  0  0  0  0  0  0  0  0  0  0
   51.0090  162.0650   31.9070 F   0  0  0  0  0  0  0  0  0  0  0  0
   48.2511  158.7925   32.3897 H   0  0  0  0  0  0  0  0  0  0  0  0
   47.6827  159.6803   30.9353 H   0  0  0  0  0  0  0  0  0  0  0  0
   47.7159  157.8843   30.9353 H   0  0  0  0  0  0  0  0  0  0  0  0
   49.4525  156.8394   29.8853 H   0  0  0  0  0  0  0  0  0  0  0  0
   53.5360  157.1758   25.2305 H   0  0  0  0  0  0  0  0  0  0  0  0
   54.4476  155.4047   23.7261 H   0  0  0  0  0  0  0  0  0  0  0  0
   54.3633  153.0091   24.4208 H   0  0  0  0  0  0  0  0  0  0  0  0
   52.8360  151.7990   27.3180 H   0  0  0  0  0  0  0  0  0  0  0  0
   51.7730  154.9200   31.2610 H   0  0  0  0  0  0  0  0  0  0  0  0
   53.2667  158.7794   29.3231 H   0  0  0  0  0  0  0  0  0  0  0  0
   52.4472  160.7565   30.5809 H   0  0  0  0  0  0  0  0  0  0  0  0
  1  2  1  0
  2  3  2  0
  3  4  1  0
  4  5  1  0
  5  6  1  0
  6  7  1  0
  7  8  2  0
  8  9  1  0
  9 10  2  0
 10 11  1  0
 11 12  1  0
 11 13  2  0
 13 14  1  0
 14 15  2  0
 14 16  1  0
 16 17  1  0
  4 18  2  0
 18 19  1  0
 19 20  2  0
 20 21  1  0
 21 22  1  0
 21 23  1  0
 21 24  1  0
 20  2  1  0
 16  5  2  0
 13  7  1  0
  1 25  1  0
  1 26  1  0
  1 27  1  0
  3 28  1  0
  8 29  1  0
  9 30  1  0
 10 31  1  0
 12 32  1  0
 17 33  1  0
 18 34  1  0
 19 35  1  0
M  END
>  <meeko>  (1) 
{"is_sidechain": [false], "free_energy": -12.081, "intermolecular_energy": -14.2, "internal_energy": -0.124}

$$$$
cand_003_out
     RDKit          3D

 35 37  0  0  0  0  0  0  0  0999 V2000
   51.6900  161.0350   30.8650 C   0  0  0  0  0  0  0  0  0  0  0  0
   50.9300  159.7650   30.5890 C   0  0  0  0  0  0  0  0  0  0  0  0
   51.5730  158.7180   29.9030 C   0  0  0  0  0  0  0  0  0  0  0  0
   50.9180  157.5070   29.6290 C   0  0  0  0  0  0  0  0  0  0  0  0
   51.6220  156.4430   28.8830 C   0  0  0  0  0  0  0  0  0  0  0  0
   52.1720  156.8920   27.6880 O   0  0  0  0  0  0  0  0  0  0  0  0
   52.8540  156.0030   26.8970 C   0  0  0  0  0  0  0  0  0  0  0  0
   53.3780  156.4930   25.7000 C   0  0  0  0  0  0  0  0  0  0  0  0
   54.0860  155.6410   24.8490 C   0  0  0  0  0  0  0  0  0  0  0  0
   54.2710  154.3010   25.1950 C   0  0  0  0  0  0  0  0  0  0  0  0
   53.7480  153.8150   26.3910 C   0  0  0  0  0  0  0  0  0  0  0  0
   53.9670  152.4940   26.6690 O   0  0  0  0  0  0  0  0  0  0  0  0
   53.0390  154.6680   27.2410 C   0  0  0  0  0  0  0  0  0  0  0  0
   52.4740  154.1970   28.5070 C   0  0  0  0  0  0  0  0  0  0  0  0
   52.6000  153.0340   28.8850 O   0  0  0  0  0  0  0  0  0  0  0  0
   51.7330  155.1790   29.3330 C   0  0  0  0  0  0  0  0  0  0  0  0
   51.2140  154.7280   30.5330 O   0  0  0  0  0  0  0  0  0  0  0  0
   49.5890  157.3620   30.0400 C   0  0  0  0  0  0  0  0  0  0  0  0
   48.9370  158.3920   30.7230 C   0  0  0  0  0  0  0  0  0  0  0  0
   49.5930  159.6010   31.0110 C   0  0  0  0  0  0  0  0  0  0  0  0
   48.8540  160.6920   31.7550 C   0  0  0  0  0  0  0  0  0  0  0  0
   47.5690  160.3520   32.0550 F   0  0  0  0  0  0  0  0  0  0  0  0
   48.7690  161.8640   31.0600 F   0  0  0  0  0  0  0  0  0  0  0  0
   49.4450  161.0140   32.9400 F   0  0  0  0  0  0  0  0  0  0  0  0
   51.7775  161.1812   31.9517 H   0  0  0  0  0  0  0  0  0  0  0  0
   52.6946  160.9647   30.4225 H   0  0  0  0  0  0  0  0  0  0  0  0
   51.1532  161.8871   30.4225 H   0  0  0  0  0  0  0  0  0  0  0  0
   52.6139  158.8517   29.5735 H   0  0  0  0  0  0  0  0  0  0  0  0
   53.2337  157.5488   25.4270 H   0  0  0  0  0  0  0  0  0  0  0  0
   54.4984  156.0264   23.9049 H   0  0  0  0  0  0  0  0  0  0  0  0
   54.8286  153.6305   24.5245 H   0  0  0  0  0  0  0  0  0  0  0  0
   54.2290  152.2330   27.5300 H   0  0  0  0  0  0  0  0  0  0  0  0
   51.6760  154.8880   31.3320 H   0  0  0  0  0  0  0  0  0  0  0  0
   49.0513  156.4272   29.8233 H   0  0  0  0  0  0  0  0  0  0  0  0
   47.8929  158.2542   31.0405 H   0  0  0  0  0  0  0  0  0  0  0  0
  1  2  1  0
  2  3  2  0
  3  4  1  0
  4  5  1  0
  5  6  1  0
  6  7  1  0
  7  8  2  0
  8  9  1  0
  9 10  2  0
 10 11  1  0
 11 12  1  0
 11 13  2  0
 13 14  1  0
 14 15  2  0
 14 16  1  0
 16 17  1  0
  4 18  2  0
 18 19  1  0
 19 20  2  0
 20 21  1  0
 21 22  1  0
 21 23  1  0
 21 24  1  0
 20  2  1  0
 16  5  2  0
 13  7  1  0
  1 25  1  0
  1 26  1  0
  1 27  1  0
  3 28  1  0
  8 29  1  0
  9 30  1  0
 10 31  1  0
 12 32  1  0
 17 33  1  0
 18 34  1  0
 19 35  1  0
M  END
>  <meeko>  (2) 
{"is_sidechain": [false], "free_energy": -11.982, "intermolecular_energy": -13.983, "internal_energy": -0.223}

$$$$
cand_003_out
     RDKit          3D

 35 37  0  0  0  0  0  0  0  0999 V2000
   53.4940  156.2270   25.9930 C   0  0  0  0  0  0  0  0  0  0  0  0
   52.6300  156.0340   27.2110 C   0  0  0  0  0  0  0  0  0  0  0  0
   52.2510  157.1600   27.9660 C   0  0  0  0  0  0  0  0  0  0  0  0
   51.4370  157.0420   29.1030 C   0  0  0  0  0  0  0  0  0  0  0  0
   51.0830  158.2470   29.8820 C   0  0  0  0  0  0  0  0  0  0  0  0
   49.7790  158.2180   30.3630 O   0  0  0  0  0  0  0  0  0  0  0  0
   49.3210  159.2760   31.1040 C   0  0  0  0  0  0  0  0  0  0  0  0
   48.0020  159.2120   31.5540 C   0  0  0  0  0  0  0  0  0  0  0  0
   47.4740  160.2570   32.3160 C   0  0  0  0  0  0  0  0  0  0  0  0
   48.2640  161.3640   32.6290 C   0  0  0  0  0  0  0  0  0  0  0  0
   49.5810  161.4260   32.1790 C   0  0  0  0  0  0  0  0  0  0  0  0
   50.2990  162.5380   32.5220 O   0  0  0  0  0  0  0  0  0  0  0  0
   50.1080  160.3810   31.4150 C   0  0  0  0  0  0  0  0  0  0  0  0
   51.4860  160.4060   30.9240 C   0  0  0  0  0  0  0  0  0  0  0  0
   52.2470  161.3420   31.1630 O   0  0  0  0  0  0  0  0  0  0  0  0
   51.9470  159.2530   30.1170 C   0  0  0  0  0  0  0  0  0  0  0  0
   53.2550  159.2800   29.6680 O   0  0  0  0  0  0  0  0  0  0  0  0
   51.0160  155.7660   29.4900 C   0  0  0  0  0  0  0  0  0  0  0  0
   51.3820  154.6390   28.7500 C   0  0  0  0  0  0  0  0  0  0  0  0
   52.1860  154.7540   27.6040 C   0  0  0  0  0  0  0  0  0  0  0  0
   52.5610  153.5090   26.8270 C   0  0  0  0  0  0  0  0  0  0  0  0
   53.8950  153.2350   26.8790 F   0  0  0  0  0  0  0  0  0  0  0  0
   52.2540  153.5820   25.5000 F   0  0  0  0  0  0  0  0  0  0  0  0
   51.9290  152.3920   27.2870 F   0  0  0  0  0  0  0  0  0  0  0  0
   54.5231  156.4569   26.3062 H   0  0  0  0  0  0  0  0  0  0  0  0
   53.4908  155.3060   25.3915 H   0  0  0  0  0  0  0  0  0  0  0  0
   53.0992  157.0591   25.3915 H   0  0  0  0  0  0  0  0  0  0  0  0
   52.6012  158.1561   27.6574 H   0  0  0  0  0  0  0  0  0  0  0  0
   47.3784  158.3396   31.3090 H   0  0  0  0  0  0  0  0  0  0  0  0
   46.4337  160.2072   32.6699 H   0  0  0  0  0  0  0  0  0  0  0  0
   47.8476  162.1860   33.2298 H   0  0  0  0  0  0  0  0  0  0  0  0
   49.9990  163.0960   33.2130 H   0  0  0  0  0  0  0  0  0  0  0  0
   53.6970  160.0980   29.5640 H   0  0  0  0  0  0  0  0  0  0  0  0
   50.3899  155.6483   30.3867 H   0  0  0  0  0  0  0  0  0  0  0  0
   51.0349  153.6455   29.0700 H   0  0  0  0  0  0  0  0  0  0  0  0
  1  2  1  0
  2  3  2  0
  3  4  1  0
  4  5  1  0
  5  6  1  0
  6  7  1  0
  7  8  2  0
  8  9  1  0
  9 10  2  0
 10 11  1  0
 11 12  1  0
 11 13  2  0
 13 14  1  0
 14 15  2  0
 14 16  1  0
 16 17  1  0
  4 18  2  0
 18 19  1  0
 19 20  2  0
 20 21  1  0
 21 22  1  0
 21 23  1  0
 21 24  1  0
 20  2  1  0
 16  5  2  0
 13  7  1  0
  1 25  1  0
  1 26  1  0
  1 27  1  0
  3 28  1  0
  8 29  1  0
  9 30  1  0
 10 31  1  0
 12 32  1  0
 17 33  1  0
 18 34  1  0
 19 35  1  0
M  END
>  <meeko>  (3) 
{"is_sidechain": [false], "free_energy": -11.328, "intermolecular_energy": -13.463, "internal_energy": 0.025}

$$$$
cand_003_out
     RDKit          3D

 35 37  0  0  0  0  0  0  0  0999 V2000
   51.7660  153.3730   28.8750 C   0  0  0  0  0  0  0  0  0  0  0  0
   52.0520  154.7840   28.4350 C   0  0  0  0  0  0  0  0  0  0  0  0
   51.5900  155.8540   29.2250 C   0  0  0  0  0  0  0  0  0  0  0  0
   51.8370  157.1890   28.8710 C   0  0  0  0  0  0  0  0  0  0  0  0
   51.3110  158.2830   29.7150 C   0  0  0  0  0  0  0  0  0  0  0  0
   49.9790  158.1030   30.0670 O   0  0  0  0  0  0  0  0  0  0  0  0
   49.3660  159.0460   30.8510 C   0  0  0  0  0  0  0  0  0  0  0  0
   48.0240  158.8330   31.1690 C   0  0  0  0  0  0  0  0  0  0  0  0
   47.3410  159.7550   31.9650 C   0  0  0  0  0  0  0  0  0  0  0  0
   48.0000  160.8890   32.4440 C   0  0  0  0  0  0  0  0  0  0  0  0
   49.3390  161.1000   32.1260 C   0  0  0  0  0  0  0  0  0  0  0  0
   49.9230  162.2300   32.6290 O   0  0  0  0  0  0  0  0  0  0  0  0
   50.0220  160.1780   31.3280 C   0  0  0  0  0  0  0  0  0  0  0  0
   51.4290  160.3610   30.9710 C   0  0  0  0  0  0  0  0  0  0  0  0
   52.0790  161.3300   31.3590 O   0  0  0  0  0  0  0  0  0  0  0  0
   52.0590  159.3300   30.1140 C   0  0  0  0  0  0  0  0  0  0  0  0
   53.3920  159.5050   29.7930 O   0  0  0  0  0  0  0  0  0  0  0  0
   52.5470  157.4450   27.6940 C   0  0  0  0  0  0  0  0  0  0  0  0
   53.0150  156.3940   26.9000 C   0  0  0  0  0  0  0  0  0  0  0  0
   52.7800  155.0560   27.2570 C   0  0  0  0  0  0  0  0  0  0  0  0
   53.3040  153.9440   26.3730 C   0  0  0  0  0  0  0  0  0  0  0  0
   52.3210  153.3320   25.6540 F   0  0  0  0  0  0  0  0  0  0  0  0
   53.9280  152.9470   27.0630 F   0  0  0  0  0  0  0  0  0  0  0  0
   54.2170  154.3840   25.4610 F   0  0  0  0  0  0  0  0  0  0  0  0
   51.7566  153.3264   29.9740 H   0  0  0  0  0  0  0  0  0  0  0  0
   50.7860  153.0592   28.4863 H   0  0  0  0  0  0  0  0  0  0  0  0
   52.5465  152.7024   28.4863 H   0  0  0  0  0  0  0  0  0  0  0  0
   51.0217  155.6381   30.1418 H   0  0  0  0  0  0  0  0  0  0  0  0
   47.5045  157.9393   30.7929 H   0  0  0  0  0  0  0  0  0  0  0  0
   46.2829  159.5878   32.2149 H   0  0  0  0  0  0  0  0  0  0  0  0
   47.4620  161.6147   33.0717 H   0  0  0  0  0  0  0  0  0  0  0  0
   49.8270  163.0470   32.1780 H   0  0  0  0  0  0  0  0  0  0  0  0
   53.8100  158.9210   29.1920 H   0  0  0  0  0  0  0  0  0  0  0  0
   52.7393  158.4844   27.3896 H   0  0  0  0  0  0  0  0  0  0  0  0
   53.5763  156.6184   25.9810 H   0  0  0  0  0  0  0  0  0  0  0  0
  1  2  1  0
  2  3  2  0
  3  4  1  0
  4  5  1  0
  5  6  1  0
  6  7  1  0
  7  8  2  0
  8  9  1  0
  9 10  2  0
 10 11  1  0
 11 12  1  0
 11 13  2  0
 13 14  1  0
 14 15  2  0
 14 16  1  0
 16 17  1  0
  4 18  2  0
 18 19  1  0
 19 20  2  0
 20 21  1  0
 21 22  1  0
 21 23  1  0
 21 24  1  0
 20  2  1  0
 16  5  2  0
 13  7  1  0
  1 25  1  0
  1 26  1  0
  1 27  1  0
  3 28  1  0
  8 29  1  0
  9 30  1  0
 10 31  1  0
 12 32  1  0
 17 33  1  0
 18 34  1  0
 19 35  1  0
M  END
>  <meeko>  (4) 
{"is_sidechain": [false], "free_energy": -10.743, "intermolecular_energy": -12.652, "internal_energy": -0.098}

$$$$
cand_003_out
     RDKit          3D

 35 37  0  0  0  0  0  0  0  0999 V2000
   53.7840  156.2150   25.2050 C   0  0  0  0  0  0  0  0  0  0  0  0
   53.1000  155.7190   26.4520 C   0  0  0  0  0  0  0  0  0  0  0  0
   52.4230  156.6400   27.2730 C   0  0  0  0  0  0  0  0  0  0  0  0
   51.7580  156.2340   28.4400 C   0  0  0  0  0  0  0  0  0  0  0  0
   51.0820  157.2380   29.2890 C   0  0  0  0  0  0  0  0  0  0  0  0
   51.8830  158.3390   29.5670 O   0  0  0  0  0  0  0  0  0  0  0  0
   51.3770  159.3470   30.3460 C   0  0  0  0  0  0  0  0  0  0  0  0
   52.2200  160.4270   30.6130 C   0  0  0  0  0  0  0  0  0  0  0  0
   51.7660  161.4890   31.3980 C   0  0  0  0  0  0  0  0  0  0  0  0
   50.4700  161.4720   31.9160 C   0  0  0  0  0  0  0  0  0  0  0  0
   49.6290  160.3940   31.6480 C   0  0  0  0  0  0  0  0  0  0  0  0
   48.3720  160.4420   32.1850 O   0  0  0  0  0  0  0  0  0  0  0  0
   50.0850  159.3310   30.8630 C   0  0  0  0  0  0  0  0  0  0  0  0
   49.2350  158.1800   30.5580 C   0  0  0  0  0  0  0  0  0  0  0  0
   48.0800  158.0950   30.9710 O   0  0  0  0  0  0  0  0  0  0  0  0
   49.8150  157.1020   29.7230 C   0  0  0  0  0  0  0  0  0  0  0  0
   48.9990  156.0250   29.4290 O   0  0  0  0  0  0  0  0  0  0  0  0
   51.7910  154.8790   28.7880 C   0  0  0  0  0  0  0  0  0  0  0  0
   52.4560  153.9520   27.9810 C   0  0  0  0  0  0  0  0  0  0  0  0
   53.1130  154.3530   26.8060 C   0  0  0  0  0  0  0  0  0  0  0  0
   53.8220  153.3190   25.9570 C   0  0  0  0  0  0  0  0  0  0  0  0
   54.0410  152.1490   26.6210 F   0  0  0  0  0  0  0  0  0  0  0  0
   55.0470  153.7230   25.5150 F   0  0  0  0  0  0  0  0  0  0  0  0
   53.1200  152.9880   24.8360 F   0  0  0  0  0  0  0  0  0  0  0  0
   54.6456  156.8398   25.4832 H   0  0  0  0  0  0  0  0  0  0  0  0
   54.1302  155.3566   24.6106 H   0  0  0  0  0  0  0  0  0  0  0  0
   53.0757  156.8108   24.6106 H   0  0  0  0  0  0  0  0  0  0  0  0
   52.4150  157.7038   26.9931 H   0  0  0  0  0  0  0  0  0  0  0  0
   53.2415  160.4416   30.2052 H   0  0  0  0  0  0  0  0  0  0  0  0
   52.4305  162.3400   31.6084 H   0  0  0  0  0  0  0  0  0  0  0  0
   50.1132  162.3084   32.5349 H   0  0  0  0  0  0  0  0  0  0  0  0
   47.8190  161.1790   32.0170 H   0  0  0  0  0  0  0  0  0  0  0  0
   49.3620  155.2570   29.0330 H   0  0  0  0  0  0  0  0  0  0  0  0
   51.2885  154.5402   29.7060 H   0  0  0  0  0  0  0  0  0  0  0  0
   52.4651  152.8909   28.2707 H   0  0  0  0  0  0  0  0  0  0  0  0
  1  2  1  0
  2  3  2  0
  3  4  1  0
  4  5  1  0
  5  6  1  0
  6  7  1  0
  7  8  2  0
  8  9  1  0
  9 10  2  0
 10 11  1  0
 11 12  1  0
 11 13  2  0
 13 14  1  0
 14 15  2  0
 14 16  1  0
 16 17  1  0
  4 18  2  0
 18 19  1  0
 19 20  2  0
 20 21  1  0
 21 22  1  0
 21 23  1  0
 21 24  1  0
 20  2  1  0
 16  5  2  0
 13  7  1  0
  1 25  1  0
  1 26  1  0
  1 27  1  0
  3 28  1  0
  8 29  1  0
  9 30  1  0
 10 31  1  0
 12 32  1  0
 17 33  1  0
 18 34  1  0
 19 35  1  0
M  END
>  <meeko>  (5) 
{"is_sidechain": [false], "free_energy": -9.101, "intermolecular_energy": -10.734, "internal_energy": -0.087}

$$$$
