cand_014_out
     RDKit          3D

 35 37  0  0  0  0  0  0  0  0999 V2000
   50.0590  161.1960   31.5970 C   0  0  0  0  0  0  0  0  0  0  0  0
   50.5020  159.9480   30.8830 C   0  0  0  0  0  0  0  0  0  0  0  0
   51.8020  159.8910   30.3570 C   0  0  0  0  0  0  0  0  0  0  0  0
   52.2500  158.7560   29.6770 C   0  0  0  0  0  0  0  0  0  0  0  0
   51.4150  157.6480   29.5050 C   0  0  0  0  0  0  0  0  0  0  0  0
   51.9030  156.4650   28.7670 C   0  0  0  0  0  0  0  0  0  0  0  0
   52.4900  156.7890   27.5500 O   0  0  0  0  0  0  0  0  0  0  0  0
   52.9820  155.7790   26.7630 C   0  0  0  0  0  0  0  0  0  0  0  0
   53.5470  156.1460   25.5410 C   0  0  0  0  0  0  0  0  0  0  0  0
   54.0700  155.1680   24.6940 C   0  0  0  0  0  0  0  0  0  0  0  0
   54.0280  153.8230   25.0670 C   0  0  0  0  0  0  0  0  0  0  0  0
   53.4640  153.4590   26.2860 C   0  0  0  0  0  0  0  0  0  0  0  0
   53.4560  152.1250   26.5900 O   0  0  0  0  0  0  0  0  0  0  0  0
   52.9400  154.4380   27.1340 C   0  0  0  0  0  0  0  0  0  0  0  0
   52.3380  154.0980   28.4240 C   0  0  0  0  0  0  0  0  0  0  0  0
   52.2720  152.9390   28.8280 O   0  0  0  0  0  0  0  0  0  0  0  0
   51.8040  155.2100   29.2450 C   0  0  0  0  0  0  0  0  0  0  0  0
   51.2500  154.8810   30.4680 O   0  0  0  0  0  0  0  0  0  0  0  0
   50.1090  157.7140   30.0110 C   0  0  0  0  0  0  0  0  0  0  0  0
   49.6350  158.8520   30.6930 C   0  0  0  0  0  0  0  0  0  0  0  0
   48.2240  158.8460   31.2360 C   0  0  0  0  0  0  0  0  0  0  0  0
   47.4390  159.8350   30.7190 F   0  0  0  0  0  0  0  0  0  0  0  0
   48.1680  159.0130   32.5870 F   0  0  0  0  0  0  0  0  0  0  0  0
   50.1157  161.0363   32.6839 H   0  0  0  0  0  0  0  0  0  0  0  0
   50.7151  162.0325   31.3146 H   0  0  0  0  0  0  0  0  0  0  0  0
   49.0223  161.4316   31.3146 H   0  0  0  0  0  0  0  0  0  0  0  0
   52.4765  160.7509   30.4818 H   0  0  0  0  0  0  0  0  0  0  0  0
   53.2724  158.7338   29.2719 H   0  0  0  0  0  0  0  0  0  0  0  0
   53.5801  157.2051   25.2457 H   0  0  0  0  0  0  0  0  0  0  0  0
   54.5161  155.4571   23.7310 H   0  0  0  0  0  0  0  0  0  0  0  0
   54.4400  153.0527   24.3985 H   0  0  0  0  0  0  0  0  0  0  0  0
   52.8060  151.5630   26.2150 H   0  0  0  0  0  0  0  0  0  0  0  0
   51.6400  155.1950   31.2600 H   0  0  0  0  0  0  0  0  0  0  0  0
   49.4367  156.8545   29.8718 H   0  0  0  0  0  0  0  0  0  0  0  0
   47.8545  157.8530   30.9403 H   0  0  0  0  0  0  0  0  0  0  0  0
  1  2  1  0
  2  3  2  0
  3  4  1  0
  4  5  2  0
  5  6  1  0
  6  7  1  0
  7  8  1  0
  8  9  2  0
  9 10  1  0
 10 11  2  0
 11 12  1  0
 12 13  1  0
 12 14  2  0
 14 15  1  0
 15 16  2  0
 15 17  1  0
 17 18  1  0
  5 19  1  0
 19 20  2  0
 20 21  1  0
 21 22  1  0
 21 23  1  0
 20  2  1  0
 17  6  2  0
 14  8  1  0
  1 24  1  0
  1 25  1  0
  1 26  1  0
  3 27  1  0
  4 28  1  0
  9 29  1  0
 10 30  1  0
 11 31  1  0
 13 32  1  0
 18 33  1  0
 19 34  1  0
 21 35  1  0
M  END
>  <meeko>  (1) 
{"is_sidechain": [false], "free_energy": -11.636, "intermolecular_energy": -13.677, "internal_energy": -0.134}

$$$$
cand_014_out
     RDKit          3D

 35 37  0  0  0  0  0  0  0  0999 V2000
   52.7450  152.8640   27.1100 C   0  0  0  0  0  0  0  0  0  0  0  0
   52.3670  154.1680   27.7580 C   0  0  0  0  0  0  0  0  0  0  0  0
   51.6630  154.1460   28.9710 C   0  0  0  0  0  0  0  0  0  0  0  0
   51.2820  155.3340   29.6000 C   0  0  0  0  0  0  0  0  0  0  0  0
   51.5960  156.5750   29.0360 C   0  0  0  0  0  0  0  0  0  0  0  0
   51.1680  157.8190   29.7090 C   0  0  0  0  0  0  0  0  0  0  0  0
   49.8540  157.7690   30.1570 O   0  0  0  0  0  0  0  0  0  0  0  0
   49.3310  158.8630   30.7970 C   0  0  0  0  0  0  0  0  0  0  0  0
   48.0030  158.7780   31.2160 C   0  0  0  0  0  0  0  0  0  0  0  0
   47.4100  159.8560   31.8770 C   0  0  0  0  0  0  0  0  0  0  0  0
   48.1450  161.0180   32.1190 C   0  0  0  0  0  0  0  0  0  0  0  0
   49.4700  161.1010   31.7010 C   0  0  0  0  0  0  0  0  0  0  0  0
   50.1310  162.2670   31.9720 O   0  0  0  0  0  0  0  0  0  0  0  0
   50.0630  160.0230   31.0400 C   0  0  0  0  0  0  0  0  0  0  0  0
   51.4520  160.0690   30.5830 C   0  0  0  0  0  0  0  0  0  0  0  0
   52.1670  161.0520   30.7670 O   0  0  0  0  0  0  0  0  0  0  0  0
   51.9840  158.8750   29.8840 C   0  0  0  0  0  0  0  0  0  0  0  0
   53.3020  158.9230   29.4690 O   0  0  0  0  0  0  0  0  0  0  0  0
   52.2800  156.5970   27.8120 C   0  0  0  0  0  0  0  0  0  0  0  0
   52.6660  155.4100   27.1590 C   0  0  0  0  0  0  0  0  0  0  0  0
   53.4240  155.5050   25.8540 C   0  0  0  0  0  0  0  0  0  0  0  0
   54.0370  156.7090   25.6690 F   0  0  0  0  0  0  0  0  0  0  0  0
   52.6330  155.3330   24.7590 F   0  0  0  0  0  0  0  0  0  0  0  0
   52.9615  152.1171   27.8880 H   0  0  0  0  0  0  0  0  0  0  0  0
   51.9123  152.5106   26.4841 H   0  0  0  0  0  0  0  0  0  0  0  0
   53.6376  153.0108   26.4841 H   0  0  0  0  0  0  0  0  0  0  0  0
   51.4076  153.1810   29.4330 H   0  0  0  0  0  0  0  0  0  0  0  0
   50.7287  155.2930   30.5498 H   0  0  0  0  0  0  0  0  0  0  0  0
   47.4234  157.8626   31.0259 H   0  0  0  0  0  0  0  0  0  0  0  0
   46.3629  159.7894   32.2072 H   0  0  0  0  0  0  0  0  0  0  0  0
   47.6775  161.8669   32.6394 H   0  0  0  0  0  0  0  0  0  0  0  0
   50.8050  162.5690   31.3940 H   0  0  0  0  0  0  0  0  0  0  0  0
   53.7510  158.1320   29.2420 H   0  0  0  0  0  0  0  0  0  0  0  0
   52.5212  157.5657   27.3501 H   0  0  0  0  0  0  0  0  0  0  0  0
   54.1627  154.6949   25.9437 H   0  0  0  0  0  0  0  0  0  0  0  0
  1  2  1  0
  2  3  2  0
  3  4  1  0
  4  5  2  0
  5  6  1  0
  6  7  1  0
  7  8  1  0
  8  9  2  0
  9 10  1  0
 10 11  2  0
 11 12  1  0
 12 13  1  0
 12 14  2  0
 14 15  1  0
 15 16  2  0
 15 17  1  0
 17 18  1  0
  5 19  1  0
 19 20  2  0
 20 21  1  0
 21 22  1  0
 21 23  1  0
 20  2  1  0
 17  6  2  0
 14  8  1  0
  1 24  1  0
  1 25  1  0
  1 26  1  0
  3 27  1  0
  4 28  1  0
  9 29  1  0
 10 30  1  0
 11 31  1  0
 13 32  1  0
 18 33  1  0
 19 34  1  0
 21 35  1  0
M  END
>  <meeko>  (2) 
{"is_sidechain": [false], "free_energy": -11.149, "intermolecular_energy": -12.974, "internal_energy": -0.264}

$$$$
cand_014_out
     RDKit          3D

 35 37  0  0  0  0  0  0  0  0999 V2000
   48.9950  160.1780   31.6380 C   0  0  0  0  0  0  0  0  0  0  0  0
   49.7500  159.1550   30.8330 C   0  0  0  0  0  0  0  0  0  0  0  0
   49.1060  157.9610   30.4770 C   0  0  0  0  0  0  0  0  0  0  0  0
   49.7740  156.9790   29.7410 C   0  0  0  0  0  0  0  0  0  0  0  0
   51.1000  157.1650   29.3380 C   0  0  0  0  0  0  0  0  0  0  0  0
   51.7940  156.1070   28.5750 C   0  0  0  0  0  0  0  0  0  0  0  0
   52.3590  156.5720   27.3940 O   0  0  0  0  0  0  0  0  0  0  0  0
   53.0310  155.6880   26.5880 C   0  0  0  0  0  0  0  0  0  0  0  0
   53.5680  156.1920   25.4030 C   0  0  0  0  0  0  0  0  0  0  0  0
   54.2660  155.3460   24.5400 C   0  0  0  0  0  0  0  0  0  0  0  0
   54.4280  153.9970   24.8600 C   0  0  0  0  0  0  0  0  0  0  0  0
   53.8920  153.4960   26.0430 C   0  0  0  0  0  0  0  0  0  0  0  0
   54.0880  152.1660   26.2960 O   0  0  0  0  0  0  0  0  0  0  0  0
   53.1920  154.3430   26.9070 C   0  0  0  0  0  0  0  0  0  0  0  0
   52.6130  153.8570   28.1600 C   0  0  0  0  0  0  0  0  0  0  0  0
   52.7190  152.6850   28.5170 O   0  0  0  0  0  0  0  0  0  0  0  0
   51.8820  154.8330   29.0020 C   0  0  0  0  0  0  0  0  0  0  0  0
   51.3500  154.3690   30.1890 O   0  0  0  0  0  0  0  0  0  0  0  0
   51.7500  158.3490   29.7130 C   0  0  0  0  0  0  0  0  0  0  0  0
   51.0970  159.3480   30.4620 C   0  0  0  0  0  0  0  0  0  0  0  0
   51.8480  160.6130   30.8100 C   0  0  0  0  0  0  0  0  0  0  0  0
   51.7270  160.9740   32.1200 F   0  0  0  0  0  0  0  0  0  0  0  0
   51.4320  161.6970   30.0980 F   0  0  0  0  0  0  0  0  0  0  0  0
   49.1405  159.9809   32.7104 H   0  0  0  0  0  0  0  0  0  0  0  0
   49.3690  161.1838   31.3960 H   0  0  0  0  0  0  0  0  0  0  0  0
   47.9237  160.1171   31.3960 H   0  0  0  0  0  0  0  0  0  0  0  0
   48.0619  157.7956   30.7811 H   0  0  0  0  0  0  0  0  0  0  0  0
   49.2506  156.0486   29.4755 H   0  0  0  0  0  0  0  0  0  0  0  0
   53.4414  157.2548   25.1493 H   0  0  0  0  0  0  0  0  0  0  0  0
   54.6894  155.7431   23.6056 H   0  0  0  0  0  0  0  0  0  0  0  0
   54.9781  153.3312   24.1788 H   0  0  0  0  0  0  0  0  0  0  0  0
   53.4200  151.6670   26.7240 H   0  0  0  0  0  0  0  0  0  0  0  0
   50.7630  154.9070   30.6830 H   0  0  0  0  0  0  0  0  0  0  0  0
   52.7976  158.5023   29.4146 H   0  0  0  0  0  0  0  0  0  0  0  0
   52.8887  160.3517   30.5678 H   0  0  0  0  0  0  0  0  0  0  0  0
  1  2  1  0
  2  3  2  0
  3  4  1  0
  4  5  2  0
  5  6  1  0
  6  7  1  0
  7  8  1  0
  8  9  2  0
  9 10  1  0
 10 11  2  0
 11 12  1  0
 12 13  1  0
 12 14  2  0
 14 15  1  0
 15 16  2  0
 15 17  1  0
 17 18  1  0
  5 19  1  0
 19 20  2  0
 20 21  1  0
 21 22  1  0
 21 23  1  0
 20  2  1  0
 17  6  2  0
 14  8  1  0
  1 24  1  0
  1 25  1  0
  1 26  1  0
  3 27  1  0
  4 28  1  0
  9 29  1  0
 10 30  1  0
 11 31  1  0
 13 32  1  0
 18 33  1  0
 19 34  1  0
 21 35  1  0
M  END
>  <meeko>  (3) 
{"is_sidechain": [false], "free_energy": -10.819, "intermolecular_energy": -12.778, "internal_energy": -0.073}

$$$$
cand_014_out
     RDKit          3D

 35 37  0  0  0  0  0  0  0  0999 V2000
   53.5000  154.2220   26.2600 C   0  0  0  0  0  0  0  0  0  0  0  0
   52.9090  155.2630   27.1720 C   0  0  0  0  0  0  0  0  0  0  0  0
   53.0230  156.6170   26.8220 C   0  0  0  0  0  0  0  0  0  0  0  0
   52.4980  157.6160   27.6450 C   0  0  0  0  0  0  0  0  0  0  0  0
   51.8450  157.2910   28.8380 C   0  0  0  0  0  0  0  0  0  0  0  0
   51.3130  158.3640   29.7030 C   0  0  0  0  0  0  0  0  0  0  0  0
   49.9810  158.1720   30.0480 O   0  0  0  0  0  0  0  0  0  0  0  0
   49.3640  159.1000   30.8480 C   0  0  0  0  0  0  0  0  0  0  0  0
   48.0210  158.8790   31.1560 C   0  0  0  0  0  0  0  0  0  0  0  0
   47.3350  159.7840   31.9680 C   0  0  0  0  0  0  0  0  0  0  0  0
   47.9890  160.9100   32.4720 C   0  0  0  0  0  0  0  0  0  0  0  0
   49.3290  161.1280   32.1620 C   0  0  0  0  0  0  0  0  0  0  0  0
   49.9090  162.2490   32.6900 O   0  0  0  0  0  0  0  0  0  0  0  0
   50.0160  160.2230   31.3500 C   0  0  0  0  0  0  0  0  0  0  0  0
   51.4240  160.4160   31.0010 C   0  0  0  0  0  0  0  0  0  0  0  0
   52.0730  161.3760   31.4120 O   0  0  0  0  0  0  0  0  0  0  0  0
   52.0580  159.4020   30.1260 C   0  0  0  0  0  0  0  0  0  0  0  0
   53.3920  159.5850   29.8120 O   0  0  0  0  0  0  0  0  0  0  0  0
   51.7510  155.9390   29.1990 C   0  0  0  0  0  0  0  0  0  0  0  0
   52.2800  154.9170   28.3860 C   0  0  0  0  0  0  0  0  0  0  0  0
   52.1200  153.4780   28.8210 C   0  0  0  0  0  0  0  0  0  0  0  0
   51.2990  152.7530   28.0090 F   0  0  0  0  0  0  0  0  0  0  0  0
   51.5930  153.3500   30.0710 F   0  0  0  0  0  0  0  0  0  0  0  0
   53.9543  153.4218   26.8627 H   0  0  0  0  0  0  0  0  0  0  0  0
   52.7078  153.7982   25.6253 H   0  0  0  0  0  0  0  0  0  0  0  0
   54.2699  154.6851   25.6253 H   0  0  0  0  0  0  0  0  0  0  0  0
   53.5323  156.8953   25.8876 H   0  0  0  0  0  0  0  0  0  0  0  0
   52.5995  158.6711   27.3511 H   0  0  0  0  0  0  0  0  0  0  0  0
   47.5036  157.9929   30.7595 H   0  0  0  0  0  0  0  0  0  0  0  0
   46.2765  159.6096   32.2114 H   0  0  0  0  0  0  0  0  0  0  0  0
   47.4476  161.6225   33.1118 H   0  0  0  0  0  0  0  0  0  0  0  0
   49.4920  163.0830   32.5910 H   0  0  0  0  0  0  0  0  0  0  0  0
   54.0500  159.0770   30.2460 H   0  0  0  0  0  0  0  0  0  0  0  0
   51.2514  155.6695   30.1412 H   0  0  0  0  0  0  0  0  0  0  0  0
   53.1512  153.0971   28.7812 H   0  0  0  0  0  0  0  0  0  0  0  0
  1  2  1  0
  2  3  2  0
  3  4  1  0
  4  5  2  0
  5  6  1  0
  6  7  1  0
  7  8  1  0
  8  9  2  0
  9 10  1  0
 10 11  2  0
 11 12  1  0
 12 13  1  0
 12 14  2  0
 14 15  1  0
 15 16  2  0
 15 17  1  0
 17 18  1  0
  5 19  1  0
 19 20  2  0
 20 21  1  0
 21 22  1  0
 21 23  1  0
 20  2  1  0
 17  6  2  0
 14  8  1  0
  1 24  1  0
  1 25  1  0
  1 26  1  0
  3 27  1  0
  4 28  1  0
  9 29  1  0
 10 30  1  0
 11 31  1  0
 13 32  1  0
 18 33  1  0
 19 34  1  0
 21 35  1  0
M  END
>  <meeko>  (4) 
{"is_sidechain": [false], "free_energy": -9.672, "intermolecular_energy": -11.26, "internal_energy": -0.242}

$$$$
cand_014_out
     RDKit          3D

 35 37  0  0  0  0  0  0  0  0999 V2000
   53.5600  152.5770   26.5540 C   0  0  0  0  0  0  0  0  0  0  0  0
   52.9310  153.7520   27.2530 C   0  0  0  0  0  0  0  0  0  0  0  0
   52.2470  153.5390   28.4590 C   0  0  0  0  0  0  0  0  0  0  0  0
   51.6390  154.5990   29.1350 C   0  0  0  0  0  0  0  0  0  0  0  0
   51.7000  155.9010   28.6270 C   0  0  0  0  0  0  0  0  0  0  0  0
   51.0350  157.0050   29.3480 C   0  0  0  0  0  0  0  0  0  0  0  0
   51.8860  158.0710   29.6110 O   0  0  0  0  0  0  0  0  0  0  0  0
   51.3930  159.1620   30.2800 C   0  0  0  0  0  0  0  0  0  0  0  0
   52.2850  160.2030   30.5390 C   0  0  0  0  0  0  0  0  0  0  0  0
   51.8480  161.3450   31.2140 C   0  0  0  0  0  0  0  0  0  0  0  0
   50.5180  161.4460   31.6290 C   0  0  0  0  0  0  0  0  0  0  0  0
   49.6300  160.4060   31.3700 C   0  0  0  0  0  0  0  0  0  0  0  0
   48.3430  160.5710   31.8030 O   0  0  0  0  0  0  0  0  0  0  0  0
   50.0680  159.2640   30.6950 C   0  0  0  0  0  0  0  0  0  0  0  0
   49.1670  158.1490   30.4020 C   0  0  0  0  0  0  0  0  0  0  0  0
   47.9810  158.1650   30.7270 O   0  0  0  0  0  0  0  0  0  0  0  0
   49.7330  156.9790   29.6900 C   0  0  0  0  0  0  0  0  0  0  0  0
   48.8710  155.9360   29.4050 O   0  0  0  0  0  0  0  0  0  0  0  0
   52.3640  156.1100   27.4100 C   0  0  0  0  0  0  0  0  0  0  0  0
   52.9770  155.0530   26.7100 C   0  0  0  0  0  0  0  0  0  0  0  0
   53.7000  155.3520   25.4160 C   0  0  0  0  0  0  0  0  0  0  0  0
   53.8710  156.6860   25.1860 F   0  0  0  0  0  0  0  0  0  0  0  0
   53.0520  154.8780   24.3160 F   0  0  0  0  0  0  0  0  0  0  0  0
   53.9406  151.8660   27.3021 H   0  0  0  0  0  0  0  0  0  0  0  0
   52.8078  152.0792   25.9245 H   0  0  0  0  0  0  0  0  0  0  0  0
   54.3914  152.9269   25.9245 H   0  0  0  0  0  0  0  0  0  0  0  0
   52.1888  152.5235   28.8778 H   0  0  0  0  0  0  0  0  0  0  0  0
   51.1059  154.4079   30.0780 H   0  0  0  0  0  0  0  0  0  0  0  0
   53.3322  160.1244   30.2117 H   0  0  0  0  0  0  0  0  0  0  0  0
   52.5516  162.1654   31.4189 H   0  0  0  0  0  0  0  0  0  0  0  0
   50.1731  162.3458   32.1595 H   0  0  0  0  0  0  0  0  0  0  0  0
   47.6290  160.4440   31.2080 H   0  0  0  0  0  0  0  0  0  0  0  0
   47.9830  155.9680   29.7010 H   0  0  0  0  0  0  0  0  0  0  0  0
   52.4072  157.1262   26.9910 H   0  0  0  0  0  0  0  0  0  0  0  0
   54.6674  154.8478   25.5568 H   0  0  0  0  0  0  0  0  0  0  0  0
  1  2  1  0
  2  3  2  0
  3  4  1  0
  4  5  2  0
  5  6  1  0
  6  7  1  0
  7  8  1  0
  8  9  2  0
  9 10  1  0
 10 11  2  0
 11 12  1  0
 12 13  1  0
 12 14  2  0
 14 15  1  0
 15 16  2  0
 15 17  1  0
 17 18  1  0
  5 19  1  0
 19 20  2  0
 20 21  1  0
 21 22  1  0
 21 23  1  0
 20  2  1  0
 17  6  2  0
 14  8  1  0
  1 24  1  0
  1 25  1  0
  1 26  1  0
  3 27  1  0
  4 28  1  0
  9 29  1  0
 10 30  1  0
 11 31  1  0
 13 32  1  0
 18 33  1  0
 19 34  1  0
 21 35  1  0
M  END
>  <meeko>  (5) 
{"is_sidechain": [false], "free_energy": -9.277, "intermolecular_energy": -10.745, "internal_energy": -0.293}

$$$$
