cand_021_out
     RDKit          3D

 36 38  0  0  0  0  0  0  0  0999 V2000
   47.3660  159.5290   30.8770 C   0  0  0  0  0  0  0  0  0  0  0  0
   48.3640  158.7970   31.3860 C   0  0  0  0  0  0  0  0  0  0  0  0
   49.7190  158.8010   30.8200 C   0  0  0  0  0  0  0  0  0  0  0  0
   50.1660  157.6750   30.1050 C   0  0  0  0  0  0  0  0  0  0  0  0
   51.4470  157.6290   29.5360 C   0  0  0  0  0  0  0  0  0  0  0  0
   51.9120  156.4560   28.7680 C   0  0  0  0  0  0  0  0  0  0  0  0
   52.4870  156.7990   27.5500 O   0  0  0  0  0  0  0  0  0  0  0  0
   52.9610  155.8020   26.7360 C   0  0  0  0  0  0  0  0  0  0  0  0
   53.5150  156.1900   25.5150 C   0  0  0  0  0  0  0  0  0  0  0  0
   54.0170  155.2230   24.6410 C   0  0  0  0  0  0  0  0  0  0  0  0
   53.9660  153.8720   24.9860 C   0  0  0  0  0  0  0  0  0  0  0  0
   53.4130  153.4880   26.2050 C   0  0  0  0  0  0  0  0  0  0  0  0
   53.3950  152.1480   26.4800 O   0  0  0  0  0  0  0  0  0  0  0  0
   52.9090  154.4540   27.0800 C   0  0  0  0  0  0  0  0  0  0  0  0
   52.3200  154.0940   28.3700 C   0  0  0  0  0  0  0  0  0  0  0  0
   52.2450  152.9260   28.7490 O   0  0  0  0  0  0  0  0  0  0  0  0
   51.8080  155.1930   29.2200 C   0  0  0  0  0  0  0  0  0  0  0  0
   51.2650  154.8430   30.4430 O   0  0  0  0  0  0  0  0  0  0  0  0
   52.2760  158.7490   29.6710 C   0  0  0  0  0  0  0  0  0  0  0  0
   51.8430  159.8760   30.3730 C   0  0  0  0  0  0  0  0  0  0  0  0
   50.5650  159.9170   30.9560 C   0  0  0  0  0  0  0  0  0  0  0  0
   50.1360  161.1430   31.7250 C   0  0  0  0  0  0  0  0  0  0  0  0
   51.1180  162.0840   31.8080 F   0  0  0  0  0  0  0  0  0  0  0  0
   49.7840  160.8750   33.0170 F   0  0  0  0  0  0  0  0  0  0  0  0
   46.3673  159.4924   31.3366 H   0  0  0  0  0  0  0  0  0  0  0  0
   47.5444  160.1673   29.9991 H   0  0  0  0  0  0  0  0  0  0  0  0
   48.1610  158.1665   32.2643 H   0  0  0  0  0  0  0  0  0  0  0  0
   49.4954  156.8108   29.9895 H   0  0  0  0  0  0  0  0  0  0  0  0
   53.5561  157.2547   25.2417 H   0  0  0  0  0  0  0  0  0  0  0  0
   54.4536  155.5273   23.6783 H   0  0  0  0  0  0  0  0  0  0  0  0
   54.3618  153.1118   24.2965 H   0  0  0  0  0  0  0  0  0  0  0  0
   53.3880  151.8520   27.3700 H   0  0  0  0  0  0  0  0  0  0  0  0
   51.0970  155.5030   31.0870 H   0  0  0  0  0  0  0  0  0  0  0  0
   53.2790  158.7413   29.2194 H   0  0  0  0  0  0  0  0  0  0  0  0
   52.5118  160.7439   30.4710 H   0  0  0  0  0  0  0  0  0  0  0  0
   49.2729  161.5102   31.1503 H   0  0  0  0  0  0  0  0  0  0  0  0
  1  2  2  0
  2  3  1  0
  3  4  2  0
  4  5  1  0
  5  6  1  0
  6  7  1  0
  7  8  1  0
  8  9  2  0
  9 10  1  0
 10 11  2  0
 11 12  1  0
 12 13  1  0
 12 14  2  0
 14 15  1  0
 15 16  2  0
 15 17  1  0
 17 18  1  0
  5 19  2  0
 19 20  1  0
 20 21  2  0
 21 22  1  0
 22 23  1  0
 22 24  1  0
 21  3  1  0
 17  6  2  0
 14  8  1  0
  1 25  1  0
  1 26  1  0
  2 27  1  0
  4 28  1  0
  9 29  1  0
 10 30  1  0
 11 31  1  0
 13 32  1  0
 18 33  1  0
 19 34  1  0
 20 35  1  0
 22 36  1  0
M  END
>  <meeko>  (1) 
{"is_sidechain": [false], "free_energy": -11.573, "intermolecular_energy": -14.279, "internal_energy": -0.101}

$$$$
cand_021_out
     RDKit          3D

 36 38  0  0  0  0  0  0  0  0999 V2000
   53.1650  156.3540   25.0830 C   0  0  0  0  0  0  0  0  0  0  0  0
   53.5710  155.9620   26.2970 C   0  0  0  0  0  0  0  0  0  0  0  0
   52.6600  155.8600   27.4430 C   0  0  0  0  0  0  0  0  0  0  0  0
   52.3030  157.0290   28.1400 C   0  0  0  0  0  0  0  0  0  0  0  0
   51.4290  156.9910   29.2370 C   0  0  0  0  0  0  0  0  0  0  0  0
   51.0380  158.2190   29.9590 C   0  0  0  0  0  0  0  0  0  0  0  0
   49.7290  158.1790   30.4230 O   0  0  0  0  0  0  0  0  0  0  0  0
   49.2360  159.2600   31.1110 C   0  0  0  0  0  0  0  0  0  0  0  0
   47.9120  159.1850   31.5450 C   0  0  0  0  0  0  0  0  0  0  0  0
   47.3500  160.2500   32.2530 C   0  0  0  0  0  0  0  0  0  0  0  0
   48.1120  161.3870   32.5270 C   0  0  0  0  0  0  0  0  0  0  0  0
   49.4330  161.4590   32.0930 C   0  0  0  0  0  0  0  0  0  0  0  0
   50.1210  162.6020   32.3950 O   0  0  0  0  0  0  0  0  0  0  0  0
   49.9950  160.3940   31.3840 C   0  0  0  0  0  0  0  0  0  0  0  0
   51.3790  160.4290   30.9100 C   0  0  0  0  0  0  0  0  0  0  0  0
   52.1150  161.3920   31.1180 O   0  0  0  0  0  0  0  0  0  0  0  0
   51.8760  159.2520   30.1610 C   0  0  0  0  0  0  0  0  0  0  0  0
   53.1890  159.2880   29.7290 O   0  0  0  0  0  0  0  0  0  0  0  0
   50.8900  155.7560   29.6160 C   0  0  0  0  0  0  0  0  0  0  0  0
   51.2300  154.5890   28.9290 C   0  0  0  0  0  0  0  0  0  0  0  0
   52.1170  154.6240   27.8400 C   0  0  0  0  0  0  0  0  0  0  0  0
   52.4800  153.3410   27.1320 C   0  0  0  0  0  0  0  0  0  0  0  0
   52.0040  153.2910   25.8550 F   0  0  0  0  0  0  0  0  0  0  0  0
   51.9830  152.2260   27.7450 F   0  0  0  0  0  0  0  0  0  0  0  0
   53.8864  156.4147   24.2548 H   0  0  0  0  0  0  0  0  0  0  0  0
   52.1100  156.6154   24.9137 H   0  0  0  0  0  0  0  0  0  0  0  0
   54.6310  155.7059   26.4414 H   0  0  0  0  0  0  0  0  0  0  0  0
   52.7187  157.9950   27.8174 H   0  0  0  0  0  0  0  0  0  0  0  0
   47.3117  158.2886   31.3300 H   0  0  0  0  0  0  0  0  0  0  0  0
   46.3061  160.1926   32.5949 H   0  0  0  0  0  0  0  0  0  0  0  0
   47.6693  162.2251   33.0852 H   0  0  0  0  0  0  0  0  0  0  0  0
   50.5100  163.1110   31.7110 H   0  0  0  0  0  0  0  0  0  0  0  0
   53.7250  158.5220   29.7950 H   0  0  0  0  0  0  0  0  0  0  0  0
   50.1912  155.7043   30.4640 H   0  0  0  0  0  0  0  0  0  0  0  0
   50.7972  153.6284   29.2449 H   0  0  0  0  0  0  0  0  0  0  0  0
   53.5798  153.3445   27.1535 H   0  0  0  0  0  0  0  0  0  0  0  0
  1  2  2  0
  2  3  1  0
  3  4  2  0
  4  5  1  0
  5  6  1  0
  6  7  1  0
  7  8  1  0
  8  9  2  0
  9 10  1  0
 10 11  2  0
 11 12  1  0
 12 13  1  0
 12 14  2  0
 14 15  1  0
 15 16  2  0
 15 17  1  0
 17 18  1  0
  5 19  2  0
 19 20  1  0
 20 21  2  0
 21 22  1  0
 22 23  1  0
 22 24  1  0
 21  3  1  0
 17  6  2  0
 14  8  1  0
  1 25  1  0
  1 26  1  0
  2 27  1  0
  4 28  1  0
  9 29  1  0
 10 30  1  0
 11 31  1  0
 13 32  1  0
 18 33  1  0
 19 34  1  0
 20 35  1  0
 22 36  1  0
M  END
>  <meeko>  (2) 
{"is_sidechain": [false], "free_energy": -10.952, "intermolecular_energy": -13.38, "internal_energy": -0.234}

$$$$
cand_021_out
     RDKit          3D

 36 38  0  0  0  0  0  0  0  0999 V2000
   51.4770  161.4400   31.9100 C   0  0  0  0  0  0  0  0  0  0  0  0
   51.4870  160.8720   30.6980 C   0  0  0  0  0  0  0  0  0  0  0  0
   50.8140  159.5980   30.4140 C   0  0  0  0  0  0  0  0  0  0  0  0
   51.5130  158.5930   29.7220 C   0  0  0  0  0  0  0  0  0  0  0  0
   50.9210  157.3550   29.4320 C   0  0  0  0  0  0  0  0  0  0  0  0
   51.6600  156.2900   28.7230 C   0  0  0  0  0  0  0  0  0  0  0  0
   52.1920  156.7150   27.5120 O   0  0  0  0  0  0  0  0  0  0  0  0
   52.9020  155.8220   26.7500 C   0  0  0  0  0  0  0  0  0  0  0  0
   53.4040  156.2860   25.5330 C   0  0  0  0  0  0  0  0  0  0  0  0
   54.1380  155.4280   24.7100 C   0  0  0  0  0  0  0  0  0  0  0  0
   54.3690  154.1090   25.1040 C   0  0  0  0  0  0  0  0  0  0  0  0
   53.8660  153.6480   26.3180 C   0  0  0  0  0  0  0  0  0  0  0  0
   54.1300  152.3460   26.6420 O   0  0  0  0  0  0  0  0  0  0  0  0
   53.1320  154.5060   27.1410 C   0  0  0  0  0  0  0  0  0  0  0  0
   52.5860  154.0630   28.4240 C   0  0  0  0  0  0  0  0  0  0  0  0
   52.7530  152.9190   28.8440 O   0  0  0  0  0  0  0  0  0  0  0  0
   51.8150  155.0480   29.2180 C   0  0  0  0  0  0  0  0  0  0  0  0
   51.3150  154.6240   30.4350 O   0  0  0  0  0  0  0  0  0  0  0  0
   49.6120  157.1230   29.8710 C   0  0  0  0  0  0  0  0  0  0  0  0
   48.9080  158.1100   30.5640 C   0  0  0  0  0  0  0  0  0  0  0  0
   49.4950  159.3560   30.8430 C   0  0  0  0  0  0  0  0  0  0  0  0
   48.6990  160.4080   31.5760 C   0  0  0  0  0  0  0  0  0  0  0  0
   47.6060  159.8960   32.2080 F   0  0  0  0  0  0  0  0  0  0  0  0
   48.2160  161.3890   30.7580 F   0  0  0  0  0  0  0  0  0  0  0  0
   51.9961  162.3959   32.0737 H   0  0  0  0  0  0  0  0  0  0  0  0
   50.9497  160.9509   32.7423 H   0  0  0  0  0  0  0  0  0  0  0  0
   52.0210  161.3801   29.8815 H   0  0  0  0  0  0  0  0  0  0  0  0
   52.5479  158.7821   29.4007 H   0  0  0  0  0  0  0  0  0  0  0  0
   53.2220  157.3254   25.2224 H   0  0  0  0  0  0  0  0  0  0  0  0
   54.5342  155.7923   23.7507 H   0  0  0  0  0  0  0  0  0  0  0  0
   54.9478  153.4343   24.4561 H   0  0  0  0  0  0  0  0  0  0  0  0
   54.6810  151.8270   26.0880 H   0  0  0  0  0  0  0  0  0  0  0  0
   50.5300  154.1130   30.4670 H   0  0  0  0  0  0  0  0  0  0  0  0
   49.1333  156.1536   29.6680 H   0  0  0  0  0  0  0  0  0  0  0  0
   47.8788  157.9092   30.8964 H   0  0  0  0  0  0  0  0  0  0  0  0
   49.4253  160.8176   32.2934 H   0  0  0  0  0  0  0  0  0  0  0  0
  1  2  2  0
  2  3  1  0
  3  4  2  0
  4  5  1  0
  5  6  1  0
  6  7  1  0
  7  8  1  0
  8  9  2  0
  9 10  1  0
 10 11  2  0
 11 12  1  0
 12 13  1  0
 12 14  2  0
 14 15  1  0
 15 16  2  0
 15 17  1  0
 17 18  1  0
  5 19  2  0
 19 20  1  0
 20 21  2  0
 21 22  1  0
 22 23  1  0
 22 24  1  0
 21  3  1  0
 17  6  2  0
 14  8  1  0
  1 25  1  0
  1 26  1  0
  2 27  1  0
  4 28  1  0
  9 29  1  0
 10 30  1  0
 11 31  1  0
 13 32  1  0
 18 33  1  0
 19 34  1  0
 20 35  1  0
 22 36  1  0
M  END
>  <meeko>  (3) 
{"is_sidechain": [false], "free_energy": -10.898, "intermolecular_energy": -13.639, "internal_energy": 0.093}

$$$$
cand_021_out
     RDKit          3D

 36 38  0  0  0  0  0  0  0  0999 V2000
   51.5170  152.5070   28.1260 C   0  0  0  0  0  0  0  0  0  0  0  0
   52.0940  153.4620   28.8660 C   0  0  0  0  0  0  0  0  0  0  0  0
   52.2020  154.8560   28.4180 C   0  0  0  0  0  0  0  0  0  0  0  0
   51.6820  155.8790   29.2310 C   0  0  0  0  0  0  0  0  0  0  0  0
   51.7660  157.2280   28.8560 C   0  0  0  0  0  0  0  0  0  0  0  0
   51.2370  158.3060   29.7170 C   0  0  0  0  0  0  0  0  0  0  0  0
   49.9030  158.1210   30.0580 O   0  0  0  0  0  0  0  0  0  0  0  0
   49.2870  159.0520   30.8550 C   0  0  0  0  0  0  0  0  0  0  0  0
   47.9420  158.8350   31.1600 C   0  0  0  0  0  0  0  0  0  0  0  0
   47.2570  159.7460   31.9690 C   0  0  0  0  0  0  0  0  0  0  0  0
   47.9150  160.8690   32.4720 C   0  0  0  0  0  0  0  0  0  0  0  0
   49.2570  161.0830   32.1660 C   0  0  0  0  0  0  0  0  0  0  0  0
   49.8390  162.2030   32.6910 O   0  0  0  0  0  0  0  0  0  0  0  0
   49.9420  160.1730   31.3560 C   0  0  0  0  0  0  0  0  0  0  0  0
   51.3520  160.3600   31.0110 C   0  0  0  0  0  0  0  0  0  0  0  0
   52.0020  161.3200   31.4200 O   0  0  0  0  0  0  0  0  0  0  0  0
   51.9840  159.3430   30.1400 C   0  0  0  0  0  0  0  0  0  0  0  0
   53.3200  159.5200   29.8300 O   0  0  0  0  0  0  0  0  0  0  0  0
   52.4070  157.5470   27.6540 C   0  0  0  0  0  0  0  0  0  0  0  0
   52.9340  156.5410   26.8390 C   0  0  0  0  0  0  0  0  0  0  0  0
   52.8380  155.1890   27.2080 C   0  0  0  0  0  0  0  0  0  0  0  0
   53.4000  154.1260   26.2950 C   0  0  0  0  0  0  0  0  0  0  0  0
   54.4720  154.5630   25.5750 F   0  0  0  0  0  0  0  0  0  0  0  0
   52.5020  153.6790   25.3680 F   0  0  0  0  0  0  0  0  0  0  0  0
   51.4603  151.4761   28.5055 H   0  0  0  0  0  0  0  0  0  0  0  0
   51.0996  152.7533   27.1385 H   0  0  0  0  0  0  0  0  0  0  0  0
   52.5040  153.1911   29.8501 H   0  0  0  0  0  0  0  0  0  0  0  0
   51.1982  155.6151   30.1830 H   0  0  0  0  0  0  0  0  0  0  0  0
   47.4228  157.9495   30.7647 H   0  0  0  0  0  0  0  0  0  0  0  0
   46.1970  159.5773   32.2097 H   0  0  0  0  0  0  0  0  0  0  0  0
   47.3746  161.5844   33.1094 H   0  0  0  0  0  0  0  0  0  0  0  0
   50.1300  162.2060   33.5830 H   0  0  0  0  0  0  0  0  0  0  0  0
   53.7840  158.8560   29.3580 H   0  0  0  0  0  0  0  0  0  0  0  0
   52.4971  158.5995   27.3474 H   0  0  0  0  0  0  0  0  0  0  0  0
   53.4307  156.8118   25.8957 H   0  0  0  0  0  0  0  0  0  0  0  0
   53.6809  153.3210   26.9900 H   0  0  0  0  0  0  0  0  0  0  0  0
  1  2  2  0
  2  3  1  0
  3  4  2  0
  4  5  1  0
  5  6  1  0
  6  7  1  0
  7  8  1  0
  8  9  2  0
  9 10  1  0
 10 11  2  0
 11 12  1  0
 12 13  1  0
 12 14  2  0
 14 15  1  0
 15 16  2  0
 15 17  1  0
 17 18  1  0
  5 19  2  0
 19 20  1  0
 20 21  2  0
 21 22  1  0
 22 23  1  0
 22 24  1  0
 21  3  1  0
 17  6  2  0
 14  8  1  0
  1 25  1  0
  1 26  1  0
  2 27  1  0
  4 28  1  0
  9 29  1  0
 10 30  1  0
 11 31  1  0
 13 32  1  0
 18 33  1  0
 19 34  1  0
 20 35  1  0
 22 36  1  0
M  END
>  <meeko>  (4) 
{"is_sidechain": [false], "free_energy": -9.715, "intermolecular_energy": -12.106, "internal_energy": 0.018}

$$$$
cand_021_out
     RDKit          3D

 36 38  0  0  0  0  0  0  0  0999 V2000
   54.1470  156.4790   25.0900 C   0  0  0  0  0  0  0  0  0  0  0  0
   53.5800  155.3020   25.3850 C   0  0  0  0  0  0  0  0  0  0  0  0
   52.9430  155.0310   26.6800 C   0  0  0  0  0  0  0  0  0  0  0  0
   52.3300  156.0890   27.3760 C   0  0  0  0  0  0  0  0  0  0  0  0
   51.7000  155.8850   28.6120 C   0  0  0  0  0  0  0  0  0  0  0  0
   51.0390  156.9890   29.3370 C   0  0  0  0  0  0  0  0  0  0  0  0
   51.8910  158.0570   29.5910 O   0  0  0  0  0  0  0  0  0  0  0  0
   51.4030  159.1500   30.2600 C   0  0  0  0  0  0  0  0  0  0  0  0
   52.2980  160.1920   30.5090 C   0  0  0  0  0  0  0  0  0  0  0  0
   51.8640  161.3360   31.1840 C   0  0  0  0  0  0  0  0  0  0  0  0
   50.5390  161.4370   31.6090 C   0  0  0  0  0  0  0  0  0  0  0  0
   49.6480  160.3960   31.3600 C   0  0  0  0  0  0  0  0  0  0  0  0
   48.3650  160.5610   31.8040 O   0  0  0  0  0  0  0  0  0  0  0  0
   50.0820  159.2520   30.6850 C   0  0  0  0  0  0  0  0  0  0  0  0
   49.1790  158.1350   30.4030 C   0  0  0  0  0  0  0  0  0  0  0  0
   47.9960  158.1520   30.7380 O   0  0  0  0  0  0  0  0  0  0  0  0
   49.7400  156.9650   29.6890 C   0  0  0  0  0  0  0  0  0  0  0  0
   48.8760  155.9210   29.4140 O   0  0  0  0  0  0  0  0  0  0  0  0
   51.6680  154.5880   29.1380 C   0  0  0  0  0  0  0  0  0  0  0  0
   52.2670  153.5270   28.4540 C   0  0  0  0  0  0  0  0  0  0  0  0
   52.9110  153.7330   27.2220 C   0  0  0  0  0  0  0  0  0  0  0  0
   53.5660  152.5690   26.5190 C   0  0  0  0  0  0  0  0  0  0  0  0
   54.8990  152.7620   26.3110 F   0  0  0  0  0  0  0  0  0  0  0  0
   53.0410  152.3190   25.2840 F   0  0  0  0  0  0  0  0  0  0  0  0
   54.6121  156.6340   24.1053 H   0  0  0  0  0  0  0  0  0  0  0  0
   54.1476  157.2907   25.8324 H   0  0  0  0  0  0  0  0  0  0  0  0
   53.5920  154.5058   24.6261 H   0  0  0  0  0  0  0  0  0  0  0  0
   52.3453  157.0991   26.9407 H   0  0  0  0  0  0  0  0  0  0  0  0
   53.3429  160.1127   30.1745 H   0  0  0  0  0  0  0  0  0  0  0  0
   52.5680  162.1580   31.3805 H   0  0  0  0  0  0  0  0  0  0  0  0
   50.1984  162.3380   32.1402 H   0  0  0  0  0  0  0  0  0  0  0  0
   47.8180  161.2210   31.4240 H   0  0  0  0  0  0  0  0  0  0  0  0
   48.1440  155.7580   29.9760 H   0  0  0  0  0  0  0  0  0  0  0  0
   51.1664  154.4024   30.0992 H   0  0  0  0  0  0  0  0  0  0  0  0
   52.2340  152.5159   28.8861 H   0  0  0  0  0  0  0  0  0  0  0  0
   53.3818  151.7266   27.2020 H   0  0  0  0  0  0  0  0  0  0  0  0
  1  2  2  0
  2  3  1  0
  3  4  2  0
  4  5  1  0
  5  6  1  0
  6  7  1  0
  7  8  1  0
  8  9  2  0
  9 10  1  0
 10 11  2  0
 11 12  1  0
 12 13  1  0
 12 14  2  0
 14 15  1  0
 15 16  2  0
 15 17  1  0
 17 18  1  0
  5 19  2  0
 19 20  1  0
 20 21  2  0
 21 22  1  0
 22 23  1  0
 22 24  1  0
 21  3  1  0
 17  6  2  0
 14  8  1  0
  1 25  1  0
  1 26  1  0
  2 27  1  0
  4 28  1  0
  9 29  1  0
 10 30  1  0
 11 31  1  0
 13 32  1  0
 18 33  1  0
 19 34  1  0
 20 35  1  0
 22 36  1  0
M  END
>  <meeko>  (5) 
{"is_sidechain": [false], "free_energy": -9.278, "intermolecular_energy": -11.278, "internal_energy": -0.27}

$$$$
