cand_040_out
     RDKit          3D

 36 38  0  0  0  0  0  0  0  0999 V2000
   50.0770  161.3260   32.9360 C   0  0  0  0  0  0  0  0  0  0  0  0
   50.0110  161.2040   31.6040 C   0  0  0  0  0  0  0  0  0  0  0  0
   50.4370  160.0000   30.8770 C   0  0  0  0  0  0  0  0  0  0  0  0
   51.7400  159.9260   30.3630 C   0  0  0  0  0  0  0  0  0  0  0  0
   52.1870  158.7810   29.6980 C   0  0  0  0  0  0  0  0  0  0  0  0
   51.3470  157.6720   29.5410 C   0  0  0  0  0  0  0  0  0  0  0  0
   51.8310  156.4800   28.8140 C   0  0  0  0  0  0  0  0  0  0  0  0
   52.4120  156.7930   27.5900 O   0  0  0  0  0  0  0  0  0  0  0  0
   52.9050  155.7780   26.8110 C   0  0  0  0  0  0  0  0  0  0  0  0
   53.4650  156.1370   25.5830 C   0  0  0  0  0  0  0  0  0  0  0  0
   53.9860  155.1510   24.7420 C   0  0  0  0  0  0  0  0  0  0  0  0
   53.9480  153.8090   25.1270 C   0  0  0  0  0  0  0  0  0  0  0  0
   53.3880  153.4550   26.3520 C   0  0  0  0  0  0  0  0  0  0  0  0
   53.3840  152.1240   26.6670 O   0  0  0  0  0  0  0  0  0  0  0  0
   52.8660  154.4410   27.1940 C   0  0  0  0  0  0  0  0  0  0  0  0
   52.2690  154.1120   28.4890 C   0  0  0  0  0  0  0  0  0  0  0  0
   52.2050  152.9550   28.9000 O   0  0  0  0  0  0  0  0  0  0  0  0
   51.7370  155.2290   29.3020 C   0  0  0  0  0  0  0  0  0  0  0  0
   51.1870  154.9080   30.5290 O   0  0  0  0  0  0  0  0  0  0  0  0
   50.0440  157.7450   30.0550 C   0  0  0  0  0  0  0  0  0  0  0  0
   49.5780  158.8950   30.7250 C   0  0  0  0  0  0  0  0  0  0  0  0
   48.1720  158.9010   31.2620 C   0  0  0  0  0  0  0  0  0  0  0  0
   49.7417  162.2549   33.4205 H   0  0  0  0  0  0  0  0  0  0  0  0
   50.4665  160.4973   33.5456 H   0  0  0  0  0  0  0  0  0  0  0  0
   49.6167  162.0506   31.0228 H   0  0  0  0  0  0  0  0  0  0  0  0
   52.4201  160.7819   30.4852 H   0  0  0  0  0  0  0  0  0  0  0  0
   53.2096  158.7508   29.2937 H   0  0  0  0  0  0  0  0  0  0  0  0
   53.4957  157.1937   25.2789 H   0  0  0  0  0  0  0  0  0  0  0  0
   54.4272  155.4321   23.7743 H   0  0  0  0  0  0  0  0  0  0  0  0
   54.3594  153.0335   24.4642 H   0  0  0  0  0  0  0  0  0  0  0  0
   54.1630  151.7160   26.9920 H   0  0  0  0  0  0  0  0  0  0  0  0
   50.5430  154.2300   30.5910 H   0  0  0  0  0  0  0  0  0  0  0  0
   49.3696  156.8847   29.9326 H   0  0  0  0  0  0  0  0  0  0  0  0
   48.1995  158.9009   32.3617 H   0  0  0  0  0  0  0  0  0  0  0  0
   47.6483  159.8014   30.9084 H   0  0  0  0  0  0  0  0  0  0  0  0
   47.6406  158.0051   30.9084 H   0  0  0  0  0  0  0  0  0  0  0  0
  1  2  2  0
  2  3  1  0
  3  4  2  0
  4  5  1  0
  5  6  2  0
  6  7  1  0
  7  8  1  0
  8  9  1  0
  9 10  2  0
 10 11  1  0
 11 12  2  0
 12 13  1  0
 13 14  1  0
 13 15  2  0
 15 16  1  0
 16 17  2  0
 16 18  1  0
 18 19  1  0
  6 20  1  0
 20 21  2  0
 21 22  1  0
 21  3  1  0
 18  7  2  0
 15  9  1  0
  1 23  1  0
  1 24  1  0
  2 25  1  0
  4 26  1  0
  5 27  1  0
 10 28  1  0
 11 29  1  0
 12 30  1  0
 14 31  1  0
 19 32  1  0
 20 33  1  0
 22 34  1  0
 22 35  1  0
 22 36  1  0
M  END
>  <meeko>  (1) 
{"is_sidechain": [false], "free_energy": -11.523, "intermolecular_energy": -13.544, "internal_energy": -0.163}

$$$$
cand_040_out
     RDKit          3D

 36 38  0  0  0  0  0  0  0  0999 V2000
   48.9670  160.7450   33.0370 C   0  0  0  0  0  0  0  0  0  0  0  0
   49.1080  160.7030   31.7070 C   0  0  0  0  0  0  0  0  0  0  0  0
   49.7960  159.6140   30.9980 C   0  0  0  0  0  0  0  0  0  0  0  0
   49.1160  158.4150   30.7450 C   0  0  0  0  0  0  0  0  0  0  0  0
   49.7300  157.3730   30.0430 C   0  0  0  0  0  0  0  0  0  0  0  0
   51.0380  157.5100   29.5630 C   0  0  0  0  0  0  0  0  0  0  0  0
   51.6780  156.3880   28.8430 C   0  0  0  0  0  0  0  0  0  0  0  0
   52.2520  156.7770   27.6380 O   0  0  0  0  0  0  0  0  0  0  0  0
   52.8820  155.8340   26.8680 C   0  0  0  0  0  0  0  0  0  0  0  0
   53.4300  156.2660   25.6590 C   0  0  0  0  0  0  0  0  0  0  0  0
   54.0870  155.3550   24.8280 C   0  0  0  0  0  0  0  0  0  0  0  0
   54.1950  154.0140   25.2050 C   0  0  0  0  0  0  0  0  0  0  0  0
   53.6470  153.5870   26.4120 C   0  0  0  0  0  0  0  0  0  0  0  0
   53.7900  152.2620   26.7190 O   0  0  0  0  0  0  0  0  0  0  0  0
   52.9890  154.4980   27.2430 C   0  0  0  0  0  0  0  0  0  0  0  0
   52.3990  154.0900   28.5190 C   0  0  0  0  0  0  0  0  0  0  0  0
   52.4600  152.9300   28.9230 O   0  0  0  0  0  0  0  0  0  0  0  0
   51.7170  155.1300   29.3220 C   0  0  0  0  0  0  0  0  0  0  0  0
   51.1750  154.7370   30.5310 O   0  0  0  0  0  0  0  0  0  0  0  0
   51.7190  158.7090   29.8160 C   0  0  0  0  0  0  0  0  0  0  0  0
   51.1140  159.7660   30.5250 C   0  0  0  0  0  0  0  0  0  0  0  0
   51.8980  161.0310   30.7520 C   0  0  0  0  0  0  0  0  0  0  0  0
   48.4410  161.5885   33.5080 H   0  0  0  0  0  0  0  0  0  0  0  0
   49.3771  159.9360   33.6594 H   0  0  0  0  0  0  0  0  0  0  0  0
   48.6868  161.5271   31.1124 H   0  0  0  0  0  0  0  0  0  0  0  0
   48.0836  158.2916   31.1041 H   0  0  0  0  0  0  0  0  0  0  0  0
   49.1801  156.4369   29.8663 H   0  0  0  0  0  0  0  0  0  0  0  0
   53.3448  157.3215   25.3612 H   0  0  0  0  0  0  0  0  0  0  0  0
   54.5200  155.6941   23.8753 H   0  0  0  0  0  0  0  0  0  0  0  0
   54.7117  153.2971   24.5499 H   0  0  0  0  0  0  0  0  0  0  0  0
   54.6440  151.8750   26.7420 H   0  0  0  0  0  0  0  0  0  0  0  0
   50.5290  155.2710   30.9510 H   0  0  0  0  0  0  0  0  0  0  0  0
   52.7504  158.8276   29.4524 H   0  0  0  0  0  0  0  0  0  0  0  0
   52.0066  161.2062   31.8325 H   0  0  0  0  0  0  0  0  0  0  0  0
   52.8936  160.9324   30.2947 H   0  0  0  0  0  0  0  0  0  0  0  0
   51.3667  161.8787   30.2947 H   0  0  0  0  0  0  0  0  0  0  0  0
  1  2  2  0
  2  3  1  0
  3  4  2  0
  4  5  1  0
  5  6  2  0
  6  7  1  0
  7  8  1  0
  8  9  1  0
  9 10  2  0
 10 11  1  0
 11 12  2  0
 12 13  1  0
 13 14  1  0
 13 15  2  0
 15 16  1  0
 16 17  2  0
 16 18  1  0
 18 19  1  0
  6 20  1  0
 20 21  2  0
 21 22  1  0
 21  3  1  0
 18  7  2  0
 15  9  1  0
  1 23  1  0
  1 24  1  0
  2 25  1  0
  4 26  1  0
  5 27  1  0
 10 28  1  0
 11 29  1  0
 12 30  1  0
 14 31  1  0
 19 32  1  0
 20 33  1  0
 22 34  1  0
 22 35  1  0
 22 36  1  0
M  END
>  <meeko>  (2) 
{"is_sidechain": [false], "free_energy": -11.221, "intermolecular_energy": -13.16, "internal_energy": -0.191}

$$$$
cand_040_out
     RDKit          3D

 36 38  0  0  0  0  0  0  0  0999 V2000
   52.2930  152.7730   26.2050 C   0  0  0  0  0  0  0  0  0  0  0  0
   53.0680  153.5590   26.9630 C   0  0  0  0  0  0  0  0  0  0  0  0
   52.5750  154.7590   27.6550 C   0  0  0  0  0  0  0  0  0  0  0  0
   51.8850  154.6240   28.8680 C   0  0  0  0  0  0  0  0  0  0  0  0
   51.4340  155.7470   29.5680 C   0  0  0  0  0  0  0  0  0  0  0  0
   51.6740  157.0370   29.0800 C   0  0  0  0  0  0  0  0  0  0  0  0
   51.1680  158.2100   29.8230 C   0  0  0  0  0  0  0  0  0  0  0  0
   49.8370  158.0760   30.2030 O   0  0  0  0  0  0  0  0  0  0  0  0
   49.2410  159.0940   30.9010 C   0  0  0  0  0  0  0  0  0  0  0  0
   47.8990  158.9240   31.2480 C   0  0  0  0  0  0  0  0  0  0  0  0
   47.2330  159.9230   31.9610 C   0  0  0  0  0  0  0  0  0  0  0  0
   47.9060  161.0910   32.3260 C   0  0  0  0  0  0  0  0  0  0  0  0
   49.2440  161.2580   31.9780 C   0  0  0  0  0  0  0  0  0  0  0  0
   49.8420  162.4250   32.3680 O   0  0  0  0  0  0  0  0  0  0  0  0
   49.9110  160.2590   31.2640 C   0  0  0  0  0  0  0  0  0  0  0  0
   51.3160  160.3940   30.8780 C   0  0  0  0  0  0  0  0  0  0  0  0
   51.9780  161.3890   31.1700 O   0  0  0  0  0  0  0  0  0  0  0  0
   51.9280  159.2820   30.1170 C   0  0  0  0  0  0  0  0  0  0  0  0
   53.2590  159.4140   29.7690 O   0  0  0  0  0  0  0  0  0  0  0  0
   52.3630  157.1720   27.8660 C   0  0  0  0  0  0  0  0  0  0  0  0
   52.8210  156.0490   27.1470 C   0  0  0  0  0  0  0  0  0  0  0  0
   53.5650  156.2670   25.8580 C   0  0  0  0  0  0  0  0  0  0  0  0
   52.7220  151.8878   25.7127 H   0  0  0  0  0  0  0  0  0  0  0  0
   51.2273  153.0125   26.0746 H   0  0  0  0  0  0  0  0  0  0  0  0
   54.1296  153.2929   27.0738 H   0  0  0  0  0  0  0  0  0  0  0  0
   51.6957  153.6197   29.2749 H   0  0  0  0  0  0  0  0  0  0  0  0
   50.8849  155.6156   30.5120 H   0  0  0  0  0  0  0  0  0  0  0  0
   47.3676  158.0049   30.9602 H   0  0  0  0  0  0  0  0  0  0  0  0
   46.1762  159.7897   32.2357 H   0  0  0  0  0  0  0  0  0  0  0  0
   47.3802  161.8775   32.8873 H   0  0  0  0  0  0  0  0  0  0  0  0
   50.2190  162.9960   31.7280 H   0  0  0  0  0  0  0  0  0  0  0  0
   53.9220  159.0040   30.2890 H   0  0  0  0  0  0  0  0  0  0  0  0
   52.5507  158.1789   27.4648 H   0  0  0  0  0  0  0  0  0  0  0  0
   54.5992  156.5700   26.0783 H   0  0  0  0  0  0  0  0  0  0  0  0
   53.5725  155.3333   25.2765 H   0  0  0  0  0  0  0  0  0  0  0  0
   53.0674  157.0571   25.2765 H   0  0  0  0  0  0  0  0  0  0  0  0
  1  2  2  0
  2  3  1  0
  3  4  2  0
  4  5  1  0
  5  6  2  0
  6  7  1  0
  7  8  1  0
  8  9  1  0
  9 10  2  0
 10 11  1  0
 11 12  2  0
 12 13  1  0
 13 14  1  0
 13 15  2  0
 15 16  1  0
 16 17  2  0
 16 18  1  0
 18 19  1  0
  6 20  1  0
 20 21  2  0
 21 22  1  0
 21  3  1  0
 18  7  2  0
 15  9  1  0
  1 23  1  0
  1 24  1  0
  2 25  1  0
  4 26  1  0
  5 27  1  0
 10 28  1  0
 11 29  1  0
 12 30  1  0
 14 31  1  0
 19 32  1  0
 20 33  1  0
 22 34  1  0
 22 35  1  0
 22 36  1  0
M  END
>  <meeko>  (3) 
{"is_sidechain": [false], "free_energy": -10.795, "intermolecular_energy": -12.632, "internal_energy": -0.22}

$$$$
cand_040_out
     RDKit          3D

 36 38  0  0  0  0  0  0  0  0999 V2000
   53.1540  153.9950   25.0670 C   0  0  0  0  0  0  0  0  0  0  0  0
   53.3370  154.0090   26.3930 C   0  0  0  0  0  0  0  0  0  0  0  0
   52.8210  155.0690   27.2720 C   0  0  0  0  0  0  0  0  0  0  0  0
   53.0020  156.4130   26.9150 C   0  0  0  0  0  0  0  0  0  0  0  0
   52.4920  157.4430   27.7110 C   0  0  0  0  0  0  0  0  0  0  0  0
   51.7760  157.1560   28.8780 C   0  0  0  0  0  0  0  0  0  0  0  0
   51.2660  158.2600   29.7190 C   0  0  0  0  0  0  0  0  0  0  0  0
   49.9350  158.0900   30.0850 O   0  0  0  0  0  0  0  0  0  0  0  0
   49.3360  159.0430   30.8670 C   0  0  0  0  0  0  0  0  0  0  0  0
   47.9940  158.8390   31.1970 C   0  0  0  0  0  0  0  0  0  0  0  0
   47.3240  159.7710   31.9930 C   0  0  0  0  0  0  0  0  0  0  0  0
   47.9940  160.9050   32.4570 C   0  0  0  0  0  0  0  0  0  0  0  0
   49.3310  161.1060   32.1260 C   0  0  0  0  0  0  0  0  0  0  0  0
   49.9250  162.2360   32.6150 O   0  0  0  0  0  0  0  0  0  0  0  0
   50.0020  160.1730   31.3300 C   0  0  0  0  0  0  0  0  0  0  0  0
   51.4060  160.3460   30.9580 C   0  0  0  0  0  0  0  0  0  0  0  0
   52.0650  161.3140   31.3350 O   0  0  0  0  0  0  0  0  0  0  0  0
   52.0230  159.3050   30.1040 C   0  0  0  0  0  0  0  0  0  0  0  0
   53.3530  159.4710   29.7700 O   0  0  0  0  0  0  0  0  0  0  0  0
   51.5950  155.8120   29.2360 C   0  0  0  0  0  0  0  0  0  0  0  0
   52.1060  154.7630   28.4450 C   0  0  0  0  0  0  0  0  0  0  0  0
   51.8650  153.3420   28.8810 C   0  0  0  0  0  0  0  0  0  0  0  0
   53.5657  153.1725   24.4636 H   0  0  0  0  0  0  0  0  0  0  0  0
   52.5919  154.8059   24.5808 H   0  0  0  0  0  0  0  0  0  0  0  0
   53.9034  153.1838   26.8493 H   0  0  0  0  0  0  0  0  0  0  0  0
   53.5530  156.6603   25.9957 H   0  0  0  0  0  0  0  0  0  0  0  0
   52.6555  158.4902   27.4165 H   0  0  0  0  0  0  0  0  0  0  0  0
   47.4660  157.9462   30.8307 H   0  0  0  0  0  0  0  0  0  0  0  0
   46.2675  159.6115   32.2546 H   0  0  0  0  0  0  0  0  0  0  0  0
   47.4657  161.6387   33.0835 H   0  0  0  0  0  0  0  0  0  0  0  0
   50.0280  162.3500   33.5400 H   0  0  0  0  0  0  0  0  0  0  0  0
   53.5880  159.7730   28.9150 H   0  0  0  0  0  0  0  0  0  0  0  0
   51.0414  155.5709   30.1554 H   0  0  0  0  0  0  0  0  0  0  0  0
   51.8565  153.2920   29.9798 H   0  0  0  0  0  0  0  0  0  0  0  0
   50.8957  152.9981   28.4908 H   0  0  0  0  0  0  0  0  0  0  0  0
   52.6667  152.6978   28.4908 H   0  0  0  0  0  0  0  0  0  0  0  0
  1  2  2  0
  2  3  1  0
  3  4  2  0
  4  5  1  0
  5  6  2  0
  6  7  1  0
  7  8  1  0
  8  9  1  0
  9 10  2  0
 10 11  1  0
 11 12  2  0
 12 13  1  0
 13 14  1  0
 13 15  2  0
 15 16  1  0
 16 17  2  0
 16 18  1  0
 18 19  1  0
  6 20  1  0
 20 21  2  0
 21 22  1  0
 21  3  1  0
 18  7  2  0
 15  9  1  0
  1 23  1  0
  1 24  1  0
  2 25  1  0
  4 26  1  0
  5 27  1  0
 10 28  1  0
 11 29  1  0
 12 30  1  0
 14 31  1  0
 19 32  1  0
 20 33  1  0
 22 34  1  0
 22 35  1  0
 22 36  1  0
M  END
>  <meeko>  (4) 
{"is_sidechain": [false], "free_energy": -10.111, "intermolecular_energy": -11.881, "internal_energy": -0.166}

$$$$
cand_040_out
     RDKit          3D

 36 38  0  0  0  0  0  0  0  0999 V2000
   52.9220  152.4880   25.9650 C   0  0  0  0  0  0  0  0  0  0  0  0
   53.5460  153.3990   26.7230 C   0  0  0  0  0  0  0  0  0  0  0  0
   52.8450  154.4740   27.4390 C   0  0  0  0  0  0  0  0  0  0  0  0
   52.1350  154.1770   28.6120 C   0  0  0  0  0  0  0  0  0  0  0  0
   51.4870  155.1830   29.3350 C   0  0  0  0  0  0  0  0  0  0  0  0
   51.5440  156.5160   28.9130 C   0  0  0  0  0  0  0  0  0  0  0  0
   50.8320  157.5610   29.6780 C   0  0  0  0  0  0  0  0  0  0  0  0
   51.6490  158.6350   30.0140 O   0  0  0  0  0  0  0  0  0  0  0  0
   51.1150  159.6770   30.7260 C   0  0  0  0  0  0  0  0  0  0  0  0
   51.9760  160.7260   31.0560 C   0  0  0  0  0  0  0  0  0  0  0  0
   51.4950  161.8200   31.7780 C   0  0  0  0  0  0  0  0  0  0  0  0
   50.1550  161.8650   32.1720 C   0  0  0  0  0  0  0  0  0  0  0  0
   49.3000  160.8170   31.8420 C   0  0  0  0  0  0  0  0  0  0  0  0
   48.0010  160.9270   32.2580 O   0  0  0  0  0  0  0  0  0  0  0  0
   49.7810  159.7220   31.1190 C   0  0  0  0  0  0  0  0  0  0  0  0
   48.9160  158.6000   30.7520 C   0  0  0  0  0  0  0  0  0  0  0  0
   47.7250  158.5710   31.0560 O   0  0  0  0  0  0  0  0  0  0  0  0
   49.5250  157.4850   29.9920 C   0  0  0  0  0  0  0  0  0  0  0  0
   48.6970  156.4370   29.6400 O   0  0  0  0  0  0  0  0  0  0  0  0
   52.2530  156.8130   27.7400 C   0  0  0  0  0  0  0  0  0  0  0  0
   52.9080  155.8100   26.9980 C   0  0  0  0  0  0  0  0  0  0  0  0
   53.6610  156.2010   25.7550 C   0  0  0  0  0  0  0  0  0  0  0  0
   53.5034  151.7067   25.4536 H   0  0  0  0  0  0  0  0  0  0  0  0
   51.8281  152.5211   25.8539 H   0  0  0  0  0  0  0  0  0  0  0  0
   54.6406  153.3394   26.8144 H   0  0  0  0  0  0  0  0  0  0  0  0
   52.0874  153.1373   28.9681 H   0  0  0  0  0  0  0  0  0  0  0  0
   50.9264  154.9239   30.2453 H   0  0  0  0  0  0  0  0  0  0  0  0
   53.0313  160.6904   30.7476 H   0  0  0  0  0  0  0  0  0  0  0  0
   52.1718  162.6476   32.0370 H   0  0  0  0  0  0  0  0  0  0  0  0
   49.7766  162.7266   32.7416 H   0  0  0  0  0  0  0  0  0  0  0  0
   47.5920  161.7690   32.3020 H   0  0  0  0  0  0  0  0  0  0  0  0
   49.0650  155.6290   29.3400 H   0  0  0  0  0  0  0  0  0  0  0  0
   52.2989  157.8550   27.3904 H   0  0  0  0  0  0  0  0  0  0  0  0
   54.6046  156.6910   26.0368 H   0  0  0  0  0  0  0  0  0  0  0  0
   53.8783  155.3018   25.1598 H   0  0  0  0  0  0  0  0  0  0  0  0
   53.0505  156.8960   25.1598 H   0  0  0  0  0  0  0  0  0  0  0  0
  1  2  2  0
  2  3  1  0
  3  4  2  0
  4  5  1  0
  5  6  2  0
  6  7  1  0
  7  8  1  0
  8  9  1  0
  9 10  2  0
 10 11  1  0
 11 12  2  0
 12 13  1  0
 13 14  1  0
 13 15  2  0
 15 16  1  0
 16 17  2  0
 16 18  1  0
 18 19  1  0
  6 20  1  0
 20 21  2  0
 21 22  1  0
 21  3  1  0
 18  7  2  0
 15  9  1  0
  1 23  1  0
  1 24  1  0
  2 25  1  0
  4 26  1  0
  5 27  1  0
 10 28  1  0
 11 29  1  0
 12 30  1  0
 14 31  1  0
 19 32  1  0
 20 33  1  0
 22 34  1  0
 22 35  1  0
 22 36  1  0
M  END
>  <meeko>  (5) 
{"is_sidechain": [false], "free_energy": -8.884, "intermolecular_energy": -10.381, "internal_energy": -0.225}

$$$$
