cand_043_out
     RDKit          3D

 44 46  0  0  0  0  0  0  0  0999 V2000
   51.7860  160.6510   30.6800 C   0  0  0  0  0  0  0  0  0  0  0  0
   51.0020  159.3930   30.4120 C   0  0  0  0  0  0  0  0  0  0  0  0
   51.6880  158.4000   29.6690 C   0  0  0  0  0  0  0  0  0  0  0  0
   51.1090  157.1710   29.3370 C   0  0  0  0  0  0  0  0  0  0  0  0
   51.8610  156.1870   28.5290 C   0  0  0  0  0  0  0  0  0  0  0  0
   52.3790  156.7320   27.3590 O   0  0  0  0  0  0  0  0  0  0  0  0
   53.1000  155.9270   26.5150 C   0  0  0  0  0  0  0  0  0  0  0  0
   53.5870  156.5120   25.3460 C   0  0  0  0  0  0  0  0  0  0  0  0
   54.3310  155.7480   24.4430 C   0  0  0  0  0  0  0  0  0  0  0  0
   54.5860  154.4020   24.7090 C   0  0  0  0  0  0  0  0  0  0  0  0
   54.0980  153.8210   25.8770 C   0  0  0  0  0  0  0  0  0  0  0  0
   54.3850  152.4980   26.0750 O   0  0  0  0  0  0  0  0  0  0  0  0
   53.3530  154.5850   26.7790 C   0  0  0  0  0  0  0  0  0  0  0  0
   52.8220  154.0140   28.0170 C   0  0  0  0  0  0  0  0  0  0  0  0
   53.0100  152.8380   28.3250 O   0  0  0  0  0  0  0  0  0  0  0  0
   52.0390  154.9060   28.9030 C   0  0  0  0  0  0  0  0  0  0  0  0
   51.5520  154.3590   30.0760 O   0  0  0  0  0  0  0  0  0  0  0  0
   49.8040  156.9420   29.7540 C   0  0  0  0  0  0  0  0  0  0  0  0
   49.1130  157.9030   30.5030 C   0  0  0  0  0  0  0  0  0  0  0  0
   49.6840  159.1430   30.8760 C   0  0  0  0  0  0  0  0  0  0  0  0
   48.8360  160.1380   31.7150 C   0  0  0  0  0  0  0  0  0  0  0  0
   48.8460  161.5730   31.1420 C   0  0  0  0  0  0  0  0  0  0  0  0
   49.3390  160.2910   33.1800 C   0  0  0  0  0  0  0  0  0  0  0  0
   47.3870  159.6170   31.8050 C   0  0  0  0  0  0  0  0  0  0  0  0
   51.8792  160.8006   31.7658 H   0  0  0  0  0  0  0  0  0  0  0  0
   52.7879  160.5605   30.2350 H   0  0  0  0  0  0  0  0  0  0  0  0
   51.2634  161.5106   30.2350 H   0  0  0  0  0  0  0  0  0  0  0  0
   52.7176  158.6042   29.3401 H   0  0  0  0  0  0  0  0  0  0  0  0
   53.3857  157.5727   25.1354 H   0  0  0  0  0  0  0  0  0  0  0  0
   54.7162  156.2082   23.5212 H   0  0  0  0  0  0  0  0  0  0  0  0
   55.1713  153.8010   23.9975 H   0  0  0  0  0  0  0  0  0  0  0  0
   53.7330  151.8470   25.9030 H   0  0  0  0  0  0  0  0  0  0  0  0
   51.3660  154.9120   30.8080 H   0  0  0  0  0  0  0  0  0  0  0  0
   49.3077  155.9956   29.4932 H   0  0  0  0  0  0  0  0  0  0  0  0
   48.0811  157.6842   30.8150 H   0  0  0  0  0  0  0  0  0  0  0  0
   48.8511  162.2981   31.9692 H   0  0  0  0  0  0  0  0  0  0  0  0
   49.7452  161.7150   30.5245 H   0  0  0  0  0  0  0  0  0  0  0  0
   47.9489  161.7275   30.5245 H   0  0  0  0  0  0  0  0  0  0  0  0
   48.5236  160.0430   33.8754 H   0  0  0  0  0  0  0  0  0  0  0  0
   50.1858  159.6098   33.3500 H   0  0  0  0  0  0  0  0  0  0  0  0
   49.6631  161.3283   33.3500 H   0  0  0  0  0  0  0  0  0  0  0  0
   47.0995  159.5136   32.8617 H   0  0  0  0  0  0  0  0  0  0  0  0
   46.7102  160.3281   31.3087 H   0  0  0  0  0  0  0  0  0  0  0  0
   47.3180  158.6377   31.3087 H   0  0  0  0  0  0  0  0  0  0  0  0
  1  2  1  0
  2  3  2  0
  3  4  1  0
  4  5  1  0
  5  6  1  0
  6  7  1  0
  7  8  2  0
  8  9  1  0
  9 10  2  0
 10 11  1  0
 11 12  1  0
 11 13  2  0
 13 14  1  0
 14 15  2  0
 14 16  1  0
 16 17  1  0
  4 18  2  0
 18 19  1  0
 19 20  2  0
 20 21  1  0
 21 22  1  0
 21 23  1  0
 21 24  1  0
 20  2  1  0
 16  5  2  0
 13  7  1  0
  1 25  1  0
  1 26  1  0
  1 27  1  0
  3 28  1  0
  8 29  1  0
  9 30  1  0
 10 31  1  0
 12 32  1  0
 17 33  1  0
 18 34  1  0
 19 35  1  0
 22 36  1  0
 22 37  1  0
 22 38  1  0
 23 39  1  0
 23 40  1  0
 23 41  1  0
 24 42  1  0
 24 43  1  0
 24 44  1  0
M  END
>  <meeko>  (1) 
{"is_sidechain": [false], "free_energy": -12.215, "intermolecular_energy": -14.357, "internal_energy": -0.034}

$$$$
cand_043_out
     RDKit          3D

 44 46  0  0  0  0  0  0  0  0999 V2000
   51.9200  160.5130   30.4000 C   0  0  0  0  0  0  0  0  0  0  0  0
   51.1120  159.2540   30.2190 C   0  0  0  0  0  0  0  0  0  0  0  0
   51.7620  158.2180   29.5010 C   0  0  0  0  0  0  0  0  0  0  0  0
   51.1580  156.9830   29.2480 C   0  0  0  0  0  0  0  0  0  0  0  0
   51.8710  155.9520   28.4630 C   0  0  0  0  0  0  0  0  0  0  0  0
   52.4310  156.4550   27.2940 O   0  0  0  0  0  0  0  0  0  0  0  0
   53.1220  155.6040   26.4700 C   0  0  0  0  0  0  0  0  0  0  0  0
   53.6530  156.1480   25.3000 C   0  0  0  0  0  0  0  0  0  0  0  0
   54.3700  155.3360   24.4180 C   0  0  0  0  0  0  0  0  0  0  0  0
   54.5550  153.9820   24.7050 C   0  0  0  0  0  0  0  0  0  0  0  0
   54.0230  153.4420   25.8730 C   0  0  0  0  0  0  0  0  0  0  0  0
   54.2410  152.1090   26.0930 O   0  0  0  0  0  0  0  0  0  0  0  0
   53.3050  154.2540   26.7550 C   0  0  0  0  0  0  0  0  0  0  0  0
   52.7300  153.7270   27.9930 C   0  0  0  0  0  0  0  0  0  0  0  0
   52.8560  152.5480   28.3190 O   0  0  0  0  0  0  0  0  0  0  0  0
   51.9800  154.6690   28.8570 C   0  0  0  0  0  0  0  0  0  0  0  0
   51.4520  154.1630   30.0290 O   0  0  0  0  0  0  0  0  0  0  0  0
   49.8650  156.7910   29.7170 C   0  0  0  0  0  0  0  0  0  0  0  0
   49.2110  157.7950   30.4420 C   0  0  0  0  0  0  0  0  0  0  0  0
   49.8080  159.0440   30.7370 C   0  0  0  0  0  0  0  0  0  0  0  0
   49.0010  160.0880   31.5550 C   0  0  0  0  0  0  0  0  0  0  0  0
   48.6610  161.3600   30.7440 C   0  0  0  0  0  0  0  0  0  0  0  0
   49.7610  160.6080   32.8100 C   0  0  0  0  0  0  0  0  0  0  0  0
   47.7040  159.4320   32.0730 C   0  0  0  0  0  0  0  0  0  0  0  0
   52.0493  160.7145   31.4736 H   0  0  0  0  0  0  0  0  0  0  0  0
   52.9061  160.3867   29.9293 H   0  0  0  0  0  0  0  0  0  0  0  0
   51.3944  161.3569   29.9293 H   0  0  0  0  0  0  0  0  0  0  0  0
   52.7820  158.3933   29.1284 H   0  0  0  0  0  0  0  0  0  0  0  0
   53.5073  157.2143   25.0726 H   0  0  0  0  0  0  0  0  0  0  0  0
   54.7897  155.7640   23.4957 H   0  0  0  0  0  0  0  0  0  0  0  0
   55.1198  153.3434   24.0099 H   0  0  0  0  0  0  0  0  0  0  0  0
   55.1170  151.7840   26.1650 H   0  0  0  0  0  0  0  0  0  0  0  0
   51.8280  153.3990   30.4200 H   0  0  0  0  0  0  0  0  0  0  0  0
   49.3491  155.8403   29.5169 H   0  0  0  0  0  0  0  0  0  0  0  0
   48.1878  157.6044   30.7980 H   0  0  0  0  0  0  0  0  0  0  0  0
   48.4399  162.1871   31.4347 H   0  0  0  0  0  0  0  0  0  0  0  0
   49.5183  161.6308   30.1102 H   0  0  0  0  0  0  0  0  0  0  0  0
   47.7829  161.1670   30.1102 H   0  0  0  0  0  0  0  0  0  0  0  0
   49.2499  160.2583   33.7192 H   0  0  0  0  0  0  0  0  0  0  0  0
   50.7922  160.2253   32.7989 H   0  0  0  0  0  0  0  0  0  0  0  0
   49.7779  161.7078   32.7989 H   0  0  0  0  0  0  0  0  0  0  0  0
   47.7065  159.4333   33.1730 H   0  0  0  0  0  0  0  0  0  0  0  0
   46.8351  159.9990   31.7076 H   0  0  0  0  0  0  0  0  0  0  0  0
   47.6458  158.3961   31.7076 H   0  0  0  0  0  0  0  0  0  0  0  0
  1  2  1  0
  2  3  2  0
  3  4  1  0
  4  5  1  0
  5  6  1  0
  6  7  1  0
  7  8  2  0
  8  9  1  0
  9 10  2  0
 10 11  1  0
 11 12  1  0
 11 13  2  0
 13 14  1  0
 14 15  2  0
 14 16  1  0
 16 17  1  0
  4 18  2  0
 18 19  1  0
 19 20  2  0
 20 21  1  0
 21 22  1  0
 21 23  1  0
 21 24  1  0
 20  2  1  0
 16  5  2  0
 13  7  1  0
  1 25  1  0
  1 26  1  0
  1 27  1  0
  3 28  1  0
  8 29  1  0
  9 30  1  0
 10 31  1  0
 12 32  1  0
 17 33  1  0
 18 34  1  0
 19 35  1  0
 22 36  1  0
 22 37  1  0
 22 38  1  0
 23 39  1  0
 23 40  1  0
 23 41  1  0
 24 42  1  0
 24 43  1  0
 24 44  1  0
M  END
>  <meeko>  (2) 
{"is_sidechain": [false], "free_energy": -11.83, "intermolecular_energy": -13.898, "internal_energy": -0.041}

$$$$
cand_043_out
     RDKit          3D

 44 46  0  0  0  0  0  0  0  0999 V2000
   48.1890  158.3970   31.0130 C   0  0  0  0  0  0  0  0  0  0  0  0
   49.6260  158.5470   30.5870 C   0  0  0  0  0  0  0  0  0  0  0  0
   50.1480  157.4660   29.8330 C   0  0  0  0  0  0  0  0  0  0  0  0
   51.4620  157.4450   29.3550 C   0  0  0  0  0  0  0  0  0  0  0  0
   51.9620  156.2730   28.6040 C   0  0  0  0  0  0  0  0  0  0  0  0
   52.4930  156.6130   27.3640 O   0  0  0  0  0  0  0  0  0  0  0  0
   52.9930  155.6200   26.5630 C   0  0  0  0  0  0  0  0  0  0  0  0
   53.5030  156.0040   25.3220 C   0  0  0  0  0  0  0  0  0  0  0  0
   54.0290  155.0410   24.4570 C   0  0  0  0  0  0  0  0  0  0  0  0
   54.0460  153.6970   24.8320 C   0  0  0  0  0  0  0  0  0  0  0  0
   53.5360  153.3160   26.0710 C   0  0  0  0  0  0  0  0  0  0  0  0
   53.5830  151.9830   26.3750 O   0  0  0  0  0  0  0  0  0  0  0  0
   53.0080  154.2790   26.9360 C   0  0  0  0  0  0  0  0  0  0  0  0
   52.4630  153.9220   28.2460 C   0  0  0  0  0  0  0  0  0  0  0  0
   52.4490  152.7610   28.6500 O   0  0  0  0  0  0  0  0  0  0  0  0
   51.9210  155.0160   29.0840 C   0  0  0  0  0  0  0  0  0  0  0  0
   51.4200  154.6690   30.3250 O   0  0  0  0  0  0  0  0  0  0  0  0
   52.2720  158.5330   29.6530 C   0  0  0  0  0  0  0  0  0  0  0  0
   51.7710  159.6180   30.3820 C   0  0  0  0  0  0  0  0  0  0  0  0
   50.4390  159.6790   30.8550 C   0  0  0  0  0  0  0  0  0  0  0  0
   49.9790  160.9330   31.6480 C   0  0  0  0  0  0  0  0  0  0  0  0
   49.6010  160.6150   33.1130 C   0  0  0  0  0  0  0  0  0  0  0  0
   48.7140  161.6100   31.0480 C   0  0  0  0  0  0  0  0  0  0  0  0
   51.0990  161.9930   31.6120 C   0  0  0  0  0  0  0  0  0  0  0  0
   48.1309  158.3909   32.1114 H   0  0  0  0  0  0  0  0  0  0  0  0
   47.6001  159.2386   30.6193 H   0  0  0  0  0  0  0  0  0  0  0  0
   47.7866  157.4520   30.6193 H   0  0  0  0  0  0  0  0  0  0  0  0
   49.4932  156.6094   29.6152 H   0  0  0  0  0  0  0  0  0  0  0  0
   53.4909  157.0632   25.0253 H   0  0  0  0  0  0  0  0  0  0  0  0
   54.4305  155.3429   23.4784 H   0  0  0  0  0  0  0  0  0  0  0  0
   54.4613  152.9399   24.1506 H   0  0  0  0  0  0  0  0  0  0  0  0
   53.5550  151.7050   27.2690 H   0  0  0  0  0  0  0  0  0  0  0  0
   50.5250  154.4040   30.4100 H   0  0  0  0  0  0  0  0  0  0  0  0
   53.3180  158.5423   29.3127 H   0  0  0  0  0  0  0  0  0  0  0  0
   52.4435  160.4615   30.5969 H   0  0  0  0  0  0  0  0  0  0  0  0
   50.2634  161.1722   33.7918 H   0  0  0  0  0  0  0  0  0  0  0  0
   48.5572  160.9106   33.2948 H   0  0  0  0  0  0  0  0  0  0  0  0
   49.7135  159.5360   33.2948 H   0  0  0  0  0  0  0  0  0  0  0  0
   48.0630  161.9584   31.8633 H   0  0  0  0  0  0  0  0  0  0  0  0
   49.0159  162.4671   30.4281 H   0  0  0  0  0  0  0  0  0  0  0  0
   48.1683  160.8833   30.4281 H   0  0  0  0  0  0  0  0  0  0  0  0
   51.3828  162.2616   32.6403 H   0  0  0  0  0  0  0  0  0  0  0  0
   51.9738  161.5843   31.0850 H   0  0  0  0  0  0  0  0  0  0  0  0
   50.7391  162.8890   31.0850 H   0  0  0  0  0  0  0  0  0  0  0  0
  1  2  1  0
  2  3  2  0
  3  4  1  0
  4  5  1  0
  5  6  1  0
  6  7  1  0
  7  8  2  0
  8  9  1  0
  9 10  2  0
 10 11  1  0
 11 12  1  0
 11 13  2  0
 13 14  1  0
 14 15  2  0
 14 16  1  0
 16 17  1  0
  4 18  2  0
 18 19  1  0
 19 20  2  0
 20 21  1  0
 21 22  1  0
 21 23  1  0
 21 24  1  0
 20  2  1  0
 16  5  2  0
 13  7  1  0
  1 25  1  0
  1 26  1  0
  1 27  1  0
  3 28  1  0
  8 29  1  0
  9 30  1  0
 10 31  1  0
 12 32  1  0
 17 33  1  0
 18 34  1  0
 19 35  1  0
 22 36  1  0
 22 37  1  0
 22 38  1  0
 23 39  1  0
 23 40  1  0
 23 41  1  0
 24 42  1  0
 24 43  1  0
 24 44  1  0
M  END
>  <meeko>  (3) 
{"is_sidechain": [false], "free_energy": -11.737, "intermolecular_energy": -13.77, "internal_energy": -0.06}

$$$$
cand_043_out
     RDKit          3D

 44 46  0  0  0  0  0  0  0  0999 V2000
   53.7730  156.6420   25.9430 C   0  0  0  0  0  0  0  0  0  0  0  0
   52.8370  156.2450   27.0540 C   0  0  0  0  0  0  0  0  0  0  0  0
   52.3900  157.3090   27.8770 C   0  0  0  0  0  0  0  0  0  0  0  0
   51.5140  157.1160   28.9500 C   0  0  0  0  0  0  0  0  0  0  0  0
   51.1100  158.2590   29.7960 C   0  0  0  0  0  0  0  0  0  0  0  0
   49.7950  158.1650   30.2400 O   0  0  0  0  0  0  0  0  0  0  0  0
   49.2910  159.1620   31.0340 C   0  0  0  0  0  0  0  0  0  0  0  0
   47.9630  159.0340   31.4440 C   0  0  0  0  0  0  0  0  0  0  0  0
   47.3870  160.0130   32.2570 C   0  0  0  0  0  0  0  0  0  0  0  0
   48.1380  161.1190   32.6590 C   0  0  0  0  0  0  0  0  0  0  0  0
   49.4630  161.2450   32.2480 C   0  0  0  0  0  0  0  0  0  0  0  0
   50.1400  162.3530   32.6770 O   0  0  0  0  0  0  0  0  0  0  0  0
   50.0380  160.2650   31.4340 C   0  0  0  0  0  0  0  0  0  0  0  0
   51.4260  160.3590   30.9800 C   0  0  0  0  0  0  0  0  0  0  0  0
   52.1530  161.2980   31.2970 O   0  0  0  0  0  0  0  0  0  0  0  0
   51.9390  159.2720   30.1140 C   0  0  0  0  0  0  0  0  0  0  0  0
   53.2550  159.3640   29.7010 O   0  0  0  0  0  0  0  0  0  0  0  0
   51.0880  155.8190   29.2070 C   0  0  0  0  0  0  0  0  0  0  0  0
   51.5050  154.7560   28.3960 C   0  0  0  0  0  0  0  0  0  0  0  0
   52.3680  154.9260   27.2880 C   0  0  0  0  0  0  0  0  0  0  0  0
   52.7640  153.6820   26.4470 C   0  0  0  0  0  0  0  0  0  0  0  0
   51.8980  152.4410   26.7590 C   0  0  0  0  0  0  0  0  0  0  0  0
   54.2290  153.2160   26.6900 C   0  0  0  0  0  0  0  0  0  0  0  0
   52.6620  154.0320   24.9470 C   0  0  0  0  0  0  0  0  0  0  0  0
   54.7052  157.0374   26.3727 H   0  0  0  0  0  0  0  0  0  0  0  0
   53.9994  155.7624   25.3224 H   0  0  0  0  0  0  0  0  0  0  0  0
   53.2980  157.4161   25.3224 H   0  0  0  0  0  0  0  0  0  0  0  0
   52.7464  158.3274   27.6631 H   0  0  0  0  0  0  0  0  0  0  0  0
   47.3705  158.1630   31.1272 H   0  0  0  0  0  0  0  0  0  0  0  0
   46.3406  159.9124   32.5808 H   0  0  0  0  0  0  0  0  0  0  0  0
   47.6842  161.8898   33.2993 H   0  0  0  0  0  0  0  0  0  0  0  0
   50.2060  162.5370   33.5940 H   0  0  0  0  0  0  0  0  0  0  0  0
   53.7300  158.5890   29.4760 H   0  0  0  0  0  0  0  0  0  0  0  0
   50.4163  155.6249   30.0562 H   0  0  0  0  0  0  0  0  0  0  0  0
   51.1453  153.7434   28.6311 H   0  0  0  0  0  0  0  0  0  0  0  0
   51.8123  152.3182   27.8488 H   0  0  0  0  0  0  0  0  0  0  0  0
   50.8960  152.5746   26.3252 H   0  0  0  0  0  0  0  0  0  0  0  0
   52.3691  151.5467   26.3252 H   0  0  0  0  0  0  0  0  0  0  0  0
   54.4198  153.1553   27.7716 H   0  0  0  0  0  0  0  0  0  0  0  0
   54.3790  152.2258   26.2351 H   0  0  0  0  0  0  0  0  0  0  0  0
   54.9235  153.9376   26.2351 H   0  0  0  0  0  0  0  0  0  0  0  0
   52.3558  155.0826   24.8356 H   0  0  0  0  0  0  0  0  0  0  0  0
   53.6410  153.8827   24.4682 H   0  0  0  0  0  0  0  0  0  0  0  0
   51.9165  153.3801   24.4682 H   0  0  0  0  0  0  0  0  0  0  0  0
  1  2  1  0
  2  3  2  0
  3  4  1  0
  4  5  1  0
  5  6  1  0
  6  7  1  0
  7  8  2  0
  8  9  1  0
  9 10  2  0
 10 11  1  0
 11 12  1  0
 11 13  2  0
 13 14  1  0
 14 15  2  0
 14 16  1  0
 16 17  1  0
  4 18  2  0
 18 19  1  0
 19 20  2  0
 20 21  1  0
 21 22  1  0
 21 23  1  0
 21 24  1  0
 20  2  1  0
 16  5  2  0
 13  7  1  0
  1 25  1  0
  1 26  1  0
  1 27  1  0
  3 28  1  0
  8 29  1  0
  9 30  1  0
 10 31  1  0
 12 32  1  0
 17 33  1  0
 18 34  1  0
 19 35  1  0
 22 36  1  0
 22 37  1  0
 22 38  1  0
 23 39  1  0
 23 40  1  0
 23 41  1  0
 24 42  1  0
 24 43  1  0
 24 44  1  0
M  END
>  <meeko>  (4) 
{"is_sidechain": [false], "free_energy": -10.196, "intermolecular_energy": -12.363, "internal_energy": 0.344}

$$$$
