cand_013_out
     RDKit          3D

 50 53  0  0  0  0  0  0  0  0999 V2000
   54.2990  151.7540   23.6710 C   0  0  0  0  0  0  0  0  0  0  0  0
   53.6880  152.9170   24.3120 N   0  0  0  0  0  0  0  0  0  0  0  0
   52.7970  152.4930   25.4170 C   0  0  0  0  0  0  0  0  0  0  0  0
   52.1690  153.6930   26.1660 C   0  0  0  0  0  0  0  0  0  0  0  0
   53.2390  154.5830   26.6770 N   0  0  0  0  0  0  0  0  0  0  0  0
   52.7530  155.6240   27.4850 C   0  0  0  0  0  0  0  0  0  0  0  0
   52.9210  156.9740   27.1410 C   0  0  0  0  0  0  0  0  0  0  0  0
   52.4270  157.9980   27.9540 C   0  0  0  0  0  0  0  0  0  0  0  0
   51.7400  157.7020   29.1350 C   0  0  0  0  0  0  0  0  0  0  0  0
   51.2310  158.7640   30.0270 C   0  0  0  0  0  0  0  0  0  0  0  0
   49.8950  158.5850   30.3720 O   0  0  0  0  0  0  0  0  0  0  0  0
   49.2940  159.5030   31.1940 C   0  0  0  0  0  0  0  0  0  0  0  0
   47.9570  159.2770   31.5240 C   0  0  0  0  0  0  0  0  0  0  0  0
   47.2840  160.1740   32.3580 C   0  0  0  0  0  0  0  0  0  0  0  0
   47.9480  161.2950   32.8600 C   0  0  0  0  0  0  0  0  0  0  0  0
   49.2820  161.5170   32.5310 C   0  0  0  0  0  0  0  0  0  0  0  0
   49.8710  162.6340   33.0570 O   0  0  0  0  0  0  0  0  0  0  0  0
   49.9550  160.6200   31.6960 C   0  0  0  0  0  0  0  0  0  0  0  0
   51.3560  160.8170   31.3240 C   0  0  0  0  0  0  0  0  0  0  0  0
   52.0060  161.7810   31.7200 O   0  0  0  0  0  0  0  0  0  0  0  0
   51.9790  159.8040   30.4400 C   0  0  0  0  0  0  0  0  0  0  0  0
   53.2980  160.0080   30.0820 O   0  0  0  0  0  0  0  0  0  0  0  0
   51.5770  156.3550   29.4860 C   0  0  0  0  0  0  0  0  0  0  0  0
   52.0720  155.3120   28.6730 C   0  0  0  0  0  0  0  0  0  0  0  0
   51.8670  153.8760   29.0910 C   0  0  0  0  0  0  0  0  0  0  0  0
   51.4590  153.7600   30.3930 F   0  0  0  0  0  0  0  0  0  0  0  0
   52.9970  153.1150   29.0120 F   0  0  0  0  0  0  0  0  0  0  0  0
   50.9100  153.2250   28.3680 F   0  0  0  0  0  0  0  0  0  0  0  0
   54.1310  155.0420   25.5860 C   0  0  0  0  0  0  0  0  0  0  0  0
   54.7310  153.8220   24.8490 C   0  0  0  0  0  0  0  0  0  0  0  0
   54.6638  151.0597   24.4423 H   0  0  0  0  0  0  0  0  0  0  0  0
   53.5514  151.2459   23.0442 H   0  0  0  0  0  0  0  0  0  0  0  0
   55.1416  152.0813   23.0442 H   0  0  0  0  0  0  0  0  0  0  0  0
   53.1410  153.4120   23.6080 H   0  0  0  0  0  0  0  0  0  0  0  0
   51.9881  151.8748   25.0004 H   0  0  0  0  0  0  0  0  0  0  0  0
   53.4057  151.9296   26.1396 H   0  0  0  0  0  0  0  0  0  0  0  0
   51.5238  154.2567   25.4761 H   0  0  0  0  0  0  0  0  0  0  0  0
   51.5721  153.3207   27.0117 H   0  0  0  0  0  0  0  0  0  0  0  0
   53.4522  157.2316   26.2128 H   0  0  0  0  0  0  0  0  0  0  0  0
   52.5803  159.0473   27.6616 H   0  0  0  0  0  0  0  0  0  0  0  0
   47.4336  158.3941   31.1283 H   0  0  0  0  0  0  0  0  0  0  0  0
   46.2303  159.9967   32.6192 H   0  0  0  0  0  0  0  0  0  0  0  0
   47.4174  162.0019   33.5148 H   0  0  0  0  0  0  0  0  0  0  0  0
   49.3430  163.3620   33.3220 H   0  0  0  0  0  0  0  0  0  0  0  0
   53.9790  159.5250   30.5060 H   0  0  0  0  0  0  0  0  0  0  0  0
   51.0501  156.1039   30.4184 H   0  0  0  0  0  0  0  0  0  0  0  0
   53.5537  155.6504   24.8743 H   0  0  0  0  0  0  0  0  0  0  0  0
   54.9463  155.6440   26.0136 H   0  0  0  0  0  0  0  0  0  0  0  0
   55.3495  154.1829   24.0140 H   0  0  0  0  0  0  0  0  0  0  0  0
   55.3279  153.2516   25.5758 H   0  0  0  0  0  0  0  0  0  0  0  0
  1  2  1  0
  2  3  1  0
  3  4  1  0
  4  5  1  0
  5  6  1  0
  6  7  2  0
  7  8  1  0
  8  9  2  0
  9 10  1  0
 10 11  1  0
 11 12  1  0
 12 13  2  0
 13 14  1  0
 14 15  2  0
 15 16  1  0
 16 17  1  0
 16 18  2  0
 18 19  1  0
 19 20  2  0
 19 21  1  0
 21 22  1  0
  9 23  1  0
 23 24  2  0
 24 25  1  0
 25 26  1  0
 25 27  1  0
 25 28  1  0
  5 29  1  0
 29 30  1  0
 30  2  1  0
 24  6  1  0
 21 10  2  0
 18 12  1  0
  1 31  1  0
  1 32  1  0
  1 33  1  0
  2 34  1  0
  3 35  1  0
  3 36  1  0
  4 37  1  0
  4 38  1  0
  7 39  1  0
  8 40  1  0
 13 41  1  0
 14 42  1  0
 15 43  1  0
 17 44  1  0
 22 45  1  0
 23 46  1  0
 29 47  1  0
 29 48  1  0
 30 49  1  0
 30 50  1  0
M  CHG  1   2   1
M  END
>  <meeko>  (1) 
{"is_sidechain": [false], "free_energy": -9.844, "intermolecular_energy": -12.146, "internal_energy": 0.867}

$$$$
cand_013_out
     RDKit          3D

 50 53  0  0  0  0  0  0  0  0999 V2000
   54.1610  150.8300   24.1180 C   0  0  0  0  0  0  0  0  0  0  0  0
   53.4160  151.7610   24.9630 N   0  0  0  0  0  0  0  0  0  0  0  0
   54.0470  151.8690   26.2990 C   0  0  0  0  0  0  0  0  0  0  0  0
   53.3260  152.8880   27.2140 C   0  0  0  0  0  0  0  0  0  0  0  0
   53.2820  154.2140   26.5540 N   0  0  0  0  0  0  0  0  0  0  0  0
   52.7630  155.2260   27.3790 C   0  0  0  0  0  0  0  0  0  0  0  0
   51.9810  154.9380   28.5080 C   0  0  0  0  0  0  0  0  0  0  0  0
   51.4770  155.9570   29.3200 C   0  0  0  0  0  0  0  0  0  0  0  0
   51.7460  157.2980   29.0340 C   0  0  0  0  0  0  0  0  0  0  0  0
   51.2040  158.3970   29.8600 C   0  0  0  0  0  0  0  0  0  0  0  0
   49.8640  158.2170   30.1850 O   0  0  0  0  0  0  0  0  0  0  0  0
   49.2330  159.1670   30.9470 C   0  0  0  0  0  0  0  0  0  0  0  0
   47.8920  158.9400   31.2590 C   0  0  0  0  0  0  0  0  0  0  0  0
   47.1910  159.8690   32.0320 C   0  0  0  0  0  0  0  0  0  0  0  0
   47.8290  161.0220   32.4910 C   0  0  0  0  0  0  0  0  0  0  0  0
   49.1670  161.2450   32.1790 C   0  0  0  0  0  0  0  0  0  0  0  0
   49.7310  162.3960   32.6600 O   0  0  0  0  0  0  0  0  0  0  0  0
   49.8690  160.3160   31.4060 C   0  0  0  0  0  0  0  0  0  0  0  0
   51.2760  160.5140   31.0540 C   0  0  0  0  0  0  0  0  0  0  0  0
   51.9050  161.5050   31.4140 O   0  0  0  0  0  0  0  0  0  0  0  0
   51.9300  159.4660   30.2360 C   0  0  0  0  0  0  0  0  0  0  0  0
   53.2540  159.6690   29.8950 O   0  0  0  0  0  0  0  0  0  0  0  0
   52.5200  157.5900   27.9020 C   0  0  0  0  0  0  0  0  0  0  0  0
   53.0350  156.5700   27.0730 C   0  0  0  0  0  0  0  0  0  0  0  0
   53.8690  156.9340   25.8680 C   0  0  0  0  0  0  0  0  0  0  0  0
   54.7260  155.9320   25.4990 F   0  0  0  0  0  0  0  0  0  0  0  0
   54.6700  158.0210   26.0640 F   0  0  0  0  0  0  0  0  0  0  0  0
   53.1320  157.1910   24.7490 F   0  0  0  0  0  0  0  0  0  0  0  0
   52.6320  154.1380   25.2240 C   0  0  0  0  0  0  0  0  0  0  0  0
   53.3650  153.1030   24.3380 C   0  0  0  0  0  0  0  0  0  0  0  0
   54.7226  150.1282   24.7522 H   0  0  0  0  0  0  0  0  0  0  0  0
   53.4593  150.2694   23.4829 H   0  0  0  0  0  0  0  0  0  0  0  0
   54.8618  151.3917   23.4829 H   0  0  0  0  0  0  0  0  0  0  0  0
   52.4670  151.4000   25.0660 H   0  0  0  0  0  0  0  0  0  0  0  0
   54.0214  150.8811   26.7822 H   0  0  0  0  0  0  0  0  0  0  0  0
   55.0789  152.2215   26.1539 H   0  0  0  0  0  0  0  0  0  0  0  0
   52.2998  152.5424   27.4075 H   0  0  0  0  0  0  0  0  0  0  0  0
   53.8742  152.9737   28.1638 H   0  0  0  0  0  0  0  0  0  0  0  0
   51.7606  153.8898   28.7585 H   0  0  0  0  0  0  0  0  0  0  0  0
   50.8612  155.7007   30.1947 H   0  0  0  0  0  0  0  0  0  0  0  0
   47.3880  158.0317   30.8972 H   0  0  0  0  0  0  0  0  0  0  0  0
   46.1340  159.6912   32.2793 H   0  0  0  0  0  0  0  0  0  0  0  0
   47.2755  161.7533   33.0983 H   0  0  0  0  0  0  0  0  0  0  0  0
   49.3720  163.2280   32.4220 H   0  0  0  0  0  0  0  0  0  0  0  0
   53.4910  159.8170   29.0010 H   0  0  0  0  0  0  0  0  0  0  0  0
   52.7313  158.6405   27.6535 H   0  0  0  0  0  0  0  0  0  0  0  0
   51.5822  153.8336   25.3480 H   0  0  0  0  0  0  0  0  0  0  0  0
   52.6784  155.1254   24.7413 H   0  0  0  0  0  0  0  0  0  0  0  0
   52.8376  153.0249   23.3758 H   0  0  0  0  0  0  0  0  0  0  0  0
   54.4001  153.4499   24.2029 H   0  0  0  0  0  0  0  0  0  0  0  0
  1  2  1  0
  2  3  1  0
  3  4  1  0
  4  5  1  0
  5  6  1  0
  6  7  2  0
  7  8  1  0
  8  9  2  0
  9 10  1  0
 10 11  1  0
 11 12  1  0
 12 13  2  0
 13 14  1  0
 14 15  2  0
 15 16  1  0
 16 17  1  0
 16 18  2  0
 18 19  1  0
 19 20  2  0
 19 21  1  0
 21 22  1  0
  9 23  1  0
 23 24  2  0
 24 25  1  0
 25 26  1  0
 25 27  1  0
 25 28  1  0
  5 29  1  0
 29 30  1  0
 30  2  1  0
 24  6  1  0
 21 10  2  0
 18 12  1  0
  1 31  1  0
  1 32  1  0
  1 33  1  0
  2 34  1  0
  3 35  1  0
  3 36  1  0
  4 37  1  0
  4 38  1  0
  7 39  1  0
  8 40  1  0
 13 41  1  0
 14 42  1  0
 15 43  1  0
 17 44  1  0
 22 45  1  0
 23 46  1  0
 29 47  1  0
 29 48  1  0
 30 49  1  0
 30 50  1  0
M  CHG  1   2   1
M  END
>  <meeko>  (2) 
{"is_sidechain": [false], "free_energy": -9.221, "intermolecular_energy": -11.267, "internal_energy": 0.757}

$$$$
cand_013_out
     RDKit          3D

 50 53  0  0  0  0  0  0  0  0999 V2000
   48.9180  163.0030   32.7070 C   0  0  0  0  0  0  0  0  0  0  0  0
   49.6210  162.1480   31.7520 N   0  0  0  0  0  0  0  0  0  0  0  0
   50.5980  161.2810   32.4520 C   0  0  0  0  0  0  0  0  0  0  0  0
   51.3290  160.3160   31.4890 C   0  0  0  0  0  0  0  0  0  0  0  0
   50.3400  159.4910   30.7550 N   0  0  0  0  0  0  0  0  0  0  0  0
   50.9300  158.4950   29.9600 C   0  0  0  0  0  0  0  0  0  0  0  0
   52.2540  158.5920   29.5070 C   0  0  0  0  0  0  0  0  0  0  0  0
   52.8280  157.5890   28.7200 C   0  0  0  0  0  0  0  0  0  0  0  0
   52.0960  156.4520   28.3690 C   0  0  0  0  0  0  0  0  0  0  0  0
   52.6680  155.3890   27.5160 C   0  0  0  0  0  0  0  0  0  0  0  0
   53.3410  155.8890   26.4070 O   0  0  0  0  0  0  0  0  0  0  0  0
   53.9180  155.0080   25.5280 C   0  0  0  0  0  0  0  0  0  0  0  0
   54.5920  155.5550   24.4350 C   0  0  0  0  0  0  0  0  0  0  0  0
   55.2030  154.7130   23.5020 C   0  0  0  0  0  0  0  0  0  0  0  0
   55.1370  153.3280   23.6610 C   0  0  0  0  0  0  0  0  0  0  0  0
   54.4640  152.7860   24.7530 C   0  0  0  0  0  0  0  0  0  0  0  0
   54.4390  151.4210   24.8470 O   0  0  0  0  0  0  0  0  0  0  0  0
   53.8540  153.6280   25.6860 C   0  0  0  0  0  0  0  0  0  0  0  0
   53.1350  153.0980   26.8460 C   0  0  0  0  0  0  0  0  0  0  0  0
   53.0290  151.8920   27.0520 O   0  0  0  0  0  0  0  0  0  0  0  0
   52.5300  154.0760   27.7800 C   0  0  0  0  0  0  0  0  0  0  0  0
   51.8400  153.5660   28.8640 O   0  0  0  0  0  0  0  0  0  0  0  0
   50.7700  156.3550   28.8130 C   0  0  0  0  0  0  0  0  0  0  0  0
   50.1790  157.3620   29.6070 C   0  0  0  0  0  0  0  0  0  0  0  0
   48.7490  157.2100   30.0660 C   0  0  0  0  0  0  0  0  0  0  0  0
   48.3130  155.9130   30.0100 F   0  0  0  0  0  0  0  0  0  0  0  0
   47.8540  157.9100   29.3090 F   0  0  0  0  0  0  0  0  0  0  0  0
   48.5440  157.5900   31.3600 F   0  0  0  0  0  0  0  0  0  0  0  0
   49.3640  160.3360   30.0250 C   0  0  0  0  0  0  0  0  0  0  0  0
   48.6600  161.2980   31.0100 C   0  0  0  0  0  0  0  0  0  0  0  0
   49.1719  162.6941   33.7318 H   0  0  0  0  0  0  0  0  0  0  0  0
   49.2203  164.0495   32.5539 H   0  0  0  0  0  0  0  0  0  0  0  0
   47.8328  162.9087   32.5539 H   0  0  0  0  0  0  0  0  0  0  0  0
   50.1150  162.7520   31.0950 H   0  0  0  0  0  0  0  0  0  0  0  0
   51.3451  161.9191   32.9466 H   0  0  0  0  0  0  0  0  0  0  0  0
   50.0427  160.6707   33.1795 H   0  0  0  0  0  0  0  0  0  0  0  0
   51.9232  160.8989   30.7699 H   0  0  0  0  0  0  0  0  0  0  0  0
   51.9907  159.6568   32.0700 H   0  0  0  0  0  0  0  0  0  0  0  0
   52.8526  159.4747   29.7763 H   0  0  0  0  0  0  0  0  0  0  0  0
   53.8665  157.6962   28.3737 H   0  0  0  0  0  0  0  0  0  0  0  0
   54.6421  156.6465   24.3083 H   0  0  0  0  0  0  0  0  0  0  0  0
   55.7366  155.1423   22.6412 H   0  0  0  0  0  0  0  0  0  0  0  0
   55.6159  152.6656   22.9249 H   0  0  0  0  0  0  0  0  0  0  0  0
   54.3090  151.0110   25.6810 H   0  0  0  0  0  0  0  0  0  0  0  0
   52.2550  153.5150   29.7020 H   0  0  0  0  0  0  0  0  0  0  0  0
   50.1749  155.4723   28.5359 H   0  0  0  0  0  0  0  0  0  0  0  0
   49.8910  160.9215   29.2573 H   0  0  0  0  0  0  0  0  0  0  0  0
   48.6112  159.6906   29.5489 H   0  0  0  0  0  0  0  0  0  0  0  0
   47.9780  161.9482   30.4425 H   0  0  0  0  0  0  0  0  0  0  0  0
   48.1152  160.6869   31.7447 H   0  0  0  0  0  0  0  0  0  0  0  0
  1  2  1  0
  2  3  1  0
  3  4  1  0
  4  5  1  0
  5  6  1  0
  6  7  2  0
  7  8  1  0
  8  9  2  0
  9 10  1  0
 10 11  1  0
 11 12  1  0
 12 13  2  0
 13 14  1  0
 14 15  2  0
 15 16  1  0
 16 17  1  0
 16 18  2  0
 18 19  1  0
 19 20  2  0
 19 21  1  0
 21 22  1  0
  9 23  1  0
 23 24  2  0
 24 25  1  0
 25 26  1  0
 25 27  1  0
 25 28  1  0
  5 29  1  0
 29 30  1  0
 30  2  1  0
 24  6  1  0
 21 10  2  0
 18 12  1  0
  1 31  1  0
  1 32  1  0
  1 33  1  0
  2 34  1  0
  3 35  1  0
  3 36  1  0
  4 37  1  0
  4 38  1  0
  7 39  1  0
  8 40  1  0
 13 41  1  0
 14 42  1  0
 15 43  1  0
 17 44  1  0
 22 45  1  0
 23 46  1  0
 29 47  1  0
 29 48  1  0
 30 49  1  0
 30 50  1  0
M  CHG  1   2   1
M  END
>  <meeko>  (3) 
{"is_sidechain": [false], "free_energy": -8.79, "intermolecular_energy": -10.226, "internal_energy": 0.249}

$$$$
cand_013_out
     RDKit          3D

 50 53  0  0  0  0  0  0  0  0999 V2000
   47.5170  162.7580   34.1410 C   0  0  0  0  0  0  0  0  0  0  0  0
   47.8830  161.5280   33.4410 N   0  0  0  0  0  0  0  0  0  0  0  0
   47.8190  161.7260   31.9740 C   0  0  0  0  0  0  0  0  0  0  0  0
   48.2530  160.4670   31.1860 C   0  0  0  0  0  0  0  0  0  0  0  0
   49.6210  160.0660   31.5940 N   0  0  0  0  0  0  0  0  0  0  0  0
   50.1400  159.0100   30.8260 C   0  0  0  0  0  0  0  0  0  0  0  0
   49.4260  157.8210   30.6170 C   0  0  0  0  0  0  0  0  0  0  0  0
   49.9550  156.7820   29.8460 C   0  0  0  0  0  0  0  0  0  0  0  0
   51.2140  156.9050   29.2510 C   0  0  0  0  0  0  0  0  0  0  0  0
   51.8100  155.8130   28.4530 C   0  0  0  0  0  0  0  0  0  0  0  0
   52.2990  156.2470   27.2260 O   0  0  0  0  0  0  0  0  0  0  0  0
   52.8770  155.3330   26.3810 C   0  0  0  0  0  0  0  0  0  0  0  0
   53.3650  155.8140   25.1660 C   0  0  0  0  0  0  0  0  0  0  0  0
   53.9650  154.9350   24.2600 C   0  0  0  0  0  0  0  0  0  0  0  0
   54.0750  153.5780   24.5690 C   0  0  0  0  0  0  0  0  0  0  0  0
   53.5880  153.1020   25.7830 C   0  0  0  0  0  0  0  0  0  0  0  0
   53.7280  151.7620   26.0220 O   0  0  0  0  0  0  0  0  0  0  0  0
   52.9880  153.9810   26.6890 C   0  0  0  0  0  0  0  0  0  0  0  0
   52.4610  153.5200   27.9750 C   0  0  0  0  0  0  0  0  0  0  0  0
   52.5150  152.3410   28.3170 O   0  0  0  0  0  0  0  0  0  0  0  0
   51.8510  154.5330   28.8670 C   0  0  0  0  0  0  0  0  0  0  0  0
   51.3420  154.0860   30.0720 O   0  0  0  0  0  0  0  0  0  0  0  0
   51.9330  158.0890   29.4640 C   0  0  0  0  0  0  0  0  0  0  0  0
   51.4100  159.1450   30.2410 C   0  0  0  0  0  0  0  0  0  0  0  0
   52.2200  160.4030   30.4370 C   0  0  0  0  0  0  0  0  0  0  0  0
   52.3130  160.7710   31.7530 F   0  0  0  0  0  0  0  0  0  0  0  0
   51.6970  161.4960   29.8080 F   0  0  0  0  0  0  0  0  0  0  0  0
   53.5130  160.2960   30.0150 F   0  0  0  0  0  0  0  0  0  0  0  0
   49.7070  159.8370   33.0560 C   0  0  0  0  0  0  0  0  0  0  0  0
   49.2540  161.1060   33.8150 C   0  0  0  0  0  0  0  0  0  0  0  0
   47.5668  162.5905   35.2270 H   0  0  0  0  0  0  0  0  0  0  0  0
   48.2152  163.5607   33.8614 H   0  0  0  0  0  0  0  0  0  0  0  0
   46.4935  163.0484   33.8614 H   0  0  0  0  0  0  0  0  0  0  0  0
   47.2200  160.8020   33.7130 H   0  0  0  0  0  0  0  0  0  0  0  0
   46.7844  161.9763   31.6967 H   0  0  0  0  0  0  0  0  0  0  0  0
   48.5149  162.5379   31.7159 H   0  0  0  0  0  0  0  0  0  0  0  0
   47.5533  159.6449   31.3970 H   0  0  0  0  0  0  0  0  0  0  0  0
   48.2464  160.6922   30.1093 H   0  0  0  0  0  0  0  0  0  0  0  0
   48.4299  157.7038   31.0688 H   0  0  0  0  0  0  0  0  0  0  0  0
   49.3747  155.8581   29.7060 H   0  0  0  0  0  0  0  0  0  0  0  0
   53.2778  156.8829   24.9214 H   0  0  0  0  0  0  0  0  0  0  0  0
   54.3512  155.3130   23.3019 H   0  0  0  0  0  0  0  0  0  0  0  0
   54.5455  152.8864   23.8546 H   0  0  0  0  0  0  0  0  0  0  0  0
   53.1040  151.1560   25.6700 H   0  0  0  0  0  0  0  0  0  0  0  0
   51.6120  154.4880   30.8730 H   0  0  0  0  0  0  0  0  0  0  0  0
   52.9308  158.1982   29.0140 H   0  0  0  0  0  0  0  0  0  0  0  0
   49.0556  158.9948   33.3322 H   0  0  0  0  0  0  0  0  0  0  0  0
   50.7481  159.6059   33.3258 H   0  0  0  0  0  0  0  0  0  0  0  0
   49.2778  160.8992   34.8951 H   0  0  0  0  0  0  0  0  0  0  0  0
   49.9414  161.9215   33.5459 H   0  0  0  0  0  0  0  0  0  0  0  0
  1  2  1  0
  2  3  1  0
  3  4  1  0
  4  5  1  0
  5  6  1  0
  6  7  2  0
  7  8  1  0
  8  9  2  0
  9 10  1  0
 10 11  1  0
 11 12  1  0
 12 13  2  0
 13 14  1  0
 14 15  2  0
 15 16  1  0
 16 17  1  0
 16 18  2  0
 18 19  1  0
 19 20  2  0
 19 21  1  0
 21 22  1  0
  9 23  1  0
 23 24  2  0
 24 25  1  0
 25 26  1  0
 25 27  1  0
 25 28  1  0
  5 29  1  0
 29 30  1  0
 30  2  1  0
 24  6  1  0
 21 10  2  0
 18 12  1  0
  1 31  1  0
  1 32  1  0
  1 33  1  0
  2 34  1  0
  3 35  1  0
  3 36  1  0
  4 37  1  0
  4 38  1  0
  7 39  1  0
  8 40  1  0
 13 41  1  0
 14 42  1  0
 15 43  1  0
 17 44  1  0
 22 45  1  0
 23 46  1  0
 29 47  1  0
 29 48  1  0
 30 49  1  0
 30 50  1  0
M  CHG  1   2   1
M  END
>  <meeko>  (4) 
{"is_sidechain": [false], "free_energy": -7.756, "intermolecular_energy": -8.413, "internal_energy": -0.289}

$$$$
cand_013_out
     RDKit          3D

 50 53  0  0  0  0  0  0  0  0999 V2000
   54.5560  150.7470   24.0190 C   0  0  0  0  0  0  0  0  0  0  0  0
   53.6930  151.5840   24.8500 N   0  0  0  0  0  0  0  0  0  0  0  0
   54.2700  151.7390   26.2060 C   0  0  0  0  0  0  0  0  0  0  0  0
   53.4200  152.6650   27.1090 C   0  0  0  0  0  0  0  0  0  0  0  0
   53.2590  153.9890   26.4620 N   0  0  0  0  0  0  0  0  0  0  0  0
   52.6130  154.9300   27.2810 C   0  0  0  0  0  0  0  0  0  0  0  0
   51.7690  154.5460   28.3330 C   0  0  0  0  0  0  0  0  0  0  0  0
   51.1380  155.4960   29.1420 C   0  0  0  0  0  0  0  0  0  0  0  0
   51.3400  156.8620   28.9280 C   0  0  0  0  0  0  0  0  0  0  0  0
   50.6650  157.8880   29.7490 C   0  0  0  0  0  0  0  0  0  0  0  0
   51.5130  158.9270   30.1200 O   0  0  0  0  0  0  0  0  0  0  0  0
   51.0150  159.9470   30.8890 C   0  0  0  0  0  0  0  0  0  0  0  0
   51.8980  160.9730   31.2270 C   0  0  0  0  0  0  0  0  0  0  0  0
   51.4550  162.0430   32.0090 C   0  0  0  0  0  0  0  0  0  0  0  0
   50.1320  162.0860   32.4530 C   0  0  0  0  0  0  0  0  0  0  0  0
   49.2540  161.0610   32.1130 C   0  0  0  0  0  0  0  0  0  0  0  0
   47.9720  161.1640   32.5810 O   0  0  0  0  0  0  0  0  0  0  0  0
   49.6970  159.9910   31.3310 C   0  0  0  0  0  0  0  0  0  0  0  0
   48.8060  158.8920   30.9530 C   0  0  0  0  0  0  0  0  0  0  0  0
   47.6310  158.8540   31.3090 O   0  0  0  0  0  0  0  0  0  0  0  0
   49.3720  157.8090   30.1160 C   0  0  0  0  0  0  0  0  0  0  0  0
   48.5280  156.7690   29.7780 O   0  0  0  0  0  0  0  0  0  0  0  0
   52.1770  157.2490   27.8720 C   0  0  0  0  0  0  0  0  0  0  0  0
   52.8190  156.3000   27.0480 C   0  0  0  0  0  0  0  0  0  0  0  0
   53.7150  156.7660   25.9270 C   0  0  0  0  0  0  0  0  0  0  0  0
   54.6230  155.8140   25.5480 F   0  0  0  0  0  0  0  0  0  0  0  0
   54.4710  157.8570   26.2460 F   0  0  0  0  0  0  0  0  0  0  0  0
   53.0440  157.0810   24.7820 F   0  0  0  0  0  0  0  0  0  0  0  0
   52.6600  153.8640   25.1110 C   0  0  0  0  0  0  0  0  0  0  0  0
   53.5230  152.9230   24.2390 C   0  0  0  0  0  0  0  0  0  0  0  0
   55.1958  150.1264   24.6636 H   0  0  0  0  0  0  0  0  0  0  0  0
   53.9356  150.0976   23.3839 H   0  0  0  0  0  0  0  0  0  0  0  0
   55.1862  151.3870   23.3839 H   0  0  0  0  0  0  0  0  0  0  0  0
   52.7850  151.1260   24.9200 H   0  0  0  0  0  0  0  0  0  0  0  0
   54.3335  150.7474   26.6779 H   0  0  0  0  0  0  0  0  0  0  0  0
   55.2633  152.1988   26.0963 H   0  0  0  0  0  0  0  0  0  0  0  0
   52.4297  152.2127   27.2662 H   0  0  0  0  0  0  0  0  0  0  0  0
   53.9272  152.7933   28.0766 H   0  0  0  0  0  0  0  0  0  0  0  0
   51.6000  153.4763   28.5256 H   0  0  0  0  0  0  0  0  0  0  0  0
   50.4757  155.1646   29.9553 H   0  0  0  0  0  0  0  0  0  0  0  0
   52.9408  160.9397   30.8786 H   0  0  0  0  0  0  0  0  0  0  0  0
   52.1500  162.8530   32.2753 H   0  0  0  0  0  0  0  0  0  0  0  0
   49.7845  162.9278   33.0699 H   0  0  0  0  0  0  0  0  0  0  0  0
   47.8170  161.4430   33.4630 H   0  0  0  0  0  0  0  0  0  0  0  0
   48.5010  156.4540   28.8950 H   0  0  0  0  0  0  0  0  0  0  0  0
   52.3375  158.3203   27.6807 H   0  0  0  0  0  0  0  0  0  0  0  0
   51.6444  153.4507   25.1989 H   0  0  0  0  0  0  0  0  0  0  0  0
   52.6172  154.8571   24.6400 H   0  0  0  0  0  0  0  0  0  0  0  0
   53.0371  152.8050   23.2592 H   0  0  0  0  0  0  0  0  0  0  0  0
   54.5205  153.3765   24.1425 H   0  0  0  0  0  0  0  0  0  0  0  0
  1  2  1  0
  2  3  1  0
  3  4  1  0
  4  5  1  0
  5  6  1  0
  6  7  2  0
  7  8  1  0
  8  9  2  0
  9 10  1  0
 10 11  1  0
 11 12  1  0
 12 13  2  0
 13 14  1  0
 14 15  2  0
 15 16  1  0
 16 17  1  0
 16 18  2  0
 18 19  1  0
 19 20  2  0
 19 21  1  0
 21 22  1  0
  9 23  1  0
 23 24  2  0
 24 25  1  0
 25 26  1  0
 25 27  1  0
 25 28  1  0
  5 29  1  0
 29 30  1  0
 30  2  1  0
 24  6  1  0
 21 10  2  0
 18 12  1  0
  1 31  1  0
  1 32  1  0
  1 33  1  0
  2 34  1  0
  3 35  1  0
  3 36  1  0
  4 37  1  0
  4 38  1  0
  7 39  1  0
  8 40  1  0
 13 41  1  0
 14 42  1  0
 15 43  1  0
 17 44  1  0
 22 45  1  0
 23 46  1  0
 29 47  1  0
 29 48  1  0
 30 49  1  0
 30 50  1  0
M  CHG  1   2   1
M  END
>  <meeko>  (5) 
{"is_sidechain": [false], "free_energy": -6.992, "intermolecular_energy": -8.377, "internal_energy": 0.617}

$$$$
