cand_024_out
     RDKit          3D

 47 49  0  0  0  0  0  0  0  0999 V2000
   55.9600  152.1900   25.4550 C   0  0  0  0  0  0  0  0  0  0  0  0
   54.5860  151.6840   25.4100 N   0  0  0  0  0  0  0  0  0  0  0  0
   53.9640  152.0710   24.1400 C   0  0  0  0  0  0  0  0  0  0  0  0
   53.7790  152.1900   26.5380 C   0  0  0  0  0  0  0  0  0  0  0  0
   52.4930  152.9080   26.0880 C   0  0  0  0  0  0  0  0  0  0  0  0
   52.2380  154.1690   26.8940 C   0  0  0  0  0  0  0  0  0  0  0  0
   51.5220  154.0540   28.0970 C   0  0  0  0  0  0  0  0  0  0  0  0
   51.2450  155.1780   28.8790 C   0  0  0  0  0  0  0  0  0  0  0  0
   51.6800  156.4480   28.4860 C   0  0  0  0  0  0  0  0  0  0  0  0
   51.3620  157.6260   29.3200 C   0  0  0  0  0  0  0  0  0  0  0  0
   50.0400  157.6450   29.7480 O   0  0  0  0  0  0  0  0  0  0  0  0
   49.6130  158.6850   30.5330 C   0  0  0  0  0  0  0  0  0  0  0  0
   48.2750  158.6720   30.9290 C   0  0  0  0  0  0  0  0  0  0  0  0
   47.7750  159.7010   31.7300 C   0  0  0  0  0  0  0  0  0  0  0  0
   48.6130  160.7430   32.1340 C   0  0  0  0  0  0  0  0  0  0  0  0
   49.9480  160.7530   31.7390 C   0  0  0  0  0  0  0  0  0  0  0  0
   50.7120  161.8020   32.1710 O   0  0  0  0  0  0  0  0  0  0  0  0
   50.4470  159.7240   30.9360 C   0  0  0  0  0  0  0  0  0  0  0  0
   51.8430  159.6970   30.4980 C   0  0  0  0  0  0  0  0  0  0  0  0
   52.6440  160.5730   30.8180 O   0  0  0  0  0  0  0  0  0  0  0  0
   52.2700  158.5650   29.6440 C   0  0  0  0  0  0  0  0  0  0  0  0
   53.5940  158.5400   29.2450 O   0  0  0  0  0  0  0  0  0  0  0  0
   52.3840  156.5650   27.2790 C   0  0  0  0  0  0  0  0  0  0  0  0
   52.6720  155.4440   26.4710 C   0  0  0  0  0  0  0  0  0  0  0  0
   53.4550  155.6490   25.1920 C   0  0  0  0  0  0  0  0  0  0  0  0
   54.7110  155.1190   25.2260 F   0  0  0  0  0  0  0  0  0  0  0  0
   52.8480  155.0870   24.1090 F   0  0  0  0  0  0  0  0  0  0  0  0
   53.6280  156.9660   24.8820 F   0  0  0  0  0  0  0  0  0  0  0  0
   56.2740  152.3056   26.5029 H   0  0  0  0  0  0  0  0  0  0  0  0
   56.6292  151.4793   24.9480 H   0  0  0  0  0  0  0  0  0  0  0  0
   56.0085  153.1650   24.9480 H   0  0  0  0  0  0  0  0  0  0  0  0
   54.6190  150.6660   25.4870 H   0  0  0  0  0  0  0  0  0  0  0  0
   53.0457  152.6424   24.3406 H   0  0  0  0  0  0  0  0  0  0  0  0
   54.6643  152.6931   23.5633 H   0  0  0  0  0  0  0  0  0  0  0  0
   53.7154  151.1679   23.5633 H   0  0  0  0  0  0  0  0  0  0  0  0
   53.4995  151.3397   27.1774 H   0  0  0  0  0  0  0  0  0  0  0  0
   54.3939  152.9262   27.0763 H   0  0  0  0  0  0  0  0  0  0  0  0
   52.5893  153.1780   25.0260 H   0  0  0  0  0  0  0  0  0  0  0  0
   51.6465  152.2239   26.2477 H   0  0  0  0  0  0  0  0  0  0  0  0
   51.1743  153.0644   28.4282 H   0  0  0  0  0  0  0  0  0  0  0  0
   50.6782  155.0630   29.8147 H   0  0  0  0  0  0  0  0  0  0  0  0
   47.6146  157.8519   30.6105 H   0  0  0  0  0  0  0  0  0  0  0  0
   46.7205  159.6909   32.0430 H   0  0  0  0  0  0  0  0  0  0  0  0
   48.2187  161.5545   32.7633 H   0  0  0  0  0  0  0  0  0  0  0  0
   50.9140  162.5060   31.5870 H   0  0  0  0  0  0  0  0  0  0  0  0
   53.9570  159.2690   28.7810 H   0  0  0  0  0  0  0  0  0  0  0  0
   52.7217  157.5596   26.9522 H   0  0  0  0  0  0  0  0  0  0  0  0
  1  2  1  0
  2  3  1  0
  2  4  1  0
  4  5  1  0
  5  6  1  0
  6  7  2  0
  7  8  1  0
  8  9  2  0
  9 10  1  0
 10 11  1  0
 11 12  1  0
 12 13  2  0
 13 14  1  0
 14 15  2  0
 15 16  1  0
 16 17  1  0
 16 18  2  0
 18 19  1  0
 19 20  2  0
 19 21  1  0
 21 22  1  0
  9 23  1  0
 23 24  2  0
 24 25  1  0
 25 26  1  0
 25 27  1  0
 25 28  1  0
 24  6  1  0
 21 10  2  0
 18 12  1  0
  1 29  1  0
  1 30  1  0
  1 31  1  0
  2 32  1  0
  3 33  1  0
  3 34  1  0
  3 35  1  0
  4 36  1  0
  4 37  1  0
  5 38  1  0
  5 39  1  0
  7 40  1  0
  8 41  1  0
 13 42  1  0
 14 43  1  0
 15 44  1  0
 17 45  1  0
 22 46  1  0
 23 47  1  0
M  CHG  1   2   1
M  END
>  <meeko>  (1) 
{"is_sidechain": [false], "free_energy": -10.312, "intermolecular_energy": -13.929, "internal_energy": -0.58}

$$$$
cand_024_out
     RDKit          3D

 47 49  0  0  0  0  0  0  0  0999 V2000
   48.4560  161.2080   34.1440 C   0  0  0  0  0  0  0  0  0  0  0  0
   49.3950  161.8810   33.2420 N   0  0  0  0  0  0  0  0  0  0  0  0
   48.6490  162.5450   32.1680 C   0  0  0  0  0  0  0  0  0  0  0  0
   50.3710  160.9360   32.6630 C   0  0  0  0  0  0  0  0  0  0  0  0
   50.5570  161.1100   31.1450 C   0  0  0  0  0  0  0  0  0  0  0  0
   50.8900  159.7960   30.4610 C   0  0  0  0  0  0  0  0  0  0  0  0
   52.2190  159.5750   30.0620 C   0  0  0  0  0  0  0  0  0  0  0  0
   52.5890  158.3920   29.4190 C   0  0  0  0  0  0  0  0  0  0  0  0
   51.6450  157.3920   29.1610 C   0  0  0  0  0  0  0  0  0  0  0  0
   52.0540  156.1550   28.4640 C   0  0  0  0  0  0  0  0  0  0  0  0
   52.5800  156.3940   27.2000 O   0  0  0  0  0  0  0  0  0  0  0  0
   53.0010  155.3290   26.4460 C   0  0  0  0  0  0  0  0  0  0  0  0
   53.5090  155.6130   25.1770 C   0  0  0  0  0  0  0  0  0  0  0  0
   53.9570  154.5750   24.3580 C   0  0  0  0  0  0  0  0  0  0  0  0
   53.8960  153.2540   24.8060 C   0  0  0  0  0  0  0  0  0  0  0  0
   53.3900  152.9730   26.0720 C   0  0  0  0  0  0  0  0  0  0  0  0
   53.3600  151.6580   26.4470 O   0  0  0  0  0  0  0  0  0  0  0  0
   52.9410  154.0120   26.8910 C   0  0  0  0  0  0  0  0  0  0  0  0
   52.4010  153.7600   28.2280 C   0  0  0  0  0  0  0  0  0  0  0  0
   52.3220  152.6270   28.6960 O   0  0  0  0  0  0  0  0  0  0  0  0
   51.9460  154.9310   29.0130 C   0  0  0  0  0  0  0  0  0  0  0  0
   51.4490  154.6860   30.2810 O   0  0  0  0  0  0  0  0  0  0  0  0
   50.3150  157.6180   29.5470 C   0  0  0  0  0  0  0  0  0  0  0  0
   49.9180  158.8070   30.1950 C   0  0  0  0  0  0  0  0  0  0  0  0
   48.4690  158.9680   30.6000 C   0  0  0  0  0  0  0  0  0  0  0  0
   47.9780  160.2250   30.3980 F   0  0  0  0  0  0  0  0  0  0  0  0
   47.6370  158.1350   29.9150 F   0  0  0  0  0  0  0  0  0  0  0  0
   48.2550  158.7070   31.9210 F   0  0  0  0  0  0  0  0  0  0  0  0
   48.7399  161.4114   35.1871 H   0  0  0  0  0  0  0  0  0  0  0  0
   47.4385  161.5837   33.9609 H   0  0  0  0  0  0  0  0  0  0  0  0
   48.4849  160.1237   33.9609 H   0  0  0  0  0  0  0  0  0  0  0  0
   49.9170  162.5710   33.7830 H   0  0  0  0  0  0  0  0  0  0  0  0
   47.8952  163.2159   32.6057 H   0  0  0  0  0  0  0  0  0  0  0  0
   49.3433  163.1294   31.5464 H   0  0  0  0  0  0  0  0  0  0  0  0
   48.1490  161.7877   31.5464 H   0  0  0  0  0  0  0  0  0  0  0  0
   51.3427  161.0923   33.1544 H   0  0  0  0  0  0  0  0  0  0  0  0
   49.9817  159.9209   32.8302 H   0  0  0  0  0  0  0  0  0  0  0  0
   49.6257  161.5082   30.7160 H   0  0  0  0  0  0  0  0  0  0  0  0
   51.3965  161.8017   30.9815 H   0  0  0  0  0  0  0  0  0  0  0  0
   52.9792  160.3453   30.2591 H   0  0  0  0  0  0  0  0  0  0  0  0
   53.6349  158.2445   29.1117 H   0  0  0  0  0  0  0  0  0  0  0  0
   53.5562  156.6534   24.8229 H   0  0  0  0  0  0  0  0  0  0  0  0
   54.3585  154.7981   23.3585 H   0  0  0  0  0  0  0  0  0  0  0  0
   54.2473  152.4364   24.1594 H   0  0  0  0  0  0  0  0  0  0  0  0
   54.0030  151.0620   26.1180 H   0  0  0  0  0  0  0  0  0  0  0  0
   51.0240  155.3720   30.7580 H   0  0  0  0  0  0  0  0  0  0  0  0
   49.5599  156.8458   29.3384 H   0  0  0  0  0  0  0  0  0  0  0  0
  1  2  1  0
  2  3  1  0
  2  4  1  0
  4  5  1  0
  5  6  1  0
  6  7  2  0
  7  8  1  0
  8  9  2  0
  9 10  1  0
 10 11  1  0
 11 12  1  0
 12 13  2  0
 13 14  1  0
 14 15  2  0
 15 16  1  0
 16 17  1  0
 16 18  2  0
 18 19  1  0
 19 20  2  0
 19 21  1  0
 21 22  1  0
  9 23  1  0
 23 24  2  0
 24 25  1  0
 25 26  1  0
 25 27  1  0
 25 28  1  0
 24  6  1  0
 21 10  2  0
 18 12  1  0
  1 29  1  0
  1 30  1  0
  1 31  1  0
  2 32  1  0
  3 33  1  0
  3 34  1  0
  3 35  1  0
  4 36  1  0
  4 37  1  0
  5 38  1  0
  5 39  1  0
  7 40  1  0
  8 41  1  0
 13 42  1  0
 14 43  1  0
 15 44  1  0
 17 45  1  0
 22 46  1  0
 23 47  1  0
M  CHG  1   2   1
M  END
>  <meeko>  (2) 
{"is_sidechain": [false], "free_energy": -10.267, "intermolecular_energy": -14.056, "internal_energy": -0.393}

$$$$
cand_024_out
     RDKit          3D

 47 49  0  0  0  0  0  0  0  0999 V2000
   53.9580  152.4870   24.0160 C   0  0  0  0  0  0  0  0  0  0  0  0
   53.6620  153.9220   23.9840 N   0  0  0  0  0  0  0  0  0  0  0  0
   54.9140  154.6800   24.0780 C   0  0  0  0  0  0  0  0  0  0  0  0
   52.7530  154.3190   25.0770 C   0  0  0  0  0  0  0  0  0  0  0  0
   53.4380  154.3440   26.4550 C   0  0  0  0  0  0  0  0  0  0  0  0
   52.8230  155.3850   27.3740 C   0  0  0  0  0  0  0  0  0  0  0  0
   53.0090  156.7420   27.0560 C   0  0  0  0  0  0  0  0  0  0  0  0
   52.4790  157.7480   27.8650 C   0  0  0  0  0  0  0  0  0  0  0  0
   51.7420  157.4320   29.0110 C   0  0  0  0  0  0  0  0  0  0  0  0
   51.2040  158.5130   29.8640 C   0  0  0  0  0  0  0  0  0  0  0  0
   49.8750  158.3150   30.2160 O   0  0  0  0  0  0  0  0  0  0  0  0
   49.2540  159.2460   31.0090 C   0  0  0  0  0  0  0  0  0  0  0  0
   47.9150  159.0150   31.3270 C   0  0  0  0  0  0  0  0  0  0  0  0
   47.2230  159.9230   32.1310 C   0  0  0  0  0  0  0  0  0  0  0  0
   47.8700  161.0610   32.6170 C   0  0  0  0  0  0  0  0  0  0  0  0
   49.2060  161.2890   32.3000 C   0  0  0  0  0  0  0  0  0  0  0  0
   49.7780  162.4220   32.8090 O   0  0  0  0  0  0  0  0  0  0  0  0
   49.8980  160.3810   31.4940 C   0  0  0  0  0  0  0  0  0  0  0  0
   51.3030  160.5830   31.1350 C   0  0  0  0  0  0  0  0  0  0  0  0
   51.9420  161.5550   31.5300 O   0  0  0  0  0  0  0  0  0  0  0  0
   51.9410  159.5640   30.2700 C   0  0  0  0  0  0  0  0  0  0  0  0
   53.2720  159.7550   29.9470 O   0  0  0  0  0  0  0  0  0  0  0  0
   51.5680  156.0790   29.3370 C   0  0  0  0  0  0  0  0  0  0  0  0
   52.0980  155.0440   28.5350 C   0  0  0  0  0  0  0  0  0  0  0  0
   51.8480  153.6080   28.9410 C   0  0  0  0  0  0  0  0  0  0  0  0
   52.9850  152.8600   29.0410 F   0  0  0  0  0  0  0  0  0  0  0  0
   51.2320  153.5030   30.1510 F   0  0  0  0  0  0  0  0  0  0  0  0
   51.0550  152.9380   28.0570 F   0  0  0  0  0  0  0  0  0  0  0  0
   54.0275  152.1502   25.0609 H   0  0  0  0  0  0  0  0  0  0  0  0
   53.1547  151.9354   23.5056 H   0  0  0  0  0  0  0  0  0  0  0  0
   54.9140  152.2983   23.5056 H   0  0  0  0  0  0  0  0  0  0  0  0
   53.1930  154.1310   23.1010 H   0  0  0  0  0  0  0  0  0  0  0  0
   55.1702  154.8351   25.1365 H   0  0  0  0  0  0  0  0  0  0  0  0
   55.7206  154.1184   23.5840 H   0  0  0  0  0  0  0  0  0  0  0  0
   54.7903  155.6550   23.5840 H   0  0  0  0  0  0  0  0  0  0  0  0
   52.3648  155.3253   24.8610 H   0  0  0  0  0  0  0  0  0  0  0  0
   51.9503  153.5684   25.1241 H   0  0  0  0  0  0  0  0  0  0  0  0
   53.3355  153.3530   26.9212 H   0  0  0  0  0  0  0  0  0  0  0  0
   54.4963  154.6040   26.3051 H   0  0  0  0  0  0  0  0  0  0  0  0
   53.5805  157.0145   26.1565 H   0  0  0  0  0  0  0  0  0  0  0  0
   52.6429  158.8025   27.5981 H   0  0  0  0  0  0  0  0  0  0  0  0
   47.4051  158.1184   30.9446 H   0  0  0  0  0  0  0  0  0  0  0  0
   46.1674  159.7417   32.3817 H   0  0  0  0  0  0  0  0  0  0  0  0
   47.3244  161.7765   33.2497 H   0  0  0  0  0  0  0  0  0  0  0  0
   50.1110  163.0790   32.2300 H   0  0  0  0  0  0  0  0  0  0  0  0
   53.8910  159.0640   30.0830 H   0  0  0  0  0  0  0  0  0  0  0  0
   51.0026  155.8163   30.2432 H   0  0  0  0  0  0  0  0  0  0  0  0
  1  2  1  0
  2  3  1  0
  2  4  1  0
  4  5  1  0
  5  6  1  0
  6  7  2  0
  7  8  1  0
  8  9  2  0
  9 10  1  0
 10 11  1  0
 11 12  1  0
 12 13  2  0
 13 14  1  0
 14 15  2  0
 15 16  1  0
 16 17  1  0
 16 18  2  0
 18 19  1  0
 19 20  2  0
 19 21  1  0
 21 22  1  0
  9 23  1  0
 23 24  2  0
 24 25  1  0
 25 26  1  0
 25 27  1  0
 25 28  1  0
 24  6  1  0
 21 10  2  0
 18 12  1  0
  1 29  1  0
  1 30  1  0
  1 31  1  0
  2 32  1  0
  3 33  1  0
  3 34  1  0
  3 35  1  0
  4 36  1  0
  4 37  1  0
  5 38  1  0
  5 39  1  0
  7 40  1  0
  8 41  1  0
 13 42  1  0
 14 43  1  0
 15 44  1  0
 17 45  1  0
 22 46  1  0
 23 47  1  0
M  CHG  1   2   1
M  END
>  <meeko>  (3) 
{"is_sidechain": [false], "free_energy": -9.688, "intermolecular_energy": -13.202, "internal_energy": -0.464}

$$$$
cand_024_out
     RDKit          3D

 47 49  0  0  0  0  0  0  0  0999 V2000
   48.5220  162.6870   31.5770 C   0  0  0  0  0  0  0  0  0  0  0  0
   47.9530  161.4090   32.0130 N   0  0  0  0  0  0  0  0  0  0  0  0
   48.4630  161.0790   33.3480 C   0  0  0  0  0  0  0  0  0  0  0  0
   48.2710  160.3180   31.0710 C   0  0  0  0  0  0  0  0  0  0  0  0
   48.9170  159.0980   31.7530 C   0  0  0  0  0  0  0  0  0  0  0  0
   49.7790  158.3020   30.7890 C   0  0  0  0  0  0  0  0  0  0  0  0
   49.3520  157.0140   30.4260 C   0  0  0  0  0  0  0  0  0  0  0  0
   50.1050  156.2260   29.5530 C   0  0  0  0  0  0  0  0  0  0  0  0
   51.3030  156.7040   29.0110 C   0  0  0  0  0  0  0  0  0  0  0  0
   52.0930  155.8470   28.1020 C   0  0  0  0  0  0  0  0  0  0  0  0
   52.6660  156.5540   27.0530 O   0  0  0  0  0  0  0  0  0  0  0  0
   53.4290  155.8780   26.1350 C   0  0  0  0  0  0  0  0  0  0  0  0
   53.9730  156.6240   25.0890 C   0  0  0  0  0  0  0  0  0  0  0  0
   54.7600  155.9970   24.1220 C   0  0  0  0  0  0  0  0  0  0  0  0
   55.0030  154.6240   24.2000 C   0  0  0  0  0  0  0  0  0  0  0  0
   54.4600  153.8820   25.2450 C   0  0  0  0  0  0  0  0  0  0  0  0
   54.7380  152.5420   25.2610 O   0  0  0  0  0  0  0  0  0  0  0  0
   53.6710  154.5090   26.2120 C   0  0  0  0  0  0  0  0  0  0  0  0
   53.0810  153.7650   27.3260 C   0  0  0  0  0  0  0  0  0  0  0  0
   53.2550  152.5570   27.4680 O   0  0  0  0  0  0  0  0  0  0  0  0
   52.2550  154.5240   28.2940 C   0  0  0  0  0  0  0  0  0  0  0  0
   51.7120  153.8170   29.3510 O   0  0  0  0  0  0  0  0  0  0  0  0
   51.7370  157.9840   29.3840 C   0  0  0  0  0  0  0  0  0  0  0  0
   50.9940  158.7960   30.2680 C   0  0  0  0  0  0  0  0  0  0  0  0
   51.5180  160.1760   30.6050 C   0  0  0  0  0  0  0  0  0  0  0  0
   51.4610  160.4740   31.9350 F   0  0  0  0  0  0  0  0  0  0  0  0
   52.8210  160.3450   30.2460 F   0  0  0  0  0  0  0  0  0  0  0  0
   50.8260  161.1720   29.9830 F   0  0  0  0  0  0  0  0  0  0  0  0
   48.7899  163.2887   32.4580 H   0  0  0  0  0  0  0  0  0  0  0  0
   49.4221  162.5005   30.9728 H   0  0  0  0  0  0  0  0  0  0  0  0
   47.7811  163.2311   30.9728 H   0  0  0  0  0  0  0  0  0  0  0  0
   46.9380  161.5060   32.0410 H   0  0  0  0  0  0  0  0  0  0  0  0
   47.7980  161.5093   34.1113 H   0  0  0  0  0  0  0  0  0  0  0  0
   48.4988  159.9860   33.4670 H   0  0  0  0  0  0  0  0  0  0  0  0
   49.4747  161.4941   33.4670 H   0  0  0  0  0  0  0  0  0  0  0  0
   47.3395  159.9939   30.5838 H   0  0  0  0  0  0  0  0  0  0  0  0
   48.9996  160.7124   30.3474 H   0  0  0  0  0  0  0  0  0  0  0  0
   49.5445  159.4471   32.5863 H   0  0  0  0  0  0  0  0  0  0  0  0
   48.1110  158.4413   32.1122 H   0  0  0  0  0  0  0  0  0  0  0  0
   48.4102  156.6201   30.8356 H   0  0  0  0  0  0  0  0  0  0  0  0
   49.7523  155.2182   29.2885 H   0  0  0  0  0  0  0  0  0  0  0  0
   53.7817  157.7054   25.0266 H   0  0  0  0  0  0  0  0  0  0  0  0
   55.1894  156.5849   23.2974 H   0  0  0  0  0  0  0  0  0  0  0  0
   55.6224  154.1298   23.4370 H   0  0  0  0  0  0  0  0  0  0  0  0
   54.3520  151.9910   25.9130 H   0  0  0  0  0  0  0  0  0  0  0  0
   52.1890  153.7340   30.1540 H   0  0  0  0  0  0  0  0  0  0  0  0
   52.6841  158.3667   28.9759 H   0  0  0  0  0  0  0  0  0  0  0  0
  1  2  1  0
  2  3  1  0
  2  4  1  0
  4  5  1  0
  5  6  1  0
  6  7  2  0
  7  8  1  0
  8  9  2  0
  9 10  1  0
 10 11  1  0
 11 12  1  0
 12 13  2  0
 13 14  1  0
 14 15  2  0
 15 16  1  0
 16 17  1  0
 16 18  2  0
 18 19  1  0
 19 20  2  0
 19 21  1  0
 21 22  1  0
  9 23  1  0
 23 24  2  0
 24 25  1  0
 25 26  1  0
 25 27  1  0
 25 28  1  0
 24  6  1  0
 21 10  2  0
 18 12  1  0
  1 29  1  0
  1 30  1  0
  1 31  1  0
  2 32  1  0
  3 33  1  0
  3 34  1  0
  3 35  1  0
  4 36  1  0
  4 37  1  0
  5 38  1  0
  5 39  1  0
  7 40  1  0
  8 41  1  0
 13 42  1  0
 14 43  1  0
 15 44  1  0
 17 45  1  0
 22 46  1  0
 23 47  1  0
M  CHG  1   2   1
M  END
>  <meeko>  (4) 
{"is_sidechain": [false], "free_energy": -9.513, "intermolecular_energy": -13.452, "internal_energy": 0.022}

$$$$
cand_024_out
     RDKit          3D

 47 49  0  0  0  0  0  0  0  0999 V2000
   54.9400  151.7220   25.1110 C   0  0  0  0  0  0  0  0  0  0  0  0
   53.6910  152.2100   24.5190 N   0  0  0  0  0  0  0  0  0  0  0  0
   54.0000  153.1560   23.4420 C   0  0  0  0  0  0  0  0  0  0  0  0
   52.8250  152.8580   25.5230 C   0  0  0  0  0  0  0  0  0  0  0  0
   53.5820  153.2770   26.7960 C   0  0  0  0  0  0  0  0  0  0  0  0
   52.8960  154.4290   27.5090 C   0  0  0  0  0  0  0  0  0  0  0  0
   52.1810  154.1490   28.6850 C   0  0  0  0  0  0  0  0  0  0  0  0
   51.5180  155.1620   29.3810 C   0  0  0  0  0  0  0  0  0  0  0  0
   51.5560  156.4850   28.9280 C   0  0  0  0  0  0  0  0  0  0  0  0
   50.8330  157.5390   29.6720 C   0  0  0  0  0  0  0  0  0  0  0  0
   51.6450  158.6140   30.0130 O   0  0  0  0  0  0  0  0  0  0  0  0
   51.0970  159.6640   30.7040 C   0  0  0  0  0  0  0  0  0  0  0  0
   51.9500  160.7160   31.0400 C   0  0  0  0  0  0  0  0  0  0  0  0
   51.4570  161.8170   31.7420 C   0  0  0  0  0  0  0  0  0  0  0  0
   50.1110  161.8660   32.1100 C   0  0  0  0  0  0  0  0  0  0  0  0
   49.2610  160.8150   31.7740 C   0  0  0  0  0  0  0  0  0  0  0  0
   47.9540  160.9280   32.1640 O   0  0  0  0  0  0  0  0  0  0  0  0
   49.7550  159.7130   31.0720 C   0  0  0  0  0  0  0  0  0  0  0  0
   48.8960  158.5880   30.6990 C   0  0  0  0  0  0  0  0  0  0  0  0
   47.7010  158.5610   30.9800 O   0  0  0  0  0  0  0  0  0  0  0  0
   49.5210  157.4660   29.9610 C   0  0  0  0  0  0  0  0  0  0  0  0
   48.7000  156.4130   29.6010 O   0  0  0  0  0  0  0  0  0  0  0  0
   52.2580  156.7630   27.7470 C   0  0  0  0  0  0  0  0  0  0  0  0
   52.9330  155.7540   27.0250 C   0  0  0  0  0  0  0  0  0  0  0  0
   53.6870  156.1370   25.7700 C   0  0  0  0  0  0  0  0  0  0  0  0
   54.7170  155.2940   25.4700 F   0  0  0  0  0  0  0  0  0  0  0  0
   52.8930  156.1540   24.6640 F   0  0  0  0  0  0  0  0  0  0  0  0
   54.2490  157.3770   25.8470 F   0  0  0  0  0  0  0  0  0  0  0  0
   54.8623  151.7524   26.2078 H   0  0  0  0  0  0  0  0  0  0  0  0
   55.1206  150.6872   24.7847 H   0  0  0  0  0  0  0  0  0  0  0  0
   55.7744  152.3603   24.7847 H   0  0  0  0  0  0  0  0  0  0  0  0
   53.1830  151.4080   24.1440 H   0  0  0  0  0  0  0  0  0  0  0  0
   54.3138  154.1166   23.8765 H   0  0  0  0  0  0  0  0  0  0  0  0
   54.8128  152.7517   22.8208 H   0  0  0  0  0  0  0  0  0  0  0  0
   53.1053  153.3094   22.8208 H   0  0  0  0  0  0  0  0  0  0  0  0
   52.3768  153.7553   25.0713 H   0  0  0  0  0  0  0  0  0  0  0  0
   52.0639  152.1223   25.8222 H   0  0  0  0  0  0  0  0  0  0  0  0
   53.6334  152.4161   27.4788 H   0  0  0  0  0  0  0  0  0  0  0  0
   54.5882  153.6093   26.5007 H   0  0  0  0  0  0  0  0  0  0  0  0
   52.1427  153.1168   29.0633 H   0  0  0  0  0  0  0  0  0  0  0  0
   50.9593  154.9167   30.2962 H   0  0  0  0  0  0  0  0  0  0  0  0
   53.0108  160.6776   30.7516 H   0  0  0  0  0  0  0  0  0  0  0  0
   52.1294  162.6467   32.0055 H   0  0  0  0  0  0  0  0  0  0  0  0
   49.7226  162.7331   32.6643 H   0  0  0  0  0  0  0  0  0  0  0  0
   47.3690  161.4820   31.6860 H   0  0  0  0  0  0  0  0  0  0  0  0
   48.9180  155.8800   28.8610 H   0  0  0  0  0  0  0  0  0  0  0  0
   52.2840  157.7967   27.3717 H   0  0  0  0  0  0  0  0  0  0  0  0
  1  2  1  0
  2  3  1  0
  2  4  1  0
  4  5  1  0
  5  6  1  0
  6  7  2  0
  7  8  1  0
  8  9  2  0
  9 10  1  0
 10 11  1  0
 11 12  1  0
 12 13  2  0
 13 14  1  0
 14 15  2  0
 15 16  1  0
 16 17  1  0
 16 18  2  0
 18 19  1  0
 19 20  2  0
 19 21  1  0
 21 22  1  0
  9 23  1  0
 23 24  2  0
 24 25  1  0
 25 26  1  0
 25 27  1  0
 25 28  1  0
 24  6  1  0
 21 10  2  0
 18 12  1  0
  1 29  1  0
  1 30  1  0
  1 31  1  0
  2 32  1  0
  3 33  1  0
  3 34  1  0
  3 35  1  0
  4 36  1  0
  4 37  1  0
  5 38  1  0
  5 39  1  0
  7 40  1  0
  8 41  1  0
 13 42  1  0
 14 43  1  0
 15 44  1  0
 17 45  1  0
 22 46  1  0
 23 47  1  0
M  CHG  1   2   1
M  END
>  <meeko>  (5) 
{"is_sidechain": [false], "free_energy": -9.162, "intermolecular_energy": -12.906, "internal_energy": -0.05}

$$$$
cand_024_out
     RDKit          3D

 47 49  0  0  0  0  0  0  0  0999 V2000
   54.0880  152.0510   24.0550 C   0  0  0  0  0  0  0  0  0  0  0  0
   53.8540  153.4700   23.7750 N   0  0  0  0  0  0  0  0  0  0  0  0
   55.1410  154.1660   23.6770 C   0  0  0  0  0  0  0  0  0  0  0  0
   53.0200  154.1020   24.8160 C   0  0  0  0  0  0  0  0  0  0  0  0
   53.7940  154.4020   26.1130 C   0  0  0  0  0  0  0  0  0  0  0  0
   52.9870  155.2660   27.0660 C   0  0  0  0  0  0  0  0  0  0  0  0
   53.1230  156.6610   26.9730 C   0  0  0  0  0  0  0  0  0  0  0  0
   52.4170  157.5100   27.8280 C   0  0  0  0  0  0  0  0  0  0  0  0
   51.5510  156.9930   28.7960 C   0  0  0  0  0  0  0  0  0  0  0  0
   50.8260  157.9090   29.7020 C   0  0  0  0  0  0  0  0  0  0  0  0
   51.5890  159.0050   30.0880 O   0  0  0  0  0  0  0  0  0  0  0  0
   51.0340  159.9360   30.9280 C   0  0  0  0  0  0  0  0  0  0  0  0
   51.8400  161.0120   31.3010 C   0  0  0  0  0  0  0  0  0  0  0  0
   51.3360  161.9970   32.1540 C   0  0  0  0  0  0  0  0  0  0  0  0
   50.0280  161.9050   32.6320 C   0  0  0  0  0  0  0  0  0  0  0  0
   49.2250  160.8310   32.2580 C   0  0  0  0  0  0  0  0  0  0  0  0
   47.9540  160.8030   32.7620 O   0  0  0  0  0  0  0  0  0  0  0  0
   49.7300  159.8450   31.4060 C   0  0  0  0  0  0  0  0  0  0  0  0
   48.9200  158.6990   30.9880 C   0  0  0  0  0  0  0  0  0  0  0  0
   47.7590  158.5520   31.3600 O   0  0  0  0  0  0  0  0  0  0  0  0
   49.5530  157.7070   30.0880 C   0  0  0  0  0  0  0  0  0  0  0  0
   48.7770  156.6350   29.6870 O   0  0  0  0  0  0  0  0  0  0  0  0
   51.4250  155.6000   28.8990 C   0  0  0  0  0  0  0  0  0  0  0  0
   52.1310  154.7220   28.0480 C   0  0  0  0  0  0  0  0  0  0  0  0
   51.9250  153.2310   28.2070 C   0  0  0  0  0  0  0  0  0  0  0  0
   51.1050  152.6860   27.2620 F   0  0  0  0  0  0  0  0  0  0  0  0
   53.0900  152.5290   28.1310 F   0  0  0  0  0  0  0  0  0  0  0  0
   51.3650  152.8980   29.4040 F   0  0  0  0  0  0  0  0  0  0  0  0
   54.1143  151.8914   25.1430 H   0  0  0  0  0  0  0  0  0  0  0  0
   53.2765  151.4520   23.6161 H   0  0  0  0  0  0  0  0  0  0  0  0
   55.0489  151.7442   23.6161 H   0  0  0  0  0  0  0  0  0  0  0  0
   53.3500  153.5410   22.8910 H   0  0  0  0  0  0  0  0  0  0  0  0
   55.5238  154.3730   24.6873 H   0  0  0  0  0  0  0  0  0  0  0  0
   55.8596  153.5335   23.1351 H   0  0  0  0  0  0  0  0  0  0  0  0
   55.0051  155.1136   23.1351 H   0  0  0  0  0  0  0  0  0  0  0  0
   52.6225  155.0478   24.4192 H   0  0  0  0  0  0  0  0  0  0  0  0
   52.2192  153.3918   25.0696 H   0  0  0  0  0  0  0  0  0  0  0  0
   54.0347  153.4515   26.6116 H   0  0  0  0  0  0  0  0  0  0  0  0
   54.7085  154.9516   25.8453 H   0  0  0  0  0  0  0  0  0  0  0  0
   53.7953  157.0908   26.2158 H   0  0  0  0  0  0  0  0  0  0  0  0
   52.5439  158.5990   27.7387 H   0  0  0  0  0  0  0  0  0  0  0  0
   52.8708  161.0847   30.9240 H   0  0  0  0  0  0  0  0  0  0  0  0
   51.9706  162.8457   32.4491 H   0  0  0  0  0  0  0  0  0  0  0  0
   49.6318  162.6806   33.3039 H   0  0  0  0  0  0  0  0  0  0  0  0
   47.7530  160.2550   33.4960 H   0  0  0  0  0  0  0  0  0  0  0  0
   48.4940  156.0000   30.3160 H   0  0  0  0  0  0  0  0  0  0  0  0
   50.7568  155.1793   29.6649 H   0  0  0  0  0  0  0  0  0  0  0  0
  1  2  1  0
  2  3  1  0
  2  4  1  0
  4  5  1  0
  5  6  1  0
  6  7  2  0
  7  8  1  0
  8  9  2  0
  9 10  1  0
 10 11  1  0
 11 12  1  0
 12 13  2  0
 13 14  1  0
 14 15  2  0
 15 16  1  0
 16 17  1  0
 16 18  2  0
 18 19  1  0
 19 20  2  0
 19 21  1  0
 21 22  1  0
  9 23  1  0
 23 24  2  0
 24 25  1  0
 25 26  1  0
 25 27  1  0
 25 28  1  0
 24  6  1  0
 21 10  2  0
 18 12  1  0
  1 29  1  0
  1 30  1  0
  1 31  1  0
  2 32  1  0
  3 33  1  0
  3 34  1  0
  3 35  1  0
  4 36  1  0
  4 37  1  0
  5 38  1  0
  5 39  1  0
  7 40  1  0
  8 41  1  0
 13 42  1  0
 14 43  1  0
 15 44  1  0
 17 45  1  0
 22 46  1  0
 23 47  1  0
M  CHG  1   2   1
M  END
>  <meeko>  (6) 
{"is_sidechain": [false], "free_energy": -8.209, "intermolecular_energy": -11.399, "internal_energy": -0.27}

$$$$
