cand_007_out
     RDKit          3D

 35 37  0  0  0  0  0  0  0  0999 V2000
   52.2010  152.9220   28.7700 O   0  0  0  0  0  0  0  0  0  0  0  0
   52.2960  154.0870   28.3900 C   0  0  0  0  0  0  0  0  0  0  0  0
   51.8030  155.1960   29.2390 C   0  0  0  0  0  0  0  0  0  0  0  0
   51.2290  154.8540   30.4510 O   0  0  0  0  0  0  0  0  0  0  0  0
   51.9230  156.4570   28.7840 C   0  0  0  0  0  0  0  0  0  0  0  0
   51.4560  157.6390   29.5390 C   0  0  0  0  0  0  0  0  0  0  0  0
   52.2550  158.7750   29.6980 C   0  0  0  0  0  0  0  0  0  0  0  0
   51.7840  159.8880   30.3980 C   0  0  0  0  0  0  0  0  0  0  0  0
   50.4940  159.8990   30.9550 C   0  0  0  0  0  0  0  0  0  0  0  0
   50.0130  161.1200   31.7070 C   0  0  0  0  0  0  0  0  0  0  0  0
   49.5300  160.8080   32.9420 F   0  0  0  0  0  0  0  0  0  0  0  0
   51.0070  162.0270   31.9160 F   0  0  0  0  0  0  0  0  0  0  0  0
   49.0150  161.8000   31.0770 F   0  0  0  0  0  0  0  0  0  0  0  0
   49.6680  158.7650   30.7900 C   0  0  0  0  0  0  0  0  0  0  0  0
   48.2720  158.7130   31.3660 C   0  0  0  0  0  0  0  0  0  0  0  0
   47.3500  159.3730   30.6070 F   0  0  0  0  0  0  0  0  0  0  0  0
   50.1630  157.6510   30.0840 C   0  0  0  0  0  0  0  0  0  0  0  0
   52.4780  156.7860   27.5520 O   0  0  0  0  0  0  0  0  0  0  0  0
   52.9480  155.7810   26.7470 C   0  0  0  0  0  0  0  0  0  0  0  0
   53.5030  156.1580   25.5230 C   0  0  0  0  0  0  0  0  0  0  0  0
   54.0010  155.1840   24.6550 C   0  0  0  0  0  0  0  0  0  0  0  0
   53.9410  153.8350   25.0080 C   0  0  0  0  0  0  0  0  0  0  0  0
   53.3860  153.4610   26.2290 C   0  0  0  0  0  0  0  0  0  0  0  0
   53.3590  152.1230   26.5120 O   0  0  0  0  0  0  0  0  0  0  0  0
   52.8890  154.4360   27.0980 C   0  0  0  0  0  0  0  0  0  0  0  0
   50.6570  155.4560   30.8850 H   0  0  0  0  0  0  0  0  0  0  0  0
   53.2667  158.7925   29.2667 H   0  0  0  0  0  0  0  0  0  0  0  0
   52.4324  160.7689   30.5150 H   0  0  0  0  0  0  0  0  0  0  0  0
   47.9671  157.6593   31.4478 H   0  0  0  0  0  0  0  0  0  0  0  0
   48.3050  159.2122   32.3457 H   0  0  0  0  0  0  0  0  0  0  0  0
   49.5195  156.7680   29.9567 H   0  0  0  0  0  0  0  0  0  0  0  0
   53.5480  157.2207   25.2426 H   0  0  0  0  0  0  0  0  0  0  0  0
   54.4413  155.4804   23.6915 H   0  0  0  0  0  0  0  0  0  0  0  0
   54.3316  153.0684   24.3226 H   0  0  0  0  0  0  0  0  0  0  0  0
   54.0480  151.7360   27.0130 H   0  0  0  0  0  0  0  0  0  0  0  0
  1  2  2  0
  2  3  1  0
  3  4  1  0
  3  5  2  0
  5  6  1  0
  6  7  2  0
  7  8  1  0
  8  9  2  0
  9 10  1  0
 10 11  1  0
 10 12  1  0
 10 13  1  0
  9 14  1  0
 14 15  1  0
 15 16  1  0
 14 17  2  0
  5 18  1  0
 18 19  1  0
 19 20  2  0
 20 21  1  0
 21 22  2  0
 22 23  1  0
 23 24  1  0
 23 25  2  0
 25  2  1  0
 17  6  1  0
 25 19  1  0
  4 26  1  0
  7 27  1  0
  8 28  1  0
 15 29  1  0
 15 30  1  0
 17 31  1  0
 20 32  1  0
 21 33  1  0
 22 34  1  0
 24 35  1  0
M  END
>  <meeko>  (1) 
{"is_sidechain": [false], "free_energy": -11.794, "intermolecular_energy": -14.552, "internal_energy": -0.207}

$$$$
cand_007_out
     RDKit          3D

 35 37  0  0  0  0  0  0  0  0999 V2000
   52.6360  153.0210   28.8690 O   0  0  0  0  0  0  0  0  0  0  0  0
   52.5070  154.1820   28.4830 C   0  0  0  0  0  0  0  0  0  0  0  0
   51.7450  155.1610   29.2920 C   0  0  0  0  0  0  0  0  0  0  0  0
   51.1840  154.7030   30.4710 O   0  0  0  0  0  0  0  0  0  0  0  0
   51.6260  156.4210   28.8330 C   0  0  0  0  0  0  0  0  0  0  0  0
   50.8790  157.4760   29.5480 C   0  0  0  0  0  0  0  0  0  0  0  0
   49.5700  157.2760   30.0000 C   0  0  0  0  0  0  0  0  0  0  0  0
   48.8910  158.2810   30.6910 C   0  0  0  0  0  0  0  0  0  0  0  0
   49.5040  159.5170   30.9560 C   0  0  0  0  0  0  0  0  0  0  0  0
   48.7410  160.5860   31.7080 C   0  0  0  0  0  0  0  0  0  0  0  0
   47.4290  160.2590   31.8780 F   0  0  0  0  0  0  0  0  0  0  0  0
   49.2350  160.7960   32.9590 F   0  0  0  0  0  0  0  0  0  0  0  0
   48.7460  161.8020   31.0960 F   0  0  0  0  0  0  0  0  0  0  0  0
   50.8300  159.7300   30.5200 C   0  0  0  0  0  0  0  0  0  0  0  0
   51.5440  161.0380   30.7720 C   0  0  0  0  0  0  0  0  0  0  0  0
   51.8950  161.2190   32.0770 F   0  0  0  0  0  0  0  0  0  0  0  0
   51.4980  158.7060   29.8210 C   0  0  0  0  0  0  0  0  0  0  0  0
   52.1720  156.8620   27.6330 O   0  0  0  0  0  0  0  0  0  0  0  0
   52.8880  155.9790   26.8660 C   0  0  0  0  0  0  0  0  0  0  0  0
   53.4250  156.4680   25.6730 C   0  0  0  0  0  0  0  0  0  0  0  0
   54.1650  155.6220   24.8450 C   0  0  0  0  0  0  0  0  0  0  0  0
   54.3670  154.2890   25.2070 C   0  0  0  0  0  0  0  0  0  0  0  0
   53.8300  153.8040   26.3970 C   0  0  0  0  0  0  0  0  0  0  0  0
   54.0670  152.4890   26.6890 O   0  0  0  0  0  0  0  0  0  0  0  0
   53.0900  154.6510   27.2260 C   0  0  0  0  0  0  0  0  0  0  0  0
   50.2540  154.7210   30.5850 H   0  0  0  0  0  0  0  0  0  0  0  0
   49.0699  156.3151   29.8085 H   0  0  0  0  0  0  0  0  0  0  0  0
   47.8609  158.1026   31.0330 H   0  0  0  0  0  0  0  0  0  0  0  0
   52.4568  161.0611   30.1587 H   0  0  0  0  0  0  0  0  0  0  0  0
   50.8459  161.8460   30.5077 H   0  0  0  0  0  0  0  0  0  0  0  0
   52.5304  158.8742   29.4805 H   0  0  0  0  0  0  0  0  0  0  0  0
   53.2651  157.5179   25.3863 H   0  0  0  0  0  0  0  0  0  0  0  0
   54.5896  156.0064   23.9059 H   0  0  0  0  0  0  0  0  0  0  0  0
   54.9493  153.6228   24.5535 H   0  0  0  0  0  0  0  0  0  0  0  0
   53.8280  152.1450   27.5270 H   0  0  0  0  0  0  0  0  0  0  0  0
  1  2  2  0
  2  3  1  0
  3  4  1  0
  3  5  2  0
  5  6  1  0
  6  7  2  0
  7  8  1  0
  8  9  2  0
  9 10  1  0
 10 11  1  0
 10 12  1  0
 10 13  1  0
  9 14  1  0
 14 15  1  0
 15 16  1  0
 14 17  2  0
  5 18  1  0
 18 19  1  0
 19 20  2  0
 20 21  1  0
 21 22  2  0
 22 23  1  0
 23 24  1  0
 23 25  2  0
 25  2  1  0
 17  6  1  0
 25 19  1  0
  4 26  1  0
  7 27  1  0
  8 28  1  0
 15 29  1  0
 15 30  1  0
 17 31  1  0
 20 32  1  0
 21 33  1  0
 22 34  1  0
 24 35  1  0
M  END
>  <meeko>  (2) 
{"is_sidechain": [false], "free_energy": -11.402, "intermolecular_energy": -14.046, "internal_energy": -0.23}

$$$$
cand_007_out
     RDKit          3D

 35 37  0  0  0  0  0  0  0  0999 V2000
   52.1740  161.2660   31.1980 O   0  0  0  0  0  0  0  0  0  0  0  0
   51.4220  160.3290   30.9380 C   0  0  0  0  0  0  0  0  0  0  0  0
   51.9020  159.1850   30.1290 C   0  0  0  0  0  0  0  0  0  0  0  0
   53.2090  159.2360   29.6790 O   0  0  0  0  0  0  0  0  0  0  0  0
   51.0460  158.1800   29.8650 C   0  0  0  0  0  0  0  0  0  0  0  0
   51.4100  156.9960   29.0590 C   0  0  0  0  0  0  0  0  0  0  0  0
   50.8590  155.7350   29.3100 C   0  0  0  0  0  0  0  0  0  0  0  0
   51.2030  154.6350   28.5210 C   0  0  0  0  0  0  0  0  0  0  0  0
   52.1050  154.7660   27.4520 C   0  0  0  0  0  0  0  0  0  0  0  0
   52.4570  153.5550   26.6160 C   0  0  0  0  0  0  0  0  0  0  0  0
   51.6270  152.5020   26.8600 F   0  0  0  0  0  0  0  0  0  0  0  0
   52.3620  153.7990   25.2800 F   0  0  0  0  0  0  0  0  0  0  0  0
   53.7200  153.0900   26.8200 F   0  0  0  0  0  0  0  0  0  0  0  0
   52.6580  156.0350   27.1750 C   0  0  0  0  0  0  0  0  0  0  0  0
   53.6350  156.2420   26.0410 C   0  0  0  0  0  0  0  0  0  0  0  0
   53.0340  156.5970   24.8690 F   0  0  0  0  0  0  0  0  0  0  0  0
   52.3020  157.1320   27.9840 C   0  0  0  0  0  0  0  0  0  0  0  0
   49.7260  158.1530   30.3010 O   0  0  0  0  0  0  0  0  0  0  0  0
   49.2560  159.1960   31.0570 C   0  0  0  0  0  0  0  0  0  0  0  0
   47.9270  159.1220   31.4790 C   0  0  0  0  0  0  0  0  0  0  0  0
   47.3850  160.1510   32.2520 C   0  0  0  0  0  0  0  0  0  0  0  0
   48.1680  161.2520   32.6000 C   0  0  0  0  0  0  0  0  0  0  0  0
   49.4930  161.3230   32.1780 C   0  0  0  0  0  0  0  0  0  0  0  0
   50.2030  162.4300   32.5550 O   0  0  0  0  0  0  0  0  0  0  0  0
   50.0360  160.2930   31.4050 C   0  0  0  0  0  0  0  0  0  0  0  0
   53.9130  159.0140   30.2570 H   0  0  0  0  0  0  0  0  0  0  0  0
   50.1465  155.6082   30.1384 H   0  0  0  0  0  0  0  0  0  0  0  0
   50.7612  153.6517   28.7399 H   0  0  0  0  0  0  0  0  0  0  0  0
   54.3388  157.0374   26.3274 H   0  0  0  0  0  0  0  0  0  0  0  0
   54.1427  155.2814   25.8689 H   0  0  0  0  0  0  0  0  0  0  0  0
   52.7341  158.1202   27.7677 H   0  0  0  0  0  0  0  0  0  0  0  0
   47.3085  158.2552   31.2032 H   0  0  0  0  0  0  0  0  0  0  0  0
   46.3389  160.0934   32.5871 H   0  0  0  0  0  0  0  0  0  0  0  0
   47.7391  162.0630   33.2070 H   0  0  0  0  0  0  0  0  0  0  0  0
   50.9450  162.7040   32.0530 H   0  0  0  0  0  0  0  0  0  0  0  0
  1  2  2  0
  2  3  1  0
  3  4  1  0
  3  5  2  0
  5  6  1  0
  6  7  2  0
  7  8  1  0
  8  9  2  0
  9 10  1  0
 10 11  1  0
 10 12  1  0
 10 13  1  0
  9 14  1  0
 14 15  1  0
 15 16  1  0
 14 17  2  0
  5 18  1  0
 18 19  1  0
 19 20  2  0
 20 21  1  0
 21 22  2  0
 22 23  1  0
 23 24  1  0
 23 25  2  0
 25  2  1  0
 17  6  1  0
 25 19  1  0
  4 26  1  0
  7 27  1  0
  8 28  1  0
 15 29  1  0
 15 30  1  0
 17 31  1  0
 20 32  1  0
 21 33  1  0
 22 34  1  0
 24 35  1  0
M  END
>  <meeko>  (3) 
{"is_sidechain": [false], "free_energy": -11.271, "intermolecular_energy": -14.155, "internal_energy": 0.041}

$$$$
cand_007_out
     RDKit          3D

 35 37  0  0  0  0  0  0  0  0999 V2000
   52.1950  161.2880   31.2880 O   0  0  0  0  0  0  0  0  0  0  0  0
   51.5290  160.3200   30.9240 C   0  0  0  0  0  0  0  0  0  0  0  0
   52.1310  159.2800   30.0580 C   0  0  0  0  0  0  0  0  0  0  0  0
   53.4480  159.4610   29.6780 O   0  0  0  0  0  0  0  0  0  0  0  0
   51.3670  158.2380   29.6790 C   0  0  0  0  0  0  0  0  0  0  0  0
   51.8560  157.1500   28.8070 C   0  0  0  0  0  0  0  0  0  0  0  0
   52.5260  157.4110   27.6070 C   0  0  0  0  0  0  0  0  0  0  0  0
   52.9970  156.3660   26.8090 C   0  0  0  0  0  0  0  0  0  0  0  0
   52.8170  155.0270   27.1920 C   0  0  0  0  0  0  0  0  0  0  0  0
   53.3400  153.9180   26.3060 C   0  0  0  0  0  0  0  0  0  0  0  0
   54.2750  154.3630   25.4210 F   0  0  0  0  0  0  0  0  0  0  0  0
   53.9440  152.9250   27.0160 F   0  0  0  0  0  0  0  0  0  0  0  0
   52.3780  153.3080   25.5580 F   0  0  0  0  0  0  0  0  0  0  0  0
   52.1570  154.7460   28.4090 C   0  0  0  0  0  0  0  0  0  0  0  0
   51.9310  153.3270   28.8760 C   0  0  0  0  0  0  0  0  0  0  0  0
   51.1930  152.5820   28.0040 F   0  0  0  0  0  0  0  0  0  0  0  0
   51.6860  155.8130   29.1980 C   0  0  0  0  0  0  0  0  0  0  0  0
   50.0350  158.0810   30.0460 O   0  0  0  0  0  0  0  0  0  0  0  0
   49.4530  159.0250   30.8520 C   0  0  0  0  0  0  0  0  0  0  0  0
   48.1170  158.8220   31.2010 C   0  0  0  0  0  0  0  0  0  0  0  0
   47.4640  159.7460   32.0200 C   0  0  0  0  0  0  0  0  0  0  0  0
   48.1440  160.8720   32.4860 C   0  0  0  0  0  0  0  0  0  0  0  0
   49.4770  161.0720   32.1360 C   0  0  0  0  0  0  0  0  0  0  0  0
   50.0820  162.1960   32.6280 O   0  0  0  0  0  0  0  0  0  0  0  0
   50.1310  160.1470   31.3180 C   0  0  0  0  0  0  0  0  0  0  0  0
   54.0860  159.7310   30.3100 H   0  0  0  0  0  0  0  0  0  0  0  0
   52.6838  158.4519   27.2881 H   0  0  0  0  0  0  0  0  0  0  0  0
   53.5165  156.5951   25.8669 H   0  0  0  0  0  0  0  0  0  0  0  0
   52.9099  152.8427   29.0070 H   0  0  0  0  0  0  0  0  0  0  0  0
   51.3651  153.3807   29.8177 H   0  0  0  0  0  0  0  0  0  0  0  0
   51.1716  155.5929   30.1451 H   0  0  0  0  0  0  0  0  0  0  0  0
   47.5794  157.9362   30.8318 H   0  0  0  0  0  0  0  0  0  0  0  0
   46.4119  159.5858   32.2982 H   0  0  0  0  0  0  0  0  0  0  0  0
   47.6279  161.6004   33.1287 H   0  0  0  0  0  0  0  0  0  0  0  0
   51.0130  162.2240   32.7190 H   0  0  0  0  0  0  0  0  0  0  0  0
  1  2  2  0
  2  3  1  0
  3  4  1  0
  3  5  2  0
  5  6  1  0
  6  7  2  0
  7  8  1  0
  8  9  2  0
  9 10  1  0
 10 11  1  0
 10 12  1  0
 10 13  1  0
  9 14  1  0
 14 15  1  0
 15 16  1  0
 14 17  2  0
  5 18  1  0
 18 19  1  0
 19 20  2  0
 20 21  1  0
 21 22  2  0
 22 23  1  0
 23 24  1  0
 23 25  2  0
 25  2  1  0
 17  6  1  0
 25 19  1  0
  4 26  1  0
  7 27  1  0
  8 28  1  0
 15 29  1  0
 15 30  1  0
 17 31  1  0
 20 32  1  0
 21 33  1  0
 22 34  1  0
 24 35  1  0
M  END
>  <meeko>  (4) 
{"is_sidechain": [false], "free_energy": -10.101, "intermolecular_energy": -12.65, "internal_energy": -0.02}

$$$$
