cand_022_out
     RDKit          3D

 41 43  0  0  0  0  0  0  0  0999 V2000
   46.6630  160.0480   31.5570 C   0  0  0  0  0  0  0  0  0  0  0  0
   47.5910  159.2840   30.6260 C   0  0  0  0  0  0  0  0  0  0  0  0
   48.6690  158.5320   31.4080 C   0  0  0  0  0  0  0  0  0  0  0  0
   50.0000  158.5510   30.6860 C   0  0  0  0  0  0  0  0  0  0  0  0
   50.3990  157.3900   29.9930 C   0  0  0  0  0  0  0  0  0  0  0  0
   51.6260  157.3190   29.3180 C   0  0  0  0  0  0  0  0  0  0  0  0
   52.0340  156.1130   28.5690 C   0  0  0  0  0  0  0  0  0  0  0  0
   52.5520  156.4060   27.3130 O   0  0  0  0  0  0  0  0  0  0  0  0
   52.9710  155.3750   26.5110 C   0  0  0  0  0  0  0  0  0  0  0  0
   53.4710  155.7140   25.2520 C   0  0  0  0  0  0  0  0  0  0  0  0
   53.9150  154.7130   24.3870 C   0  0  0  0  0  0  0  0  0  0  0  0
   53.8610  153.3730   24.7780 C   0  0  0  0  0  0  0  0  0  0  0  0
   53.3630  153.0380   26.0340 C   0  0  0  0  0  0  0  0  0  0  0  0
   53.3390  151.7090   26.3550 O   0  0  0  0  0  0  0  0  0  0  0  0
   52.9170  154.0410   26.9000 C   0  0  0  0  0  0  0  0  0  0  0  0
   52.3860  153.7310   28.2290 C   0  0  0  0  0  0  0  0  0  0  0  0
   52.3130  152.5770   28.6480 O   0  0  0  0  0  0  0  0  0  0  0  0
   51.9330  154.8650   29.0660 C   0  0  0  0  0  0  0  0  0  0  0  0
   51.4450  154.5620   30.3240 O   0  0  0  0  0  0  0  0  0  0  0  0
   52.4540  158.4460   29.3300 C   0  0  0  0  0  0  0  0  0  0  0  0
   52.0760  159.6030   30.0160 C   0  0  0  0  0  0  0  0  0  0  0  0
   50.8570  159.6680   30.7060 C   0  0  0  0  0  0  0  0  0  0  0  0
   50.4940  160.9390   31.4250 C   0  0  0  0  0  0  0  0  0  0  0  0
   46.9295  159.8286   32.6014 H   0  0  0  0  0  0  0  0  0  0  0  0
   46.7649  161.1275   31.3716 H   0  0  0  0  0  0  0  0  0  0  0  0
   45.6232  159.7407   31.3716 H   0  0  0  0  0  0  0  0  0  0  0  0
   46.9997  158.5607   30.0453 H   0  0  0  0  0  0  0  0  0  0  0  0
   48.0860  160.0065   29.9604 H   0  0  0  0  0  0  0  0  0  0  0  0
   48.7909  159.0060   32.3931 H   0  0  0  0  0  0  0  0  0  0  0  0
   48.3498  157.4844   31.5117 H   0  0  0  0  0  0  0  0  0  0  0  0
   49.7302  156.5168   29.9815 H   0  0  0  0  0  0  0  0  0  0  0  0
   53.5148  156.7687   24.9425 H   0  0  0  0  0  0  0  0  0  0  0  0
   54.3084  154.9797   23.3950 H   0  0  0  0  0  0  0  0  0  0  0  0
   54.2110  152.5847   24.0953 H   0  0  0  0  0  0  0  0  0  0  0  0
   53.9790  151.3570   26.9430 H   0  0  0  0  0  0  0  0  0  0  0  0
   52.0170  154.2060   30.9750 H   0  0  0  0  0  0  0  0  0  0  0  0
   53.4138  158.4213   28.7932 H   0  0  0  0  0  0  0  0  0  0  0  0
   52.7449  160.4763   30.0148 H   0  0  0  0  0  0  0  0  0  0  0  0
   50.5416  160.7722   32.5112 H   0  0  0  0  0  0  0  0  0  0  0  0
   51.2011  161.7336   31.1447 H   0  0  0  0  0  0  0  0  0  0  0  0
   49.4739  161.2403   31.1447 H   0  0  0  0  0  0  0  0  0  0  0  0
  1  2  1  0
  2  3  1  0
  3  4  1  0
  4  5  2  0
  5  6  1  0
  6  7  1  0
  7  8  1  0
  8  9  1  0
  9 10  2  0
 10 11  1  0
 11 12  2  0
 12 13  1  0
 13 14  1  0
 13 15  2  0
 15 16  1  0
 16 17  2  0
 16 18  1  0
 18 19  1  0
  6 20  2  0
 20 21  1  0
 21 22  2  0
 22 23  1  0
 22  4  1  0
 18  7  2  0
 15  9  1  0
  1 24  1  0
  1 25  1  0
  1 26  1  0
  2 27  1  0
  2 28  1  0
  3 29  1  0
  3 30  1  0
  5 31  1  0
 10 32  1  0
 11 33  1  0
 12 34  1  0
 14 35  1  0
 19 36  1  0
 20 37  1  0
 21 38  1  0
 23 39  1  0
 23 40  1  0
 23 41  1  0
M  END
>  <meeko>  (1) 
{"is_sidechain": [false], "free_energy": -10.832, "intermolecular_energy": -13.365, "internal_energy": -0.237}

$$$$
cand_022_out
     RDKit          3D

 41 43  0  0  0  0  0  0  0  0999 V2000
   54.9190  156.6160   24.4520 C   0  0  0  0  0  0  0  0  0  0  0  0
   53.5960  156.5430   25.1980 C   0  0  0  0  0  0  0  0  0  0  0  0
   53.2590  155.1050   25.5950 C   0  0  0  0  0  0  0  0  0  0  0  0
   52.6390  155.0360   26.9740 C   0  0  0  0  0  0  0  0  0  0  0  0
   52.2710  156.2430   27.6010 C   0  0  0  0  0  0  0  0  0  0  0  0
   51.7110  156.2680   28.8860 C   0  0  0  0  0  0  0  0  0  0  0  0
   51.3000  157.5300   29.5330 C   0  0  0  0  0  0  0  0  0  0  0  0
   49.9760  157.5140   29.9570 O   0  0  0  0  0  0  0  0  0  0  0  0
   49.4640  158.6260   30.5760 C   0  0  0  0  0  0  0  0  0  0  0  0
   48.1260  158.5720   30.9710 C   0  0  0  0  0  0  0  0  0  0  0  0
   47.5430  159.6690   31.6080 C   0  0  0  0  0  0  0  0  0  0  0  0
   48.2960  160.8200   31.8510 C   0  0  0  0  0  0  0  0  0  0  0  0
   49.6310  160.8710   31.4560 C   0  0  0  0  0  0  0  0  0  0  0  0
   50.3110  162.0270   31.7240 O   0  0  0  0  0  0  0  0  0  0  0  0
   50.2140  159.7720   30.8170 C   0  0  0  0  0  0  0  0  0  0  0  0
   51.6130  159.7860   30.3850 C   0  0  0  0  0  0  0  0  0  0  0  0
   52.3410  160.7590   30.5700 O   0  0  0  0  0  0  0  0  0  0  0  0
   52.1320  158.5740   29.7110 C   0  0  0  0  0  0  0  0  0  0  0  0
   53.4580  158.5920   29.3200 O   0  0  0  0  0  0  0  0  0  0  0  0
   51.5050  155.0490   29.5410 C   0  0  0  0  0  0  0  0  0  0  0  0
   51.8690  153.8420   28.9370 C   0  0  0  0  0  0  0  0  0  0  0  0
   52.4460  153.8200   27.6580 C   0  0  0  0  0  0  0  0  0  0  0  0
   52.8150  152.4950   27.0500 C   0  0  0  0  0  0  0  0  0  0  0  0
   55.7460  156.6616   25.1758 H   0  0  0  0  0  0  0  0  0  0  0  0
   55.0335  155.7228   23.8203 H   0  0  0  0  0  0  0  0  0  0  0  0
   54.9345  157.5164   23.8203 H   0  0  0  0  0  0  0  0  0  0  0  0
   53.6629  157.1591   26.1068 H   0  0  0  0  0  0  0  0  0  0  0  0
   52.8022  156.9141   24.5331 H   0  0  0  0  0  0  0  0  0  0  0  0
   52.5494  154.6902   24.8639 H   0  0  0  0  0  0  0  0  0  0  0  0
   54.1936  154.5252   25.6097 H   0  0  0  0  0  0  0  0  0  0  0  0
   52.4275  157.1921   27.0674 H   0  0  0  0  0  0  0  0  0  0  0  0
   47.5318  157.6661   30.7805 H   0  0  0  0  0  0  0  0  0  0  0  0
   46.4887  159.6268   31.9191 H   0  0  0  0  0  0  0  0  0  0  0  0
   47.8361  161.6840   32.3530 H   0  0  0  0  0  0  0  0  0  0  0  0
   50.8330  162.4280   31.0570 H   0  0  0  0  0  0  0  0  0  0  0  0
   53.6850  158.4200   28.4270 H   0  0  0  0  0  0  0  0  0  0  0  0
   51.0513  155.0402   30.5430 H   0  0  0  0  0  0  0  0  0  0  0  0
   51.7007  152.8957   29.4720 H   0  0  0  0  0  0  0  0  0  0  0  0
   53.0175  151.7680   27.8503 H   0  0  0  0  0  0  0  0  0  0  0  0
   51.9835  152.1329   26.4275 H   0  0  0  0  0  0  0  0  0  0  0  0
   53.7139  152.6148   26.4275 H   0  0  0  0  0  0  0  0  0  0  0  0
  1  2  1  0
  2  3  1  0
  3  4  1  0
  4  5  2  0
  5  6  1  0
  6  7  1  0
  7  8  1  0
  8  9  1  0
  9 10  2  0
 10 11  1  0
 11 12  2  0
 12 13  1  0
 13 14  1  0
 13 15  2  0
 15 16  1  0
 16 17  2  0
 16 18  1  0
 18 19  1  0
  6 20  2  0
 20 21  1  0
 21 22  2  0
 22 23  1  0
 22  4  1  0
 18  7  2  0
 15  9  1  0
  1 24  1  0
  1 25  1  0
  1 26  1  0
  2 27  1  0
  2 28  1  0
  3 29  1  0
  3 30  1  0
  5 31  1  0
 10 32  1  0
 11 33  1  0
 12 34  1  0
 14 35  1  0
 19 36  1  0
 20 37  1  0
 21 38  1  0
 23 39  1  0
 23 40  1  0
 23 41  1  0
M  END
>  <meeko>  (2) 
{"is_sidechain": [false], "free_energy": -10.598, "intermolecular_energy": -12.916, "internal_energy": -0.398}

$$$$
cand_022_out
     RDKit          3D

 41 43  0  0  0  0  0  0  0  0999 V2000
   50.6800  162.0130   32.5140 C   0  0  0  0  0  0  0  0  0  0  0  0
   51.5470  160.9090   31.9320 C   0  0  0  0  0  0  0  0  0  0  0  0
   51.2170  160.6570   30.4600 C   0  0  0  0  0  0  0  0  0  0  0  0
   50.6280  159.2800   30.2450 C   0  0  0  0  0  0  0  0  0  0  0  0
   51.3840  158.3370   29.5190 C   0  0  0  0  0  0  0  0  0  0  0  0
   50.9010  157.0470   29.2580 C   0  0  0  0  0  0  0  0  0  0  0  0
   51.7020  156.0490   28.5200 C   0  0  0  0  0  0  0  0  0  0  0  0
   52.2500  156.5560   27.3470 O   0  0  0  0  0  0  0  0  0  0  0  0
   53.0190  155.7330   26.5640 C   0  0  0  0  0  0  0  0  0  0  0  0
   53.5360  156.2800   25.3880 C   0  0  0  0  0  0  0  0  0  0  0  0
   54.3280  155.4960   24.5470 C   0  0  0  0  0  0  0  0  0  0  0  0
   54.6040  154.1680   24.8800 C   0  0  0  0  0  0  0  0  0  0  0  0
   54.0880  153.6260   26.0530 C   0  0  0  0  0  0  0  0  0  0  0  0
   54.3970  152.3210   26.3200 O   0  0  0  0  0  0  0  0  0  0  0  0
   53.2940  154.4110   26.8960 C   0  0  0  0  0  0  0  0  0  0  0  0
   52.7300  153.8790   28.1380 C   0  0  0  0  0  0  0  0  0  0  0  0
   52.9340  152.7230   28.5020 O   0  0  0  0  0  0  0  0  0  0  0  0
   51.8960  154.7900   28.9550 C   0  0  0  0  0  0  0  0  0  0  0  0
   51.3800  154.2820   30.1330 O   0  0  0  0  0  0  0  0  0  0  0  0
   49.6410  156.6990   29.7550 C   0  0  0  0  0  0  0  0  0  0  0  0
   48.8760  157.6230   30.4730 C   0  0  0  0  0  0  0  0  0  0  0  0
   49.3520  158.9190   30.7180 C   0  0  0  0  0  0  0  0  0  0  0  0
   48.4920  159.8740   31.5010 C   0  0  0  0  0  0  0  0  0  0  0  0
   50.7161  161.9670   33.6124 H   0  0  0  0  0  0  0  0  0  0  0  0
   51.0545  162.9903   32.1754 H   0  0  0  0  0  0  0  0  0  0  0  0
   49.6418  161.8809   32.1754 H   0  0  0  0  0  0  0  0  0  0  0  0
   52.6039  161.2019   32.0167 H   0  0  0  0  0  0  0  0  0  0  0  0
   51.3519  159.9835   32.4936 H   0  0  0  0  0  0  0  0  0  0  0  0
   50.4908  161.4116   30.1235 H   0  0  0  0  0  0  0  0  0  0  0  0
   52.1514  160.7235   29.8834 H   0  0  0  0  0  0  0  0  0  0  0  0
   52.3796  158.6211   29.1474 H   0  0  0  0  0  0  0  0  0  0  0  0
   53.3199  157.3259   25.1248 H   0  0  0  0  0  0  0  0  0  0  0  0
   54.7356  155.9253   23.6199 H   0  0  0  0  0  0  0  0  0  0  0  0
   55.2281  153.5517   24.2162 H   0  0  0  0  0  0  0  0  0  0  0  0
   55.0350  152.1150   26.9740 H   0  0  0  0  0  0  0  0  0  0  0  0
   51.8590  154.3750   30.9330 H   0  0  0  0  0  0  0  0  0  0  0  0
   49.2474  155.6870   29.5790 H   0  0  0  0  0  0  0  0  0  0  0  0
   47.8859  157.3289   30.8514 H   0  0  0  0  0  0  0  0  0  0  0  0
   48.6436  159.7057   32.5774 H   0  0  0  0  0  0  0  0  0  0  0  0
   48.7693  160.9082   31.2490 H   0  0  0  0  0  0  0  0  0  0  0  0
   47.4345  159.7061   31.2490 H   0  0  0  0  0  0  0  0  0  0  0  0
  1  2  1  0
  2  3  1  0
  3  4  1  0
  4  5  2  0
  5  6  1  0
  6  7  1  0
  7  8  1  0
  8  9  1  0
  9 10  2  0
 10 11  1  0
 11 12  2  0
 12 13  1  0
 13 14  1  0
 13 15  2  0
 15 16  1  0
 16 17  2  0
 16 18  1  0
 18 19  1  0
  6 20  2  0
 20 21  1  0
 21 22  2  0
 22 23  1  0
 22  4  1  0
 18  7  2  0
 15  9  1  0
  1 24  1  0
  1 25  1  0
  1 26  1  0
  2 27  1  0
  2 28  1  0
  3 29  1  0
  3 30  1  0
  5 31  1  0
 10 32  1  0
 11 33  1  0
 12 34  1  0
 14 35  1  0
 19 36  1  0
 20 37  1  0
 21 38  1  0
 23 39  1  0
 23 40  1  0
 23 41  1  0
M  END
>  <meeko>  (3) 
{"is_sidechain": [false], "free_energy": -9.21, "intermolecular_energy": -11.829, "internal_energy": 0.228}

$$$$
cand_022_out
     RDKit          3D

 41 43  0  0  0  0  0  0  0  0999 V2000
   55.0000  156.9910   24.1570 C   0  0  0  0  0  0  0  0  0  0  0  0
   53.9910  156.7620   25.2710 C   0  0  0  0  0  0  0  0  0  0  0  0
   53.6030  155.2860   25.3780 C   0  0  0  0  0  0  0  0  0  0  0  0
   52.9120  154.9830   26.6900 C   0  0  0  0  0  0  0  0  0  0  0  0
   52.2980  156.0470   27.3820 C   0  0  0  0  0  0  0  0  0  0  0  0
   51.6550  155.8540   28.6130 C   0  0  0  0  0  0  0  0  0  0  0  0
   50.9880  156.9630   29.3260 C   0  0  0  0  0  0  0  0  0  0  0  0
   51.8450  158.0240   29.5970 O   0  0  0  0  0  0  0  0  0  0  0  0
   51.3530  159.1210   30.2570 C   0  0  0  0  0  0  0  0  0  0  0  0
   52.2510  160.1570   30.5210 C   0  0  0  0  0  0  0  0  0  0  0  0
   51.8150  161.3030   31.1880 C   0  0  0  0  0  0  0  0  0  0  0  0
   50.4820  161.4160   31.5900 C   0  0  0  0  0  0  0  0  0  0  0  0
   49.5880  160.3820   31.3240 C   0  0  0  0  0  0  0  0  0  0  0  0
   48.2980  160.5570   31.7430 O   0  0  0  0  0  0  0  0  0  0  0  0
   50.0250  159.2340   30.6570 C   0  0  0  0  0  0  0  0  0  0  0  0
   49.1180  158.1240   30.3590 C   0  0  0  0  0  0  0  0  0  0  0  0
   47.9300  158.1520   30.6730 O   0  0  0  0  0  0  0  0  0  0  0  0
   49.6830  156.9500   29.6550 C   0  0  0  0  0  0  0  0  0  0  0  0
   48.8140  155.9130   29.3660 O   0  0  0  0  0  0  0  0  0  0  0  0
   51.6180  154.5610   29.1440 C   0  0  0  0  0  0  0  0  0  0  0  0
   52.2260  153.4960   28.4740 C   0  0  0  0  0  0  0  0  0  0  0  0
   52.8840  153.6920   27.2510 C   0  0  0  0  0  0  0  0  0  0  0  0
   53.5180  152.5110   26.5680 C   0  0  0  0  0  0  0  0  0  0  0  0
   55.9844  157.2144   24.5941 H   0  0  0  0  0  0  0  0  0  0  0  0
   55.0716  156.0863   23.5354 H   0  0  0  0  0  0  0  0  0  0  0  0
   54.6740  157.8380   23.5354 H   0  0  0  0  0  0  0  0  0  0  0  0
   54.4317  157.0863   26.2253 H   0  0  0  0  0  0  0  0  0  0  0  0
   53.0850  157.3424   25.0422 H   0  0  0  0  0  0  0  0  0  0  0  0
   52.9229  155.0352   24.5506 H   0  0  0  0  0  0  0  0  0  0  0  0
   54.5229  154.6849   25.3279 H   0  0  0  0  0  0  0  0  0  0  0  0
   52.3241  157.0558   26.9443 H   0  0  0  0  0  0  0  0  0  0  0  0
   53.3007  160.0702   30.2038 H   0  0  0  0  0  0  0  0  0  0  0  0
   52.5225  162.1188   31.3975 H   0  0  0  0  0  0  0  0  0  0  0  0
   50.1393  162.3196   32.1154 H   0  0  0  0  0  0  0  0  0  0  0  0
   47.6140  160.6830   31.1150 H   0  0  0  0  0  0  0  0  0  0  0  0
   48.8920  155.4490   28.5560 H   0  0  0  0  0  0  0  0  0  0  0  0
   51.1045  154.3801   30.0998 H   0  0  0  0  0  0  0  0  0  0  0  0
   52.1879  152.4880   28.9127 H   0  0  0  0  0  0  0  0  0  0  0  0
   53.8952  151.8083   27.3256 H   0  0  0  0  0  0  0  0  0  0  0  0
   52.7698  152.0058   25.9395 H   0  0  0  0  0  0  0  0  0  0  0  0
   54.3525  152.8554   25.9395 H   0  0  0  0  0  0  0  0  0  0  0  0
  1  2  1  0
  2  3  1  0
  3  4  1  0
  4  5  2  0
  5  6  1  0
  6  7  1  0
  7  8  1  0
  8  9  1  0
  9 10  2  0
 10 11  1  0
 11 12  2  0
 12 13  1  0
 13 14  1  0
 13 15  2  0
 15 16  1  0
 16 17  2  0
 16 18  1  0
 18 19  1  0
  6 20  2  0
 20 21  1  0
 21 22  2  0
 22 23  1  0
 22  4  1  0
 18  7  2  0
 15  9  1  0
  1 24  1  0
  1 25  1  0
  1 26  1  0
  2 27  1  0
  2 28  1  0
  3 29  1  0
  3 30  1  0
  5 31  1  0
 10 32  1  0
 11 33  1  0
 12 34  1  0
 14 35  1  0
 19 36  1  0
 20 37  1  0
 21 38  1  0
 23 39  1  0
 23 40  1  0
 23 41  1  0
M  END
>  <meeko>  (4) 
{"is_sidechain": [false], "free_energy": -8.783, "intermolecular_energy": -10.703, "internal_energy": -0.371}

$$$$
