cand_028_out
     RDKit          3D

 38 40  0  0  0  0  0  0  0  0999 V2000
   47.3700  159.7460   30.8300 C   0  0  0  0  0  0  0  0  0  0  0  0
   48.3710  158.8520   31.5480 C   0  0  0  0  0  0  0  0  0  0  0  0
   49.7340  158.8910   30.8940 C   0  0  0  0  0  0  0  0  0  0  0  0
   50.1750  157.7460   30.2010 C   0  0  0  0  0  0  0  0  0  0  0  0
   51.4330  157.6950   29.5850 C   0  0  0  0  0  0  0  0  0  0  0  0
   51.8860  156.5040   28.8360 C   0  0  0  0  0  0  0  0  0  0  0  0
   52.4710  156.8240   27.6160 O   0  0  0  0  0  0  0  0  0  0  0  0
   52.9360  155.8110   26.8170 C   0  0  0  0  0  0  0  0  0  0  0  0
   53.5000  156.1770   25.5940 C   0  0  0  0  0  0  0  0  0  0  0  0
   53.9960  155.1950   24.7340 C   0  0  0  0  0  0  0  0  0  0  0  0
   53.9260  153.8470   25.0950 C   0  0  0  0  0  0  0  0  0  0  0  0
   53.3620  153.4860   26.3150 C   0  0  0  0  0  0  0  0  0  0  0  0
   53.3260  152.1490   26.6080 O   0  0  0  0  0  0  0  0  0  0  0  0
   52.8660  154.4690   27.1760 C   0  0  0  0  0  0  0  0  0  0  0  0
   52.2650  154.1310   28.4680 C   0  0  0  0  0  0  0  0  0  0  0  0
   52.1750  152.9700   28.8590 O   0  0  0  0  0  0  0  0  0  0  0  0
   51.7630  155.2470   29.3020 C   0  0  0  0  0  0  0  0  0  0  0  0
   51.2100  154.9170   30.5250 O   0  0  0  0  0  0  0  0  0  0  0  0
   52.2530  158.8260   29.6580 C   0  0  0  0  0  0  0  0  0  0  0  0
   51.8340  159.9680   30.3460 C   0  0  0  0  0  0  0  0  0  0  0  0
   50.5820  160.0120   30.9760 C   0  0  0  0  0  0  0  0  0  0  0  0
   50.1760  161.2680   31.6980 C   0  0  0  0  0  0  0  0  0  0  0  0
   46.7640  160.2872   31.5715 H   0  0  0  0  0  0  0  0  0  0  0  0
   47.9096  160.4683   30.1998 H   0  0  0  0  0  0  0  0  0  0  0  0
   46.7130  159.1285   30.1998 H   0  0  0  0  0  0  0  0  0  0  0  0
   48.4669  159.1911   32.5900 H   0  0  0  0  0  0  0  0  0  0  0  0
   47.9996  157.8177   31.4996 H   0  0  0  0  0  0  0  0  0  0  0  0
   49.5142  156.8686   30.1419 H   0  0  0  0  0  0  0  0  0  0  0  0
   53.5537  157.2378   25.3079 H   0  0  0  0  0  0  0  0  0  0  0  0
   54.4425  155.4831   23.7709 H   0  0  0  0  0  0  0  0  0  0  0  0
   54.3155  153.0734   24.4169 H   0  0  0  0  0  0  0  0  0  0  0  0
   52.9450  151.5470   25.9990 H   0  0  0  0  0  0  0  0  0  0  0  0
   50.9210  155.5920   31.1070 H   0  0  0  0  0  0  0  0  0  0  0  0
   53.2381  158.8164   29.1687 H   0  0  0  0  0  0  0  0  0  0  0  0
   52.4960  160.8452   30.3940 H   0  0  0  0  0  0  0  0  0  0  0  0
   50.2301  161.1005   32.7838 H   0  0  0  0  0  0  0  0  0  0  0  0
   50.8551  162.0871   31.4190 H   0  0  0  0  0  0  0  0  0  0  0  0
   49.1459  161.5346   31.4190 H   0  0  0  0  0  0  0  0  0  0  0  0
  1  2  1  0
  2  3  1  0
  3  4  2  0
  4  5  1  0
  5  6  1  0
  6  7  1  0
  7  8  1  0
  8  9  2  0
  9 10  1  0
 10 11  2  0
 11 12  1  0
 12 13  1  0
 12 14  2  0
 14 15  1  0
 15 16  2  0
 15 17  1  0
 17 18  1  0
  5 19  2  0
 19 20  1  0
 20 21  2  0
 21 22  1  0
 21  3  1  0
 17  6  2  0
 14  8  1  0
  1 23  1  0
  1 24  1  0
  1 25  1  0
  2 26  1  0
  2 27  1  0
  4 28  1  0
  9 29  1  0
 10 30  1  0
 11 31  1  0
 13 32  1  0
 18 33  1  0
 19 34  1  0
 20 35  1  0
 22 36  1  0
 22 37  1  0
 22 38  1  0
M  END
>  <meeko>  (1) 
{"is_sidechain": [false], "free_energy": -11.435, "intermolecular_energy": -13.44, "internal_energy": 0.028}

$$$$
cand_028_out
     RDKit          3D

 38 40  0  0  0  0  0  0  0  0999 V2000
   53.9310  156.4560   25.2430 C   0  0  0  0  0  0  0  0  0  0  0  0
   53.2840  155.1020   25.4910 C   0  0  0  0  0  0  0  0  0  0  0  0
   52.6650  155.0160   26.8680 C   0  0  0  0  0  0  0  0  0  0  0  0
   52.3020  156.2170   27.5120 C   0  0  0  0  0  0  0  0  0  0  0  0
   51.7420  156.2240   28.7970 C   0  0  0  0  0  0  0  0  0  0  0  0
   51.3370  157.4800   29.4630 C   0  0  0  0  0  0  0  0  0  0  0  0
   50.0060  157.4730   29.8650 O   0  0  0  0  0  0  0  0  0  0  0  0
   49.4970  158.5800   30.4960 C   0  0  0  0  0  0  0  0  0  0  0  0
   48.1530  158.5350   30.8680 C   0  0  0  0  0  0  0  0  0  0  0  0
   47.5730  159.6270   31.5170 C   0  0  0  0  0  0  0  0  0  0  0  0
   48.3370  160.7640   31.7940 C   0  0  0  0  0  0  0  0  0  0  0  0
   49.6770  160.8050   31.4220 C   0  0  0  0  0  0  0  0  0  0  0  0
   50.3680  161.9470   31.7240 O   0  0  0  0  0  0  0  0  0  0  0  0
   50.2570  159.7120   30.7710 C   0  0  0  0  0  0  0  0  0  0  0  0
   51.6640  159.7150   30.3630 C   0  0  0  0  0  0  0  0  0  0  0  0
   52.4010  160.6730   30.5790 O   0  0  0  0  0  0  0  0  0  0  0  0
   52.1780  158.5090   29.6740 C   0  0  0  0  0  0  0  0  0  0  0  0
   53.5110  158.5180   29.3050 O   0  0  0  0  0  0  0  0  0  0  0  0
   51.5310  154.9980   29.4360 C   0  0  0  0  0  0  0  0  0  0  0  0
   51.8890  153.7990   28.8140 C   0  0  0  0  0  0  0  0  0  0  0  0
   52.4660  153.7930   27.5350 C   0  0  0  0  0  0  0  0  0  0  0  0
   52.8290  152.4740   26.9080 C   0  0  0  0  0  0  0  0  0  0  0  0
   54.1599  156.9350   26.2064 H   0  0  0  0  0  0  0  0  0  0  0  0
   54.8609  156.3189   24.6716 H   0  0  0  0  0  0  0  0  0  0  0  0
   53.2401  157.0934   24.6716 H   0  0  0  0  0  0  0  0  0  0  0  0
   52.4991  154.9397   24.7376 H   0  0  0  0  0  0  0  0  0  0  0  0
   54.0668  154.3324   25.4207 H   0  0  0  0  0  0  0  0  0  0  0  0
   52.4625  157.1732   26.9924 H   0  0  0  0  0  0  0  0  0  0  0  0
   47.5510  157.6404   30.6503 H   0  0  0  0  0  0  0  0  0  0  0  0
   46.5135  159.5922   31.8106 H   0  0  0  0  0  0  0  0  0  0  0  0
   47.8800  161.6244   32.3049 H   0  0  0  0  0  0  0  0  0  0  0  0
   50.1210  162.7610   31.3300 H   0  0  0  0  0  0  0  0  0  0  0  0
   53.7520  158.7180   28.4220 H   0  0  0  0  0  0  0  0  0  0  0  0
   51.0786  154.9773   30.4385 H   0  0  0  0  0  0  0  0  0  0  0  0
   51.7159  152.8457   29.3348 H   0  0  0  0  0  0  0  0  0  0  0  0
   53.0321  151.7360   27.6980 H   0  0  0  0  0  0  0  0  0  0  0  0
   51.9942  152.1226   26.2838 H   0  0  0  0  0  0  0  0  0  0  0  0
   53.7261  152.5992   26.2838 H   0  0  0  0  0  0  0  0  0  0  0  0
  1  2  1  0
  2  3  1  0
  3  4  2  0
  4  5  1  0
  5  6  1  0
  6  7  1  0
  7  8  1  0
  8  9  2  0
  9 10  1  0
 10 11  2  0
 11 12  1  0
 12 13  1  0
 12 14  2  0
 14 15  1  0
 15 16  2  0
 15 17  1  0
 17 18  1  0
  5 19  2  0
 19 20  1  0
 20 21  2  0
 21 22  1  0
 21  3  1  0
 17  6  2  0
 14  8  1  0
  1 23  1  0
  1 24  1  0
  1 25  1  0
  2 26  1  0
  2 27  1  0
  4 28  1  0
  9 29  1  0
 10 30  1  0
 11 31  1  0
 13 32  1  0
 18 33  1  0
 19 34  1  0
 20 35  1  0
 22 36  1  0
 22 37  1  0
 22 38  1  0
M  END
>  <meeko>  (2) 
{"is_sidechain": [false], "free_energy": -10.659, "intermolecular_energy": -12.205, "internal_energy": -0.296}

$$$$
cand_028_out
     RDKit          3D

 38 40  0  0  0  0  0  0  0  0999 V2000
   51.3740  161.4160   32.1300 C   0  0  0  0  0  0  0  0  0  0  0  0
   51.4900  160.9700   30.6800 C   0  0  0  0  0  0  0  0  0  0  0  0
   50.7980  159.6480   30.4380 C   0  0  0  0  0  0  0  0  0  0  0  0
   51.5000  158.6450   29.7390 C   0  0  0  0  0  0  0  0  0  0  0  0
   50.9220  157.4000   29.4570 C   0  0  0  0  0  0  0  0  0  0  0  0
   51.6660  156.3380   28.7480 C   0  0  0  0  0  0  0  0  0  0  0  0
   52.2260  156.7770   27.5530 O   0  0  0  0  0  0  0  0  0  0  0  0
   52.9440  155.8910   26.7920 C   0  0  0  0  0  0  0  0  0  0  0  0
   53.4740  156.3700   25.5940 C   0  0  0  0  0  0  0  0  0  0  0  0
   54.2190  155.5210   24.7720 C   0  0  0  0  0  0  0  0  0  0  0  0
   54.4320  154.1920   25.1480 C   0  0  0  0  0  0  0  0  0  0  0  0
   53.9020  153.7180   26.3440 C   0  0  0  0  0  0  0  0  0  0  0  0
   54.1500  152.4070   26.6530 O   0  0  0  0  0  0  0  0  0  0  0  0
   53.1560  154.5680   27.1660 C   0  0  0  0  0  0  0  0  0  0  0  0
   52.5820  154.1080   28.4320 C   0  0  0  0  0  0  0  0  0  0  0  0
   52.7320  152.9570   28.8350 O   0  0  0  0  0  0  0  0  0  0  0  0
   51.8020  155.0870   29.2240 C   0  0  0  0  0  0  0  0  0  0  0  0
   51.2750  154.6450   30.4240 O   0  0  0  0  0  0  0  0  0  0  0  0
   49.6170  157.1590   29.9010 C   0  0  0  0  0  0  0  0  0  0  0  0
   48.9050  158.1440   30.5900 C   0  0  0  0  0  0  0  0  0  0  0  0
   49.4770  159.3960   30.8570 C   0  0  0  0  0  0  0  0  0  0  0  0
   48.6690  160.4190   31.6080 C   0  0  0  0  0  0  0  0  0  0  0  0
   51.5948  160.5669   32.7936 H   0  0  0  0  0  0  0  0  0  0  0  0
   52.0909  162.2278   32.3224 H   0  0  0  0  0  0  0  0  0  0  0  0
   50.3524  161.7757   32.3224 H   0  0  0  0  0  0  0  0  0  0  0  0
   51.0314  161.7343   30.0354 H   0  0  0  0  0  0  0  0  0  0  0  0
   52.5576  160.8426   30.4477 H   0  0  0  0  0  0  0  0  0  0  0  0
   52.5291  158.8451   29.4060 H   0  0  0  0  0  0  0  0  0  0  0  0
   53.3055  157.4156   25.2967 H   0  0  0  0  0  0  0  0  0  0  0  0
   54.6384  155.8989   23.8279 H   0  0  0  0  0  0  0  0  0  0  0  0
   55.0170  153.5225   24.5003 H   0  0  0  0  0  0  0  0  0  0  0  0
   54.6970  151.8900   26.0950 H   0  0  0  0  0  0  0  0  0  0  0  0
   51.6080  154.9780   31.2340 H   0  0  0  0  0  0  0  0  0  0  0  0
   49.1469  156.1839   29.7055 H   0  0  0  0  0  0  0  0  0  0  0  0
   47.8796  157.9340   30.9283 H   0  0  0  0  0  0  0  0  0  0  0  0
   48.7930  160.2621   32.6897 H   0  0  0  0  0  0  0  0  0  0  0  0
   49.0165  161.4281   31.3417 H   0  0  0  0  0  0  0  0  0  0  0  0
   47.6068  160.3148   31.3417 H   0  0  0  0  0  0  0  0  0  0  0  0
  1  2  1  0
  2  3  1  0
  3  4  2  0
  4  5  1  0
  5  6  1  0
  6  7  1  0
  7  8  1  0
  8  9  2  0
  9 10  1  0
 10 11  2  0
 11 12  1  0
 12 13  1  0
 12 14  2  0
 14 15  1  0
 15 16  2  0
 15 17  1  0
 17 18  1  0
  5 19  2  0
 19 20  1  0
 20 21  2  0
 21 22  1  0
 21  3  1  0
 17  6  2  0
 14  8  1  0
  1 23  1  0
  1 24  1  0
  1 25  1  0
  2 26  1  0
  2 27  1  0
  4 28  1  0
  9 29  1  0
 10 30  1  0
 11 31  1  0
 13 32  1  0
 18 33  1  0
 19 34  1  0
 20 35  1  0
 22 36  1  0
 22 37  1  0
 22 38  1  0
M  END
>  <meeko>  (3) 
{"is_sidechain": [false], "free_energy": -10.2, "intermolecular_energy": -12.414, "internal_energy": 0.453}

$$$$
cand_028_out
     RDKit          3D

 38 40  0  0  0  0  0  0  0  0999 V2000
   54.4010  156.0900   24.8560 C   0  0  0  0  0  0  0  0  0  0  0  0
   54.0220  154.6390   25.1130 C   0  0  0  0  0  0  0  0  0  0  0  0
   53.1590  154.4920   26.3470 C   0  0  0  0  0  0  0  0  0  0  0  0
   52.8300  155.6540   27.0730 C   0  0  0  0  0  0  0  0  0  0  0  0
   52.0520  155.6000   28.2380 C   0  0  0  0  0  0  0  0  0  0  0  0
   51.6840  156.8210   28.9860 C   0  0  0  0  0  0  0  0  0  0  0  0
   50.4130  156.7480   29.5450 O   0  0  0  0  0  0  0  0  0  0  0  0
   49.9430  157.8160   30.2670 C   0  0  0  0  0  0  0  0  0  0  0  0
   48.6570  157.7060   30.7970 C   0  0  0  0  0  0  0  0  0  0  0  0
   48.1200  158.7560   31.5440 C   0  0  0  0  0  0  0  0  0  0  0  0
   48.8670  159.9160   31.7620 C   0  0  0  0  0  0  0  0  0  0  0  0
   50.1500  160.0220   31.2320 C   0  0  0  0  0  0  0  0  0  0  0  0
   50.8280  161.1840   31.4830 O   0  0  0  0  0  0  0  0  0  0  0  0
   50.6880  158.9710   30.4830 C   0  0  0  0  0  0  0  0  0  0  0  0
   52.0330  159.0430   29.9090 C   0  0  0  0  0  0  0  0  0  0  0  0
   52.7540  160.0250   30.0630 O   0  0  0  0  0  0  0  0  0  0  0  0
   52.5050  157.8780   29.1260 C   0  0  0  0  0  0  0  0  0  0  0  0
   53.7810  157.9520   28.5990 O   0  0  0  0  0  0  0  0  0  0  0  0
   51.5870  154.3530   28.6680 C   0  0  0  0  0  0  0  0  0  0  0  0
   51.9090  153.1900   27.9630 C   0  0  0  0  0  0  0  0  0  0  0  0
   52.7020  153.2420   26.8070 C   0  0  0  0  0  0  0  0  0  0  0  0
   53.0140  151.9620   26.0820 C   0  0  0  0  0  0  0  0  0  0  0  0
   54.5366  156.6091   25.8163 H   0  0  0  0  0  0  0  0  0  0  0  0
   55.3392  156.1279   24.2830 H   0  0  0  0  0  0  0  0  0  0  0  0
   53.6012  156.5819   24.2830 H   0  0  0  0  0  0  0  0  0  0  0  0
   53.4673  154.2568   24.2434 H   0  0  0  0  0  0  0  0  0  0  0  0
   54.9482  154.0679   25.2744 H   0  0  0  0  0  0  0  0  0  0  0  0
   53.1932  156.6291   26.7163 H   0  0  0  0  0  0  0  0  0  0  0  0
   48.0672  156.7933   30.6265 H   0  0  0  0  0  0  0  0  0  0  0  0
   47.1062  158.6696   31.9619 H   0  0  0  0  0  0  0  0  0  0  0  0
   48.4430  160.7430   32.3505 H   0  0  0  0  0  0  0  0  0  0  0  0
   51.4330  161.2280   32.1980 H   0  0  0  0  0  0  0  0  0  0  0  0
   53.9030  158.0340   27.6730 H   0  0  0  0  0  0  0  0  0  0  0  0
   50.9614  154.2869   29.5704 H   0  0  0  0  0  0  0  0  0  0  0  0
   51.5349  152.2191   28.3200 H   0  0  0  0  0  0  0  0  0  0  0  0
   53.2085  151.1641   26.8138 H   0  0  0  0  0  0  0  0  0  0  0  0
   52.1583  151.6801   25.4509 H   0  0  0  0  0  0  0  0  0  0  0  0
   53.9035  152.1055   25.4509 H   0  0  0  0  0  0  0  0  0  0  0  0
  1  2  1  0
  2  3  1  0
  3  4  2  0
  4  5  1  0
  5  6  1  0
  6  7  1  0
  7  8  1  0
  8  9  2  0
  9 10  1  0
 10 11  2  0
 11 12  1  0
 12 13  1  0
 12 14  2  0
 14 15  1  0
 15 16  2  0
 15 17  1  0
 17 18  1  0
  5 19  2  0
 19 20  1  0
 20 21  2  0
 21 22  1  0
 21  3  1  0
 17  6  2  0
 14  8  1  0
  1 23  1  0
  1 24  1  0
  1 25  1  0
  2 26  1  0
  2 27  1  0
  4 28  1  0
  9 29  1  0
 10 30  1  0
 11 31  1  0
 13 32  1  0
 18 33  1  0
 19 34  1  0
 20 35  1  0
 22 36  1  0
 22 37  1  0
 22 38  1  0
M  END
>  <meeko>  (4) 
{"is_sidechain": [false], "free_energy": -9.727, "intermolecular_energy": -11.33, "internal_energy": -0.075}

$$$$
cand_028_out
     RDKit          3D

 38 40  0  0  0  0  0  0  0  0999 V2000
   51.5560  152.4620   27.8000 C   0  0  0  0  0  0  0  0  0  0  0  0
   51.9410  153.3830   28.9490 C   0  0  0  0  0  0  0  0  0  0  0  0
   52.1620  154.8050   28.4830 C   0  0  0  0  0  0  0  0  0  0  0  0
   51.6400  155.8520   29.2680 C   0  0  0  0  0  0  0  0  0  0  0  0
   51.7840  157.1960   28.8950 C   0  0  0  0  0  0  0  0  0  0  0  0
   51.2610  158.2970   29.7310 C   0  0  0  0  0  0  0  0  0  0  0  0
   49.9260  158.1210   30.0820 O   0  0  0  0  0  0  0  0  0  0  0  0
   49.3130  159.0720   30.8580 C   0  0  0  0  0  0  0  0  0  0  0  0
   47.9700  158.8630   31.1720 C   0  0  0  0  0  0  0  0  0  0  0  0
   47.2870  159.7910   31.9610 C   0  0  0  0  0  0  0  0  0  0  0  0
   47.9460  160.9280   32.4330 C   0  0  0  0  0  0  0  0  0  0  0  0
   49.2860  161.1340   32.1180 C   0  0  0  0  0  0  0  0  0  0  0  0
   49.8710  162.2670   32.6140 O   0  0  0  0  0  0  0  0  0  0  0  0
   49.9690  160.2050   31.3280 C   0  0  0  0  0  0  0  0  0  0  0  0
   51.3790  160.3830   30.9730 C   0  0  0  0  0  0  0  0  0  0  0  0
   52.0280  161.3530   31.3570 O   0  0  0  0  0  0  0  0  0  0  0  0
   52.0070  159.3450   30.1260 C   0  0  0  0  0  0  0  0  0  0  0  0
   53.3420  159.5170   29.8070 O   0  0  0  0  0  0  0  0  0  0  0  0
   52.4790  157.4860   27.7170 C   0  0  0  0  0  0  0  0  0  0  0  0
   52.9980  156.4590   26.9230 C   0  0  0  0  0  0  0  0  0  0  0  0
   52.8390  155.1140   27.2880 C   0  0  0  0  0  0  0  0  0  0  0  0
   53.4210  154.0480   26.4010 C   0  0  0  0  0  0  0  0  0  0  0  0
   51.1613  151.5178   28.2034 H   0  0  0  0  0  0  0  0  0  0  0  0
   50.7856  152.9477   27.1831 H   0  0  0  0  0  0  0  0  0  0  0  0
   52.4429  152.2549   27.1831 H   0  0  0  0  0  0  0  0  0  0  0  0
   51.1341  153.3752   29.6966 H   0  0  0  0  0  0  0  0  0  0  0  0
   52.8841  153.0150   29.3792 H   0  0  0  0  0  0  0  0  0  0  0  0
   51.1054  155.6087   30.1980 H   0  0  0  0  0  0  0  0  0  0  0  0
   47.4498  157.9686   30.7987 H   0  0  0  0  0  0  0  0  0  0  0  0
   46.2285  159.6261   32.2110 H   0  0  0  0  0  0  0  0  0  0  0  0
   47.4070  161.6597   33.0528 H   0  0  0  0  0  0  0  0  0  0  0  0
   49.6140  162.5980   33.4530 H   0  0  0  0  0  0  0  0  0  0  0  0
   53.6690  160.3710   29.6030 H   0  0  0  0  0  0  0  0  0  0  0  0
   52.6189  158.5335   27.4116 H   0  0  0  0  0  0  0  0  0  0  0  0
   53.5390  156.7094   25.9985 H   0  0  0  0  0  0  0  0  0  0  0  0
   53.8560  153.2513   27.0223 H   0  0  0  0  0  0  0  0  0  0  0  0
   52.6280  153.6261   25.7660 H   0  0  0  0  0  0  0  0  0  0  0  0
   54.2046  154.4869   25.7660 H   0  0  0  0  0  0  0  0  0  0  0  0
  1  2  1  0
  2  3  1  0
  3  4  2  0
  4  5  1  0
  5  6  1  0
  6  7  1  0
  7  8  1  0
  8  9  2  0
  9 10  1  0
 10 11  2  0
 11 12  1  0
 12 13  1  0
 12 14  2  0
 14 15  1  0
 15 16  2  0
 15 17  1  0
 17 18  1  0
  5 19  2  0
 19 20  1  0
 20 21  2  0
 21 22  1  0
 21  3  1  0
 17  6  2  0
 14  8  1  0
  1 23  1  0
  1 24  1  0
  1 25  1  0
  2 26  1  0
  2 27  1  0
  4 28  1  0
  9 29  1  0
 10 30  1  0
 11 31  1  0
 13 32  1  0
 18 33  1  0
 19 34  1  0
 20 35  1  0
 22 36  1  0
 22 37  1  0
 22 38  1  0
M  END
>  <meeko>  (5) 
{"is_sidechain": [false], "free_energy": -9.165, "intermolecular_energy": -11.38, "internal_energy": 0.635}

$$$$
cand_028_out
     RDKit          3D

 38 40  0  0  0  0  0  0  0  0999 V2000
   54.1130  156.6310   25.1980 C   0  0  0  0  0  0  0  0  0  0  0  0
   53.4600  155.2590   25.2610 C   0  0  0  0  0  0  0  0  0  0  0  0
   52.8740  154.9750   26.6260 C   0  0  0  0  0  0  0  0  0  0  0  0
   52.2610  156.0360   27.3230 C   0  0  0  0  0  0  0  0  0  0  0  0
   51.7130  155.8600   28.6010 C   0  0  0  0  0  0  0  0  0  0  0  0
   51.0460  156.9650   29.3220 C   0  0  0  0  0  0  0  0  0  0  0  0
   51.8970  158.0350   29.5740 O   0  0  0  0  0  0  0  0  0  0  0  0
   51.4070  159.1300   30.2390 C   0  0  0  0  0  0  0  0  0  0  0  0
   52.3000  160.1730   30.4850 C   0  0  0  0  0  0  0  0  0  0  0  0
   51.8650  161.3190   31.1560 C   0  0  0  0  0  0  0  0  0  0  0  0
   50.5380  161.4200   31.5810 C   0  0  0  0  0  0  0  0  0  0  0  0
   49.6500  160.3770   31.3330 C   0  0  0  0  0  0  0  0  0  0  0  0
   48.3650  160.5420   31.7750 O   0  0  0  0  0  0  0  0  0  0  0  0
   50.0860  159.2310   30.6630 C   0  0  0  0  0  0  0  0  0  0  0  0
   49.1840  158.1110   30.3830 C   0  0  0  0  0  0  0  0  0  0  0  0
   48.0020  158.1290   30.7180 O   0  0  0  0  0  0  0  0  0  0  0  0
   49.7480  156.9400   29.6740 C   0  0  0  0  0  0  0  0  0  0  0  0
   48.8840  155.8940   29.4040 O   0  0  0  0  0  0  0  0  0  0  0  0
   51.7720  154.5870   29.1780 C   0  0  0  0  0  0  0  0  0  0  0  0
   52.3810  153.5250   28.5030 C   0  0  0  0  0  0  0  0  0  0  0  0
   52.9450  153.7060   27.2320 C   0  0  0  0  0  0  0  0  0  0  0  0
   53.5830  152.5290   26.5470 C   0  0  0  0  0  0  0  0  0  0  0  0
   54.2889  157.0006   26.2190 H   0  0  0  0  0  0  0  0  0  0  0  0
   55.0722  156.5564   24.6647 H   0  0  0  0  0  0  0  0  0  0  0  0
   53.4502  157.3284   24.6647 H   0  0  0  0  0  0  0  0  0  0  0  0
   52.6555  155.2134   24.5122 H   0  0  0  0  0  0  0  0  0  0  0  0
   54.2337  154.5038   25.0585 H   0  0  0  0  0  0  0  0  0  0  0  0
   52.2114  157.0285   26.8513 H   0  0  0  0  0  0  0  0  0  0  0  0
   53.3451  160.0935   30.1513 H   0  0  0  0  0  0  0  0  0  0  0  0
   52.5682  162.1424   31.3498 H   0  0  0  0  0  0  0  0  0  0  0  0
   50.1957  162.3215   32.1103 H   0  0  0  0  0  0  0  0  0  0  0  0
   47.6550  160.1490   31.3060 H   0  0  0  0  0  0  0  0  0  0  0  0
   49.2190  155.0790   29.0860 H   0  0  0  0  0  0  0  0  0  0  0  0
   51.3346  154.4199   30.1734 H   0  0  0  0  0  0  0  0  0  0  0  0
   52.4183  152.5326   28.9760 H   0  0  0  0  0  0  0  0  0  0  0  0
   53.9637  151.8267   27.3032 H   0  0  0  0  0  0  0  0  0  0  0  0
   52.8364  152.0217   25.9184 H   0  0  0  0  0  0  0  0  0  0  0  0
   54.4156  152.8777   25.9184 H   0  0  0  0  0  0  0  0  0  0  0  0
  1  2  1  0
  2  3  1  0
  3  4  2  0
  4  5  1  0
  5  6  1  0
  6  7  1  0
  7  8  1  0
  8  9  2  0
  9 10  1  0
 10 11  2  0
 11 12  1  0
 12 13  1  0
 12 14  2  0
 14 15  1  0
 15 16  2  0
 15 17  1  0
 17 18  1  0
  5 19  2  0
 19 20  1  0
 20 21  2  0
 21 22  1  0
 21  3  1  0
 17  6  2  0
 14  8  1  0
  1 23  1  0
  1 24  1  0
  1 25  1  0
  2 26  1  0
  2 27  1  0
  4 28  1  0
  9 29  1  0
 10 30  1  0
 11 31  1  0
 13 32  1  0
 18 33  1  0
 19 34  1  0
 20 35  1  0
 22 36  1  0
 22 37  1  0
 22 38  1  0
M  END
>  <meeko>  (6) 
{"is_sidechain": [false], "free_energy": -8.856, "intermolecular_energy": -10.058, "internal_energy": -0.323}

$$$$
