kaempferol_out
     RDKit          3D

 31 33  0  0  0  0  0  0  0  0999 V2000
  178.0460   23.3560   47.8420 O   0  0  0  0  0  0  0  0  0  0  0  0
  176.9680   22.8060   48.0560 C   0  0  0  0  0  0  0  0  0  0  0  0
  175.9230   23.4830   48.8570 C   0  0  0  0  0  0  0  0  0  0  0  0
  176.2160   24.7480   49.3320 O   0  0  0  0  0  0  0  0  0  0  0  0
  174.7560   22.8450   49.0630 C   0  0  0  0  0  0  0  0  0  0  0  0
  173.6370   23.4270   49.8340 C   0  0  0  0  0  0  0  0  0  0  0  0
  173.5550   23.2990   51.2300 C   0  0  0  0  0  0  0  0  0  0  0  0
  172.4760   23.8360   51.9380 C   0  0  0  0  0  0  0  0  0  0  0  0
  171.4670   24.4990   51.2490 C   0  0  0  0  0  0  0  0  0  0  0  0
  170.3980   25.0390   51.8990 O   0  0  0  0  0  0  0  0  0  0  0  0
  171.5200   24.6300   49.8680 C   0  0  0  0  0  0  0  0  0  0  0  0
  172.5990   24.0930   49.1620 C   0  0  0  0  0  0  0  0  0  0  0  0
  174.4640   21.5820   48.5570 O   0  0  0  0  0  0  0  0  0  0  0  0
  175.4140   20.9270   47.8160 C   0  0  0  0  0  0  0  0  0  0  0  0
  175.0850   19.6600   47.3380 C   0  0  0  0  0  0  0  0  0  0  0  0
  176.0110   18.9500   46.5790 C   0  0  0  0  0  0  0  0  0  0  0  0
  175.6490   17.7150   46.1310 O   0  0  0  0  0  0  0  0  0  0  0  0
  177.2640   19.4860   46.2900 C   0  0  0  0  0  0  0  0  0  0  0  0
  177.5880   20.7520   46.7710 C   0  0  0  0  0  0  0  0  0  0  0  0
  178.8320   21.2290   46.4570 O   0  0  0  0  0  0  0  0  0  0  0  0
  176.6630   21.4730   47.5340 C   0  0  0  0  0  0  0  0  0  0  0  0
  175.8310   25.0480   50.1320 H   0  0  0  0  0  0  0  0  0  0  0  0
  174.3508   22.7689   51.7738 H   0  0  0  0  0  0  0  0  0  0  0  0
  172.4257   23.7347   53.0322 H   0  0  0  0  0  0  0  0  0  0  0  0
  169.7140   25.4570   51.4110 H   0  0  0  0  0  0  0  0  0  0  0  0
  170.7155   25.1546   49.3318 H   0  0  0  0  0  0  0  0  0  0  0  0
  172.6362   24.1929   48.0672 H   0  0  0  0  0  0  0  0  0  0  0  0
  174.0997   19.2237   47.5591 H   0  0  0  0  0  0  0  0  0  0  0  0
  176.2280   17.2310   45.5760 H   0  0  0  0  0  0  0  0  0  0  0  0
  177.9884   18.9163   45.6894 H   0  0  0  0  0  0  0  0  0  0  0  0
  179.2920   21.7740   47.0650 H   0  0  0  0  0  0  0  0  0  0  0  0
  1  2  2  0
  2  3  1  0
  3  4  1  0
  3  5  2  0
  5  6  1  0
  6  7  2  0
  7  8  1  0
  8  9  2  0
  9 10  1  0
  9 11  1  0
 11 12  2  0
  5 13  1  0
 13 14  1  0
 14 15  2  0
 15 16  1  0
 16 17  1  0
 16 18  2  0
 18 19  1  0
 19 20  1  0
 19 21  2  0
 21  2  1  0
 12  6  1  0
 21 14  1  0
  4 22  1  0
  7 23  1  0
  8 24  1  0
 10 25  1  0
 11 26  1  0
 12 27  1  0
 15 28  1  0
 17 29  1  0
 18 30  1  0
 20 31  1  0
M  END
>  <meeko>  (1) 
{"is_sidechain": [false], "free_energy": -6.782, "intermolecular_energy": -7.971, "internal_energy": -0.301}

$$$$
kaempferol_out
     RDKit          3D

 31 33  0  0  0  0  0  0  0  0999 V2000
  178.8510   22.2110   51.8430 O   0  0  0  0  0  0  0  0  0  0  0  0
  178.8470   21.9220   50.6480 C   0  0  0  0  0  0  0  0  0  0  0  0
  180.0720   22.0770   49.8320 C   0  0  0  0  0  0  0  0  0  0  0  0
  181.2030   22.5430   50.4780 O   0  0  0  0  0  0  0  0  0  0  0  0
  180.0230   21.7470   48.5280 C   0  0  0  0  0  0  0  0  0  0  0  0
  181.1860   21.8460   47.6200 C   0  0  0  0  0  0  0  0  0  0  0  0
  182.0930   22.9150   47.6950 C   0  0  0  0  0  0  0  0  0  0  0  0
  183.1730   23.0030   46.8110 C   0  0  0  0  0  0  0  0  0  0  0  0
  183.3450   22.0230   45.8410 C   0  0  0  0  0  0  0  0  0  0  0  0
  184.3830   22.0680   44.9600 O   0  0  0  0  0  0  0  0  0  0  0  0
  182.4560   20.9620   45.7400 C   0  0  0  0  0  0  0  0  0  0  0  0
  181.3770   20.8750   46.6240 C   0  0  0  0  0  0  0  0  0  0  0  0
  178.8860   21.2550   47.8970 O   0  0  0  0  0  0  0  0  0  0  0  0
  177.7330   21.1060   48.6250 C   0  0  0  0  0  0  0  0  0  0  0  0
  176.6130   20.6210   47.9500 C   0  0  0  0  0  0  0  0  0  0  0  0
  175.4170   20.4500   48.6410 C   0  0  0  0  0  0  0  0  0  0  0  0
  174.3470   19.9730   47.9450 O   0  0  0  0  0  0  0  0  0  0  0  0
  175.3190   20.7560   49.9970 C   0  0  0  0  0  0  0  0  0  0  0  0
  176.4410   21.2410   50.6650 C   0  0  0  0  0  0  0  0  0  0  0  0
  176.2890   21.5250   51.9950 O   0  0  0  0  0  0  0  0  0  0  0  0
  177.6480   21.4160   49.9790 C   0  0  0  0  0  0  0  0  0  0  0  0
  181.1240   22.9860   51.2990 H   0  0  0  0  0  0  0  0  0  0  0  0
  181.9523   23.6936   48.4592 H   0  0  0  0  0  0  0  0  0  0  0  0
  183.8811   23.8417   46.8830 H   0  0  0  0  0  0  0  0  0  0  0  0
  185.2010   21.6630   45.1760 H   0  0  0  0  0  0  0  0  0  0  0  0
  182.6001   20.1926   44.9672 H   0  0  0  0  0  0  0  0  0  0  0  0
  180.6698   20.0368   46.5385 H   0  0  0  0  0  0  0  0  0  0  0  0
  176.6745   20.3755   46.8795 H   0  0  0  0  0  0  0  0  0  0  0  0
  174.0010   19.1250   48.1420 H   0  0  0  0  0  0  0  0  0  0  0  0
  174.3684   20.6164   50.5326 H   0  0  0  0  0  0  0  0  0  0  0  0
  175.4560   21.8010   52.3240 H   0  0  0  0  0  0  0  0  0  0  0  0
  1  2  2  0
  2  3  1  0
  3  4  1  0
  3  5  2  0
  5  6  1  0
  6  7  2  0
  7  8  1  0
  8  9  2  0
  9 10  1  0
  9 11  1  0
 11 12  2  0
  5 13  1  0
 13 14  1  0
 14 15  2  0
 15 16  1  0
 16 17  1  0
 16 18  2  0
 18 19  1  0
 19 20  1  0
 19 21  2  0
 21  2  1  0
 12  6  1  0
 21 14  1  0
  4 22  1  0
  7 23  1  0
  8 24  1  0
 10 25  1  0
 11 26  1  0
 12 27  1  0
 15 28  1  0
 17 29  1  0
 18 30  1  0
 20 31  1  0
M  END
>  <meeko>  (2) 
{"is_sidechain": [false], "free_energy": -6.764, "intermolecular_energy": -8.325, "internal_energy": 0.073}

$$$$
kaempferol_out
     RDKit          3D

 31 33  0  0  0  0  0  0  0  0999 V2000
  174.4240   20.2350   48.0840 O   0  0  0  0  0  0  0  0  0  0  0  0
  175.4730   20.8770   48.0730 C   0  0  0  0  0  0  0  0  0  0  0  0
  176.6890   20.3220   47.4380 C   0  0  0  0  0  0  0  0  0  0  0  0
  176.5800   19.0710   46.8570 O   0  0  0  0  0  0  0  0  0  0  0  0
  177.8140   21.0610   47.4470 C   0  0  0  0  0  0  0  0  0  0  0  0
  179.0840   20.6160   46.8320 C   0  0  0  0  0  0  0  0  0  0  0  0
  180.2450   20.4170   47.5960 C   0  0  0  0  0  0  0  0  0  0  0  0
  181.4410   20.0180   46.9910 C   0  0  0  0  0  0  0  0  0  0  0  0
  181.4820   19.8250   45.6160 C   0  0  0  0  0  0  0  0  0  0  0  0
  182.6260   19.4370   44.9860 O   0  0  0  0  0  0  0  0  0  0  0  0
  180.3500   20.0260   44.8380 C   0  0  0  0  0  0  0  0  0  0  0  0
  179.1550   20.4230   45.4430 C   0  0  0  0  0  0  0  0  0  0  0  0
  177.9030   22.3290   48.0120 O   0  0  0  0  0  0  0  0  0  0  0  0
  176.7950   22.8680   48.6140 C   0  0  0  0  0  0  0  0  0  0  0  0
  176.9310   24.1360   49.1770 C   0  0  0  0  0  0  0  0  0  0  0  0
  175.8370   24.7310   49.7990 C   0  0  0  0  0  0  0  0  0  0  0  0
  176.0130   25.9710   50.3370 O   0  0  0  0  0  0  0  0  0  0  0  0
  174.6080   24.0790   49.8700 C   0  0  0  0  0  0  0  0  0  0  0  0
  174.4780   22.8130   49.3060 C   0  0  0  0  0  0  0  0  0  0  0  0
  173.2490   22.2190   49.4030 O   0  0  0  0  0  0  0  0  0  0  0  0
  175.5710   22.2070   48.6780 C   0  0  0  0  0  0  0  0  0  0  0  0
  176.3240   18.3350   47.3770 H   0  0  0  0  0  0  0  0  0  0  0  0
  180.2135   20.5769   48.6839 H   0  0  0  0  0  0  0  0  0  0  0  0
  182.3431   19.8581   47.5998 H   0  0  0  0  0  0  0  0  0  0  0  0
  183.3090   20.0600   44.8270 H   0  0  0  0  0  0  0  0  0  0  0  0
  180.3938   19.8733   43.7495 H   0  0  0  0  0  0  0  0  0  0  0  0
  178.2601   20.5862   44.8246 H   0  0  0  0  0  0  0  0  0  0  0  0
  177.8957   24.6625   49.1301 H   0  0  0  0  0  0  0  0  0  0  0  0
  176.0960   26.0720   51.2650 H   0  0  0  0  0  0  0  0  0  0  0  0
  173.7510   24.5586   50.3655 H   0  0  0  0  0  0  0  0  0  0  0  0
  172.5300   22.6870   49.7810 H   0  0  0  0  0  0  0  0  0  0  0  0
  1  2  2  0
  2  3  1  0
  3  4  1  0
  3  5  2  0
  5  6  1  0
  6  7  2  0
  7  8  1  0
  8  9  2  0
  9 10  1  0
  9 11  1  0
 11 12  2  0
  5 13  1  0
 13 14  1  0
 14 15  2  0
 15 16  1  0
 16 17  1  0
 16 18  2  0
 18 19  1  0
 19 20  1  0
 19 21  2  0
 21  2  1  0
 12  6  1  0
 21 14  1  0
  4 22  1  0
  7 23  1  0
  8 24  1  0
 10 25  1  0
 11 26  1  0
 12 27  1  0
 15 28  1  0
 17 29  1  0
 18 30  1  0
 20 31  1  0
M  END
>  <meeko>  (3) 
{"is_sidechain": [false], "free_energy": -6.757, "intermolecular_energy": -8.076, "internal_energy": -0.167}

$$$$
kaempferol_out
     RDKit          3D

 31 33  0  0  0  0  0  0  0  0999 V2000
  181.5990   23.1360   47.8250 O   0  0  0  0  0  0  0  0  0  0  0  0
  180.6450   22.3710   47.7020 C   0  0  0  0  0  0  0  0  0  0  0  0
  179.3680   22.6420   48.3990 C   0  0  0  0  0  0  0  0  0  0  0  0
  179.3030   23.7890   49.1700 O   0  0  0  0  0  0  0  0  0  0  0  0
  178.3480   21.7790   48.2340 C   0  0  0  0  0  0  0  0  0  0  0  0
  177.0240   21.9550   48.8670 C   0  0  0  0  0  0  0  0  0  0  0  0
  176.3440   23.1830   48.8320 C   0  0  0  0  0  0  0  0  0  0  0  0
  175.1030   23.3340   49.4580 C   0  0  0  0  0  0  0  0  0  0  0  0
  174.5400   22.2560   50.1310 C   0  0  0  0  0  0  0  0  0  0  0  0
  173.3320   22.3600   50.7540 O   0  0  0  0  0  0  0  0  0  0  0  0
  175.1960   21.0350   50.1880 C   0  0  0  0  0  0  0  0  0  0  0  0
  176.4360   20.8850   49.5620 C   0  0  0  0  0  0  0  0  0  0  0  0
  178.4180   20.6430   47.4340 O   0  0  0  0  0  0  0  0  0  0  0  0
  179.5900   20.3610   46.7810 C   0  0  0  0  0  0  0  0  0  0  0  0
  179.6200   19.2060   46.0000 C   0  0  0  0  0  0  0  0  0  0  0  0
  180.7850   18.8720   45.3140 C   0  0  0  0  0  0  0  0  0  0  0  0
  180.7710   17.7360   44.5610 O   0  0  0  0  0  0  0  0  0  0  0  0
  181.9220   19.6720   45.3960 C   0  0  0  0  0  0  0  0  0  0  0  0
  181.8860   20.8240   46.1780 C   0  0  0  0  0  0  0  0  0  0  0  0
  183.0310   21.5730   46.2230 O   0  0  0  0  0  0  0  0  0  0  0  0
  180.7200   21.1680   46.8710 C   0  0  0  0  0  0  0  0  0  0  0  0
  180.0600   24.3330   49.2630 H   0  0  0  0  0  0  0  0  0  0  0  0
  176.7936   24.0375   48.3051 H   0  0  0  0  0  0  0  0  0  0  0  0
  174.5761   24.2988   49.4182 H   0  0  0  0  0  0  0  0  0  0  0  0
  172.7370   21.6350   50.7460 H   0  0  0  0  0  0  0  0  0  0  0  0
  174.7418   20.1885   50.7238 H   0  0  0  0  0  0  0  0  0  0  0  0
  176.9579   19.9181   49.6139 H   0  0  0  0  0  0  0  0  0  0  0  0
  178.7301   18.5636   45.9264 H   0  0  0  0  0  0  0  0  0  0  0  0
  180.0540   17.5670   43.9820 H   0  0  0  0  0  0  0  0  0  0  0  0
  182.8368   19.3976   44.8502 H   0  0  0  0  0  0  0  0  0  0  0  0
  183.0550   22.3640   46.7250 H   0  0  0  0  0  0  0  0  0  0  0  0
  1  2  2  0
  2  3  1  0
  3  4  1  0
  3  5  2  0
  5  6  1  0
  6  7  2  0
  7  8  1  0
  8  9  2  0
  9 10  1  0
  9 11  1  0
 11 12  2  0
  5 13  1  0
 13 14  1  0
 14 15  2  0
 15 16  1  0
 16 17  1  0
 16 18  2  0
 18 19  1  0
 19 20  1  0
 19 21  2  0
 21  2  1  0
 12  6  1  0
 21 14  1  0
  4 22  1  0
  7 23  1  0
  8 24  1  0
 10 25  1  0
 11 26  1  0
 12 27  1  0
 15 28  1  0
 17 29  1  0
 18 30  1  0
 20 31  1  0
M  END
>  <meeko>  (4) 
{"is_sidechain": [false], "free_energy": -6.735, "intermolecular_energy": -8.2, "internal_energy": -0.017}

$$$$
kaempferol_out
     RDKit          3D

 31 33  0  0  0  0  0  0  0  0999 V2000
  178.7970   22.6810   47.1350 O   0  0  0  0  0  0  0  0  0  0  0  0
  177.7140   22.4290   47.6610 C   0  0  0  0  0  0  0  0  0  0  0  0
  177.1010   23.3810   48.6140 C   0  0  0  0  0  0  0  0  0  0  0  0
  177.7920   24.5520   48.8660 O   0  0  0  0  0  0  0  0  0  0  0  0
  175.9130   23.0660   49.1630 C   0  0  0  0  0  0  0  0  0  0  0  0
  175.2000   23.9440   50.1160 C   0  0  0  0  0  0  0  0  0  0  0  0
  175.4500   23.8950   51.4960 C   0  0  0  0  0  0  0  0  0  0  0  0
  174.7470   24.7180   52.3830 C   0  0  0  0  0  0  0  0  0  0  0  0
  173.7830   25.5890   51.8890 C   0  0  0  0  0  0  0  0  0  0  0  0
  173.0760   26.4090   52.7170 O   0  0  0  0  0  0  0  0  0  0  0  0
  173.5110   25.6490   50.5300 C   0  0  0  0  0  0  0  0  0  0  0  0
  174.2140   24.8270   49.6450 C   0  0  0  0  0  0  0  0  0  0  0  0
  175.2160   21.8970   48.8810 O   0  0  0  0  0  0  0  0  0  0  0  0
  175.7610   20.9910   48.0070 C   0  0  0  0  0  0  0  0  0  0  0  0
  175.0340   19.8270   47.7620 C   0  0  0  0  0  0  0  0  0  0  0  0
  175.5410   18.8750   46.8820 C   0  0  0  0  0  0  0  0  0  0  0  0
  174.7990   17.7520   46.6690 O   0  0  0  0  0  0  0  0  0  0  0  0
  176.7640   19.0650   46.2420 C   0  0  0  0  0  0  0  0  0  0  0  0
  177.4860   20.2300   46.4920 C   0  0  0  0  0  0  0  0  0  0  0  0
  178.6800   20.3660   45.8370 O   0  0  0  0  0  0  0  0  0  0  0  0
  176.9850   21.1930   47.3740 C   0  0  0  0  0  0  0  0  0  0  0  0
  178.5740   24.7460   48.3880 H   0  0  0  0  0  0  0  0  0  0  0  0
  176.2087   23.2004   51.8857 H   0  0  0  0  0  0  0  0  0  0  0  0
  174.9556   24.6760   53.4622 H   0  0  0  0  0  0  0  0  0  0  0  0
  172.7140   27.2090   52.3870 H   0  0  0  0  0  0  0  0  0  0  0  0
  172.7448   26.3410   50.1504 H   0  0  0  0  0  0  0  0  0  0  0  0
  173.9930   24.8718   48.5684 H   0  0  0  0  0  0  0  0  0  0  0  0
  174.0672   19.6621   48.2602 H   0  0  0  0  0  0  0  0  0  0  0  0
  174.2870   17.6700   45.8880 H   0  0  0  0  0  0  0  0  0  0  0  0
  177.1542   18.3054   45.5487 H   0  0  0  0  0  0  0  0  0  0  0  0
  179.4840   20.3420   46.3180 H   0  0  0  0  0  0  0  0  0  0  0  0
  1  2  2  0
  2  3  1  0
  3  4  1  0
  3  5  2  0
  5  6  1  0
  6  7  2  0
  7  8  1  0
  8  9  2  0
  9 10  1  0
  9 11  1  0
 11 12  2  0
  5 13  1  0
 13 14  1  0
 14 15  2  0
 15 16  1  0
 16 17  1  0
 16 18  2  0
 18 19  1  0
 19 20  1  0
 19 21  2  0
 21  2  1  0
 12  6  1  0
 21 14  1  0
  4 22  1  0
  7 23  1  0
  8 24  1  0
 10 25  1  0
 11 26  1  0
 12 27  1  0
 15 28  1  0
 17 29  1  0
 18 30  1  0
 20 31  1  0
M  END
>  <meeko>  (5) 
{"is_sidechain": [false], "free_energy": -6.69, "intermolecular_energy": -7.863, "internal_energy": -0.302}

$$$$
kaempferol_out
     RDKit          3D

 31 33  0  0  0  0  0  0  0  0999 V2000
  179.2930   25.0960   49.2060 O   0  0  0  0  0  0  0  0  0  0  0  0
  179.4850   23.9090   48.9530 C   0  0  0  0  0  0  0  0  0  0  0  0
  178.3560   23.0240   48.5900 C   0  0  0  0  0  0  0  0  0  0  0  0
  177.0980   23.5970   48.5380 O   0  0  0  0  0  0  0  0  0  0  0  0
  178.6130   21.7310   48.3180 C   0  0  0  0  0  0  0  0  0  0  0  0
  177.5680   20.7580   47.9310 C   0  0  0  0  0  0  0  0  0  0  0  0
  176.5360   20.3930   48.8090 C   0  0  0  0  0  0  0  0  0  0  0  0
  175.5720   19.4530   48.4320 C   0  0  0  0  0  0  0  0  0  0  0  0
  175.6420   18.8680   47.1730 C   0  0  0  0  0  0  0  0  0  0  0  0
  174.7230   17.9490   46.7640 O   0  0  0  0  0  0  0  0  0  0  0  0
  176.6580   19.2050   46.2900 C   0  0  0  0  0  0  0  0  0  0  0  0
  177.6210   20.1450   46.6680 C   0  0  0  0  0  0  0  0  0  0  0  0
  179.8860   21.1720   48.3480 O   0  0  0  0  0  0  0  0  0  0  0  0
  180.9520   21.9650   48.6880 C   0  0  0  0  0  0  0  0  0  0  0  0
  182.2090   21.3620   48.7170 C   0  0  0  0  0  0  0  0  0  0  0  0
  183.3260   22.1210   49.0540 C   0  0  0  0  0  0  0  0  0  0  0  0
  184.5360   21.4930   49.0700 O   0  0  0  0  0  0  0  0  0  0  0  0
  183.2100   23.4740   49.3650 C   0  0  0  0  0  0  0  0  0  0  0  0
  181.9520   24.0700   49.3350 C   0  0  0  0  0  0  0  0  0  0  0  0
  181.8940   25.4020   49.6480 O   0  0  0  0  0  0  0  0  0  0  0  0
  180.8230   23.3160   48.9960 C   0  0  0  0  0  0  0  0  0  0  0  0
  176.3350   23.0540   48.5450 H   0  0  0  0  0  0  0  0  0  0  0  0
  176.4847   20.8525   49.8071 H   0  0  0  0  0  0  0  0  0  0  0  0
  174.7643   19.1785   49.1265 H   0  0  0  0  0  0  0  0  0  0  0  0
  174.1110   18.1660   46.0880 H   0  0  0  0  0  0  0  0  0  0  0  0
  176.7054   18.7344   45.2969 H   0  0  0  0  0  0  0  0  0  0  0  0
  178.4289   20.4076   45.9692 H   0  0  0  0  0  0  0  0  0  0  0  0
  182.3170   20.2943   48.4753 H   0  0  0  0  0  0  0  0  0  0  0  0
  184.6740   20.7570   49.6340 H   0  0  0  0  0  0  0  0  0  0  0  0
  184.1000   24.0634   49.6306 H   0  0  0  0  0  0  0  0  0  0  0  0
  181.1670   25.9190   49.3650 H   0  0  0  0  0  0  0  0  0  0  0  0
  1  2  2  0
  2  3  1  0
  3  4  1  0
  3  5  2  0
  5  6  1  0
  6  7  2  0
  7  8  1  0
  8  9  2  0
  9 10  1  0
  9 11  1  0
 11 12  2  0
  5 13  1  0
 13 14  1  0
 14 15  2  0
 15 16  1  0
 16 17  1  0
 16 18  2  0
 18 19  1  0
 19 20  1  0
 19 21  2  0
 21  2  1  0
 12  6  1  0
 21 14  1  0
  4 22  1  0
  7 23  1  0
  8 24  1  0
 10 25  1  0
 11 26  1  0
 12 27  1  0
 15 28  1  0
 17 29  1  0
 18 30  1  0
 20 31  1  0
M  END
>  <meeko>  (6) 
{"is_sidechain": [false], "free_energy": -6.659, "intermolecular_energy": -7.935, "internal_energy": -0.193}

$$$$
kaempferol_out
     RDKit          3D

 31 33  0  0  0  0  0  0  0  0999 V2000
  179.0180   25.3560   49.5440 O   0  0  0  0  0  0  0  0  0  0  0  0
  179.2280   24.1480   49.4530 C   0  0  0  0  0  0  0  0  0  0  0  0
  178.2040   23.2480   48.8770 C   0  0  0  0  0  0  0  0  0  0  0  0
  177.0270   23.8290   48.4430 O   0  0  0  0  0  0  0  0  0  0  0  0
  178.4780   21.9320   48.7930 C   0  0  0  0  0  0  0  0  0  0  0  0
  177.5390   20.9410   48.2250 C   0  0  0  0  0  0  0  0  0  0  0  0
  177.6610   20.4800   46.9050 C   0  0  0  0  0  0  0  0  0  0  0  0
  176.7490   19.5600   46.3790 C   0  0  0  0  0  0  0  0  0  0  0  0
  175.7020   19.1040   47.1720 C   0  0  0  0  0  0  0  0  0  0  0  0
  174.7910   18.2070   46.7000 O   0  0  0  0  0  0  0  0  0  0  0  0
  175.5540   19.5530   48.4760 C   0  0  0  0  0  0  0  0  0  0  0  0
  176.4670   20.4720   49.0010 C   0  0  0  0  0  0  0  0  0  0  0  0
  179.6770   21.3630   49.2090 O   0  0  0  0  0  0  0  0  0  0  0  0
  180.6430   22.1710   49.7530 C   0  0  0  0  0  0  0  0  0  0  0  0
  181.8250   21.5580   50.1670 C   0  0  0  0  0  0  0  0  0  0  0  0
  182.8390   22.3310   50.7250 C   0  0  0  0  0  0  0  0  0  0  0  0
  183.9780   21.6920   51.1160 O   0  0  0  0  0  0  0  0  0  0  0  0
  182.6930   23.7080   50.8780 C   0  0  0  0  0  0  0  0  0  0  0  0
  181.5100   24.3140   50.4630 C   0  0  0  0  0  0  0  0  0  0  0  0
  181.4190   25.6690   50.6370 O   0  0  0  0  0  0  0  0  0  0  0  0
  180.4850   23.5460   49.9010 C   0  0  0  0  0  0  0  0  0  0  0  0
  176.4340   24.2040   49.0640 H   0  0  0  0  0  0  0  0  0  0  0  0
  178.4851   20.8474   46.2759 H   0  0  0  0  0  0  0  0  0  0  0  0
  176.8590   19.1997   45.3455 H   0  0  0  0  0  0  0  0  0  0  0  0
  174.6030   17.4290   47.1880 H   0  0  0  0  0  0  0  0  0  0  0  0
  174.7213   19.1872   49.0947 H   0  0  0  0  0  0  0  0  0  0  0  0
  176.3443   20.8317   50.0333 H   0  0  0  0  0  0  0  0  0  0  0  0
  181.9551   20.4716   50.0534 H   0  0  0  0  0  0  0  0  0  0  0  0
  184.0480   20.7630   51.0240 H   0  0  0  0  0  0  0  0  0  0  0  0
  183.5014   24.3085   51.3207 H   0  0  0  0  0  0  0  0  0  0  0  0
  180.9780   26.0180   51.3860 H   0  0  0  0  0  0  0  0  0  0  0  0
  1  2  2  0
  2  3  1  0
  3  4  1  0
  3  5  2  0
  5  6  1  0
  6  7  2  0
  7  8  1  0
  8  9  2  0
  9 10  1  0
  9 11  1  0
 11 12  2  0
  5 13  1  0
 13 14  1  0
 14 15  2  0
 15 16  1  0
 16 17  1  0
 16 18  2  0
 18 19  1  0
 19 20  1  0
 19 21  2  0
 21  2  1  0
 12  6  1  0
 21 14  1  0
  4 22  1  0
  7 23  1  0
  8 24  1  0
 10 25  1  0
 11 26  1  0
 12 27  1  0
 15 28  1  0
 17 29  1  0
 18 30  1  0
 20 31  1  0
M  END
>  <meeko>  (7) 
{"is_sidechain": [false], "free_energy": -6.548, "intermolecular_energy": -7.72, "internal_energy": -0.278}

$$$$
kaempferol_out
     RDKit          3D

 31 33  0  0  0  0  0  0  0  0999 V2000
  179.6970   21.8940   51.8200 O   0  0  0  0  0  0  0  0  0  0  0  0
  179.0280   22.0620   50.8020 C   0  0  0  0  0  0  0  0  0  0  0  0
  177.6670   22.6410   50.8830 C   0  0  0  0  0  0  0  0  0  0  0  0
  177.2050   22.9870   52.1400 O   0  0  0  0  0  0  0  0  0  0  0  0
  176.9710   22.8100   49.7440 C   0  0  0  0  0  0  0  0  0  0  0  0
  175.6120   23.3900   49.7000 C   0  0  0  0  0  0  0  0  0  0  0  0
  174.4770   22.5990   49.4620 C   0  0  0  0  0  0  0  0  0  0  0  0
  173.2030   23.1700   49.4010 C   0  0  0  0  0  0  0  0  0  0  0  0
  173.0600   24.5420   49.5710 C   0  0  0  0  0  0  0  0  0  0  0  0
  171.8370   25.1410   49.5210 O   0  0  0  0  0  0  0  0  0  0  0  0
  174.1670   25.3480   49.7980 C   0  0  0  0  0  0  0  0  0  0  0  0
  175.4400   24.7750   49.8590 C   0  0  0  0  0  0  0  0  0  0  0  0
  177.4580   22.4820   48.4830 O   0  0  0  0  0  0  0  0  0  0  0  0
  178.7130   21.9370   48.3760 C   0  0  0  0  0  0  0  0  0  0  0  0
  179.1580   21.6120   47.0950 C   0  0  0  0  0  0  0  0  0  0  0  0
  180.4240   21.0580   46.9290 C   0  0  0  0  0  0  0  0  0  0  0  0
  180.8200   20.7560   45.6600 O   0  0  0  0  0  0  0  0  0  0  0  0
  181.2550   20.8220   48.0220 C   0  0  0  0  0  0  0  0  0  0  0  0
  180.8050   21.1480   49.2990 C   0  0  0  0  0  0  0  0  0  0  0  0
  181.6610   20.8950   50.3360 O   0  0  0  0  0  0  0  0  0  0  0  0
  179.5340   21.7060   49.4760 C   0  0  0  0  0  0  0  0  0  0  0  0
  176.5220   23.6230   52.2280 H   0  0  0  0  0  0  0  0  0  0  0  0
  174.5921   21.5141   49.3215 H   0  0  0  0  0  0  0  0  0  0  0  0
  172.3205   22.5388   49.2199 H   0  0  0  0  0  0  0  0  0  0  0  0
  171.2640   24.9780   48.7970 H   0  0  0  0  0  0  0  0  0  0  0  0
  174.0427   26.4330   49.9293 H   0  0  0  0  0  0  0  0  0  0  0  0
  176.3171   25.4156   50.0335 H   0  0  0  0  0  0  0  0  0  0  0  0
  178.5133   21.7921   46.2222 H   0  0  0  0  0  0  0  0  0  0  0  0
  180.3000   20.1830   45.1320 H   0  0  0  0  0  0  0  0  0  0  0  0
  182.2537   20.3838   47.8782 H   0  0  0  0  0  0  0  0  0  0  0  0
  181.7910   20.0170   50.6340 H   0  0  0  0  0  0  0  0  0  0  0  0
  1  2  2  0
  2  3  1  0
  3  4  1  0
  3  5  2  0
  5  6  1  0
  6  7  2  0
  7  8  1  0
  8  9  2  0
  9 10  1  0
  9 11  1  0
 11 12  2  0
  5 13  1  0
 13 14  1  0
 14 15  2  0
 15 16  1  0
 16 17  1  0
 16 18  2  0
 18 19  1  0
 19 20  1  0
 19 21  2  0
 21  2  1  0
 12  6  1  0
 21 14  1  0
  4 22  1  0
  7 23  1  0
  8 24  1  0
 10 25  1  0
 11 26  1  0
 12 27  1  0
 15 28  1  0
 17 29  1  0
 18 30  1  0
 20 31  1  0
M  END
>  <meeko>  (8) 
{"is_sidechain": [false], "free_energy": -6.528, "intermolecular_energy": -7.718, "internal_energy": -0.256}

$$$$
kaempferol_out
     RDKit          3D

 31 33  0  0  0  0  0  0  0  0999 V2000
  176.0700   22.7890   49.7240 O   0  0  0  0  0  0  0  0  0  0  0  0
  176.8810   22.1570   49.0510 C   0  0  0  0  0  0  0  0  0  0  0  0
  178.3130   22.5340   49.0470 C   0  0  0  0  0  0  0  0  0  0  0  0
  178.6830   23.6060   49.8380 O   0  0  0  0  0  0  0  0  0  0  0  0
  179.1670   21.8120   48.2980 C   0  0  0  0  0  0  0  0  0  0  0  0
  180.6180   22.0870   48.2270 C   0  0  0  0  0  0  0  0  0  0  0  0
  181.1190   23.2860   47.6960 C   0  0  0  0  0  0  0  0  0  0  0  0
  182.4960   23.5160   47.6170 C   0  0  0  0  0  0  0  0  0  0  0  0
  183.3790   22.5400   48.0630 C   0  0  0  0  0  0  0  0  0  0  0  0
  184.7290   22.7220   48.0050 O   0  0  0  0  0  0  0  0  0  0  0  0
  182.9090   21.3420   48.5820 C   0  0  0  0  0  0  0  0  0  0  0  0
  181.5330   21.1140   48.6620 C   0  0  0  0  0  0  0  0  0  0  0  0
  178.7860   20.7190   47.5270 O   0  0  0  0  0  0  0  0  0  0  0  0
  177.4650   20.3490   47.5040 C   0  0  0  0  0  0  0  0  0  0  0  0
  177.1250   19.2550   46.7090 C   0  0  0  0  0  0  0  0  0  0  0  0
  175.7990   18.8360   46.6500 C   0  0  0  0  0  0  0  0  0  0  0  0
  175.5100   17.7630   45.8620 O   0  0  0  0  0  0  0  0  0  0  0  0
  174.8050   19.4930   47.3710 C   0  0  0  0  0  0  0  0  0  0  0  0
  175.1500   20.5850   48.1630 C   0  0  0  0  0  0  0  0  0  0  0  0
  174.1340   21.1930   48.8500 O   0  0  0  0  0  0  0  0  0  0  0  0
  176.4800   21.0140   48.2290 C   0  0  0  0  0  0  0  0  0  0  0  0
  178.3960   24.4710   49.6190 H   0  0  0  0  0  0  0  0  0  0  0  0
  180.4190   24.0549   47.3372 H   0  0  0  0  0  0  0  0  0  0  0  0
  182.8773   24.4620   47.2051 H   0  0  0  0  0  0  0  0  0  0  0  0
  185.0800   23.5300   47.6830 H   0  0  0  0  0  0  0  0  0  0  0  0
  183.6170   20.5749   48.9290 H   0  0  0  0  0  0  0  0  0  0  0  0
  181.1621   20.1622   49.0701 H   0  0  0  0  0  0  0  0  0  0  0  0
  177.8990   18.7270   46.1327 H   0  0  0  0  0  0  0  0  0  0  0  0
  174.8620   17.8370   45.1890 H   0  0  0  0  0  0  0  0  0  0  0  0
  173.7602   19.1534   47.3155 H   0  0  0  0  0  0  0  0  0  0  0  0
  174.1160   22.1260   48.9320 H   0  0  0  0  0  0  0  0  0  0  0  0
  1  2  2  0
  2  3  1  0
  3  4  1  0
  3  5  2  0
  5  6  1  0
  6  7  2  0
  7  8  1  0
  8  9  2  0
  9 10  1  0
  9 11  1  0
 11 12  2  0
  5 13  1  0
 13 14  1  0
 14 15  2  0
 15 16  1  0
 16 17  1  0
 16 18  2  0
 18 19  1  0
 19 20  1  0
 19 21  2  0
 21  2  1  0
 12  6  1  0
 21 14  1  0
  4 22  1  0
  7 23  1  0
  8 24  1  0
 10 25  1  0
 11 26  1  0
 12 27  1  0
 15 28  1  0
 17 29  1  0
 18 30  1  0
 20 31  1  0
M  END
>  <meeko>  (9) 
{"is_sidechain": [false], "free_energy": -6.46, "intermolecular_energy": -7.703, "internal_energy": -0.19}

$$$$
