native_VP7_out
     RDKit          3D

 45 48  0  0  0  0  0  0  0  0999 V2000
  180.5080   14.6620   43.3010 C   0  0  0  0  0  0  0  0  0  0  0  0
  181.3460   15.8390   42.8080 C   0  0  0  0  0  0  0  0  0  0  0  0
  180.9730   16.2030   41.3720 C   0  0  0  0  0  0  0  0  0  0  0  0
  182.7140   15.4350   42.8280 O   0  0  0  0  0  0  0  0  0  0  0  0
  181.1790   17.0000   43.6960 C   0  0  0  0  0  0  0  0  0  0  0  0
  181.0470   17.9510   44.4200 C   0  0  0  0  0  0  0  0  0  0  0  0
  180.8910   19.0760   45.2760 C   0  0  0  0  0  0  0  0  0  0  0  0
  182.0020   20.0120   45.4170 C   0  0  0  0  0  0  0  0  0  0  0  0
  181.9420   21.1100   46.1910 C   0  0  0  0  0  0  0  0  0  0  0  0
  180.7010   21.3910   46.9420 C   0  0  0  0  0  0  0  0  0  0  0  0
  179.6100   20.4170   46.7910 C   0  0  0  0  0  0  0  0  0  0  0  0
  179.7370   19.2740   45.9390 C   0  0  0  0  0  0  0  0  0  0  0  0
  178.6520   20.9290   47.5680 C   0  0  0  0  0  0  0  0  0  0  0  0
  177.2860   20.4310   47.7080 C   0  0  0  0  0  0  0  0  0  0  0  0
  176.9980   19.3720   46.9160 N   0  0  0  0  0  0  0  0  0  0  0  0
  175.7670   18.8710   46.9760 C   0  0  0  0  0  0  0  0  0  0  0  0
  175.4700   17.8040   46.1550 N   0  0  0  0  0  0  0  0  0  0  0  0
  174.7890   19.3540   47.7380 N   0  0  0  0  0  0  0  0  0  0  0  0
  175.1070   20.4010   48.5200 C   0  0  0  0  0  0  0  0  0  0  0  0
  176.3520   21.0020   48.5530 C   0  0  0  0  0  0  0  0  0  0  0  0
  176.6260   22.1170   49.5160 C   0  0  0  0  0  0  0  0  0  0  0  0
  177.8470   21.8850   50.4150 C   0  0  0  0  0  0  0  0  0  0  0  0
  179.1810   22.1900   49.7400 C   0  0  0  0  0  0  0  0  0  0  0  0
  179.1100   22.2040   48.2140 C   0  0  1  0  0  0  0  0  0  0  0  0
  180.5000   22.4170   47.7100 N   0  0  0  0  0  0  0  0  0  0  0  0
  180.5010   14.6521   44.4009 H   0  0  0  0  0  0  0  0  0  0  0  0
  179.4780   14.7638   42.9286 H   0  0  0  0  0  0  0  0  0  0  0  0
  180.9413   13.7220   42.9286 H   0  0  0  0  0  0  0  0  0  0  0  0
  180.1858   16.9712   41.3811 H   0  0  0  0  0  0  0  0  0  0  0  0
  181.8596   16.5927   40.8504 H   0  0  0  0  0  0  0  0  0  0  0  0
  180.6050   15.3071   40.8504 H   0  0  0  0  0  0  0  0  0  0  0  0
  183.2810   16.2180   42.9110 H   0  0  0  0  0  0  0  0  0  0  0  0
  182.9315   19.8099   44.8645 H   0  0  0  0  0  0  0  0  0  0  0  0
  182.8043   21.7891   46.2640 H   0  0  0  0  0  0  0  0  0  0  0  0
  178.9020   18.5666   45.8276 H   0  0  0  0  0  0  0  0  0  0  0  0
  175.5880   17.8840   45.1810 H   0  0  0  0  0  0  0  0  0  0  0  0
  175.1400   16.9610   46.5430 H   0  0  0  0  0  0  0  0  0  0  0  0
  174.3240   20.8066   49.1776 H   0  0  0  0  0  0  0  0  0  0  0  0
  176.7927   23.0384   48.9387 H   0  0  0  0  0  0  0  0  0  0  0  0
  175.7519   22.1829   50.1805 H   0  0  0  0  0  0  0  0  0  0  0  0
  177.7520   22.5302   51.3009 H   0  0  0  0  0  0  0  0  0  0  0  0
  177.8563   20.8149   50.6697 H   0  0  0  0  0  0  0  0  0  0  0  0
  179.5242   23.1781   50.0804 H   0  0  0  0  0  0  0  0  0  0  0  0
  179.8745   21.3839   50.0214 H   0  0  0  0  0  0  0  0  0  0  0  0
  178.3774   22.9849   47.9620 H   0  0  0  0  0  0  0  0  0  0  0  0
  1  2  1  0
  2  3  1  0
  2  4  1  0
  2  5  1  0
  5  6  3  0
  6  7  1  0
  7  8  1  0
  8  9  2  0
  9 10  1  0
 10 11  1  0
 11 12  1  0
 11 13  2  0
 13 14  1  0
 14 15  2  0
 15 16  1  0
 16 17  1  0
 16 18  2  0
 18 19  1  0
 19 20  2  0
 20 21  1  0
 21 22  1  0
 22 23  1  0
 23 24  1  0
 24 25  1  0
 12  7  2  0
 24 13  1  0
 25 10  2  0
 20 14  1  0
  1 26  1  0
  1 27  1  0
  1 28  1  0
  3 29  1  0
  3 30  1  0
  3 31  1  0
  4 32  1  0
  8 33  1  0
  9 34  1  0
 12 35  1  0
 17 36  1  0
 17 37  1  0
 19 38  1  0
 21 39  1  0
 21 40  1  0
 22 41  1  0
 22 42  1  0
 23 43  1  0
 23 44  1  0
 24 45  1  1
M  END
>  <meeko>  (1) 
{"is_sidechain": [false], "free_energy": -8.964, "intermolecular_energy": -12.108, "internal_energy": 1.134}

$$$$
native_VP7_out
     RDKit          3D

 45 48  0  0  0  0  0  0  0  0999 V2000
  173.3550   24.2050   52.1070 C   0  0  0  0  0  0  0  0  0  0  0  0
  172.7320   23.6680   50.8210 C   0  0  0  0  0  0  0  0  0  0  0  0
  171.9700   24.7710   50.0880 C   0  0  0  0  0  0  0  0  0  0  0  0
  171.8030   22.6470   51.1830 O   0  0  0  0  0  0  0  0  0  0  0  0
  173.7650   23.0860   49.9500 C   0  0  0  0  0  0  0  0  0  0  0  0
  174.6050   22.6080   49.2360 C   0  0  0  0  0  0  0  0  0  0  0  0
  175.5990   22.0420   48.3900 C   0  0  0  0  0  0  0  0  0  0  0  0
  175.1820   21.1400   47.3200 C   0  0  0  0  0  0  0  0  0  0  0  0
  176.0470   20.5690   46.4630 C   0  0  0  0  0  0  0  0  0  0  0  0
  177.4900   20.8570   46.6040 C   0  0  0  0  0  0  0  0  0  0  0  0
  177.8750   21.7540   47.7030 C   0  0  0  0  0  0  0  0  0  0  0  0
  176.8990   22.3380   48.5720 C   0  0  0  0  0  0  0  0  0  0  0  0
  179.2030   21.8190   47.5760 C   0  0  0  0  0  0  0  0  0  0  0  0
  180.1090   22.6710   48.3410 C   0  0  0  0  0  0  0  0  0  0  0  0
  179.6710   23.9400   48.5060 N   0  0  0  0  0  0  0  0  0  0  0  0
  180.4500   24.7820   49.1810 C   0  0  0  0  0  0  0  0  0  0  0  0
  180.0090   26.0800   49.3330 N   0  0  0  0  0  0  0  0  0  0  0  0
  181.6430   24.4730   49.6810 N   0  0  0  0  0  0  0  0  0  0  0  0
  182.0490   23.2030   49.5080 C   0  0  0  0  0  0  0  0  0  0  0  0
  181.3260   22.2360   48.8350 C   0  0  0  0  0  0  0  0  0  0  0  0
  181.8340   20.8280   48.7620 C   0  0  0  0  0  0  0  0  0  0  0  0
  181.9450   20.2600   47.3490 C   0  0  0  0  0  0  0  0  0  0  0  0
  180.6000   19.8200   46.7770 C   0  0  0  0  0  0  0  0  0  0  0  0
  179.6730   20.9820   46.4230 C   0  0  1  0  0  0  0  0  0  0  0  0
  178.4300   20.3900   45.8400 N   0  0  0  0  0  0  0  0  0  0  0  0
  172.8429   23.7636   52.9747 H   0  0  0  0  0  0  0  0  0  0  0  0
  174.4219   23.9389   52.1365 H   0  0  0  0  0  0  0  0  0  0  0  0
  173.2491   25.2995   52.1365 H   0  0  0  0  0  0  0  0  0  0  0  0
  171.5043   25.4450   50.8221 H   0  0  0  0  0  0  0  0  0  0  0  0
  172.6675   25.3415   49.4571 H   0  0  0  0  0  0  0  0  0  0  0  0
  171.1896   24.3205   49.4571 H   0  0  0  0  0  0  0  0  0  0  0  0
  170.9040   22.9310   50.9520 H   0  0  0  0  0  0  0  0  0  0  0  0
  174.1105   20.9172   47.2098 H   0  0  0  0  0  0  0  0  0  0  0  0
  175.6863   19.8981   45.6694 H   0  0  0  0  0  0  0  0  0  0  0  0
  177.2076   23.0199   49.3781 H   0  0  0  0  0  0  0  0  0  0  0  0
  179.6060   26.3660   50.1840 H   0  0  0  0  0  0  0  0  0  0  0  0
  180.0980   26.7200   48.5900 H   0  0  0  0  0  0  0  0  0  0  0  0
  183.0225   22.9139   49.9307 H   0  0  0  0  0  0  0  0  0  0  0  0
  182.8331   20.8004   49.2214 H   0  0  0  0  0  0  0  0  0  0  0  0
  181.0966   20.2049   49.2893 H   0  0  0  0  0  0  0  0  0  0  0  0
  182.3692   21.0338   46.6923 H   0  0  0  0  0  0  0  0  0  0  0  0
  182.5881   19.3691   47.4015 H   0  0  0  0  0  0  0  0  0  0  0  0
  180.7856   19.2337   45.8650 H   0  0  0  0  0  0  0  0  0  0  0  0
  180.0952   19.2327   47.5582 H   0  0  0  0  0  0  0  0  0  0  0  0
  180.2589   21.6339   45.7584 H   0  0  0  0  0  0  0  0  0  0  0  0
  1  2  1  0
  2  3  1  0
  2  4  1  0
  2  5  1  0
  5  6  3  0
  6  7  1  0
  7  8  1  0
  8  9  2  0
  9 10  1  0
 10 11  1  0
 11 12  1  0
 11 13  2  0
 13 14  1  0
 14 15  2  0
 15 16  1  0
 16 17  1  0
 16 18  2  0
 18 19  1  0
 19 20  2  0
 20 21  1  0
 21 22  1  0
 22 23  1  0
 23 24  1  0
 24 25  1  0
 12  7  2  0
 24 13  1  0
 25 10  2  0
 20 14  1  0
  1 26  1  0
  1 27  1  0
  1 28  1  0
  3 29  1  0
  3 30  1  0
  3 31  1  0
  4 32  1  0
  8 33  1  0
  9 34  1  0
 12 35  1  0
 17 36  1  0
 17 37  1  0
 19 38  1  0
 21 39  1  0
 21 40  1  0
 22 41  1  0
 22 42  1  0
 23 43  1  0
 23 44  1  0
 24 45  1  6
M  END
>  <meeko>  (2) 
{"is_sidechain": [false], "free_energy": -7.041, "intermolecular_energy": -8.617, "internal_energy": 0.24}

$$$$
native_VP7_out
     RDKit          3D

 45 48  0  0  0  0  0  0  0  0999 V2000
  175.9710   25.7130   53.3070 C   0  0  0  0  0  0  0  0  0  0  0  0
  175.5590   24.2460   53.3850 C   0  0  0  0  0  0  0  0  0  0  0  0
  174.0730   24.1190   53.7190 C   0  0  0  0  0  0  0  0  0  0  0  0
  176.3080   23.6410   54.4390 O   0  0  0  0  0  0  0  0  0  0  0  0
  175.8670   23.5540   52.1230 C   0  0  0  0  0  0  0  0  0  0  0  0
  176.1180   22.9860   51.0950 C   0  0  0  0  0  0  0  0  0  0  0  0
  176.4160   22.3120   49.8770 C   0  0  0  0  0  0  0  0  0  0  0  0
  175.3410   21.6120   49.1810 C   0  0  0  0  0  0  0  0  0  0  0  0
  175.5230   20.9600   48.0190 C   0  0  0  0  0  0  0  0  0  0  0  0
  176.8700   20.9420   47.4110 C   0  0  0  0  0  0  0  0  0  0  0  0
  177.9320   21.6410   48.1490 C   0  0  0  0  0  0  0  0  0  0  0  0
  177.6640   22.3270   49.3770 C   0  0  0  0  0  0  0  0  0  0  0  0
  179.0010   21.4530   47.3720 C   0  0  0  0  0  0  0  0  0  0  0  0
  180.3270   22.0360   47.5610 C   0  0  0  0  0  0  0  0  0  0  0  0
  180.3140   23.3450   47.9010 N   0  0  0  0  0  0  0  0  0  0  0  0
  181.4860   23.9510   48.0760 C   0  0  0  0  0  0  0  0  0  0  0  0
  181.4710   25.2900   48.4050 N   0  0  0  0  0  0  0  0  0  0  0  0
  182.6710   23.3690   47.9120 N   0  0  0  0  0  0  0  0  0  0  0  0
  182.6520   22.0660   47.5820 C   0  0  0  0  0  0  0  0  0  0  0  0
  181.5010   21.3270   47.3820 C   0  0  0  0  0  0  0  0  0  0  0  0
  181.5880   19.8590   47.0900 C   0  0  0  0  0  0  0  0  0  0  0  0
  180.8590   19.4080   45.8300 C   0  0  0  0  0  0  0  0  0  0  0  0
  179.3500   19.2970   46.0250 C   0  0  0  0  0  0  0  0  0  0  0  0
  178.6460   20.6470   46.1580 C   0  0  1  0  0  0  0  0  0  0  0  0
  177.1840   20.3690   46.2890 N   0  0  0  0  0  0  0  0  0  0  0  0
  176.0843   26.1166   54.3240 H   0  0  0  0  0  0  0  0  0  0  0  0
  176.9275   25.7972   52.7704 H   0  0  0  0  0  0  0  0  0  0  0  0
  175.1981   26.2829   52.7704 H   0  0  0  0  0  0  0  0  0  0  0  0
  173.9423   24.1078   54.8112 H   0  0  0  0  0  0  0  0  0  0  0  0
  173.5271   24.9738   53.2931 H   0  0  0  0  0  0  0  0  0  0  0  0
  173.6801   23.1840   53.2931 H   0  0  0  0  0  0  0  0  0  0  0  0
  176.2460   22.6750   54.3650 H   0  0  0  0  0  0  0  0  0  0  0  0
  174.3357   21.6180   49.6274 H   0  0  0  0  0  0  0  0  0  0  0  0
  174.6821   20.4479   47.5285 H   0  0  0  0  0  0  0  0  0  0  0  0
  178.4690   22.8595   49.9046 H   0  0  0  0  0  0  0  0  0  0  0  0
  181.2240   25.9610   47.7270 H   0  0  0  0  0  0  0  0  0  0  0  0
  181.7070   25.5760   49.3170 H   0  0  0  0  0  0  0  0  0  0  0  0
  183.6178   21.5531   47.4631 H   0  0  0  0  0  0  0  0  0  0  0  0
  182.6504   19.5950   46.9824 H   0  0  0  0  0  0  0  0  0  0  0  0
  181.0938   19.3490   47.9300 H   0  0  0  0  0  0  0  0  0  0  0  0
  181.0569   20.1367   45.0301 H   0  0  0  0  0  0  0  0  0  0  0  0
  181.2333   18.4061   45.5727 H   0  0  0  0  0  0  0  0  0  0  0  0
  178.9260   18.7682   45.1586 H   0  0  0  0  0  0  0  0  0  0  0  0
  179.1871   18.7555   46.9686 H   0  0  0  0  0  0  0  0  0  0  0  0
  178.9526   21.2269   45.2750 H   0  0  0  0  0  0  0  0  0  0  0  0
  1  2  1  0
  2  3  1  0
  2  4  1  0
  2  5  1  0
  5  6  3  0
  6  7  1  0
  7  8  1  0
  8  9  2  0
  9 10  1  0
 10 11  1  0
 11 12  1  0
 11 13  2  0
 13 14  1  0
 14 15  2  0
 15 16  1  0
 16 17  1  0
 16 18  2  0
 18 19  1  0
 19 20  2  0
 20 21  1  0
 21 22  1  0
 22 23  1  0
 23 24  1  0
 24 25  1  0
 12  7  2  0
 24 13  1  0
 25 10  2  0
 20 14  1  0
  1 26  1  0
  1 27  1  0
  1 28  1  0
  3 29  1  0
  3 30  1  0
  3 31  1  0
  4 32  1  0
  8 33  1  0
  9 34  1  0
 12 35  1  0
 17 36  1  0
 17 37  1  0
 19 38  1  0
 21 39  1  0
 21 40  1  0
 22 41  1  0
 22 42  1  0
 23 43  1  0
 23 44  1  0
 24 45  1  6
M  END
>  <meeko>  (3) 
{"is_sidechain": [false], "free_energy": -6.986, "intermolecular_energy": -8.551, "internal_energy": 0.25}

$$$$
native_VP7_out
     RDKit          3D

 45 48  0  0  0  0  0  0  0  0999 V2000
  185.8850   22.2690   44.3460 C   0  0  0  0  0  0  0  0  0  0  0  0
  185.0690   23.0240   45.3920 C   0  0  0  0  0  0  0  0  0  0  0  0
  184.8730   24.4810   44.9760 C   0  0  0  0  0  0  0  0  0  0  0  0
  185.8060   23.0020   46.6140 O   0  0  0  0  0  0  0  0  0  0  0  0
  183.7700   22.3670   45.6080 C   0  0  0  0  0  0  0  0  0  0  0  0
  182.7080   21.8330   45.7880 C   0  0  0  0  0  0  0  0  0  0  0  0
  181.4520   21.2010   46.0010 C   0  0  0  0  0  0  0  0  0  0  0  0
  181.0420   20.1290   45.0990 C   0  0  0  0  0  0  0  0  0  0  0  0
  179.8800   19.4650   45.2300 C   0  0  0  0  0  0  0  0  0  0  0  0
  178.9660   19.8300   46.3320 C   0  0  0  0  0  0  0  0  0  0  0  0
  179.4020   20.9260   47.2090 C   0  0  0  0  0  0  0  0  0  0  0  0
  180.6600   21.5830   47.0190 C   0  0  0  0  0  0  0  0  0  0  0  0
  178.3960   21.0220   48.0810 C   0  0  0  0  0  0  0  0  0  0  0  0
  178.3460   21.8790   49.2630 C   0  0  0  0  0  0  0  0  0  0  0  0
  179.4900   21.8940   49.9850 N   0  0  0  0  0  0  0  0  0  0  0  0
  179.5170   22.6420   51.0860 C   0  0  0  0  0  0  0  0  0  0  0  0
  180.6770   22.6420   51.8310 N   0  0  0  0  0  0  0  0  0  0  0  0
  178.4900   23.3540   51.5430 N   0  0  0  0  0  0  0  0  0  0  0  0
  177.3700   23.3260   50.7990 C   0  0  0  0  0  0  0  0  0  0  0  0
  177.2240   22.5970   49.6340 C   0  0  0  0  0  0  0  0  0  0  0  0
  175.9570   22.6930   48.8380 C   0  0  0  0  0  0  0  0  0  0  0  0
  175.2870   21.3540   48.5430 C   0  0  0  0  0  0  0  0  0  0  0  0
  175.9570   20.5850   47.4090 C   0  0  0  0  0  0  0  0  0  0  0  0
  177.3260   20.0140   47.7780 C   0  0  1  0  0  0  0  0  0  0  0  0
  177.8260   19.2640   46.5860 N   0  0  0  0  0  0  0  0  0  0  0  0
  186.6026   21.6050   44.8501 H   0  0  0  0  0  0  0  0  0  0  0  0
  185.2102   21.6697   43.7171 H   0  0  0  0  0  0  0  0  0  0  0  0
  186.4302   22.9882   43.7171 H   0  0  0  0  0  0  0  0  0  0  0  0
  184.7883   25.1105   45.8741 H   0  0  0  0  0  0  0  0  0  0  0  0
  185.7349   24.8105   44.3772 H   0  0  0  0  0  0  0  0  0  0  0  0
  183.9547   24.5710   44.3772 H   0  0  0  0  0  0  0  0  0  0  0  0
  185.8190   22.0980   46.9670 H   0  0  0  0  0  0  0  0  0  0  0  0
  181.7147   19.8515   44.2740 H   0  0  0  0  0  0  0  0  0  0  0  0
  179.6139   18.6619   44.5270 H   0  0  0  0  0  0  0  0  0  0  0  0
  180.9748   22.3900   47.6970 H   0  0  0  0  0  0  0  0  0  0  0  0
  180.9630   21.8230   52.2960 H   0  0  0  0  0  0  0  0  0  0  0  0
  181.2190   23.4610   51.8990 H   0  0  0  0  0  0  0  0  0  0  0  0
  176.5122   23.9237   51.1408 H   0  0  0  0  0  0  0  0  0  0  0  0
  175.2455   23.3158   49.4000 H   0  0  0  0  0  0  0  0  0  0  0  0
  176.2334   23.1236   47.8643 H   0  0  0  0  0  0  0  0  0  0  0  0
  175.3227   20.7370   49.4530 H   0  0  0  0  0  0  0  0  0  0  0  0
  174.2545   21.5668   48.2289 H   0  0  0  0  0  0  0  0  0  0  0  0
  175.3000   19.7518   47.1189 H   0  0  0  0  0  0  0  0  0  0  0  0
  176.1175   21.2989   46.5876 H   0  0  0  0  0  0  0  0  0  0  0  0
  177.1606   19.4220   48.6902 H   0  0  0  0  0  0  0  0  0  0  0  0
  1  2  1  0
  2  3  1  0
  2  4  1  0
  2  5  1  0
  5  6  3  0
  6  7  1  0
  7  8  1  0
  8  9  2  0
  9 10  1  0
 10 11  1  0
 11 12  1  0
 11 13  2  0
 13 14  1  0
 14 15  2  0
 15 16  1  0
 16 17  1  0
 16 18  2  0
 18 19  1  0
 19 20  2  0
 20 21  1  0
 21 22  1  0
 22 23  1  0
 23 24  1  0
 24 25  1  0
 12  7  2  0
 24 13  1  0
 25 10  2  0
 20 14  1  0
  1 26  1  0
  1 27  1  0
  1 28  1  0
  3 29  1  0
  3 30  1  0
  3 31  1  0
  4 32  1  0
  8 33  1  0
  9 34  1  0
 12 35  1  0
 17 36  1  0
 17 37  1  0
 19 38  1  0
 21 39  1  0
 21 40  1  0
 22 41  1  0
 22 42  1  0
 23 43  1  0
 23 44  1  0
 24 45  1  1
M  END
>  <meeko>  (4) 
{"is_sidechain": [false], "free_energy": -6.904, "intermolecular_energy": -8.434, "internal_energy": 0.243}

$$$$
native_VP7_out
     RDKit          3D

 45 48  0  0  0  0  0  0  0  0999 V2000
  181.0190   15.2840   43.9520 C   0  0  0  0  0  0  0  0  0  0  0  0
  181.2990   16.7330   43.5600 C   0  0  0  0  0  0  0  0  0  0  0  0
  180.8130   17.0110   42.1380 C   0  0  0  0  0  0  0  0  0  0  0  0
  182.7120   16.9270   43.5960 O   0  0  0  0  0  0  0  0  0  0  0  0
  180.6660   17.6580   44.5130 C   0  0  0  0  0  0  0  0  0  0  0  0
  180.1520   18.4170   45.2900 C   0  0  0  0  0  0  0  0  0  0  0  0
  179.5440   19.3160   46.2100 C   0  0  0  0  0  0  0  0  0  0  0  0
  178.1230   19.1650   46.5050 C   0  0  0  0  0  0  0  0  0  0  0  0
  177.4650   19.9570   47.3710 C   0  0  0  0  0  0  0  0  0  0  0  0
  178.2040   21.0360   48.0580 C   0  0  0  0  0  0  0  0  0  0  0  0
  179.6290   21.1710   47.7220 C   0  0  0  0  0  0  0  0  0  0  0  0
  180.2690   20.2840   46.8000 C   0  0  0  0  0  0  0  0  0  0  0  0
  180.0110   22.2020   48.4790 C   0  0  0  0  0  0  0  0  0  0  0  0
  181.3730   22.7070   48.6380 C   0  0  0  0  0  0  0  0  0  0  0  0
  182.3070   21.7430   48.8000 N   0  0  0  0  0  0  0  0  0  0  0  0
  183.5700   22.1260   48.9670 C   0  0  0  0  0  0  0  0  0  0  0  0
  184.5180   21.1410   49.1500 N   0  0  0  0  0  0  0  0  0  0  0  0
  183.9780   23.3910   49.0130 N   0  0  0  0  0  0  0  0  0  0  0  0
  183.0280   24.3280   48.8410 C   0  0  0  0  0  0  0  0  0  0  0  0
  181.6860   24.0540   48.6510 C   0  0  0  0  0  0  0  0  0  0  0  0
  180.7190   25.1700   48.3940 C   0  0  0  0  0  0  0  0  0  0  0  0
  179.5240   25.2000   49.3430 C   0  0  0  0  0  0  0  0  0  0  0  0
  178.4500   24.1730   48.9970 C   0  0  0  0  0  0  0  0  0  0  0  0
  178.8620   22.7300   49.2870 C   0  0  1  0  0  0  0  0  0  0  0  0
  177.7020   21.8600   48.9260 N   0  0  0  0  0  0  0  0  0  0  0  0
  181.0023   15.1975   45.0485 H   0  0  0  0  0  0  0  0  0  0  0  0
  180.0447   14.9758   43.5450 H   0  0  0  0  0  0  0  0  0  0  0  0
  181.8083   14.6350   43.5450 H   0  0  0  0  0  0  0  0  0  0  0  0
  179.8588   17.5568   42.1768 H   0  0  0  0  0  0  0  0  0  0  0  0
  181.5612   17.6177   41.6069 H   0  0  0  0  0  0  0  0  0  0  0  0
  180.6693   16.0585   41.6069 H   0  0  0  0  0  0  0  0  0  0  0  0
  183.1550   16.0640   43.6370 H   0  0  0  0  0  0  0  0  0  0  0  0
  177.5637   18.3664   45.9956 H   0  0  0  0  0  0  0  0  0  0  0  0
  176.3931   19.8034   47.5645 H   0  0  0  0  0  0  0  0  0  0  0  0
  181.3405   20.3919   46.5761 H   0  0  0  0  0  0  0  0  0  0  0  0
  184.7440   20.8390   50.0590 H   0  0  0  0  0  0  0  0  0  0  0  0
  184.9700   20.7420   48.3710 H   0  0  0  0  0  0  0  0  0  0  0  0
  183.3397   25.3828   48.8523 H   0  0  0  0  0  0  0  0  0  0  0  0
  181.2597   26.1230   48.4914 H   0  0  0  0  0  0  0  0  0  0  0  0
  180.3139   25.0080   47.3842 H   0  0  0  0  0  0  0  0  0  0  0  0
  179.8835   24.9986   50.3629 H   0  0  0  0  0  0  0  0  0  0  0  0
  179.0631   26.1948   49.2537 H   0  0  0  0  0  0  0  0  0  0  0  0
  177.5489   24.4015   49.5851 H   0  0  0  0  0  0  0  0  0  0  0  0
  178.2742   24.2450   47.9135 H   0  0  0  0  0  0  0  0  0  0  0  0
  179.1673   22.7191   50.3437 H   0  0  0  0  0  0  0  0  0  0  0  0
  1  2  1  0
  2  3  1  0
  2  4  1  0
  2  5  1  0
  5  6  3  0
  6  7  1  0
  7  8  1  0
  8  9  2  0
  9 10  1  0
 10 11  1  0
 11 12  1  0
 11 13  2  0
 13 14  1  0
 14 15  2  0
 15 16  1  0
 16 17  1  0
 16 18  2  0
 18 19  1  0
 19 20  2  0
 20 21  1  0
 21 22  1  0
 22 23  1  0
 23 24  1  0
 24 25  1  0
 12  7  2  0
 24 13  1  0
 25 10  2  0
 20 14  1  0
  1 26  1  0
  1 27  1  0
  1 28  1  0
  3 29  1  0
  3 30  1  0
  3 31  1  0
  4 32  1  0
  8 33  1  0
  9 34  1  0
 12 35  1  0
 17 36  1  0
 17 37  1  0
 19 38  1  0
 21 39  1  0
 21 40  1  0
 22 41  1  0
 22 42  1  0
 23 43  1  0
 23 44  1  0
 24 45  1  1
M  END
>  <meeko>  (5) 
{"is_sidechain": [false], "free_energy": -6.798, "intermolecular_energy": -8.288, "internal_energy": 0.241}

$$$$
native_VP7_out
     RDKit          3D

 45 48  0  0  0  0  0  0  0  0999 V2000
  174.7980   20.5070   47.3140 C   0  0  0  0  0  0  0  0  0  0  0  0
  175.8280   19.4060   47.5470 C   0  0  0  0  0  0  0  0  0  0  0  0
  175.6030   18.2420   46.5820 C   0  0  0  0  0  0  0  0  0  0  0  0
  175.6540   18.9240   48.8790 O   0  0  0  0  0  0  0  0  0  0  0  0
  177.1940   19.9370   47.4070 C   0  0  0  0  0  0  0  0  0  0  0  0
  178.3100   20.3670   47.2950 C   0  0  0  0  0  0  0  0  0  0  0  0
  179.6320   20.8770   47.1630 C   0  0  0  0  0  0  0  0  0  0  0  0
  180.4710   20.3820   46.0760 C   0  0  0  0  0  0  0  0  0  0  0  0
  181.7260   20.8140   45.8630 C   0  0  0  0  0  0  0  0  0  0  0  0
  182.2960   21.8340   46.7670 C   0  0  0  0  0  0  0  0  0  0  0  0
  181.4300   22.2960   47.8620 C   0  0  0  0  0  0  0  0  0  0  0  0
  180.0970   21.8010   48.0230 C   0  0  0  0  0  0  0  0  0  0  0  0
  182.2010   23.1880   48.4880 C   0  0  0  0  0  0  0  0  0  0  0  0
  181.8060   24.0550   49.5950 C   0  0  0  0  0  0  0  0  0  0  0  0
  180.5930   24.6350   49.4390 N   0  0  0  0  0  0  0  0  0  0  0  0
  180.1690   25.4520   50.4000 C   0  0  0  0  0  0  0  0  0  0  0  0
  178.9410   26.0550   50.2310 N   0  0  0  0  0  0  0  0  0  0  0  0
  180.8650   25.7630   51.4910 N   0  0  0  0  0  0  0  0  0  0  0  0
  182.0630   25.1650   51.6220 C   0  0  0  0  0  0  0  0  0  0  0  0
  182.6060   24.2920   50.6980 C   0  0  0  0  0  0  0  0  0  0  0  0
  183.9170   23.6210   50.9740 C   0  0  0  0  0  0  0  0  0  0  0  0
  184.9650   23.8090   49.8820 C   0  0  0  0  0  0  0  0  0  0  0  0
  184.7460   22.9070   48.6710 C   0  0  0  0  0  0  0  0  0  0  0  0
  183.5400   23.3020   47.8200 C   0  0  1  0  0  0  0  0  0  0  0  0
  183.4830   22.3500   46.6700 N   0  0  0  0  0  0  0  0  0  0  0  0
  174.4422   20.8873   48.2829 H   0  0  0  0  0  0  0  0  0  0  0  0
  175.2604   21.3274   46.7455 H   0  0  0  0  0  0  0  0  0  0  0  0
  173.9487   20.1002   46.7455 H   0  0  0  0  0  0  0  0  0  0  0  0
  175.4248   17.3200   47.1549 H   0  0  0  0  0  0  0  0  0  0  0  0
  174.7293   18.4547   45.9484 H   0  0  0  0  0  0  0  0  0  0  0  0
  176.4930   18.1137   45.9484 H   0  0  0  0  0  0  0  0  0  0  0  0
  175.7190   19.6660   49.5010 H   0  0  0  0  0  0  0  0  0  0  0  0
  180.0570   19.6198   45.3995 H   0  0  0  0  0  0  0  0  0  0  0  0
  182.3198   20.4139   45.0279 H   0  0  0  0  0  0  0  0  0  0  0  0
  179.4604   22.1715   48.8400 H   0  0  0  0  0  0  0  0  0  0  0  0
  178.2200   25.8940   50.8820 H   0  0  0  0  0  0  0  0  0  0  0  0
  178.7850   26.6470   49.4600 H   0  0  0  0  0  0  0  0  0  0  0  0
  182.6502   25.3857   52.5256 H   0  0  0  0  0  0  0  0  0  0  0  0
  184.3212   24.0290   51.9122 H   0  0  0  0  0  0  0  0  0  0  0  0
  183.7112   22.5418   51.0282 H   0  0  0  0  0  0  0  0  0  0  0  0
  184.9354   24.8563   49.5468 H   0  0  0  0  0  0  0  0  0  0  0  0
  185.9389   23.5391   50.3163 H   0  0  0  0  0  0  0  0  0  0  0  0
  185.6455   22.9496   48.0393 H   0  0  0  0  0  0  0  0  0  0  0  0
  184.5501   21.8952   49.0555 H   0  0  0  0  0  0  0  0  0  0  0  0
  183.6938   24.3613   47.5667 H   0  0  0  0  0  0  0  0  0  0  0  0
  1  2  1  0
  2  3  1  0
  2  4  1  0
  2  5  1  0
  5  6  3  0
  6  7  1  0
  7  8  1  0
  8  9  2  0
  9 10  1  0
 10 11  1  0
 11 12  1  0
 11 13  2  0
 13 14  1  0
 14 15  2  0
 15 16  1  0
 16 17  1  0
 16 18  2  0
 18 19  1  0
 19 20  2  0
 20 21  1  0
 21 22  1  0
 22 23  1  0
 23 24  1  0
 24 25  1  0
 12  7  2  0
 24 13  1  0
 25 10  2  0
 20 14  1  0
  1 26  1  0
  1 27  1  0
  1 28  1  0
  3 29  1  0
  3 30  1  0
  3 31  1  0
  4 32  1  0
  8 33  1  0
  9 34  1  0
 12 35  1  0
 17 36  1  0
 17 37  1  0
 19 38  1  0
 21 39  1  0
 21 40  1  0
 22 41  1  0
 22 42  1  0
 23 43  1  0
 23 44  1  0
 24 45  1  6
M  END
>  <meeko>  (6) 
{"is_sidechain": [false], "free_energy": -6.724, "intermolecular_energy": -8.188, "internal_energy": 0.239}

$$$$
native_VP7_out
     RDKit          3D

 45 48  0  0  0  0  0  0  0  0999 V2000
  170.4140   24.8960   51.3640 C   0  0  0  0  0  0  0  0  0  0  0  0
  171.2530   25.0300   50.0960 C   0  0  0  0  0  0  0  0  0  0  0  0
  171.2050   26.4610   49.5650 C   0  0  0  0  0  0  0  0  0  0  0  0
  170.6890   24.1660   49.1100 O   0  0  0  0  0  0  0  0  0  0  0  0
  172.6430   24.6180   50.3500 C   0  0  0  0  0  0  0  0  0  0  0  0
  173.7790   24.2820   50.5530 C   0  0  0  0  0  0  0  0  0  0  0  0
  175.1240   23.8830   50.7930 C   0  0  0  0  0  0  0  0  0  0  0  0
  175.7940   24.3610   51.9980 C   0  0  0  0  0  0  0  0  0  0  0  0
  177.0570   24.0270   52.3170 C   0  0  0  0  0  0  0  0  0  0  0  0
  177.8130   23.1390   51.4090 C   0  0  0  0  0  0  0  0  0  0  0  0
  177.1140   22.6930   50.1960 C   0  0  0  0  0  0  0  0  0  0  0  0
  175.7620   23.0770   49.9250 C   0  0  0  0  0  0  0  0  0  0  0  0
  178.0280   21.9270   49.5950 C   0  0  0  0  0  0  0  0  0  0  0  0
  177.8350   21.1220   48.3930 C   0  0  0  0  0  0  0  0  0  0  0  0
  176.6750   20.4270   48.3710 N   0  0  0  0  0  0  0  0  0  0  0  0
  176.4330   19.6570   47.3130 C   0  0  0  0  0  0  0  0  0  0  0  0
  175.2580   18.9350   47.3010 N   0  0  0  0  0  0  0  0  0  0  0  0
  177.2640   19.4980   46.2860 N   0  0  0  0  0  0  0  0  0  0  0  0
  178.4060   20.2080   46.3320 C   0  0  0  0  0  0  0  0  0  0  0  0
  178.7640   21.0470   47.3710 C   0  0  0  0  0  0  0  0  0  0  0  0
  180.0260   21.8520   47.2900 C   0  0  0  0  0  0  0  0  0  0  0  0
  180.9760   21.6640   48.4800 C   0  0  0  0  0  0  0  0  0  0  0  0
  180.5390   22.4480   49.7140 C   0  0  0  0  0  0  0  0  0  0  0  0
  179.2960   21.8780   50.3970 C   0  0  1  0  0  0  0  0  0  0  0  0
  179.0280   22.7240   51.5990 N   0  0  0  0  0  0  0  0  0  0  0  0
  171.0632   24.9997   52.2459 H   0  0  0  0  0  0  0  0  0  0  0  0
  169.6454   25.6828   51.3800 H   0  0  0  0  0  0  0  0  0  0  0  0
  169.9287   23.9090   51.3800 H   0  0  0  0  0  0  0  0  0  0  0  0
  171.1814   27.1650   50.4099 H   0  0  0  0  0  0  0  0  0  0  0  0
  172.0972   26.6545   48.9513 H   0  0  0  0  0  0  0  0  0  0  0  0
  170.3019   26.5943   48.9513 H   0  0  0  0  0  0  0  0  0  0  0  0
  170.8890   24.5120   48.2260 H   0  0  0  0  0  0  0  0  0  0  0  0
  175.2400   25.0257   52.6772 H   0  0  0  0  0  0  0  0  0  0  0  0
  177.5200   24.4086   53.2390 H   0  0  0  0  0  0  0  0  0  0  0  0
  175.2515   22.7179   49.0192 H   0  0  0  0  0  0  0  0  0  0  0  0
  175.2660   17.9790   47.5370 H   0  0  0  0  0  0  0  0  0  0  0  0
  174.4120   19.3760   47.0570 H   0  0  0  0  0  0  0  0  0  0  0  0
  179.1021   20.1146   45.4854 H   0  0  0  0  0  0  0  0  0  0  0  0
  180.5609   21.5616   46.3737 H   0  0  0  0  0  0  0  0  0  0  0  0
  179.7241   22.9097   47.2938 H   0  0  0  0  0  0  0  0  0  0  0  0
  181.0107   20.5949   48.7367 H   0  0  0  0  0  0  0  0  0  0  0  0
  181.9637   22.0432   48.1789 H   0  0  0  0  0  0  0  0  0  0  0  0
  181.3663   22.4435   50.4390 H   0  0  0  0  0  0  0  0  0  0  0  0
  180.2824   23.4627   49.3754 H   0  0  0  0  0  0  0  0  0  0  0  0
  179.5257   20.8196   50.5893 H   0  0  0  0  0  0  0  0  0  0  0  0
  1  2  1  0
  2  3  1  0
  2  4  1  0
  2  5  1  0
  5  6  3  0
  6  7  1  0
  7  8  1  0
  8  9  2  0
  9 10  1  0
 10 11  1  0
 11 12  1  0
 11 13  2  0
 13 14  1  0
 14 15  2  0
 15 16  1  0
 16 17  1  0
 16 18  2  0
 18 19  1  0
 19 20  2  0
 20 21  1  0
 21 22  1  0
 22 23  1  0
 23 24  1  0
 24 25  1  0
 12  7  2  0
 24 13  1  0
 25 10  2  0
 20 14  1  0
  1 26  1  0
  1 27  1  0
  1 28  1  0
  3 29  1  0
  3 30  1  0
  3 31  1  0
  4 32  1  0
  8 33  1  0
  9 34  1  0
 12 35  1  0
 17 36  1  0
 17 37  1  0
 19 38  1  0
 21 39  1  0
 21 40  1  0
 22 41  1  0
 22 42  1  0
 23 43  1  0
 23 44  1  0
 24 45  1  1
M  END
>  <meeko>  (7) 
{"is_sidechain": [false], "free_energy": -6.542, "intermolecular_energy": -7.942, "internal_energy": 0.239}

$$$$
native_VP7_out
     RDKit          3D

 45 48  0  0  0  0  0  0  0  0999 V2000
  183.0800   26.4190   50.3000 C   0  0  0  0  0  0  0  0  0  0  0  0
  183.2910   26.1410   48.8140 C   0  0  0  0  0  0  0  0  0  0  0  0
  184.7790   26.0060   48.4950 C   0  0  0  0  0  0  0  0  0  0  0  0
  182.7770   27.2570   48.0870 O   0  0  0  0  0  0  0  0  0  0  0  0
  182.5620   24.9290   48.4050 C   0  0  0  0  0  0  0  0  0  0  0  0
  181.9670   23.9420   48.0670 C   0  0  0  0  0  0  0  0  0  0  0  0
  181.2630   22.7710   47.6670 C   0  0  0  0  0  0  0  0  0  0  0  0
  181.9310   21.8150   46.7900 C   0  0  0  0  0  0  0  0  0  0  0  0
  181.3520   20.6760   46.3700 C   0  0  0  0  0  0  0  0  0  0  0  0
  179.9740   20.3700   46.8080 C   0  0  0  0  0  0  0  0  0  0  0  0
  179.3260   21.3640   47.6760 C   0  0  0  0  0  0  0  0  0  0  0  0
  180.0070   22.5510   48.0950 C   0  0  0  0  0  0  0  0  0  0  0  0
  178.1260   20.8220   47.8970 C   0  0  0  0  0  0  0  0  0  0  0  0
  177.0940   21.3290   48.7980 C   0  0  0  0  0  0  0  0  0  0  0  0
  177.5620   21.7460   49.9970 N   0  0  0  0  0  0  0  0  0  0  0  0
  176.6790   22.2080   50.8790 C   0  0  0  0  0  0  0  0  0  0  0  0
  177.1550   22.6160   52.1070 N   0  0  0  0  0  0  0  0  0  0  0  0
  175.3650   22.2640   50.6770 N   0  0  0  0  0  0  0  0  0  0  0  0
  174.9310   21.8500   49.4740 C   0  0  0  0  0  0  0  0  0  0  0  0
  175.7500   21.3590   48.4740 C   0  0  0  0  0  0  0  0  0  0  0  0
  175.1750   20.9940   47.1390 C   0  0  0  0  0  0  0  0  0  0  0  0
  175.4880   19.5660   46.6710 C   0  0  0  0  0  0  0  0  0  0  0  0
  176.9040   19.4340   46.1170 C   0  0  0  0  0  0  0  0  0  0  0  0
  177.9930   19.5070   47.1860 C   0  0  1  0  0  0  0  0  0  0  0  0
  179.3020   19.3040   46.4960 N   0  0  0  0  0  0  0  0  0  0  0  0
  183.6397   25.6816   50.8941 H   0  0  0  0  0  0  0  0  0  0  0  0
  183.4395   27.4309   50.5384 H   0  0  0  0  0  0  0  0  0  0  0  0
  182.0087   26.3449   50.5384 H   0  0  0  0  0  0  0  0  0  0  0  0
  185.3518   25.9540   49.4327 H   0  0  0  0  0  0  0  0  0  0  0  0
  184.9471   25.0889   47.9113 H   0  0  0  0  0  0  0  0  0  0  0  0
  185.1094   26.8779   47.9113 H   0  0  0  0  0  0  0  0  0  0  0  0
  183.1930   27.2910   47.2110 H   0  0  0  0  0  0  0  0  0  0  0  0
  182.9558   22.0362   46.4569 H   0  0  0  0  0  0  0  0  0  0  0  0
  181.8955   19.9831   45.7109 H   0  0  0  0  0  0  0  0  0  0  0  0
  179.5097   23.2739   48.7584 H   0  0  0  0  0  0  0  0  0  0  0  0
  176.6430   23.2630   52.6430 H   0  0  0  0  0  0  0  0  0  0  0  0
  178.0080   22.2600   52.4480 H   0  0  0  0  0  0  0  0  0  0  0  0
  173.8512   21.9056   49.2714 H   0  0  0  0  0  0  0  0  0  0  0  0
  174.0819   21.1034   47.1959 H   0  0  0  0  0  0  0  0  0  0  0  0
  175.6417   21.6688   46.4063 H   0  0  0  0  0  0  0  0  0  0  0  0
  175.3774   18.8818   47.5252 H   0  0  0  0  0  0  0  0  0  0  0  0
  174.7860   19.3162   45.8618 H   0  0  0  0  0  0  0  0  0  0  0  0
  176.9866   18.4649   45.6033 H   0  0  0  0  0  0  0  0  0  0  0  0
  177.0634   20.2849   45.4383 H   0  0  0  0  0  0  0  0  0  0  0  0
  177.7178   18.7514   47.9366 H   0  0  0  0  0  0  0  0  0  0  0  0
  1  2  1  0
  2  3  1  0
  2  4  1  0
  2  5  1  0
  5  6  3  0
  6  7  1  0
  7  8  1  0
  8  9  2  0
  9 10  1  0
 10 11  1  0
 11 12  1  0
 11 13  2  0
 13 14  1  0
 14 15  2  0
 15 16  1  0
 16 17  1  0
 16 18  2  0
 18 19  1  0
 19 20  2  0
 20 21  1  0
 21 22  1  0
 22 23  1  0
 23 24  1  0
 24 25  1  0
 12  7  2  0
 24 13  1  0
 25 10  2  0
 20 14  1  0
  1 26  1  0
  1 27  1  0
  1 28  1  0
  3 29  1  0
  3 30  1  0
  3 31  1  0
  4 32  1  0
  8 33  1  0
  9 34  1  0
 12 35  1  0
 17 36  1  0
 17 37  1  0
 19 38  1  0
 21 39  1  0
 21 40  1  0
 22 41  1  0
 22 42  1  0
 23 43  1  0
 23 44  1  0
 24 45  1  1
M  END
>  <meeko>  (8) 
{"is_sidechain": [false], "free_energy": -6.388, "intermolecular_energy": -7.736, "internal_energy": 0.241}

$$$$
native_VP7_out
     RDKit          3D

 45 48  0  0  0  0  0  0  0  0999 V2000
  181.0590   19.9590   46.5090 C   0  0  0  0  0  0  0  0  0  0  0  0
  181.0260   20.9100   47.7020 C   0  0  0  0  0  0  0  0  0  0  0  0
  181.8820   22.1460   47.4310 C   0  0  0  0  0  0  0  0  0  0  0  0
  181.5790   20.2190   48.8220 O   0  0  0  0  0  0  0  0  0  0  0  0
  179.6420   21.2970   48.0180 C   0  0  0  0  0  0  0  0  0  0  0  0
  178.5130   21.6150   48.2800 C   0  0  0  0  0  0  0  0  0  0  0  0
  177.1760   21.9910   48.5900 C   0  0  0  0  0  0  0  0  0  0  0  0
  176.0830   21.1390   48.1350 C   0  0  0  0  0  0  0  0  0  0  0  0
  174.7900   21.4050   48.3920 C   0  0  0  0  0  0  0  0  0  0  0  0
  174.4480   22.6160   49.1670 C   0  0  0  0  0  0  0  0  0  0  0  0
  175.5730   23.4610   49.5930 C   0  0  0  0  0  0  0  0  0  0  0  0
  176.9280   23.1100   49.2950 C   0  0  0  0  0  0  0  0  0  0  0  0
  174.9640   24.4490   50.2520 C   0  0  0  0  0  0  0  0  0  0  0  0
  175.6110   25.5250   50.9990 C   0  0  0  0  0  0  0  0  0  0  0  0
  176.6450   25.1200   51.7710 N   0  0  0  0  0  0  0  0  0  0  0  0
  177.2760   26.0420   52.4940 C   0  0  0  0  0  0  0  0  0  0  0  0
  178.3190   25.6250   53.2940 N   0  0  0  0  0  0  0  0  0  0  0  0
  176.9450   27.3300   52.5350 N   0  0  0  0  0  0  0  0  0  0  0  0
  175.9180   27.7040   51.7510 C   0  0  0  0  0  0  0  0  0  0  0  0
  175.1920   26.8420   50.9500 C   0  0  0  0  0  0  0  0  0  0  0  0
  174.1120   27.3730   50.0560 C   0  0  0  0  0  0  0  0  0  0  0  0
  172.7470   26.7070   50.2330 C   0  0  0  0  0  0  0  0  0  0  0  0
  172.6620   25.3440   49.5540 C   0  0  0  0  0  0  0  0  0  0  0  0
  173.4760   24.2550   50.2530 C   0  0  1  0  0  0  0  0  0  0  0  0
  173.2490   22.9850   49.5010 N   0  0  0  0  0  0  0  0  0  0  0  0
  181.0951   18.9202   46.8690 H   0  0  0  0  0  0  0  0  0  0  0  0
  180.1553   20.1045   45.8990 H   0  0  0  0  0  0  0  0  0  0  0  0
  181.9505   20.1668   45.8990 H   0  0  0  0  0  0  0  0  0  0  0  0
  182.1922   22.5939   48.3866 H   0  0  0  0  0  0  0  0  0  0  0  0
  182.7734   21.8557   46.8556 H   0  0  0  0  0  0  0  0  0  0  0  0
  181.2967   22.8784   46.8556 H   0  0  0  0  0  0  0  0  0  0  0  0
  180.8660   19.9720   49.4330 H   0  0  0  0  0  0  0  0  0  0  0  0
  176.3276   20.2371   47.5547 H   0  0  0  0  0  0  0  0  0  0  0  0
  173.9989   20.7314   48.0308 H   0  0  0  0  0  0  0  0  0  0  0  0
  177.7565   23.7471   49.6380 H   0  0  0  0  0  0  0  0  0  0  0  0
  178.3830   24.6810   53.5660 H   0  0  0  0  0  0  0  0  0  0  0  0
  178.9990   26.2710   53.5930 H   0  0  0  0  0  0  0  0  0  0  0  0
  175.6367   28.7674   51.7468 H   0  0  0  0  0  0  0  0  0  0  0  0
  173.9971   28.4479   50.2596 H   0  0  0  0  0  0  0  0  0  0  0  0
  174.4300   27.1577   49.0252 H   0  0  0  0  0  0  0  0  0  0  0  0
  172.5565   26.5764   51.3085 H   0  0  0  0  0  0  0  0  0  0  0  0
  171.9967   27.3591   49.7619 H   0  0  0  0  0  0  0  0  0  0  0  0
  171.6077   25.0309   49.5354 H   0  0  0  0  0  0  0  0  0  0  0  0
  173.0840   25.4617   48.5450 H   0  0  0  0  0  0  0  0  0  0  0  0
  173.1413   24.2646   51.3008 H   0  0  0  0  0  0  0  0  0  0  0  0
  1  2  1  0
  2  3  1  0
  2  4  1  0
  2  5  1  0
  5  6  3  0
  6  7  1  0
  7  8  1  0
  8  9  2  0
  9 10  1  0
 10 11  1  0
 11 12  1  0
 11 13  2  0
 13 14  1  0
 14 15  2  0
 15 16  1  0
 16 17  1  0
 16 18  2  0
 18 19  1  0
 19 20  2  0
 20 21  1  0
 21 22  1  0
 22 23  1  0
 23 24  1  0
 24 25  1  0
 12  7  2  0
 24 13  1  0
 25 10  2  0
 20 14  1  0
  1 26  1  0
  1 27  1  0
  1 28  1  0
  3 29  1  0
  3 30  1  0
  3 31  1  0
  4 32  1  0
  8 33  1  0
  9 34  1  0
 12 35  1  0
 17 36  1  0
 17 37  1  0
 19 38  1  0
 21 39  1  0
 21 40  1  0
 22 41  1  0
 22 42  1  0
 23 43  1  0
 23 44  1  0
 24 45  1  1
M  END
>  <meeko>  (9) 
{"is_sidechain": [false], "free_energy": -6.109, "intermolecular_energy": -7.35, "internal_energy": 0.233}

$$$$
