isatin_out
     RDKit          3D

 16 17  0  0  0  0  0  0  0  0999 V2000
   35.7470   29.6660  -17.5550 O   0  0  0  0  0  0  0  0  0  0  0  0
   36.5960   29.1720  -16.8460 C   0  0  0  0  0  0  0  0  0  0  0  0
   36.9520   29.5340  -15.5620 N   0  0  0  0  0  0  0  0  0  0  0  0
   37.9750   28.7230  -15.0810 C   0  0  0  0  0  0  0  0  0  0  0  0
   38.5840   28.7900  -13.8460 C   0  0  0  0  0  0  0  0  0  0  0  0
   39.5980   27.8630  -13.5780 C   0  0  0  0  0  0  0  0  0  0  0  0
   39.9810   26.9000  -14.5360 C   0  0  0  0  0  0  0  0  0  0  0  0
   39.3540   26.8450  -15.7830 C   0  0  0  0  0  0  0  0  0  0  0  0
   38.3570   27.7690  -16.0230 C   0  0  0  0  0  0  0  0  0  0  0  0
   37.5210   27.9750  -17.2070 C   0  0  0  0  0  0  0  0  0  0  0  0
   37.5480   27.3470  -18.2400 O   0  0  0  0  0  0  0  0  0  0  0  0
   36.5380   30.2700  -15.0550 H   0  0  0  0  0  0  0  0  0  0  0  0
   38.2850   29.5420  -13.1009 H   0  0  0  0  0  0  0  0  0  0  0  0
   40.1058   27.8855  -12.6025 H   0  0  0  0  0  0  0  0  0  0  0  0
   40.7822   26.1848  -14.2980 H   0  0  0  0  0  0  0  0  0  0  0  0
   39.6416   26.0996  -16.5391 H   0  0  0  0  0  0  0  0  0  0  0  0
  1  2  2  0
  2  3  1  0
  3  4  1  0
  4  5  2  0
  5  6  1  0
  6  7  2  0
  7  8  1  0
  8  9  2  0
  9 10  1  0
 10 11  2  0
 10  2  1  0
  9  4  1  0
  3 12  1  0
  5 13  1  0
  6 14  1  0
  7 15  1  0
  8 16  1  0
M  END
>  <meeko>  (1) 
{"is_sidechain": [false], "free_energy": -7.5, "intermolecular_energy": -7.5, "internal_energy": 0.0}

$$$$
isatin_out
     RDKit          3D

 16 17  0  0  0  0  0  0  0  0999 V2000
   37.4710   26.9280  -18.6200 O   0  0  0  0  0  0  0  0  0  0  0  0
   37.9240   27.1620  -17.5210 C   0  0  0  0  0  0  0  0  0  0  0  0
   38.8910   26.4590  -16.8290 N   0  0  0  0  0  0  0  0  0  0  0  0
   39.1420   27.0450  -15.5930 C   0  0  0  0  0  0  0  0  0  0  0  0
   40.0390   26.6210  -14.6350 C   0  0  0  0  0  0  0  0  0  0  0  0
   40.1250   27.3720  -13.4570 C   0  0  0  0  0  0  0  0  0  0  0  0
   39.3240   28.5170  -13.2600 C   0  0  0  0  0  0  0  0  0  0  0  0
   38.4200   28.9330  -14.2400 C   0  0  0  0  0  0  0  0  0  0  0  0
   38.3550   28.1760  -15.3920 C   0  0  0  0  0  0  0  0  0  0  0  0
   37.5260   28.3410  -16.5880 C   0  0  0  0  0  0  0  0  0  0  0  0
   36.7100   29.2070  -16.7990 O   0  0  0  0  0  0  0  0  0  0  0  0
   39.3410   25.6500  -17.1660 H   0  0  0  0  0  0  0  0  0  0  0  0
   40.6622   25.7280  -14.7906 H   0  0  0  0  0  0  0  0  0  0  0  0
   40.8297   27.0641  -12.6705 H   0  0  0  0  0  0  0  0  0  0  0  0
   39.4126   29.0883  -12.3242 H   0  0  0  0  0  0  0  0  0  0  0  0
   37.7889   29.8230  -14.1000 H   0  0  0  0  0  0  0  0  0  0  0  0
  1  2  2  0
  2  3  1  0
  3  4  1  0
  4  5  2  0
  5  6  1  0
  6  7  2  0
  7  8  1  0
  8  9  2  0
  9 10  1  0
 10 11  2  0
 10  2  1  0
  9  4  1  0
  3 12  1  0
  5 13  1  0
  6 14  1  0
  7 15  1  0
  8 16  1  0
M  END
>  <meeko>  (2) 
{"is_sidechain": [false], "free_energy": -7.327, "intermolecular_energy": -7.327, "internal_energy": 0.0}

$$$$
isatin_out
     RDKit          3D

 16 17  0  0  0  0  0  0  0  0999 V2000
   41.0350   26.2470  -13.8900 O   0  0  0  0  0  0  0  0  0  0  0  0
   40.1530   26.7950  -14.5130 C   0  0  0  0  0  0  0  0  0  0  0  0
   39.7400   26.5440  -15.8070 N   0  0  0  0  0  0  0  0  0  0  0  0
   38.6920   27.3870  -16.1670 C   0  0  0  0  0  0  0  0  0  0  0  0
   38.0290   27.4250  -17.3750 C   0  0  0  0  0  0  0  0  0  0  0  0
   36.9990   28.3620  -17.5130 C   0  0  0  0  0  0  0  0  0  0  0  0
   36.6550   29.2320  -16.4560 C   0  0  0  0  0  0  0  0  0  0  0  0
   37.3370   29.1810  -15.2380 C   0  0  0  0  0  0  0  0  0  0  0  0
   38.3480   28.2480  -15.1270 C   0  0  0  0  0  0  0  0  0  0  0  0
   39.2380   27.9460  -14.0050 C   0  0  0  0  0  0  0  0  0  0  0  0
   39.2550   28.4770  -12.9200 O   0  0  0  0  0  0  0  0  0  0  0  0
   40.1340   25.8610  -16.3960 H   0  0  0  0  0  0  0  0  0  0  0  0
   38.2988   26.7461  -18.1973 H   0  0  0  0  0  0  0  0  0  0  0  0
   36.4472   28.4217  -18.4627 H   0  0  0  0  0  0  0  0  0  0  0  0
   35.8405   29.9585  -16.5930 H   0  0  0  0  0  0  0  0  0  0  0  0
   37.0802   29.8532  -14.4060 H   0  0  0  0  0  0  0  0  0  0  0  0
  1  2  2  0
  2  3  1  0
  3  4  1  0
  4  5  2  0
  5  6  1  0
  6  7  2  0
  7  8  1  0
  8  9  2  0
  9 10  1  0
 10 11  2  0
 10  2  1  0
  9  4  1  0
  3 12  1  0
  5 13  1  0
  6 14  1  0
  7 15  1  0
  8 16  1  0
M  END
>  <meeko>  (3) 
{"is_sidechain": [false], "free_energy": -7.01, "intermolecular_energy": -7.01, "internal_energy": 0.0}

$$$$
isatin_out
     RDKit          3D

 16 17  0  0  0  0  0  0  0  0999 V2000
   36.5090   29.2570  -16.1650 O   0  0  0  0  0  0  0  0  0  0  0  0
   37.4400   28.7750  -15.5590 C   0  0  0  0  0  0  0  0  0  0  0  0
   37.9620   29.1690  -14.3420 N   0  0  0  0  0  0  0  0  0  0  0  0
   39.0340   28.3600  -13.9760 C   0  0  0  0  0  0  0  0  0  0  0  0
   39.7980   28.4550  -12.8320 C   0  0  0  0  0  0  0  0  0  0  0  0
   40.8320   27.5270  -12.6710 C   0  0  0  0  0  0  0  0  0  0  0  0
   41.0820   26.5340  -13.6430 C   0  0  0  0  0  0  0  0  0  0  0  0
   40.2980   26.4510  -14.7970 C   0  0  0  0  0  0  0  0  0  0  0  0
   39.2840   27.3780  -14.9310 C   0  0  0  0  0  0  0  0  0  0  0  0
   38.3030   27.5590  -16.0030 C   0  0  0  0  0  0  0  0  0  0  0  0
   38.1920   26.9040  -17.0120 O   0  0  0  0  0  0  0  0  0  0  0  0
   37.6220   29.9220  -13.8070 H   0  0  0  0  0  0  0  0  0  0  0  0
   39.6021   29.2298  -12.0761 H   0  0  0  0  0  0  0  0  0  0  0  0
   41.4621   27.5716  -11.7704 H   0  0  0  0  0  0  0  0  0  0  0  0
   41.9028   25.8178  -13.4904 H   0  0  0  0  0  0  0  0  0  0  0  0
   40.4805   25.6827  -15.5628 H   0  0  0  0  0  0  0  0  0  0  0  0
  1  2  2  0
  2  3  1  0
  3  4  1  0
  4  5  2  0
  5  6  1  0
  6  7  2  0
  7  8  1  0
  8  9  2  0
  9 10  1  0
 10 11  2  0
 10  2  1  0
  9  4  1  0
  3 12  1  0
  5 13  1  0
  6 14  1  0
  7 15  1  0
  8 16  1  0
M  END
>  <meeko>  (4) 
{"is_sidechain": [false], "free_energy": -6.92, "intermolecular_energy": -6.92, "internal_energy": 0.0}

$$$$
isatin_out
     RDKit          3D

 16 17  0  0  0  0  0  0  0  0999 V2000
   37.9990   26.7690  -17.3390 O   0  0  0  0  0  0  0  0  0  0  0  0
   38.7160   26.8160  -16.3650 C   0  0  0  0  0  0  0  0  0  0  0  0
   38.3960   27.2360  -15.0880 N   0  0  0  0  0  0  0  0  0  0  0  0
   39.4970   27.1410  -14.2430 C   0  0  0  0  0  0  0  0  0  0  0  0
   39.5530   27.4700  -12.9050 C   0  0  0  0  0  0  0  0  0  0  0  0
   40.7770   27.2910  -12.2500 C   0  0  0  0  0  0  0  0  0  0  0  0
   41.9060   26.7930  -12.9330 C   0  0  0  0  0  0  0  0  0  0  0  0
   41.8340   26.4640  -14.2890 C   0  0  0  0  0  0  0  0  0  0  0  0
   40.6160   26.6500  -14.9120 C   0  0  0  0  0  0  0  0  0  0  0  0
   40.2150   26.4060  -16.2990 C   0  0  0  0  0  0  0  0  0  0  0  0
   40.9040   25.9780  -17.1960 O   0  0  0  0  0  0  0  0  0  0  0  0
   37.5080   27.5600  -14.8140 H   0  0  0  0  0  0  0  0  0  0  0  0
   38.6712   27.8575  -12.3738 H   0  0  0  0  0  0  0  0  0  0  0  0
   40.8599   27.5435  -11.1826 H   0  0  0  0  0  0  0  0  0  0  0  0
   42.8546   26.6620  -12.3917 H   0  0  0  0  0  0  0  0  0  0  0  0
   42.7065   26.0752  -14.8345 H   0  0  0  0  0  0  0  0  0  0  0  0
  1  2  2  0
  2  3  1  0
  3  4  1  0
  4  5  2  0
  5  6  1  0
  6  7  2  0
  7  8  1  0
  8  9  2  0
  9 10  1  0
 10 11  2  0
 10  2  1  0
  9  4  1  0
  3 12  1  0
  5 13  1  0
  6 14  1  0
  7 15  1  0
  8 16  1  0
M  END
>  <meeko>  (5) 
{"is_sidechain": [false], "free_energy": -6.828, "intermolecular_energy": -6.828, "internal_energy": 0.0}

$$$$
isatin_out
     RDKit          3D

 16 17  0  0  0  0  0  0  0  0999 V2000
   38.0140   27.5430  -15.2380 O   0  0  0  0  0  0  0  0  0  0  0  0
   39.1360   27.2610  -14.8780 C   0  0  0  0  0  0  0  0  0  0  0  0
   40.0690   26.4780  -15.5280 N   0  0  0  0  0  0  0  0  0  0  0  0
   41.2460   26.3900  -14.7900 C   0  0  0  0  0  0  0  0  0  0  0  0
   42.3900   25.6970  -15.1230 C   0  0  0  0  0  0  0  0  0  0  0  0
   43.4600   25.7510  -14.2220 C   0  0  0  0  0  0  0  0  0  0  0  0
   43.3670   26.4860  -13.0210 C   0  0  0  0  0  0  0  0  0  0  0  0
   42.2000   27.1830  -12.6970 C   0  0  0  0  0  0  0  0  0  0  0  0
   41.1610   27.1140  -13.6030 C   0  0  0  0  0  0  0  0  0  0  0  0
   39.8280   27.7200  -13.5620 C   0  0  0  0  0  0  0  0  0  0  0  0
   39.3700   28.4230  -12.6930 O   0  0  0  0  0  0  0  0  0  0  0  0
   39.9210   26.0400  -16.3970 H   0  0  0  0  0  0  0  0  0  0  0  0
   42.4594   25.1243  -16.0596 H   0  0  0  0  0  0  0  0  0  0  0  0
   44.3897   25.2109  -14.4543 H   0  0  0  0  0  0  0  0  0  0  0  0
   44.2236   26.5106  -12.3314 H   0  0  0  0  0  0  0  0  0  0  0  0
   42.1135   27.7594  -11.7641 H   0  0  0  0  0  0  0  0  0  0  0  0
  1  2  2  0
  2  3  1  0
  3  4  1  0
  4  5  2  0
  5  6  1  0
  6  7  2  0
  7  8  1  0
  8  9  2  0
  9 10  1  0
 10 11  2  0
 10  2  1  0
  9  4  1  0
  3 12  1  0
  5 13  1  0
  6 14  1  0
  7 15  1  0
  8 16  1  0
M  END
>  <meeko>  (6) 
{"is_sidechain": [false], "free_energy": -6.713, "intermolecular_energy": -6.713, "internal_energy": 0.0}

$$$$
isatin_out
     RDKit          3D

 16 17  0  0  0  0  0  0  0  0999 V2000
   40.9540   26.3540  -13.9080 O   0  0  0  0  0  0  0  0  0  0  0  0
   40.0700   26.8750  -14.5510 C   0  0  0  0  0  0  0  0  0  0  0  0
   39.1180   27.7780  -14.1190 N   0  0  0  0  0  0  0  0  0  0  0  0
   38.2730   28.1470  -15.1610 C   0  0  0  0  0  0  0  0  0  0  0  0
   37.2100   29.0240  -15.1030 C   0  0  0  0  0  0  0  0  0  0  0  0
   36.4950   29.2460  -16.2850 C   0  0  0  0  0  0  0  0  0  0  0  0
   36.8490   28.5960  -17.4870 C   0  0  0  0  0  0  0  0  0  0  0  0
   37.9280   27.7100  -17.5290 C   0  0  0  0  0  0  0  0  0  0  0  0
   38.6170   27.5090  -16.3500 C   0  0  0  0  0  0  0  0  0  0  0  0
   39.7740   26.6580  -16.0630 C   0  0  0  0  0  0  0  0  0  0  0  0
   40.3680   25.9450  -16.8360 O   0  0  0  0  0  0  0  0  0  0  0  0
   39.0470   28.1140  -13.1960 H   0  0  0  0  0  0  0  0  0  0  0  0
   36.9354   29.5287  -14.1650 H   0  0  0  0  0  0  0  0  0  0  0  0
   35.6414   29.9398  -16.2775 H   0  0  0  0  0  0  0  0  0  0  0  0
   36.2685   28.7895  -18.4011 H   0  0  0  0  0  0  0  0  0  0  0  0
   38.2153   27.1964  -18.4583 H   0  0  0  0  0  0  0  0  0  0  0  0
  1  2  2  0
  2  3  1  0
  3  4  1  0
  4  5  2  0
  5  6  1  0
  6  7  2  0
  7  8  1  0
  8  9  2  0
  9 10  1  0
 10 11  2  0
 10  2  1  0
  9  4  1  0
  3 12  1  0
  5 13  1  0
  6 14  1  0
  7 15  1  0
  8 16  1  0
M  END
>  <meeko>  (7) 
{"is_sidechain": [false], "free_energy": -6.612, "intermolecular_energy": -6.612, "internal_energy": 0.0}

$$$$
isatin_out
     RDKit          3D

 16 17  0  0  0  0  0  0  0  0999 V2000
   35.7640   29.5400  -17.5100 O   0  0  0  0  0  0  0  0  0  0  0  0
   36.6850   28.9020  -17.0510 C   0  0  0  0  0  0  0  0  0  0  0  0
   37.5440   28.0460  -17.7120 N   0  0  0  0  0  0  0  0  0  0  0  0
   38.4750   27.5000  -16.8340 C   0  0  0  0  0  0  0  0  0  0  0  0
   39.4830   26.6090  -17.1340 C   0  0  0  0  0  0  0  0  0  0  0  0
   40.3080   26.1920  -16.0830 C   0  0  0  0  0  0  0  0  0  0  0  0
   40.1130   26.6670  -14.7690 C   0  0  0  0  0  0  0  0  0  0  0  0
   39.0870   27.5700  -14.4800 C   0  0  0  0  0  0  0  0  0  0  0  0
   38.2880   27.9650  -15.5340 C   0  0  0  0  0  0  0  0  0  0  0  0
   37.1480   28.8840  -15.5660 C   0  0  0  0  0  0  0  0  0  0  0  0
   36.6730   29.4930  -14.6360 O   0  0  0  0  0  0  0  0  0  0  0  0
   37.5020   27.8480  -18.6750 H   0  0  0  0  0  0  0  0  0  0  0  0
   39.6332   26.2401  -18.1593 H   0  0  0  0  0  0  0  0  0  0  0  0
   41.1229   25.4813  -16.2852 H   0  0  0  0  0  0  0  0  0  0  0  0
   40.7767   26.3222  -13.9624 H   0  0  0  0  0  0  0  0  0  0  0  0
   38.9235   27.9485  -13.4602 H   0  0  0  0  0  0  0  0  0  0  0  0
  1  2  2  0
  2  3  1  0
  3  4  1  0
  4  5  2  0
  5  6  1  0
  6  7  2  0
  7  8  1  0
  8  9  2  0
  9 10  1  0
 10 11  2  0
 10  2  1  0
  9  4  1  0
  3 12  1  0
  5 13  1  0
  6 14  1  0
  7 15  1  0
  8 16  1  0
M  END
>  <meeko>  (8) 
{"is_sidechain": [false], "free_energy": -6.591, "intermolecular_energy": -6.591, "internal_energy": 0.0}

$$$$
isatin_out
     RDKit          3D

 16 17  0  0  0  0  0  0  0  0999 V2000
   41.1700   27.3660  -11.9240 O   0  0  0  0  0  0  0  0  0  0  0  0
   40.4420   27.5330  -12.8770 C   0  0  0  0  0  0  0  0  0  0  0  0
   39.4620   28.4930  -13.0450 N   0  0  0  0  0  0  0  0  0  0  0  0
   38.8400   28.3570  -14.2810 C   0  0  0  0  0  0  0  0  0  0  0  0
   37.8210   29.1320  -14.7920 C   0  0  0  0  0  0  0  0  0  0  0  0
   37.3460   28.8100  -16.0690 C   0  0  0  0  0  0  0  0  0  0  0  0
   37.8900   27.7340  -16.8010 C   0  0  0  0  0  0  0  0  0  0  0  0
   38.9220   26.9570  -16.2700 C   0  0  0  0  0  0  0  0  0  0  0  0
   39.3730   27.2960  -15.0100 C   0  0  0  0  0  0  0  0  0  0  0  0
   40.4220   26.6930  -14.1860 C   0  0  0  0  0  0  0  0  0  0  0  0
   41.1200   25.7470  -14.4660 O   0  0  0  0  0  0  0  0  0  0  0  0
   39.2350   29.1800  -12.3770 H   0  0  0  0  0  0  0  0  0  0  0  0
   37.3978   29.9703  -14.2191 H   0  0  0  0  0  0  0  0  0  0  0  0
   36.5338   29.4070  -16.5095 H   0  0  0  0  0  0  0  0  0  0  0  0
   37.4967   27.5040  -17.8022 H   0  0  0  0  0  0  0  0  0  0  0  0
   39.3550   26.1146  -16.8294 H   0  0  0  0  0  0  0  0  0  0  0  0
  1  2  2  0
  2  3  1  0
  3  4  1  0
  4  5  2  0
  5  6  1  0
  6  7  2  0
  7  8  1  0
  8  9  2  0
  9 10  1  0
 10 11  2  0
 10  2  1  0
  9  4  1  0
  3 12  1  0
  5 13  1  0
  6 14  1  0
  7 15  1  0
  8 16  1  0
M  END
>  <meeko>  (9) 
{"is_sidechain": [false], "free_energy": -6.521, "intermolecular_energy": -6.521, "internal_energy": 0.0}

$$$$
