lazabemide_out
     RDKit          3D

 24 24  0  0  0  0  0  0  0  0999 V2000
   38.0030   30.5590  -16.8050 N   0  0  0  0  0  0  0  0  0  0  0  0
   37.2640   29.3470  -16.4290 C   0  0  0  0  0  0  0  0  0  0  0  0
   37.4730   28.9860  -14.9510 C   0  0  0  0  0  0  0  0  0  0  0  0
   38.8210   28.5260  -14.6800 N   0  0  0  0  0  0  0  0  0  0  0  0
   39.1700   27.1940  -14.6770 C   0  0  0  0  0  0  0  0  0  0  0  0
   38.4050   26.2840  -14.9730 O   0  0  0  0  0  0  0  0  0  0  0  0
   40.5830   26.9260  -14.2560 C   0  0  0  0  0  0  0  0  0  0  0  0
   41.0080   27.2900  -12.9820 C   0  0  0  0  0  0  0  0  0  0  0  0
   42.3310   27.0290  -12.6270 C   0  0  0  0  0  0  0  0  0  0  0  0
   43.1760   26.4210  -13.5500 C   0  0  0  0  0  0  0  0  0  0  0  0
   44.8100   26.0830  -13.1490 Cl  0  0  0  0  0  0  0  0  0  0  0  0
   42.6670   26.0930  -14.8000 C   0  0  0  0  0  0  0  0  0  0  0  0
   41.3890   26.3320  -15.1830 N   0  0  0  0  0  0  0  0  0  0  0  0
   38.2930   31.0550  -15.9630 H   0  0  0  0  0  0  0  0  0  0  0  0
   37.4020   31.1620  -17.3670 H   0  0  0  0  0  0  0  0  0  0  0  0
   38.8270   30.2990  -17.3480 H   0  0  0  0  0  0  0  0  0  0  0  0
   36.1914   29.5148  -16.6061 H   0  0  0  0  0  0  0  0  0  0  0  0
   37.6406   28.5139  -17.0406 H   0  0  0  0  0  0  0  0  0  0  0  0
   37.2739   29.8774  -14.3380 H   0  0  0  0  0  0  0  0  0  0  0  0
   36.7827   28.1656  -14.7051 H   0  0  0  0  0  0  0  0  0  0  0  0
   39.5180   29.1960  -14.4910 H   0  0  0  0  0  0  0  0  0  0  0  0
   40.3181   27.7712  -12.2732 H   0  0  0  0  0  0  0  0  0  0  0  0
   42.7025   27.3009  -11.6280 H   0  0  0  0  0  0  0  0  0  0  0  0
   43.3416   25.6103  -15.5225 H   0  0  0  0  0  0  0  0  0  0  0  0
  1  2  1  0
  2  3  1  0
  3  4  1  0
  4  5  1  0
  5  6  2  0
  5  7  1  0
  7  8  2  0
  8  9  1  0
  9 10  2  0
 10 11  1  0
 10 12  1  0
 12 13  2  0
 13  7  1  0
  1 14  1  0
  1 15  1  0
  1 16  1  0
  2 17  1  0
  2 18  1  0
  3 19  1  0
  3 20  1  0
  4 21  1  0
  8 22  1  0
  9 23  1  0
 12 24  1  0
M  CHG  1   1   1
M  END
>  <meeko>  (1) 
{"is_sidechain": [false], "free_energy": -6.72, "intermolecular_energy": -8.095, "internal_energy": -0.169}

$$$$
lazabemide_out
     RDKit          3D

 24 24  0  0  0  0  0  0  0  0999 V2000
   39.4450   27.2840  -18.3630 N   0  0  0  0  0  0  0  0  0  0  0  0
   38.2860   26.9570  -17.5240 C   0  0  0  0  0  0  0  0  0  0  0  0
   38.5340   27.3000  -16.0470 C   0  0  0  0  0  0  0  0  0  0  0  0
   39.8420   26.8720  -15.5930 N   0  0  0  0  0  0  0  0  0  0  0  0
   40.2330   26.9360  -14.2750 C   0  0  0  0  0  0  0  0  0  0  0  0
   39.4990   27.2840  -13.3570 O   0  0  0  0  0  0  0  0  0  0  0  0
   41.6630   26.5580  -14.0340 C   0  0  0  0  0  0  0  0  0  0  0  0
   42.3980   27.2150  -13.0530 C   0  0  0  0  0  0  0  0  0  0  0  0
   43.7280   26.8400  -12.8610 C   0  0  0  0  0  0  0  0  0  0  0  0
   44.2710   25.8310  -13.6490 C   0  0  0  0  0  0  0  0  0  0  0  0
   45.9020   25.3420  -13.4410 Cl  0  0  0  0  0  0  0  0  0  0  0  0
   43.4640   25.2300  -14.6060 C   0  0  0  0  0  0  0  0  0  0  0  0
   42.1690   25.5670  -14.8250 N   0  0  0  0  0  0  0  0  0  0  0  0
   39.2000   27.1590  -19.3450 H   0  0  0  0  0  0  0  0  0  0  0  0
   40.2220   26.6690  -18.1240 H   0  0  0  0  0  0  0  0  0  0  0  0
   39.7180   28.2540  -18.2020 H   0  0  0  0  0  0  0  0  0  0  0  0
   37.4161   27.5281  -17.8807 H   0  0  0  0  0  0  0  0  0  0  0  0
   38.1062   25.8743  -17.5974 H   0  0  0  0  0  0  0  0  0  0  0  0
   38.4547   28.3897  -15.9192 H   0  0  0  0  0  0  0  0  0  0  0  0
   37.7802   26.7682  -15.4478 H   0  0  0  0  0  0  0  0  0  0  0  0
   40.4780   26.5180  -16.2560 H   0  0  0  0  0  0  0  0  0  0  0  0
   41.9424   28.0098  -12.4442 H   0  0  0  0  0  0  0  0  0  0  0  0
   44.3406   27.3372  -12.0945 H   0  0  0  0  0  0  0  0  0  0  0  0
   43.9018   24.4322  -15.2239 H   0  0  0  0  0  0  0  0  0  0  0  0
  1  2  1  0
  2  3  1  0
  3  4  1  0
  4  5  1  0
  5  6  2  0
  5  7  1  0
  7  8  2  0
  8  9  1  0
  9 10  2  0
 10 11  1  0
 10 12  1  0
 12 13  2  0
 13  7  1  0
  1 14  1  0
  1 15  1  0
  1 16  1  0
  2 17  1  0
  2 18  1  0
  3 19  1  0
  3 20  1  0
  4 21  1  0
  8 22  1  0
  9 23  1  0
 12 24  1  0
M  CHG  1   1   1
M  END
>  <meeko>  (2) 
{"is_sidechain": [false], "free_energy": -6.67, "intermolecular_energy": -8.056, "internal_energy": -0.148}

$$$$
lazabemide_out
     RDKit          3D

 24 24  0  0  0  0  0  0  0  0999 V2000
   42.8990   26.9070  -12.3340 N   0  0  0  0  0  0  0  0  0  0  0  0
   43.2060   26.6560  -13.7480 C   0  0  0  0  0  0  0  0  0  0  0  0
   42.1440   25.7690  -14.4150 C   0  0  0  0  0  0  0  0  0  0  0  0
   41.0640   26.5420  -14.9960 N   0  0  0  0  0  0  0  0  0  0  0  0
   39.9220   26.8680  -14.3010 C   0  0  0  0  0  0  0  0  0  0  0  0
   39.7400   26.6070  -13.1170 O   0  0  0  0  0  0  0  0  0  0  0  0
   38.8790   27.5660  -15.1190 C   0  0  0  0  0  0  0  0  0  0  0  0
   38.1720   28.6350  -14.5760 C   0  0  0  0  0  0  0  0  0  0  0  0
   37.2060   29.2580  -15.3650 C   0  0  0  0  0  0  0  0  0  0  0  0
   36.9810   28.7950  -16.6570 C   0  0  0  0  0  0  0  0  0  0  0  0
   35.8010   29.5370  -17.6580 Cl  0  0  0  0  0  0  0  0  0  0  0  0
   37.7310   27.7210  -17.1180 C   0  0  0  0  0  0  0  0  0  0  0  0
   38.6780   27.0880  -16.3810 N   0  0  0  0  0  0  0  0  0  0  0  0
   42.3790   27.7800  -12.2500 H   0  0  0  0  0  0  0  0  0  0  0  0
   43.7680   26.9750  -11.8050 H   0  0  0  0  0  0  0  0  0  0  0  0
   42.3360   26.1390  -11.9670 H   0  0  0  0  0  0  0  0  0  0  0  0
   43.2501   27.6185  -14.2788 H   0  0  0  0  0  0  0  0  0  0  0  0
   44.1710   26.1306  -13.7997 H   0  0  0  0  0  0  0  0  0  0  0  0
   42.6244   25.1800  -15.2102 H   0  0  0  0  0  0  0  0  0  0  0  0
   41.7123   25.1208  -13.6381 H   0  0  0  0  0  0  0  0  0  0  0  0
   41.1520   26.8470  -15.9280 H   0  0  0  0  0  0  0  0  0  0  0  0
   38.3704   28.9795  -13.5504 H   0  0  0  0  0  0  0  0  0  0  0  0
   36.6281   30.1065  -14.9699 H   0  0  0  0  0  0  0  0  0  0  0  0
   37.5463   27.3623  -18.1413 H   0  0  0  0  0  0  0  0  0  0  0  0
  1  2  1  0
  2  3  1  0
  3  4  1  0
  4  5  1  0
  5  6  2  0
  5  7  1  0
  7  8  2  0
  8  9  1  0
  9 10  2  0
 10 11  1  0
 10 12  1  0
 12 13  2  0
 13  7  1  0
  1 14  1  0
  1 15  1  0
  1 16  1  0
  2 17  1  0
  2 18  1  0
  3 19  1  0
  3 20  1  0
  4 21  1  0
  8 22  1  0
  9 23  1  0
 12 24  1  0
M  CHG  1   1   1
M  END
>  <meeko>  (3) 
{"is_sidechain": [false], "free_energy": -6.637, "intermolecular_energy": -7.811, "internal_energy": -0.353}

$$$$
lazabemide_out
     RDKit          3D

 24 24  0  0  0  0  0  0  0  0999 V2000
   44.0560   27.1810  -14.3480 N   0  0  0  0  0  0  0  0  0  0  0  0
   42.9580   26.7390  -13.4780 C   0  0  0  0  0  0  0  0  0  0  0  0
   41.9720   25.8250  -14.2220 C   0  0  0  0  0  0  0  0  0  0  0  0
   40.9250   26.5710  -14.8920 N   0  0  0  0  0  0  0  0  0  0  0  0
   39.7350   26.9000  -14.2840 C   0  0  0  0  0  0  0  0  0  0  0  0
   39.4770   26.6640  -13.1090 O   0  0  0  0  0  0  0  0  0  0  0  0
   38.7420   27.5660  -15.1870 C   0  0  0  0  0  0  0  0  0  0  0  0
   38.6300   27.1610  -16.5130 C   0  0  0  0  0  0  0  0  0  0  0  0
   37.6990   27.8080  -17.3260 C   0  0  0  0  0  0  0  0  0  0  0  0
   36.9200   28.8270  -16.7890 C   0  0  0  0  0  0  0  0  0  0  0  0
   35.7630   29.6450  -17.7570 Cl  0  0  0  0  0  0  0  0  0  0  0  0
   37.0990   29.1670  -15.4540 C   0  0  0  0  0  0  0  0  0  0  0  0
   37.9940   28.5650  -14.6330 N   0  0  0  0  0  0  0  0  0  0  0  0
   44.6990   27.7630  -13.8130 H   0  0  0  0  0  0  0  0  0  0  0  0
   43.6760   27.7180  -15.1270 H   0  0  0  0  0  0  0  0  0  0  0  0
   44.5530   26.3660  -14.7070 H   0  0  0  0  0  0  0  0  0  0  0  0
   43.3799   26.1877  -12.6247 H   0  0  0  0  0  0  0  0  0  0  0  0
   42.4093   27.6307  -13.1407 H   0  0  0  0  0  0  0  0  0  0  0  0
   42.5271   25.2433  -14.9727 H   0  0  0  0  0  0  0  0  0  0  0  0
   41.4942   25.1708  -13.4779 H   0  0  0  0  0  0  0  0  0  0  0  0
   41.0730   26.8570  -15.8230 H   0  0  0  0  0  0  0  0  0  0  0  0
   39.2595   26.3512  -16.9105 H   0  0  0  0  0  0  0  0  0  0  0  0
   37.5825   27.5153  -18.3799 H   0  0  0  0  0  0  0  0  0  0  0  0
   36.4770   29.9733  -15.0381 H   0  0  0  0  0  0  0  0  0  0  0  0
  1  2  1  0
  2  3  1  0
  3  4  1  0
  4  5  1  0
  5  6  2  0
  5  7  1  0
  7  8  2  0
  8  9  1  0
  9 10  2  0
 10 11  1  0
 10 12  1  0
 12 13  2  0
 13  7  1  0
  1 14  1  0
  1 15  1  0
  1 16  1  0
  2 17  1  0
  2 18  1  0
  3 19  1  0
  3 20  1  0
  4 21  1  0
  8 22  1  0
  9 23  1  0
 12 24  1  0
M  CHG  1   1   1
M  END
>  <meeko>  (4) 
{"is_sidechain": [false], "free_energy": -6.432, "intermolecular_energy": -7.752, "internal_energy": -0.165}

$$$$
lazabemide_out
     RDKit          3D

 24 24  0  0  0  0  0  0  0  0999 V2000
   37.9690   30.4820  -16.8240 N   0  0  0  0  0  0  0  0  0  0  0  0
   37.2340   29.2750  -16.4250 C   0  0  0  0  0  0  0  0  0  0  0  0
   37.5020   28.9000  -14.9600 C   0  0  0  0  0  0  0  0  0  0  0  0
   38.8600   28.4380  -14.7470 N   0  0  0  0  0  0  0  0  0  0  0  0
   39.1720   27.1160  -14.5220 C   0  0  0  0  0  0  0  0  0  0  0  0
   38.3550   26.2030  -14.5540 O   0  0  0  0  0  0  0  0  0  0  0  0
   40.6160   26.8670  -14.2070 C   0  0  0  0  0  0  0  0  0  0  0  0
   41.3990   26.1260  -15.0870 C   0  0  0  0  0  0  0  0  0  0  0  0
   42.7370   25.9100  -14.7590 C   0  0  0  0  0  0  0  0  0  0  0  0
   43.2410   26.4360  -13.5740 C   0  0  0  0  0  0  0  0  0  0  0  0
   44.8820   26.1930  -13.1380 Cl  0  0  0  0  0  0  0  0  0  0  0  0
   42.3860   27.1620  -12.7540 C   0  0  0  0  0  0  0  0  0  0  0  0
   41.0800   27.3920  -13.0370 N   0  0  0  0  0  0  0  0  0  0  0  0
   37.7090   30.7390  -17.7750 H   0  0  0  0  0  0  0  0  0  0  0  0
   38.9710   30.2990  -16.7810 H   0  0  0  0  0  0  0  0  0  0  0  0
   37.7360   31.2460  -16.1890 H   0  0  0  0  0  0  0  0  0  0  0  0
   36.1567   29.4554  -16.5546 H   0  0  0  0  0  0  0  0  0  0  0  0
   37.5755   28.4428  -17.0581 H   0  0  0  0  0  0  0  0  0  0  0  0
   37.3274   29.7854  -14.3311 H   0  0  0  0  0  0  0  0  0  0  0  0
   36.8223   28.0768  -14.6948 H   0  0  0  0  0  0  0  0  0  0  0  0
   39.5900   29.0980  -14.7660 H   0  0  0  0  0  0  0  0  0  0  0  0
   40.9735   25.7212  -16.0171 H   0  0  0  0  0  0  0  0  0  0  0  0
   43.3871   25.3297  -15.4303 H   0  0  0  0  0  0  0  0  0  0  0  0
   42.7930   27.5749  -11.8192 H   0  0  0  0  0  0  0  0  0  0  0  0
  1  2  1  0
  2  3  1  0
  3  4  1  0
  4  5  1  0
  5  6  2  0
  5  7  1  0
  7  8  2  0
  8  9  1  0
  9 10  2  0
 10 11  1  0
 10 12  1  0
 12 13  2  0
 13  7  1  0
  1 14  1  0
  1 15  1  0
  1 16  1  0
  2 17  1  0
  2 18  1  0
  3 19  1  0
  3 20  1  0
  4 21  1  0
  8 22  1  0
  9 23  1  0
 12 24  1  0
M  CHG  1   1   1
M  END
>  <meeko>  (5) 
{"is_sidechain": [false], "free_energy": -6.386, "intermolecular_energy": -7.702, "internal_energy": -0.16}

$$$$
lazabemide_out
     RDKit          3D

 24 24  0  0  0  0  0  0  0  0999 V2000
   45.2580   25.2660  -14.2030 N   0  0  0  0  0  0  0  0  0  0  0  0
   44.9310   26.5640  -13.6000 C   0  0  0  0  0  0  0  0  0  0  0  0
   43.8900   26.4260  -12.4790 C   0  0  0  0  0  0  0  0  0  0  0  0
   42.5850   26.9210  -12.8720 N   0  0  0  0  0  0  0  0  0  0  0  0
   41.8160   26.3130  -13.8380 C   0  0  0  0  0  0  0  0  0  0  0  0
   42.1180   25.2650  -14.3980 O   0  0  0  0  0  0  0  0  0  0  0  0
   40.5560   27.0500  -14.1790 C   0  0  0  0  0  0  0  0  0  0  0  0
   40.0600   28.0150  -13.3090 C   0  0  0  0  0  0  0  0  0  0  0  0
   38.8830   28.6770  -13.6570 C   0  0  0  0  0  0  0  0  0  0  0  0
   38.2490   28.3540  -14.8520 C   0  0  0  0  0  0  0  0  0  0  0  0
   36.8000   29.1480  -15.3150 Cl  0  0  0  0  0  0  0  0  0  0  0  0
   38.8150   27.3760  -15.6600 C   0  0  0  0  0  0  0  0  0  0  0  0
   39.9550   26.7090  -15.3560 N   0  0  0  0  0  0  0  0  0  0  0  0
   45.7490   25.4150  -15.0850 H   0  0  0  0  0  0  0  0  0  0  0  0
   44.3990   24.7450  -14.3750 H   0  0  0  0  0  0  0  0  0  0  0  0
   45.8550   24.7360  -13.5680 H   0  0  0  0  0  0  0  0  0  0  0  0
   45.8485   27.0036  -13.1818 H   0  0  0  0  0  0  0  0  0  0  0  0
   44.5060   27.2079  -14.3840 H   0  0  0  0  0  0  0  0  0  0  0  0
   43.7985   25.3631  -12.2109 H   0  0  0  0  0  0  0  0  0  0  0  0
   44.2342   27.0290  -11.6258 H   0  0  0  0  0  0  0  0  0  0  0  0
   42.2340   27.7270  -12.4280 H   0  0  0  0  0  0  0  0  0  0  0  0
   40.5828   28.2501  -12.3702 H   0  0  0  0  0  0  0  0  0  0  0  0
   38.4607   29.4462  -12.9937 H   0  0  0  0  0  0  0  0  0  0  0  0
   38.3072   27.1279  -16.6037 H   0  0  0  0  0  0  0  0  0  0  0  0
  1  2  1  0
  2  3  1  0
  3  4  1  0
  4  5  1  0
  5  6  2  0
  5  7  1  0
  7  8  2  0
  8  9  1  0
  9 10  2  0
 10 11  1  0
 10 12  1  0
 12 13  2  0
 13  7  1  0
  1 14  1  0
  1 15  1  0
  1 16  1  0
  2 17  1  0
  2 18  1  0
  3 19  1  0
  3 20  1  0
  4 21  1  0
  8 22  1  0
  9 23  1  0
 12 24  1  0
M  CHG  1   1   1
M  END
>  <meeko>  (6) 
{"is_sidechain": [false], "free_energy": -6.232, "intermolecular_energy": -7.413, "internal_energy": -0.264}

$$$$
lazabemide_out
     RDKit          3D

 24 24  0  0  0  0  0  0  0  0999 V2000
   47.6640   25.7910  -14.9300 N   0  0  0  0  0  0  0  0  0  0  0  0
   46.7000   25.9990  -13.8420 C   0  0  0  0  0  0  0  0  0  0  0  0
   45.5920   24.9360  -13.8500 C   0  0  0  0  0  0  0  0  0  0  0  0
   44.2890   25.4980  -14.1500 N   0  0  0  0  0  0  0  0  0  0  0  0
   43.5480   26.2010  -13.2270 C   0  0  0  0  0  0  0  0  0  0  0  0
   43.9430   26.4830  -12.1010 O   0  0  0  0  0  0  0  0  0  0  0  0
   42.1810   26.5920  -13.7000 C   0  0  0  0  0  0  0  0  0  0  0  0
   41.3410   27.3210  -12.8650 C   0  0  0  0  0  0  0  0  0  0  0  0
   40.0740   27.6630  -13.3370 C   0  0  0  0  0  0  0  0  0  0  0  0
   39.6950   27.2670  -14.6150 C   0  0  0  0  0  0  0  0  0  0  0  0
   38.1450   27.6710  -15.2310 Cl  0  0  0  0  0  0  0  0  0  0  0  0
   40.5980   26.5400  -15.3800 C   0  0  0  0  0  0  0  0  0  0  0  0
   41.8360   26.1870  -14.9570 N   0  0  0  0  0  0  0  0  0  0  0  0
   47.3680   26.3190  -15.7510 H   0  0  0  0  0  0  0  0  0  0  0  0
   47.7080   24.7990  -15.1600 H   0  0  0  0  0  0  0  0  0  0  0  0
   48.5860   26.1130  -14.6340 H   0  0  0  0  0  0  0  0  0  0  0  0
   47.2324   25.9509  -12.8807 H   0  0  0  0  0  0  0  0  0  0  0  0
   46.2302   26.9832  -13.9853 H   0  0  0  0  0  0  0  0  0  0  0  0
   45.8340   24.1792  -14.6107 H   0  0  0  0  0  0  0  0  0  0  0  0
   45.5433   24.4946  -12.8436 H   0  0  0  0  0  0  0  0  0  0  0  0
   43.9190   25.3710  -15.0540 H   0  0  0  0  0  0  0  0  0  0  0  0
   41.6676   27.6202  -11.8581 H   0  0  0  0  0  0  0  0  0  0  0  0
   39.3822   28.2396  -12.7054 H   0  0  0  0  0  0  0  0  0  0  0  0
   40.2896   26.2323  -16.3900 H   0  0  0  0  0  0  0  0  0  0  0  0
  1  2  1  0
  2  3  1  0
  3  4  1  0
  4  5  1  0
  5  6  2  0
  5  7  1  0
  7  8  2  0
  8  9  1  0
  9 10  2  0
 10 11  1  0
 10 12  1  0
 12 13  2  0
 13  7  1  0
  1 14  1  0
  1 15  1  0
  1 16  1  0
  2 17  1  0
  2 18  1  0
  3 19  1  0
  3 20  1  0
  4 21  1  0
  8 22  1  0
  9 23  1  0
 12 24  1  0
M  CHG  1   1   1
M  END
>  <meeko>  (7) 
{"is_sidechain": [false], "free_energy": -6.157, "intermolecular_energy": -7.497, "internal_energy": -0.089}

$$$$
lazabemide_out
     RDKit          3D

 24 24  0  0  0  0  0  0  0  0999 V2000
   46.7130   24.9850  -14.5220 N   0  0  0  0  0  0  0  0  0  0  0  0
   45.4200   24.8100  -13.8490 C   0  0  0  0  0  0  0  0  0  0  0  0
   44.7390   26.1560  -13.5600 C   0  0  0  0  0  0  0  0  0  0  0  0
   43.5320   26.3440  -14.3410 N   0  0  0  0  0  0  0  0  0  0  0  0
   42.3000   26.5650  -13.7700 C   0  0  0  0  0  0  0  0  0  0  0  0
   42.1160   26.6990  -12.5650 O   0  0  0  0  0  0  0  0  0  0  0  0
   41.1650   26.6120  -14.7470 C   0  0  0  0  0  0  0  0  0  0  0  0
   39.9270   27.1080  -14.3480 C   0  0  0  0  0  0  0  0  0  0  0  0
   38.8920   27.1320  -15.2830 C   0  0  0  0  0  0  0  0  0  0  0  0
   39.1290   26.6650  -16.5710 C   0  0  0  0  0  0  0  0  0  0  0  0
   37.8810   26.6810  -17.7490 Cl  0  0  0  0  0  0  0  0  0  0  0  0
   40.3950   26.1860  -16.8820 C   0  0  0  0  0  0  0  0  0  0  0  0
   41.4250   26.1440  -16.0020 N   0  0  0  0  0  0  0  0  0  0  0  0
   47.2470   24.1180  -14.4620 H   0  0  0  0  0  0  0  0  0  0  0  0
   47.2330   25.7370  -14.0690 H   0  0  0  0  0  0  0  0  0  0  0  0
   46.5570   25.2210  -15.5020 H   0  0  0  0  0  0  0  0  0  0  0  0
   44.7617   24.2094  -14.4939 H   0  0  0  0  0  0  0  0  0  0  0  0
   45.6008   24.3057  -12.8883 H   0  0  0  0  0  0  0  0  0  0  0  0
   44.4788   26.1981  -12.4920 H   0  0  0  0  0  0  0  0  0  0  0  0
   45.4440   26.9543  -13.8350 H   0  0  0  0  0  0  0  0  0  0  0  0
   43.5980   26.3130  -15.3230 H   0  0  0  0  0  0  0  0  0  0  0  0
   39.7690   27.4716  -13.3219 H   0  0  0  0  0  0  0  0  0  0  0  0
   37.8996   27.5161  -15.0044 H   0  0  0  0  0  0  0  0  0  0  0  0
   40.5724   25.8187  -17.9036 H   0  0  0  0  0  0  0  0  0  0  0  0
  1  2  1  0
  2  3  1  0
  3  4  1  0
  4  5  1  0
  5  6  2  0
  5  7  1  0
  7  8  2  0
  8  9  1  0
  9 10  2  0
 10 11  1  0
 10 12  1  0
 12 13  2  0
 13  7  1  0
  1 14  1  0
  1 15  1  0
  1 16  1  0
  2 17  1  0
  2 18  1  0
  3 19  1  0
  3 20  1  0
  4 21  1  0
  8 22  1  0
  9 23  1  0
 12 24  1  0
M  CHG  1   1   1
M  END
>  <meeko>  (8) 
{"is_sidechain": [false], "free_energy": -6.108, "intermolecular_energy": -7.374, "internal_energy": -0.153}

$$$$
lazabemide_out
     RDKit          3D

 24 24  0  0  0  0  0  0  0  0999 V2000
   49.3050   27.3080  -14.6580 N   0  0  0  0  0  0  0  0  0  0  0  0
   48.0720   26.5430  -14.8880 C   0  0  0  0  0  0  0  0  0  0  0  0
   47.4240   26.0940  -13.5700 C   0  0  0  0  0  0  0  0  0  0  0  0
   46.0060   26.3890  -13.5230 N   0  0  0  0  0  0  0  0  0  0  0  0
   45.0360   25.4170  -13.6330 C   0  0  0  0  0  0  0  0  0  0  0  0
   45.2730   24.2170  -13.7030 O   0  0  0  0  0  0  0  0  0  0  0  0
   43.6350   25.9450  -13.6810 C   0  0  0  0  0  0  0  0  0  0  0  0
   42.8070   25.6180  -14.7500 C   0  0  0  0  0  0  0  0  0  0  0  0
   41.5100   26.1320  -14.7640 C   0  0  0  0  0  0  0  0  0  0  0  0
   41.0910   26.9460  -13.7180 C   0  0  0  0  0  0  0  0  0  0  0  0
   39.5020   27.5950  -13.6990 Cl  0  0  0  0  0  0  0  0  0  0  0  0
   41.9840   27.2220  -12.6910 C   0  0  0  0  0  0  0  0  0  0  0  0
   43.2520   26.7440  -12.6430 N   0  0  0  0  0  0  0  0  0  0  0  0
   49.9090   27.2310  -15.4750 H   0  0  0  0  0  0  0  0  0  0  0  0
   49.7880   26.9350  -13.8410 H   0  0  0  0  0  0  0  0  0  0  0  0
   49.0720   28.2880  -14.4980 H   0  0  0  0  0  0  0  0  0  0  0  0
   47.3588   27.1744  -15.4382 H   0  0  0  0  0  0  0  0  0  0  0  0
   48.3311   25.6431  -15.4651 H   0  0  0  0  0  0  0  0  0  0  0  0
   47.5628   25.0084  -13.4600 H   0  0  0  0  0  0  0  0  0  0  0  0
   47.9090   26.6473  -12.7523 H   0  0  0  0  0  0  0  0  0  0  0  0
   45.7230   27.3250  -13.4070 H   0  0  0  0  0  0  0  0  0  0  0  0
   43.1658   24.9706  -15.5637 H   0  0  0  0  0  0  0  0  0  0  0  0
   40.8269   25.8958  -15.5932 H   0  0  0  0  0  0  0  0  0  0  0  0
   41.6425   27.8666  -11.8677 H   0  0  0  0  0  0  0  0  0  0  0  0
  1  2  1  0
  2  3  1  0
  3  4  1  0
  4  5  1  0
  5  6  2  0
  5  7  1  0
  7  8  2  0
  8  9  1  0
  9 10  2  0
 10 11  1  0
 10 12  1  0
 12 13  2  0
 13  7  1  0
  1 14  1  0
  1 15  1  0
  1 16  1  0
  2 17  1  0
  2 18  1  0
  3 19  1  0
  3 20  1  0
  4 21  1  0
  8 22  1  0
  9 23  1  0
 12 24  1  0
M  CHG  1   1   1
M  END
>  <meeko>  (9) 
{"is_sidechain": [false], "free_energy": -5.523, "intermolecular_energy": -6.674, "internal_energy": -0.148}

$$$$
