selegiline_out
     RDKit          3D

 32 32  0  0  0  0  0  0  0  0999 V2000
   45.4350   26.2150  -13.4330 C   0  0  0  0  0  0  0  0  0  0  0  0
   44.3170   26.5190  -13.1180 C   0  0  0  0  0  0  0  0  0  0  0  0
   42.9480   26.8960  -12.7250 C   0  0  0  0  0  0  0  0  0  0  0  0
   42.0380   26.9180  -13.8830 N   0  0  1  0  0  0  0  0  0  0  0  0
   42.1260   25.6720  -14.6470 C   0  0  0  0  0  0  0  0  0  0  0  0
   40.6530   27.2860  -13.4870 C   0  0  2  0  0  0  0  0  0  0  0  0
   40.3760   27.1720  -11.9780 C   0  0  0  0  0  0  0  0  0  0  0  0
   39.6190   26.4700  -14.3120 C   0  0  0  0  0  0  0  0  0  0  0  0
   38.7590   27.3200  -15.2230 C   0  0  0  0  0  0  0  0  0  0  0  0
   38.6270   27.0020  -16.5820 C   0  0  0  0  0  0  0  0  0  0  0  0
   37.8270   27.7840  -17.4160 C   0  0  0  0  0  0  0  0  0  0  0  0
   37.1510   28.8890  -16.9010 C   0  0  0  0  0  0  0  0  0  0  0  0
   37.2780   29.2150  -15.5530 C   0  0  0  0  0  0  0  0  0  0  0  0
   38.0780   28.4360  -14.7170 C   0  0  0  0  0  0  0  0  0  0  0  0
   46.4593   25.9365  -13.7216 H   0  0  0  0  0  0  0  0  0  0  0  0
   42.5739   26.1673  -11.9908 H   0  0  0  0  0  0  0  0  0  0  0  0
   42.9801   27.9073  -12.2935 H   0  0  0  0  0  0  0  0  0  0  0  0
   42.3400   27.6580  -14.5160 H   0  0  0  0  0  0  0  0  0  0  0  0
   42.1862   24.8202  -13.9536 H   0  0  0  0  0  0  0  0  0  0  0  0
   41.2331   25.5666  -15.2807 H   0  0  0  0  0  0  0  0  0  0  0  0
   43.0249   25.6931  -15.2807 H   0  0  0  0  0  0  0  0  0  0  0  0
   40.5441   28.3557  -13.7191 H   0  0  0  0  0  0  0  0  0  0  0  0
   41.2507   27.5320  -11.4164 H   0  0  0  0  0  0  0  0  0  0  0  0
   39.4978   27.7818  -11.7193 H   0  0  0  0  0  0  0  0  0  0  0  0
   40.1814   26.1207  -11.7193 H   0  0  0  0  0  0  0  0  0  0  0  0
   40.1649   25.7418  -14.9299 H   0  0  0  0  0  0  0  0  0  0  0  0
   38.9430   25.9865  -13.5914 H   0  0  0  0  0  0  0  0  0  0  0  0
   39.1574   26.1306  -16.9934 H   0  0  0  0  0  0  0  0  0  0  0  0
   37.7296   27.5281  -18.4814 H   0  0  0  0  0  0  0  0  0  0  0  0
   36.5179   29.5028  -17.5586 H   0  0  0  0  0  0  0  0  0  0  0  0
   36.7465   30.0883  -15.1469 H   0  0  0  0  0  0  0  0  0  0  0  0
   38.1752   28.6992  -13.6534 H   0  0  0  0  0  0  0  0  0  0  0  0
  1  2  3  0
  2  3  1  0
  3  4  1  0
  4  5  1  0
  4  6  1  0
  6  7  1  0
  6  8  1  0
  8  9  1  0
  9 10  2  0
 10 11  1  0
 11 12  2  0
 12 13  1  0
 13 14  2  0
 14  9  1  0
  1 15  1  0
  3 16  1  0
  3 17  1  0
  4 18  1  6
  5 19  1  0
  5 20  1  0
  5 21  1  0
  6 22  1  6
  7 23  1  0
  7 24  1  0
  7 25  1  0
  8 26  1  0
  8 27  1  0
 10 28  1  0
 11 29  1  0
 12 30  1  0
 13 31  1  0
 14 32  1  0
M  CHG  1   4   1
M  END
>  <meeko>  (1) 
{"is_sidechain": [false], "free_energy": -7.454, "intermolecular_energy": -9.197, "internal_energy": -0.347}

$$$$
selegiline_out
     RDKit          3D

 32 32  0  0  0  0  0  0  0  0999 V2000
   45.4180   26.2110  -13.4760 C   0  0  0  0  0  0  0  0  0  0  0  0
   44.3020   26.5170  -13.1570 C   0  0  0  0  0  0  0  0  0  0  0  0
   42.9350   26.8960  -12.7590 C   0  0  0  0  0  0  0  0  0  0  0  0
   42.0170   26.9040  -13.9100 N   0  0  1  0  0  0  0  0  0  0  0  0
   42.0920   25.6440  -14.6540 C   0  0  0  0  0  0  0  0  0  0  0  0
   40.6370   27.2860  -13.5110 C   0  0  2  0  0  0  0  0  0  0  0  0
   40.3720   27.2070  -11.9980 C   0  0  0  0  0  0  0  0  0  0  0  0
   39.5930   26.4570  -14.3100 C   0  0  0  0  0  0  0  0  0  0  0  0
   38.7520   27.2860  -15.2570 C   0  0  0  0  0  0  0  0  0  0  0  0
   38.1010   28.4440  -14.8080 C   0  0  0  0  0  0  0  0  0  0  0  0
   37.3340   29.2090  -15.6880 C   0  0  0  0  0  0  0  0  0  0  0  0
   37.2090   28.8250  -17.0220 C   0  0  0  0  0  0  0  0  0  0  0  0
   37.8490   27.6740  -17.4770 C   0  0  0  0  0  0  0  0  0  0  0  0
   38.6160   26.9070  -16.6000 C   0  0  0  0  0  0  0  0  0  0  0  0
   46.4407   25.9306  -13.7683 H   0  0  0  0  0  0  0  0  0  0  0  0
   42.5673   26.1747  -12.0143 H   0  0  0  0  0  0  0  0  0  0  0  0
   42.9686   27.9122  -12.3392 H   0  0  0  0  0  0  0  0  0  0  0  0
   42.3190   27.6310  -14.5580 H   0  0  0  0  0  0  0  0  0  0  0  0
   42.1421   24.8030  -13.9468 H   0  0  0  0  0  0  0  0  0  0  0  0
   41.1986   25.5382  -15.2869 H   0  0  0  0  0  0  0  0  0  0  0  0
   42.9917   25.6449  -15.2869 H   0  0  0  0  0  0  0  0  0  0  0  0
   40.5303   28.3508  -13.7655 H   0  0  0  0  0  0  0  0  0  0  0  0
   41.2865   27.4796  -11.4509 H   0  0  0  0  0  0  0  0  0  0  0  0
   39.5634   27.9032  -11.7305 H   0  0  0  0  0  0  0  0  0  0  0  0
   40.0766   26.1817  -11.7305 H   0  0  0  0  0  0  0  0  0  0  0  0
   40.1292   25.6968  -14.8969 H   0  0  0  0  0  0  0  0  0  0  0  0
   38.9054   26.0129  -13.5752 H   0  0  0  0  0  0  0  0  0  0  0  0
   38.1954   28.7513  -13.7560 H   0  0  0  0  0  0  0  0  0  0  0  0
   36.8273   30.1166  -15.3281 H   0  0  0  0  0  0  0  0  0  0  0  0
   36.6057   29.4300  -17.7149 H   0  0  0  0  0  0  0  0  0  0  0  0
   37.7493   27.3697  -18.5294 H   0  0  0  0  0  0  0  0  0  0  0  0
   39.1176   25.9985  -16.9646 H   0  0  0  0  0  0  0  0  0  0  0  0
  1  2  3  0
  2  3  1  0
  3  4  1  0
  4  5  1  0
  4  6  1  0
  6  7  1  0
  6  8  1  0
  8  9  1  0
  9 10  2  0
 10 11  1  0
 11 12  2  0
 12 13  1  0
 13 14  2  0
 14  9  1  0
  1 15  1  0
  3 16  1  0
  3 17  1  0
  4 18  1  6
  5 19  1  0
  5 20  1  0
  5 21  1  0
  6 22  1  6
  7 23  1  0
  7 24  1  0
  7 25  1  0
  8 26  1  0
  8 27  1  0
 10 28  1  0
 11 29  1  0
 12 30  1  0
 13 31  1  0
 14 32  1  0
M  CHG  1   4   1
M  END
>  <meeko>  (2) 
{"is_sidechain": [false], "free_energy": -7.452, "intermolecular_energy": -9.191, "internal_energy": -0.35}

$$$$
selegiline_out
     RDKit          3D

 32 32  0  0  0  0  0  0  0  0999 V2000
   45.8250   24.7710  -13.7790 C   0  0  0  0  0  0  0  0  0  0  0  0
   45.0030   25.5550  -13.3880 C   0  0  0  0  0  0  0  0  0  0  0  0
   44.0000   26.5190  -12.9030 C   0  0  0  0  0  0  0  0  0  0  0  0
   42.9490   26.7590  -13.9060 N   0  0  1  0  0  0  0  0  0  0  0  0
   42.8660   25.6500  -14.8590 C   0  0  0  0  0  0  0  0  0  0  0  0
   41.6500   27.1060  -13.2710 C   0  0  2  0  0  0  0  0  0  0  0  0
   41.6350   26.9500  -11.7410 C   0  0  0  0  0  0  0  0  0  0  0  0
   40.4940   26.3050  -13.9300 C   0  0  0  0  0  0  0  0  0  0  0  0
   39.4690   27.1750  -14.6260 C   0  0  0  0  0  0  0  0  0  0  0  0
   38.9420   26.8030  -15.8700 C   0  0  0  0  0  0  0  0  0  0  0  0
   37.9910   27.6040  -16.5040 C   0  0  0  0  0  0  0  0  0  0  0  0
   37.5580   28.7830  -15.9010 C   0  0  0  0  0  0  0  0  0  0  0  0
   38.0770   29.1640  -14.6660 C   0  0  0  0  0  0  0  0  0  0  0  0
   39.0280   28.3650  -14.0300 C   0  0  0  0  0  0  0  0  0  0  0  0
   46.5777   24.0531  -14.1370 H   0  0  0  0  0  0  0  0  0  0  0  0
   43.5362   26.1216  -11.9881 H   0  0  0  0  0  0  0  0  0  0  0  0
   44.5089   27.4735  -12.7030 H   0  0  0  0  0  0  0  0  0  0  0  0
   43.2060   27.5800  -14.4530 H   0  0  0  0  0  0  0  0  0  0  0  0
   42.7949   24.6994  -14.3101 H   0  0  0  0  0  0  0  0  0  0  0  0
   41.9748   25.7759  -15.4913 H   0  0  0  0  0  0  0  0  0  0  0  0
   43.7660   25.6418  -15.4913 H   0  0  0  0  0  0  0  0  0  0  0  0
   41.4990   28.1804  -13.4522 H   0  0  0  0  0  0  0  0  0  0  0  0
   41.7302   27.9398  -11.2706 H   0  0  0  0  0  0  0  0  0  0  0  0
   40.6880   26.4853  -11.4291 H   0  0  0  0  0  0  0  0  0  0  0  0
   42.4761   26.3134  -11.4291 H   0  0  0  0  0  0  0  0  0  0  0  0
   40.9268   25.6176  -14.6717 H   0  0  0  0  0  0  0  0  0  0  0  0
   39.9692   25.7748  -13.1216 H   0  0  0  0  0  0  0  0  0  0  0  0
   39.2803   25.8730  -16.3503 H   0  0  0  0  0  0  0  0  0  0  0  0
   37.5830   27.3042  -17.4806 H   0  0  0  0  0  0  0  0  0  0  0  0
   36.8066   29.4126  -16.4001 H   0  0  0  0  0  0  0  0  0  0  0  0
   37.7368   30.0961  -14.1912 H   0  0  0  0  0  0  0  0  0  0  0  0
   39.4343   28.6708  -13.0546 H   0  0  0  0  0  0  0  0  0  0  0  0
  1  2  3  0
  2  3  1  0
  3  4  1  0
  4  5  1  0
  4  6  1  0
  6  7  1  0
  6  8  1  0
  8  9  1  0
  9 10  2  0
 10 11  1  0
 11 12  2  0
 12 13  1  0
 13 14  2  0
 14  9  1  0
  1 15  1  0
  3 16  1  0
  3 17  1  0
  4 18  1  6
  5 19  1  0
  5 20  1  0
  5 21  1  0
  6 22  1  1
  7 23  1  0
  7 24  1  0
  7 25  1  0
  8 26  1  0
  8 27  1  0
 10 28  1  0
 11 29  1  0
 12 30  1  0
 13 31  1  0
 14 32  1  0
M  CHG  1   4   1
M  END
>  <meeko>  (3) 
{"is_sidechain": [false], "free_energy": -7.354, "intermolecular_energy": -9.261, "internal_energy": -0.16}

$$$$
selegiline_out
     RDKit          3D

 32 32  0  0  0  0  0  0  0  0999 V2000
   36.5930   29.3210  -17.1120 C   0  0  0  0  0  0  0  0  0  0  0  0
   37.3510   28.4760  -16.7170 C   0  0  0  0  0  0  0  0  0  0  0  0
   38.2800   27.4360  -16.2400 C   0  0  0  0  0  0  0  0  0  0  0  0
   39.1780   27.9500  -15.1930 N   0  0  1  0  0  0  0  0  0  0  0  0
   38.4670   28.8550  -14.2860 C   0  0  0  0  0  0  0  0  0  0  0  0
   39.9020   26.8510  -14.5010 C   0  0  2  0  0  0  0  0  0  0  0  0
   38.9860   25.8430  -13.7880 C   0  0  0  0  0  0  0  0  0  0  0  0
   40.9670   27.4320  -13.5300 C   0  0  0  0  0  0  0  0  0  0  0  0
   42.3140   26.7480  -13.6220 C   0  0  0  0  0  0  0  0  0  0  0  0
   43.3820   27.1610  -12.8140 C   0  0  0  0  0  0  0  0  0  0  0  0
   44.6200   26.5220  -12.8970 C   0  0  0  0  0  0  0  0  0  0  0  0
   44.8020   25.4650  -13.7860 C   0  0  0  0  0  0  0  0  0  0  0  0
   43.7480   25.0490  -14.5960 C   0  0  0  0  0  0  0  0  0  0  0  0
   42.5100   25.6860  -14.5160 C   0  0  0  0  0  0  0  0  0  0  0  0
   35.8993   30.0943  -17.4735 H   0  0  0  0  0  0  0  0  0  0  0  0
   37.6974   26.5976  -15.8305 H   0  0  0  0  0  0  0  0  0  0  0  0
   38.8956   27.1084  -17.0907 H   0  0  0  0  0  0  0  0  0  0  0  0
   39.9040   28.5110  -15.6380 H   0  0  0  0  0  0  0  0  0  0  0  0
   38.6857   28.5767  -13.2445 H   0  0  0  0  0  0  0  0  0  0  0  0
   38.7971   29.8887  -14.4663 H   0  0  0  0  0  0  0  0  0  0  0  0
   37.3845   28.7790  -14.4663 H   0  0  0  0  0  0  0  0  0  0  0  0
   40.4049   26.2722  -15.2897 H   0  0  0  0  0  0  0  0  0  0  0  0
   39.0910   25.9586  -12.6991 H   0  0  0  0  0  0  0  0  0  0  0  0
   37.9411   26.0286  -14.0774 H   0  0  0  0  0  0  0  0  0  0  0  0
   39.2705   24.8206  -14.0774 H   0  0  0  0  0  0  0  0  0  0  0  0
   41.1029   28.4986  -13.7620 H   0  0  0  0  0  0  0  0  0  0  0  0
   40.5931   27.2681  -12.5085 H   0  0  0  0  0  0  0  0  0  0  0  0
   43.2436   27.9945  -12.1096 H   0  0  0  0  0  0  0  0  0  0  0  0
   45.4531   26.8534  -12.2597 H   0  0  0  0  0  0  0  0  0  0  0  0
   45.7770   24.9595  -13.8482 H   0  0  0  0  0  0  0  0  0  0  0  0
   43.8924   24.2164  -15.3002 H   0  0  0  0  0  0  0  0  0  0  0  0
   41.6817   25.3530  -15.1587 H   0  0  0  0  0  0  0  0  0  0  0  0
  1  2  3  0
  2  3  1  0
  3  4  1  0
  4  5  1  0
  4  6  1  0
  6  7  1  0
  6  8  1  0
  8  9  1  0
  9 10  2  0
 10 11  1  0
 11 12  2  0
 12 13  1  0
 13 14  2  0
 14  9  1  0
  1 15  1  0
  3 16  1  0
  3 17  1  0
  4 18  1  6
  5 19  1  0
  5 20  1  0
  5 21  1  0
  6 22  1  6
  7 23  1  0
  7 24  1  0
  7 25  1  0
  8 26  1  0
  8 27  1  0
 10 28  1  0
 11 29  1  0
 12 30  1  0
 13 31  1  0
 14 32  1  0
M  CHG  1   4   1
M  END
>  <meeko>  (4) 
{"is_sidechain": [false], "free_energy": -7.228, "intermolecular_energy": -9.069, "internal_energy": -0.196}

$$$$
selegiline_out
     RDKit          3D

 32 32  0  0  0  0  0  0  0  0999 V2000
   36.6370   29.2760  -17.1070 C   0  0  0  0  0  0  0  0  0  0  0  0
   37.3860   28.4270  -16.7040 C   0  0  0  0  0  0  0  0  0  0  0  0
   38.3040   27.3820  -16.2180 C   0  0  0  0  0  0  0  0  0  0  0  0
   39.2220   27.9020  -15.1900 N   0  0  1  0  0  0  0  0  0  0  0  0
   38.5320   28.8220  -14.2830 C   0  0  0  0  0  0  0  0  0  0  0  0
   39.9500   26.8060  -14.4980 C   0  0  2  0  0  0  0  0  0  0  0  0
   39.0370   25.7870  -13.7960 C   0  0  0  0  0  0  0  0  0  0  0  0
   41.0020   27.3920  -13.5150 C   0  0  0  0  0  0  0  0  0  0  0  0
   42.3610   26.7320  -13.6120 C   0  0  0  0  0  0  0  0  0  0  0  0
   42.5680   25.6450  -14.4720 C   0  0  0  0  0  0  0  0  0  0  0  0
   43.8250   25.0460  -14.5650 C   0  0  0  0  0  0  0  0  0  0  0  0
   44.8860   25.5270  -13.8000 C   0  0  0  0  0  0  0  0  0  0  0  0
   44.6900   26.6050  -12.9390 C   0  0  0  0  0  0  0  0  0  0  0  0
   43.4340   27.2060  -12.8450 C   0  0  0  0  0  0  0  0  0  0  0  0
   35.9514   30.0531  -17.4759 H   0  0  0  0  0  0  0  0  0  0  0  0
   37.7133   26.5605  -15.7865 H   0  0  0  0  0  0  0  0  0  0  0  0
   38.9049   27.0290  -17.0690 H   0  0  0  0  0  0  0  0  0  0  0  0
   39.9440   28.4530  -15.6530 H   0  0  0  0  0  0  0  0  0  0  0  0
   38.7446   28.5385  -13.2416 H   0  0  0  0  0  0  0  0  0  0  0  0
   38.8851   29.8481  -14.4631 H   0  0  0  0  0  0  0  0  0  0  0  0
   37.4481   28.7703  -14.4631 H   0  0  0  0  0  0  0  0  0  0  0  0
   40.4638   26.2354  -15.2857 H   0  0  0  0  0  0  0  0  0  0  0  0
   39.1352   25.8966  -12.7059 H   0  0  0  0  0  0  0  0  0  0  0  0
   37.9924   25.9671  -14.0900 H   0  0  0  0  0  0  0  0  0  0  0  0
   39.3303   24.7684  -14.0900 H   0  0  0  0  0  0  0  0  0  0  0  0
   41.1204   28.4639  -13.7319 H   0  0  0  0  0  0  0  0  0  0  0  0
   40.6277   27.2080  -12.4971 H   0  0  0  0  0  0  0  0  0  0  0  0
   41.7339   25.2613  -15.0779 H   0  0  0  0  0  0  0  0  0  0  0  0
   43.9785   24.1933  -15.2428 H   0  0  0  0  0  0  0  0  0  0  0  0
   45.8772   25.0561  -13.8758 H   0  0  0  0  0  0  0  0  0  0  0  0
   45.5264   26.9828  -12.3326 H   0  0  0  0  0  0  0  0  0  0  0  0
   43.2852   28.0573  -12.1645 H   0  0  0  0  0  0  0  0  0  0  0  0
  1  2  3  0
  2  3  1  0
  3  4  1  0
  4  5  1  0
  4  6  1  0
  6  7  1  0
  6  8  1  0
  8  9  1  0
  9 10  2  0
 10 11  1  0
 11 12  2  0
 12 13  1  0
 13 14  2  0
 14  9  1  0
  1 15  1  0
  3 16  1  0
  3 17  1  0
  4 18  1  6
  5 19  1  0
  5 20  1  0
  5 21  1  0
  6 22  1  6
  7 23  1  0
  7 24  1  0
  7 25  1  0
  8 26  1  0
  8 27  1  0
 10 28  1  0
 11 29  1  0
 12 30  1  0
 13 31  1  0
 14 32  1  0
M  CHG  1   4   1
M  END
>  <meeko>  (5) 
{"is_sidechain": [false], "free_energy": -7.21, "intermolecular_energy": -9.042, "internal_energy": -0.201}

$$$$
selegiline_out
     RDKit          3D

 32 32  0  0  0  0  0  0  0  0999 V2000
   35.0330   29.6060  -18.2930 C   0  0  0  0  0  0  0  0  0  0  0  0
   35.9930   29.4810  -17.5820 C   0  0  0  0  0  0  0  0  0  0  0  0
   37.1700   29.3340  -16.7080 C   0  0  0  0  0  0  0  0  0  0  0  0
   37.4700   27.9190  -16.4330 N   0  0  1  0  0  0  0  0  0  0  0  0
   38.2520   27.3240  -17.5190 C   0  0  0  0  0  0  0  0  0  0  0  0
   38.0710   27.7350  -15.0860 C   0  0  2  0  0  0  0  0  0  0  0  0
   38.7290   29.0000  -14.5110 C   0  0  0  0  0  0  0  0  0  0  0  0
   39.0620   26.5380  -15.0940 C   0  0  0  0  0  0  0  0  0  0  0  0
   40.1920   26.6750  -14.0960 C   0  0  0  0  0  0  0  0  0  0  0  0
   39.9240   26.9300  -12.7450 C   0  0  0  0  0  0  0  0  0  0  0  0
   40.9690   27.0470  -11.8270 C   0  0  0  0  0  0  0  0  0  0  0  0
   42.2900   26.9090  -12.2510 C   0  0  0  0  0  0  0  0  0  0  0  0
   42.5660   26.6580  -13.5930 C   0  0  0  0  0  0  0  0  0  0  0  0
   41.5240   26.5410  -14.5120 C   0  0  0  0  0  0  0  0  0  0  0  0
   34.1538   29.7205  -18.9441 H   0  0  0  0  0  0  0  0  0  0  0  0
   38.0395   29.7937  -17.2005 H   0  0  0  0  0  0  0  0  0  0  0  0
   36.9511   29.8306  -15.7512 H   0  0  0  0  0  0  0  0  0  0  0  0
   36.5900   27.4040  -16.4060 H   0  0  0  0  0  0  0  0  0  0  0  0
   39.0598   26.7094  -17.0951 H   0  0  0  0  0  0  0  0  0  0  0  0
   37.5979   26.6931  -18.1388 H   0  0  0  0  0  0  0  0  0  0  0  0
   38.6856   28.1226  -18.1388 H   0  0  0  0  0  0  0  0  0  0  0  0
   37.2350   27.5121  -14.4067 H   0  0  0  0  0  0  0  0  0  0  0  0
   38.7069   28.9576  -13.4120 H   0  0  0  0  0  0  0  0  0  0  0  0
   39.7722   29.0593  -14.8548 H   0  0  0  0  0  0  0  0  0  0  0  0
   38.1786   29.8882  -14.8548 H   0  0  0  0  0  0  0  0  0  0  0  0
   38.5009   25.6214  -14.8593 H   0  0  0  0  0  0  0  0  0  0  0  0
   39.5192   26.5067  -16.0940 H   0  0  0  0  0  0  0  0  0  0  0  0
   38.8834   27.0387  -12.4053 H   0  0  0  0  0  0  0  0  0  0  0  0
   40.7501   27.2483  -10.7680 H   0  0  0  0  0  0  0  0  0  0  0  0
   43.1131   26.9982  -11.5267 H   0  0  0  0  0  0  0  0  0  0  0  0
   43.6082   26.5519  -13.9285 H   0  0  0  0  0  0  0  0  0  0  0  0
   41.7486   26.3423  -15.5703 H   0  0  0  0  0  0  0  0  0  0  0  0
  1  2  3  0
  2  3  1  0
  3  4  1  0
  4  5  1  0
  4  6  1  0
  6  7  1  0
  6  8  1  0
  8  9  1  0
  9 10  2  0
 10 11  1  0
 11 12  2  0
 12 13  1  0
 13 14  2  0
 14  9  1  0
  1 15  1  0
  3 16  1  0
  3 17  1  0
  4 18  1  1
  5 19  1  0
  5 20  1  0
  5 21  1  0
  6 22  1  1
  7 23  1  0
  7 24  1  0
  7 25  1  0
  8 26  1  0
  8 27  1  0
 10 28  1  0
 11 29  1  0
 12 30  1  0
 13 31  1  0
 14 32  1  0
M  CHG  1   4   1
M  END
>  <meeko>  (6) 
{"is_sidechain": [false], "free_energy": -7.081, "intermolecular_energy": -9.185, "internal_energy": 0.101}

$$$$
selegiline_out
     RDKit          3D

 32 32  0  0  0  0  0  0  0  0999 V2000
   36.8150   29.1610  -15.6650 C   0  0  0  0  0  0  0  0  0  0  0  0
   37.7710   28.8990  -14.9880 C   0  0  0  0  0  0  0  0  0  0  0  0
   38.9430   28.5830  -14.1530 C   0  0  0  0  0  0  0  0  0  0  0  0
   39.2830   27.1510  -14.2140 N   0  0  1  0  0  0  0  0  0  0  0  0
   39.6200   26.7460  -15.5810 C   0  0  0  0  0  0  0  0  0  0  0  0
   40.3130   26.7860  -13.2060 C   0  0  2  0  0  0  0  0  0  0  0  0
   39.8390   26.9050  -11.7480 C   0  0  0  0  0  0  0  0  0  0  0  0
   41.6150   27.6010  -13.4440 C   0  0  0  0  0  0  0  0  0  0  0  0
   42.8540   26.7430  -13.5860 C   0  0  0  0  0  0  0  0  0  0  0  0
   42.8470   25.6090  -14.4090 C   0  0  0  0  0  0  0  0  0  0  0  0
   43.9940   24.8260  -14.5440 C   0  0  0  0  0  0  0  0  0  0  0  0
   45.1580   25.1670  -13.8570 C   0  0  0  0  0  0  0  0  0  0  0  0
   45.1740   26.2910  -13.0340 C   0  0  0  0  0  0  0  0  0  0  0  0
   44.0290   27.0750  -12.8970 C   0  0  0  0  0  0  0  0  0  0  0  0
   35.9389   29.4011  -16.2854 H   0  0  0  0  0  0  0  0  0  0  0  0
   39.8030   29.1694  -14.5086 H   0  0  0  0  0  0  0  0  0  0  0  0
   38.6998   28.8344  -13.1101 H   0  0  0  0  0  0  0  0  0  0  0  0
   38.4560   26.6130  -13.9570 H   0  0  0  0  0  0  0  0  0  0  0  0
   40.3233   25.9008  -15.5502 H   0  0  0  0  0  0  0  0  0  0  0  0
   38.7045   26.4421  -16.1096 H   0  0  0  0  0  0  0  0  0  0  0  0
   40.0853   27.5910  -16.1096 H   0  0  0  0  0  0  0  0  0  0  0  0
   40.5195   25.7157  -13.3538 H   0  0  0  0  0  0  0  0  0  0  0  0
   40.6797   26.6939  -11.0707 H   0  0  0  0  0  0  0  0  0  0  0  0
   39.4678   27.9242  -11.5651 H   0  0  0  0  0  0  0  0  0  0  0  0
   39.0304   26.1820  -11.5651 H   0  0  0  0  0  0  0  0  0  0  0  0
   41.4927   28.1892  -14.3655 H   0  0  0  0  0  0  0  0  0  0  0  0
   41.7635   28.2348  -12.5573 H   0  0  0  0  0  0  0  0  0  0  0  0
   41.9309   25.3341  -14.9524 H   0  0  0  0  0  0  0  0  0  0  0  0
   43.9797   23.9383  -15.1935 H   0  0  0  0  0  0  0  0  0  0  0  0
   46.0622   24.5498  -13.9645 H   0  0  0  0  0  0  0  0  0  0  0  0
   46.0919   26.5606  -12.4911 H   0  0  0  0  0  0  0  0  0  0  0  0
   44.0478   27.9599  -12.2439 H   0  0  0  0  0  0  0  0  0  0  0  0
  1  2  3  0
  2  3  1  0
  3  4  1  0
  4  5  1  0
  4  6  1  0
  6  7  1  0
  6  8  1  0
  8  9  1  0
  9 10  2  0
 10 11  1  0
 11 12  2  0
 12 13  1  0
 13 14  2  0
 14  9  1  0
  1 15  1  0
  3 16  1  0
  3 17  1  0
  4 18  1  1
  5 19  1  0
  5 20  1  0
  5 21  1  0
  6 22  1  6
  7 23  1  0
  7 24  1  0
  7 25  1  0
  8 26  1  0
  8 27  1  0
 10 28  1  0
 11 29  1  0
 12 30  1  0
 13 31  1  0
 14 32  1  0
M  CHG  1   4   1
M  END
>  <meeko>  (7) 
{"is_sidechain": [false], "free_energy": -7.032, "intermolecular_energy": -8.61, "internal_energy": -0.414}

$$$$
selegiline_out
     RDKit          3D

 32 32  0  0  0  0  0  0  0  0999 V2000
   36.1100   29.3000  -17.3260 C   0  0  0  0  0  0  0  0  0  0  0  0
   36.8900   29.1810  -16.4200 C   0  0  0  0  0  0  0  0  0  0  0  0
   37.8440   29.0420  -15.3060 C   0  0  0  0  0  0  0  0  0  0  0  0
   38.1220   27.6280  -15.0030 N   0  0  1  0  0  0  0  0  0  0  0  0
   38.7270   26.9510  -16.1530 C   0  0  0  0  0  0  0  0  0  0  0  0
   38.8930   27.4770  -13.7410 C   0  0  2  0  0  0  0  0  0  0  0  0
   39.8150   28.6640  -13.4180 C   0  0  0  0  0  0  0  0  0  0  0  0
   39.6800   26.1370  -13.7440 C   0  0  0  0  0  0  0  0  0  0  0  0
   41.1770   26.3080  -13.6040 C   0  0  0  0  0  0  0  0  0  0  0  0
   41.7320   26.7990  -12.4140 C   0  0  0  0  0  0  0  0  0  0  0  0
   43.1140   26.9470  -12.2870 C   0  0  0  0  0  0  0  0  0  0  0  0
   43.9530   26.6070  -13.3460 C   0  0  0  0  0  0  0  0  0  0  0  0
   43.4120   26.1210  -14.5340 C   0  0  0  0  0  0  0  0  0  0  0  0
   42.0300   25.9720  -14.6640 C   0  0  0  0  0  0  0  0  0  0  0  0
   35.3958   29.4090  -18.1555 H   0  0  0  0  0  0  0  0  0  0  0  0
   38.7860   29.5405  -15.5785 H   0  0  0  0  0  0  0  0  0  0  0  0
   37.3989   29.5041  -14.4125 H   0  0  0  0  0  0  0  0  0  0  0  0
   37.2350   27.1550  -14.8330 H   0  0  0  0  0  0  0  0  0  0  0  0
   39.4208   26.1746  -15.7981 H   0  0  0  0  0  0  0  0  0  0  0  0
   37.9375   26.4866  -16.7621 H   0  0  0  0  0  0  0  0  0  0  0  0
   39.2769   27.6835  -16.7621 H   0  0  0  0  0  0  0  0  0  0  0  0
   38.1497   27.4626  -12.9303 H   0  0  0  0  0  0  0  0  0  0  0  0
   39.9012   28.7750  -12.3270 H   0  0  0  0  0  0  0  0  0  0  0  0
   40.8110   28.4822  -13.8479 H   0  0  0  0  0  0  0  0  0  0  0  0
   39.3924   29.5841  -13.8479 H   0  0  0  0  0  0  0  0  0  0  0  0
   39.3212   25.5221  -12.9054 H   0  0  0  0  0  0  0  0  0  0  0  0
   39.5015   25.6626  -14.7203 H   0  0  0  0  0  0  0  0  0  0  0  0
   41.0741   27.0694  -11.5749 H   0  0  0  0  0  0  0  0  0  0  0  0
   43.5413   27.3326  -11.3496 H   0  0  0  0  0  0  0  0  0  0  0  0
   45.0422   26.7223  -13.2440 H   0  0  0  0  0  0  0  0  0  0  0  0
   44.0744   25.8543  -15.3707 H   0  0  0  0  0  0  0  0  0  0  0  0
   41.6079   25.5884  -15.6045 H   0  0  0  0  0  0  0  0  0  0  0  0
  1  2  3  0
  2  3  1  0
  3  4  1  0
  4  5  1  0
  4  6  1  0
  6  7  1  0
  6  8  1  0
  8  9  1  0
  9 10  2  0
 10 11  1  0
 11 12  2  0
 12 13  1  0
 13 14  2  0
 14  9  1  0
  1 15  1  0
  3 16  1  0
  3 17  1  0
  4 18  1  1
  5 19  1  0
  5 20  1  0
  5 21  1  0
  6 22  1  1
  7 23  1  0
  7 24  1  0
  7 25  1  0
  8 26  1  0
  8 27  1  0
 10 28  1  0
 11 29  1  0
 12 30  1  0
 13 31  1  0
 14 32  1  0
M  CHG  1   4   1
M  END
>  <meeko>  (8) 
{"is_sidechain": [false], "free_energy": -6.903, "intermolecular_energy": -9.132, "internal_energy": 0.267}

$$$$
selegiline_out
     RDKit          3D

 32 32  0  0  0  0  0  0  0  0999 V2000
   47.6220   25.9530  -14.3660 C   0  0  0  0  0  0  0  0  0  0  0  0
   46.5580   26.1690  -13.8510 C   0  0  0  0  0  0  0  0  0  0  0  0
   45.2570   26.4380  -13.2150 C   0  0  0  0  0  0  0  0  0  0  0  0
   44.1390   26.1990  -14.1430 N   0  0  1  0  0  0  0  0  0  0  0  0
   44.0480   24.7830  -14.5050 C   0  0  0  0  0  0  0  0  0  0  0  0
   42.8660   26.7740  -13.6320 C   0  0  2  0  0  0  0  0  0  0  0  0
   42.7750   26.8400  -12.0980 C   0  0  0  0  0  0  0  0  0  0  0  0
   41.6500   26.0190  -14.2370 C   0  0  0  0  0  0  0  0  0  0  0  0
   40.4260   26.8890  -14.4280 C   0  0  0  0  0  0  0  0  0  0  0  0
   40.0920   27.8690  -13.4830 C   0  0  0  0  0  0  0  0  0  0  0  0
   38.9670   28.6740  -13.6680 C   0  0  0  0  0  0  0  0  0  0  0  0
   38.1670   28.5080  -14.7970 C   0  0  0  0  0  0  0  0  0  0  0  0
   38.4890   27.5350  -15.7400 C   0  0  0  0  0  0  0  0  0  0  0  0
   39.6120   26.7280  -15.5580 C   0  0  0  0  0  0  0  0  0  0  0  0
   48.5960   25.7553  -14.8374 H   0  0  0  0  0  0  0  0  0  0  0  0
   45.1434   25.7783  -12.3421 H   0  0  0  0  0  0  0  0  0  0  0  0
   45.2338   27.4959  -12.9143 H   0  0  0  0  0  0  0  0  0  0  0  0
   44.3280   26.7000  -15.0110 H   0  0  0  0  0  0  0  0  0  0  0  0
   44.0088   24.1726  -13.5907 H   0  0  0  0  0  0  0  0  0  0  0  0
   43.1371   24.6140  -15.0981 H   0  0  0  0  0  0  0  0  0  0  0  0
   44.9297   24.4988  -15.0981 H   0  0  0  0  0  0  0  0  0  0  0  0
   42.8481   27.8219  -13.9660 H   0  0  0  0  0  0  0  0  0  0  0  0
   43.5906   26.2485  -11.6565 H   0  0  0  0  0  0  0  0  0  0  0  0
   42.8620   27.8864  -11.7702 H   0  0  0  0  0  0  0  0  0  0  0  0
   41.8074   26.4323  -11.7702 H   0  0  0  0  0  0  0  0  0  0  0  0
   41.9448   25.6148  -15.2166 H   0  0  0  0  0  0  0  0  0  0  0  0
   41.3744   25.2295  -13.5223 H   0  0  0  0  0  0  0  0  0  0  0  0
   40.7203   28.0044  -12.5903 H   0  0  0  0  0  0  0  0  0  0  0  0
   38.7114   29.4406  -12.9216 H   0  0  0  0  0  0  0  0  0  0  0  0
   37.2821   29.1448  -14.9432 H   0  0  0  0  0  0  0  0  0  0  0  0
   37.8564   27.4027  -16.6301 H   0  0  0  0  0  0  0  0  0  0  0  0
   39.8605   25.9605  -16.3058 H   0  0  0  0  0  0  0  0  0  0  0  0
  1  2  3  0
  2  3  1  0
  3  4  1  0
  4  5  1  0
  4  6  1  0
  6  7  1  0
  6  8  1  0
  8  9  1  0
  9 10  2  0
 10 11  1  0
 11 12  2  0
 12 13  1  0
 13 14  2  0
 14  9  1  0
  1 15  1  0
  3 16  1  0
  3 17  1  0
  4 18  1  6
  5 19  1  0
  5 20  1  0
  5 21  1  0
  6 22  1  6
  7 23  1  0
  7 24  1  0
  7 25  1  0
  8 26  1  0
  8 27  1  0
 10 28  1  0
 11 29  1  0
 12 30  1  0
 13 31  1  0
 14 32  1  0
M  CHG  1   4   1
M  END
>  <meeko>  (9) 
{"is_sidechain": [false], "free_energy": -6.441, "intermolecular_energy": -8.253, "internal_energy": -0.041}

$$$$
