cand_026_out
     RDKit          3D

 41 43  0  0  0  0  0  0  0  0999 V2000
   45.4260   27.3290  -12.6700 C   0  0  0  0  0  0  0  0  0  0  0  0
   44.3970   26.5440  -13.4380 C   0  0  0  0  0  0  0  0  0  0  0  0
   43.1240   27.1190  -13.6290 C   0  0  0  0  0  0  0  0  0  0  0  0
   42.1070   26.4510  -14.3270 C   0  0  0  0  0  0  0  0  0  0  0  0
   40.7970   27.1070  -14.5240 C   0  0  0  0  0  0  0  0  0  0  0  0
   40.2870   26.9210  -15.8040 O   0  0  0  0  0  0  0  0  0  0  0  0
   39.0750   27.4760  -16.1230 C   0  0  0  0  0  0  0  0  0  0  0  0
   38.5950   27.2510  -17.4130 C   0  0  0  0  0  0  0  0  0  0  0  0
   37.3670   27.7910  -17.8040 C   0  0  0  0  0  0  0  0  0  0  0  0
   36.6200   28.5540  -16.9040 C   0  0  0  0  0  0  0  0  0  0  0  0
   37.1010   28.7770  -15.6160 C   0  0  0  0  0  0  0  0  0  0  0  0
   36.3200   29.5330  -14.7870 O   0  0  0  0  0  0  0  0  0  0  0  0
   38.3300   28.2360  -15.2260 C   0  0  0  0  0  0  0  0  0  0  0  0
   38.8720   28.4460  -13.8830 C   0  0  0  0  0  0  0  0  0  0  0  0
   38.2780   29.1120  -13.0380 O   0  0  0  0  0  0  0  0  0  0  0  0
   40.1790   27.8240  -13.5670 C   0  0  0  0  0  0  0  0  0  0  0  0
   40.6870   28.0390  -12.3000 O   0  0  0  0  0  0  0  0  0  0  0  0
   42.3870   25.1890  -14.8540 C   0  0  0  0  0  0  0  0  0  0  0  0
   43.6440   24.6040  -14.6730 C   0  0  0  0  0  0  0  0  0  0  0  0
   44.6670   25.2630  -13.9660 C   0  0  0  0  0  0  0  0  0  0  0  0
   46.0190   24.5810  -13.7950 C   0  0  0  0  0  0  0  0  0  0  0  0
   46.3480   24.3480  -12.3170 C   0  0  0  0  0  0  0  0  0  0  0  0
   47.1390   25.3670  -14.4860 C   0  0  0  0  0  0  0  0  0  0  0  0
   45.2559   27.1993  -11.5910 H   0  0  0  0  0  0  0  0  0  0  0  0
   46.4318   26.9667  -12.9288 H   0  0  0  0  0  0  0  0  0  0  0  0
   45.3423   28.3948  -12.9288 H   0  0  0  0  0  0  0  0  0  0  0  0
   42.9226   28.1197  -13.2191 H   0  0  0  0  0  0  0  0  0  0  0  0
   39.1825   26.6491  -18.1219 H   0  0  0  0  0  0  0  0  0  0  0  0
   36.9883   27.6149  -18.8217 H   0  0  0  0  0  0  0  0  0  0  0  0
   35.6530   28.9783  -17.2119 H   0  0  0  0  0  0  0  0  0  0  0  0
   36.2720   29.3280  -13.8740 H   0  0  0  0  0  0  0  0  0  0  0  0
   40.7100   27.3380  -11.6780 H   0  0  0  0  0  0  0  0  0  0  0  0
   41.6112   24.6496  -15.4171 H   0  0  0  0  0  0  0  0  0  0  0  0
   43.8377   23.6059  -15.0928 H   0  0  0  0  0  0  0  0  0  0  0  0
   45.9482   23.5980  -14.2836 H   0  0  0  0  0  0  0  0  0  0  0  0
   45.6102   24.8705  -11.6903 H   0  0  0  0  0  0  0  0  0  0  0  0
   46.3159   23.2702  -12.0997 H   0  0  0  0  0  0  0  0  0  0  0  0
   47.3541   24.7361  -12.0997 H   0  0  0  0  0  0  0  0  0  0  0  0
   47.7896   25.8236  -13.7255 H   0  0  0  0  0  0  0  0  0  0  0  0
   47.7315   24.6856  -15.1142 H   0  0  0  0  0  0  0  0  0  0  0  0
   46.6996   26.1559  -15.1142 H   0  0  0  0  0  0  0  0  0  0  0  0
  1  2  1  0
  2  3  2  0
  3  4  1  0
  4  5  1  0
  5  6  1  0
  6  7  1  0
  7  8  2  0
  8  9  1  0
  9 10  2  0
 10 11  1  0
 11 12  1  0
 11 13  2  0
 13 14  1  0
 14 15  2  0
 14 16  1  0
 16 17  1  0
  4 18  2  0
 18 19  1  0
 19 20  2  0
 20 21  1  0
 21 22  1  0
 21 23  1  0
 20  2  1  0
 16  5  2  0
 13  7  1  0
  1 24  1  0
  1 25  1  0
  1 26  1  0
  3 27  1  0
  8 28  1  0
  9 29  1  0
 10 30  1  0
 12 31  1  0
 17 32  1  0
 18 33  1  0
 19 34  1  0
 21 35  1  0
 22 36  1  0
 22 37  1  0
 22 38  1  0
 23 39  1  0
 23 40  1  0
 23 41  1  0
M  END
>  <meeko>  (1) 
{"is_sidechain": [false], "free_energy": -7.909, "intermolecular_energy": -9.296, "internal_energy": 0.52}

$$$$
cand_026_out
     RDKit          3D

 41 43  0  0  0  0  0  0  0  0999 V2000
   43.5460   26.9540  -11.6690 C   0  0  0  0  0  0  0  0  0  0  0  0
   43.2950   26.4170  -13.0520 C   0  0  0  0  0  0  0  0  0  0  0  0
   42.1080   26.7950  -13.7110 C   0  0  0  0  0  0  0  0  0  0  0  0
   41.7960   26.3340  -14.9980 C   0  0  0  0  0  0  0  0  0  0  0  0
   40.5510   26.7810  -15.6590 C   0  0  0  0  0  0  0  0  0  0  0  0
   39.7710   27.5970  -14.8470 O   0  0  0  0  0  0  0  0  0  0  0  0
   38.5870   28.0840  -15.3370 C   0  0  0  0  0  0  0  0  0  0  0  0
   37.8450   28.9110  -14.4940 C   0  0  0  0  0  0  0  0  0  0  0  0
   36.6270   29.4390  -14.9300 C   0  0  0  0  0  0  0  0  0  0  0  0
   36.1540   29.1400  -16.2100 C   0  0  0  0  0  0  0  0  0  0  0  0
   36.8980   28.3160  -17.0500 C   0  0  0  0  0  0  0  0  0  0  0  0
   36.3760   28.0640  -18.2890 O   0  0  0  0  0  0  0  0  0  0  0  0
   38.1160   27.7880  -16.6130 C   0  0  0  0  0  0  0  0  0  0  0  0
   38.9280   26.9170  -17.4630 C   0  0  0  0  0  0  0  0  0  0  0  0
   38.5760   26.6030  -18.5980 O   0  0  0  0  0  0  0  0  0  0  0  0
   40.2070   26.4160  -16.9080 C   0  0  0  0  0  0  0  0  0  0  0  0
   40.9590   25.5840  -17.7160 O   0  0  0  0  0  0  0  0  0  0  0  0
   42.7060   25.4890  -15.6350 C   0  0  0  0  0  0  0  0  0  0  0  0
   43.8880   25.1020  -14.9950 C   0  0  0  0  0  0  0  0  0  0  0  0
   44.2040   25.5530  -13.7000 C   0  0  0  0  0  0  0  0  0  0  0  0
   45.5040   25.1010  -13.0460 C   0  0  0  0  0  0  0  0  0  0  0  0
   46.5480   26.2220  -13.0370 C   0  0  0  0  0  0  0  0  0  0  0  0
   46.0640   23.8400  -13.7140 C   0  0  0  0  0  0  0  0  0  0  0  0
   43.2035   26.2213  -10.9234 H   0  0  0  0  0  0  0  0  0  0  0  0
   44.6226   27.1363  -11.5363 H   0  0  0  0  0  0  0  0  0  0  0  0
   42.9953   27.8969  -11.5363 H   0  0  0  0  0  0  0  0  0  0  0  0
   41.4060   27.4712  -13.2011 H   0  0  0  0  0  0  0  0  0  0  0  0
   38.2183   29.1474  -13.4867 H   0  0  0  0  0  0  0  0  0  0  0  0
   36.0405   30.0902  -14.2652 H   0  0  0  0  0  0  0  0  0  0  0  0
   35.1950   29.5551  -16.5537 H   0  0  0  0  0  0  0  0  0  0  0  0
   36.3110   27.1820  -18.5990 H   0  0  0  0  0  0  0  0  0  0  0  0
   40.9320   24.6560  -17.5880 H   0  0  0  0  0  0  0  0  0  0  0  0
   42.4916   25.1238  -16.6502 H   0  0  0  0  0  0  0  0  0  0  0  0
   44.5862   24.4301  -15.5156 H   0  0  0  0  0  0  0  0  0  0  0  0
   45.2684   24.8507  -12.0011 H   0  0  0  0  0  0  0  0  0  0  0  0
   46.7937   26.4859  -11.9978 H   0  0  0  0  0  0  0  0  0  0  0  0
   47.4572   25.8804  -13.5534 H   0  0  0  0  0  0  0  0  0  0  0  0
   46.1427   27.1047  -13.5534 H   0  0  0  0  0  0  0  0  0  0  0  0
   46.3814   23.1254  -12.9403 H   0  0  0  0  0  0  0  0  0  0  0  0
   45.2854   23.3804  -14.3405 H   0  0  0  0  0  0  0  0  0  0  0  0
   46.9271   24.1094  -14.3405 H   0  0  0  0  0  0  0  0  0  0  0  0
  1  2  1  0
  2  3  2  0
  3  4  1  0
  4  5  1  0
  5  6  1  0
  6  7  1  0
  7  8  2  0
  8  9  1  0
  9 10  2  0
 10 11  1  0
 11 12  1  0
 11 13  2  0
 13 14  1  0
 14 15  2  0
 14 16  1  0
 16 17  1  0
  4 18  2  0
 18 19  1  0
 19 20  2  0
 20 21  1  0
 21 22  1  0
 21 23  1  0
 20  2  1  0
 16  5  2  0
 13  7  1  0
  1 24  1  0
  1 25  1  0
  1 26  1  0
  3 27  1  0
  8 28  1  0
  9 29  1  0
 10 30  1  0
 12 31  1  0
 17 32  1  0
 18 33  1  0
 19 34  1  0
 21 35  1  0
 22 36  1  0
 22 37  1  0
 22 38  1  0
 23 39  1  0
 23 40  1  0
 23 41  1  0
M  END
>  <meeko>  (2) 
{"is_sidechain": [false], "free_energy": -7.773, "intermolecular_energy": -8.82, "internal_energy": 0.203}

$$$$
cand_026_out
     RDKit          3D

 41 43  0  0  0  0  0  0  0  0999 V2000
   43.8590   22.9780  -13.9750 C   0  0  0  0  0  0  0  0  0  0  0  0
   43.7980   24.4800  -14.0290 C   0  0  0  0  0  0  0  0  0  0  0  0
   42.5460   25.0910  -14.2470 C   0  0  0  0  0  0  0  0  0  0  0  0
   42.4040   26.4840  -14.3170 C   0  0  0  0  0  0  0  0  0  0  0  0
   41.0660   27.0790  -14.5200 C   0  0  0  0  0  0  0  0  0  0  0  0
   40.5590   26.8480  -15.7940 O   0  0  0  0  0  0  0  0  0  0  0  0
   39.3220   27.3450  -16.1160 C   0  0  0  0  0  0  0  0  0  0  0  0
   38.8470   27.0770  -17.4000 C   0  0  0  0  0  0  0  0  0  0  0  0
   37.5950   27.5560  -17.7950 C   0  0  0  0  0  0  0  0  0  0  0  0
   36.8200   28.3020  -16.9040 C   0  0  0  0  0  0  0  0  0  0  0  0
   37.2960   28.5680  -15.6230 C   0  0  0  0  0  0  0  0  0  0  0  0
   36.4860   29.3040  -14.8030 O   0  0  0  0  0  0  0  0  0  0  0  0
   38.5490   28.0870  -15.2290 C   0  0  0  0  0  0  0  0  0  0  0  0
   39.0870   28.3440  -13.8920 C   0  0  0  0  0  0  0  0  0  0  0  0
   38.4670   28.9980  -13.0560 O   0  0  0  0  0  0  0  0  0  0  0  0
   40.4200   27.7850  -13.5720 C   0  0  0  0  0  0  0  0  0  0  0  0
   40.9240   28.0440  -12.3110 O   0  0  0  0  0  0  0  0  0  0  0  0
   43.5430   27.2740  -14.1500 C   0  0  0  0  0  0  0  0  0  0  0  0
   44.7930   26.6840  -13.9350 C   0  0  0  0  0  0  0  0  0  0  0  0
   44.9450   25.2870  -13.8710 C   0  0  0  0  0  0  0  0  0  0  0  0
   46.3300   24.6940  -13.6360 C   0  0  0  0  0  0  0  0  0  0  0  0
   46.6200   24.5190  -12.1420 C   0  0  0  0  0  0  0  0  0  0  0  0
   47.4230   25.5290  -14.3110 C   0  0  0  0  0  0  0  0  0  0  0  0
   43.8724   22.6491  -12.9254 H   0  0  0  0  0  0  0  0  0  0  0  0
   42.9772   22.5568  -14.4800 H   0  0  0  0  0  0  0  0  0  0  0  0
   44.7720   22.6297  -14.4800 H   0  0  0  0  0  0  0  0  0  0  0  0
   41.6553   24.4565  -14.3655 H   0  0  0  0  0  0  0  0  0  0  0  0
   39.4575   26.4890  -18.1011 H   0  0  0  0  0  0  0  0  0  0  0  0
   37.2199   27.3456  -18.8074 H   0  0  0  0  0  0  0  0  0  0  0  0
   35.8343   28.6790  -17.2142 H   0  0  0  0  0  0  0  0  0  0  0  0
   36.4920   30.2390  -14.8560 H   0  0  0  0  0  0  0  0  0  0  0  0
   41.5960   27.4980  -11.9530 H   0  0  0  0  0  0  0  0  0  0  0  0
   43.4567   28.3700  -14.1878 H   0  0  0  0  0  0  0  0  0  0  0  0
   45.6771   27.3270  -13.8132 H   0  0  0  0  0  0  0  0  0  0  0  0
   46.3368   23.6963  -14.0992 H   0  0  0  0  0  0  0  0  0  0  0  0
   45.8234   24.9997  -11.5551 H   0  0  0  0  0  0  0  0  0  0  0  0
   46.6583   23.4468  -11.8991 H   0  0  0  0  0  0  0  0  0  0  0  0
   47.5864   24.9848  -11.8991 H   0  0  0  0  0  0  0  0  0  0  0  0
   48.0476   26.0062  -13.5415 H   0  0  0  0  0  0  0  0  0  0  0  0
   48.0483   24.8764  -14.9380 H   0  0  0  0  0  0  0  0  0  0  0  0
   46.9578   26.3039  -14.9380 H   0  0  0  0  0  0  0  0  0  0  0  0
  1  2  1  0
  2  3  2  0
  3  4  1  0
  4  5  1  0
  5  6  1  0
  6  7  1  0
  7  8  2  0
  8  9  1  0
  9 10  2  0
 10 11  1  0
 11 12  1  0
 11 13  2  0
 13 14  1  0
 14 15  2  0
 14 16  1  0
 16 17  1  0
  4 18  2  0
 18 19  1  0
 19 20  2  0
 20 21  1  0
 21 22  1  0
 21 23  1  0
 20  2  1  0
 16  5  2  0
 13  7  1  0
  1 24  1  0
  1 25  1  0
  1 26  1  0
  3 27  1  0
  8 28  1  0
  9 29  1  0
 10 30  1  0
 12 31  1  0
 17 32  1  0
 18 33  1  0
 19 34  1  0
 21 35  1  0
 22 36  1  0
 22 37  1  0
 22 38  1  0
 23 39  1  0
 23 40  1  0
 23 41  1  0
M  END
>  <meeko>  (3) 
{"is_sidechain": [false], "free_energy": -5.16, "intermolecular_energy": -5.042, "internal_energy": -0.504}

$$$$
