cand_037_out
     RDKit          3D

 35 37  0  0  0  0  0  0  0  0999 V2000
   45.5280   27.2200  -12.6570 C   0  0  0  0  0  0  0  0  0  0  0  0
   44.4710   26.4380  -13.3900 C   0  0  0  0  0  0  0  0  0  0  0  0
   43.2260   27.0430  -13.6390 C   0  0  0  0  0  0  0  0  0  0  0  0
   42.1990   26.3650  -14.3140 C   0  0  0  0  0  0  0  0  0  0  0  0
   40.8980   27.0320  -14.5370 C   0  0  0  0  0  0  0  0  0  0  0  0
   40.3850   26.8020  -15.8080 O   0  0  0  0  0  0  0  0  0  0  0  0
   39.1800   27.3620  -16.1480 C   0  0  0  0  0  0  0  0  0  0  0  0
   38.7090   27.1180  -17.4390 C   0  0  0  0  0  0  0  0  0  0  0  0
   37.4880   27.6570  -17.8480 C   0  0  0  0  0  0  0  0  0  0  0  0
   36.7380   28.4400  -16.9690 C   0  0  0  0  0  0  0  0  0  0  0  0
   37.2090   28.6820  -15.6810 C   0  0  0  0  0  0  0  0  0  0  0  0
   36.4240   29.4560  -14.8710 O   0  0  0  0  0  0  0  0  0  0  0  0
   38.4320   28.1430  -15.2710 C   0  0  0  0  0  0  0  0  0  0  0  0
   38.9640   28.3730  -13.9270 C   0  0  0  0  0  0  0  0  0  0  0  0
   38.3600   29.0440  -13.0940 O   0  0  0  0  0  0  0  0  0  0  0  0
   40.2730   27.7630  -13.5950 C   0  0  0  0  0  0  0  0  0  0  0  0
   40.7600   27.9750  -12.3180 O   0  0  0  0  0  0  0  0  0  0  0  0
   42.4300   25.0480  -14.7230 C   0  0  0  0  0  0  0  0  0  0  0  0
   43.6580   24.4290  -14.4730 C   0  0  0  0  0  0  0  0  0  0  0  0
   44.6850   25.1060  -13.7970 C   0  0  0  0  0  0  0  0  0  0  0  0
   45.9990   24.4030  -13.5680 C   0  0  0  0  0  0  0  0  0  0  0  0
   46.9650   24.7540  -14.4640 F   0  0  0  0  0  0  0  0  0  0  0  0
   45.3795   27.1101  -11.5726 H   0  0  0  0  0  0  0  0  0  0  0  0
   46.5226   26.8386  -12.9314 H   0  0  0  0  0  0  0  0  0  0  0  0
   45.4543   28.2827  -12.9314 H   0  0  0  0  0  0  0  0  0  0  0  0
   43.0527   28.0737  -13.2960 H   0  0  0  0  0  0  0  0  0  0  0  0
   39.2992   26.5018  -18.1332 H   0  0  0  0  0  0  0  0  0  0  0  0
   37.1161   27.4643  -18.8651 H   0  0  0  0  0  0  0  0  0  0  0  0
   35.7766   28.8652  -17.2931 H   0  0  0  0  0  0  0  0  0  0  0  0
   35.4980   29.4920  -15.0110 H   0  0  0  0  0  0  0  0  0  0  0  0
   40.7140   28.8290  -11.9360 H   0  0  0  0  0  0  0  0  0  0  0  0
   41.6374   24.4935  -15.2467 H   0  0  0  0  0  0  0  0  0  0  0  0
   43.8221   23.3953  -14.8113 H   0  0  0  0  0  0  0  0  0  0  0  0
   46.3550   24.6502  -12.5570 H   0  0  0  0  0  0  0  0  0  0  0  0
   45.8166   23.3255  -13.6931 H   0  0  0  0  0  0  0  0  0  0  0  0
  1  2  1  0
  2  3  2  0
  3  4  1  0
  4  5  1  0
  5  6  1  0
  6  7  1  0
  7  8  2  0
  8  9  1  0
  9 10  2  0
 10 11  1  0
 11 12  1  0
 11 13  2  0
 13 14  1  0
 14 15  2  0
 14 16  1  0
 16 17  1  0
  4 18  2  0
 18 19  1  0
 19 20  2  0
 20 21  1  0
 21 22  1  0
 20  2  1  0
 16  5  2  0
 13  7  1  0
  1 23  1  0
  1 24  1  0
  1 25  1  0
  3 26  1  0
  8 27  1  0
  9 28  1  0
 10 29  1  0
 12 30  1  0
 17 31  1  0
 18 32  1  0
 19 33  1  0
 21 34  1  0
 21 35  1  0
M  END
>  <meeko>  (1) 
{"is_sidechain": [false], "free_energy": -8.331, "intermolecular_energy": -9.792, "internal_energy": -0.072}

$$$$
cand_037_out
     RDKit          3D

 35 37  0  0  0  0  0  0  0  0999 V2000
   44.6950   27.4960  -12.5440 C   0  0  0  0  0  0  0  0  0  0  0  0
   43.9450   26.5470  -13.4380 C   0  0  0  0  0  0  0  0  0  0  0  0
   42.7670   26.9900  -14.0680 C   0  0  0  0  0  0  0  0  0  0  0  0
   42.0220   26.1520  -14.9100 C   0  0  0  0  0  0  0  0  0  0  0  0
   40.7790   26.6520  -15.5350 C   0  0  0  0  0  0  0  0  0  0  0  0
   40.0380   27.4660  -14.6880 O   0  0  0  0  0  0  0  0  0  0  0  0
   38.8590   28.0000  -15.1430 C   0  0  0  0  0  0  0  0  0  0  0  0
   38.1400   28.8000  -14.2530 C   0  0  0  0  0  0  0  0  0  0  0  0
   36.9330   29.3750  -14.6550 C   0  0  0  0  0  0  0  0  0  0  0  0
   36.4450   29.1520  -15.9440 C   0  0  0  0  0  0  0  0  0  0  0  0
   37.1640   28.3550  -16.8300 C   0  0  0  0  0  0  0  0  0  0  0  0
   36.6290   28.1780  -18.0760 O   0  0  0  0  0  0  0  0  0  0  0  0
   38.3720   27.7770  -16.4280 C   0  0  0  0  0  0  0  0  0  0  0  0
   39.1590   26.9320  -17.3270 C   0  0  0  0  0  0  0  0  0  0  0  0
   38.8010   26.6950  -18.4770 O   0  0  0  0  0  0  0  0  0  0  0  0
   40.4220   26.3620  -16.8010 C   0  0  0  0  0  0  0  0  0  0  0  0
   41.1650   25.5770  -17.6630 O   0  0  0  0  0  0  0  0  0  0  0  0
   42.4640   24.8380  -15.0990 C   0  0  0  0  0  0  0  0  0  0  0  0
   43.6250   24.3790  -14.4720 C   0  0  0  0  0  0  0  0  0  0  0  0
   44.3710   25.2170  -13.6280 C   0  0  0  0  0  0  0  0  0  0  0  0
   45.6280   24.6830  -12.9890 C   0  0  0  0  0  0  0  0  0  0  0  0
   46.6160   24.4050  -13.8860 F   0  0  0  0  0  0  0  0  0  0  0  0
   44.4956   27.2437  -11.4920 H   0  0  0  0  0  0  0  0  0  0  0  0
   45.7736   27.4123  -12.7431 H   0  0  0  0  0  0  0  0  0  0  0  0
   44.3643   28.5260  -12.7431 H   0  0  0  0  0  0  0  0  0  0  0  0
   42.4219   28.0201  -13.8954 H   0  0  0  0  0  0  0  0  0  0  0  0
   38.5236   28.9769  -13.2373 H   0  0  0  0  0  0  0  0  0  0  0  0
   36.3652   30.0051  -13.9546 H   0  0  0  0  0  0  0  0  0  0  0  0
   35.4936   29.6056  -16.2589 H   0  0  0  0  0  0  0  0  0  0  0  0
   35.7790   28.5190  -18.2740 H   0  0  0  0  0  0  0  0  0  0  0  0
   41.9560   25.1740  -17.3640 H   0  0  0  0  0  0  0  0  0  0  0  0
   41.8913   24.1592  -15.7481 H   0  0  0  0  0  0  0  0  0  0  0  0
   43.9598   23.3451  -14.6422 H   0  0  0  0  0  0  0  0  0  0  0  0
   46.0037   25.4337  -12.2782 H   0  0  0  0  0  0  0  0  0  0  0  0
   45.3636   23.7369  -12.4940 H   0  0  0  0  0  0  0  0  0  0  0  0
  1  2  1  0
  2  3  2  0
  3  4  1  0
  4  5  1  0
  5  6  1  0
  6  7  1  0
  7  8  2  0
  8  9  1  0
  9 10  2  0
 10 11  1  0
 11 12  1  0
 11 13  2  0
 13 14  1  0
 14 15  2  0
 14 16  1  0
 16 17  1  0
  4 18  2  0
 18 19  1  0
 19 20  2  0
 20 21  1  0
 21 22  1  0
 20  2  1  0
 16  5  2  0
 13  7  1  0
  1 23  1  0
  1 24  1  0
  1 25  1  0
  3 26  1  0
  8 27  1  0
  9 28  1  0
 10 29  1  0
 12 30  1  0
 17 31  1  0
 18 32  1  0
 19 33  1  0
 21 34  1  0
 21 35  1  0
M  END
>  <meeko>  (2) 
{"is_sidechain": [false], "free_energy": -8.127, "intermolecular_energy": -9.547, "internal_energy": -0.078}

$$$$
cand_037_out
     RDKit          3D

 35 37  0  0  0  0  0  0  0  0999 V2000
   46.1530   27.3640  -12.6120 C   0  0  0  0  0  0  0  0  0  0  0  0
   45.1560   26.4640  -13.2900 C   0  0  0  0  0  0  0  0  0  0  0  0
   43.8710   26.9610  -13.5740 C   0  0  0  0  0  0  0  0  0  0  0  0
   42.8970   26.1700  -14.2010 C   0  0  0  0  0  0  0  0  0  0  0  0
   41.5520   26.7260  -14.4620 C   0  0  0  0  0  0  0  0  0  0  0  0
   41.0960   26.4580  -15.7480 O   0  0  0  0  0  0  0  0  0  0  0  0
   39.8590   26.9160  -16.1230 C   0  0  0  0  0  0  0  0  0  0  0  0
   39.4480   26.6360  -17.4270 C   0  0  0  0  0  0  0  0  0  0  0  0
   38.1990   27.0730  -17.8720 C   0  0  0  0  0  0  0  0  0  0  0  0
   37.3610   27.7880  -17.0150 C   0  0  0  0  0  0  0  0  0  0  0  0
   37.7720   28.0650  -15.7140 C   0  0  0  0  0  0  0  0  0  0  0  0
   36.9020   28.7690  -14.9270 O   0  0  0  0  0  0  0  0  0  0  0  0
   39.0240   27.6290  -15.2690 C   0  0  0  0  0  0  0  0  0  0  0  0
   39.4950   27.9000  -13.9090 C   0  0  0  0  0  0  0  0  0  0  0  0
   38.8130   28.5160  -13.0950 O   0  0  0  0  0  0  0  0  0  0  0  0
   40.8400   27.4000  -13.5390 C   0  0  0  0  0  0  0  0  0  0  0  0
   41.2700   27.6490  -12.2490 O   0  0  0  0  0  0  0  0  0  0  0  0
   43.2220   24.8500  -14.5260 C   0  0  0  0  0  0  0  0  0  0  0  0
   44.4910   24.3370  -14.2410 C   0  0  0  0  0  0  0  0  0  0  0  0
   45.4660   25.1270  -13.6120 C   0  0  0  0  0  0  0  0  0  0  0  0
   46.8260   24.5360  -13.3430 C   0  0  0  0  0  0  0  0  0  0  0  0
   47.7980   25.0140  -14.1700 F   0  0  0  0  0  0  0  0  0  0  0  0
   46.0491   27.2702  -11.5209 H   0  0  0  0  0  0  0  0  0  0  0  0
   47.1713   27.0732  -12.9097 H   0  0  0  0  0  0  0  0  0  0  0  0
   45.9676   28.4066  -12.9097 H   0  0  0  0  0  0  0  0  0  0  0  0
   43.6237   27.9965  -13.2973 H   0  0  0  0  0  0  0  0  0  0  0  0
   40.1072   26.0718  -18.1031 H   0  0  0  0  0  0  0  0  0  0  0  0
   37.8748   26.8534  -18.8999 H   0  0  0  0  0  0  0  0  0  0  0  0
   36.3773   28.1321  -17.3670 H   0  0  0  0  0  0  0  0  0  0  0  0
   36.0080   28.4970  -14.8580 H   0  0  0  0  0  0  0  0  0  0  0  0
   41.7650   27.0010  -11.7870 H   0  0  0  0  0  0  0  0  0  0  0  0
   42.4717   24.2082  -15.0110 H   0  0  0  0  0  0  0  0  0  0  0  0
   44.7290   23.2983  -14.5139 H   0  0  0  0  0  0  0  0  0  0  0  0
   47.1071   24.7668  -12.3049 H   0  0  0  0  0  0  0  0  0  0  0  0
   46.7505   23.4535  -13.5230 H   0  0  0  0  0  0  0  0  0  0  0  0
  1  2  1  0
  2  3  2  0
  3  4  1  0
  4  5  1  0
  5  6  1  0
  6  7  1  0
  7  8  2  0
  8  9  1  0
  9 10  2  0
 10 11  1  0
 11 12  1  0
 11 13  2  0
 13 14  1  0
 14 15  2  0
 14 16  1  0
 16 17  1  0
  4 18  2  0
 18 19  1  0
 19 20  2  0
 20 21  1  0
 21 22  1  0
 20  2  1  0
 16  5  2  0
 13  7  1  0
  1 23  1  0
  1 24  1  0
  1 25  1  0
  3 26  1  0
  8 27  1  0
  9 28  1  0
 10 29  1  0
 12 30  1  0
 17 31  1  0
 18 32  1  0
 19 33  1  0
 21 34  1  0
 21 35  1  0
M  END
>  <meeko>  (3) 
{"is_sidechain": [false], "free_energy": -7.709, "intermolecular_energy": -9.03, "internal_energy": -0.103}

$$$$
cand_037_out
     RDKit          3D

 35 37  0  0  0  0  0  0  0  0999 V2000
   37.4350   26.6200  -18.7140 C   0  0  0  0  0  0  0  0  0  0  0  0
   37.6660   27.4480  -17.4800 C   0  0  0  0  0  0  0  0  0  0  0  0
   38.7130   27.0950  -16.6080 C   0  0  0  0  0  0  0  0  0  0  0  0
   38.9770   27.8260  -15.4400 C   0  0  0  0  0  0  0  0  0  0  0  0
   40.0740   27.4090  -14.5420 C   0  0  0  0  0  0  0  0  0  0  0  0
   41.0950   26.7420  -15.2090 O   0  0  0  0  0  0  0  0  0  0  0  0
   42.1780   26.3000  -14.4940 C   0  0  0  0  0  0  0  0  0  0  0  0
   43.1730   25.6240  -15.2020 C   0  0  0  0  0  0  0  0  0  0  0  0
   44.3020   25.1490  -14.5330 C   0  0  0  0  0  0  0  0  0  0  0  0
   44.4390   25.3500  -13.1580 C   0  0  0  0  0  0  0  0  0  0  0  0
   43.4460   26.0250  -12.4540 C   0  0  0  0  0  0  0  0  0  0  0  0
   43.6440   26.1880  -11.1100 O   0  0  0  0  0  0  0  0  0  0  0  0
   42.3140   26.5000  -13.1230 C   0  0  0  0  0  0  0  0  0  0  0  0
   41.2470   27.2140  -12.4210 C   0  0  0  0  0  0  0  0  0  0  0  0
   41.2970   27.4360  -11.2140 O   0  0  0  0  0  0  0  0  0  0  0  0
   40.0860   27.6700  -13.2210 C   0  0  0  0  0  0  0  0  0  0  0  0
   39.0900   28.3560  -12.5500 O   0  0  0  0  0  0  0  0  0  0  0  0
   38.1540   28.9160  -15.1390 C   0  0  0  0  0  0  0  0  0  0  0  0
   37.1030   29.2730  -15.9890 C   0  0  0  0  0  0  0  0  0  0  0  0
   36.8380   28.5420  -17.1570 C   0  0  0  0  0  0  0  0  0  0  0  0
   35.7050   28.9760  -18.0520 C   0  0  0  0  0  0  0  0  0  0  0  0
   35.4100   30.3030  -17.9460 F   0  0  0  0  0  0  0  0  0  0  0  0
   37.1500   25.5985  -18.4221 H   0  0  0  0  0  0  0  0  0  0  0  0
   36.6279   27.0693  -19.3113 H   0  0  0  0  0  0  0  0  0  0  0  0
   38.3581   26.5866  -19.3113 H   0  0  0  0  0  0  0  0  0  0  0  0
   39.3402   26.2239  -16.8484 H   0  0  0  0  0  0  0  0  0  0  0  0
   43.0675   25.4659  -16.2855 H   0  0  0  0  0  0  0  0  0  0  0  0
   45.0858   24.6150  -15.0902 H   0  0  0  0  0  0  0  0  0  0  0  0
   45.3298   24.9757  -12.6323 H   0  0  0  0  0  0  0  0  0  0  0  0
   43.1390   25.6890  -10.4990 H   0  0  0  0  0  0  0  0  0  0  0  0
   39.3150   29.0400  -11.9510 H   0  0  0  0  0  0  0  0  0  0  0  0
   38.3356   29.4986  -14.2238 H   0  0  0  0  0  0  0  0  0  0  0  0
   36.4743   30.1401  -15.7383 H   0  0  0  0  0  0  0  0  0  0  0  0
   35.9828   28.7626  -19.0947 H   0  0  0  0  0  0  0  0  0  0  0  0
   34.8106   28.4180  -17.7379 H   0  0  0  0  0  0  0  0  0  0  0  0
  1  2  1  0
  2  3  2  0
  3  4  1  0
  4  5  1  0
  5  6  1  0
  6  7  1  0
  7  8  2  0
  8  9  1  0
  9 10  2  0
 10 11  1  0
 11 12  1  0
 11 13  2  0
 13 14  1  0
 14 15  2  0
 14 16  1  0
 16 17  1  0
  4 18  2  0
 18 19  1  0
 19 20  2  0
 20 21  1  0
 21 22  1  0
 20  2  1  0
 16  5  2  0
 13  7  1  0
  1 23  1  0
  1 24  1  0
  1 25  1  0
  3 26  1  0
  8 27  1  0
  9 28  1  0
 10 29  1  0
 12 30  1  0
 17 31  1  0
 18 32  1  0
 19 33  1  0
 21 34  1  0
 21 35  1  0
M  END
>  <meeko>  (4) 
{"is_sidechain": [false], "free_energy": -7.434, "intermolecular_energy": -8.934, "internal_energy": 0.124}

$$$$
cand_037_out
     RDKit          3D

 35 37  0  0  0  0  0  0  0  0999 V2000
   44.6270   25.0760  -14.9090 C   0  0  0  0  0  0  0  0  0  0  0  0
   43.6340   25.7970  -14.0390 C   0  0  0  0  0  0  0  0  0  0  0  0
   42.4350   26.2600  -14.6130 C   0  0  0  0  0  0  0  0  0  0  0  0
   41.4710   26.9420  -13.8550 C   0  0  0  0  0  0  0  0  0  0  0  0
   40.2350   27.4300  -14.5020 C   0  0  0  0  0  0  0  0  0  0  0  0
   40.0070   26.8440  -15.7420 O   0  0  0  0  0  0  0  0  0  0  0  0
   38.8910   27.2070  -16.4520 C   0  0  0  0  0  0  0  0  0  0  0  0
   38.7100   26.6050  -17.6990 C   0  0  0  0  0  0  0  0  0  0  0  0
   37.5940   26.9290  -18.4720 C   0  0  0  0  0  0  0  0  0  0  0  0
   36.6580   27.8520  -18.0010 C   0  0  0  0  0  0  0  0  0  0  0  0
   36.8410   28.4510  -16.7570 C   0  0  0  0  0  0  0  0  0  0  0  0
   35.8870   29.3450  -16.3560 O   0  0  0  0  0  0  0  0  0  0  0  0
   37.9590   28.1280  -15.9830 C   0  0  0  0  0  0  0  0  0  0  0  0
   38.1890   28.7340  -14.6710 C   0  0  0  0  0  0  0  0  0  0  0  0
   37.4090   29.5480  -14.1840 O   0  0  0  0  0  0  0  0  0  0  0  0
   39.4090   28.3290  -13.9340 C   0  0  0  0  0  0  0  0  0  0  0  0
   39.6100   28.8970  -12.6890 O   0  0  0  0  0  0  0  0  0  0  0  0
   41.7350   27.1780  -12.5020 C   0  0  0  0  0  0  0  0  0  0  0  0
   42.9260   26.7340  -11.9200 C   0  0  0  0  0  0  0  0  0  0  0  0
   43.8910   26.0520  -12.6770 C   0  0  0  0  0  0  0  0  0  0  0  0
   45.1520   25.5770  -12.0010 C   0  0  0  0  0  0  0  0  0  0  0  0
   45.5410   24.3310  -12.3960 F   0  0  0  0  0  0  0  0  0  0  0  0
   45.3544   24.5478  -14.2750 H   0  0  0  0  0  0  0  0  0  0  0  0
   44.0987   24.3497  -15.5441 H   0  0  0  0  0  0  0  0  0  0  0  0
   45.1541   25.8032  -15.5441 H   0  0  0  0  0  0  0  0  0  0  0  0
   42.2491   26.0827  -15.6826 H   0  0  0  0  0  0  0  0  0  0  0  0
   39.4456   25.8768  -18.0713 H   0  0  0  0  0  0  0  0  0  0  0  0
   37.4514   26.4560  -19.4548 H   0  0  0  0  0  0  0  0  0  0  0  0
   35.7783   28.1054  -18.6109 H   0  0  0  0  0  0  0  0  0  0  0  0
   35.0170   29.0510  -16.1700 H   0  0  0  0  0  0  0  0  0  0  0  0
   38.8770   29.2010  -12.1900 H   0  0  0  0  0  0  0  0  0  0  0  0
   40.9981   27.7184  -11.8897 H   0  0  0  0  0  0  0  0  0  0  0  0
   43.1096   26.9222  -10.8519 H   0  0  0  0  0  0  0  0  0  0  0  0
   45.9608   26.2852  -12.2341 H   0  0  0  0  0  0  0  0  0  0  0  0
   44.9430   25.5256  -10.9223 H   0  0  0  0  0  0  0  0  0  0  0  0
  1  2  1  0
  2  3  2  0
  3  4  1  0
  4  5  1  0
  5  6  1  0
  6  7  1  0
  7  8  2  0
  8  9  1  0
  9 10  2  0
 10 11  1  0
 11 12  1  0
 11 13  2  0
 13 14  1  0
 14 15  2  0
 14 16  1  0
 16 17  1  0
  4 18  2  0
 18 19  1  0
 19 20  2  0
 20 21  1  0
 21 22  1  0
 20  2  1  0
 16  5  2  0
 13  7  1  0
  1 23  1  0
  1 24  1  0
  1 25  1  0
  3 26  1  0
  8 27  1  0
  9 28  1  0
 10 29  1  0
 12 30  1  0
 17 31  1  0
 18 32  1  0
 19 33  1  0
 21 34  1  0
 21 35  1  0
M  END
>  <meeko>  (5) 
{"is_sidechain": [false], "free_energy": -6.425, "intermolecular_energy": -8.15, "internal_energy": 0.526}

$$$$
cand_037_out
     RDKit          3D

 35 37  0  0  0  0  0  0  0  0999 V2000
   44.7020   24.7820  -14.6460 C   0  0  0  0  0  0  0  0  0  0  0  0
   43.6010   25.6460  -14.0960 C   0  0  0  0  0  0  0  0  0  0  0  0
   42.4880   25.9320  -14.9090 C   0  0  0  0  0  0  0  0  0  0  0  0
   41.4310   26.7340  -14.4550 C   0  0  0  0  0  0  0  0  0  0  0  0
   40.2900   27.0250  -15.3490 C   0  0  0  0  0  0  0  0  0  0  0  0
   39.3580   27.8820  -14.7750 O   0  0  0  0  0  0  0  0  0  0  0  0
   38.2480   28.2370  -15.4980 C   0  0  0  0  0  0  0  0  0  0  0  0
   37.3320   29.0880  -14.8770 C   0  0  0  0  0  0  0  0  0  0  0  0
   36.1810   29.4880  -15.5580 C   0  0  0  0  0  0  0  0  0  0  0  0
   35.9460   29.0400  -16.8600 C   0  0  0  0  0  0  0  0  0  0  0  0
   36.8620   28.1930  -17.4780 C   0  0  0  0  0  0  0  0  0  0  0  0
   36.5710   27.7930  -18.7530 O   0  0  0  0  0  0  0  0  0  0  0  0
   38.0130   27.7900  -16.7950 C   0  0  0  0  0  0  0  0  0  0  0  0
   39.0010   26.9000  -17.4070 C   0  0  0  0  0  0  0  0  0  0  0  0
   38.8690   26.4700  -18.5500 O   0  0  0  0  0  0  0  0  0  0  0  0
   40.1840   26.5270  -16.5960 C   0  0  0  0  0  0  0  0  0  0  0  0
   41.1170   25.6980  -17.1890 O   0  0  0  0  0  0  0  0  0  0  0  0
   41.5120   27.2730  -13.1670 C   0  0  0  0  0  0  0  0  0  0  0  0
   42.6150   27.0090  -12.3510 C   0  0  0  0  0  0  0  0  0  0  0  0
   43.6740   26.2070  -12.8050 C   0  0  0  0  0  0  0  0  0  0  0  0
   44.8350   25.9340  -11.8820 C   0  0  0  0  0  0  0  0  0  0  0  0
   45.9870   26.5560  -12.2620 F   0  0  0  0  0  0  0  0  0  0  0  0
   45.2689   24.3371  -13.8149 H   0  0  0  0  0  0  0  0  0  0  0  0
   44.2668   23.9818  -15.2627 H   0  0  0  0  0  0  0  0  0  0  0  0
   45.3757   25.3950  -15.2627 H   0  0  0  0  0  0  0  0  0  0  0  0
   42.4463   25.5158  -15.9264 H   0  0  0  0  0  0  0  0  0  0  0  0
   37.5170   29.4429  -13.8524 H   0  0  0  0  0  0  0  0  0  0  0  0
   35.4579   30.1570  -15.0686 H   0  0  0  0  0  0  0  0  0  0  0  0
   35.0389   29.3558  -17.3961 H   0  0  0  0  0  0  0  0  0  0  0  0
   36.5230   26.8800  -18.9580 H   0  0  0  0  0  0  0  0  0  0  0  0
   41.6840   26.0320  -17.8550 H   0  0  0  0  0  0  0  0  0  0  0  0
   40.6985   27.9117  -12.7924 H   0  0  0  0  0  0  0  0  0  0  0  0
   42.6542   27.4358  -11.3379 H   0  0  0  0  0  0  0  0  0  0  0  0
   44.5676   26.2816  -10.8732 H   0  0  0  0  0  0  0  0  0  0  0  0
   45.0257   24.8511  -11.9119 H   0  0  0  0  0  0  0  0  0  0  0  0
  1  2  1  0
  2  3  2  0
  3  4  1  0
  4  5  1  0
  5  6  1  0
  6  7  1  0
  7  8  2  0
  8  9  1  0
  9 10  2  0
 10 11  1  0
 11 12  1  0
 11 13  2  0
 13 14  1  0
 14 15  2  0
 14 16  1  0
 16 17  1  0
  4 18  2  0
 18 19  1  0
 19 20  2  0
 20 21  1  0
 21 22  1  0
 20  2  1  0
 16  5  2  0
 13  7  1  0
  1 23  1  0
  1 24  1  0
  1 25  1  0
  3 26  1  0
  8 27  1  0
  9 28  1  0
 10 29  1  0
 12 30  1  0
 17 31  1  0
 18 32  1  0
 19 33  1  0
 21 34  1  0
 21 35  1  0
M  END
>  <meeko>  (6) 
{"is_sidechain": [false], "free_energy": -6.052, "intermolecular_energy": -7.486, "internal_energy": 0.3}

$$$$
cand_037_out
     RDKit          3D

 35 37  0  0  0  0  0  0  0  0999 V2000
   36.3970   26.6150  -19.8430 C   0  0  0  0  0  0  0  0  0  0  0  0
   36.7610   27.4110  -18.6190 C   0  0  0  0  0  0  0  0  0  0  0  0
   37.8810   27.0220  -17.8610 C   0  0  0  0  0  0  0  0  0  0  0  0
   38.2690   27.7210  -16.7090 C   0  0  0  0  0  0  0  0  0  0  0  0
   39.4410   27.2650  -15.9310 C   0  0  0  0  0  0  0  0  0  0  0  0
   39.3490   27.5820  -14.5800 O   0  0  0  0  0  0  0  0  0  0  0  0
   40.3700   27.2160  -13.7410 C   0  0  0  0  0  0  0  0  0  0  0  0
   40.2420   27.5680  -12.3960 C   0  0  0  0  0  0  0  0  0  0  0  0
   41.2460   27.2230  -11.4890 C   0  0  0  0  0  0  0  0  0  0  0  0
   42.3760   26.5280  -11.9240 C   0  0  0  0  0  0  0  0  0  0  0  0
   42.5010   26.1780  -13.2660 C   0  0  0  0  0  0  0  0  0  0  0  0
   43.6320   25.4980  -13.6250 O   0  0  0  0  0  0  0  0  0  0  0  0
   41.4970   26.5240  -14.1750 C   0  0  0  0  0  0  0  0  0  0  0  0
   41.5880   26.1760  -15.5940 C   0  0  0  0  0  0  0  0  0  0  0  0
   42.5470   25.5590  -16.0520 O   0  0  0  0  0  0  0  0  0  0  0  0
   40.4740   26.5950  -16.4760 C   0  0  0  0  0  0  0  0  0  0  0  0
   40.5640   26.2490  -17.8110 O   0  0  0  0  0  0  0  0  0  0  0  0
   37.4990   28.8160  -16.3060 C   0  0  0  0  0  0  0  0  0  0  0  0
   36.3770   29.2090  -17.0410 C   0  0  0  0  0  0  0  0  0  0  0  0
   35.9880   28.5090  -18.1940 C   0  0  0  0  0  0  0  0  0  0  0  0
   34.7810   28.9820  -18.9640 C   0  0  0  0  0  0  0  0  0  0  0  0
   34.5180   30.3100  -18.7980 F   0  0  0  0  0  0  0  0  0  0  0  0
   35.9575   25.6539  -19.5380 H   0  0  0  0  0  0  0  0  0  0  0  0
   35.6669   27.1781  -20.4429 H   0  0  0  0  0  0  0  0  0  0  0  0
   37.3005   26.4311  -20.4429 H   0  0  0  0  0  0  0  0  0  0  0  0
   38.4669   26.1475  -18.1803 H   0  0  0  0  0  0  0  0  0  0  0  0
   39.3524   28.1158  -12.0517 H   0  0  0  0  0  0  0  0  0  0  0  0
   41.1464   27.4995  -10.4290 H   0  0  0  0  0  0  0  0  0  0  0  0
   43.1660   26.2574  -11.2080 H   0  0  0  0  0  0  0  0  0  0  0  0
   43.6040   24.8800  -14.3290 H   0  0  0  0  0  0  0  0  0  0  0  0
   41.2950   26.5380  -18.3210 H   0  0  0  0  0  0  0  0  0  0  0  0
   37.7792   29.3744  -15.4006 H   0  0  0  0  0  0  0  0  0  0  0  0
   35.7904   30.0792  -16.7113 H   0  0  0  0  0  0  0  0  0  0  0  0
   34.9535   28.7919  -20.0336 H   0  0  0  0  0  0  0  0  0  0  0  0
   33.9124   28.4285  -18.5777 H   0  0  0  0  0  0  0  0  0  0  0  0
  1  2  1  0
  2  3  2  0
  3  4  1  0
  4  5  1  0
  5  6  1  0
  6  7  1  0
  7  8  2  0
  8  9  1  0
  9 10  2  0
 10 11  1  0
 11 12  1  0
 11 13  2  0
 13 14  1  0
 14 15  2  0
 14 16  1  0
 16 17  1  0
  4 18  2  0
 18 19  1  0
 19 20  2  0
 20 21  1  0
 21 22  1  0
 20  2  1  0
 16  5  2  0
 13  7  1  0
  1 23  1  0
  1 24  1  0
  1 25  1  0
  3 26  1  0
  8 27  1  0
  9 28  1  0
 10 29  1  0
 12 30  1  0
 17 31  1  0
 18 32  1  0
 19 33  1  0
 21 34  1  0
 21 35  1  0
M  END
>  <meeko>  (7) 
{"is_sidechain": [false], "free_energy": -5.713, "intermolecular_energy": -6.939, "internal_energy": 0.152}

$$$$
cand_037_out
     RDKit          3D

 35 37  0  0  0  0  0  0  0  0999 V2000
   43.9920   25.0460  -14.6570 C   0  0  0  0  0  0  0  0  0  0  0  0
   42.8190   25.8830  -14.2230 C   0  0  0  0  0  0  0  0  0  0  0  0
   41.7640   26.1000  -15.1280 C   0  0  0  0  0  0  0  0  0  0  0  0
   40.6460   26.8740  -14.7840 C   0  0  0  0  0  0  0  0  0  0  0  0
   39.5690   27.0930  -15.7730 C   0  0  0  0  0  0  0  0  0  0  0  0
   38.6590   28.0660  -15.3740 O   0  0  0  0  0  0  0  0  0  0  0  0
   37.6080   28.3700  -16.2000 C   0  0  0  0  0  0  0  0  0  0  0  0
   36.7100   29.3420  -15.7530 C   0  0  0  0  0  0  0  0  0  0  0  0
   35.6190   29.6990  -16.5470 C   0  0  0  0  0  0  0  0  0  0  0  0
   35.4240   29.0870  -17.7870 C   0  0  0  0  0  0  0  0  0  0  0  0
   36.3210   28.1190  -18.2310 C   0  0  0  0  0  0  0  0  0  0  0  0
   36.0710   27.5600  -19.4550 O   0  0  0  0  0  0  0  0  0  0  0  0
   37.4130   27.7600  -17.4360 C   0  0  0  0  0  0  0  0  0  0  0  0
   38.3780   26.7470  -17.8640 C   0  0  0  0  0  0  0  0  0  0  0  0
   38.2800   26.1690  -18.9440 O   0  0  0  0  0  0  0  0  0  0  0  0
   39.4970   26.4330  -16.9440 C   0  0  0  0  0  0  0  0  0  0  0  0
   40.4110   25.4850  -17.3650 O   0  0  0  0  0  0  0  0  0  0  0  0
   40.6060   27.4550  -13.5130 C   0  0  0  0  0  0  0  0  0  0  0  0
   41.6510   27.2590  -12.6050 C   0  0  0  0  0  0  0  0  0  0  0  0
   42.7710   26.4850  -12.9490 C   0  0  0  0  0  0  0  0  0  0  0  0
   43.8650   26.2860  -11.9310 C   0  0  0  0  0  0  0  0  0  0  0  0
   44.9830   27.0230  -12.1860 F   0  0  0  0  0  0  0  0  0  0  0  0
   44.5212   24.6684  -13.7697 H   0  0  0  0  0  0  0  0  0  0  0  0
   43.6344   24.1978  -15.2593 H   0  0  0  0  0  0  0  0  0  0  0  0
   44.6777   25.6600  -15.2593 H   0  0  0  0  0  0  0  0  0  0  0  0
   41.8172   25.6513  -16.1309 H   0  0  0  0  0  0  0  0  0  0  0  0
   36.8624   29.8254  -14.7767 H   0  0  0  0  0  0  0  0  0  0  0  0
   34.9112   30.4641  -16.1952 H   0  0  0  0  0  0  0  0  0  0  0  0
   34.5636   29.3691  -18.4116 H   0  0  0  0  0  0  0  0  0  0  0  0
   35.8460   28.1060  -20.1820 H   0  0  0  0  0  0  0  0  0  0  0  0
   40.4080   25.1950  -18.2560 H   0  0  0  0  0  0  0  0  0  0  0  0
   39.7431   28.0730  -13.2242 H   0  0  0  0  0  0  0  0  0  0  0  0
   41.5950   27.7177  -11.6068 H   0  0  0  0  0  0  0  0  0  0  0  0
   43.4772   26.5718  -10.9421 H   0  0  0  0  0  0  0  0  0  0  0  0
   44.1582   25.2266  -11.9726 H   0  0  0  0  0  0  0  0  0  0  0  0
  1  2  1  0
  2  3  2  0
  3  4  1  0
  4  5  1  0
  5  6  1  0
  6  7  1  0
  7  8  2  0
  8  9  1  0
  9 10  2  0
 10 11  1  0
 11 12  1  0
 11 13  2  0
 13 14  1  0
 14 15  2  0
 14 16  1  0
 16 17  1  0
  4 18  2  0
 18 19  1  0
 19 20  2  0
 20 21  1  0
 21 22  1  0
 20  2  1  0
 16  5  2  0
 13  7  1  0
  1 23  1  0
  1 24  1  0
  1 25  1  0
  3 26  1  0
  8 27  1  0
  9 28  1  0
 10 29  1  0
 12 30  1  0
 17 31  1  0
 18 32  1  0
 19 33  1  0
 21 34  1  0
 21 35  1  0
M  END
>  <meeko>  (8) 
{"is_sidechain": [false], "free_energy": -5.698, "intermolecular_energy": -7.035, "internal_energy": 0.265}

$$$$
