cand_006_out
     RDKit          3D

 47 50  0  0  0  0  0  0  0  0999 V2000
   43.7930   26.3210  -10.5490 C   0  0  0  0  0  0  0  0  0  0  0  0
   42.8530   26.5090  -11.7090 C   0  0  0  0  0  0  0  0  0  0  0  0
   41.5180   26.8590  -11.4710 C   0  0  0  0  0  0  0  0  0  0  0  0
   40.6300   27.0420  -12.5330 C   0  0  0  0  0  0  0  0  0  0  0  0
   41.0580   26.8860  -13.8560 C   0  0  0  0  0  0  0  0  0  0  0  0
   40.0960   27.0590  -14.9660 C   0  0  0  0  0  0  0  0  0  0  0  0
   39.0900   27.9730  -14.6710 O   0  0  0  0  0  0  0  0  0  0  0  0
   38.1300   28.2310  -15.6150 C   0  0  0  0  0  0  0  0  0  0  0  0
   37.1310   29.1430  -15.2710 C   0  0  0  0  0  0  0  0  0  0  0  0
   36.1230   29.4510  -16.1860 C   0  0  0  0  0  0  0  0  0  0  0  0
   36.1140   28.8480  -17.4460 C   0  0  0  0  0  0  0  0  0  0  0  0
   37.1110   27.9380  -17.7880 C   0  0  0  0  0  0  0  0  0  0  0  0
   37.0420   27.3860  -19.0370 O   0  0  0  0  0  0  0  0  0  0  0  0
   38.1190   27.6290  -16.8690 C   0  0  0  0  0  0  0  0  0  0  0  0
   39.1860   26.6790  -17.1880 C   0  0  0  0  0  0  0  0  0  0  0  0
   39.2500   26.1130  -18.2770 O   0  0  0  0  0  0  0  0  0  0  0  0
   40.2020   26.4150  -16.1430 C   0  0  0  0  0  0  0  0  0  0  0  0
   41.2120   25.5250  -16.4600 O   0  0  0  0  0  0  0  0  0  0  0  0
   42.3930   26.5240  -14.0890 C   0  0  0  0  0  0  0  0  0  0  0  0
   43.3030   26.3370  -13.0330 C   0  0  0  0  0  0  0  0  0  0  0  0
   44.6540   25.9860  -13.2580 N   0  0  0  0  0  0  0  0  0  0  0  0
   45.4560   27.1300  -13.7230 C   0  0  0  0  0  0  0  0  0  0  0  0
   46.9340   26.7370  -13.7210 C   0  0  0  0  0  0  0  0  0  0  0  0
   47.1720   25.4800  -14.5580 C   0  0  0  0  0  0  0  0  0  0  0  0
   46.2510   24.3450  -14.1110 C   0  0  0  0  0  0  0  0  0  0  0  0
   44.7890   24.7900  -14.1050 C   0  0  0  0  0  0  0  0  0  0  0  0
   43.2381   26.4320   -9.6057 H   0  0  0  0  0  0  0  0  0  0  0  0
   44.2379   25.3161  -10.5967 H   0  0  0  0  0  0  0  0  0  0  0  0
   44.5901   27.0775  -10.5967 H   0  0  0  0  0  0  0  0  0  0  0  0
   41.1655   26.9910  -10.4374 H   0  0  0  0  0  0  0  0  0  0  0  0
   39.5835   27.3115  -12.3275 H   0  0  0  0  0  0  0  0  0  0  0  0
   37.1381   29.6188  -14.2793 H   0  0  0  0  0  0  0  0  0  0  0  0
   35.3351   30.1691  -15.9147 H   0  0  0  0  0  0  0  0  0  0  0  0
   35.3201   29.0918  -18.1673 H   0  0  0  0  0  0  0  0  0  0  0  0
   36.4250   27.7140  -19.6600 H   0  0  0  0  0  0  0  0  0  0  0  0
   42.0170   25.5410  -15.9820 H   0  0  0  0  0  0  0  0  0  0  0  0
   42.7371   26.3827  -15.1242 H   0  0  0  0  0  0  0  0  0  0  0  0
   45.1491   27.4050  -14.7429 H   0  0  0  0  0  0  0  0  0  0  0  0
   45.2995   27.9892  -13.0543 H   0  0  0  0  0  0  0  0  0  0  0  0
   47.5260   27.5643  -14.1394 H   0  0  0  0  0  0  0  0  0  0  0  0
   47.2380   26.5286  -12.6846 H   0  0  0  0  0  0  0  0  0  0  0  0
   46.9745   25.7088  -15.6157 H   0  0  0  0  0  0  0  0  0  0  0  0
   48.2157   25.1599  -14.4227 H   0  0  0  0  0  0  0  0  0  0  0  0
   46.3651   23.4969  -14.8021 H   0  0  0  0  0  0  0  0  0  0  0  0
   46.5303   24.0519  -13.0882 H   0  0  0  0  0  0  0  0  0  0  0  0
   44.4719   25.0275  -15.1312 H   0  0  0  0  0  0  0  0  0  0  0  0
   44.1568   23.9816  -13.7089 H   0  0  0  0  0  0  0  0  0  0  0  0
  1  2  1  0
  2  3  2  0
  3  4  1  0
  4  5  2  0
  5  6  1  0
  6  7  1  0
  7  8  1  0
  8  9  2  0
  9 10  1  0
 10 11  2  0
 11 12  1  0
 12 13  1  0
 12 14  2  0
 14 15  1  0
 15 16  2  0
 15 17  1  0
 17 18  1  0
  5 19  1  0
 19 20  2  0
 20 21  1  0
 21 22  1  0
 22 23  1  0
 23 24  1  0
 24 25  1  0
 25 26  1  0
 20  2  1  0
 26 21  1  0
 17  6  2  0
 14  8  1  0
  1 27  1  0
  1 28  1  0
  1 29  1  0
  3 30  1  0
  4 31  1  0
  9 32  1  0
 10 33  1  0
 11 34  1  0
 13 35  1  0
 18 36  1  0
 19 37  1  0
 22 38  1  0
 22 39  1  0
 23 40  1  0
 23 41  1  0
 24 42  1  0
 24 43  1  0
 25 44  1  0
 25 45  1  0
 26 46  1  0
 26 47  1  0
M  END
>  <meeko>  (1) 
{"is_sidechain": [false], "free_energy": -5.492, "intermolecular_energy": -6.455, "internal_energy": -0.265}

$$$$
cand_006_out
     RDKit          3D

 47 50  0  0  0  0  0  0  0  0999 V2000
   47.0560   24.0190  -13.5980 C   0  0  0  0  0  0  0  0  0  0  0  0
   45.7220   24.6930  -13.7800 C   0  0  0  0  0  0  0  0  0  0  0  0
   44.5520   23.9220  -13.8050 C   0  0  0  0  0  0  0  0  0  0  0  0
   43.3050   24.5260  -13.9700 C   0  0  0  0  0  0  0  0  0  0  0  0
   43.1970   25.9150  -14.1060 C   0  0  0  0  0  0  0  0  0  0  0  0
   41.8690   26.5340  -14.3040 C   0  0  0  0  0  0  0  0  0  0  0  0
   41.3490   26.3030  -15.5730 O   0  0  0  0  0  0  0  0  0  0  0  0
   40.1200   26.8200  -15.8910 C   0  0  0  0  0  0  0  0  0  0  0  0
   39.6440   26.5760  -17.1810 C   0  0  0  0  0  0  0  0  0  0  0  0
   38.3990   27.0740  -17.5700 C   0  0  0  0  0  0  0  0  0  0  0  0
   37.6300   27.8140  -16.6700 C   0  0  0  0  0  0  0  0  0  0  0  0
   38.1060   28.0560  -15.3840 C   0  0  0  0  0  0  0  0  0  0  0  0
   37.3010   28.7880  -14.5540 O   0  0  0  0  0  0  0  0  0  0  0  0
   39.3540   27.5590  -14.9960 C   0  0  0  0  0  0  0  0  0  0  0  0
   39.8910   27.7900  -13.6540 C   0  0  0  0  0  0  0  0  0  0  0  0
   39.2710   28.4260  -12.8040 O   0  0  0  0  0  0  0  0  0  0  0  0
   41.2260   27.2260  -13.3460 C   0  0  0  0  0  0  0  0  0  0  0  0
   41.7180   27.4400  -12.0710 O   0  0  0  0  0  0  0  0  0  0  0  0
   44.3720   26.6810  -14.0920 C   0  0  0  0  0  0  0  0  0  0  0  0
   45.6380   26.0910  -13.9250 C   0  0  0  0  0  0  0  0  0  0  0  0
   46.8260   26.8580  -13.8960 N   0  0  0  0  0  0  0  0  0  0  0  0
   47.8150   26.3870  -14.8810 C   0  0  0  0  0  0  0  0  0  0  0  0
   48.9640   27.3930  -14.9530 C   0  0  0  0  0  0  0  0  0  0  0  0
   49.5800   27.6290  -13.5740 C   0  0  0  0  0  0  0  0  0  0  0  0
   48.5080   28.0190  -12.5570 C   0  0  0  0  0  0  0  0  0  0  0  0
   47.3690   26.9990  -12.5360 C   0  0  0  0  0  0  0  0  0  0  0  0
   47.2690   23.9114  -12.5242 H   0  0  0  0  0  0  0  0  0  0  0  0
   47.0318   23.0250  -14.0684 H   0  0  0  0  0  0  0  0  0  0  0  0
   47.8418   24.6282  -14.0684 H   0  0  0  0  0  0  0  0  0  0  0  0
   44.6173   22.8296  -13.6934 H   0  0  0  0  0  0  0  0  0  0  0  0
   42.3978   23.9044  -13.9934 H   0  0  0  0  0  0  0  0  0  0  0  0
   40.2493   25.9920  -17.8899 H   0  0  0  0  0  0  0  0  0  0  0  0
   38.0238   26.8832  -18.5863 H   0  0  0  0  0  0  0  0  0  0  0  0
   36.6488   28.2056  -16.9765 H   0  0  0  0  0  0  0  0  0  0  0  0
   36.4540   28.4650  -14.3200 H   0  0  0  0  0  0  0  0  0  0  0  0
   41.3570   28.1200  -11.5380 H   0  0  0  0  0  0  0  0  0  0  0  0
   44.3016   27.7718  -14.2149 H   0  0  0  0  0  0  0  0  0  0  0  0
   48.2034   25.4050  -14.5730 H   0  0  0  0  0  0  0  0  0  0  0  0
   47.3402   26.2938  -15.8689 H   0  0  0  0  0  0  0  0  0  0  0  0
   49.7389   27.0047  -15.6303 H   0  0  0  0  0  0  0  0  0  0  0  0
   48.5669   28.3490  -15.3251 H   0  0  0  0  0  0  0  0  0  0  0  0
   50.0760   26.7063  -13.2385 H   0  0  0  0  0  0  0  0  0  0  0  0
   50.3075   28.4506  -13.6501 H   0  0  0  0  0  0  0  0  0  0  0  0
   48.9634   28.0691  -11.5569 H   0  0  0  0  0  0  0  0  0  0  0  0
   48.0946   28.9971  -12.8442 H   0  0  0  0  0  0  0  0  0  0  0  0
   47.7506   26.0275  -12.1888 H   0  0  0  0  0  0  0  0  0  0  0  0
   46.5769   27.3410  -11.8536 H   0  0  0  0  0  0  0  0  0  0  0  0
  1  2  1  0
  2  3  2  0
  3  4  1  0
  4  5  2  0
  5  6  1  0
  6  7  1  0
  7  8  1  0
  8  9  2  0
  9 10  1  0
 10 11  2  0
 11 12  1  0
 12 13  1  0
 12 14  2  0
 14 15  1  0
 15 16  2  0
 15 17  1  0
 17 18  1  0
  5 19  1  0
 19 20  2  0
 20 21  1  0
 21 22  1  0
 22 23  1  0
 23 24  1  0
 24 25  1  0
 25 26  1  0
 20  2  1  0
 26 21  1  0
 17  6  2  0
 14  8  1  0
  1 27  1  0
  1 28  1  0
  1 29  1  0
  3 30  1  0
  4 31  1  0
  9 32  1  0
 10 33  1  0
 11 34  1  0
 13 35  1  0
 18 36  1  0
 19 37  1  0
 22 38  1  0
 22 39  1  0
 23 40  1  0
 23 41  1  0
 24 42  1  0
 24 43  1  0
 25 44  1  0
 25 45  1  0
 26 46  1  0
 26 47  1  0
M  END
>  <meeko>  (2) 
{"is_sidechain": [false], "free_energy": -5.104, "intermolecular_energy": -6.666, "internal_energy": 0.401}

$$$$
cand_006_out
     RDKit          3D

 47 50  0  0  0  0  0  0  0  0999 V2000
   44.3480   25.9170  -10.9610 C   0  0  0  0  0  0  0  0  0  0  0  0
   43.2110   26.3520  -11.8460 C   0  0  0  0  0  0  0  0  0  0  0  0
   41.9750   26.6860  -11.2770 C   0  0  0  0  0  0  0  0  0  0  0  0
   40.9090   27.0950  -12.0790 C   0  0  0  0  0  0  0  0  0  0  0  0
   41.0550   27.1880  -13.4680 C   0  0  0  0  0  0  0  0  0  0  0  0
   39.9070   27.5990  -14.3030 C   0  0  0  0  0  0  0  0  0  0  0  0
   39.8330   26.9010  -15.5040 O   0  0  0  0  0  0  0  0  0  0  0  0
   38.8120   27.1830  -16.3740 C   0  0  0  0  0  0  0  0  0  0  0  0
   38.7870   26.4680  -17.5730 C   0  0  0  0  0  0  0  0  0  0  0  0
   37.7740   26.7070  -18.5050 C   0  0  0  0  0  0  0  0  0  0  0  0
   36.7870   27.6570  -18.2370 C   0  0  0  0  0  0  0  0  0  0  0  0
   36.8140   28.3680  -17.0400 C   0  0  0  0  0  0  0  0  0  0  0  0
   35.8170   29.2830  -16.8420 O   0  0  0  0  0  0  0  0  0  0  0  0
   37.8300   28.1310  -16.1090 C   0  0  0  0  0  0  0  0  0  0  0  0
   37.8950   28.8560  -14.8390 C   0  0  0  0  0  0  0  0  0  0  0  0
   37.0600   29.7020  -14.5280 O   0  0  0  0  0  0  0  0  0  0  0  0
   39.0160   28.5350  -13.9250 C   0  0  0  0  0  0  0  0  0  0  0  0
   39.0600   29.2170  -12.7230 O   0  0  0  0  0  0  0  0  0  0  0  0
   42.2910   26.8420  -14.0350 C   0  0  0  0  0  0  0  0  0  0  0  0
   43.3780   26.4300  -13.2430 C   0  0  0  0  0  0  0  0  0  0  0  0
   44.6320   26.0930  -13.8040 N   0  0  0  0  0  0  0  0  0  0  0  0
   45.0610   24.7340  -13.4310 C   0  0  0  0  0  0  0  0  0  0  0  0
   46.2940   24.3580  -14.2520 C   0  0  0  0  0  0  0  0  0  0  0  0
   47.4090   25.3900  -14.0800 C   0  0  0  0  0  0  0  0  0  0  0  0
   46.8990   26.7990  -14.3800 C   0  0  0  0  0  0  0  0  0  0  0  0
   45.6530   27.1230  -13.5550 C   0  0  0  0  0  0  0  0  0  0  0  0
   44.0554   26.0289   -9.9065 H   0  0  0  0  0  0  0  0  0  0  0  0
   44.5889   24.8632  -11.1648 H   0  0  0  0  0  0  0  0  0  0  0  0
   45.2307   26.5409  -11.1648 H   0  0  0  0  0  0  0  0  0  0  0  0
   41.8436   26.6252  -10.1866 H   0  0  0  0  0  0  0  0  0  0  0  0
   39.9440   27.3469  -11.6150 H   0  0  0  0  0  0  0  0  0  0  0  0
   39.5635   25.7178  -17.7834 H   0  0  0  0  0  0  0  0  0  0  0  0
   37.7542   26.1460  -19.4510 H   0  0  0  0  0  0  0  0  0  0  0  0
   35.9888   27.8438  -18.9705 H   0  0  0  0  0  0  0  0  0  0  0  0
   34.9280   28.9990  -16.7690 H   0  0  0  0  0  0  0  0  0  0  0  0
   39.6680   29.9210  -12.6060 H   0  0  0  0  0  0  0  0  0  0  0  0
   42.4130   26.8943  -15.1270 H   0  0  0  0  0  0  0  0  0  0  0  0
   45.3090   24.7067  -12.3597 H   0  0  0  0  0  0  0  0  0  0  0  0
   44.2489   24.0198  -13.6321 H   0  0  0  0  0  0  0  0  0  0  0  0
   46.6602   23.3754  -13.9198 H   0  0  0  0  0  0  0  0  0  0  0  0
   46.0090   24.3271  -15.3140 H   0  0  0  0  0  0  0  0  0  0  0  0
   47.7771   25.3532  -13.0441 H   0  0  0  0  0  0  0  0  0  0  0  0
   48.2197   25.1523  -14.7845 H   0  0  0  0  0  0  0  0  0  0  0  0
   47.6886   27.5256  -14.1379 H   0  0  0  0  0  0  0  0  0  0  0  0
   46.6349   26.8543  -15.4464 H   0  0  0  0  0  0  0  0  0  0  0  0
   45.9115   27.1351  -12.4859 H   0  0  0  0  0  0  0  0  0  0  0  0
   45.2628   28.1102  -13.8434 H   0  0  0  0  0  0  0  0  0  0  0  0
  1  2  1  0
  2  3  2  0
  3  4  1  0
  4  5  2  0
  5  6  1  0
  6  7  1  0
  7  8  1  0
  8  9  2  0
  9 10  1  0
 10 11  2  0
 11 12  1  0
 12 13  1  0
 12 14  2  0
 14 15  1  0
 15 16  2  0
 15 17  1  0
 17 18  1  0
  5 19  1  0
 19 20  2  0
 20 21  1  0
 21 22  1  0
 22 23  1  0
 23 24  1  0
 24 25  1  0
 25 26  1  0
 20  2  1  0
 26 21  1  0
 17  6  2  0
 14  8  1  0
  1 27  1  0
  1 28  1  0
  1 29  1  0
  3 30  1  0
  4 31  1  0
  9 32  1  0
 10 33  1  0
 11 34  1  0
 13 35  1  0
 18 36  1  0
 19 37  1  0
 22 38  1  0
 22 39  1  0
 23 40  1  0
 23 41  1  0
 24 42  1  0
 24 43  1  0
 25 44  1  0
 25 45  1  0
 26 46  1  0
 26 47  1  0
M  END
>  <meeko>  (3) 
{"is_sidechain": [false], "free_energy": -5.036, "intermolecular_energy": -6.985, "internal_energy": 0.801}

$$$$
cand_006_out
     RDKit          3D

 47 50  0  0  0  0  0  0  0  0999 V2000
   47.0520   24.0290  -13.2890 C   0  0  0  0  0  0  0  0  0  0  0  0
   45.7380   24.6340  -13.7040 C   0  0  0  0  0  0  0  0  0  0  0  0
   44.5850   23.8390  -13.7280 C   0  0  0  0  0  0  0  0  0  0  0  0
   43.3550   24.3800  -14.1060 C   0  0  0  0  0  0  0  0  0  0  0  0
   43.2480   25.7290  -14.4620 C   0  0  0  0  0  0  0  0  0  0  0  0
   41.9410   26.2780  -14.8840 C   0  0  0  0  0  0  0  0  0  0  0  0
   41.3320   27.0440  -13.8960 O   0  0  0  0  0  0  0  0  0  0  0  0
   40.1130   27.6150  -14.1550 C   0  0  0  0  0  0  0  0  0  0  0  0
   39.5330   28.3630  -13.1300 C   0  0  0  0  0  0  0  0  0  0  0  0
   38.2920   28.9720  -13.3280 C   0  0  0  0  0  0  0  0  0  0  0  0
   37.6330   28.8340  -14.5520 C   0  0  0  0  0  0  0  0  0  0  0  0
   38.2140   28.0880  -15.5740 C   0  0  0  0  0  0  0  0  0  0  0  0
   37.5150   27.9950  -16.7450 O   0  0  0  0  0  0  0  0  0  0  0  0
   39.4560   27.4770  -15.3730 C   0  0  0  0  0  0  0  0  0  0  0  0
   40.1010   26.6850  -16.4200 C   0  0  0  0  0  0  0  0  0  0  0  0
   39.5880   26.5230  -17.5260 O   0  0  0  0  0  0  0  0  0  0  0  0
   41.4130   26.0730  -16.1050 C   0  0  0  0  0  0  0  0  0  0  0  0
   42.0200   25.3370  -17.1070 O   0  0  0  0  0  0  0  0  0  0  0  0
   44.4070   26.5190  -14.4470 C   0  0  0  0  0  0  0  0  0  0  0  0
   45.6560   25.9920  -14.0670 C   0  0  0  0  0  0  0  0  0  0  0  0
   46.8270   26.7840  -14.0370 N   0  0  0  0  0  0  0  0  0  0  0  0
   47.8260   26.3370  -15.0220 C   0  0  0  0  0  0  0  0  0  0  0  0
   48.9530   27.3680  -15.0920 C   0  0  0  0  0  0  0  0  0  0  0  0
   49.5640   27.6130  -13.7130 C   0  0  0  0  0  0  0  0  0  0  0  0
   48.4840   27.9780  -12.6940 C   0  0  0  0  0  0  0  0  0  0  0  0
   47.3670   26.9330  -12.6760 C   0  0  0  0  0  0  0  0  0  0  0  0
   47.1124   24.0012  -12.1910 H   0  0  0  0  0  0  0  0  0  0  0  0
   47.1264   23.0060  -13.6863 H   0  0  0  0  0  0  0  0  0  0  0  0
   47.8777   24.6376  -13.6863 H   0  0  0  0  0  0  0  0  0  0  0  0
   44.6495   22.7777  -13.4461 H   0  0  0  0  0  0  0  0  0  0  0  0
   42.4609   23.7395  -14.1242 H   0  0  0  0  0  0  0  0  0  0  0  0
   40.0528   28.4729  -12.1668 H   0  0  0  0  0  0  0  0  0  0  0  0
   37.8332   29.5606  -12.5199 H   0  0  0  0  0  0  0  0  0  0  0  0
   36.6558   29.3143  -14.7083 H   0  0  0  0  0  0  0  0  0  0  0  0
   36.9240   27.2820  -16.8820 H   0  0  0  0  0  0  0  0  0  0  0  0
   41.5320   25.0920  -17.8680 H   0  0  0  0  0  0  0  0  0  0  0  0
   44.3383   27.5771  -14.7396 H   0  0  0  0  0  0  0  0  0  0  0  0
   48.2357   25.3632  -14.7157 H   0  0  0  0  0  0  0  0  0  0  0  0
   47.3536   26.2355  -16.0102 H   0  0  0  0  0  0  0  0  0  0  0  0
   49.7357   26.9985  -15.7708 H   0  0  0  0  0  0  0  0  0  0  0  0
   48.5353   28.3162  -15.4614 H   0  0  0  0  0  0  0  0  0  0  0  0
   50.0792   26.6999  -13.3801 H   0  0  0  0  0  0  0  0  0  0  0  0
   50.2740   28.4499  -13.7872 H   0  0  0  0  0  0  0  0  0  0  0  0
   48.9385   28.0351  -11.6939 H   0  0  0  0  0  0  0  0  0  0  0  0
   48.0499   28.9481  -12.9778 H   0  0  0  0  0  0  0  0  0  0  0  0
   47.7696   25.9690  -12.3316 H   0  0  0  0  0  0  0  0  0  0  0  0
   46.5676   27.2558  -11.9927 H   0  0  0  0  0  0  0  0  0  0  0  0
  1  2  1  0
  2  3  2  0
  3  4  1  0
  4  5  2  0
  5  6  1  0
  6  7  1  0
  7  8  1  0
  8  9  2  0
  9 10  1  0
 10 11  2  0
 11 12  1  0
 12 13  1  0
 12 14  2  0
 14 15  1  0
 15 16  2  0
 15 17  1  0
 17 18  1  0
  5 19  1  0
 19 20  2  0
 20 21  1  0
 21 22  1  0
 22 23  1  0
 23 24  1  0
 24 25  1  0
 25 26  1  0
 20  2  1  0
 26 21  1  0
 17  6  2  0
 14  8  1  0
  1 27  1  0
  1 28  1  0
  1 29  1  0
  3 30  1  0
  4 31  1  0
  9 32  1  0
 10 33  1  0
 11 34  1  0
 13 35  1  0
 18 36  1  0
 19 37  1  0
 22 38  1  0
 22 39  1  0
 23 40  1  0
 23 41  1  0
 24 42  1  0
 24 43  1  0
 25 44  1  0
 25 45  1  0
 26 46  1  0
 26 47  1  0
M  END
>  <meeko>  (4) 
{"is_sidechain": [false], "free_energy": -3.222, "intermolecular_energy": -4.404, "internal_energy": 0.352}

$$$$
cand_006_out
     RDKit          3D

 47 50  0  0  0  0  0  0  0  0999 V2000
   43.4170   26.1790  -10.7380 C   0  0  0  0  0  0  0  0  0  0  0  0
   42.3850   26.5480  -11.7690 C   0  0  0  0  0  0  0  0  0  0  0  0
   41.1030   26.9400  -11.3600 C   0  0  0  0  0  0  0  0  0  0  0  0
   40.1320   27.2900  -12.2980 C   0  0  0  0  0  0  0  0  0  0  0  0
   40.4200   27.2640  -13.6680 C   0  0  0  0  0  0  0  0  0  0  0  0
   39.3700   27.6140  -14.6480 C   0  0  0  0  0  0  0  0  0  0  0  0
   39.3600   26.7710  -15.7540 O   0  0  0  0  0  0  0  0  0  0  0  0
   38.4320   26.9830  -16.7410 C   0  0  0  0  0  0  0  0  0  0  0  0
   38.4690   26.1210  -17.8390 C   0  0  0  0  0  0  0  0  0  0  0  0
   37.5520   26.2820  -18.8810 C   0  0  0  0  0  0  0  0  0  0  0  0
   36.6000   27.3010  -18.8230 C   0  0  0  0  0  0  0  0  0  0  0  0
   36.5650   28.1590  -17.7270 C   0  0  0  0  0  0  0  0  0  0  0  0
   35.6070   29.1340  -17.7360 O   0  0  0  0  0  0  0  0  0  0  0  0
   37.4850   27.9990  -16.6860 C   0  0  0  0  0  0  0  0  0  0  0  0
   37.4830   28.8780  -15.5160 C   0  0  0  0  0  0  0  0  0  0  0  0
   36.6720   29.7930  -15.3890 O   0  0  0  0  0  0  0  0  0  0  0  0
   38.5040   28.6290  -14.4710 C   0  0  0  0  0  0  0  0  0  0  0  0
   38.4840   29.4580  -13.3640 O   0  0  0  0  0  0  0  0  0  0  0  0
   41.7010   26.8610  -14.0740 C   0  0  0  0  0  0  0  0  0  0  0  0
   42.6940   26.5060  -13.1420 C   0  0  0  0  0  0  0  0  0  0  0  0
   43.9920   26.1120  -13.5420 N   0  0  0  0  0  0  0  0  0  0  0  0
   44.1750   24.6520  -13.4740 C   0  0  0  0  0  0  0  0  0  0  0  0
   45.5050   24.2860  -14.1340 C   0  0  0  0  0  0  0  0  0  0  0  0
   46.6660   25.0490  -13.4980 C   0  0  0  0  0  0  0  0  0  0  0  0
   46.3950   26.5530  -13.4970 C   0  0  0  0  0  0  0  0  0  0  0  0
   45.0470   26.8710  -12.8510 C   0  0  0  0  0  0  0  0  0  0  0  0
   42.9994   26.3283   -9.7314 H   0  0  0  0  0  0  0  0  0  0  0  0
   43.7006   25.1238  -10.8645 H   0  0  0  0  0  0  0  0  0  0  0  0
   44.3054   26.8152  -10.8645 H   0  0  0  0  0  0  0  0  0  0  0  0
   40.8601   26.9719  -10.2876 H   0  0  0  0  0  0  0  0  0  0  0  0
   39.1297   27.5895  -11.9580 H   0  0  0  0  0  0  0  0  0  0  0  0
   39.2184   25.3170  -17.8836 H   0  0  0  0  0  0  0  0  0  0  0  0
   37.5804   25.6051  -19.7476 H   0  0  0  0  0  0  0  0  0  0  0  0
   35.8775   27.4262  -19.6430 H   0  0  0  0  0  0  0  0  0  0  0  0
   35.7110   29.8880  -18.2810 H   0  0  0  0  0  0  0  0  0  0  0  0
   37.8050   29.3690  -12.7250 H   0  0  0  0  0  0  0  0  0  0  0  0
   41.9352   26.8215  -15.1480 H   0  0  0  0  0  0  0  0  0  0  0  0
   44.1842   24.3300  -12.4222 H   0  0  0  0  0  0  0  0  0  0  0  0
   43.3490   24.1490  -13.9981 H   0  0  0  0  0  0  0  0  0  0  0  0
   45.6784   23.2061  -14.0170 H   0  0  0  0  0  0  0  0  0  0  0  0
   45.4517   24.5572  -15.1987 H   0  0  0  0  0  0  0  0  0  0  0  0
   46.7973   24.7061  -12.4611 H   0  0  0  0  0  0  0  0  0  0  0  0
   47.5764   24.8564  -14.0847 H   0  0  0  0  0  0  0  0  0  0  0  0
   47.1916   27.0608  -12.9335 H   0  0  0  0  0  0  0  0  0  0  0  0
   46.3732   26.9038  -14.5393 H   0  0  0  0  0  0  0  0  0  0  0  0
   45.0708   26.5857  -11.7889 H   0  0  0  0  0  0  0  0  0  0  0  0
   44.8420   27.9487  -12.9314 H   0  0  0  0  0  0  0  0  0  0  0  0
  1  2  1  0
  2  3  2  0
  3  4  1  0
  4  5  2  0
  5  6  1  0
  6  7  1  0
  7  8  1  0
  8  9  2  0
  9 10  1  0
 10 11  2  0
 11 12  1  0
 12 13  1  0
 12 14  2  0
 14 15  1  0
 15 16  2  0
 15 17  1  0
 17 18  1  0
  5 19  1  0
 19 20  2  0
 20 21  1  0
 21 22  1  0
 22 23  1  0
 23 24  1  0
 24 25  1  0
 25 26  1  0
 20  2  1  0
 26 21  1  0
 17  6  2  0
 14  8  1  0
  1 27  1  0
  1 28  1  0
  1 29  1  0
  3 30  1  0
  4 31  1  0
  9 32  1  0
 10 33  1  0
 11 34  1  0
 13 35  1  0
 18 36  1  0
 19 37  1  0
 22 38  1  0
 22 39  1  0
 23 40  1  0
 23 41  1  0
 24 42  1  0
 24 43  1  0
 25 44  1  0
 25 45  1  0
 26 46  1  0
 26 47  1  0
M  END
>  <meeko>  (5) 
{"is_sidechain": [false], "free_energy": -3.05, "intermolecular_energy": -4.653, "internal_energy": 0.803}

$$$$
